AV-unprocessed.smi:2371|AV-procd|sdf|9436|dock5
  -GOLD-   2272013 63D 1   1.00000     0.00000
 Structure written by MMmdl.
 35 36  0  0  0  0  0  0  0  0  1 V2000
  153.8670  141.8267  160.8456 C   0  0  0  0  0  0  0  0  0  0  0  0
  152.7699  142.6639  160.3536 N   0  0  0  0  0  0  0  0  0  0  0  0
  152.5074  143.8612  161.0407 C   0  0  0  0  0  0  0  0  0  0  0  0
  151.5227  144.6879  160.6621 C   0  0  0  0  0  0  0  0  0  0  0  0
  150.7234  144.3236  159.5171 C   0  0  0  0  0  0  0  0  0  0  0  0
  150.9647  143.1761  158.8343 C   0  0  0  0  0  0  0  0  0  0  0  0
  150.2308  142.7436  157.7162 N   0  0  0  0  0  0  0  0  0  0  0  0
  149.7896  141.5089  157.4127 C   0  0  0  0  0  0  0  0  0  0  0  0
  149.9352  140.5017  158.1047 O   0  0  0  0  0  0  0  0  0  0  0  0
  149.1311  141.5114  156.2452 N   0  0  0  0  0  0  0  0  0  0  0  0
  148.4947  140.3519  155.6281 C   0  0  0  0  0  0  0  0  0  0  0  0
  149.4957  139.5197  154.8081 C   0  0  2  0  0  0  0  0  0  0  0  0
  149.3427  138.0037  154.9390 C   0  0  0  0  0  0  0  0  0  0  0  0
  150.7319  137.5270  154.5843 C   0  0  0  0  0  0  0  0  0  0  0  0
  151.6024  138.5950  155.2400 C   0  0  0  0  0  0  0  0  0  0  0  0
  150.8282  139.7923  155.2349 O   0  0  0  0  0  0  0  0  0  0  0  0
  152.0431  142.2659  159.2671 C   0  0  0  0  0  0  0  0  0  0  0  0
  152.2881  141.2034  158.6904 O   0  0  0  0  0  0  0  0  0  0  0  0
  154.3982  142.2785  161.6840 H   0  0  0  0  0  0  0  0  0  0  0  0
  154.6000  141.6495  160.0571 H   0  0  0  0  0  0  0  0  0  0  0  0
  153.4881  140.8603  161.1814 H   0  0  0  0  0  0  0  0  0  0  0  0
  153.1487  144.0627  161.8862 H   0  0  0  0  0  0  0  0  0  0  0  0
  151.3320  145.6047  161.2001 H   0  0  0  0  0  0  0  0  0  0  0  0
  149.9229  144.9916  159.2431 H   0  0  0  0  0  0  0  0  0  0  0  0
  149.9683  143.4811  157.0783 H   0  0  0  0  0  0  0  0  0  0  0  0
  149.0552  142.3861  155.7466 H   0  0  0  0  0  0  0  0  0  0  0  0
  148.0840  139.7369  156.4290 H   0  0  0  0  0  0  0  0  0  0  0  0
  147.6465  140.6496  155.0093 H   0  0  0  0  0  0  0  0  0  0  0  0
  149.4317  139.7951  153.7542 H   0  0  0  0  0  0  0  0  0  0  0  0
  149.1068  137.7268  155.9676 H   0  0  0  0  0  0  0  0  0  0  0  0
  148.5698  137.5947  154.2876 H   0  0  0  0  0  0  0  0  0  0  0  0
  150.9470  136.5201  154.9432 H   0  0  0  0  0  0  0  0  0  0  0  0
  150.8677  137.5419  153.5020 H   0  0  0  0  0  0  0  0  0  0  0  0
  151.8174  138.3284  156.2755 H   0  0  0  0  0  0  0  0  0  0  0  0
  152.5518  138.7319  154.7220 H   0  0  0  0  0  0  0  0  0  0  0  0
  1  2  1  0  0  0  0
  1 19  1  0  0  0  0
  1 20  1  0  0  0  0
  1 21  1  0  0  0  0
  2 17  1  0  0  0  0
  2  3  1  0  0  0  0
  3  4  2  0  0  0  0
  3 22  1  0  0  0  0
  4  5  1  0  0  0  0
  4 23  1  0  0  0  0
  5  6  2  0  0  0  0
  5 24  1  0  0  0  0
  6  7  1  0  0  0  0
  6 17  1  0  0  0  0
  7  8  1  0  0  0  0
  7 25  1  0  0  0  0
  8  9  2  0  0  0  0
  8 10  1  0  0  0  0
 10 11  1  0  0  0  0
 10 26  1  0  0  0  0
 11 12  1  0  0  0  0
 11 27  1  0  0  0  0
 11 28  1  0  0  0  0
 12 16  1  0  0  0  0
 12 13  1  0  0  0  0
 12 29  1  0  0  0  0
 13 14  1  0  0  0  0
 13 30  1  0  0  0  0
 13 31  1  0  0  0  0
 14 15  1  0  0  0  0
 14 32  1  0  0  0  0
 14 33  1  0  0  0  0
 15 16  1  0  0  0  0
 15 34  1  0  0  0  0
 15 35  1  0  0  0  0
 17 18  2  0  0  0  0
M  END
> <s_m_source_file>
AV-unprocessed.smi

> <i_m_source_file_index>
2371

> <i_lp_mmshare_version>
43012

> <i_f3d_flags>
0

> <s_epik_input>
W0NIM11uMVtjSF1bY0hdW2NIXWMoYzE9TylbTkhdQyg9TylbTkhdW0NIMl1bQ0BASF0yW0NIMl1bQ0gyXVtDSDJdTzI=

> <s_epik_cmdline>
J2VwaWtfcHl0aG9uJywgJy1waCcsICc3LjAnLCAnLXRuJywgJzgnLCAnLW1hJywgJzIwMCcsICctbWV0YWxfYmluZGluZycsICctaW1hZScsICc8aW5maWxlLm1hZT4nLCAnLW9tYWUnLCAnPG91dGZpbGUubWFlPic=

> <r_lp_tautomer_probability>
1

> <r_epik_Ionization_Penalty>
2.36512e-05

> <r_epik_Ionization_Penalty_Charging>
4.84074e-06

> <r_epik_Ionization_Penalty_Neutral>
1.88105e-05

> <r_epik_State_Penalty>
-0

> <r_epik_Charging_Adjusted_Penalty>
4.84074e-06

> <i_epik_Tot_Q>
0

> <i_epik_Tot_abs_Q>
0

> <r_epik_Metal_State_Penalty>
-0

> <b_epik_Metal_Only>
0

> <s_lp_Force_Field>
OPLS_2005

> <r_lp_Energy>
29.8245

> <b_lp_Chiralities_Consistent>
1

> <s_lp_Variant>
AV-unprocessed.smi:2371-1

> <Gold.Version>
5.8.1

> <Gold.Id.Protein>
6NUR|6NUR_protein|mol2

> <Gold.PLP.Fitness>
46.7817

> <Gold.PLP.PLP>
-40.9909

> <Gold.PLP.part.hbond>
-3.0000

> <Gold.PLP.part.metal>
0.0000

> <Gold.PLP.part.buried>
-5.5043

> <Gold.PLP.part.nonpolar>
-33.3749

> <Gold.PLP.part.repulsive>
0.1959

> <Gold.PLP.ligand.clash>
0.0000

> <Gold.PLP.ligand.torsion>
1.0671

> <Gold.PLP.Chemscore.Hbond>
2.6400

> <Gold.PLP.Chemscore.CHOScore>
0.0000

> <Gold.PLP.Chemscore.Metal>
0.0000

> <Gold.Chemscore.Hbonds>
donor molecule, donor type, donor heavy atom, donor atom, acceptor molecule, acceptor atom, score
      L1  H     7    25       P1  8028  0.67
      L1  H    10    26       P1  8028  0.23
      P1  H  7989  7998       L1    16  0.59

> <Gold.PLP.Chemscore.Internal.Correction>
0.0051

> <Gold.Rescore>
     Score         DG    S(hbond)    S(metal)    S(lipo)     H(rot)  DE(clash)    DE(int)     intcor
     12.50     -18.82       1.88        0.00      87.63       1.25       0.20       6.12       ----

> <Gold.Chemscore.Fitness>
12.5007

> <Gold.Chemscore.DG>
-18.8209

> <Gold.Chemscore.ZeroCoef>
-5.4800

> <Gold.Chemscore.Hbond>
1.8810

> <Gold.Chemscore.Metal>
0.0000

> <Gold.Chemscore.Lipo>
87.6305

> <Gold.Chemscore.Internal_Hbond>
0.0000

> <Gold.Chemscore.DEClash>
0.1988

> <Gold.Chemscore.DEInternal>
6.1214

> <Gold.Chemscore.Rot>
1.2478

> <Gold.Chemscore.Internal.Correction>
   9.000000E+99

> <Gold.Chemscore.Hbonds>
donor molecule, donor type, donor heavy atom, donor atom, acceptor molecule, acceptor atom, score
      L1  H     7    25       P1  8028  0.66
      L1  H    10    26       P1  8028  0.22
      P1  H  7989  7998       L1    16  0.07

> <Gold.Chemscore.Hbond.Weighted>
-6.2825

> <Gold.Chemscore.Metal.Weighted>
-0.0000

> <Gold.Chemscore.Lipo.Weighted>
-10.2528

> <Gold.Chemscore.Internal_Hbond.Weighted>
0.0000

> <Gold.Chemscore.DEClash.Weighted>
0.1988

> <Gold.Chemscore.DEInternal.Weighted>
6.1214

> <Gold.Chemscore.Rot.Weighted>
3.1944

> <Gold.Chemscore.Internal.Correction.Weighted>
   9.000000E+99

> <Gold.Protein.RotatedTorsions>
[ 6907 6896 6895 6894 ] final   17.19 input  -60.11 | X-H torsion
[ 7974 7965 7964 7962 ] final -177.34 input  175.53 | X-H torsion
[ 8008 7997 7996 7995 ] final -116.59 input   59.86 | X-H torsion
[ 10167 10162 10161 10158 ] final   24.33 input  -65.29 | X-H torsion
[ 10718 10713 10712 10709 ] final  160.49 input   66.30 | X-H torsion
[ 10763 10752 10751 10750 ] final  143.69 input  -60.55 | X-H torsion
[ 11005 11000 10999 10996 ] final -137.48 input  -57.11 | X-H torsion

> <Gold.Protein.ActiveResidues>
 VAL166  LYS551  ARG553  GLY616  TRP617  ASP618  TYR619  PRO620  LYS621  CYS622 
 ASP623  PHE694  ASN695  SER759  ASP760  ASP761  ALA762  ILE779  LEU786  VAL792 
 PHE793  MET794  SER795  GLU796  ALA797  LYS798  CYS799  TRP800  GLU811  SER814 

> <Gold.Protein.RotatedAtoms>
  151.8458  135.0575  160.0453 H   0  0  0  0  0  0  0  0  0  0  0  0  # atno 6907 bound_to 6896
  152.2774  133.5434  159.5485 H   0  0  0  0  0  0  0  0  0  0  0  0  # atno 6908 bound_to 6896
  150.7176  134.0528  159.3846 H   0  0  0  0  0  0  0  0  0  0  0  0  # atno 6909 bound_to 6896
  144.7127  140.1034  143.6415 H   0  0  0  0  0  0  0  0  0  0  0  0  # atno 7974 bound_to 7965
  155.0703  140.0393  157.2606 H   0  0  0  0  0  0  0  0  0  0  0  0  # atno 8008 bound_to 7997
  154.6988  140.2669  155.6715 H   0  0  0  0  0  0  0  0  0  0  0  0  # atno 8009 bound_to 7997
  156.2753  140.2744  156.1592 H   0  0  0  0  0  0  0  0  0  0  0  0  # atno 8010 bound_to 7997
  140.5197  144.0023  150.6411 H   0  0  0  0  0  0  0  0  0  0  0  0  # atno 10167 bound_to 10162
  157.1497  131.0561  151.2286 H   0  0  0  0  0  0  0  0  0  0  0  0  # atno 10718 bound_to 10713
  153.9764  135.2945  155.3423 H   0  0  0  0  0  0  0  0  0  0  0  0  # atno 10763 bound_to 10752
  154.7293  135.5075  153.8941 H   0  0  0  0  0  0  0  0  0  0  0  0  # atno 10764 bound_to 10752
  153.0875  135.6698  154.0033 H   0  0  0  0  0  0  0  0  0  0  0  0  # atno 10765 bound_to 10752
  140.8707  134.2054  157.4652 H   0  0  0  0  0  0  0  0  0  0  0  0  # atno 11005 bound_to 11000
  145.9517  139.2738  143.1208 LP  0  0  0  0  0  0  0  0  0  0  0  0  # atno 17320 bound_to 7965
  145.9315  140.9045  143.0354 LP  0  0  0  0  0  0  0  0  0  0  0  0  # atno 17321 bound_to 7965
  140.3368  143.3043  152.0629 LP  0  0  0  0  0  0  0  0  0  0  0  0  # atno 17342 bound_to 10162
  139.4920  144.6470  151.6756 LP  0  0  0  0  0  0  0  0  0  0  0  0  # atno 17343 bound_to 10162
  157.4232  130.7449  149.6930 LP  0  0  0  0  0  0  0  0  0  0  0  0  # atno 17370 bound_to 10713
  155.9773  130.4065  150.3722 LP  0  0  0  0  0  0  0  0  0  0  0  0  # atno 17371 bound_to 10713
  139.8712  134.9773  156.4953 LP  0  0  0  0  0  0  0  0  0  0  0  0  # atno 17394 bound_to 11000
  140.8576  133.8084  155.9232 LP  0  0  0  0  0  0  0  0  0  0  0  0  # atno 17395 bound_to 11000

$$$$
