AV-unprocessed.smi:585|AV-procd|sdf|3000|dock4
  -GOLD-   2262023503D 1   1.00000     0.00000
 Structure written by MMmdl.
 38 39  0  0  0  0  0  0  0  0  1 V2000
  145.8243  137.3621  151.9919 C   0  0  0  0  0  0  0  0  0  0  0  0
  146.4531  138.6281  152.0810 O   0  0  0  0  0  0  0  0  0  0  0  0
  146.5484  139.0971  153.4157 C   0  0  0  0  0  0  0  0  0  0  0  0
  147.3200  140.4245  153.4524 C   0  0  0  0  0  0  0  0  0  0  0  0
  148.7643  140.2315  153.3890 N   0  0  0  0  0  0  0  0  0  0  0  0
  149.5498  140.1676  154.5491 C   0  0  0  0  0  0  0  0  0  0  0  0
  148.9300  140.4145  155.7937 C   0  0  0  0  0  0  0  0  0  0  0  0
  149.7085  140.3572  156.9663 C   0  0  0  0  0  0  0  0  0  0  0  0
  151.0773  140.0543  156.8443 C   0  0  0  0  0  0  0  0  0  0  0  0
  152.1114  139.9748  158.2985 S   0  0  0  0  0  0  0  0  0  0  0  0
  151.2677  139.5622  159.4312 O   0  0  0  0  0  0  0  0  0  0  0  0
  153.3456  139.2370  157.9865 O   0  0  0  0  0  0  0  0  0  0  0  0
  152.5297  141.6364  158.5390 N   0  0  0  0  0  0  0  0  0  0  0  0
  151.4877  142.6613  158.3975 C   0  0  0  0  0  0  0  0  0  0  0  0
  151.6226  143.5578  159.6289 C   0  0  0  0  0  0  0  0  0  0  0  0
  153.0978  143.4446  159.9871 C   0  0  0  0  0  0  0  0  0  0  0  0
  153.4296  141.9929  159.6436 C   0  0  0  0  0  0  0  0  0  0  0  0
  151.6152  139.8244  155.5630 C   0  0  0  0  0  0  0  0  0  0  0  0
  150.8706  139.8837  154.4379 N   0  0  0  0  0  0  0  0  0  0  0  0
  145.7672  137.0546  150.9478 H   0  0  0  0  0  0  0  0  0  0  0  0
  144.8090  137.3960  152.3892 H   0  0  0  0  0  0  0  0  0  0  0  0
  146.3887  136.6035  152.5357 H   0  0  0  0  0  0  0  0  0  0  0  0
  145.5419  139.2585  153.8044 H   0  0  0  0  0  0  0  0  0  0  0  0
  147.0280  138.3560  154.0576 H   0  0  0  0  0  0  0  0  0  0  0  0
  146.9689  141.1029  152.6742 H   0  0  0  0  0  0  0  0  0  0  0  0
  147.1129  140.9228  154.3996 H   0  0  0  0  0  0  0  0  0  0  0  0
  149.2221  140.3732  152.5003 H   0  0  0  0  0  0  0  0  0  0  0  0
  147.8759  140.6433  155.8533 H   0  0  0  0  0  0  0  0  0  0  0  0
  149.2639  140.5430  157.9328 H   0  0  0  0  0  0  0  0  0  0  0  0
  151.6703  143.2238  157.4813 H   0  0  0  0  0  0  0  0  0  0  0  0
  150.4947  142.2151  158.3326 H   0  0  0  0  0  0  0  0  0  0  0  0
  151.3093  144.5850  159.4401 H   0  0  0  0  0  0  0  0  0  0  0  0
  151.0128  143.1633  160.4431 H   0  0  0  0  0  0  0  0  0  0  0  0
  153.6844  144.1184  159.3610 H   0  0  0  0  0  0  0  0  0  0  0  0
  153.3012  143.6894  161.0300 H   0  0  0  0  0  0  0  0  0  0  0  0
  153.2273  141.3501  160.5009 H   0  0  0  0  0  0  0  0  0  0  0  0
  154.4723  141.8577  159.3547 H   0  0  0  0  0  0  0  0  0  0  0  0
  152.6619  139.5952  155.4295 H   0  0  0  0  0  0  0  0  0  0  0  0
  1  2  1  0  0  0  0
  1 20  1  0  0  0  0
  1 21  1  0  0  0  0
  1 22  1  0  0  0  0
  2  3  1  0  0  0  0
  3  4  1  0  0  0  0
  3 23  1  0  0  0  0
  3 24  1  0  0  0  0
  4  5  1  0  0  0  0
  4 25  1  0  0  0  0
  4 26  1  0  0  0  0
  5  6  1  0  0  0  0
  5 27  1  0  0  0  0
  6 19  1  0  0  0  0
  6  7  2  0  0  0  0
  7  8  1  0  0  0  0
  7 28  1  0  0  0  0
  8  9  2  0  0  0  0
  8 29  1  0  0  0  0
  9 10  1  0  0  0  0
  9 18  1  0  0  0  0
 10 11  2  0  0  0  0
 10 12  2  0  0  0  0
 10 13  1  0  0  0  0
 13 17  1  0  0  0  0
 13 14  1  0  0  0  0
 14 15  1  0  0  0  0
 14 30  1  0  0  0  0
 14 31  1  0  0  0  0
 15 16  1  0  0  0  0
 15 32  1  0  0  0  0
 15 33  1  0  0  0  0
 16 17  1  0  0  0  0
 16 34  1  0  0  0  0
 16 35  1  0  0  0  0
 17 36  1  0  0  0  0
 17 37  1  0  0  0  0
 18 19  2  0  0  0  0
 18 38  1  0  0  0  0
M  END
> <s_m_source_file>
AV-unprocessed.smi

> <i_m_source_file_index>
585

> <i_lp_mmshare_version>
43012

> <i_f3d_flags>
0

> <s_epik_input>
W0NIM11PW0NIMl1bQ0gyXVtOSF1jMVtjSF1bY0hdYyhbY0hdbjEpUyg9TykoPU8pTjJbQ0gyXVtDSDJdW0NIMl1bQ0gyXTI=

> <s_epik_cmdline>
J2VwaWtfcHl0aG9uJywgJy1waCcsICc3LjAnLCAnLXRuJywgJzgnLCAnLW1hJywgJzIwMCcsICctbWV0YWxfYmluZGluZycsICctaW1hZScsICc8aW5maWxlLm1hZT4nLCAnLW9tYWUnLCAnPG91dGZpbGUubWFlPic=

> <r_lp_tautomer_probability>
1

> <r_epik_Ionization_Penalty>
0.000380006

> <r_epik_Ionization_Penalty_Charging>
0

> <r_epik_Ionization_Penalty_Neutral>
0.000380006

> <r_epik_State_Penalty>
0.000231905

> <r_epik_Charging_Adjusted_Penalty>
0.000231905

> <i_epik_Tot_Q>
0

> <i_epik_Tot_abs_Q>
0

> <r_epik_Metal_State_Penalty>
-0

> <b_epik_Metal_Only>
0

> <s_lp_Force_Field>
OPLS_2005

> <r_lp_Energy>
14.2821

> <b_lp_Chiralities_Consistent>
1

> <s_lp_Variant>
AV-unprocessed.smi:585-1

> <Gold.Version>
5.8.1

> <Gold.Id.Protein>
6NUR|6NUR_protein|mol2

> <Gold.PLP.Fitness>
40.1745

> <Gold.PLP.PLP>
-31.8360

> <Gold.PLP.part.hbond>
-3.4402

> <Gold.PLP.part.metal>
0.0000

> <Gold.PLP.part.buried>
-4.1094

> <Gold.PLP.part.nonpolar>
-26.1215

> <Gold.PLP.part.repulsive>
0.5784

> <Gold.PLP.ligand.clash>
0.0000

> <Gold.PLP.ligand.torsion>
1.6257

> <Gold.PLP.Chemscore.Hbond>
3.0000

> <Gold.PLP.Chemscore.CHOScore>
0.0000

> <Gold.PLP.Chemscore.Metal>
0.0000

> <Gold.Chemscore.Hbonds>
donor molecule, donor type, donor heavy atom, donor atom, acceptor molecule, acceptor atom, score
      L1  H     5    27       P1  7957  0.75
      P1  H  7989  7998       L1    19  1.00
      P1  H  7997  8008       L1    12  1.00

> <Gold.PLP.Chemscore.Internal.Correction>
2.5899

> <Gold.Rescore>
     Score         DG    S(hbond)    S(metal)    S(lipo)     H(rot)  DE(clash)    DE(int)     intcor
     17.25     -18.97       2.46        0.00      80.18       1.61       0.04       1.68       ----

> <Gold.Chemscore.Fitness>
17.2457

> <Gold.Chemscore.DG>
-18.9699

> <Gold.Chemscore.ZeroCoef>
-5.4800

> <Gold.Chemscore.Hbond>
2.4616

> <Gold.Chemscore.Metal>
0.0000

> <Gold.Chemscore.Lipo>
80.1847

> <Gold.Chemscore.Internal_Hbond>
0.0000

> <Gold.Chemscore.DEClash>
0.0436

> <Gold.Chemscore.DEInternal>
1.6805

> <Gold.Chemscore.Rot>
1.6068

> <Gold.Chemscore.Internal.Correction>
   9.000000E+99

> <Gold.Chemscore.Hbonds>
donor molecule, donor type, donor heavy atom, donor atom, acceptor molecule, acceptor atom, score
      L1  H     5    27       P1  7957  0.74
      P1  H  7989  7998       L1    19  0.41
      P1  H  7997  8008       L1    12  0.89

> <Gold.Chemscore.Hbond.Weighted>
-8.2217

> <Gold.Chemscore.Metal.Weighted>
-0.0000

> <Gold.Chemscore.Lipo.Weighted>
-9.3816

> <Gold.Chemscore.Internal_Hbond.Weighted>
0.0000

> <Gold.Chemscore.DEClash.Weighted>
0.0436

> <Gold.Chemscore.DEInternal.Weighted>
1.6805

> <Gold.Chemscore.Rot.Weighted>
4.1135

> <Gold.Chemscore.Internal.Correction.Weighted>
   9.000000E+99

> <Gold.Protein.RotatedTorsions>
[ 6907 6896 6895 6894 ] final  136.74 input  -60.11 | X-H torsion
[ 7974 7965 7964 7962 ] final   42.31 input  175.53 | X-H torsion
[ 8008 7997 7996 7995 ] final  -67.73 input   59.86 | X-H torsion
[ 10167 10162 10161 10158 ] final  157.17 input  -65.29 | X-H torsion
[ 10718 10713 10712 10709 ] final  148.28 input   66.30 | X-H torsion
[ 10763 10752 10751 10750 ] final   73.31 input  -60.55 | X-H torsion
[ 11005 11000 10999 10996 ] final   93.74 input  -57.11 | X-H torsion

> <Gold.Protein.ActiveResidues>
 VAL166  LYS551  ARG553  GLY616  TRP617  ASP618  TYR619  PRO620  LYS621  CYS622 
 ASP623  PHE694  ASN695  SER759  ASP760  ASP761  ALA762  ILE779  LEU786  VAL792 
 PHE793  MET794  SER795  GLU796  ALA797  LYS798  CYS799  TRP800  GLU811  SER814 

> <Gold.Protein.RotatedAtoms>
  152.2859  133.5515  159.5526 H   0  0  0  0  0  0  0  0  0  0  0  0  # atno 6907 bound_to 6896
  150.7215  134.0497  159.3803 H   0  0  0  0  0  0  0  0  0  0  0  0  # atno 6908 bound_to 6896
  151.8406  135.0592  160.0498 H   0  0  0  0  0  0  0  0  0  0  0  0  # atno 6909 bound_to 6896
  146.0751  139.5315  142.9573 H   0  0  0  0  0  0  0  0  0  0  0  0  # atno 7974 bound_to 7965
  154.4820  140.0887  156.7399 H   0  0  0  0  0  0  0  0  0  0  0  0  # atno 8008 bound_to 7997
  155.4447  140.3455  155.4275 H   0  0  0  0  0  0  0  0  0  0  0  0  # atno 8009 bound_to 7997
  156.1205  140.1473  156.9199 H   0  0  0  0  0  0  0  0  0  0  0  0  # atno 8010 bound_to 7997
  139.4822  144.4942  151.8264 H   0  0  0  0  0  0  0  0  0  0  0  0  # atno 10167 bound_to 10162
  157.3105  131.0887  151.1320 H   0  0  0  0  0  0  0  0  0  0  0  0  # atno 10718 bound_to 10713
  153.0513  135.5068  154.7874 H   0  0  0  0  0  0  0  0  0  0  0  0  # atno 10763 bound_to 10752
  154.6734  135.2956  154.9714 H   0  0  0  0  0  0  0  0  0  0  0  0  # atno 10764 bound_to 10752
  154.0524  135.6702  153.4854 H   0  0  0  0  0  0  0  0  0  0  0  0  # atno 10765 bound_to 10752
  139.8806  134.8806  156.3761 H   0  0  0  0  0  0  0  0  0  0  0  0  # atno 11005 bound_to 11000
  145.6321  141.0302  143.1858 LP  0  0  0  0  0  0  0  0  0  0  0  0  # atno 17320 bound_to 7965
  144.7256  139.7886  143.7366 LP  0  0  0  0  0  0  0  0  0  0  0  0  # atno 17321 bound_to 7965
  140.4429  144.1962  150.5892 LP  0  0  0  0  0  0  0  0  0  0  0  0  # atno 17342 bound_to 10162
  140.4665  143.2429  151.9149 LP  0  0  0  0  0  0  0  0  0  0  0  0  # atno 17343 bound_to 10162
  157.2644  130.6674  149.5989 LP  0  0  0  0  0  0  0  0  0  0  0  0  # atno 17370 bound_to 10713
  155.9677  130.4498  150.5675 LP  0  0  0  0  0  0  0  0  0  0  0  0  # atno 17371 bound_to 10713
  140.9431  133.7501  156.0172 LP  0  0  0  0  0  0  0  0  0  0  0  0  # atno 17394 bound_to 11000
  140.8196  134.3305  157.5386 LP  0  0  0  0  0  0  0  0  0  0  0  0  # atno 17395 bound_to 11000

$$$$
