AV-unprocessed.smi:2886|AV-procd|sdf|11091|dock4
  -GOLD-   2272015563D 1   1.00000     0.00000
 Structure written by MMmdl.
 28 30  0  0  0  0  0  0  0  0  3 V2000
  150.7575  139.0266  155.0935 O   0  0  0  0  0  0  0  0  0  0  0  0
  150.8745  140.0900  155.6991 C   0  0  0  0  0  0  0  0  0  0  0  0
  150.2597  141.2460  155.3079 N   0  5  0  0  0  0  0  0  0  0  0  0
  150.4025  142.3694  155.9752 N   0  3  0  0  0  0  0  0  0  0  0  0
  151.1441  142.4849  157.0723 C   0  0  0  0  0  0  0  0  0  0  0  0
  151.8337  141.3533  157.5906 C   0  0  0  0  0  0  0  0  0  0  0  0
  152.6224  141.4263  158.7320 N   0  0  0  0  0  0  0  0  0  0  0  0
  152.8939  142.5804  159.5781 C   0  0  2  0  0  0  0  0  0  0  0  0
  153.5032  142.1918  160.9276 C   0  0  0  0  0  0  0  0  0  0  0  0
  152.5182  142.8359  161.9116 C   0  0  1  0  0  0  0  0  0  0  0  0
  152.5873  144.3696  161.8858 C   0  0  0  0  0  0  0  0  0  0  0  0
  151.8998  144.6920  160.5591 C   0  0  0  0  0  0  0  0  0  0  0  0
  151.6007  143.2907  160.0102 C   0  0  2  0  0  0  0  0  0  0  0  0
  151.3008  142.6156  161.2215 O   0  0  0  0  0  0  0  0  0  0  0  0
  151.7068  140.1757  156.9134 C   0  0  0  0  0  0  0  0  0  0  0  0
  152.5133  138.7441  157.4634 Cl  0  0  0  0  0  0  0  0  0  0  0  0
  149.9330  143.2318  155.6573 H   0  0  0  0  0  0  0  0  0  0  0  0
  151.1940  143.4640  157.5313 H   0  0  0  0  0  0  0  0  0  0  0  0
  152.9369  140.5462  159.1166 H   0  0  0  0  0  0  0  0  0  0  0  0
  153.5298  143.2884  159.0468 H   0  0  0  0  0  0  0  0  0  0  0  0
  153.5186  141.1092  161.0633 H   0  0  0  0  0  0  0  0  0  0  0  0
  154.5209  142.5629  161.0522 H   0  0  0  0  0  0  0  0  0  0  0  0
  152.5509  142.4070  162.9135 H   0  0  0  0  0  0  0  0  0  0  0  0
  152.0307  144.7998  162.7194 H   0  0  0  0  0  0  0  0  0  0  0  0
  153.6128  144.7377  161.9322 H   0  0  0  0  0  0  0  0  0  0  0  0
  150.9745  145.2423  160.7330 H   0  0  0  0  0  0  0  0  0  0  0  0
  152.5254  145.2806  159.8874 H   0  0  0  0  0  0  0  0  0  0  0  0
  150.8024  143.2725  159.2671 H   0  0  0  0  0  0  0  0  0  0  0  0
  1  2  2  0  0  0  0
  2  3  1  0  0  0  0
  2 15  1  0  0  0  0
  3  4  1  0  0  0  0
  4  5  2  0  0  0  0
  4 17  1  0  0  0  0
  5  6  1  0  0  0  0
  5 18  1  0  0  0  0
  6 15  2  0  0  0  0
  6  7  1  0  0  0  0
  7  8  1  0  0  0  0
  7 19  1  0  0  0  0
  8 13  1  0  0  0  0
  8  9  1  0  0  0  0
  8 20  1  0  0  0  0
  9 10  1  0  0  0  0
  9 21  1  0  0  0  0
  9 22  1  0  0  0  0
 10 14  1  0  0  0  0
 10 11  1  0  0  0  0
 10 23  1  0  0  0  0
 11 12  1  0  0  0  0
 11 24  1  0  0  0  0
 11 25  1  0  0  0  0
 12 13  1  0  0  0  0
 12 26  1  0  0  0  0
 12 27  1  0  0  0  0
 13 14  1  0  0  0  0
 13 28  1  0  0  0  0
 15 16  1  0  0  0  0
M  CHG  1   3  -1
M  CHG  1   4   1
M  END
> <s_m_source_file>
AV-unprocessed.smi

> <i_m_source_file_index>
2886

> <i_lp_mmshare_version>
43012

> <i_f3d_flags>
0

> <s_epik_input>
Tz1jMVtuSF1uW2NIXWMoYzFDbClbTkhdW0NASF0oW0NIMl1bQ0BASF0yMylbQ0BASF0oTzMpW0NIMl1bQ0gyXTI=

> <s_epik_cmdline>
J2VwaWtfcHl0aG9uJywgJy1waCcsICc3LjAnLCAnLXRuJywgJzgnLCAnLW1hJywgJzIwMCcsICctbWV0YWxfYmluZGluZycsICctaW1hZScsICc8aW5maWxlLm1hZT4nLCAnLW9tYWUnLCAnPG91dGZpbGUubWFlPic=

> <r_lp_tautomer_probability>
0.0138196

> <r_epik_Ionization_Penalty>
2.43027

> <r_epik_Ionization_Penalty_Charging>
2.43027

> <r_epik_Ionization_Penalty_Neutral>
1.33267e-06

> <r_epik_State_Penalty>
2.7044

> <r_epik_Charging_Adjusted_Penalty>
5.13467

> <i_epik_Tot_Q>
0

> <i_epik_Tot_abs_Q>
2

> <r_epik_Metal_State_Penalty>
2.98589

> <b_epik_Metal_Only>
0

> <s_lp_Force_Field>
OPLS_2005

> <r_lp_Energy>
57.4961

> <b_lp_Chiralities_Consistent>
1

> <s_lp_Variant>
AV-unprocessed.smi:2886-5

> <Gold.Version>
5.8.1

> <Gold.Id.Protein>
6NUR|6NUR_protein|mol2

> <Gold.PLP.Fitness>
38.9015

> <Gold.PLP.PLP>
-32.1040

> <Gold.PLP.part.hbond>
-2.6735

> <Gold.PLP.part.metal>
0.0000

> <Gold.PLP.part.buried>
-4.5006

> <Gold.PLP.part.nonpolar>
-24.8050

> <Gold.PLP.part.repulsive>
0.5005

> <Gold.PLP.ligand.clash>
0.0000

> <Gold.PLP.ligand.torsion>
0.1309

> <Gold.PLP.Chemscore.Hbond>
2.3469

> <Gold.PLP.Chemscore.CHOScore>
0.0000

> <Gold.PLP.Chemscore.Metal>
0.0000

> <Gold.Chemscore.Hbonds>
donor molecule, donor type, donor heavy atom, donor atom, acceptor molecule, acceptor atom, score
      L1  H     4    17       P1  8028  2.00
      P1  H  6933  6945       L1    14  0.34
      P1  H  7989  7998       L1     3  0.01

> <Gold.PLP.Chemscore.Internal.Correction>
0.0187

> <Gold.Rescore>
     Score         DG    S(hbond)    S(metal)    S(lipo)     H(rot)  DE(clash)    DE(int)     intcor
     18.68     -19.08       1.47        0.00      96.23       1.00       0.32       0.08       ----

> <Gold.Chemscore.Fitness>
18.6790

> <Gold.Chemscore.DG>
-19.0820

> <Gold.Chemscore.ZeroCoef>
-5.4800

> <Gold.Chemscore.Hbond>
1.4679

> <Gold.Chemscore.Metal>
0.0000

> <Gold.Chemscore.Lipo>
96.2321

> <Gold.Chemscore.Internal_Hbond>
0.0000

> <Gold.Chemscore.DEClash>
0.3245

> <Gold.Chemscore.DEInternal>
0.0785

> <Gold.Chemscore.Rot>
1.0000

> <Gold.Chemscore.Internal.Correction>
   9.000000E+99

> <Gold.Chemscore.Hbonds>
donor molecule, donor type, donor heavy atom, donor atom, acceptor molecule, acceptor atom, score
      L1  H     4    17       P1  8028  1.00
      P1  H  6933  6945       L1    14  0.30

> <Gold.Chemscore.Hbond.Weighted>
-4.9029

> <Gold.Chemscore.Metal.Weighted>
-0.0000

> <Gold.Chemscore.Lipo.Weighted>
-11.2592

> <Gold.Chemscore.Internal_Hbond.Weighted>
0.0000

> <Gold.Chemscore.DEClash.Weighted>
0.3245

> <Gold.Chemscore.DEInternal.Weighted>
0.0785

> <Gold.Chemscore.Rot.Weighted>
2.5600

> <Gold.Chemscore.Internal.Correction.Weighted>
   9.000000E+99

> <Gold.Protein.RotatedTorsions>
[ 6907 6896 6895 6894 ] final  100.57 input  -60.11 | X-H torsion
[ 7974 7965 7964 7962 ] final  -49.42 input  175.53 | X-H torsion
[ 8008 7997 7996 7995 ] final   85.93 input   59.86 | X-H torsion
[ 10167 10162 10161 10158 ] final   40.28 input  -65.29 | X-H torsion
[ 10718 10713 10712 10709 ] final  -26.35 input   66.30 | X-H torsion
[ 10763 10752 10751 10750 ] final -163.61 input  -60.55 | X-H torsion
[ 11005 11000 10999 10996 ] final  115.16 input  -57.11 | X-H torsion

> <Gold.Protein.ActiveResidues>
 VAL166  LYS551  ARG553  GLY616  TRP617  ASP618  TYR619  PRO620  LYS621  CYS622 
 ASP623  PHE694  ASN695  SER759  ASP760  ASP761  ALA762  ILE779  LEU786  VAL792 
 PHE793  MET794  SER795  GLU796  ALA797  LYS798  CYS799  TRP800  GLU811  SER814 

> <Gold.Protein.RotatedAtoms>
  152.5369  134.0257  159.8001 H   0  0  0  0  0  0  0  0  0  0  0  0  # atno 6907 bound_to 6896
  151.0436  133.5677  159.2656 H   0  0  0  0  0  0  0  0  0  0  0  0  # atno 6908 bound_to 6896
  151.2638  135.0670  159.9162 H   0  0  0  0  0  0  0  0  0  0  0  0  # atno 6909 bound_to 6896
  145.9407  140.7665  142.9553 H   0  0  0  0  0  0  0  0  0  0  0  0  # atno 7974 bound_to 7965
  155.9563  140.3397  155.6451 H   0  0  0  0  0  0  0  0  0  0  0  0  # atno 8008 bound_to 7997
  155.6855  140.0743  157.2486 H   0  0  0  0  0  0  0  0  0  0  0  0  # atno 8009 bound_to 7997
  154.4133  140.1666  156.2017 H   0  0  0  0  0  0  0  0  0  0  0  0  # atno 8010 bound_to 7997
  140.3757  144.2046  150.6131 H   0  0  0  0  0  0  0  0  0  0  0  0  # atno 10167 bound_to 10162
  156.4524  130.4486  149.6981 H   0  0  0  0  0  0  0  0  0  0  0  0  # atno 10718 bound_to 10713
  154.7106  135.3005  154.9202 H   0  0  0  0  0  0  0  0  0  0  0  0  # atno 10763 bound_to 10752
  154.0105  135.6695  153.4769 H   0  0  0  0  0  0  0  0  0  0  0  0  # atno 10764 bound_to 10752
  153.0752  135.5038  154.8303 H   0  0  0  0  0  0  0  0  0  0  0  0  # atno 10765 bound_to 10752
  139.9002  134.9579  156.7003 H   0  0  0  0  0  0  0  0  0  0  0  0  # atno 11005 bound_to 11000
  144.6779  140.2276  143.7359 LP  0  0  0  0  0  0  0  0  0  0  0  0  # atno 17320 bound_to 7965
  145.8303  139.2083  143.1886 LP  0  0  0  0  0  0  0  0  0  0  0  0  # atno 17321 bound_to 7965
  140.4988  143.2324  151.8709 LP  0  0  0  0  0  0  0  0  0  0  0  0  # atno 17342 bound_to 10162
  139.4799  144.5082  151.8968 LP  0  0  0  0  0  0  0  0  0  0  0  0  # atno 17343 bound_to 10162
  156.3802  130.7575  151.2567 LP  0  0  0  0  0  0  0  0  0  0  0  0  # atno 17370 bound_to 10713
  157.7502  131.0298  150.4107 LP  0  0  0  0  0  0  0  0  0  0  0  0  # atno 17371 bound_to 10713
  140.7156  133.9185  155.8112 LP  0  0  0  0  0  0  0  0  0  0  0  0  # atno 17394 bound_to 11000
  141.0267  134.0813  157.4060 LP  0  0  0  0  0  0  0  0  0  0  0  0  # atno 17395 bound_to 11000

$$$$
