AV-unprocessed.smi:2805|AV-procd|sdf|10814|dock10
  -GOLD-   2272015253D 1   1.00000     0.00000
 Structure written by MMmdl.
 43 44  0  0  0  0  0  0  0  0  1 V2000
  152.1650  145.9024  160.2876 C   0  0  0  0  0  0  0  0  0  0  0  0
  152.1595  144.5278  159.6529 C   0  0  0  0  0  0  0  0  0  0  0  0
  153.0021  143.5083  160.1355 C   0  0  0  0  0  0  0  0  0  0  0  0
  152.9498  142.2492  159.5059 C   0  0  0  0  0  0  0  0  0  0  0  0
  153.8272  141.1069  159.9734 C   0  0  0  0  0  0  0  0  0  0  0  0
  152.1309  141.9784  158.4670 N   0  0  0  0  0  0  0  0  0  0  0  0
  151.3147  142.9526  157.9944 C   0  0  0  0  0  0  0  0  0  0  0  0
  150.4183  142.7716  156.9082 N   0  0  0  0  0  0  0  0  0  0  0  0
  150.3322  141.7267  156.0667 C   0  0  0  0  0  0  0  0  0  0  0  0
  151.0482  140.7253  156.0960 O   0  0  0  0  0  0  0  0  0  0  0  0
  149.3481  141.9068  155.1741 N   0  0  0  0  0  0  0  0  0  0  0  0
  148.9645  140.9591  154.1290 C   0  0  1  0  0  0  0  0  0  0  0  0
  148.8711  139.5201  154.6784 C   0  0  0  0  0  0  0  0  0  0  0  0
  147.6840  139.3412  155.6409 C   0  0  0  0  0  0  0  0  0  0  0  0
  146.3482  139.7521  154.9856 C   0  0  1  0  0  0  0  0  0  0  0  0
  145.1591  139.5971  155.9515 C   0  0  0  0  0  0  0  0  0  0  0  0
  143.9542  139.9969  155.3333 O   0  0  0  0  0  0  0  0  0  0  0  0
  146.4402  141.1974  154.4565 C   0  0  0  0  0  0  0  0  0  0  0  0
  147.6270  141.3832  153.4938 C   0  0  0  0  0  0  0  0  0  0  0  0
  151.3047  144.2433  158.5691 C   0  0  0  0  0  0  0  0  0  0  0  0
  149.7292  140.9872  153.3506 H   0  0  0  0  0  0  0  0  0  0  0  0
  146.1734  139.0989  154.1291 H   0  0  0  0  0  0  0  0  0  0  0  0
  153.0975  146.0829  160.8232 H   0  0  0  0  0  0  0  0  0  0  0  0
  151.3396  145.9931  160.9938 H   0  0  0  0  0  0  0  0  0  0  0  0
  152.0555  146.6770  159.5283 H   0  0  0  0  0  0  0  0  0  0  0  0
  153.6697  143.6865  160.9660 H   0  0  0  0  0  0  0  0  0  0  0  0
  154.5508  141.4428  160.7168 H   0  0  0  0  0  0  0  0  0  0  0  0
  154.3770  140.6802  159.1338 H   0  0  0  0  0  0  0  0  0  0  0  0
  153.2176  140.3213  160.4205 H   0  0  0  0  0  0  0  0  0  0  0  0
  149.7616  143.5230  156.7586 H   0  0  0  0  0  0  0  0  0  0  0  0
  148.8142  142.7620  155.2245 H   0  0  0  0  0  0  0  0  0  0  0  0
  148.7574  138.8274  153.8437 H   0  0  0  0  0  0  0  0  0  0  0  0
  149.8000  139.2383  155.1756 H   0  0  0  0  0  0  0  0  0  0  0  0
  147.6406  138.3003  155.9622 H   0  0  0  0  0  0  0  0  0  0  0  0
  147.8510  139.9316  156.5428 H   0  0  0  0  0  0  0  0  0  0  0  0
  145.0657  138.5652  156.2914 H   0  0  0  0  0  0  0  0  0  0  0  0
  145.3056  140.2154  156.8377 H   0  0  0  0  0  0  0  0  0  0  0  0
  144.0857  140.0097  154.3976 H   0  0  0  0  0  0  0  0  0  0  0  0
  145.5158  141.4637  153.9431 H   0  0  0  0  0  0  0  0  0  0  0  0
  146.5345  141.8909  155.2931 H   0  0  0  0  0  0  0  0  0  0  0  0
  147.6797  142.4206  153.1611 H   0  0  0  0  0  0  0  0  0  0  0  0
  147.4533  140.7872  152.5970 H   0  0  0  0  0  0  0  0  0  0  0  0
  150.6480  145.0102  158.1837 H   0  0  0  0  0  0  0  0  0  0  0  0
  1  2  1  0  0  0  0
  1 23  1  0  0  0  0
  1 24  1  0  0  0  0
  1 25  1  0  0  0  0
  2 20  1  0  0  0  0
  2  3  2  0  0  0  0
  3  4  1  0  0  0  0
  3 26  1  0  0  0  0
  4  5  1  0  0  0  0
  4  6  2  0  0  0  0
  5 27  1  0  0  0  0
  5 28  1  0  0  0  0
  5 29  1  0  0  0  0
  6  7  1  0  0  0  0
  7  8  1  0  0  0  0
  7 20  2  0  0  0  0
  8  9  1  0  0  0  0
  8 30  1  0  0  0  0
  9 10  2  0  0  0  0
  9 11  1  0  0  0  0
 11 12  1  0  0  0  0
 11 31  1  0  0  0  0
 12 21  1  0  0  0  0
 12 19  1  0  0  0  0
 12 13  1  0  0  0  0
 13 14  1  0  0  0  0
 13 32  1  0  0  0  0
 13 33  1  0  0  0  0
 14 15  1  0  0  0  0
 14 34  1  0  0  0  0
 14 35  1  0  0  0  0
 15 22  1  0  0  0  0
 15 16  1  0  0  0  0
 15 18  1  0  0  0  0
 16 17  1  0  0  0  0
 16 36  1  0  0  0  0
 16 37  1  0  0  0  0
 17 38  1  0  0  0  0
 18 19  1  0  0  0  0
 18 39  1  0  0  0  0
 18 40  1  0  0  0  0
 19 41  1  0  0  0  0
 19 42  1  0  0  0  0
 20 43  1  0  0  0  0
M  END
> <s_m_source_file>
AV-unprocessed.smi

> <i_m_source_file_index>
2805

> <i_lp_mmshare_version>
43012

> <i_f3d_flags>
0

> <s_epik_input>
W0NIM11jMVtjSF1jKFtDSDNdKW5jKFtjSF0xKVtOSF1DKD1PKVtOSF1bQ0BIXTJbQ0gyXVtDSDJdW0NASF0oW0NIMl1bT0hdKVtDSDJdW0NIMl0y

> <s_epik_cmdline>
J2VwaWtfcHl0aG9uJywgJy1waCcsICc3LjAnLCAnLXRuJywgJzgnLCAnLW1hJywgJzIwMCcsICctbWV0YWxfYmluZGluZycsICctaW1hZScsICc8aW5maWxlLm1hZT4nLCAnLW9tYWUnLCAnPG91dGZpbGUubWFlPic=

> <r_lp_tautomer_probability>
1

> <r_epik_Ionization_Penalty>
0.000279533

> <r_epik_Ionization_Penalty_Charging>
0

> <r_epik_Ionization_Penalty_Neutral>
0.000279533

> <r_epik_State_Penalty>
-0

> <r_epik_Charging_Adjusted_Penalty>
0

> <i_epik_Tot_Q>
0

> <i_epik_Tot_abs_Q>
0

> <r_epik_Metal_State_Penalty>
-0

> <b_epik_Metal_Only>
0

> <s_lp_Force_Field>
OPLS_2005

> <r_lp_Energy>
9.89075

> <b_lp_Chiralities_Consistent>
1

> <s_lp_Variant>
AV-unprocessed.smi:2805-2

> <Gold.Version>
5.8.1

> <Gold.Id.Protein>
6NUR|6NUR_protein|mol2

> <Gold.PLP.Fitness>
48.5083

> <Gold.PLP.PLP>
-40.1101

> <Gold.PLP.part.hbond>
-3.0000

> <Gold.PLP.part.metal>
0.0000

> <Gold.PLP.part.buried>
-5.8170

> <Gold.PLP.part.nonpolar>
-31.7458

> <Gold.PLP.part.repulsive>
0.2478

> <Gold.PLP.ligand.clash>
0.0000

> <Gold.PLP.ligand.torsion>
0.1733

> <Gold.PLP.Chemscore.Hbond>
2.9120

> <Gold.PLP.Chemscore.CHOScore>
0.0000

> <Gold.PLP.Chemscore.Metal>
0.0000

> <Gold.Chemscore.Hbonds>
donor molecule, donor type, donor heavy atom, donor atom, acceptor molecule, acceptor atom, score
      L1  H     8    30       P1  8028  1.00
      L1  H    11    31       P1  8028  0.91
      L1  H    17    38       P1 10175  1.00

> <Gold.PLP.Chemscore.Internal.Correction>
0.0088

> <Gold.Rescore>
     Score         DG    S(hbond)    S(metal)    S(lipo)     H(rot)  DE(clash)    DE(int)     intcor
     18.34     -22.40       2.81        0.00     102.94       1.75       1.30       2.77       ----

> <Gold.Chemscore.Fitness>
18.3375

> <Gold.Chemscore.DG>
-22.4036

> <Gold.Chemscore.ZeroCoef>
-5.4800

> <Gold.Chemscore.Hbond>
2.8061

> <Gold.Chemscore.Metal>
0.0000

> <Gold.Chemscore.Lipo>
102.9379

> <Gold.Chemscore.Internal_Hbond>
0.0000

> <Gold.Chemscore.DEClash>
1.2988

> <Gold.Chemscore.DEInternal>
2.7672

> <Gold.Chemscore.Rot>
1.7548

> <Gold.Chemscore.Internal.Correction>
   9.000000E+99

> <Gold.Chemscore.Hbonds>
donor molecule, donor type, donor heavy atom, donor atom, acceptor molecule, acceptor atom, score
      L1  H     8    30       P1  8028  0.96
      L1  H    11    31       P1  8028  0.87
      L1  H    17    38       P1 10175  0.94

> <Gold.Chemscore.Hbond.Weighted>
-9.3722

> <Gold.Chemscore.Metal.Weighted>
-0.0000

> <Gold.Chemscore.Lipo.Weighted>
-12.0437

> <Gold.Chemscore.Internal_Hbond.Weighted>
0.0000

> <Gold.Chemscore.DEClash.Weighted>
1.2988

> <Gold.Chemscore.DEInternal.Weighted>
2.7672

> <Gold.Chemscore.Rot.Weighted>
4.4924

> <Gold.Chemscore.Internal.Correction.Weighted>
   9.000000E+99

> <Gold.Protein.RotatedTorsions>
[ 6907 6896 6895 6894 ] final  -54.77 input  -60.11 | X-H torsion
[ 7974 7965 7964 7962 ] final  148.40 input  175.53 | X-H torsion
[ 8008 7997 7996 7995 ] final   32.91 input   59.86 | X-H torsion
[ 10167 10162 10161 10158 ] final  148.45 input  -65.29 | X-H torsion
[ 10718 10713 10712 10709 ] final   42.74 input   66.30 | X-H torsion
[ 10763 10752 10751 10750 ] final  110.50 input  -60.55 | X-H torsion
[ 11005 11000 10999 10996 ] final  117.15 input  -57.11 | X-H torsion

> <Gold.Protein.ActiveResidues>
 VAL166  LYS551  ARG553  GLY616  TRP617  ASP618  TYR619  PRO620  LYS621  CYS622 
 ASP623  PHE694  ASN695  SER759  ASP760  ASP761  ALA762  ILE779  LEU786  VAL792 
 PHE793  MET794  SER795  GLU796  ALA797  LYS798  CYS799  TRP800  GLU811  SER814 

> <Gold.Protein.RotatedAtoms>
  150.8309  134.7562  159.6852 H   0  0  0  0  0  0  0  0  0  0  0  0  # atno 6907 bound_to 6896
  152.4413  134.5581  159.9896 H   0  0  0  0  0  0  0  0  0  0  0  0  # atno 6908 bound_to 6896
  151.5742  133.3348  159.3031 H   0  0  0  0  0  0  0  0  0  0  0  0  # atno 6909 bound_to 6896
  144.8516  139.6149  143.5971 H   0  0  0  0  0  0  0  0  0  0  0  0  # atno 7974 bound_to 7965
  155.1300  140.3256  155.4476 H   0  0  0  0  0  0  0  0  0  0  0  0  # atno 8008 bound_to 7997
  156.2637  140.2012  156.6369 H   0  0  0  0  0  0  0  0  0  0  0  0  # atno 8009 bound_to 7997
  154.6619  140.0546  157.0058 H   0  0  0  0  0  0  0  0  0  0  0  0  # atno 8010 bound_to 7997
  139.4875  144.5678  151.7112 H   0  0  0  0  0  0  0  0  0  0  0  0  # atno 10167 bound_to 10162
  157.4082  130.7899  149.7407 H   0  0  0  0  0  0  0  0  0  0  0  0  # atno 10718 bound_to 10713
  153.4498  135.3746  155.2277 H   0  0  0  0  0  0  0  0  0  0  0  0  # atno 10763 bound_to 10752
  154.8756  135.3883  154.4052 H   0  0  0  0  0  0  0  0  0  0  0  0  # atno 10764 bound_to 10752
  153.4610  135.7086  153.6114 H   0  0  0  0  0  0  0  0  0  0  0  0  # atno 10765 bound_to 10752
  139.9065  134.9607  156.7307 H   0  0  0  0  0  0  0  0  0  0  0  0  # atno 11005 bound_to 11000
  146.2790  139.6827  142.9243 LP  0  0  0  0  0  0  0  0  0  0  0  0  # atno 17320 bound_to 7965
  145.4488  141.0427  143.2816 LP  0  0  0  0  0  0  0  0  0  0  0  0  # atno 17321 bound_to 7965
  140.5259  144.0806  150.6037 LP  0  0  0  0  0  0  0  0  0  0  0  0  # atno 17342 bound_to 10162
  140.3779  143.2818  152.0203 LP  0  0  0  0  0  0  0  0  0  0  0  0  # atno 17343 bound_to 10162
  155.9843  130.3993  150.3320 LP  0  0  0  0  0  0  0  0  0  0  0  0  # atno 17370 bound_to 10713
  157.1455  131.0307  151.2908 LP  0  0  0  0  0  0  0  0  0  0  0  0  # atno 17371 bound_to 10713
  140.6927  133.9376  155.7976 LP  0  0  0  0  0  0  0  0  0  0  0  0  # atno 17394 bound_to 11000
  141.0430  134.0595  157.3879 LP  0  0  0  0  0  0  0  0  0  0  0  0  # atno 17395 bound_to 11000

$$$$
