AV-unprocessed.smi:1181|AV-procd|sdf|4966|dock7
  -GOLD-   22720 3563D 1   1.00000     0.00000
 Structure written by MMmdl.
 44 45  0  0  0  0  0  0  0  0  1 V2000
  154.2560  137.2409  164.5452 C   0  0  0  0  0  0  0  0  0  0  0  0
  153.2405  136.4641  163.9350 O   0  0  0  0  0  0  0  0  0  0  0  0
  153.6674  135.1431  163.6460 C   0  0  0  0  0  0  0  0  0  0  0  0
  154.6600  135.1784  162.4801 C   0  0  0  0  0  0  0  0  0  0  0  0
  153.9310  135.2622  161.2593 O   0  0  0  0  0  0  0  0  0  0  0  0
  153.5782  136.5092  160.7864 C   0  0  0  0  0  0  0  0  0  0  0  0
  154.2641  137.6353  161.2827 C   0  0  0  0  0  0  0  0  0  0  0  0
  153.9078  138.9106  160.8059 C   0  0  0  0  0  0  0  0  0  0  0  0
  152.8863  139.0232  159.8418 C   0  0  0  0  0  0  0  0  0  0  0  0
  152.5312  140.3238  159.3950 N   0  0  0  0  0  0  0  0  0  0  0  0
  152.8794  141.5179  159.9137 C   0  0  0  0  0  0  0  0  0  0  0  0
  153.5692  141.6373  160.9268 O   0  0  0  0  0  0  0  0  0  0  0  0
  152.3771  142.5851  159.2400 N   0  0  0  0  0  0  0  0  0  0  0  0
  151.3095  142.5580  158.2246 C   0  0  0  0  0  0  0  0  0  0  0  0
  150.0353  143.1705  158.8325 C   0  0  0  0  0  0  0  0  0  0  0  0
  150.2953  144.6063  159.3375 C   0  0  0  0  0  0  0  0  0  0  0  0
  149.0623  145.1929  160.0380 C   0  0  0  0  0  0  0  0  0  0  0  0
  151.5452  144.6559  160.2432 C   0  0  0  0  0  0  0  0  0  0  0  0
  152.7490  143.9662  159.5748 C   0  0  0  0  0  0  0  0  0  0  0  0
  152.2479  137.8337  159.4145 C   0  0  0  0  0  0  0  0  0  0  0  0
  152.5836  136.6078  159.8698 N   0  0  0  0  0  0  0  0  0  0  0  0
  153.8792  138.2437  164.7457 H   0  0  0  0  0  0  0  0  0  0  0  0
  155.1272  137.3322  163.8954 H   0  0  0  0  0  0  0  0  0  0  0  0
  154.5705  136.8038  165.4938 H   0  0  0  0  0  0  0  0  0  0  0  0
  154.1567  134.7246  164.5269 H   0  0  0  0  0  0  0  0  0  0  0  0
  152.8192  134.5004  163.4052 H   0  0  0  0  0  0  0  0  0  0  0  0
  155.3455  136.0202  162.5929 H   0  0  0  0  0  0  0  0  0  0  0  0
  155.2503  134.2605  162.4872 H   0  0  0  0  0  0  0  0  0  0  0  0
  155.0479  137.5226  162.0171 H   0  0  0  0  0  0  0  0  0  0  0  0
  154.4173  139.7891  161.1746 H   0  0  0  0  0  0  0  0  0  0  0  0
  151.8828  140.3545  158.6217 H   0  0  0  0  0  0  0  0  0  0  0  0
  151.6249  143.1427  157.3592 H   0  0  0  0  0  0  0  0  0  0  0  0
  151.0931  141.5648  157.8314 H   0  0  0  0  0  0  0  0  0  0  0  0
  149.2358  143.1746  158.0910 H   0  0  0  0  0  0  0  0  0  0  0  0
  149.6906  142.5438  159.6565 H   0  0  0  0  0  0  0  0  0  0  0  0
  150.5013  145.2267  158.4640 H   0  0  0  0  0  0  0  0  0  0  0  0
  148.7964  144.6141  160.9230 H   0  0  0  0  0  0  0  0  0  0  0  0
  148.1988  145.1993  159.3722 H   0  0  0  0  0  0  0  0  0  0  0  0
  149.2427  146.2208  160.3538 H   0  0  0  0  0  0  0  0  0  0  0  0
  151.7955  145.6909  160.4782 H   0  0  0  0  0  0  0  0  0  0  0  0
  151.3324  144.1663  161.1947 H   0  0  0  0  0  0  0  0  0  0  0  0
  153.6191  144.0255  160.2299 H   0  0  0  0  0  0  0  0  0  0  0  0
  153.0299  144.4981  158.6647 H   0  0  0  0  0  0  0  0  0  0  0  0
  151.4307  137.8458  158.7101 H   0  0  0  0  0  0  0  0  0  0  0  0
  1  2  1  0  0  0  0
  1 22  1  0  0  0  0
  1 23  1  0  0  0  0
  1 24  1  0  0  0  0
  2  3  1  0  0  0  0
  3  4  1  0  0  0  0
  3 25  1  0  0  0  0
  3 26  1  0  0  0  0
  4  5  1  0  0  0  0
  4 27  1  0  0  0  0
  4 28  1  0  0  0  0
  5  6  1  0  0  0  0
  6 21  1  0  0  0  0
  6  7  2  0  0  0  0
  7  8  1  0  0  0  0
  7 29  1  0  0  0  0
  8  9  2  0  0  0  0
  8 30  1  0  0  0  0
  9 10  1  0  0  0  0
  9 20  1  0  0  0  0
 10 11  1  0  0  0  0
 10 31  1  0  0  0  0
 11 12  2  0  0  0  0
 11 13  1  0  0  0  0
 13 19  1  0  0  0  0
 13 14  1  0  0  0  0
 14 15  1  0  0  0  0
 14 32  1  0  0  0  0
 14 33  1  0  0  0  0
 15 16  1  0  0  0  0
 15 34  1  0  0  0  0
 15 35  1  0  0  0  0
 16 17  1  0  0  0  0
 16 18  1  0  0  0  0
 16 36  1  0  0  0  0
 17 37  1  0  0  0  0
 17 38  1  0  0  0  0
 17 39  1  0  0  0  0
 18 19  1  0  0  0  0
 18 40  1  0  0  0  0
 18 41  1  0  0  0  0
 19 42  1  0  0  0  0
 19 43  1  0  0  0  0
 20 21  2  0  0  0  0
 20 44  1  0  0  0  0
M  END
> <s_m_source_file>
AV-unprocessed.smi

> <i_m_source_file_index>
1181

> <i_lp_mmshare_version>
43012

> <i_f3d_flags>
0

> <s_epik_input>
W0NIM11PW0NIMl1bQ0gyXU9jMVtjSF1bY0hdYyhbY0hdbjEpW05IXUMoPU8pTjJbQ0gyXVtDSDJdW0NIXShbQ0gzXSlbQ0gyXVtDSDJdMg==

> <s_epik_cmdline>
J2VwaWtfcHl0aG9uJywgJy1waCcsICc3LjAnLCAnLXRuJywgJzgnLCAnLW1hJywgJzIwMCcsICctbWV0YWxfYmluZGluZycsICctaW1hZScsICc8aW5maWxlLm1hZT4nLCAnLW9tYWUnLCAnPG91dGZpbGUubWFlPic=

> <r_lp_tautomer_probability>
1

> <r_epik_Ionization_Penalty>
8.49399e-05

> <r_epik_Ionization_Penalty_Charging>
0

> <r_epik_Ionization_Penalty_Neutral>
8.49399e-05

> <r_epik_State_Penalty>
-0

> <r_epik_Charging_Adjusted_Penalty>
0

> <i_epik_Tot_Q>
0

> <i_epik_Tot_abs_Q>
0

> <r_epik_Metal_State_Penalty>
-0

> <b_epik_Metal_Only>
0

> <s_lp_Force_Field>
OPLS_2005

> <r_lp_Energy>
36.0421

> <b_lp_Chiralities_Consistent>
1

> <s_lp_Variant>
AV-unprocessed.smi:1181-1

> <Gold.Version>
5.8.1

> <Gold.Id.Protein>
6NUR|6NUR_protein|mol2

> <Gold.PLP.Fitness>
41.2478

> <Gold.PLP.PLP>
-39.5066

> <Gold.PLP.part.hbond>
-1.0000

> <Gold.PLP.part.metal>
0.0000

> <Gold.PLP.part.buried>
-7.1101

> <Gold.PLP.part.nonpolar>
-31.5855

> <Gold.PLP.part.repulsive>
0.1797

> <Gold.PLP.ligand.clash>
0.0000

> <Gold.PLP.ligand.torsion>
0.6509

> <Gold.PLP.Chemscore.Hbond>
1.0000

> <Gold.PLP.Chemscore.CHOScore>
0.0000

> <Gold.PLP.Chemscore.Metal>
0.0000

> <Gold.Chemscore.Hbonds>
donor molecule, donor type, donor heavy atom, donor atom, acceptor molecule, acceptor atom, score
      P1  H  6896  6907       L1    21  1.00

> <Gold.PLP.Chemscore.Internal.Correction>
0.0431

> <Gold.Rescore>
     Score         DG    S(hbond)    S(metal)    S(lipo)     H(rot)  DE(clash)    DE(int)     intcor
     14.79     -16.92       0.95        0.00     104.63       1.55       0.03       2.10       ----

> <Gold.Chemscore.Fitness>
14.7890

> <Gold.Chemscore.DG>
-16.9216

> <Gold.Chemscore.ZeroCoef>
-5.4800

> <Gold.Chemscore.Hbond>
0.9497

> <Gold.Chemscore.Metal>
0.0000

> <Gold.Chemscore.Lipo>
104.6301

> <Gold.Chemscore.Internal_Hbond>
0.0000

> <Gold.Chemscore.DEClash>
0.0298

> <Gold.Chemscore.DEInternal>
2.1029

> <Gold.Chemscore.Rot>
1.5517

> <Gold.Chemscore.Internal.Correction>
   9.000000E+99

> <Gold.Chemscore.Hbonds>
donor molecule, donor type, donor heavy atom, donor atom, acceptor molecule, acceptor atom, score
      P1  H  6896  6907       L1    21  0.44

> <Gold.Chemscore.Hbond.Weighted>
-3.1721

> <Gold.Chemscore.Metal.Weighted>
-0.0000

> <Gold.Chemscore.Lipo.Weighted>
-12.2417

> <Gold.Chemscore.Internal_Hbond.Weighted>
0.0000

> <Gold.Chemscore.DEClash.Weighted>
0.0298

> <Gold.Chemscore.DEInternal.Weighted>
2.1029

> <Gold.Chemscore.Rot.Weighted>
3.9723

> <Gold.Chemscore.Internal.Correction.Weighted>
   9.000000E+99

> <Gold.Protein.RotatedTorsions>
[ 6907 6896 6895 6894 ] final    9.00 input  -60.11 | X-H torsion
[ 7974 7965 7964 7962 ] final   60.44 input  175.53 | X-H torsion
[ 8008 7997 7996 7995 ] final  161.67 input   59.86 | X-H torsion
[ 10167 10162 10161 10158 ] final -169.40 input  -65.29 | X-H torsion
[ 10718 10713 10712 10709 ] final  -93.84 input   66.30 | X-H torsion
[ 10763 10752 10751 10750 ] final -111.23 input  -60.55 | X-H torsion
[ 11005 11000 10999 10996 ] final  -15.28 input  -57.11 | X-H torsion

> <Gold.Protein.ActiveResidues>
 VAL166  LYS551  ARG553  GLY616  TRP617  ASP618  TYR619  PRO620  LYS621  CYS622 
 ASP623  PHE694  ASN695  SER759  ASP760  ASP761  ALA762  ILE779  LEU786  VAL792 
 PHE793  MET794  SER795  GLU796  ALA797  LYS798  CYS799  TRP800  GLU811  SER814 

> <Gold.Protein.RotatedAtoms>
  151.7150  135.0905  160.0274 H   0  0  0  0  0  0  0  0  0  0  0  0  # atno 6907 bound_to 6896
  152.3637  133.6326  159.6043 H   0  0  0  0  0  0  0  0  0  0  0  0  # atno 6908 bound_to 6896
  150.7623  133.9298  159.3465 H   0  0  0  0  0  0  0  0  0  0  0  0  # atno 6909 bound_to 6896
  145.8959  139.3545  143.0621 H   0  0  0  0  0  0  0  0  0  0  0  0  # atno 7974 bound_to 7965
  156.2086  140.1771  156.7744 H   0  0  0  0  0  0  0  0  0  0  0  0  # atno 8008 bound_to 7997
  154.5691  140.0686  156.8966 H   0  0  0  0  0  0  0  0  0  0  0  0  # atno 8009 bound_to 7997
  155.2706  140.3342  155.4268 H   0  0  0  0  0  0  0  0  0  0  0  0  # atno 8010 bound_to 7997
  139.5925  144.1183  152.1651 H   0  0  0  0  0  0  0  0  0  0  0  0  # atno 10167 bound_to 10162
  156.0019  130.5043  150.5837 H   0  0  0  0  0  0  0  0  0  0  0  0  # atno 10718 bound_to 10713
  154.8289  135.4535  154.1007 H   0  0  0  0  0  0  0  0  0  0  0  0  # atno 10763 bound_to 10752
  153.2297  135.6904  153.7910 H   0  0  0  0  0  0  0  0  0  0  0  0  # atno 10764 bound_to 10752
  153.7297  135.3329  155.3260 H   0  0  0  0  0  0  0  0  0  0  0  0  # atno 10765 bound_to 10752
  140.7950  133.8258  155.9416 H   0  0  0  0  0  0  0  0  0  0  0  0  # atno 11005 bound_to 11000
  145.8851  140.9339  143.0581 LP  0  0  0  0  0  0  0  0  0  0  0  0  # atno 17320 bound_to 7965
  144.6733  140.0831  143.7468 LP  0  0  0  0  0  0  0  0  0  0  0  0  # atno 17321 bound_to 7965
  140.0760  144.5740  150.7156 LP  0  0  0  0  0  0  0  0  0  0  0  0  # atno 17342 bound_to 10162
  140.7185  143.2566  151.4357 LP  0  0  0  0  0  0  0  0  0  0  0  0  # atno 17343 bound_to 10162
  157.3713  131.0766  151.1555 LP  0  0  0  0  0  0  0  0  0  0  0  0  # atno 17370 bound_to 10713
  157.2307  130.6524  149.5848 LP  0  0  0  0  0  0  0  0  0  0  0  0  # atno 17371 bound_to 10713
  140.9351  134.1972  157.4837 LP  0  0  0  0  0  0  0  0  0  0  0  0  # atno 17394 bound_to 11000
  139.8727  134.9849  156.5259 LP  0  0  0  0  0  0  0  0  0  0  0  0  # atno 17395 bound_to 11000

$$$$
