AV-unprocessed.smi:160|AV-procd|sdf|1364|dock9
  -GOLD-   2262019 73D 1   1.00000     0.00000
 Structure written by MMmdl.
 28 29  0  0  0  0  0  0  0  0  2 V2000
  154.4704  136.1739  157.1637 N   0  5  0  0  0  0  0  0  0  0  0  0
  154.1696  137.4841  157.2962 C   0  0  0  0  0  0  0  0  0  0  0  0
  154.7341  138.2867  158.0391 O   0  0  0  0  0  0  0  0  0  0  0  0
  153.0244  137.9586  156.4330 C   0  0  0  0  0  0  0  0  0  0  0  0
  152.3128  137.0718  155.6725 N   0  0  0  0  0  0  0  0  0  0  0  0
  151.4555  137.9136  155.1111 C   0  0  0  0  0  0  0  0  0  0  0  0
  151.6184  139.1882  155.4761 N   0  0  0  0  0  0  0  0  0  0  0  0
  150.8525  140.4085  155.0561 C   0  0  1  0  0  0  0  0  0  0  0  0
  149.9552  140.0452  154.0500 O   0  0  0  0  0  0  0  0  0  0  0  0
  148.6440  139.9335  154.5926 C   0  0  2  0  0  0  0  0  0  0  0  0
  147.5743  140.0221  153.4897 C   0  0  0  0  0  0  0  0  0  0  0  0
  147.7227  138.9540  152.5789 O   0  0  0  0  0  0  0  0  0  0  0  0
  148.6168  141.0625  155.6336 C   0  0  2  0  0  0  0  0  0  0  0  0
  148.3410  142.3116  155.0246 O   0  0  0  0  0  0  0  0  0  0  0  0
  150.0326  141.0529  156.2016 C   0  0  1  0  0  0  0  0  0  0  0  0
  150.0629  140.3380  157.4248 O   0  0  0  0  0  0  0  0  0  0  0  0
  152.6484  139.2390  156.3577 N   0  0  0  0  0  0  0  0  0  0  0  0
  151.6125  141.0747  154.6464 H   0  0  0  0  0  0  0  0  0  0  0  0
  148.5531  138.9824  155.1204 H   0  0  0  0  0  0  0  0  0  0  0  0
  147.8569  140.8885  156.3970 H   0  0  0  0  0  0  0  0  0  0  0  0
  150.4051  142.0610  156.3889 H   0  0  0  0  0  0  0  0  0  0  0  0
  154.2172  135.5325  157.9244 H   0  0  0  0  0  0  0  0  0  0  0  0
  150.6944  137.5938  154.4147 H   0  0  0  0  0  0  0  0  0  0  0  0
  146.5789  139.9391  153.9265 H   0  0  0  0  0  0  0  0  0  0  0  0
  147.6222  140.9756  152.9628 H   0  0  0  0  0  0  0  0  0  0  0  0
  148.4339  139.1553  151.9907 H   0  0  0  0  0  0  0  0  0  0  0  0
  148.7200  142.9941  155.5566 H   0  0  0  0  0  0  0  0  0  0  0  0
  149.3212  139.7533  157.4517 H   0  0  0  0  0  0  0  0  0  0  0  0
  1  2  1  0  0  0  0
  1 22  1  0  0  0  0
  2  3  2  0  0  0  0
  2  4  1  0  0  0  0
  4 17  2  0  0  0  0
  4  5  1  0  0  0  0
  5  6  2  0  0  0  0
  6  7  1  0  0  0  0
  6 23  1  0  0  0  0
  7  8  1  0  0  0  0
  7 17  1  0  0  0  0
  8 18  1  0  0  0  0
  8 15  1  0  0  0  0
  8  9  1  0  0  0  0
  9 10  1  0  0  0  0
 10 19  1  0  0  0  0
 10 11  1  0  0  0  0
 10 13  1  0  0  0  0
 11 12  1  0  0  0  0
 11 24  1  0  0  0  0
 11 25  1  0  0  0  0
 12 26  1  0  0  0  0
 13 20  1  0  0  0  0
 13 14  1  0  0  0  0
 13 15  1  0  0  0  0
 14 27  1  0  0  0  0
 15 21  1  0  0  0  0
 15 16  1  0  0  0  0
 16 28  1  0  0  0  0
M  CHG  1   1  -1
M  END
> <s_m_source_file>
AV-unprocessed.smi

> <i_m_source_file_index>
160

> <i_lp_mmshare_version>
43012

> <i_f3d_flags>
0

> <s_epik_input>
W05IMl1DKD1PKWMxbltjSF1uKG4xKVtDQEBIXTJPW0NASF0oW0NIMl1bT0hdKVtDQEBIXShbT0hdKVtDQEhdMltPSF0=

> <s_epik_cmdline>
J2VwaWtfcHl0aG9uJywgJy1waCcsICc3LjAnLCAnLXRuJywgJzgnLCAnLW1hJywgJzIwMCcsICctbWV0YWxfYmluZGluZycsICctaW1hZScsICc8aW5maWxlLm1hZT4nLCAnLW9tYWUnLCAnPG91dGZpbGUubWFlPic=

> <r_lp_tautomer_probability>
1

> <r_epik_Ionization_Penalty>
6.6993

> <r_epik_Ionization_Penalty_Charging>
6.6993

> <r_epik_Ionization_Penalty_Neutral>
6.01698e-06

> <r_epik_State_Penalty>
6.69929

> <r_epik_Charging_Adjusted_Penalty>
13.3986

> <i_epik_Tot_Q>
-1

> <i_epik_Tot_abs_Q>
1

> <r_epik_Metal_State_Penalty>
2.62798

> <b_epik_Metal_Only>
1

> <s_epik_Chemistry_Notes>
This compound contains an acetal/aminal-like group ( X-CH(R)-Y where X, Y are N, S, or O) that may be acid/base labile, releasing an aldehyde.

> <s_lp_Force_Field>
OPLS_2005

> <r_lp_Energy>
46.6633

> <b_lp_Chiralities_Consistent>
1

> <s_lp_Variant>
AV-unprocessed.smi:160-22

> <Gold.Version>
5.8.1

> <Gold.Id.Protein>
6NUR|6NUR_protein|mol2

> <Gold.PLP.Fitness>
41.4995

> <Gold.PLP.PLP>
-23.7968

> <Gold.PLP.part.hbond>
-7.9284

> <Gold.PLP.part.metal>
0.0000

> <Gold.PLP.part.buried>
-1.4323

> <Gold.PLP.part.nonpolar>
-15.9992

> <Gold.PLP.part.repulsive>
1.6732

> <Gold.PLP.ligand.clash>
0.0000

> <Gold.PLP.ligand.torsion>
0.0909

> <Gold.PLP.Chemscore.Hbond>
5.9600

> <Gold.PLP.Chemscore.CHOScore>
0.0000

> <Gold.PLP.Chemscore.Metal>
0.0000

> <Gold.Chemscore.Hbonds>
donor molecule, donor type, donor heavy atom, donor atom, acceptor molecule, acceptor atom, score
      L1  H    12    26       P1  7957  1.00
      L1  H    14    27       P1  8028  0.82
      P1  H  7997  8008       L1     3  0.59
      P1  H  7997  8009       L1    17  0.98
      P1  H 10752 10763       L1     1  1.85
      P1  H 10752 10765       L1     5  0.58

> <Gold.PLP.Chemscore.Internal.Correction>
0.0044

> <Gold.Rescore>
     Score         DG    S(hbond)    S(metal)    S(lipo)     H(rot)  DE(clash)    DE(int)     intcor
     10.18     -11.98       4.25        0.00      22.76       4.04       1.50       0.31       ----

> <Gold.Chemscore.Fitness>
10.1759

> <Gold.Chemscore.DG>
-11.9824

> <Gold.Chemscore.ZeroCoef>
-5.4800

> <Gold.Chemscore.Hbond>
4.2462

> <Gold.Chemscore.Metal>
0.0000

> <Gold.Chemscore.Lipo>
22.7620

> <Gold.Chemscore.Internal_Hbond>
0.0000

> <Gold.Chemscore.DEClash>
1.4987

> <Gold.Chemscore.DEInternal>
0.3078

> <Gold.Chemscore.Rot>
4.0403

> <Gold.Chemscore.Internal.Correction>
   9.000000E+99

> <Gold.Chemscore.Hbonds>
donor molecule, donor type, donor heavy atom, donor atom, acceptor molecule, acceptor atom, score
      L1  H    12    26       P1  7957  0.99
      L1  H    14    27       P1  8028  0.81
      P1  H  7997  8008       L1     3  0.56
      P1  H  7997  8009       L1    17  0.31
      P1  H 10752 10763       L1     1  0.69
      P1  H 10752 10765       L1     5  0.48

> <Gold.Chemscore.Hbond.Weighted>
-14.1823

> <Gold.Chemscore.Metal.Weighted>
-0.0000

> <Gold.Chemscore.Lipo.Weighted>
-2.6632

> <Gold.Chemscore.Internal_Hbond.Weighted>
0.0000

> <Gold.Chemscore.DEClash.Weighted>
1.4987

> <Gold.Chemscore.DEInternal.Weighted>
0.3078

> <Gold.Chemscore.Rot.Weighted>
10.3431

> <Gold.Chemscore.Internal.Correction.Weighted>
   9.000000E+99

> <Gold.Protein.RotatedTorsions>
[ 6907 6896 6895 6894 ] final  -96.30 input  -60.11 | X-H torsion
[ 7974 7965 7964 7962 ] final -119.86 input  175.53 | X-H torsion
[ 8008 7997 7996 7995 ] final -143.72 input   59.86 | X-H torsion
[ 10167 10162 10161 10158 ] final  -73.09 input  -65.29 | X-H torsion
[ 10718 10713 10712 10709 ] final -150.11 input   66.30 | X-H torsion
[ 10763 10752 10751 10750 ] final  167.81 input  -60.55 | X-H torsion
[ 11005 11000 10999 10996 ] final   39.16 input  -57.11 | X-H torsion

> <Gold.Protein.ActiveResidues>
 VAL166  LYS551  ARG553  GLY616  TRP617  ASP618  TYR619  PRO620  LYS621  CYS622 
 ASP623  PHE694  ASN695  SER759  ASP760  ASP761  ALA762  ILE779  LEU786  VAL792 
 PHE793  MET794  SER795  GLU796  ALA797  LYS798  CYS799  TRP800  GLU811  SER814 

> <Gold.Protein.RotatedAtoms>
  150.6985  134.1524  159.4145 H   0  0  0  0  0  0  0  0  0  0  0  0  # atno 6907 bound_to 6896
  151.9507  135.0168  160.0551 H   0  0  0  0  0  0  0  0  0  0  0  0  # atno 6908 bound_to 6896
  152.2013  133.4808  159.5097 H   0  0  0  0  0  0  0  0  0  0  0  0  # atno 6909 bound_to 6896
  145.0579  140.8268  143.4170 H   0  0  0  0  0  0  0  0  0  0  0  0  # atno 7974 bound_to 7965
  155.5153  140.0587  157.2916 H   0  0  0  0  0  0  0  0  0  0  0  0  # atno 8008 bound_to 7997
  154.4537  140.1962  156.0390 H   0  0  0  0  0  0  0  0  0  0  0  0  # atno 8009 bound_to 7997
  156.0756  140.3254  155.7634 H   0  0  0  0  0  0  0  0  0  0  0  0  # atno 8010 bound_to 7997
  140.5139  143.2341  151.7546 H   0  0  0  0  0  0  0  0  0  0  0  0  # atno 10167 bound_to 10162
  156.4419  130.8126  151.2356 H   0  0  0  0  0  0  0  0  0  0  0  0  # atno 10718 bound_to 10713
  154.3593  135.2753  155.2329 H   0  0  0  0  0  0  0  0  0  0  0  0  # atno 10763 bound_to 10752
  154.4524  135.5927  153.6204 H   0  0  0  0  0  0  0  0  0  0  0  0  # atno 10764 bound_to 10752
  152.9844  135.6045  154.3812 H   0  0  0  0  0  0  0  0  0  0  0  0  # atno 10765 bound_to 10752
  140.2055  134.3818  155.8074 H   0  0  0  0  0  0  0  0  0  0  0  0  # atno 11005 bound_to 11000
  145.1446  139.2551  143.5472 LP  0  0  0  0  0  0  0  0  0  0  0  0  # atno 17320 bound_to 7965
  146.3522  140.1132  142.8603 LP  0  0  0  0  0  0  0  0  0  0  0  0  # atno 17321 bound_to 7965
  139.4904  144.4351  151.9828 LP  0  0  0  0  0  0  0  0  0  0  0  0  # atno 17342 bound_to 10162
  140.3445  144.3164  150.5961 LP  0  0  0  0  0  0  0  0  0  0  0  0  # atno 17343 bound_to 10162
  157.7506  131.0165  150.3549 LP  0  0  0  0  0  0  0  0  0  0  0  0  # atno 17370 bound_to 10713
  156.3908  130.3897  149.7031 LP  0  0  0  0  0  0  0  0  0  0  0  0  # atno 17371 bound_to 10713
  141.2227  133.7116  156.8330 LP  0  0  0  0  0  0  0  0  0  0  0  0  # atno 17394 bound_to 11000
  140.2007  134.8899  157.3166 LP  0  0  0  0  0  0  0  0  0  0  0  0  # atno 17395 bound_to 11000

$$$$
