AV-unprocessed.smi:1802|AV-procd|sdf|7273|dock3
  -GOLD-   22720 8533D 1   1.00000     0.00000
 Structure written by MMmdl.
 41 42  0  0  0  0  0  0  0  0  2 V2000
  144.4770  134.2644  150.6115 C   0  0  0  0  0  0  0  0  0  0  0  0
  145.7284  133.4109  150.3413 C   0  0  2  0  0  0  0  0  0  0  0  0
  145.3895  131.9656  149.9313 C   0  0  0  0  0  0  0  0  0  0  0  0
  144.9123  131.1413  151.1355 C   0  0  0  0  0  0  0  0  0  0  0  0
  145.9227  131.2156  152.2913 C   0  0  0  0  0  0  0  0  0  0  0  0
  146.1859  132.6252  152.6800 N   0  3  1  0  0  0  0  0  0  0  0  0
  147.0311  132.7302  153.8959 C   0  0  0  0  0  0  0  0  0  0  0  0
  148.5059  132.4029  153.6070 C   0  0  0  0  0  0  0  0  0  0  0  0
  149.4593  133.0446  154.6290 C   0  0  0  0  0  0  0  0  0  0  0  0
  149.6461  134.4681  154.3712 N   0  0  0  0  0  0  0  0  0  0  0  0
  150.4627  135.2716  155.0685 C   0  0  0  0  0  0  0  0  0  0  0  0
  151.1449  134.8822  156.0169 O   0  0  0  0  0  0  0  0  0  0  0  0
  150.4282  136.5315  154.5994 N   0  0  0  0  0  0  0  0  0  0  0  0
  151.1394  137.6659  155.0736 C   0  0  0  0  0  0  0  0  0  0  0  0
  152.3734  137.6048  155.5982 N   0  0  0  0  0  0  0  0  0  0  0  0
  152.8372  138.8561  155.9830 N   0  0  0  0  0  0  0  0  0  0  0  0
  151.9359  139.8103  155.7343 C   0  0  0  0  0  0  0  0  0  0  0  0
  150.4322  139.2737  155.0048 S   0  0  0  0  0  0  0  0  0  0  0  0
  146.7063  133.4196  151.5341 C   0  0  0  0  0  0  0  0  0  0  0  0
  143.9094  133.8972  151.4667 H   0  0  0  0  0  0  0  0  0  0  0  0
  143.8109  134.2678  149.7483 H   0  0  0  0  0  0  0  0  0  0  0  0
  144.7484  135.3002  150.8179 H   0  0  0  0  0  0  0  0  0  0  0  0
  146.2392  133.8754  149.4966 H   0  0  0  0  0  0  0  0  0  0  0  0
  144.6366  131.9565  149.1425 H   0  0  0  0  0  0  0  0  0  0  0  0
  146.2787  131.4952  149.5091 H   0  0  0  0  0  0  0  0  0  0  0  0
  143.9400  131.5023  151.4726 H   0  0  0  0  0  0  0  0  0  0  0  0
  144.7653  130.1029  150.8375 H   0  0  0  0  0  0  0  0  0  0  0  0
  145.5262  130.6627  153.1439 H   0  0  0  0  0  0  0  0  0  0  0  0
  146.8596  130.7332  152.0078 H   0  0  0  0  0  0  0  0  0  0  0  0
  146.9850  133.7514  154.2772 H   0  0  0  0  0  0  0  0  0  0  0  0
  146.6344  132.0893  154.6847 H   0  0  0  0  0  0  0  0  0  0  0  0
  148.6655  131.3250  153.6062 H   0  0  0  0  0  0  0  0  0  0  0  0
  148.7554  132.7516  152.6039 H   0  0  0  0  0  0  0  0  0  0  0  0
  149.0886  132.8978  155.6450 H   0  0  0  0  0  0  0  0  0  0  0  0
  150.4350  132.5604  154.5820 H   0  0  0  0  0  0  0  0  0  0  0  0
  149.1228  134.8670  153.6053 H   0  0  0  0  0  0  0  0  0  0  0  0
  149.8188  136.7015  153.8130 H   0  0  0  0  0  0  0  0  0  0  0  0
  152.1586  140.8375  155.9821 H   0  0  0  0  0  0  0  0  0  0  0  0
  147.6679  133.0069  151.2245 H   0  0  0  0  0  0  0  0  0  0  0  0
  146.8968  134.4494  151.8341 H   0  0  0  0  0  0  0  0  0  0  0  0
  145.2880  133.0172  152.9265 H   0  0  0  0  0  0  0  0  0  0  0  0
  1  2  1  0  0  0  0
  1 20  1  0  0  0  0
  1 21  1  0  0  0  0
  1 22  1  0  0  0  0
  2 19  1  0  0  0  0
  2  3  1  0  0  0  0
  2 23  1  0  0  0  0
  3  4  1  0  0  0  0
  3 24  1  0  0  0  0
  3 25  1  0  0  0  0
  4  5  1  0  0  0  0
  4 26  1  0  0  0  0
  4 27  1  0  0  0  0
  5  6  1  0  0  0  0
  5 28  1  0  0  0  0
  5 29  1  0  0  0  0
  6  7  1  0  0  0  0
  6 19  1  0  0  0  0
  6 41  1  0  0  0  0
  7  8  1  0  0  0  0
  7 30  1  0  0  0  0
  7 31  1  0  0  0  0
  8  9  1  0  0  0  0
  8 32  1  0  0  0  0
  8 33  1  0  0  0  0
  9 10  1  0  0  0  0
  9 34  1  0  0  0  0
  9 35  1  0  0  0  0
 10 11  1  0  0  0  0
 10 36  1  0  0  0  0
 11 12  2  0  0  0  0
 11 13  1  0  0  0  0
 13 14  1  0  0  0  0
 13 37  1  0  0  0  0
 14 18  1  0  0  0  0
 14 15  2  0  0  0  0
 15 16  1  0  0  0  0
 16 17  2  0  0  0  0
 17 18  1  0  0  0  0
 17 38  1  0  0  0  0
 19 39  1  0  0  0  0
 19 40  1  0  0  0  0
M  CHG  1   6   1
M  END
> <s_m_source_file>
AV-unprocessed.smi

> <i_m_source_file_index>
1802

> <i_lp_mmshare_version>
43012

> <i_f3d_flags>
0

> <s_epik_input>
W0NIM11bQ0BASF0xW0NIMl1bQ0gyXVtDSDJdTihbQ0gyXTEpW0NIMl1bQ0gyXVtDSDJdW05IXUMoPU8pW05IXWMybm5bY0hdczI=

> <s_epik_cmdline>
J2VwaWtfcHl0aG9uJywgJy1waCcsICc3LjAnLCAnLXRuJywgJzgnLCAnLW1hJywgJzIwMCcsICctbWV0YWxfYmluZGluZycsICctaW1hZScsICc8aW5maWxlLm1hZT4nLCAnLW9tYWUnLCAnPG91dGZpbGUubWFlPic=

> <r_lp_tautomer_probability>
1

> <r_epik_Ionization_Penalty>
0.00272894

> <r_epik_Ionization_Penalty_Charging>
0.000288442

> <r_epik_Ionization_Penalty_Neutral>
0.0024405

> <r_epik_State_Penalty>
-0

> <r_epik_Charging_Adjusted_Penalty>
0.000288442

> <i_epik_Tot_Q>
1

> <i_epik_Tot_abs_Q>
1

> <r_epik_Metal_State_Penalty>
0.350525

> <b_epik_Metal_Only>
0

> <s_lp_Force_Field>
OPLS_2005

> <r_lp_Energy>
17.3239

> <b_lp_Chiralities_Consistent>
1

> <s_lp_Variant>
AV-unprocessed.smi:1802-3

> <Gold.Version>
5.8.1

> <Gold.Id.Protein>
6NUR|6NUR_protein|mol2

> <Gold.PLP.Fitness>
48.0388

> <Gold.PLP.PLP>
-37.7242

> <Gold.PLP.part.hbond>
-5.9465

> <Gold.PLP.part.metal>
0.0000

> <Gold.PLP.part.buried>
-2.6352

> <Gold.PLP.part.nonpolar>
-29.5198

> <Gold.PLP.part.repulsive>
0.1906

> <Gold.PLP.ligand.clash>
0.0000

> <Gold.PLP.ligand.torsion>
0.4965

> <Gold.PLP.Chemscore.Hbond>
3.7552

> <Gold.PLP.Chemscore.CHOScore>
0.0000

> <Gold.PLP.Chemscore.Metal>
0.0000

> <Gold.Chemscore.Hbonds>
donor molecule, donor type, donor heavy atom, donor atom, acceptor molecule, acceptor atom, score
      L1  H    10    36       P1  7948  0.59
      L1  H    13    37       P1  7948  0.70
      P1  H  7997  8008       L1    16  0.85
      P1  H 10752 10763       L1    12  0.25

> <Gold.PLP.Chemscore.Internal.Correction>
0.0421

> <Gold.Rescore>
     Score         DG    S(hbond)    S(metal)    S(lipo)     H(rot)  DE(clash)    DE(int)     intcor
     15.72     -17.77       2.39        0.00      80.14       1.98       0.43       1.62       ----

> <Gold.Chemscore.Fitness>
15.7154

> <Gold.Chemscore.DG>
-17.7692

> <Gold.Chemscore.ZeroCoef>
-5.4800

> <Gold.Chemscore.Hbond>
2.3893

> <Gold.Chemscore.Metal>
0.0000

> <Gold.Chemscore.Lipo>
80.1355

> <Gold.Chemscore.Internal_Hbond>
0.0000

> <Gold.Chemscore.DEClash>
0.4334

> <Gold.Chemscore.DEInternal>
1.6204

> <Gold.Chemscore.Rot>
1.9793

> <Gold.Chemscore.Internal.Correction>
   9.000000E+99

> <Gold.Chemscore.Hbonds>
donor molecule, donor type, donor heavy atom, donor atom, acceptor molecule, acceptor atom, score
      L1  H    10    36       P1  7948  0.13
      L1  H    13    37       P1  7948  0.33
      P1  H  7997  8008       L1    16  0.14
      P1  H 10752 10763       L1    15  0.09

> <Gold.Chemscore.Hbond.Weighted>
-7.9803

> <Gold.Chemscore.Metal.Weighted>
-0.0000

> <Gold.Chemscore.Lipo.Weighted>
-9.3759

> <Gold.Chemscore.Internal_Hbond.Weighted>
0.0000

> <Gold.Chemscore.DEClash.Weighted>
0.4334

> <Gold.Chemscore.DEInternal.Weighted>
1.6204

> <Gold.Chemscore.Rot.Weighted>
5.0670

> <Gold.Chemscore.Internal.Correction.Weighted>
   9.000000E+99

> <Gold.Protein.RotatedTorsions>
[ 6907 6896 6895 6894 ] final  -21.14 input  -60.11 | X-H torsion
[ 7974 7965 7964 7962 ] final   30.74 input  175.53 | X-H torsion
[ 8008 7997 7996 7995 ] final  -51.29 input   59.86 | X-H torsion
[ 10167 10162 10161 10158 ] final  117.24 input  -65.29 | X-H torsion
[ 10718 10713 10712 10709 ] final  -56.29 input   66.30 | X-H torsion
[ 10763 10752 10751 10750 ] final   85.91 input  -60.55 | X-H torsion
[ 11005 11000 10999 10996 ] final   98.75 input  -57.11 | X-H torsion

> <Gold.Protein.ActiveResidues>
 VAL166  LYS551  ARG553  GLY616  TRP617  ASP618  TYR619  PRO620  LYS621  CYS622 
 ASP623  PHE694  ASN695  SER759  ASP760  ASP761  ALA762  ILE779  LEU786  VAL792 
 PHE793  MET794  SER795  GLU796  ALA797  LYS798  CYS799  TRP800  GLU811  SER814 

> <Gold.Protein.RotatedAtoms>
  151.2378  135.0578  159.9012 H   0  0  0  0  0  0  0  0  0  0  0  0  # atno 6907 bound_to 6896
  152.5397  134.0467  159.8102 H   0  0  0  0  0  0  0  0  0  0  0  0  # atno 6908 bound_to 6896
  151.0656  133.5459  159.2662 H   0  0  0  0  0  0  0  0  0  0  0  0  # atno 6909 bound_to 6896
  146.1593  139.6748  142.9045 H   0  0  0  0  0  0  0  0  0  0  0  0  # atno 7974 bound_to 7965
  154.4080  140.1251  156.4805 H   0  0  0  0  0  0  0  0  0  0  0  0  # atno 8008 bound_to 7997
  155.7090  140.3494  155.4946 H   0  0  0  0  0  0  0  0  0  0  0  0  # atno 8009 bound_to 7997
  155.9317  140.1071  157.1117 H   0  0  0  0  0  0  0  0  0  0  0  0  # atno 8010 bound_to 7997
  139.6192  144.7098  151.2671 H   0  0  0  0  0  0  0  0  0  0  0  0  # atno 10167 bound_to 10162
  156.1300  130.4160  150.0285 H   0  0  0  0  0  0  0  0  0  0  0  0  # atno 10718 bound_to 10713
  153.1520  135.4599  154.9650 H   0  0  0  0  0  0  0  0  0  0  0  0  # atno 10763 bound_to 10752
  154.7832  135.3195  154.7946 H   0  0  0  0  0  0  0  0  0  0  0  0  # atno 10764 bound_to 10752
  153.8450  135.6926  153.4853 H   0  0  0  0  0  0  0  0  0  0  0  0  # atno 10765 bound_to 10752
  139.8771  134.9064  156.4504 H   0  0  0  0  0  0  0  0  0  0  0  0  # atno 11005 bound_to 11000
  145.4629  141.0433  143.2741 LP  0  0  0  0  0  0  0  0  0  0  0  0  # atno 17320 bound_to 7965
  144.8005  139.6150  143.7074 LP  0  0  0  0  0  0  0  0  0  0  0  0  # atno 17321 bound_to 7965
  140.7371  143.6688  150.8100 LP  0  0  0  0  0  0  0  0  0  0  0  0  # atno 17342 bound_to 10162
  140.0296  143.5457  152.2766 LP  0  0  0  0  0  0  0  0  0  0  0  0  # atno 17343 bound_to 10162
  156.8200  130.9355  151.3641 LP  0  0  0  0  0  0  0  0  0  0  0  0  # atno 17370 bound_to 10713
  157.6479  130.8859  149.9574 LP  0  0  0  0  0  0  0  0  0  0  0  0  # atno 17371 bound_to 10713
  140.8936  133.7830  155.9600 LP  0  0  0  0  0  0  0  0  0  0  0  0  # atno 17394 bound_to 11000
  140.8727  134.2707  157.5183 LP  0  0  0  0  0  0  0  0  0  0  0  0  # atno 17395 bound_to 11000

$$$$
