AV-unprocessed.smi:249|AV-procd|sdf|1926|dock2
  -GOLD-   2262021 33D 1   1.00000     0.00000
 Structure written by MMmdl.
 64 67  0  0  0  0  0  0  0  0  2 V2000
  146.8257  133.3182  150.8311 C   0  0  0  0  0  0  0  0  0  0  0  0
  146.3680  133.7703  152.2249 C   0  0  0  0  0  0  0  0  0  0  0  0
  147.5055  134.2018  153.0773 N   0  3  2  0  0  0  0  0  0  0  0  0
  148.4786  133.1146  153.3687 C   0  0  0  0  0  0  0  0  0  0  0  0
  149.7309  133.6702  154.0643 C   0  0  0  0  0  0  0  0  0  0  0  0
  149.3645  134.4294  155.3566 C   0  0  1  0  0  0  0  0  0  0  0  0
  150.5279  134.9367  156.0959 N   0  0  0  0  0  0  0  0  0  0  0  0
  151.5724  133.9848  156.4543 C   0  0  0  0  0  0  0  0  0  0  0  0
  150.3163  135.8985  157.0248 C   0  0  0  0  0  0  0  0  0  0  0  0
  149.5016  135.5911  158.0649 N   0  0  0  0  0  0  0  0  0  0  0  0
  149.2578  136.4976  159.0156 C   0  0  0  0  0  0  0  0  0  0  0  0
  149.7166  137.7468  159.1145 N   0  0  0  0  0  0  0  0  0  0  0  0
  150.5269  138.0634  158.0640 C   0  0  0  0  0  0  0  0  0  0  0  0
  150.8784  137.2063  156.9835 C   0  0  0  0  0  0  0  0  0  0  0  0
  151.7343  137.8700  156.1126 N   0  0  0  0  0  0  0  0  0  0  0  0
  151.8828  139.0504  156.6488 C   0  0  0  0  0  0  0  0  0  0  0  0
  151.1767  139.2591  157.8124 N   0  0  0  0  0  0  0  0  0  0  0  0
  151.1694  140.4689  158.6167 C   0  0  0  0  0  0  0  0  0  0  0  0
  151.9421  141.6644  157.9995 C   0  0  1  0  0  0  0  0  0  0  0  0
  151.1199  142.2534  156.8299 C   0  0  0  0  0  0  0  0  0  0  0  0
  149.7777  142.4893  157.2041 O   0  0  0  0  0  0  0  0  0  0  0  0
  152.3766  142.7523  159.0248 C   0  0  1  0  0  0  0  0  0  0  0  0
  151.2645  143.6369  159.5694 C   0  0  0  0  0  0  0  0  0  0  0  0
  151.8508  144.1848  160.8685 C   0  0  0  0  0  0  0  0  0  0  0  0
  152.8453  143.2557  161.2804 O   0  0  0  0  0  0  0  0  0  0  0  0
  152.9242  142.1921  160.3418 C   0  0  0  0  0  0  0  0  0  0  0  0
  148.3294  135.5250  155.0204 C   0  0  0  0  0  0  0  0  0  0  0  0
  147.0918  134.9545  154.2984 C   0  0  2  0  0  0  0  0  0  0  0  0
  146.1807  134.1408  155.2429 C   0  0  0  0  0  0  0  0  0  0  0  0
  145.9661  133.0738  150.2067 H   0  0  0  0  0  0  0  0  0  0  0  0
  147.4572  132.4314  150.8736 H   0  0  0  0  0  0  0  0  0  0  0  0
  147.3855  134.1062  150.3262 H   0  0  0  0  0  0  0  0  0  0  0  0
  145.6781  134.6045  152.0913 H   0  0  0  0  0  0  0  0  0  0  0  0
  145.8053  132.9777  152.7202 H   0  0  0  0  0  0  0  0  0  0  0  0
  148.0123  132.3424  153.9812 H   0  0  0  0  0  0  0  0  0  0  0  0
  148.7835  132.6283  152.4430 H   0  0  0  0  0  0  0  0  0  0  0  0
  150.4172  132.8538  154.2914 H   0  0  0  0  0  0  0  0  0  0  0  0
  150.2489  134.3295  153.3666 H   0  0  0  0  0  0  0  0  0  0  0  0
  148.8886  133.7120  156.0259 H   0  0  0  0  0  0  0  0  0  0  0  0
  152.4317  134.4953  156.8913 H   0  0  0  0  0  0  0  0  0  0  0  0
  151.9174  133.4544  155.5666 H   0  0  0  0  0  0  0  0  0  0  0  0
  151.2135  133.2463  157.1708 H   0  0  0  0  0  0  0  0  0  0  0  0
  148.6006  136.1767  159.8103 H   0  0  0  0  0  0  0  0  0  0  0  0
  152.5056  139.8107  156.2002 H   0  0  0  0  0  0  0  0  0  0  0  0
  150.1245  140.7414  158.7699 H   0  0  0  0  0  0  0  0  0  0  0  0
  151.5699  140.2327  159.6033 H   0  0  0  0  0  0  0  0  0  0  0  0
  152.8514  141.2701  157.5454 H   0  0  0  0  0  0  0  0  0  0  0  0
  151.5557  143.1854  156.4708 H   0  0  0  0  0  0  0  0  0  0  0  0
  151.1276  141.5708  155.9795 H   0  0  0  0  0  0  0  0  0  0  0  0
  149.5348  143.3578  156.9216 H   0  0  0  0  0  0  0  0  0  0  0  0
  153.1412  143.3899  158.5777 H   0  0  0  0  0  0  0  0  0  0  0  0
  150.9793  144.4426  158.8954 H   0  0  0  0  0  0  0  0  0  0  0  0
  150.3758  143.0417  159.7849 H   0  0  0  0  0  0  0  0  0  0  0  0
  152.3287  145.1502  160.6998 H   0  0  0  0  0  0  0  0  0  0  0  0
  151.0884  144.3145  161.6370 H   0  0  0  0  0  0  0  0  0  0  0  0
  152.3029  141.3694  160.6992 H   0  0  0  0  0  0  0  0  0  0  0  0
  153.9486  141.8302  160.2537 H   0  0  0  0  0  0  0  0  0  0  0  0
  148.0153  136.0504  155.9225 H   0  0  0  0  0  0  0  0  0  0  0  0
  148.7878  136.2747  154.3752 H   0  0  0  0  0  0  0  0  0  0  0  0
  146.5092  135.8126  153.9598 H   0  0  0  0  0  0  0  0  0  0  0  0
  145.8947  134.7378  156.1092 H   0  0  0  0  0  0  0  0  0  0  0  0
  146.6662  133.2407  155.6184 H   0  0  0  0  0  0  0  0  0  0  0  0
  145.2577  133.8366  154.7496 H   0  0  0  0  0  0  0  0  0  0  0  0
  148.0105  134.8764  152.5202 H   0  0  0  0  0  0  0  0  0  0  0  0
  1  2  1  0  0  0  0
  1 30  1  0  0  0  0
  1 31  1  0  0  0  0
  1 32  1  0  0  0  0
  2  3  1  0  0  0  0
  2 33  1  0  0  0  0
  2 34  1  0  0  0  0
  3 28  1  0  0  0  0
  3  4  1  0  0  0  0
  3 64  1  0  0  0  0
  4  5  1  0  0  0  0
  4 35  1  0  0  0  0
  4 36  1  0  0  0  0
  5  6  1  0  0  0  0
  5 37  1  0  0  0  0
  5 38  1  0  0  0  0
  6  7  1  0  0  0  0
  6 27  1  0  0  0  0
  6 39  1  0  0  0  0
  7  8  1  0  0  0  0
  7  9  1  0  0  0  0
  8 40  1  0  0  0  0
  8 41  1  0  0  0  0
  8 42  1  0  0  0  0
  9 14  1  0  0  0  0
  9 10  2  0  0  0  0
 10 11  1  0  0  0  0
 11 12  2  0  0  0  0
 11 43  1  0  0  0  0
 12 13  1  0  0  0  0
 13 17  1  0  0  0  0
 13 14  2  0  0  0  0
 14 15  1  0  0  0  0
 15 16  2  0  0  0  0
 16 17  1  0  0  0  0
 16 44  1  0  0  0  0
 17 18  1  0  0  0  0
 18 19  1  0  0  0  0
 18 45  1  0  0  0  0
 18 46  1  0  0  0  0
 19 20  1  0  0  0  0
 19 22  1  0  0  0  0
 19 47  1  0  0  0  0
 20 21  1  0  0  0  0
 20 48  1  0  0  0  0
 20 49  1  0  0  0  0
 21 50  1  0  0  0  0
 22 26  1  0  0  0  0
 22 23  1  0  0  0  0
 22 51  1  0  0  0  0
 23 24  1  0  0  0  0
 23 52  1  0  0  0  0
 23 53  1  0  0  0  0
 24 25  1  0  0  0  0
 24 54  1  0  0  0  0
 24 55  1  0  0  0  0
 25 26  1  0  0  0  0
 26 56  1  0  0  0  0
 26 57  1  0  0  0  0
 27 28  1  0  0  0  0
 27 58  1  0  0  0  0
 27 59  1  0  0  0  0
 28 29  1  0  0  0  0
 28 60  1  0  0  0  0
 29 61  1  0  0  0  0
 29 62  1  0  0  0  0
 29 63  1  0  0  0  0
M  CHG  1   3   1
M  END
> <s_m_source_file>
AV-unprocessed.smi

> <i_m_source_file_index>
249

> <i_lp_mmshare_version>
43012

> <i_f3d_flags>
0

> <s_epik_input>
W0NIM11bQ0gyXU4xW0NIMl1bQ0gyXVtDQEhdKFtDSDJdW0NASF0xW0NIM10pTihbQ0gzXSljKG5bY0hdbjIpYyhjMjMpbltjSF1uM1tDSDJdW0NASF0oW0NIMl1bT0hdKVtDQEBIXTRbQ0gyXVtDSDJdT1tDSDJdNA==

> <s_epik_cmdline>
J2VwaWtfcHl0aG9uJywgJy1waCcsICc3LjAnLCAnLXRuJywgJzgnLCAnLW1hJywgJzIwMCcsICctbWV0YWxfYmluZGluZycsICctaW1hZScsICc8aW5maWxlLm1hZT4nLCAnLW9tYWUnLCAnPG91dGZpbGUubWFlPic=

> <r_lp_tautomer_probability>
1

> <r_epik_Ionization_Penalty>
0.00294688

> <r_epik_Ionization_Penalty_Charging>
0.00169971

> <r_epik_Ionization_Penalty_Neutral>
0.00124717

> <r_epik_State_Penalty>
-0

> <r_epik_Charging_Adjusted_Penalty>
0.00169971

> <i_epik_Tot_Q>
1

> <i_epik_Tot_abs_Q>
1

> <r_epik_Metal_State_Penalty>
-0

> <b_epik_Metal_Only>
0

> <s_lp_Force_Field>
OPLS_2005

> <r_lp_Energy>
54.3628

> <b_lp_Chiralities_Consistent>
1

> <s_lp_Variant>
AV-unprocessed.smi:249-29

> <Gold.Version>
5.8.1

> <Gold.Id.Protein>
6NUR|6NUR_protein|mol2

> <Gold.PLP.Fitness>
54.3323

> <Gold.PLP.PLP>
-44.5124

> <Gold.PLP.part.hbond>
-3.5821

> <Gold.PLP.part.metal>
0.0000

> <Gold.PLP.part.buried>
-7.3768

> <Gold.PLP.part.nonpolar>
-33.4574

> <Gold.PLP.part.repulsive>
0.0966

> <Gold.PLP.ligand.clash>
0.0000

> <Gold.PLP.ligand.torsion>
1.0350

> <Gold.PLP.Chemscore.Hbond>
3.5330

> <Gold.PLP.Chemscore.CHOScore>
0.0000

> <Gold.PLP.Chemscore.Metal>
0.0000

> <Gold.Chemscore.Hbonds>
donor molecule, donor type, donor heavy atom, donor atom, acceptor molecule, acceptor atom, score
      L1  H     3    64       P1  7948  2.00
      L1  H    21    50       P1  8028  1.00
      P1  H  6896  6907       L1    10  0.37

> <Gold.PLP.Chemscore.Internal.Correction>
1.2907

> <Gold.Rescore>
     Score         DG    S(hbond)    S(metal)    S(lipo)     H(rot)  DE(clash)    DE(int)     intcor
     16.03     -17.07       1.99        0.00     105.61       2.90       0.10       0.94       ----

> <Gold.Chemscore.Fitness>
16.0272

> <Gold.Chemscore.DG>
-17.0689

> <Gold.Chemscore.ZeroCoef>
-5.4800

> <Gold.Chemscore.Hbond>
1.9934

> <Gold.Chemscore.Metal>
0.0000

> <Gold.Chemscore.Lipo>
105.6119

> <Gold.Chemscore.Internal_Hbond>
0.0000

> <Gold.Chemscore.DEClash>
0.1047

> <Gold.Chemscore.DEInternal>
0.9371

> <Gold.Chemscore.Rot>
2.9006

> <Gold.Chemscore.Internal.Correction>
   9.000000E+99

> <Gold.Chemscore.Hbonds>
donor molecule, donor type, donor heavy atom, donor atom, acceptor molecule, acceptor atom, score
      L1  H     3    64       P1  7948  0.78
      L1  H    21    50       P1  8028  0.96
      P1  H  6896  6907       L1    10  0.01

> <Gold.Chemscore.Hbond.Weighted>
-6.6580

> <Gold.Chemscore.Metal.Weighted>
-0.0000

> <Gold.Chemscore.Lipo.Weighted>
-12.3566

> <Gold.Chemscore.Internal_Hbond.Weighted>
0.0000

> <Gold.Chemscore.DEClash.Weighted>
0.1047

> <Gold.Chemscore.DEInternal.Weighted>
0.9371

> <Gold.Chemscore.Rot.Weighted>
7.4256

> <Gold.Chemscore.Internal.Correction.Weighted>
   9.000000E+99

> <Gold.Protein.RotatedTorsions>
[ 6907 6896 6895 6894 ] final  -84.00 input  -60.11 | X-H torsion
[ 7974 7965 7964 7962 ] final -178.96 input  175.53 | X-H torsion
[ 8008 7997 7996 7995 ] final -154.23 input   59.86 | X-H torsion
[ 10167 10162 10161 10158 ] final   96.37 input  -65.29 | X-H torsion
[ 10718 10713 10712 10709 ] final  -14.45 input   66.30 | X-H torsion
[ 10763 10752 10751 10750 ] final  -36.71 input  -60.55 | X-H torsion
[ 11005 11000 10999 10996 ] final  -26.62 input  -57.11 | X-H torsion

> <Gold.Protein.ActiveResidues>
 VAL166  LYS551  ARG553  GLY616  TRP617  ASP618  TYR619  PRO620  LYS621  CYS622 
 ASP623  PHE694  ASN695  SER759  ASP760  ASP761  ALA762  ILE779  LEU786  VAL792 
 PHE793  MET794  SER795  GLU796  ALA797  LYS798  CYS799  TRP800  GLU811  SER814 

> <Gold.Protein.RotatedAtoms>
  150.6880  134.3425  159.4873 H   0  0  0  0  0  0  0  0  0  0  0  0  # atno 6907 bound_to 6896
  152.1277  134.9156  160.0569 H   0  0  0  0  0  0  0  0  0  0  0  0  # atno 6908 bound_to 6896
  152.0338  133.3913  159.4345 H   0  0  0  0  0  0  0  0  0  0  0  0  # atno 6909 bound_to 6896
  144.7133  140.0789  143.6426 H   0  0  0  0  0  0  0  0  0  0  0  0  # atno 7974 bound_to 7965
  155.6831  140.0746  157.2477 H   0  0  0  0  0  0  0  0  0  0  0  0  # atno 8008 bound_to 7997
  154.4102  140.1678  156.2057 H   0  0  0  0  0  0  0  0  0  0  0  0  # atno 8009 bound_to 7997
  155.9517  140.3377  155.6416 H   0  0  0  0  0  0  0  0  0  0  0  0  # atno 8010 bound_to 7997
  139.7900  144.6855  150.9905 H   0  0  0  0  0  0  0  0  0  0  0  0  # atno 10167 bound_to 10162
  156.6158  130.4862  149.6183 H   0  0  0  0  0  0  0  0  0  0  0  0  # atno 10718 bound_to 10713
  153.8843  135.6818  153.4765 H   0  0  0  0  0  0  0  0  0  0  0  0  # atno 10763 bound_to 10752
  153.1216  135.4737  154.9203 H   0  0  0  0  0  0  0  0  0  0  0  0  # atno 10764 bound_to 10752
  154.7654  135.3222  154.8249 H   0  0  0  0  0  0  0  0  0  0  0  0  # atno 10765 bound_to 10752
  140.9046  133.7501  156.0588 H   0  0  0  0  0  0  0  0  0  0  0  0  # atno 11005 bound_to 11000
  145.9719  139.2876  143.1094 LP  0  0  0  0  0  0  0  0  0  0  0  0  # atno 17320 bound_to 7965
  145.9107  140.9182  143.0455 LP  0  0  0  0  0  0  0  0  0  0  0  0  # atno 17321 bound_to 7965
  140.7820  143.4390  151.0579 LP  0  0  0  0  0  0  0  0  0  0  0  0  # atno 17342 bound_to 10162
  139.8067  143.8007  152.3168 LP  0  0  0  0  0  0  0  0  0  0  0  0  # atno 17343 bound_to 10162
  156.2352  130.6818  151.1502 LP  0  0  0  0  0  0  0  0  0  0  0  0  # atno 17370 bound_to 10713
  157.7241  131.0662  150.6007 LP  0  0  0  0  0  0  0  0  0  0  0  0  # atno 17371 bound_to 10713
  140.8188  134.3314  157.5388 LP  0  0  0  0  0  0  0  0  0  0  0  0  # atno 17394 bound_to 11000
  139.8747  134.9297  156.3483 LP  0  0  0  0  0  0  0  0  0  0  0  0  # atno 17395 bound_to 11000

$$$$
