AV-unprocessed.smi:2959|AV-procd|sdf|11309|dock3
  -GOLD-   2272016203D 1   1.00000     0.00000
 Structure written by MMmdl.
 45 47  0  0  0  0  0  0  0  0  1 V2000
  155.5888  135.2273  160.9851 C   0  0  0  0  0  0  0  0  0  0  0  0
  154.3409  136.0707  160.7432 C   0  0  0  0  0  0  0  0  0  0  0  0
  153.4448  135.6477  160.0141 O   0  0  0  0  0  0  0  0  0  0  0  0
  154.2913  137.2579  161.3627 N   0  0  0  0  0  0  0  0  0  0  0  0
  153.1897  138.2066  161.2547 C   0  0  0  0  0  0  0  0  0  0  0  0
  152.9189  138.6116  159.7930 C   0  0  0  0  0  0  0  0  0  0  0  0
  152.6150  140.0745  159.6170 C   0  0  0  0  0  0  0  0  0  0  0  0
  151.4732  140.4735  159.0535 N   0  0  0  0  0  0  0  0  0  0  0  0
  151.5861  141.8484  159.0660 C   0  0  0  0  0  0  0  0  0  0  0  0
  150.7058  142.8464  158.5903 C   0  0  0  0  0  0  0  0  0  0  0  0
  151.0392  144.2108  158.7160 C   0  0  0  0  0  0  0  0  0  0  0  0
  152.2541  144.5956  159.3192 C   0  0  0  0  0  0  0  0  0  0  0  0
  153.1439  143.6164  159.8012 C   0  0  0  0  0  0  0  0  0  0  0  0
  152.8073  142.2551  159.6720 C   0  0  0  0  0  0  0  0  0  0  0  0
  153.4406  141.0702  160.0379 N   0  0  0  0  0  0  0  0  0  0  0  0
  154.7163  140.9856  160.7383 C   0  0  0  0  0  0  0  0  0  0  0  0
  154.5619  141.0242  162.2654 C   0  0  0  0  0  0  0  0  0  0  0  0
  154.4841  142.3723  162.7050 O   0  0  0  0  0  0  0  0  0  0  0  0
  155.0972  142.7081  163.8927 C   0  0  0  0  0  0  0  0  0  0  0  0
  155.0547  144.0655  164.2736 C   0  0  0  0  0  0  0  0  0  0  0  0
  155.6427  144.4959  165.4781 C   0  0  0  0  0  0  0  0  0  0  0  0
  156.2849  143.5674  166.3174 C   0  0  0  0  0  0  0  0  0  0  0  0
  156.3380  142.2103  165.9486 C   0  0  0  0  0  0  0  0  0  0  0  0
  155.7486  141.7799  164.7437 C   0  0  0  0  0  0  0  0  0  0  0  0
  156.0028  134.8844  160.0368 H   0  0  0  0  0  0  0  0  0  0  0  0
  155.3402  134.3534  161.5874 H   0  0  0  0  0  0  0  0  0  0  0  0
  156.3598  135.7945  161.5084 H   0  0  0  0  0  0  0  0  0  0  0  0
  155.0697  137.5235  161.9490 H   0  0  0  0  0  0  0  0  0  0  0  0
  152.2933  137.7479  161.6753 H   0  0  0  0  0  0  0  0  0  0  0  0
  153.4041  139.0917  161.8550 H   0  0  0  0  0  0  0  0  0  0  0  0
  153.7854  138.3643  159.1792 H   0  0  0  0  0  0  0  0  0  0  0  0
  152.1016  138.0028  159.4127 H   0  0  0  0  0  0  0  0  0  0  0  0
  149.7725  142.5612  158.1279 H   0  0  0  0  0  0  0  0  0  0  0  0
  150.3592  144.9655  158.3487 H   0  0  0  0  0  0  0  0  0  0  0  0
  152.5021  145.6428  159.4126 H   0  0  0  0  0  0  0  0  0  0  0  0
  154.0744  143.9098  160.2640 H   0  0  0  0  0  0  0  0  0  0  0  0
  155.1911  140.0464  160.4531 H   0  0  0  0  0  0  0  0  0  0  0  0
  155.3892  141.7675  160.3877 H   0  0  0  0  0  0  0  0  0  0  0  0
  153.6711  140.4675  162.5607 H   0  0  0  0  0  0  0  0  0  0  0  0
  155.4265  140.5417  162.7239 H   0  0  0  0  0  0  0  0  0  0  0  0
  154.5608  144.7848  163.6368 H   0  0  0  0  0  0  0  0  0  0  0  0
  155.5991  145.5383  165.7576 H   0  0  0  0  0  0  0  0  0  0  0  0
  156.7359  143.8952  167.2424 H   0  0  0  0  0  0  0  0  0  0  0  0
  156.8306  141.4964  166.5922 H   0  0  0  0  0  0  0  0  0  0  0  0
  155.8057  140.7307  164.4975 H   0  0  0  0  0  0  0  0  0  0  0  0
  1  2  1  0  0  0  0
  1 25  1  0  0  0  0
  1 26  1  0  0  0  0
  1 27  1  0  0  0  0
  2  3  2  0  0  0  0
  2  4  1  0  0  0  0
  4  5  1  0  0  0  0
  4 28  1  0  0  0  0
  5  6  1  0  0  0  0
  5 29  1  0  0  0  0
  5 30  1  0  0  0  0
  6  7  1  0  0  0  0
  6 31  1  0  0  0  0
  6 32  1  0  0  0  0
  7 15  1  0  0  0  0
  7  8  2  0  0  0  0
  8  9  1  0  0  0  0
  9 14  2  0  0  0  0
  9 10  1  0  0  0  0
 10 11  2  0  0  0  0
 10 33  1  0  0  0  0
 11 12  1  0  0  0  0
 11 34  1  0  0  0  0
 12 13  2  0  0  0  0
 12 35  1  0  0  0  0
 13 14  1  0  0  0  0
 13 36  1  0  0  0  0
 14 15  1  0  0  0  0
 15 16  1  0  0  0  0
 16 17  1  0  0  0  0
 16 37  1  0  0  0  0
 16 38  1  0  0  0  0
 17 18  1  0  0  0  0
 17 39  1  0  0  0  0
 17 40  1  0  0  0  0
 18 19  1  0  0  0  0
 19 24  1  0  0  0  0
 19 20  2  0  0  0  0
 20 21  1  0  0  0  0
 20 41  1  0  0  0  0
 21 22  2  0  0  0  0
 21 42  1  0  0  0  0
 22 23  1  0  0  0  0
 22 43  1  0  0  0  0
 23 24  2  0  0  0  0
 23 44  1  0  0  0  0
 24 45  1  0  0  0  0
M  END
> <s_m_source_file>
AV-unprocessed.smi

> <i_m_source_file_index>
2959

> <i_lp_mmshare_version>
43012

> <i_f3d_flags>
0

> <s_epik_input>
W0NIM11DKD1PKVtOSF1bQ0gyXVtDSDJdYyhuMSluKGMoYzEyKVtjSF1bY0hdW2NIXVtjSF0yKVtDSDJdW0NIMl1PYzNbY0hdW2NIXVtjSF1bY0hdW2NIXTM=

> <s_epik_cmdline>
J2VwaWtfcHl0aG9uJywgJy1waCcsICc3LjAnLCAnLXRuJywgJzgnLCAnLW1hJywgJzIwMCcsICctbWV0YWxfYmluZGluZycsICctaW1hZScsICc8aW5maWxlLm1hZT4nLCAnLW9tYWUnLCAnPG91dGZpbGUubWFlPic=

> <r_lp_tautomer_probability>
1

> <r_epik_Ionization_Penalty>
0.11099

> <r_epik_Ionization_Penalty_Charging>
0

> <r_epik_Ionization_Penalty_Neutral>
0.11099

> <r_epik_State_Penalty>
0.100724

> <r_epik_Charging_Adjusted_Penalty>
0.100724

> <i_epik_Tot_Q>
0

> <i_epik_Tot_abs_Q>
0

> <r_epik_Metal_State_Penalty>
0.0847

> <b_epik_Metal_Only>
0

> <s_lp_Force_Field>
OPLS_2005

> <r_lp_Energy>
14.3457

> <b_lp_Chiralities_Consistent>
1

> <s_lp_Variant>
AV-unprocessed.smi:2959-1

> <Gold.Version>
5.8.1

> <Gold.Id.Protein>
6NUR|6NUR_protein|mol2

> <Gold.PLP.Fitness>
50.9989

> <Gold.PLP.PLP>
-50.0684

> <Gold.PLP.part.hbond>
-2.0000

> <Gold.PLP.part.metal>
0.0000

> <Gold.PLP.part.buried>
-3.6935

> <Gold.PLP.part.nonpolar>
-44.0584

> <Gold.PLP.part.repulsive>
0.0512

> <Gold.PLP.ligand.clash>
0.0000

> <Gold.PLP.ligand.torsion>
1.0754

> <Gold.PLP.Chemscore.Hbond>
1.0000

> <Gold.PLP.Chemscore.CHOScore>
0.0000

> <Gold.PLP.Chemscore.Metal>
0.0000

> <Gold.Chemscore.Hbonds>
donor molecule, donor type, donor heavy atom, donor atom, acceptor molecule, acceptor atom, score
      P1  H  6896  6907       L1     3  0.65

> <Gold.PLP.Chemscore.Internal.Correction>
0.0812

> <Gold.Rescore>
     Score         DG    S(hbond)    S(metal)    S(lipo)     H(rot)  DE(clash)    DE(int)     intcor
     19.41     -20.84       0.99        0.00     149.85       2.14       0.25       1.18       ----

> <Gold.Chemscore.Fitness>
19.4113

> <Gold.Chemscore.DG>
-20.8393

> <Gold.Chemscore.ZeroCoef>
-5.4800

> <Gold.Chemscore.Hbond>
0.9863

> <Gold.Chemscore.Metal>
0.0000

> <Gold.Chemscore.Lipo>
149.8467

> <Gold.Chemscore.Internal_Hbond>
0.0000

> <Gold.Chemscore.DEClash>
0.2489

> <Gold.Chemscore.DEInternal>
1.1791

> <Gold.Chemscore.Rot>
2.1356

> <Gold.Chemscore.Internal.Correction>
   9.000000E+99

> <Gold.Chemscore.Hbonds>
donor molecule, donor type, donor heavy atom, donor atom, acceptor molecule, acceptor atom, score
      P1  H  6896  6907       L1     3  0.65

> <Gold.Chemscore.Hbond.Weighted>
-3.2944

> <Gold.Chemscore.Metal.Weighted>
-0.0000

> <Gold.Chemscore.Lipo.Weighted>
-17.5321

> <Gold.Chemscore.Internal_Hbond.Weighted>
0.0000

> <Gold.Chemscore.DEClash.Weighted>
0.2489

> <Gold.Chemscore.DEInternal.Weighted>
1.1791

> <Gold.Chemscore.Rot.Weighted>
5.4671

> <Gold.Chemscore.Internal.Correction.Weighted>
   9.000000E+99

> <Gold.Protein.RotatedTorsions>
[ 6907 6896 6895 6894 ] final   60.18 input  -60.11 | X-H torsion
[ 7974 7965 7964 7962 ] final   82.75 input  175.53 | X-H torsion
[ 8008 7997 7996 7995 ] final -112.64 input   59.86 | X-H torsion
[ 10167 10162 10161 10158 ] final -132.47 input  -65.29 | X-H torsion
[ 10718 10713 10712 10709 ] final  -71.60 input   66.30 | X-H torsion
[ 10763 10752 10751 10750 ] final   62.68 input  -60.55 | X-H torsion
[ 11005 11000 10999 10996 ] final   48.97 input  -57.11 | X-H torsion

> <Gold.Protein.ActiveResidues>
 VAL166  LYS551  ARG553  GLY616  TRP617  ASP618  TYR619  PRO620  LYS621  CYS622 
 ASP623  PHE694  ASN695  SER759  ASP760  ASP761  ALA762  ILE779  LEU786  VAL792 
 PHE793  MET794  SER795  GLU796  ALA797  LYS798  CYS799  TRP800  GLU811  SER814 

> <Gold.Protein.RotatedAtoms>
  152.3981  134.6332  160.0080 H   0  0  0  0  0  0  0  0  0  0  0  0  # atno 6907 bound_to 6896
  151.6546  133.3314  159.3168 H   0  0  0  0  0  0  0  0  0  0  0  0  # atno 6908 bound_to 6896
  150.7885  134.6933  159.6553 H   0  0  0  0  0  0  0  0  0  0  0  0  # atno 6909 bound_to 6896
  145.6209  139.2386  143.2139 H   0  0  0  0  0  0  0  0  0  0  0  0  # atno 7974 bound_to 7965
  155.0084  140.0394  157.2389 H   0  0  0  0  0  0  0  0  0  0  0  0  # atno 8008 bound_to 7997
  154.7482  140.2762  155.6292 H   0  0  0  0  0  0  0  0  0  0  0  0  # atno 8009 bound_to 7997
  156.2879  140.2652  156.2228 H   0  0  0  0  0  0  0  0  0  0  0  0  # atno 8010 bound_to 7997
  139.9082  143.6526  152.2581 H   0  0  0  0  0  0  0  0  0  0  0  0  # atno 10167 bound_to 10162
  156.0356  130.4355  150.2469 H   0  0  0  0  0  0  0  0  0  0  0  0  # atno 10718 bound_to 10713
  152.9991  135.5456  154.6232 H   0  0  0  0  0  0  0  0  0  0  0  0  # atno 10763 bound_to 10752
  154.5526  135.2828  155.0996 H   0  0  0  0  0  0  0  0  0  0  0  0  # atno 10764 bound_to 10752
  154.2230  135.6447  153.5203 H   0  0  0  0  0  0  0  0  0  0  0  0  # atno 10765 bound_to 10752
  140.1144  134.4912  155.8650 H   0  0  0  0  0  0  0  0  0  0  0  0  # atno 11005 bound_to 11000
  146.1432  140.7029  142.9357 LP  0  0  0  0  0  0  0  0  0  0  0  0  # atno 17320 bound_to 7965
  144.7231  140.4439  143.6993 LP  0  0  0  0  0  0  0  0  0  0  0  0  # atno 17321 bound_to 7965
  139.6966  144.7640  151.1346 LP  0  0  0  0  0  0  0  0  0  0  0  0  # atno 17342 bound_to 10162
  140.7691  143.5516  150.9198 LP  0  0  0  0  0  0  0  0  0  0  0  0  # atno 17343 bound_to 10162
  157.0568  131.0078  151.3236 LP  0  0  0  0  0  0  0  0  0  0  0  0  # atno 17370 bound_to 10713
  157.5100  130.7932  149.7695 LP  0  0  0  0  0  0  0  0  0  0  0  0  # atno 17371 bound_to 10713
  141.2138  133.6738  156.6768 LP  0  0  0  0  0  0  0  0  0  0  0  0  # atno 17394 bound_to 11000
  140.3048  134.8134  157.4127 LP  0  0  0  0  0  0  0  0  0  0  0  0  # atno 17395 bound_to 11000

$$$$
