AV-unprocessed.smi:2569|AV-procd|sdf|10105|dock6
  -GOLD-   2272014123D 1   1.00000     0.00000
 Structure written by MMmdl.
 40 42  0  0  0  0  0  0  0  0  2 V2000
  152.0842  144.0818  161.0252 C   0  0  0  0  0  0  0  0  0  0  0  0
  151.9967  143.1181  159.8538 C   0  0  0  0  0  0  0  0  0  0  0  0
  151.0664  143.3889  158.8252 C   0  0  0  0  0  0  0  0  0  0  0  0
  151.0130  142.4910  157.7656 C   0  0  0  0  0  0  0  0  0  0  0  0
  150.2209  142.4799  156.6156 N   0  3  0  0  0  0  0  0  0  0  0  0
  150.5283  141.3879  155.8623 C   0  0  0  0  0  0  0  0  0  0  0  0
  151.5071  140.7025  156.5131 N   0  0  0  0  0  0  0  0  0  0  0  0
  152.1853  139.4540  156.1367 C   0  0  0  0  0  0  0  0  0  0  0  0
  151.5961  138.8056  154.8650 C   0  0  1  0  0  0  0  0  0  0  0  0
  152.5173  137.8884  154.3106 O   0  0  0  0  0  0  0  0  0  0  0  0
  150.2706  138.0583  155.1105 C   0  0  0  0  0  0  0  0  0  0  0  0
  150.3978  136.9993  156.0977 N   0  0  0  0  0  0  0  0  0  0  0  0
  151.2601  135.9691  155.9123 N   0  0  0  0  0  0  0  0  0  0  0  0
  151.1555  135.2007  156.9581 N   0  0  0  0  0  0  0  0  0  0  0  0
  150.2263  135.6953  157.8544 N   0  0  0  0  0  0  0  0  0  0  0  0
  149.7867  136.8037  157.2735 C   0  0  0  0  0  0  0  0  0  0  0  0
  148.7574  137.7269  157.8370 C   0  0  0  0  0  0  0  0  0  0  0  0
  151.8411  141.3531  157.7069 C   0  0  0  0  0  0  0  0  0  0  0  0
  152.7625  141.0714  158.7129 C   0  0  0  0  0  0  0  0  0  0  0  0
  152.8342  141.9740  159.7977 C   0  0  0  0  0  0  0  0  0  0  0  0
  153.8326  141.6936  160.9078 C   0  0  0  0  0  0  0  0  0  0  0  0
  151.3870  144.9123  160.9116 H   0  0  0  0  0  0  0  0  0  0  0  0
  153.0880  144.4995  161.1034 H   0  0  0  0  0  0  0  0  0  0  0  0
  151.8462  143.5720  161.9592 H   0  0  0  0  0  0  0  0  0  0  0  0
  150.4262  144.2585  158.8609 H   0  0  0  0  0  0  0  0  0  0  0  0
  150.0759  141.1139  154.9200 H   0  0  0  0  0  0  0  0  0  0  0  0
  153.2532  139.6441  156.0256 H   0  0  0  0  0  0  0  0  0  0  0  0
  152.0845  138.7771  156.9857 H   0  0  0  0  0  0  0  0  0  0  0  0
  151.4302  139.5837  154.1194 H   0  0  0  0  0  0  0  0  0  0  0  0
  153.3459  138.3279  154.1961 H   0  0  0  0  0  0  0  0  0  0  0  0
  149.5011  138.7525  155.4504 H   0  0  0  0  0  0  0  0  0  0  0  0
  149.9033  137.6250  154.1786 H   0  0  0  0  0  0  0  0  0  0  0  0
  148.2951  137.2864  158.7209 H   0  0  0  0  0  0  0  0  0  0  0  0
  147.9774  137.9201  157.1003 H   0  0  0  0  0  0  0  0  0  0  0  0
  149.2181  138.6729  158.1210 H   0  0  0  0  0  0  0  0  0  0  0  0
  153.4045  140.2040  158.6692 H   0  0  0  0  0  0  0  0  0  0  0  0
  154.3877  140.7737  160.7220 H   0  0  0  0  0  0  0  0  0  0  0  0
  153.3218  141.5864  161.8650 H   0  0  0  0  0  0  0  0  0  0  0  0
  154.5542  142.5068  160.9880 H   0  0  0  0  0  0  0  0  0  0  0  0
  149.5203  143.1647  156.3614 H   0  0  0  0  0  0  0  0  0  0  0  0
  1  2  1  0  0  0  0
  1 22  1  0  0  0  0
  1 23  1  0  0  0  0
  1 24  1  0  0  0  0
  2 20  1  0  0  0  0
  2  3  2  0  0  0  0
  3  4  1  0  0  0  0
  3 25  1  0  0  0  0
  4 18  2  0  0  0  0
  4  5  1  0  0  0  0
  5  6  2  0  0  0  0
  5 40  1  0  0  0  0
  6  7  1  0  0  0  0
  6 26  1  0  0  0  0
  7  8  1  0  0  0  0
  7 18  1  0  0  0  0
  8  9  1  0  0  0  0
  8 27  1  0  0  0  0
  8 28  1  0  0  0  0
  9 10  1  0  0  0  0
  9 11  1  0  0  0  0
  9 29  1  0  0  0  0
 10 30  1  0  0  0  0
 11 12  1  0  0  0  0
 11 31  1  0  0  0  0
 11 32  1  0  0  0  0
 12 16  1  0  0  0  0
 12 13  1  0  0  0  0
 13 14  2  0  0  0  0
 14 15  1  0  0  0  0
 15 16  2  0  0  0  0
 16 17  1  0  0  0  0
 17 33  1  0  0  0  0
 17 34  1  0  0  0  0
 17 35  1  0  0  0  0
 18 19  1  0  0  0  0
 19 20  2  0  0  0  0
 19 36  1  0  0  0  0
 20 21  1  0  0  0  0
 21 37  1  0  0  0  0
 21 38  1  0  0  0  0
 21 39  1  0  0  0  0
M  CHG  1   5   1
M  END
> <s_m_source_file>
AV-unprocessed.smi

> <i_m_source_file_index>
2569

> <i_lp_mmshare_version>
43012

> <i_f3d_flags>
0

> <s_epik_input>
W0NIM11jKFtjSF0xKWMoW0NIM10pW2NIXWMoYzEyKW4oW2NIXW4yKVtDSDJdW0NASF0oW09IXSlbQ0gyXW4zbm5uYzNbQ0gzXQ==

> <s_epik_cmdline>
J2VwaWtfcHl0aG9uJywgJy1waCcsICc3LjAnLCAnLXRuJywgJzgnLCAnLW1hJywgJzIwMCcsICctbWV0YWxfYmluZGluZycsICctaW1hZScsICc8aW5maWxlLm1hZT4nLCAnLW9tYWUnLCAnPG91dGZpbGUubWFlPic=

> <r_lp_tautomer_probability>
1

> <r_epik_Ionization_Penalty>
1.13338

> <r_epik_Ionization_Penalty_Charging>
1.13335

> <r_epik_Ionization_Penalty_Neutral>
3.02334e-05

> <r_epik_State_Penalty>
1.19324

> <r_epik_Charging_Adjusted_Penalty>
2.3266

> <i_epik_Tot_Q>
1

> <i_epik_Tot_abs_Q>
1

> <r_epik_Metal_State_Penalty>
1.27602

> <b_epik_Metal_Only>
0

> <s_lp_Force_Field>
OPLS_2005

> <r_lp_Energy>
16.0623

> <b_lp_Chiralities_Consistent>
1

> <s_lp_Variant>
AV-unprocessed.smi:2569-4

> <Gold.Version>
5.8.1

> <Gold.Id.Protein>
6NUR|6NUR_protein|mol2

> <Gold.PLP.Fitness>
52.7113

> <Gold.PLP.PLP>
-42.0163

> <Gold.PLP.part.hbond>
-4.8726

> <Gold.PLP.part.metal>
0.0000

> <Gold.PLP.part.buried>
-5.9793

> <Gold.PLP.part.nonpolar>
-31.5961

> <Gold.PLP.part.repulsive>
0.0862

> <Gold.PLP.ligand.clash>
0.0000

> <Gold.PLP.ligand.torsion>
0.1913

> <Gold.PLP.Chemscore.Hbond>
3.6880

> <Gold.PLP.Chemscore.CHOScore>
0.0000

> <Gold.PLP.Chemscore.Metal>
0.0000

> <Gold.Chemscore.Hbonds>
donor molecule, donor type, donor heavy atom, donor atom, acceptor molecule, acceptor atom, score
      L1  H     5    40       P1  8028  2.00
      P1  H  6896  6908       L1    15  0.65
      P1  H 10752 10764       L1    13  0.71

> <Gold.PLP.Chemscore.Internal.Correction>
0.0135

> <Gold.Rescore>
     Score         DG    S(hbond)    S(metal)    S(lipo)     H(rot)  DE(clash)    DE(int)     intcor
     16.80     -18.60       2.42        0.00      99.69       2.59       0.07       1.73       ----

> <Gold.Chemscore.Fitness>
16.7985

> <Gold.Chemscore.DG>
-18.6048

> <Gold.Chemscore.ZeroCoef>
-5.4800

> <Gold.Chemscore.Hbond>
2.4191

> <Gold.Chemscore.Metal>
0.0000

> <Gold.Chemscore.Lipo>
99.6885

> <Gold.Chemscore.Internal_Hbond>
0.0000

> <Gold.Chemscore.DEClash>
0.0742

> <Gold.Chemscore.DEInternal>
1.7321

> <Gold.Chemscore.Rot>
2.5854

> <Gold.Chemscore.Internal.Correction>
   9.000000E+99

> <Gold.Chemscore.Hbonds>
donor molecule, donor type, donor heavy atom, donor atom, acceptor molecule, acceptor atom, score
      L1  H     5    40       P1  8028  0.99
      P1  H  6896  6908       L1    15  0.14
      P1  H 10752 10764       L1    13  0.31

> <Gold.Chemscore.Hbond.Weighted>
-8.0799

> <Gold.Chemscore.Metal.Weighted>
-0.0000

> <Gold.Chemscore.Lipo.Weighted>
-11.6636

> <Gold.Chemscore.Internal_Hbond.Weighted>
0.0000

> <Gold.Chemscore.DEClash.Weighted>
0.0742

> <Gold.Chemscore.DEInternal.Weighted>
1.7321

> <Gold.Chemscore.Rot.Weighted>
6.6187

> <Gold.Chemscore.Internal.Correction.Weighted>
   9.000000E+99

> <Gold.Protein.RotatedTorsions>
[ 6907 6896 6895 6894 ] final  166.45 input  -60.11 | X-H torsion
[ 7974 7965 7964 7962 ] final  117.21 input  175.53 | X-H torsion
[ 8008 7997 7996 7995 ] final  143.76 input   59.86 | X-H torsion
[ 10167 10162 10161 10158 ] final  108.20 input  -65.29 | X-H torsion
[ 10718 10713 10712 10709 ] final -111.93 input   66.30 | X-H torsion
[ 10763 10752 10751 10750 ] final  -26.00 input  -60.55 | X-H torsion
[ 11005 11000 10999 10996 ] final   17.72 input  -57.11 | X-H torsion

> <Gold.Protein.ActiveResidues>
 VAL166  LYS551  ARG553  GLY616  TRP617  ASP618  TYR619  PRO620  LYS621  CYS622 
 ASP623  PHE694  ASN695  SER759  ASP760  ASP761  ALA762  ILE779  LEU786  VAL792 
 PHE793  MET794  SER795  GLU796  ALA797  LYS798  CYS799  TRP800  GLU811  SER814 

> <Gold.Protein.RotatedAtoms>
  151.8787  133.3491  159.3758 H   0  0  0  0  0  0  0  0  0  0  0  0  # atno 6907 bound_to 6896
  150.7133  134.5040  159.5584 H   0  0  0  0  0  0  0  0  0  0  0  0  # atno 6908 bound_to 6896
  152.2587  134.8057  160.0485 H   0  0  0  0  0  0  0  0  0  0  0  0  # atno 6909 bound_to 6896
  145.1702  139.3106  143.4472 H   0  0  0  0  0  0  0  0  0  0  0  0  # atno 7974 bound_to 7965
  156.2923  140.2254  156.4943 H   0  0  0  0  0  0  0  0  0  0  0  0  # atno 8008 bound_to 7997
  154.7744  140.0464  157.1099 H   0  0  0  0  0  0  0  0  0  0  0  0  # atno 8009 bound_to 7997
  154.9834  140.3081  155.4940 H   0  0  0  0  0  0  0  0  0  0  0  0  # atno 8010 bound_to 7997
  139.6865  144.7113  151.1423 H   0  0  0  0  0  0  0  0  0  0  0  0  # atno 10167 bound_to 10162
  156.0675  130.5893  150.8440 H   0  0  0  0  0  0  0  0  0  0  0  0  # atno 10718 bound_to 10713
  153.7090  135.6952  153.5042 H   0  0  0  0  0  0  0  0  0  0  0  0  # atno 10763 bound_to 10752
  153.2287  135.4345  155.0570 H   0  0  0  0  0  0  0  0  0  0  0  0  # atno 10764 bound_to 10752
  154.8321  135.3478  154.6627 H   0  0  0  0  0  0  0  0  0  0  0  0  # atno 10765 bound_to 10752
  140.4328  134.1402  155.7682 H   0  0  0  0  0  0  0  0  0  0  0  0  # atno 11005 bound_to 11000
  146.3470  140.1844  142.8589 LP  0  0  0  0  0  0  0  0  0  0  0  0  # atno 17320 bound_to 7965
  145.0241  140.8818  143.5149 LP  0  0  0  0  0  0  0  0  0  0  0  0  # atno 17321 bound_to 7965
  140.7669  143.5622  150.9087 LP  0  0  0  0  0  0  0  0  0  0  0  0  # atno 17342 bound_to 10162
  139.9297  143.6508  152.3079 LP  0  0  0  0  0  0  0  0  0  0  0  0  # atno 17343 bound_to 10162
  157.5727  131.0946  150.9394 LP  0  0  0  0  0  0  0  0  0  0  0  0  # atno 17370 bound_to 10713
  156.9606  130.5454  149.5286 LP  0  0  0  0  0  0  0  0  0  0  0  0  # atno 17371 bound_to 10713
  141.1738  133.8555  157.1486 LP  0  0  0  0  0  0  0  0  0  0  0  0  # atno 17394 bound_to 11000
  140.0123  134.9983  157.0420 LP  0  0  0  0  0  0  0  0  0  0  0  0  # atno 17395 bound_to 11000

$$$$
