AV-unprocessed.smi:3001|AV-procd|sdf|11431|dock5
  -GOLD-   2272016353D 1   1.00000     0.00000
 Structure written by MMmdl.
 41 42  0  0  0  0  0  0  0  0  1 V2000
  146.1995  131.2492  152.0472 C   0  0  0  0  0  0  0  0  0  0  0  0
  145.6324  131.8430  151.1434 C   0  0  0  0  0  0  0  0  0  0  0  0
  144.9375  132.5571  150.0618 C   0  0  0  0  0  0  0  0  0  0  0  0
  145.0934  133.9978  150.1834 N   0  0  0  0  0  0  0  0  0  0  0  0
  145.0063  134.6845  151.3345 C   0  0  0  0  0  0  0  0  0  0  0  0
  144.7914  134.1406  152.4171 O   0  0  0  0  0  0  0  0  0  0  0  0
  145.1852  136.2112  151.2863 C   0  0  0  0  0  0  0  0  0  0  0  0
  146.3406  136.7101  152.0325 N   0  0  0  0  0  0  0  0  0  0  0  0
  146.4409  137.9321  152.5752 C   0  0  0  0  0  0  0  0  0  0  0  0
  145.5319  138.7623  152.5632 O   0  0  0  0  0  0  0  0  0  0  0  0
  147.6635  138.1352  153.0910 N   0  0  0  0  0  0  0  0  0  0  0  0
  148.1870  139.3585  153.5898 C   0  0  0  0  0  0  0  0  0  0  0  0
  147.4626  140.5674  153.4584 C   0  0  0  0  0  0  0  0  0  0  0  0
  147.9793  141.7444  154.0272 C   0  0  0  0  0  0  0  0  0  0  0  0
  149.1975  141.6663  154.7229 C   0  0  0  0  0  0  0  0  0  0  0  0
  149.8929  140.5199  154.8656 N   0  0  0  0  0  0  0  0  0  0  0  0
  149.4159  139.3790  154.3089 C   0  0  0  0  0  0  0  0  0  0  0  0
  150.1996  138.2125  154.4664 N   0  0  0  0  0  0  0  0  0  0  0  0
  149.6367  137.0224  155.0959 C   0  0  0  0  0  0  0  0  0  0  0  0
  150.8404  136.1511  155.4431 C   0  0  0  0  0  0  0  0  0  0  0  0
  151.8947  137.1878  155.8178 C   0  0  0  0  0  0  0  0  0  0  0  0
  151.5883  138.3687  154.8909 C   0  0  0  0  0  0  0  0  0  0  0  0
  146.6901  130.7312  152.8407 H   0  0  0  0  0  0  0  0  0  0  0  0
  145.3433  132.2139  149.1093 H   0  0  0  0  0  0  0  0  0  0  0  0
  143.8814  132.2866  150.0950 H   0  0  0  0  0  0  0  0  0  0  0  0
  145.2670  134.5141  149.3335 H   0  0  0  0  0  0  0  0  0  0  0  0
  145.2401  136.5324  150.2448 H   0  0  0  0  0  0  0  0  0  0  0  0
  144.2905  136.6733  151.7038 H   0  0  0  0  0  0  0  0  0  0  0  0
  147.1378  136.0943  152.0969 H   0  0  0  0  0  0  0  0  0  0  0  0
  148.3382  137.3976  152.9493 H   0  0  0  0  0  0  0  0  0  0  0  0
  146.5116  140.6002  152.9478 H   0  0  0  0  0  0  0  0  0  0  0  0
  147.4481  142.6809  153.9427 H   0  0  0  0  0  0  0  0  0  0  0  0
  149.6236  142.5465  155.1812 H   0  0  0  0  0  0  0  0  0  0  0  0
  149.1033  137.2837  156.0106 H   0  0  0  0  0  0  0  0  0  0  0  0
  148.9438  136.5096  154.4285 H   0  0  0  0  0  0  0  0  0  0  0  0
  150.6347  135.4408  156.2441 H   0  0  0  0  0  0  0  0  0  0  0  0
  151.1637  135.5911  154.5645 H   0  0  0  0  0  0  0  0  0  0  0  0
  151.7563  137.4915  156.8566 H   0  0  0  0  0  0  0  0  0  0  0  0
  152.9147  136.8183  155.7093 H   0  0  0  0  0  0  0  0  0  0  0  0
  152.2317  138.3255  154.0119 H   0  0  0  0  0  0  0  0  0  0  0  0
  151.7624  139.3226  155.3910 H   0  0  0  0  0  0  0  0  0  0  0  0
  1  2  3  0  0  0  0
  1 23  1  0  0  0  0
  2  3  1  0  0  0  0
  3  4  1  0  0  0  0
  3 24  1  0  0  0  0
  3 25  1  0  0  0  0
  4  5  1  0  0  0  0
  4 26  1  0  0  0  0
  5  6  2  0  0  0  0
  5  7  1  0  0  0  0
  7  8  1  0  0  0  0
  7 27  1  0  0  0  0
  7 28  1  0  0  0  0
  8  9  1  0  0  0  0
  8 29  1  0  0  0  0
  9 10  2  0  0  0  0
  9 11  1  0  0  0  0
 11 12  1  0  0  0  0
 11 30  1  0  0  0  0
 12 17  1  0  0  0  0
 12 13  2  0  0  0  0
 13 14  1  0  0  0  0
 13 31  1  0  0  0  0
 14 15  2  0  0  0  0
 14 32  1  0  0  0  0
 15 16  1  0  0  0  0
 15 33  1  0  0  0  0
 16 17  2  0  0  0  0
 17 18  1  0  0  0  0
 18 22  1  0  0  0  0
 18 19  1  0  0  0  0
 19 20  1  0  0  0  0
 19 34  1  0  0  0  0
 19 35  1  0  0  0  0
 20 21  1  0  0  0  0
 20 36  1  0  0  0  0
 20 37  1  0  0  0  0
 21 22  1  0  0  0  0
 21 38  1  0  0  0  0
 21 39  1  0  0  0  0
 22 40  1  0  0  0  0
 22 41  1  0  0  0  0
M  END
> <s_m_source_file>
AV-unprocessed.smi

> <i_m_source_file_index>
3001

> <i_lp_mmshare_version>
43012

> <i_f3d_flags>
0

> <s_epik_input>
W0NIXSNDW0NIMl1bTkhdQyg9TylbQ0gyXVtOSF1DKD1PKVtOSF1jMVtjSF1bY0hdW2NIXW5jMU4yW0NIMl1bQ0gyXVtDSDJdW0NIMl0y

> <s_epik_cmdline>
J2VwaWtfcHl0aG9uJywgJy1waCcsICc3LjAnLCAnLXRuJywgJzgnLCAnLW1hJywgJzIwMCcsICctbWV0YWxfYmluZGluZycsICctaW1hZScsICc8aW5maWxlLm1hZT4nLCAnLW9tYWUnLCAnPG91dGZpbGUubWFlPic=

> <r_lp_tautomer_probability>
1

> <r_epik_Ionization_Penalty>
0.243831

> <r_epik_Ionization_Penalty_Charging>
0

> <r_epik_Ionization_Penalty_Neutral>
0.243831

> <r_epik_State_Penalty>
0.234327

> <r_epik_Charging_Adjusted_Penalty>
0.234327

> <i_epik_Tot_Q>
0

> <i_epik_Tot_abs_Q>
0

> <r_epik_Metal_State_Penalty>
0.165313

> <b_epik_Metal_Only>
0

> <s_lp_Force_Field>
OPLS_2005

> <r_lp_Energy>
26.7815

> <b_lp_Chiralities_Consistent>
1

> <s_lp_Variant>
AV-unprocessed.smi:3001-1

> <Gold.Version>
5.8.1

> <Gold.Id.Protein>
6NUR|6NUR_protein|mol2

> <Gold.PLP.Fitness>
43.8427

> <Gold.PLP.PLP>
-31.5863

> <Gold.PLP.part.hbond>
-4.0128

> <Gold.PLP.part.metal>
0.0000

> <Gold.PLP.part.buried>
2.2078

> <Gold.PLP.part.nonpolar>
-33.2997

> <Gold.PLP.part.repulsive>
4.7337

> <Gold.PLP.ligand.clash>
0.0000

> <Gold.PLP.ligand.torsion>
0.5390

> <Gold.PLP.Chemscore.Hbond>
3.3264

> <Gold.PLP.Chemscore.CHOScore>
1.0000

> <Gold.PLP.Chemscore.Metal>
0.0000

> <Gold.Chemscore.Hbonds>
donor molecule, donor type, donor heavy atom, donor atom, acceptor molecule, acceptor atom, score
      L1  H     4    26       P1  7921  1.00
      L1  H     8    29       P1  7948  0.74
      L1  H    11    30       P1  7948  0.91
      P1  H  7989  7998       L1    16  0.43
      L1  C    15    33       P1  8028  1.00

> <Gold.PLP.Chemscore.Internal.Correction>
0.3552

> <Gold.Rescore>
     Score         DG    S(hbond)    S(metal)    S(lipo)     H(rot)  DE(clash)    DE(int)     intcor
     13.11     -19.31       2.68        0.00      81.53       1.82       1.81       4.39       ----

> <Gold.Chemscore.Fitness>
13.1106

> <Gold.Chemscore.DG>
-19.3086

> <Gold.Chemscore.ZeroCoef>
-5.4800

> <Gold.Chemscore.Hbond>
2.6821

> <Gold.Chemscore.Metal>
0.0000

> <Gold.Chemscore.Lipo>
81.5287

> <Gold.Chemscore.Internal_Hbond>
0.0000

> <Gold.Chemscore.DEClash>
1.8109

> <Gold.Chemscore.DEInternal>
4.3870

> <Gold.Chemscore.Rot>
1.8236

> <Gold.Chemscore.Internal.Correction>
   9.000000E+99

> <Gold.Chemscore.Hbonds>
donor molecule, donor type, donor heavy atom, donor atom, acceptor molecule, acceptor atom, score
      L1  H     4    26       P1  7921  0.96
      L1  H     8    29       P1  7948  0.74
      L1  H    11    30       P1  7948  0.90
      P1  H  7989  7998       L1    16  0.03

> <Gold.Chemscore.Hbond.Weighted>
-8.9582

> <Gold.Chemscore.Metal.Weighted>
-0.0000

> <Gold.Chemscore.Lipo.Weighted>
-9.5389

> <Gold.Chemscore.Internal_Hbond.Weighted>
0.0000

> <Gold.Chemscore.DEClash.Weighted>
1.8109

> <Gold.Chemscore.DEInternal.Weighted>
4.3870

> <Gold.Chemscore.Rot.Weighted>
4.6685

> <Gold.Chemscore.Internal.Correction.Weighted>
   9.000000E+99

> <Gold.Protein.RotatedTorsions>
[ 6907 6896 6895 6894 ] final  -79.80 input  -60.11 | X-H torsion
[ 7974 7965 7964 7962 ] final  162.70 input  175.53 | X-H torsion
[ 8008 7997 7996 7995 ] final    6.50 input   59.86 | X-H torsion
[ 10167 10162 10161 10158 ] final  -57.25 input  -65.29 | X-H torsion
[ 10718 10713 10712 10709 ] final  171.09 input   66.30 | X-H torsion
[ 10763 10752 10751 10750 ] final   88.26 input  -60.55 | X-H torsion
[ 11005 11000 10999 10996 ] final  144.11 input  -57.11 | X-H torsion

> <Gold.Protein.ActiveResidues>
 VAL166  LYS551  ARG553  GLY616  TRP617  ASP618  TYR619  PRO620  LYS621  CYS622 
 ASP623  PHE694  ASN695  SER759  ASP760  ASP761  ALA762  ILE779  LEU786  VAL792 
 PHE793  MET794  SER795  GLU796  ALA797  LYS798  CYS799  TRP800  GLU811  SER814 

> <Gold.Protein.RotatedAtoms>
  150.6942  134.4067  159.5142 H   0  0  0  0  0  0  0  0  0  0  0  0  # atno 6907 bound_to 6896
  152.1832  134.8734  160.0533 H   0  0  0  0  0  0  0  0  0  0  0  0  # atno 6908 bound_to 6896
  151.9717  133.3693  159.4110 H   0  0  0  0  0  0  0  0  0  0  0  0  # atno 6909 bound_to 6896
  144.7624  139.8077  143.6327 H   0  0  0  0  0  0  0  0  0  0  0  0  # atno 7974 bound_to 7965
  154.7418  140.2750  155.6367 H   0  0  0  0  0  0  0  0  0  0  0  0  # atno 8008 bound_to 7997
  156.2875  140.2695  156.2073 H   0  0  0  0  0  0  0  0  0  0  0  0  # atno 8009 bound_to 7997
  155.0249  140.0371  157.2441 H   0  0  0  0  0  0  0  0  0  0  0  0  # atno 8010 bound_to 7997
  140.6269  143.2442  151.5340 H   0  0  0  0  0  0  0  0  0  0  0  0  # atno 10167 bound_to 10162
  156.9986  131.0169  151.2837 H   0  0  0  0  0  0  0  0  0  0  0  0  # atno 10718 bound_to 10713
  153.1750  135.4513  154.9953 H   0  0  0  0  0  0  0  0  0  0  0  0  # atno 10763 bound_to 10752
  154.7992  135.3249  154.7595 H   0  0  0  0  0  0  0  0  0  0  0  0  # atno 10764 bound_to 10752
  153.8066  135.6958  153.4902 H   0  0  0  0  0  0  0  0  0  0  0  0  # atno 10765 bound_to 10752
  140.0607  134.9206  157.1178 H   0  0  0  0  0  0  0  0  0  0  0  0  # atno 11005 bound_to 11000
  146.1700  139.4847  142.9933 LP  0  0  0  0  0  0  0  0  0  0  0  0  # atno 17320 bound_to 7965
  145.6577  141.0248  143.1726 LP  0  0  0  0  0  0  0  0  0  0  0  0  # atno 17321 bound_to 7965
  139.5488  144.2449  152.1492 LP  0  0  0  0  0  0  0  0  0  0  0  0  # atno 17342 bound_to 10162
  140.1683  144.4960  150.6593 LP  0  0  0  0  0  0  0  0  0  0  0  0  # atno 17343 bound_to 10162
  157.5407  130.8118  149.8025 LP  0  0  0  0  0  0  0  0  0  0  0  0  # atno 17370 bound_to 10713
  156.0180  130.3806  150.2051 LP  0  0  0  0  0  0  0  0  0  0  0  0  # atno 17371 bound_to 10713
  140.3775  134.2323  155.7173 LP  0  0  0  0  0  0  0  0  0  0  0  0  # atno 17394 bound_to 11000
  141.1971  133.8066  157.0640 LP  0  0  0  0  0  0  0  0  0  0  0  0  # atno 17395 bound_to 11000

$$$$
