AV-unprocessed.smi:788|AV-procd|sdf|3736|dock3
  -GOLD-   22720 1173D 1   1.00000     0.00000
 Structure written by MMmdl.
 34 35  0  0  0  0  0  0  0  0  2 V2000
  153.3186  142.2973  160.9843 C   0  0  0  0  0  0  0  0  0  0  0  0
  152.3521  142.9535  159.9835 C   0  0  1  0  0  0  0  0  0  0  0  0
  153.0760  143.9827  159.0915 C   0  0  0  0  0  0  0  0  0  0  0  0
  152.1009  144.6798  158.1305 C   0  0  0  0  0  0  0  0  0  0  0  0
  151.3254  143.6625  157.2796 C   0  0  0  0  0  0  0  0  0  0  0  0
  150.5923  142.6297  158.1606 C   0  0  1  0  0  0  0  0  0  0  0  0
  149.7778  141.6411  157.3080 C   0  0  0  0  0  0  0  0  0  0  0  0
  151.5730  141.9216  159.1290 C   0  0  1  0  0  0  0  0  0  0  0  0
  152.4915  141.0576  158.3834 N   0  0  0  0  0  0  0  0  0  0  0  0
  152.6162  139.7184  158.4638 C   0  0  0  0  0  0  0  0  0  0  0  0
  151.9156  139.0956  159.2601 O   0  0  0  0  0  0  0  0  0  0  0  0
  153.5250  139.1240  157.6463 N   0  5  0  0  0  0  0  0  0  0  0  0
  153.8037  137.8087  157.7151 C   0  0  0  0  0  0  0  0  0  0  0  0
  153.3721  136.9316  156.7945 N   0  0  0  0  0  0  0  0  0  0  0  0
  153.7544  135.6249  157.0647 N   0  0  0  0  0  0  0  0  0  0  0  0
  154.4777  135.5511  158.1817 C   0  0  0  0  0  0  0  0  0  0  0  0
  154.7559  137.0705  159.0062 S   0  0  0  0  0  0  0  0  0  0  0  0
  154.1375  141.7854  160.4779 H   0  0  0  0  0  0  0  0  0  0  0  0
  152.8018  141.5652  161.6053 H   0  0  0  0  0  0  0  0  0  0  0  0
  153.7580  143.0415  161.6487 H   0  0  0  0  0  0  0  0  0  0  0  0
  151.6156  143.4992  160.5752 H   0  0  0  0  0  0  0  0  0  0  0  0
  153.5706  144.7307  159.7121 H   0  0  0  0  0  0  0  0  0  0  0  0
  153.8643  143.4916  158.5188 H   0  0  0  0  0  0  0  0  0  0  0  0
  151.3985  145.2878  158.7018 H   0  0  0  0  0  0  0  0  0  0  0  0
  152.6465  145.3660  157.4822 H   0  0  0  0  0  0  0  0  0  0  0  0
  150.6083  144.1890  156.6491 H   0  0  0  0  0  0  0  0  0  0  0  0
  152.0128  143.1547  156.6015 H   0  0  0  0  0  0  0  0  0  0  0  0
  149.8757  143.1776  158.7742 H   0  0  0  0  0  0  0  0  0  0  0  0
  150.4109  141.0920  156.6101 H   0  0  0  0  0  0  0  0  0  0  0  0
  149.0197  142.1622  156.7230 H   0  0  0  0  0  0  0  0  0  0  0  0
  149.2654  140.9119  157.9362 H   0  0  0  0  0  0  0  0  0  0  0  0
  150.9734  141.3153  159.8097 H   0  0  0  0  0  0  0  0  0  0  0  0
  153.0959  141.5261  157.7248 H   0  0  0  0  0  0  0  0  0  0  0  0
  154.8502  134.5966  158.5217 H   0  0  0  0  0  0  0  0  0  0  0  0
  1  2  1  0  0  0  0
  1 18  1  0  0  0  0
  1 19  1  0  0  0  0
  1 20  1  0  0  0  0
  2  8  1  0  0  0  0
  2  3  1  0  0  0  0
  2 21  1  0  0  0  0
  3  4  1  0  0  0  0
  3 22  1  0  0  0  0
  3 23  1  0  0  0  0
  4  5  1  0  0  0  0
  4 24  1  0  0  0  0
  4 25  1  0  0  0  0
  5  6  1  0  0  0  0
  5 26  1  0  0  0  0
  5 27  1  0  0  0  0
  6  7  1  0  0  0  0
  6  8  1  0  0  0  0
  6 28  1  0  0  0  0
  7 29  1  0  0  0  0
  7 30  1  0  0  0  0
  7 31  1  0  0  0  0
  8  9  1  0  0  0  0
  8 32  1  0  0  0  0
  9 10  1  0  0  0  0
  9 33  1  0  0  0  0
 10 11  2  0  0  0  0
 10 12  1  0  0  0  0
 12 13  1  0  0  0  0
 13 17  1  0  0  0  0
 13 14  2  0  0  0  0
 14 15  1  0  0  0  0
 15 16  2  0  0  0  0
 16 17  1  0  0  0  0
 16 34  1  0  0  0  0
M  CHG  1  12  -1
M  END
> <s_m_source_file>
AV-unprocessed.smi

> <i_m_source_file_index>
788

> <i_lp_mmshare_version>
43012

> <i_f3d_flags>
0

> <s_epik_input>
W0NIM11bQ0BASF0xW0NIMl1bQ0gyXVtDSDJdW0NAQEhdKFtDSDNdKVtDQEhdMVtOSF1DKD1PKVtOSF1jMm5uW2NIXXMy

> <s_epik_cmdline>
J2VwaWtfcHl0aG9uJywgJy1waCcsICc3LjAnLCAnLXRuJywgJzgnLCAnLW1hJywgJzIwMCcsICctbWV0YWxfYmluZGluZycsICctaW1hZScsICc8aW5maWxlLm1hZT4nLCAnLW9tYWUnLCAnPG91dGZpbGUubWFlPic=

> <r_lp_tautomer_probability>
1

> <r_epik_Ionization_Penalty>
4.58638

> <r_epik_Ionization_Penalty_Charging>
4.53816

> <r_epik_Ionization_Penalty_Neutral>
0.048215

> <r_epik_State_Penalty>
4.53788

> <r_epik_Charging_Adjusted_Penalty>
9.07605

> <i_epik_Tot_Q>
-1

> <i_epik_Tot_abs_Q>
1

> <r_epik_Metal_State_Penalty>
0.838628

> <b_epik_Metal_Only>
1

> <s_lp_Force_Field>
OPLS_2005

> <r_lp_Energy>
10.1282

> <b_lp_Chiralities_Consistent>
1

> <s_lp_Variant>
AV-unprocessed.smi:788-6

> <Gold.Version>
5.8.1

> <Gold.Id.Protein>
6NUR|6NUR_protein|mol2

> <Gold.PLP.Fitness>
37.7636

> <Gold.PLP.PLP>
-31.0029

> <Gold.PLP.part.hbond>
-2.9464

> <Gold.PLP.part.metal>
0.0000

> <Gold.PLP.part.buried>
-2.7946

> <Gold.PLP.part.nonpolar>
-24.9936

> <Gold.PLP.part.repulsive>
0.0921

> <Gold.PLP.ligand.clash>
0.0000

> <Gold.PLP.ligand.torsion>
0.7037

> <Gold.PLP.Chemscore.Hbond>
2.7191

> <Gold.PLP.Chemscore.CHOScore>
0.0000

> <Gold.PLP.Chemscore.Metal>
0.0000

> <Gold.Chemscore.Hbonds>
donor molecule, donor type, donor heavy atom, donor atom, acceptor molecule, acceptor atom, score
      P1  H  7997  8009       L1    12  1.92
      P1  H 10752 10764       L1    15  0.45

> <Gold.PLP.Chemscore.Internal.Correction>
0.0109

> <Gold.Rescore>
     Score         DG    S(hbond)    S(metal)    S(lipo)     H(rot)  DE(clash)    DE(int)     intcor
     17.01     -17.93       1.28        0.00      91.74       1.00       0.19       0.73       ----

> <Gold.Chemscore.Fitness>
17.0076

> <Gold.Chemscore.DG>
-17.9314

> <Gold.Chemscore.ZeroCoef>
-5.4800

> <Gold.Chemscore.Hbond>
1.2807

> <Gold.Chemscore.Metal>
0.0000

> <Gold.Chemscore.Lipo>
91.7428

> <Gold.Chemscore.Internal_Hbond>
0.0000

> <Gold.Chemscore.DEClash>
0.1928

> <Gold.Chemscore.DEInternal>
0.7310

> <Gold.Chemscore.Rot>
1.0000

> <Gold.Chemscore.Internal.Correction>
   9.000000E+99

> <Gold.Chemscore.Hbonds>
donor molecule, donor type, donor heavy atom, donor atom, acceptor molecule, acceptor atom, score
      P1  H  7997  8009       L1    12  0.85
      P1  H 10752 10764       L1    15  0.02

> <Gold.Chemscore.Hbond.Weighted>
-4.2775

> <Gold.Chemscore.Metal.Weighted>
-0.0000

> <Gold.Chemscore.Lipo.Weighted>
-10.7339

> <Gold.Chemscore.Internal_Hbond.Weighted>
0.0000

> <Gold.Chemscore.DEClash.Weighted>
0.1928

> <Gold.Chemscore.DEInternal.Weighted>
0.7310

> <Gold.Chemscore.Rot.Weighted>
2.5600

> <Gold.Chemscore.Internal.Correction.Weighted>
   9.000000E+99

> <Gold.Protein.RotatedTorsions>
[ 6907 6896 6895 6894 ] final  112.26 input  -60.11 | X-H torsion
[ 7974 7965 7964 7962 ] final   61.99 input  175.53 | X-H torsion
[ 8008 7997 7996 7995 ] final -179.72 input   59.86 | X-H torsion
[ 10167 10162 10161 10158 ] final   -9.96 input  -65.29 | X-H torsion
[ 10718 10713 10712 10709 ] final   20.22 input   66.30 | X-H torsion
[ 10763 10752 10751 10750 ] final   16.22 input  -60.55 | X-H torsion
[ 11005 11000 10999 10996 ] final -156.21 input  -57.11 | X-H torsion

> <Gold.Protein.ActiveResidues>
 VAL166  LYS551  ARG553  GLY616  TRP617  ASP618  TYR619  PRO620  LYS621  CYS622 
 ASP623  PHE694  ASN695  SER759  ASP760  ASP761  ALA762  ILE779  LEU786  VAL792 
 PHE793  MET794  SER795  GLU796  ALA797  LYS798  CYS799  TRP800  GLU811  SER814 

> <Gold.Protein.RotatedAtoms>
  152.4926  133.8540  159.7216 H   0  0  0  0  0  0  0  0  0  0  0  0  # atno 6907 bound_to 6896
  150.9070  133.7037  159.2871 H   0  0  0  0  0  0  0  0  0  0  0  0  # atno 6908 bound_to 6896
  151.4459  135.1029  159.9736 H   0  0  0  0  0  0  0  0  0  0  0  0  # atno 6909 bound_to 6896
  145.8785  139.3427  143.0720 H   0  0  0  0  0  0  0  0  0  0  0  0  # atno 7974 bound_to 7965
  156.0338  140.1288  157.0230 H   0  0  0  0  0  0  0  0  0  0  0  0  # atno 8008 bound_to 7997
  154.4361  140.1044  156.6207 H   0  0  0  0  0  0  0  0  0  0  0  0  # atno 8009 bound_to 7997
  155.5768  140.3467  155.4532 H   0  0  0  0  0  0  0  0  0  0  0  0  # atno 8010 bound_to 7997
  140.7101  143.5800  150.9002 H   0  0  0  0  0  0  0  0  0  0  0  0  # atno 10167 bound_to 10162
  157.1214  130.6551  149.5925 H   0  0  0  0  0  0  0  0  0  0  0  0  # atno 10718 bound_to 10713
  153.1451  135.6767  153.8967 H   0  0  0  0  0  0  0  0  0  0  0  0  # atno 10763 bound_to 10752
  153.8411  135.3105  155.3427 H   0  0  0  0  0  0  0  0  0  0  0  0  # atno 10764 bound_to 10752
  154.7819  135.4884  153.9947 H   0  0  0  0  0  0  0  0  0  0  0  0  # atno 10765 bound_to 10752
  140.6780  134.4175  157.5228 H   0  0  0  0  0  0  0  0  0  0  0  0  # atno 11005 bound_to 11000
  145.9052  140.9217  143.0482 LP  0  0  0  0  0  0  0  0  0  0  0  0  # atno 17320 bound_to 7965
  144.6727  140.1086  143.7456 LP  0  0  0  0  0  0  0  0  0  0  0  0  # atno 17321 bound_to 7965
  139.9526  143.6255  152.3025 LP  0  0  0  0  0  0  0  0  0  0  0  0  # atno 17342 bound_to 10162
  139.6779  144.7657  151.1663 LP  0  0  0  0  0  0  0  0  0  0  0  0  # atno 17343 bound_to 10162
  155.9828  130.4843  150.6898 LP  0  0  0  0  0  0  0  0  0  0  0  0  # atno 17370 bound_to 10713
  157.4473  131.0868  151.0882 LP  0  0  0  0  0  0  0  0  0  0  0  0  # atno 17371 bound_to 10713
  139.8960  134.8669  156.2105 LP  0  0  0  0  0  0  0  0  0  0  0  0  # atno 17394 bound_to 11000
  141.0340  133.6973  156.1479 LP  0  0  0  0  0  0  0  0  0  0  0  0  # atno 17395 bound_to 11000

$$$$
