AV-unprocessed.smi:1301|AV-procd|sdf|5422|dock1
  -GOLD-   22720 4583D 1   1.00000     0.00000
 Structure written by MMmdl.
 45 46  0  0  0  0  0  0  0  0  2 V2000
  153.8754  138.4608  157.4991 C   0  0  0  0  0  0  0  0  0  0  0  0
  153.0885  138.2714  156.2475 C   0  0  0  0  0  0  0  0  0  0  0  0
  151.7604  138.4072  155.9550 C   0  0  0  0  0  0  0  0  0  0  0  0
  151.6999  138.0686  154.5771 C   0  0  0  0  0  0  0  0  0  0  0  0
  150.4670  138.0856  153.8759 N   0  0  0  0  0  0  0  0  0  0  0  0
  149.4996  139.0162  153.9465 C   0  0  0  0  0  0  0  0  0  0  0  0
  149.5346  140.0240  154.6527 O   0  0  0  0  0  0  0  0  0  0  0  0
  148.4704  138.7145  153.1407 N   0  0  0  0  0  0  0  0  0  0  0  0
  147.2741  139.5368  152.9594 C   0  0  2  0  0  0  0  0  0  0  0  0
  146.2445  139.3136  154.0851 C   0  0  0  0  0  0  0  0  0  0  0  0
  145.5664  137.9363  153.9837 C   0  0  0  0  0  0  0  0  0  0  0  0
  144.9349  137.7486  152.6527 N   0  3  2  0  0  0  0  0  0  0  0  0
  144.1321  136.5003  152.5788 C   0  0  0  0  0  0  0  0  0  0  0  0
  142.9561  136.4768  153.5798 C   0  0  0  0  0  0  0  0  0  0  0  0
  142.1684  135.1575  153.5103 C   0  0  0  0  0  0  0  0  0  0  0  0
  142.0203  137.6713  153.3410 C   0  0  0  0  0  0  0  0  0  0  0  0
  145.9311  137.8775  151.5564 C   0  0  0  0  0  0  0  0  0  0  0  0
  146.6240  139.2521  151.5944 C   0  0  0  0  0  0  0  0  0  0  0  0
  152.8838  137.7557  154.0734 N   0  0  0  0  0  0  0  0  0  0  0  0
  153.7796  137.8827  155.1415 O   0  0  0  0  0  0  0  0  0  0  0  0
  153.4282  139.2326  158.1254 H   0  0  0  0  0  0  0  0  0  0  0  0
  154.8996  138.7602  157.2753 H   0  0  0  0  0  0  0  0  0  0  0  0
  153.9115  137.5359  158.0745 H   0  0  0  0  0  0  0  0  0  0  0  0
  150.9639  138.7002  156.6226 H   0  0  0  0  0  0  0  0  0  0  0  0
  150.3104  137.3111  153.2483 H   0  0  0  0  0  0  0  0  0  0  0  0
  148.5300  137.8679  152.5941 H   0  0  0  0  0  0  0  0  0  0  0  0
  147.5849  140.5831  152.9712 H   0  0  0  0  0  0  0  0  0  0  0  0
  146.7102  139.4308  155.0642 H   0  0  0  0  0  0  0  0  0  0  0  0
  145.4795  140.0888  154.0243 H   0  0  0  0  0  0  0  0  0  0  0  0
  146.2899  137.1394  154.1636 H   0  0  0  0  0  0  0  0  0  0  0  0
  144.8097  137.8585  154.7656 H   0  0  0  0  0  0  0  0  0  0  0  0
  143.7727  136.3643  151.5575 H   0  0  0  0  0  0  0  0  0  0  0  0
  144.7723  135.6423  152.7899 H   0  0  0  0  0  0  0  0  0  0  0  0
  143.3440  136.5816  154.5925 H   0  0  0  0  0  0  0  0  0  0  0  0
  141.7601  134.9908  152.5130 H   0  0  0  0  0  0  0  0  0  0  0  0
  141.3345  135.1618  154.2129 H   0  0  0  0  0  0  0  0  0  0  0  0
  142.7965  134.3025  153.7610 H   0  0  0  0  0  0  0  0  0  0  0  0
  141.5770  137.6365  152.3451 H   0  0  0  0  0  0  0  0  0  0  0  0
  142.5560  138.6165  153.4341 H   0  0  0  0  0  0  0  0  0  0  0  0
  141.2060  137.6843  154.0662 H   0  0  0  0  0  0  0  0  0  0  0  0
  146.6698  137.0789  151.6378 H   0  0  0  0  0  0  0  0  0  0  0  0
  145.4483  137.7576  150.5875 H   0  0  0  0  0  0  0  0  0  0  0  0
  145.8845  140.0260  151.3836 H   0  0  0  0  0  0  0  0  0  0  0  0
  147.3674  139.3210  150.7992 H   0  0  0  0  0  0  0  0  0  0  0  0
  144.2795  138.5100  152.5466 H   0  0  0  0  0  0  0  0  0  0  0  0
  1  2  1  0  0  0  0
  1 21  1  0  0  0  0
  1 22  1  0  0  0  0
  1 23  1  0  0  0  0
  2 20  1  0  0  0  0
  2  3  2  0  0  0  0
  3  4  1  0  0  0  0
  3 24  1  0  0  0  0
  4  5  1  0  0  0  0
  4 19  2  0  0  0  0
  5  6  1  0  0  0  0
  5 25  1  0  0  0  0
  6  7  2  0  0  0  0
  6  8  1  0  0  0  0
  8  9  1  0  0  0  0
  8 26  1  0  0  0  0
  9 18  1  0  0  0  0
  9 10  1  0  0  0  0
  9 27  1  0  0  0  0
 10 11  1  0  0  0  0
 10 28  1  0  0  0  0
 10 29  1  0  0  0  0
 11 12  1  0  0  0  0
 11 30  1  0  0  0  0
 11 31  1  0  0  0  0
 12 13  1  0  0  0  0
 12 17  1  0  0  0  0
 12 45  1  0  0  0  0
 13 14  1  0  0  0  0
 13 32  1  0  0  0  0
 13 33  1  0  0  0  0
 14 15  1  0  0  0  0
 14 16  1  0  0  0  0
 14 34  1  0  0  0  0
 15 35  1  0  0  0  0
 15 36  1  0  0  0  0
 15 37  1  0  0  0  0
 16 38  1  0  0  0  0
 16 39  1  0  0  0  0
 16 40  1  0  0  0  0
 17 18  1  0  0  0  0
 17 41  1  0  0  0  0
 17 42  1  0  0  0  0
 18 43  1  0  0  0  0
 18 44  1  0  0  0  0
 19 20  1  0  0  0  0
M  CHG  1  12   1
M  END
> <s_m_source_file>
AV-unprocessed.smi

> <i_m_source_file_index>
1301

> <i_lp_mmshare_version>
43012

> <i_f3d_flags>
0

> <s_epik_input>
W0NIM11jMVtjSF1jKG5vMSlbTkhdQyg9TylbTkhdW0NIXTJbQ0gyXVtDSDJdTihbQ0gyXVtDSDJdMilbQ0gyXVtDSF0oW0NIM10pW0NIM10=

> <s_epik_cmdline>
J2VwaWtfcHl0aG9uJywgJy1waCcsICc3LjAnLCAnLXRuJywgJzgnLCAnLW1hJywgJzIwMCcsICctbWV0YWxfYmluZGluZycsICctaW1hZScsICc8aW5maWxlLm1hZT4nLCAnLW9tYWUnLCAnPG91dGZpbGUubWFlPic=

> <r_epik_Ionization_Penalty>
0.0020743

> <r_epik_Ionization_Penalty_Charging>
0.0020412

> <r_epik_Ionization_Penalty_Neutral>
3.31029e-05

> <r_epik_State_Penalty>
0.00139626

> <r_epik_Charging_Adjusted_Penalty>
0.00343746

> <i_epik_Tot_Q>
1

> <i_epik_Tot_abs_Q>
1

> <r_epik_Metal_State_Penalty>
0.0141509

> <b_epik_Metal_Only>
0

> <s_lp_Force_Field>
OPLS_2005

> <r_lp_Energy>
16.729

> <b_lp_Chiralities_Consistent>
1

> <s_lp_Variant>
AV-unprocessed.smi:1301-2

> <Gold.Version>
5.8.1

> <Gold.Id.Protein>
6NUR|6NUR_protein|mol2

> <Gold.PLP.Fitness>
42.9250

> <Gold.PLP.PLP>
-32.1907

> <Gold.PLP.part.hbond>
-7.0489

> <Gold.PLP.part.metal>
0.0000

> <Gold.PLP.part.buried>
1.6112

> <Gold.PLP.part.nonpolar>
-27.4788

> <Gold.PLP.part.repulsive>
0.3135

> <Gold.PLP.ligand.clash>
0.0000

> <Gold.PLP.ligand.torsion>
0.7000

> <Gold.PLP.Chemscore.Hbond>
3.9970

> <Gold.PLP.Chemscore.CHOScore>
0.0000

> <Gold.PLP.Chemscore.Metal>
0.0000

> <Gold.Chemscore.Hbonds>
donor molecule, donor type, donor heavy atom, donor atom, acceptor molecule, acceptor atom, score
      L1  H     5    25       P1  7948  0.43
      L1  H     8    26       P1  7948  1.00
      L1  H    12    45       P1 10175  2.00
      P1  H 10752 10764       L1    19  0.33

> <Gold.PLP.Chemscore.Internal.Correction>
0.1433

> <Gold.Rescore>
     Score         DG    S(hbond)    S(metal)    S(lipo)     H(rot)  DE(clash)    DE(int)     intcor
     14.22     -16.23       2.12        0.00      62.52       1.43       1.23       0.77       ----

> <Gold.Chemscore.Fitness>
14.2219

> <Gold.Chemscore.DG>
-16.2291

> <Gold.Chemscore.ZeroCoef>
-5.4800

> <Gold.Chemscore.Hbond>
2.1243

> <Gold.Chemscore.Metal>
0.0000

> <Gold.Chemscore.Lipo>
62.5171

> <Gold.Chemscore.Internal_Hbond>
0.0000

> <Gold.Chemscore.DEClash>
1.2345

> <Gold.Chemscore.DEInternal>
0.7727

> <Gold.Chemscore.Rot>
1.4298

> <Gold.Chemscore.Internal.Correction>
   9.000000E+99

> <Gold.Chemscore.Hbonds>
donor molecule, donor type, donor heavy atom, donor atom, acceptor molecule, acceptor atom, score
      L1  H     5    25       P1  7948  0.04
      L1  H     8    26       P1  7948  1.00
      L1  H    12    45       P1 10175  0.92
      P1  H 10752 10764       L1    19  0.03

> <Gold.Chemscore.Hbond.Weighted>
-7.0950

> <Gold.Chemscore.Metal.Weighted>
-0.0000

> <Gold.Chemscore.Lipo.Weighted>
-7.3145

> <Gold.Chemscore.Internal_Hbond.Weighted>
0.0000

> <Gold.Chemscore.DEClash.Weighted>
1.2345

> <Gold.Chemscore.DEInternal.Weighted>
0.7727

> <Gold.Chemscore.Rot.Weighted>
3.6604

> <Gold.Chemscore.Internal.Correction.Weighted>
   9.000000E+99

> <Gold.Protein.RotatedTorsions>
[ 6907 6896 6895 6894 ] final  -34.25 input  -60.11 | X-H torsion
[ 7974 7965 7964 7962 ] final -132.10 input  175.53 | X-H torsion
[ 8008 7997 7996 7995 ] final   85.77 input   59.86 | X-H torsion
[ 10167 10162 10161 10158 ] final -165.29 input  -65.29 | X-H torsion
[ 10718 10713 10712 10709 ] final  -44.26 input   66.30 | X-H torsion
[ 10763 10752 10751 10750 ] final -100.83 input  -60.55 | X-H torsion
[ 11005 11000 10999 10996 ] final   94.36 input  -57.11 | X-H torsion

> <Gold.Protein.ActiveResidues>
 VAL166  LYS551  ARG553  GLY616  TRP617  ASP618  TYR619  PRO620  LYS621  CYS622 
 ASP623  PHE694  ASN695  SER759  ASP760  ASP761  ALA762  ILE779  LEU786  VAL792 
 PHE793  MET794  SER795  GLU796  ALA797  LYS798  CYS799  TRP800  GLU811  SER814 

> <Gold.Protein.RotatedAtoms>
  151.0551  134.9699  159.8231 H   0  0  0  0  0  0  0  0  0  0  0  0  # atno 6907 bound_to 6896
  152.5387  134.2488  159.8900 H   0  0  0  0  0  0  0  0  0  0  0  0  # atno 6908 bound_to 6896
  151.2505  133.4309  159.2645 H   0  0  0  0  0  0  0  0  0  0  0  0  # atno 6909 bound_to 6896
  144.9317  140.7136  143.4902 H   0  0  0  0  0  0  0  0  0  0  0  0  # atno 7974 bound_to 7965
  155.9543  140.3398  155.6435 H   0  0  0  0  0  0  0  0  0  0  0  0  # atno 8008 bound_to 7997
  155.6880  140.0745  157.2477 H   0  0  0  0  0  0  0  0  0  0  0  0  # atno 8009 bound_to 7997
  154.4128  140.1662  156.2043 H   0  0  0  0  0  0  0  0  0  0  0  0  # atno 8010 bound_to 7997
  139.6192  144.0659  152.1916 H   0  0  0  0  0  0  0  0  0  0  0  0  # atno 10167 bound_to 10162
  156.2404  130.4179  149.8767 H   0  0  0  0  0  0  0  0  0  0  0  0  # atno 10718 bound_to 10713
  154.7610  135.4920  153.9464 H   0  0  0  0  0  0  0  0  0  0  0  0  # atno 10763 bound_to 10752
  153.1251  135.6740  153.9278 H   0  0  0  0  0  0  0  0  0  0  0  0  # atno 10764 bound_to 10752
  153.8998  135.3111  155.3427 H   0  0  0  0  0  0  0  0  0  0  0  0  # atno 10765 bound_to 10752
  139.8799  134.8841  156.3853 H   0  0  0  0  0  0  0  0  0  0  0  0  # atno 11005 bound_to 11000
  145.3132  139.1812  143.4627 LP  0  0  0  0  0  0  0  0  0  0  0  0  # atno 17320 bound_to 7965
  146.3249  140.3139  142.8628 LP  0  0  0  0  0  0  0  0  0  0  0  0  # atno 17321 bound_to 7965
  140.0296  144.6091  150.7498 LP  0  0  0  0  0  0  0  0  0  0  0  0  # atno 17342 bound_to 10162
  140.7371  143.2761  151.3738 LP  0  0  0  0  0  0  0  0  0  0  0  0  # atno 17343 bound_to 10162
  156.6350  130.8681  151.3503 LP  0  0  0  0  0  0  0  0  0  0  0  0  # atno 17370 bound_to 10713
  157.7173  130.9513  150.1303 LP  0  0  0  0  0  0  0  0  0  0  0  0  # atno 17371 bound_to 10713
  140.9370  133.7540  156.0098 LP  0  0  0  0  0  0  0  0  0  0  0  0  # atno 17394 bound_to 11000
  140.8264  134.3230  157.5364 LP  0  0  0  0  0  0  0  0  0  0  0  0  # atno 17395 bound_to 11000

$$$$
