AV-unprocessed.smi:2565|AV-procd|sdf|10068|dock1
  -GOLD-   2272014103D 1   1.00000     0.00000
 Structure written by MMmdl.
 25 26  0  0  0  0  0  0  0  0  2 V2000
  153.8685  141.6666  161.6096 C   0  0  0  0  0  0  0  0  0  0  0  0
  153.7234  141.0208  160.3202 N   0  0  0  0  0  0  0  0  0  0  0  0
  154.3576  139.9348  159.8533 C   0  0  0  0  0  0  0  0  0  0  0  0
  154.0072  139.5635  158.6228 N   0  0  0  0  0  0  0  0  0  0  0  0
  153.0545  140.4858  158.2398 N   0  0  0  0  0  0  0  0  0  0  0  0
  152.9291  141.3284  159.2739 C   0  0  0  0  0  0  0  0  0  0  0  0
  151.9714  142.4835  159.2990 C   0  0  2  0  0  0  0  0  0  0  0  0
  151.2341  142.6591  157.9573 C   0  0  0  0  0  0  0  0  0  0  0  0
  150.3828  143.8641  158.0015 N   0  3  0  0  0  0  0  0  0  0  0  0
  151.1616  145.0623  158.3720 C   0  0  0  0  0  0  0  0  0  0  0  0
  151.9129  144.8187  159.6927 C   0  0  0  0  0  0  0  0  0  0  0  0
  152.7306  143.6588  159.5748 O   0  0  0  0  0  0  0  0  0  0  0  0
  154.5149  141.0718  162.2560 H   0  0  0  0  0  0  0  0  0  0  0  0
  152.8924  141.7684  162.0847 H   0  0  0  0  0  0  0  0  0  0  0  0
  154.3114  142.6540  161.4789 H   0  0  0  0  0  0  0  0  0  0  0  0
  155.0942  139.3955  160.4311 H   0  0  0  0  0  0  0  0  0  0  0  0
  151.2532  142.3341  160.1070 H   0  0  0  0  0  0  0  0  0  0  0  0
  151.9493  142.7592  157.1394 H   0  0  0  0  0  0  0  0  0  0  0  0
  150.6157  141.7879  157.7393 H   0  0  0  0  0  0  0  0  0  0  0  0
  149.9559  144.0075  157.0971 H   0  0  0  0  0  0  0  0  0  0  0  0
  151.8682  145.2919  157.5731 H   0  0  0  0  0  0  0  0  0  0  0  0
  150.4905  145.9165  158.4637 H   0  0  0  0  0  0  0  0  0  0  0  0
  152.5453  145.6747  159.9287 H   0  0  0  0  0  0  0  0  0  0  0  0
  151.2142  144.7011  160.5226 H   0  0  0  0  0  0  0  0  0  0  0  0
  149.6569  143.7242  158.6898 H   0  0  0  0  0  0  0  0  0  0  0  0
  1  2  1  0  0  0  0
  1 13  1  0  0  0  0
  1 14  1  0  0  0  0
  1 15  1  0  0  0  0
  2  6  1  0  0  0  0
  2  3  1  0  0  0  0
  3  4  2  0  0  0  0
  3 16  1  0  0  0  0
  4  5  1  0  0  0  0
  5  6  2  0  0  0  0
  6  7  1  0  0  0  0
  7 12  1  0  0  0  0
  7  8  1  0  0  0  0
  7 17  1  0  0  0  0
  8  9  1  0  0  0  0
  8 18  1  0  0  0  0
  8 19  1  0  0  0  0
  9 10  1  0  0  0  0
  9 20  1  0  0  0  0
  9 25  1  0  0  0  0
 10 11  1  0  0  0  0
 10 21  1  0  0  0  0
 10 22  1  0  0  0  0
 11 12  1  0  0  0  0
 11 23  1  0  0  0  0
 11 24  1  0  0  0  0
M  CHG  1   9   1
M  END
> <s_m_source_file>
AV-unprocessed.smi

> <i_m_source_file_index>
2565

> <i_lp_mmshare_version>
43012

> <i_f3d_flags>
0

> <s_epik_input>
W0NIM11uMVtjSF1ubmMxW0NAQEhdMltDSDJdW05IXVtDSDJdW0NIMl1PMg==

> <s_epik_cmdline>
J2VwaWtfcHl0aG9uJywgJy1waCcsICc3LjAnLCAnLXRuJywgJzgnLCAnLW1hJywgJzIwMCcsICctbWV0YWxfYmluZGluZycsICctaW1hZScsICc8aW5maWxlLm1hZT4nLCAnLW9tYWUnLCAnPG91dGZpbGUubWFlPic=

> <r_lp_tautomer_probability>
1

> <r_epik_Ionization_Penalty>
0.12571

> <r_epik_Ionization_Penalty_Charging>
0.125708

> <r_epik_Ionization_Penalty_Neutral>
1.64918e-06

> <r_epik_State_Penalty>
0.115169

> <r_epik_Charging_Adjusted_Penalty>
0.240877

> <i_epik_Tot_Q>
1

> <i_epik_Tot_abs_Q>
1

> <r_epik_Metal_State_Penalty>
0.115216

> <b_epik_Metal_Only>
0

> <s_lp_Force_Field>
OPLS_2005

> <r_lp_Energy>
13.9295

> <b_lp_Chiralities_Consistent>
1

> <s_lp_Variant>
AV-unprocessed.smi:2565-1

> <Gold.Version>
5.8.1

> <Gold.Id.Protein>
6NUR|6NUR_protein|mol2

> <Gold.PLP.Fitness>
35.2009

> <Gold.PLP.PLP>
-27.2046

> <Gold.PLP.part.hbond>
-3.1133

> <Gold.PLP.part.metal>
0.0000

> <Gold.PLP.part.buried>
-2.4904

> <Gold.PLP.part.nonpolar>
-20.7831

> <Gold.PLP.part.repulsive>
0.0331

> <Gold.PLP.ligand.clash>
0.0000

> <Gold.PLP.ligand.torsion>
0.0298

> <Gold.PLP.Chemscore.Hbond>
2.6840

> <Gold.PLP.Chemscore.CHOScore>
0.0000

> <Gold.PLP.Chemscore.Metal>
0.0000

> <Gold.Chemscore.Hbonds>
donor molecule, donor type, donor heavy atom, donor atom, acceptor molecule, acceptor atom, score
      L1  H     9    20       P1  8028  2.00
      P1  H  7997  8008       L1     4  0.64

> <Gold.PLP.Chemscore.Internal.Correction>
0.0039

> <Gold.Rescore>
     Score         DG    S(hbond)    S(metal)    S(lipo)     H(rot)  DE(clash)    DE(int)     intcor
     12.44     -12.58       0.98        0.00      54.49       1.00       0.14       0.01       ----

> <Gold.Chemscore.Fitness>
12.4373

> <Gold.Chemscore.DG>
-12.5841

> <Gold.Chemscore.ZeroCoef>
-5.4800

> <Gold.Chemscore.Hbond>
0.9847

> <Gold.Chemscore.Metal>
0.0000

> <Gold.Chemscore.Lipo>
54.4893

> <Gold.Chemscore.Internal_Hbond>
0.0000

> <Gold.Chemscore.DEClash>
0.1407

> <Gold.Chemscore.DEInternal>
0.0060

> <Gold.Chemscore.Rot>
1.0000

> <Gold.Chemscore.Internal.Correction>
   9.000000E+99

> <Gold.Chemscore.Hbonds>
donor molecule, donor type, donor heavy atom, donor atom, acceptor molecule, acceptor atom, score
      L1  H     9    20       P1  8028  0.88
      P1  H  7997  8008       L1     4  0.06

> <Gold.Chemscore.Hbond.Weighted>
-3.2888

> <Gold.Chemscore.Metal.Weighted>
-0.0000

> <Gold.Chemscore.Lipo.Weighted>
-6.3752

> <Gold.Chemscore.Internal_Hbond.Weighted>
0.0000

> <Gold.Chemscore.DEClash.Weighted>
0.1407

> <Gold.Chemscore.DEInternal.Weighted>
0.0060

> <Gold.Chemscore.Rot.Weighted>
2.5600

> <Gold.Chemscore.Internal.Correction.Weighted>
   9.000000E+99

> <Gold.Protein.RotatedTorsions>
[ 6907 6896 6895 6894 ] final  161.32 input  -60.11 | X-H torsion
[ 7974 7965 7964 7962 ] final  -13.04 input  175.53 | X-H torsion
[ 8008 7997 7996 7995 ] final -124.98 input   59.86 | X-H torsion
[ 10167 10162 10161 10158 ] final  146.12 input  -65.29 | X-H torsion
[ 10718 10713 10712 10709 ] final   -1.13 input   66.30 | X-H torsion
[ 10763 10752 10751 10750 ] final   10.55 input  -60.55 | X-H torsion
[ 11005 11000 10999 10996 ] final  -40.01 input  -57.11 | X-H torsion

> <Gold.Protein.ActiveResidues>
 VAL166  LYS551  ARG553  GLY616  TRP617  ASP618  TYR619  PRO620  LYS621  CYS622 
 ASP623  PHE694  ASN695  SER759  ASP760  ASP761  ALA762  ILE779  LEU786  VAL792 
 PHE793  MET794  SER795  GLU796  ALA797  LYS798  CYS799  TRP800  GLU811  SER814 

> <Gold.Protein.RotatedAtoms>
  151.9573  133.3684  159.4021 H   0  0  0  0  0  0  0  0  0  0  0  0  # atno 6907 bound_to 6896
  150.6970  134.4277  159.5243 H   0  0  0  0  0  0  0  0  0  0  0  0  # atno 6908 bound_to 6896
  152.1960  134.8630  160.0563 H   0  0  0  0  0  0  0  0  0  0  0  0  # atno 6909 bound_to 6896
  146.2129  140.3145  142.8385 H   0  0  0  0  0  0  0  0  0  0  0  0  # atno 7974 bound_to 7965
  155.2057  140.0417  157.2925 H   0  0  0  0  0  0  0  0  0  0  0  0  # atno 8008 bound_to 7997
  154.6045  140.2460  155.7721 H   0  0  0  0  0  0  0  0  0  0  0  0  # atno 8009 bound_to 7997
  156.2341  140.2928  156.0276 H   0  0  0  0  0  0  0  0  0  0  0  0  # atno 8010 bound_to 7997
  139.4913  144.5853  151.6791 H   0  0  0  0  0  0  0  0  0  0  0  0  # atno 10167 bound_to 10162
  156.8102  130.5422  149.5710 H   0  0  0  0  0  0  0  0  0  0  0  0  # atno 10718 bound_to 10713
  153.2020  135.6857  153.8219 H   0  0  0  0  0  0  0  0  0  0  0  0  # atno 10763 bound_to 10752
  153.7482  135.3228  155.3317 H   0  0  0  0  0  0  0  0  0  0  0  0  # atno 10764 bound_to 10752
  154.8177  135.4674  154.0791 H   0  0  0  0  0  0  0  0  0  0  0  0  # atno 10765 bound_to 10752
  141.0143  133.6892  156.2263 H   0  0  0  0  0  0  0  0  0  0  0  0  # atno 11005 bound_to 11000
  144.8964  140.7588  143.5894 LP  0  0  0  0  0  0  0  0  0  0  0  0  # atno 17320 bound_to 7965
  145.3069  139.1831  143.4659 LP  0  0  0  0  0  0  0  0  0  0  0  0  # atno 17321 bound_to 7965
  140.5467  144.0491  150.6110 LP  0  0  0  0  0  0  0  0  0  0  0  0  # atno 17342 bound_to 10162
  140.3532  143.2951  152.0465 LP  0  0  0  0  0  0  0  0  0  0  0  0  # atno 17343 bound_to 10162
  156.1049  130.5997  150.9954 LP  0  0  0  0  0  0  0  0  0  0  0  0  # atno 17370 bound_to 10713
  157.6510  131.0897  150.8051 LP  0  0  0  0  0  0  0  0  0  0  0  0  # atno 17371 bound_to 10713
  140.6680  134.4897  157.5586 LP  0  0  0  0  0  0  0  0  0  0  0  0  # atno 17394 bound_to 11000
  139.9108  134.8349  156.1536 LP  0  0  0  0  0  0  0  0  0  0  0  0  # atno 17395 bound_to 11000

$$$$
