AV-unprocessed.smi:939|AV-procd|sdf|4218|dock5
  -GOLD-   22720 2123D 1   1.00000     0.00000
 Structure written by MMmdl.
 36 37  0  0  0  0  0  0  0  0  1 V2000
  152.1284  145.1426  158.9070 C   0  0  0  0  0  0  0  0  0  0  0  0
  152.6295  144.2129  160.0176 C   0  0  0  0  0  0  0  0  0  0  0  0
  152.3923  142.7666  159.6979 C   0  0  0  0  0  0  0  0  0  0  0  0
  151.5203  142.4303  158.6590 N   0  0  0  0  0  0  0  0  0  0  0  0
  151.4035  141.1115  158.4870 C   0  0  0  0  0  0  0  0  0  0  0  0
  150.5886  140.4884  157.3982 C   0  0  0  0  0  0  0  0  0  0  0  0
  150.8827  141.0673  156.0004 C   0  0  0  0  0  0  0  0  0  0  0  0
  149.8155  141.9455  155.5334 N   0  0  0  0  0  0  0  0  0  0  0  0
  148.7014  141.5417  154.9012 C   0  0  0  0  0  0  0  0  0  0  0  0
  148.5130  140.3829  154.5358 O   0  0  0  0  0  0  0  0  0  0  0  0
  147.7734  142.5000  154.7320 N   0  0  0  0  0  0  0  0  0  0  0  0
  146.4940  142.3780  154.1003 C   0  0  0  0  0  0  0  0  0  0  0  0
  145.7459  143.6478  153.7595 C   0  0  0  0  0  0  0  0  0  0  0  0
  145.2814  142.7897  154.9055 C   0  0  0  0  0  0  0  0  0  0  0  0
  152.3804  140.1814  159.6133 S   0  0  0  0  0  0  0  0  0  0  0  0
  152.9396  141.6728  160.3273 C   0  0  0  0  0  0  0  0  0  0  0  0
  153.8950  141.6599  161.4739 C   0  0  0  0  0  0  0  0  0  0  0  0
  152.3076  146.1867  159.1639 H   0  0  0  0  0  0  0  0  0  0  0  0
  151.0573  145.0181  158.7447 H   0  0  0  0  0  0  0  0  0  0  0  0
  152.6366  144.9397  157.9639 H   0  0  0  0  0  0  0  0  0  0  0  0
  153.6939  144.3885  160.1782 H   0  0  0  0  0  0  0  0  0  0  0  0
  152.1424  144.4788  160.9558 H   0  0  0  0  0  0  0  0  0  0  0  0
  150.7681  139.4131  157.3988 H   0  0  0  0  0  0  0  0  0  0  0  0
  149.5328  140.6223  157.6377 H   0  0  0  0  0  0  0  0  0  0  0  0
  151.7966  141.6604  156.0404 H   0  0  0  0  0  0  0  0  0  0  0  0
  151.0663  140.2657  155.2834 H   0  0  0  0  0  0  0  0  0  0  0  0
  149.8829  142.9189  155.7926 H   0  0  0  0  0  0  0  0  0  0  0  0
  147.9930  143.4112  155.1081 H   0  0  0  0  0  0  0  0  0  0  0  0
  146.3357  141.5260  153.4409 H   0  0  0  0  0  0  0  0  0  0  0  0
  146.2212  144.5968  154.0005 H   0  0  0  0  0  0  0  0  0  0  0  0
  145.1470  143.6456  152.8510 H   0  0  0  0  0  0  0  0  0  0  0  0
  144.3674  142.2162  154.7650 H   0  0  0  0  0  0  0  0  0  0  0  0
  145.4429  143.1688  155.9132 H   0  0  0  0  0  0  0  0  0  0  0  0
  153.4817  142.1985  162.3268 H   0  0  0  0  0  0  0  0  0  0  0  0
  154.8365  142.1350  161.1978 H   0  0  0  0  0  0  0  0  0  0  0  0
  154.1146  140.6415  161.7952 H   0  0  0  0  0  0  0  0  0  0  0  0
  1  2  1  0  0  0  0
  1 18  1  0  0  0  0
  1 19  1  0  0  0  0
  1 20  1  0  0  0  0
  2  3  1  0  0  0  0
  2 21  1  0  0  0  0
  2 22  1  0  0  0  0
  3 16  2  0  0  0  0
  3  4  1  0  0  0  0
  4  5  2  0  0  0  0
  5  6  1  0  0  0  0
  5 15  1  0  0  0  0
  6  7  1  0  0  0  0
  6 23  1  0  0  0  0
  6 24  1  0  0  0  0
  7  8  1  0  0  0  0
  7 25  1  0  0  0  0
  7 26  1  0  0  0  0
  8  9  1  0  0  0  0
  8 27  1  0  0  0  0
  9 10  2  0  0  0  0
  9 11  1  0  0  0  0
 11 12  1  0  0  0  0
 11 28  1  0  0  0  0
 12 14  1  0  0  0  0
 12 13  1  0  0  0  0
 12 29  1  0  0  0  0
 13 14  1  0  0  0  0
 13 30  1  0  0  0  0
 13 31  1  0  0  0  0
 14 32  1  0  0  0  0
 14 33  1  0  0  0  0
 15 16  1  0  0  0  0
 16 17  1  0  0  0  0
 17 34  1  0  0  0  0
 17 35  1  0  0  0  0
 17 36  1  0  0  0  0
M  END
> <s_m_source_file>
AV-unprocessed.smi

> <i_m_source_file_index>
939

> <i_lp_mmshare_version>
43012

> <i_f3d_flags>
0

> <s_epik_input>
W0NIM11bQ0gyXWMxbmMoc2MxW0NIM10pW0NIMl1bQ0gyXVtOSF1DKD1PKVtOSF1bQ0hdMltDSDJdW0NIMl0y

> <s_epik_cmdline>
J2VwaWtfcHl0aG9uJywgJy1waCcsICc3LjAnLCAnLXRuJywgJzgnLCAnLW1hJywgJzIwMCcsICctbWV0YWxfYmluZGluZycsICctaW1hZScsICc8aW5maWxlLm1hZT4nLCAnLW9tYWUnLCAnPG91dGZpbGUubWFlPic=

> <r_epik_Ionization_Penalty>
0.00437198

> <r_epik_Ionization_Penalty_Charging>
0

> <r_epik_Ionization_Penalty_Neutral>
0.00437198

> <r_epik_State_Penalty>
0.00310304

> <r_epik_Charging_Adjusted_Penalty>
0.00310304

> <i_epik_Tot_Q>
0

> <i_epik_Tot_abs_Q>
0

> <r_epik_Metal_State_Penalty>
-0

> <b_epik_Metal_Only>
0

> <s_lp_Force_Field>
OPLS_2005

> <r_lp_Energy>
13.9428

> <b_lp_Chiralities_Consistent>
1

> <s_lp_Variant>
AV-unprocessed.smi:939-1

> <Gold.Version>
5.8.1

> <Gold.Id.Protein>
6NUR|6NUR_protein|mol2

> <Gold.PLP.Fitness>
47.8825

> <Gold.PLP.PLP>
-43.7789

> <Gold.PLP.part.hbond>
-2.0000

> <Gold.PLP.part.metal>
0.0000

> <Gold.PLP.part.buried>
-5.8397

> <Gold.PLP.part.nonpolar>
-35.8315

> <Gold.PLP.part.repulsive>
0.4764

> <Gold.PLP.ligand.clash>
0.0000

> <Gold.PLP.ligand.torsion>
0.8228

> <Gold.PLP.Chemscore.Hbond>
1.8960

> <Gold.PLP.Chemscore.CHOScore>
0.0000

> <Gold.PLP.Chemscore.Metal>
0.0000

> <Gold.Chemscore.Hbonds>
donor molecule, donor type, donor heavy atom, donor atom, acceptor molecule, acceptor atom, score
      L1  H     8    27       P1  8028  0.79
      L1  H    11    28       P1  8028  1.00

> <Gold.PLP.Chemscore.Internal.Correction>
0.0612

> <Gold.Rescore>
     Score         DG    S(hbond)    S(metal)    S(lipo)     H(rot)  DE(clash)    DE(int)     intcor
     17.28     -18.14       1.57        0.00     100.42       1.69       0.08       0.79       ----

> <Gold.Chemscore.Fitness>
17.2789

> <Gold.Chemscore.DG>
-18.1406

> <Gold.Chemscore.ZeroCoef>
-5.4800

> <Gold.Chemscore.Hbond>
1.5708

> <Gold.Chemscore.Metal>
0.0000

> <Gold.Chemscore.Lipo>
100.4209

> <Gold.Chemscore.Internal_Hbond>
0.0000

> <Gold.Chemscore.DEClash>
0.0760

> <Gold.Chemscore.DEInternal>
0.7857

> <Gold.Chemscore.Rot>
1.6934

> <Gold.Chemscore.Internal.Correction>
   9.000000E+99

> <Gold.Chemscore.Hbonds>
donor molecule, donor type, donor heavy atom, donor atom, acceptor molecule, acceptor atom, score
      L1  H     8    27       P1  8028  0.75
      L1  H    11    28       P1  8028  0.70

> <Gold.Chemscore.Hbond.Weighted>
-5.2465

> <Gold.Chemscore.Metal.Weighted>
-0.0000

> <Gold.Chemscore.Lipo.Weighted>
-11.7492

> <Gold.Chemscore.Internal_Hbond.Weighted>
0.0000

> <Gold.Chemscore.DEClash.Weighted>
0.0760

> <Gold.Chemscore.DEInternal.Weighted>
0.7857

> <Gold.Chemscore.Rot.Weighted>
4.3351

> <Gold.Chemscore.Internal.Correction.Weighted>
   9.000000E+99

> <Gold.Protein.RotatedTorsions>
[ 6907 6896 6895 6894 ] final  103.19 input  -60.11 | X-H torsion
[ 7974 7965 7964 7962 ] final -100.74 input  175.53 | X-H torsion
[ 8008 7997 7996 7995 ] final -123.59 input   59.86 | X-H torsion
[ 10167 10162 10161 10158 ] final  -99.50 input  -65.29 | X-H torsion
[ 10718 10713 10712 10709 ] final -154.54 input   66.30 | X-H torsion
[ 10763 10752 10751 10750 ] final -170.11 input  -60.55 | X-H torsion
[ 11005 11000 10999 10996 ] final  134.05 input  -57.11 | X-H torsion

> <Gold.Protein.ActiveResidues>
 VAL166  LYS551  ARG553  GLY616  TRP617  ASP618  TYR619  PRO620  LYS621  CYS622 
 ASP623  PHE694  ASN695  SER759  ASP760  ASP761  ALA762  ILE779  LEU786  VAL792 
 PHE793  MET794  SER795  GLU796  ALA797  LYS798  CYS799  TRP800  GLU811  SER814 

> <Gold.Protein.RotatedAtoms>
  152.5303  133.9863  159.7829 H   0  0  0  0  0  0  0  0  0  0  0  0  # atno 6907 bound_to 6896
  151.0107  133.5960  159.2690 H   0  0  0  0  0  0  0  0  0  0  0  0  # atno 6908 bound_to 6896
  151.3035  135.0782  159.9300 H   0  0  0  0  0  0  0  0  0  0  0  0  # atno 6909 bound_to 6896
  145.2906  140.9351  143.2880 H   0  0  0  0  0  0  0  0  0  0  0  0  # atno 7974 bound_to 7965
  155.1830  140.0411  157.2886 H   0  0  0  0  0  0  0  0  0  0  0  0  # atno 8008 bound_to 7997
  154.6191  140.2496  155.7544 H   0  0  0  0  0  0  0  0  0  0  0  0  # atno 8009 bound_to 7997
  156.2423  140.2899  156.0490 H   0  0  0  0  0  0  0  0  0  0  0  0  # atno 8010 bound_to 7997
  140.2618  143.3402  152.0618 H   0  0  0  0  0  0  0  0  0  0  0  0  # atno 10167 bound_to 10162
  156.5007  130.8390  151.2608 H   0  0  0  0  0  0  0  0  0  0  0  0  # atno 10718 bound_to 10713
  154.6450  135.2903  155.0057 H   0  0  0  0  0  0  0  0  0  0  0  0  # atno 10763 bound_to 10752
  154.1170  135.6554  153.4899 H   0  0  0  0  0  0  0  0  0  0  0  0  # atno 10764 bound_to 10752
  153.0346  135.5278  154.7333 H   0  0  0  0  0  0  0  0  0  0  0  0  # atno 10765 bound_to 10752
  139.9890  134.9522  156.9812 H   0  0  0  0  0  0  0  0  0  0  0  0  # atno 11005 bound_to 11000
  144.9176  139.4451  143.6557 LP  0  0  0  0  0  0  0  0  0  0  0  0  # atno 17320 bound_to 7965
  146.3186  139.8019  142.8964 LP  0  0  0  0  0  0  0  0  0  0  0  0  # atno 17321 bound_to 7965
  139.5014  144.6714  151.6234 LP  0  0  0  0  0  0  0  0  0  0  0  0  # atno 17342 bound_to 10162
  140.5960  143.9696  150.6354 LP  0  0  0  0  0  0  0  0  0  0  0  0  # atno 17343 bound_to 10162
  157.7463  130.9982  150.2846 LP  0  0  0  0  0  0  0  0  0  0  0  0  # atno 17370 bound_to 10713
  156.3335  130.3804  149.7470 LP  0  0  0  0  0  0  0  0  0  0  0  0  # atno 17371 bound_to 10713
  140.4945  134.1159  155.7239 LP  0  0  0  0  0  0  0  0  0  0  0  0  # atno 17394 bound_to 11000
  141.1550  133.8900  157.2001 LP  0  0  0  0  0  0  0  0  0  0  0  0  # atno 17395 bound_to 11000

$$$$
