AV-unprocessed.smi:2171|AV-procd|sdf|8828|dock2
  -GOLD-   2272012 23D 1   1.00000     0.00000
 Structure written by MMmdl.
 39 41  0  0  0  0  0  0  0  0  2 V2000
  144.3641  135.6695  152.4778 O   0  0  0  0  0  0  0  0  0  0  0  0
  145.5679  135.5734  152.2417 C   0  0  0  0  0  0  0  0  0  0  0  0
  146.1972  134.1947  152.0264 C   0  0  0  0  0  0  0  0  0  0  0  0
  145.4780  133.4240  151.0263 N   0  0  0  0  0  0  0  0  0  0  0  0
  145.9832  132.5266  150.1083 C   0  0  0  0  0  0  0  0  0  0  0  0
  144.9303  132.0559  149.3775 C   0  0  0  0  0  0  0  0  0  0  0  0
  143.8060  132.7303  149.9307 C   0  0  0  0  0  0  0  0  0  0  0  0
  144.1368  133.5484  150.9168 N   0  0  0  0  0  0  0  0  0  0  0  0
  146.3918  136.6312  152.1708 N   0  0  0  0  0  0  0  0  0  0  0  0
  145.9878  138.0250  152.3265 C   0  0  2  0  0  0  0  0  0  0  0  0
  146.4700  138.9195  151.1708 C   0  0  0  0  0  0  0  0  0  0  0  0
  146.8554  140.2607  151.8254 C   0  0  0  0  0  0  0  0  0  0  0  0
  146.4959  140.1187  153.2492 N   0  3  2  0  0  0  0  0  0  0  0  0
  147.2149  140.9779  154.2149 C   0  0  0  0  0  0  0  0  0  0  0  0
  146.6410  140.7459  155.6271 C   0  0  0  0  0  0  0  0  0  0  0  0
  146.6463  139.2513  156.0079 C   0  0  0  0  0  0  0  0  0  0  0  0
  145.9674  138.3966  154.9202 C   0  0  0  0  0  0  0  0  0  0  0  0
  146.6175  138.6853  153.5561 C   0  0  1  0  0  0  0  0  0  0  0  0
  147.2335  134.3117  151.7073 H   0  0  0  0  0  0  0  0  0  0  0  0
  146.2110  133.6358  152.9637 H   0  0  0  0  0  0  0  0  0  0  0  0
  147.0380  132.3013  150.0514 H   0  0  0  0  0  0  0  0  0  0  0  0
  144.9580  131.3378  148.5714 H   0  0  0  0  0  0  0  0  0  0  0  0
  142.7670  132.6508  149.6469 H   0  0  0  0  0  0  0  0  0  0  0  0
  147.3667  136.4564  151.9738 H   0  0  0  0  0  0  0  0  0  0  0  0
  144.9002  138.1043  152.3884 H   0  0  0  0  0  0  0  0  0  0  0  0
  147.3402  138.4916  150.6705 H   0  0  0  0  0  0  0  0  0  0  0  0
  145.6899  139.0437  150.4188 H   0  0  0  0  0  0  0  0  0  0  0  0
  147.9285  140.4307  151.7239 H   0  0  0  0  0  0  0  0  0  0  0  0
  146.3344  141.1074  151.3778 H   0  0  0  0  0  0  0  0  0  0  0  0
  148.2816  140.7499  154.1932 H   0  0  0  0  0  0  0  0  0  0  0  0
  147.1019  142.0245  153.9299 H   0  0  0  0  0  0  0  0  0  0  0  0
  147.2076  141.3205  156.3604 H   0  0  0  0  0  0  0  0  0  0  0  0
  145.6177  141.1218  155.6664 H   0  0  0  0  0  0  0  0  0  0  0  0
  147.6755  138.9158  156.1425 H   0  0  0  0  0  0  0  0  0  0  0  0
  146.1465  139.1060  156.9660 H   0  0  0  0  0  0  0  0  0  0  0  0
  146.0589  137.3395  155.1699 H   0  0  0  0  0  0  0  0  0  0  0  0
  144.9001  138.6192  154.8834 H   0  0  0  0  0  0  0  0  0  0  0  0
  147.6785  138.4272  153.5975 H   0  0  0  0  0  0  0  0  0  0  0  0
  145.5135  140.3424  153.3205 H   0  0  0  0  0  0  0  0  0  0  0  0
  1  2  2  0  0  0  0
  2  3  1  0  0  0  0
  2  9  1  0  0  0  0
  3  4  1  0  0  0  0
  3 19  1  0  0  0  0
  3 20  1  0  0  0  0
  4  8  1  0  0  0  0
  4  5  1  0  0  0  0
  5  6  2  0  0  0  0
  5 21  1  0  0  0  0
  6  7  1  0  0  0  0
  6 22  1  0  0  0  0
  7  8  2  0  0  0  0
  7 23  1  0  0  0  0
  9 10  1  0  0  0  0
  9 24  1  0  0  0  0
 10 18  1  0  0  0  0
 10 11  1  0  0  0  0
 10 25  1  0  0  0  0
 11 12  1  0  0  0  0
 11 26  1  0  0  0  0
 11 27  1  0  0  0  0
 12 13  1  0  0  0  0
 12 28  1  0  0  0  0
 12 29  1  0  0  0  0
 13 18  1  0  0  0  0
 13 14  1  0  0  0  0
 13 39  1  0  0  0  0
 14 15  1  0  0  0  0
 14 30  1  0  0  0  0
 14 31  1  0  0  0  0
 15 16  1  0  0  0  0
 15 32  1  0  0  0  0
 15 33  1  0  0  0  0
 16 17  1  0  0  0  0
 16 34  1  0  0  0  0
 16 35  1  0  0  0  0
 17 18  1  0  0  0  0
 17 36  1  0  0  0  0
 17 37  1  0  0  0  0
 18 38  1  0  0  0  0
M  CHG  1  13   1
M  END
> <s_m_source_file>
AV-unprocessed.smi

> <i_m_source_file_index>
2171

> <i_lp_mmshare_version>
43012

> <i_f3d_flags>
0

> <s_epik_input>
bjFbY0hdW2NIXVtjSF1uMVtDSDJdQyg9TylbTkhdW0NASF0oW0NIMl1bQ0gyXTIpW0NAQEhdKE4yMylbQ0gyXVtDSDJdW0NIMl1bQ0gyXTM=

> <s_epik_cmdline>
J2VwaWtfcHl0aG9uJywgJy1waCcsICc3LjAnLCAnLXRuJywgJzgnLCAnLW1hJywgJzIwMCcsICctbWV0YWxfYmluZGluZycsICctaW1hZScsICc8aW5maWxlLm1hZT4nLCAnLW9tYWUnLCAnPG91dGZpbGUubWFlPic=

> <r_lp_tautomer_probability>
1

> <r_epik_Ionization_Penalty>
0.00204179

> <r_epik_Ionization_Penalty_Charging>
0.00203239

> <r_epik_Ionization_Penalty_Neutral>
9.40205e-06

> <r_epik_State_Penalty>
0.00138983

> <r_epik_Charging_Adjusted_Penalty>
0.00342221

> <i_epik_Tot_Q>
1

> <i_epik_Tot_abs_Q>
1

> <r_epik_Metal_State_Penalty>
-0

> <b_epik_Metal_Only>
0

> <s_lp_Force_Field>
OPLS_2005

> <r_lp_Energy>
34.6158

> <b_lp_Chiralities_Consistent>
1

> <s_lp_Variant>
AV-unprocessed.smi:2171-3

> <Gold.Version>
5.8.1

> <Gold.Id.Protein>
6NUR|6NUR_protein|mol2

> <Gold.PLP.Fitness>
40.9333

> <Gold.PLP.PLP>
-26.8509

> <Gold.PLP.part.hbond>
-2.0000

> <Gold.PLP.part.metal>
0.0000

> <Gold.PLP.part.buried>
0.8638

> <Gold.PLP.part.nonpolar>
-27.2127

> <Gold.PLP.part.repulsive>
0.3114

> <Gold.PLP.ligand.clash>
0.0000

> <Gold.PLP.ligand.torsion>
0.4636

> <Gold.PLP.Chemscore.Hbond>
3.0000

> <Gold.PLP.Chemscore.CHOScore>
2.0000

> <Gold.PLP.Chemscore.Metal>
0.0000

> <Gold.Chemscore.Hbonds>
donor molecule, donor type, donor heavy atom, donor atom, acceptor molecule, acceptor atom, score
      L1  H     9    24       P1  7948  1.00
      L1  H    13    39       P1 10175  2.00
      L1  C     5    21       P1 10747  1.00
      L1  C     7    23       P1 10186  1.00

> <Gold.PLP.Chemscore.Internal.Correction>
0.0095

> <Gold.Rescore>
     Score         DG    S(hbond)    S(metal)    S(lipo)     H(rot)  DE(clash)    DE(int)     intcor
     14.48     -18.08       1.96        0.00      83.31       1.44       1.63       1.97       ----

> <Gold.Chemscore.Fitness>
14.4847

> <Gold.Chemscore.DG>
-18.0792

> <Gold.Chemscore.ZeroCoef>
-5.4800

> <Gold.Chemscore.Hbond>
1.9584

> <Gold.Chemscore.Metal>
0.0000

> <Gold.Chemscore.Lipo>
83.3099

> <Gold.Chemscore.Internal_Hbond>
0.0000

> <Gold.Chemscore.DEClash>
1.6257

> <Gold.Chemscore.DEInternal>
1.9688

> <Gold.Chemscore.Rot>
1.4410

> <Gold.Chemscore.Internal.Correction>
   9.000000E+99

> <Gold.Chemscore.Hbonds>
donor molecule, donor type, donor heavy atom, donor atom, acceptor molecule, acceptor atom, score
      L1  H     9    24       P1  7948  0.98
      L1  H    13    39       P1 10175  0.88

> <Gold.Chemscore.Hbond.Weighted>
-6.5409

> <Gold.Chemscore.Metal.Weighted>
-0.0000

> <Gold.Chemscore.Lipo.Weighted>
-9.7473

> <Gold.Chemscore.Internal_Hbond.Weighted>
0.0000

> <Gold.Chemscore.DEClash.Weighted>
1.6257

> <Gold.Chemscore.DEInternal.Weighted>
1.9688

> <Gold.Chemscore.Rot.Weighted>
3.6889

> <Gold.Chemscore.Internal.Correction.Weighted>
   9.000000E+99

> <Gold.Protein.RotatedTorsions>
[ 6907 6896 6895 6894 ] final   29.94 input  -60.11 | X-H torsion
[ 7974 7965 7964 7962 ] final -168.92 input  175.53 | X-H torsion
[ 8008 7997 7996 7995 ] final    6.52 input   59.86 | X-H torsion
[ 10167 10162 10161 10158 ] final  -32.64 input  -65.29 | X-H torsion
[ 10718 10713 10712 10709 ] final  144.49 input   66.30 | X-H torsion
[ 10763 10752 10751 10750 ] final  -99.67 input  -60.55 | X-H torsion
[ 11005 11000 10999 10996 ] final  139.10 input  -57.11 | X-H torsion

> <Gold.Protein.ActiveResidues>
 VAL166  LYS551  ARG553  GLY616  TRP617  ASP618  TYR619  PRO620  LYS621  CYS622 
 ASP623  PHE694  ASN695  SER759  ASP760  ASP761  ALA762  ILE779  LEU786  VAL792 
 PHE793  MET794  SER795  GLU796  ALA797  LYS798  CYS799  TRP800  GLU811  SER814 

> <Gold.Protein.RotatedAtoms>
  152.0388  134.9724  160.0573 H   0  0  0  0  0  0  0  0  0  0  0  0  # atno 6907 bound_to 6896
  152.1171  133.4328  159.4666 H   0  0  0  0  0  0  0  0  0  0  0  0  # atno 6908 bound_to 6896
  150.6847  134.2498  159.4549 H   0  0  0  0  0  0  0  0  0  0  0  0  # atno 6909 bound_to 6896
  144.7194  140.2298  143.6305 H   0  0  0  0  0  0  0  0  0  0  0  0  # atno 7974 bound_to 7965
  154.7421  140.2751  155.6364 H   0  0  0  0  0  0  0  0  0  0  0  0  # atno 8008 bound_to 7997
  156.2876  140.2695  156.2077 H   0  0  0  0  0  0  0  0  0  0  0  0  # atno 8009 bound_to 7997
  155.0245  140.0371  157.2440 H   0  0  0  0  0  0  0  0  0  0  0  0  # atno 8010 bound_to 7997
  140.7218  143.3680  151.1834 H   0  0  0  0  0  0  0  0  0  0  0  0  # atno 10167 bound_to 10162
  157.3566  131.0959  151.0953 H   0  0  0  0  0  0  0  0  0  0  0  0  # atno 10718 bound_to 10713
  154.7517  135.4964  153.9300 H   0  0  0  0  0  0  0  0  0  0  0  0  # atno 10763 bound_to 10752
  153.1150  135.6718  153.9441 H   0  0  0  0  0  0  0  0  0  0  0  0  # atno 10764 bound_to 10752
  153.9190  135.3090  155.3427 H   0  0  0  0  0  0  0  0  0  0  0  0  # atno 10765 bound_to 10752
  140.0230  134.9388  157.0513 H   0  0  0  0  0  0  0  0  0  0  0  0  # atno 11005 bound_to 11000
  145.8421  139.2135  143.1821 LP  0  0  0  0  0  0  0  0  0  0  0  0  # atno 17320 bound_to 7965
  146.0337  140.8233  142.9863 LP  0  0  0  0  0  0  0  0  0  0  0  0  # atno 17321 bound_to 7965
  139.7245  143.9170  152.2997 LP  0  0  0  0  0  0  0  0  0  0  0  0  # atno 17342 bound_to 10162
  139.8938  144.6950  150.8740 LP  0  0  0  0  0  0  0  0  0  0  0  0  # atno 17343 bound_to 10162
  157.2108  130.6437  149.5773 LP  0  0  0  0  0  0  0  0  0  0  0  0  # atno 17370 bound_to 10713
  155.9730  130.4660  150.6275 LP  0  0  0  0  0  0  0  0  0  0  0  0  # atno 17371 bound_to 10713
  140.4354  134.1737  155.7170 LP  0  0  0  0  0  0  0  0  0  0  0  0  # atno 17394 bound_to 11000
  141.1786  133.8462  157.1338 LP  0  0  0  0  0  0  0  0  0  0  0  0  # atno 17395 bound_to 11000

$$$$
