AV-unprocessed.smi:1594|AV-procd|sdf|6414|dock7
  -GOLD-   22720 7 53D 1   1.00000     0.00000
 Structure written by MMmdl.
 35 36  0  0  0  0  0  0  0  0  1 V2000
  149.4796  131.3935  156.3164 C   0  0  0  0  0  0  0  0  0  0  0  0
  149.7557  132.8686  156.2637 C   0  0  0  0  0  0  0  0  0  0  0  0
  150.0117  133.5271  157.3816 N   0  0  0  0  0  0  0  0  0  0  0  0
  150.2274  134.8555  157.0024 O   0  0  0  0  0  0  0  0  0  0  0  0
  150.0903  134.9454  155.6550 C   0  0  0  0  0  0  0  0  0  0  0  0
  150.2880  136.2937  155.0498 C   0  0  0  0  0  0  0  0  0  0  0  0
  149.7862  133.7224  155.1239 C   0  0  0  0  0  0  0  0  0  0  0  0
  149.5441  133.3545  153.6803 C   0  0  0  0  0  0  0  0  0  0  0  0
  148.0586  133.0973  153.3983 C   0  0  0  0  0  0  0  0  0  0  0  0
  147.4485  132.1868  153.9614 O   0  0  0  0  0  0  0  0  0  0  0  0
  147.4843  133.9232  152.5106 N   0  0  0  0  0  0  0  0  0  0  0  0
  146.0849  133.8739  152.0974 C   0  0  0  0  0  0  0  0  0  0  0  0
  145.7804  132.5190  151.4412 C   0  0  0  0  0  0  0  0  0  0  0  0
  144.3536  132.5013  150.8683 C   0  0  0  0  0  0  0  0  0  0  0  0
  144.1860  133.5727  149.9460 O   0  0  0  0  0  0  0  0  0  0  0  0
  144.3404  134.8528  150.5491 C   0  0  0  0  0  0  0  0  0  0  0  0
  145.7656  135.0050  151.1046 C   0  0  0  0  0  0  0  0  0  0  0  0
  150.0178  130.8678  155.5274 H   0  0  0  0  0  0  0  0  0  0  0  0
  148.4165  131.1922  156.1840 H   0  0  0  0  0  0  0  0  0  0  0  0
  149.7848  130.9593  157.2693 H   0  0  0  0  0  0  0  0  0  0  0  0
  150.7657  136.2133  154.0732 H   0  0  0  0  0  0  0  0  0  0  0  0
  150.9192  136.9179  155.6824 H   0  0  0  0  0  0  0  0  0  0  0  0
  149.3320  136.8005  154.9185 H   0  0  0  0  0  0  0  0  0  0  0  0
  149.8924  134.1471  153.0166 H   0  0  0  0  0  0  0  0  0  0  0  0
  150.1043  132.4605  153.4042 H   0  0  0  0  0  0  0  0  0  0  0  0
  148.0573  134.6421  152.0928 H   0  0  0  0  0  0  0  0  0  0  0  0
  145.4451  133.9792  152.9759 H   0  0  0  0  0  0  0  0  0  0  0  0
  146.4908  132.3272  150.6357 H   0  0  0  0  0  0  0  0  0  0  0  0
  145.9022  131.7120  152.1646 H   0  0  0  0  0  0  0  0  0  0  0  0
  144.1704  131.5598  150.3503 H   0  0  0  0  0  0  0  0  0  0  0  0
  143.6128  132.5747  151.6658 H   0  0  0  0  0  0  0  0  0  0  0  0
  144.1473  135.6209  149.8001 H   0  0  0  0  0  0  0  0  0  0  0  0
  143.5995  134.9862  151.3390 H   0  0  0  0  0  0  0  0  0  0  0  0
  145.8740  135.9777  151.5855 H   0  0  0  0  0  0  0  0  0  0  0  0
  146.4763  134.9847  150.2771 H   0  0  0  0  0  0  0  0  0  0  0  0
  1  2  1  0  0  0  0
  1 18  1  0  0  0  0
  1 19  1  0  0  0  0
  1 20  1  0  0  0  0
  2  7  1  0  0  0  0
  2  3  2  0  0  0  0
  3  4  1  0  0  0  0
  4  5  1  0  0  0  0
  5  6  1  0  0  0  0
  5  7  2  0  0  0  0
  6 21  1  0  0  0  0
  6 22  1  0  0  0  0
  6 23  1  0  0  0  0
  7  8  1  0  0  0  0
  8  9  1  0  0  0  0
  8 24  1  0  0  0  0
  8 25  1  0  0  0  0
  9 10  2  0  0  0  0
  9 11  1  0  0  0  0
 11 12  1  0  0  0  0
 11 26  1  0  0  0  0
 12 17  1  0  0  0  0
 12 13  1  0  0  0  0
 12 27  1  0  0  0  0
 13 14  1  0  0  0  0
 13 28  1  0  0  0  0
 13 29  1  0  0  0  0
 14 15  1  0  0  0  0
 14 30  1  0  0  0  0
 14 31  1  0  0  0  0
 15 16  1  0  0  0  0
 16 17  1  0  0  0  0
 16 32  1  0  0  0  0
 16 33  1  0  0  0  0
 17 34  1  0  0  0  0
 17 35  1  0  0  0  0
M  END
> <s_m_source_file>
AV-unprocessed.smi

> <i_m_source_file_index>
1594

> <i_lp_mmshare_version>
43012

> <i_f3d_flags>
0

> <s_epik_input>
W0NIM11jMW5vYyhbQ0gzXSljMVtDSDJdQyg9TylbTkhdW0NIXTJbQ0gyXVtDSDJdT1tDSDJdW0NIMl0y

> <s_epik_cmdline>
J2VwaWtfcHl0aG9uJywgJy1waCcsICc3LjAnLCAnLXRuJywgJzgnLCAnLW1hJywgJzIwMCcsICctbWV0YWxfYmluZGluZycsICctaW1hZScsICc8aW5maWxlLm1hZT4nLCAnLW9tYWUnLCAnPG91dGZpbGUubWFlPic=

> <r_lp_tautomer_probability>
1

> <r_epik_Ionization_Penalty>
2.34123e-08

> <r_epik_Ionization_Penalty_Charging>
0

> <r_epik_Ionization_Penalty_Neutral>
2.34123e-08

> <r_epik_State_Penalty>
-0

> <r_epik_Charging_Adjusted_Penalty>
0

> <i_epik_Tot_Q>
0

> <i_epik_Tot_abs_Q>
0

> <r_epik_Metal_State_Penalty>
-0

> <b_epik_Metal_Only>
0

> <s_lp_Force_Field>
OPLS_2005

> <r_lp_Energy>
1.65601

> <b_lp_Chiralities_Consistent>
1

> <s_lp_Variant>
AV-unprocessed.smi:1594-1

> <Gold.Version>
5.8.1

> <Gold.Id.Protein>
6NUR|6NUR_protein|mol2

> <Gold.PLP.Fitness>
33.3729

> <Gold.PLP.PLP>
-27.7134

> <Gold.PLP.part.hbond>
-2.2692

> <Gold.PLP.part.metal>
0.0000

> <Gold.PLP.part.buried>
-5.7794

> <Gold.PLP.part.nonpolar>
-20.7060

> <Gold.PLP.part.repulsive>
0.2564

> <Gold.PLP.ligand.clash>
0.0000

> <Gold.PLP.ligand.torsion>
0.1712

> <Gold.PLP.Chemscore.Hbond>
2.0000

> <Gold.PLP.Chemscore.CHOScore>
0.0000

> <Gold.PLP.Chemscore.Metal>
0.0000

> <Gold.Chemscore.Hbonds>
donor molecule, donor type, donor heavy atom, donor atom, acceptor molecule, acceptor atom, score
      L1  H    11    26       P1  7948  0.95
      P1  H  6896  6908       L1     3  0.82

> <Gold.PLP.Chemscore.Internal.Correction>
0.0020

> <Gold.Rescore>
     Score         DG    S(hbond)    S(metal)    S(lipo)     H(rot)  DE(clash)    DE(int)     intcor
     13.59     -13.88       1.59        0.00      56.64       1.38       0.10       0.19       ----

> <Gold.Chemscore.Fitness>
13.5923

> <Gold.Chemscore.DG>
-13.8809

> <Gold.Chemscore.ZeroCoef>
-5.4800

> <Gold.Chemscore.Hbond>
1.5877

> <Gold.Chemscore.Metal>
0.0000

> <Gold.Chemscore.Lipo>
56.6445

> <Gold.Chemscore.Internal_Hbond>
0.0000

> <Gold.Chemscore.DEClash>
0.0998

> <Gold.Chemscore.DEInternal>
0.1888

> <Gold.Chemscore.Rot>
1.3786

> <Gold.Chemscore.Internal.Correction>
   9.000000E+99

> <Gold.Chemscore.Hbonds>
donor molecule, donor type, donor heavy atom, donor atom, acceptor molecule, acceptor atom, score
      L1  H    11    26       P1  7948  0.22
      P1  H  6896  6908       L1     3  0.15

> <Gold.Chemscore.Hbond.Weighted>
-5.3028

> <Gold.Chemscore.Metal.Weighted>
-0.0000

> <Gold.Chemscore.Lipo.Weighted>
-6.6274

> <Gold.Chemscore.Internal_Hbond.Weighted>
0.0000

> <Gold.Chemscore.DEClash.Weighted>
0.0998

> <Gold.Chemscore.DEInternal.Weighted>
0.1888

> <Gold.Chemscore.Rot.Weighted>
3.5293

> <Gold.Chemscore.Internal.Correction.Weighted>
   9.000000E+99

> <Gold.Protein.RotatedTorsions>
[ 6907 6896 6895 6894 ] final  103.59 input  -60.11 | X-H torsion
[ 7974 7965 7964 7962 ] final  -49.45 input  175.53 | X-H torsion
[ 8008 7997 7996 7995 ] final   21.33 input   59.86 | X-H torsion
[ 10167 10162 10161 10158 ] final  -58.37 input  -65.29 | X-H torsion
[ 10718 10713 10712 10709 ] final  132.81 input   66.30 | X-H torsion
[ 10763 10752 10751 10750 ] final -135.93 input  -60.55 | X-H torsion
[ 11005 11000 10999 10996 ] final  -97.62 input  -57.11 | X-H torsion

> <Gold.Protein.ActiveResidues>
 VAL166  LYS551  ARG553  GLY616  TRP617  ASP618  TYR619  PRO620  LYS621  CYS622 
 ASP623  PHE694  ASN695  SER759  ASP760  ASP761  ALA762  ILE779  LEU786  VAL792 
 PHE793  MET794  SER795  GLU796  ALA797  LYS798  CYS799  TRP800  GLU811  SER814 

> <Gold.Protein.RotatedAtoms>
  152.5291  133.9803  159.7803 H   0  0  0  0  0  0  0  0  0  0  0  0  # atno 6907 bound_to 6896
  151.0058  133.6004  159.2696 H   0  0  0  0  0  0  0  0  0  0  0  0  # atno 6908 bound_to 6896
  151.3097  135.0797  159.9321 H   0  0  0  0  0  0  0  0  0  0  0  0  # atno 6909 bound_to 6896
  145.9404  140.7667  142.9555 H   0  0  0  0  0  0  0  0  0  0  0  0  # atno 7974 bound_to 7965
  154.9489  140.3063  155.5084 H   0  0  0  0  0  0  0  0  0  0  0  0  # atno 8008 bound_to 7997
  156.2989  140.2322  156.4503 H   0  0  0  0  0  0  0  0  0  0  0  0  # atno 8009 bound_to 7997
  154.8073  140.0430  157.1305 H   0  0  0  0  0  0  0  0  0  0  0  0  # atno 8010 bound_to 7997
  140.6201  143.2416  151.5501 H   0  0  0  0  0  0  0  0  0  0  0  0  # atno 10167 bound_to 10162
  157.4835  131.1087  150.9651 H   0  0  0  0  0  0  0  0  0  0  0  0  # atno 10718 bound_to 10713
  154.8694  135.3688  154.4977 H   0  0  0  0  0  0  0  0  0  0  0  0  # atno 10763 bound_to 10752
  153.5620  135.7022  153.5548 H   0  0  0  0  0  0  0  0  0  0  0  0  # atno 10764 bound_to 10752
  153.3619  135.4044  155.1688 H   0  0  0  0  0  0  0  0  0  0  0  0  # atno 10765 bound_to 10752
  141.1373  133.8184  157.0730 H   0  0  0  0  0  0  0  0  0  0  0  0  # atno 11005 bound_to 11000
  144.6778  140.2271  143.7359 LP  0  0  0  0  0  0  0  0  0  0  0  0  # atno 17320 bound_to 7965
  145.8307  139.2085  143.1884 LP  0  0  0  0  0  0  0  0  0  0  0  0  # atno 17321 bound_to 7965
  139.5432  144.2592  152.1391 LP  0  0  0  0  0  0  0  0  0  0  0  0  # atno 17342 bound_to 10162
  140.1810  144.4844  150.6528 LP  0  0  0  0  0  0  0  0  0  0  0  0  # atno 17343 bound_to 10162
  157.0376  130.5736  149.5351 LP  0  0  0  0  0  0  0  0  0  0  0  0  # atno 17370 bound_to 10713
  156.0134  130.5227  150.8060 LP  0  0  0  0  0  0  0  0  0  0  0  0  # atno 17371 bound_to 10713
  140.0499  134.9811  157.1117 LP  0  0  0  0  0  0  0  0  0  0  0  0  # atno 17394 bound_to 11000
  140.4006  134.2087  155.7163 LP  0  0  0  0  0  0  0  0  0  0  0  0  # atno 17395 bound_to 11000

$$$$
