AV-unprocessed.smi:1529|AV-procd|sdf|6154|dock1
  -GOLD-   22720 6303D 1   1.00000     0.00000
 Structure written by MMmdl.
 50 51  0  0  0  0  0  0  0  0  1 V2000
  147.0319  133.1842  150.7842 C   0  0  0  0  0  0  0  0  0  0  0  0
  147.8746  132.7883  151.9921 C   0  0  0  0  0  0  0  0  0  0  0  0
  147.8043  131.6471  152.4473 O   0  0  0  0  0  0  0  0  0  0  0  0
  148.6680  133.7431  152.5006 N   0  0  0  0  0  0  0  0  0  0  0  0
  149.5549  133.5750  153.6463 C   0  0  0  0  0  0  0  0  0  0  0  0
  149.7077  134.8797  154.4448 C   0  0  0  0  0  0  0  0  0  0  0  0
  151.0774  134.9825  155.1350 C   0  0  0  0  0  0  0  0  0  0  0  0
  151.2401  136.2568  155.8254 N   0  0  0  0  0  0  0  0  0  0  0  0
  151.8011  137.3553  155.2935 C   0  0  0  0  0  0  0  0  0  0  0  0
  152.2334  137.4075  154.1419 O   0  0  0  0  0  0  0  0  0  0  0  0
  151.8123  138.5711  156.1743 C   0  0  0  0  0  0  0  0  0  0  0  0
  151.7717  139.8778  155.6405 C   0  0  0  0  0  0  0  0  0  0  0  0
  151.7650  140.9777  156.5198 C   0  0  0  0  0  0  0  0  0  0  0  0
  151.7911  140.7469  157.9151 C   0  0  0  0  0  0  0  0  0  0  0  0
  151.7889  141.8359  158.8127 N   0  0  0  0  0  0  0  0  0  0  0  0
  151.9181  143.1551  158.2000 C   0  0  0  0  0  0  0  0  0  0  0  0
  151.5803  144.2696  159.2093 C   0  0  1  0  0  0  0  0  0  0  0  0
  150.0717  144.4155  159.4775 C   0  0  0  0  0  0  0  0  0  0  0  0
  152.3286  144.0902  160.4137 O   0  0  0  0  0  0  0  0  0  0  0  0
  152.1572  142.8197  161.0404 C   0  0  2  0  0  0  0  0  0  0  0  0
  153.0245  142.7927  162.3031 C   0  0  0  0  0  0  0  0  0  0  0  0
  152.5443  141.7028  160.0553 C   0  0  0  0  0  0  0  0  0  0  0  0
  151.8107  139.4914  158.4258 N   0  0  0  0  0  0  0  0  0  0  0  0
  151.8174  138.4400  157.5793 C   0  0  0  0  0  0  0  0  0  0  0  0
  146.4330  134.0673  151.0093 H   0  0  0  0  0  0  0  0  0  0  0  0
  146.3553  132.3769  150.5019 H   0  0  0  0  0  0  0  0  0  0  0  0
  147.6723  133.4077  149.9304 H   0  0  0  0  0  0  0  0  0  0  0  0
  148.6597  134.6512  152.0589 H   0  0  0  0  0  0  0  0  0  0  0  0
  149.1878  132.7735  154.2899 H   0  0  0  0  0  0  0  0  0  0  0  0
  150.5274  133.2524  153.2740 H   0  0  0  0  0  0  0  0  0  0  0  0
  149.5709  135.7332  153.7792 H   0  0  0  0  0  0  0  0  0  0  0  0
  148.9167  134.9425  155.1936 H   0  0  0  0  0  0  0  0  0  0  0  0
  151.2156  134.1575  155.8359 H   0  0  0  0  0  0  0  0  0  0  0  0
  151.8731  134.8962  154.3946 H   0  0  0  0  0  0  0  0  0  0  0  0
  150.8908  136.3118  156.7711 H   0  0  0  0  0  0  0  0  0  0  0  0
  151.7402  140.0476  154.5741 H   0  0  0  0  0  0  0  0  0  0  0  0
  151.7230  141.9791  156.1176 H   0  0  0  0  0  0  0  0  0  0  0  0
  152.9484  143.2711  157.8609 H   0  0  0  0  0  0  0  0  0  0  0  0
  151.2875  143.2618  157.3183 H   0  0  0  0  0  0  0  0  0  0  0  0
  151.9164  145.2150  158.7821 H   0  0  0  0  0  0  0  0  0  0  0  0
  149.5431  144.6903  158.5645 H   0  0  0  0  0  0  0  0  0  0  0  0
  149.8816  145.1948  160.2159 H   0  0  0  0  0  0  0  0  0  0  0  0
  149.6239  143.4911  159.8421 H   0  0  0  0  0  0  0  0  0  0  0  0
  151.1173  142.6966  161.3431 H   0  0  0  0  0  0  0  0  0  0  0  0
  152.9244  141.8423  162.8278 H   0  0  0  0  0  0  0  0  0  0  0  0
  152.7333  143.5853  162.9928 H   0  0  0  0  0  0  0  0  0  0  0  0
  154.0782  142.9323  162.0607 H   0  0  0  0  0  0  0  0  0  0  0  0
  152.3470  140.7331  160.5142 H   0  0  0  0  0  0  0  0  0  0  0  0
  153.6116  141.7479  159.8333 H   0  0  0  0  0  0  0  0  0  0  0  0
  151.8328  137.4658  158.0464 H   0  0  0  0  0  0  0  0  0  0  0  0
  1  2  1  0  0  0  0
  1 25  1  0  0  0  0
  1 26  1  0  0  0  0
  1 27  1  0  0  0  0
  2  3  2  0  0  0  0
  2  4  1  0  0  0  0
  4  5  1  0  0  0  0
  4 28  1  0  0  0  0
  5  6  1  0  0  0  0
  5 29  1  0  0  0  0
  5 30  1  0  0  0  0
  6  7  1  0  0  0  0
  6 31  1  0  0  0  0
  6 32  1  0  0  0  0
  7  8  1  0  0  0  0
  7 33  1  0  0  0  0
  7 34  1  0  0  0  0
  8  9  1  0  0  0  0
  8 35  1  0  0  0  0
  9 10  2  0  0  0  0
  9 11  1  0  0  0  0
 11 24  1  0  0  0  0
 11 12  2  0  0  0  0
 12 13  1  0  0  0  0
 12 36  1  0  0  0  0
 13 14  2  0  0  0  0
 13 37  1  0  0  0  0
 14 15  1  0  0  0  0
 14 23  1  0  0  0  0
 15 22  1  0  0  0  0
 15 16  1  0  0  0  0
 16 17  1  0  0  0  0
 16 38  1  0  0  0  0
 16 39  1  0  0  0  0
 17 18  1  0  0  0  0
 17 19  1  0  0  0  0
 17 40  1  0  0  0  0
 18 41  1  0  0  0  0
 18 42  1  0  0  0  0
 18 43  1  0  0  0  0
 19 20  1  0  0  0  0
 20 21  1  0  0  0  0
 20 22  1  0  0  0  0
 20 44  1  0  0  0  0
 21 45  1  0  0  0  0
 21 46  1  0  0  0  0
 21 47  1  0  0  0  0
 22 48  1  0  0  0  0
 22 49  1  0  0  0  0
 23 24  2  0  0  0  0
 24 50  1  0  0  0  0
M  END
> <s_m_source_file>
AV-unprocessed.smi

> <i_m_source_file_index>
1529

> <i_lp_mmshare_version>
43012

> <i_f3d_flags>
0

> <s_epik_input>
W0NIM11DKD1PKVtOSF1bQ0gyXVtDSDJdW0NIMl1bTkhdQyg9TyljMVtjSF1bY0hdYyhuW2NIXTEpTjJbQ0gyXVtDQEBIXShbQ0gzXSlPW0NAQEhdKFtDSDNdKVtDSDJdMg==

> <s_epik_cmdline>
J2VwaWtfcHl0aG9uJywgJy1waCcsICc3LjAnLCAnLXRuJywgJzgnLCAnLW1hJywgJzIwMCcsICctbWV0YWxfYmluZGluZycsICctaW1hZScsICc8aW5maWxlLm1hZT4nLCAnLW9tYWUnLCAnPG91dGZpbGUubWFlPic=

> <r_lp_tautomer_probability>
1

> <r_epik_Ionization_Penalty>
2.1474e-05

> <r_epik_Ionization_Penalty_Charging>
0

> <r_epik_Ionization_Penalty_Neutral>
2.1474e-05

> <r_epik_State_Penalty>
-0

> <r_epik_Charging_Adjusted_Penalty>
0

> <i_epik_Tot_Q>
0

> <i_epik_Tot_abs_Q>
0

> <r_epik_Metal_State_Penalty>
-0

> <b_epik_Metal_Only>
0

> <s_lp_Force_Field>
OPLS_2005

> <r_lp_Energy>
18.7347

> <b_lp_Chiralities_Consistent>
1

> <s_lp_Variant>
AV-unprocessed.smi:1529-3

> <Gold.Version>
5.8.1

> <Gold.Id.Protein>
6NUR|6NUR_protein|mol2

> <Gold.PLP.Fitness>
48.5473

> <Gold.PLP.PLP>
-44.7297

> <Gold.PLP.part.hbond>
-2.0000

> <Gold.PLP.part.metal>
0.0000

> <Gold.PLP.part.buried>
-8.0657

> <Gold.PLP.part.nonpolar>
-35.8009

> <Gold.PLP.part.repulsive>
0.4214

> <Gold.PLP.ligand.clash>
0.0000

> <Gold.PLP.ligand.torsion>
1.2655

> <Gold.PLP.Chemscore.Hbond>
1.9920

> <Gold.PLP.Chemscore.CHOScore>
0.0000

> <Gold.PLP.Chemscore.Metal>
0.0000

> <Gold.Chemscore.Hbonds>
donor molecule, donor type, donor heavy atom, donor atom, acceptor molecule, acceptor atom, score
      L1  H     4    28       P1  7948  0.20
      P1  H 10752 10763       L1    10  0.48

> <Gold.PLP.Chemscore.Internal.Correction>
0.3727

> <Gold.Rescore>
     Score         DG    S(hbond)    S(metal)    S(lipo)     H(rot)  DE(clash)    DE(int)     intcor
     16.48     -17.93       1.61        0.00     105.76       2.07       0.04       1.41       ----

> <Gold.Chemscore.Fitness>
16.4844

> <Gold.Chemscore.DG>
-17.9337

> <Gold.Chemscore.ZeroCoef>
-5.4800

> <Gold.Chemscore.Hbond>
1.6116

> <Gold.Chemscore.Metal>
0.0000

> <Gold.Chemscore.Lipo>
105.7557

> <Gold.Chemscore.Internal_Hbond>
0.0000

> <Gold.Chemscore.DEClash>
0.0418

> <Gold.Chemscore.DEInternal>
1.4075

> <Gold.Chemscore.Rot>
2.0713

> <Gold.Chemscore.Internal.Correction>
   9.000000E+99

> <Gold.Chemscore.Hbonds>
donor molecule, donor type, donor heavy atom, donor atom, acceptor molecule, acceptor atom, score
      P1  H 10752 10763       L1    10  0.03

> <Gold.Chemscore.Hbond.Weighted>
-5.3827

> <Gold.Chemscore.Metal.Weighted>
-0.0000

> <Gold.Chemscore.Lipo.Weighted>
-12.3734

> <Gold.Chemscore.Internal_Hbond.Weighted>
0.0000

> <Gold.Chemscore.DEClash.Weighted>
0.0418

> <Gold.Chemscore.DEInternal.Weighted>
1.4075

> <Gold.Chemscore.Rot.Weighted>
5.3025

> <Gold.Chemscore.Internal.Correction.Weighted>
   9.000000E+99

> <Gold.Protein.RotatedTorsions>
[ 6907 6896 6895 6894 ] final   84.56 input  -60.11 | X-H torsion
[ 7974 7965 7964 7962 ] final  167.76 input  175.53 | X-H torsion
[ 8008 7997 7996 7995 ] final  129.77 input   59.86 | X-H torsion
[ 10167 10162 10161 10158 ] final -103.04 input  -65.29 | X-H torsion
[ 10718 10713 10712 10709 ] final  -14.37 input   66.30 | X-H torsion
[ 10763 10752 10751 10750 ] final   41.20 input  -60.55 | X-H torsion
[ 11005 11000 10999 10996 ] final   35.19 input  -57.11 | X-H torsion

> <Gold.Protein.ActiveResidues>
 VAL166  LYS551  ARG553  GLY616  TRP617  ASP618  TYR619  PRO620  LYS621  CYS622 
 ASP623  PHE694  ASN695  SER759  ASP760  ASP761  ALA762  ILE779  LEU786  VAL792 
 PHE793  MET794  SER795  GLU796  ALA797  LYS798  CYS799  TRP800  GLU811  SER814 

> <Gold.Protein.RotatedAtoms>
  152.5355  134.2722  159.8975 H   0  0  0  0  0  0  0  0  0  0  0  0  # atno 6907 bound_to 6896
  151.2679  133.4263  159.2627 H   0  0  0  0  0  0  0  0  0  0  0  0  # atno 6908 bound_to 6896
  151.0394  134.9611  159.8210 H   0  0  0  0  0  0  0  0  0  0  0  0  # atno 6909 bound_to 6896
  144.7413  139.8807  143.6396 H   0  0  0  0  0  0  0  0  0  0  0  0  # atno 7974 bound_to 7965
  156.2942  140.2612  156.2653 H   0  0  0  0  0  0  0  0  0  0  0  0  # atno 8008 bound_to 7997
  154.9748  140.0390  157.2269 H   0  0  0  0  0  0  0  0  0  0  0  0  # atno 8009 bound_to 7997
  154.7825  140.2797  155.6057 H   0  0  0  0  0  0  0  0  0  0  0  0  # atno 8010 bound_to 7997
  140.2242  143.3653  152.0943 H   0  0  0  0  0  0  0  0  0  0  0  0  # atno 10167 bound_to 10162
  156.6169  130.4864  149.6180 H   0  0  0  0  0  0  0  0  0  0  0  0  # atno 10718 bound_to 10713
  152.9915  135.6169  154.2749 H   0  0  0  0  0  0  0  0  0  0  0  0  # atno 10763 bound_to 10752
  154.2480  135.2786  155.2829 H   0  0  0  0  0  0  0  0  0  0  0  0  # atno 10764 bound_to 10752
  154.5312  135.5787  153.6818 H   0  0  0  0  0  0  0  0  0  0  0  0  # atno 10765 bound_to 10752
  140.2451  134.3368  155.7911 H   0  0  0  0  0  0  0  0  0  0  0  0  # atno 11005 bound_to 11000
  146.1213  139.4232  143.0226 LP  0  0  0  0  0  0  0  0  0  0  0  0  # atno 17320 bound_to 7965
  145.7300  141.0045  143.1357 LP  0  0  0  0  0  0  0  0  0  0  0  0  # atno 17321 bound_to 7965
  139.5133  144.6930  151.5707 LP  0  0  0  0  0  0  0  0  0  0  0  0  # atno 17342 bound_to 10162
  140.6233  143.9217  150.6543 LP  0  0  0  0  0  0  0  0  0  0  0  0  # atno 17343 bound_to 10162
  156.2344  130.6814  151.1495 LP  0  0  0  0  0  0  0  0  0  0  0  0  # atno 17370 bound_to 10713
  157.7239  131.0663  150.6019 LP  0  0  0  0  0  0  0  0  0  0  0  0  # atno 17371 bound_to 10713
  141.2207  133.7321  156.8948 LP  0  0  0  0  0  0  0  0  0  0  0  0  # atno 17394 bound_to 11000
  140.1614  134.9163  157.2719 LP  0  0  0  0  0  0  0  0  0  0  0  0  # atno 17395 bound_to 11000

$$$$
