AV-unprocessed.smi:1574|AV-procd|sdf|6337|dock3
  -GOLD-   22720 6553D 1   1.00000     0.00000
 Structure written by MMmdl.
 40 41  0  0  0  0  0  0  0  0  1 V2000
  144.4110  135.5522  151.6230 C   0  0  0  0  0  0  0  0  0  0  0  0
  144.6843  134.2635  150.8316 C   0  0  2  0  0  0  0  0  0  0  0  0
  143.8117  133.0910  151.3272 C   0  0  0  0  0  0  0  0  0  0  0  0
  144.0617  131.8156  150.5069 C   0  0  0  0  0  0  0  0  0  0  0  0
  145.5507  131.4391  150.5021 C   0  0  0  0  0  0  0  0  0  0  0  0
  146.4167  132.6059  150.0034 C   0  0  0  0  0  0  0  0  0  0  0  0
  146.1817  133.8815  150.8421 C   0  0  2  0  0  0  0  0  0  0  0  0
  146.5635  133.6846  152.1984 O   0  0  0  0  0  0  0  0  0  0  0  0
  147.9185  133.3225  152.4123 C   0  0  0  0  0  0  0  0  0  0  0  0
  148.1235  133.0488  153.9087 C   0  0  0  0  0  0  0  0  0  0  0  0
  149.5175  132.7376  154.2090 N   0  0  0  0  0  0  0  0  0  0  0  0
  149.9992  131.5094  154.4586 C   0  0  0  0  0  0  0  0  0  0  0  0
  149.3025  130.4949  154.4778 O   0  0  0  0  0  0  0  0  0  0  0  0
  151.5005  131.4044  154.7221 C   0  0  0  0  0  0  0  0  0  0  0  0
  151.8723  132.1456  155.9119 N   0  0  0  0  0  0  0  0  0  0  0  0
  151.1348  132.8478  156.7745 C   0  0  0  0  0  0  0  0  0  0  0  0
  151.8787  133.3819  157.7313 N   0  0  0  0  0  0  0  0  0  0  0  0
  153.1571  132.9566  157.4109 N   0  0  0  0  0  0  0  0  0  0  0  0
  153.1595  132.2218  156.3327 N   0  0  0  0  0  0  0  0  0  0  0  0
  144.6406  135.4277  152.6819 H   0  0  0  0  0  0  0  0  0  0  0  0
  143.3637  135.8449  151.5445 H   0  0  0  0  0  0  0  0  0  0  0  0
  145.0133  136.3792  151.2465 H   0  0  0  0  0  0  0  0  0  0  0  0
  144.4057  134.4637  149.7959 H   0  0  0  0  0  0  0  0  0  0  0  0
  144.0188  132.8918  152.3798 H   0  0  0  0  0  0  0  0  0  0  0  0
  142.7566  133.3600  151.2686 H   0  0  0  0  0  0  0  0  0  0  0  0
  143.4701  130.9932  150.9094 H   0  0  0  0  0  0  0  0  0  0  0  0
  143.7208  131.9678  149.4821 H   0  0  0  0  0  0  0  0  0  0  0  0
  145.8620  131.1645  151.5098 H   0  0  0  0  0  0  0  0  0  0  0  0
  145.7111  130.5593  149.8783 H   0  0  0  0  0  0  0  0  0  0  0  0
  147.4672  132.3187  150.0052 H   0  0  0  0  0  0  0  0  0  0  0  0
  146.1708  132.8127  148.9611 H   0  0  0  0  0  0  0  0  0  0  0  0
  146.7577  134.7068  150.4203 H   0  0  0  0  0  0  0  0  0  0  0  0
  148.1917  132.4400  151.8345 H   0  0  0  0  0  0  0  0  0  0  0  0
  148.5701  134.1378  152.0956 H   0  0  0  0  0  0  0  0  0  0  0  0
  147.8497  133.9354  154.4804 H   0  0  0  0  0  0  0  0  0  0  0  0
  147.4626  132.2486  154.2462 H   0  0  0  0  0  0  0  0  0  0  0  0
  150.1669  133.5106  154.2086 H   0  0  0  0  0  0  0  0  0  0  0  0
  151.8018  130.3615  154.8330 H   0  0  0  0  0  0  0  0  0  0  0  0
  152.0513  131.8097  153.8725 H   0  0  0  0  0  0  0  0  0  0  0  0
  150.0639  132.9678  156.7009 H   0  0  0  0  0  0  0  0  0  0  0  0
  1  2  1  0  0  0  0
  1 20  1  0  0  0  0
  1 21  1  0  0  0  0
  1 22  1  0  0  0  0
  2  7  1  0  0  0  0
  2  3  1  0  0  0  0
  2 23  1  0  0  0  0
  3  4  1  0  0  0  0
  3 24  1  0  0  0  0
  3 25  1  0  0  0  0
  4  5  1  0  0  0  0
  4 26  1  0  0  0  0
  4 27  1  0  0  0  0
  5  6  1  0  0  0  0
  5 28  1  0  0  0  0
  5 29  1  0  0  0  0
  6  7  1  0  0  0  0
  6 30  1  0  0  0  0
  6 31  1  0  0  0  0
  7  8  1  0  0  0  0
  7 32  1  0  0  0  0
  8  9  1  0  0  0  0
  9 10  1  0  0  0  0
  9 33  1  0  0  0  0
  9 34  1  0  0  0  0
 10 11  1  0  0  0  0
 10 35  1  0  0  0  0
 10 36  1  0  0  0  0
 11 12  1  0  0  0  0
 11 37  1  0  0  0  0
 12 13  2  0  0  0  0
 12 14  1  0  0  0  0
 14 15  1  0  0  0  0
 14 38  1  0  0  0  0
 14 39  1  0  0  0  0
 15 19  1  0  0  0  0
 15 16  1  0  0  0  0
 16 17  2  0  0  0  0
 16 40  1  0  0  0  0
 17 18  1  0  0  0  0
 18 19  2  0  0  0  0
M  END
> <s_m_source_file>
AV-unprocessed.smi

> <i_m_source_file_index>
1574

> <i_lp_mmshare_version>
43012

> <i_f3d_flags>
0

> <s_epik_input>
W0NIM11bQ0BASF0xW0NIMl1bQ0gyXVtDSDJdW0NIMl1bQ0BIXTFPW0NIMl1bQ0gyXVtOSF1DKD1PKVtDSDJdbjJbY0hdbm5uMg==

> <s_epik_cmdline>
J2VwaWtfcHl0aG9uJywgJy1waCcsICc3LjAnLCAnLXRuJywgJzgnLCAnLW1hJywgJzIwMCcsICctbWV0YWxfYmluZGluZycsICctaW1hZScsICc8aW5maWxlLm1hZT4nLCAnLW9tYWUnLCAnPG91dGZpbGUubWFlPic=

> <r_lp_tautomer_probability>
1

> <r_epik_Ionization_Penalty>
1.44269e-06

> <r_epik_Ionization_Penalty_Charging>
0

> <r_epik_Ionization_Penalty_Neutral>
1.44269e-06

> <r_epik_State_Penalty>
-0

> <r_epik_Charging_Adjusted_Penalty>
0

> <i_epik_Tot_Q>
0

> <i_epik_Tot_abs_Q>
0

> <r_epik_Metal_State_Penalty>
-0

> <b_epik_Metal_Only>
0

> <s_lp_Force_Field>
OPLS_2005

> <r_lp_Energy>
10.5238

> <b_lp_Chiralities_Consistent>
1

> <s_lp_Variant>
AV-unprocessed.smi:1574-3

> <Gold.Version>
5.8.1

> <Gold.Id.Protein>
6NUR|6NUR_protein|mol2

> <Gold.PLP.Fitness>
37.7493

> <Gold.PLP.PLP>
-34.8883

> <Gold.PLP.part.hbond>
-1.0000

> <Gold.PLP.part.metal>
0.0000

> <Gold.PLP.part.buried>
-5.2630

> <Gold.PLP.part.nonpolar>
-28.8541

> <Gold.PLP.part.repulsive>
0.1654

> <Gold.PLP.ligand.clash>
0.0000

> <Gold.PLP.ligand.torsion>
0.1201

> <Gold.PLP.Chemscore.Hbond>
1.0000

> <Gold.PLP.Chemscore.CHOScore>
0.0000

> <Gold.PLP.Chemscore.Metal>
0.0000

> <Gold.Chemscore.Hbonds>
donor molecule, donor type, donor heavy atom, donor atom, acceptor molecule, acceptor atom, score
      P1  H  6896  6907       L1    17  0.58

> <Gold.PLP.Chemscore.Internal.Correction>
0.1013

> <Gold.Rescore>
     Score         DG    S(hbond)    S(metal)    S(lipo)     H(rot)  DE(clash)    DE(int)     intcor
      9.45      -9.76       1.00        0.00      71.65       2.90       0.05       0.26       ----

> <Gold.Chemscore.Fitness>
9.4482

> <Gold.Chemscore.DG>
-9.7610

> <Gold.Chemscore.ZeroCoef>
-5.4800

> <Gold.Chemscore.Hbond>
0.9984

> <Gold.Chemscore.Metal>
0.0000

> <Gold.Chemscore.Lipo>
71.6496

> <Gold.Chemscore.Internal_Hbond>
0.0000

> <Gold.Chemscore.DEClash>
0.0524

> <Gold.Chemscore.DEInternal>
0.2604

> <Gold.Chemscore.Rot>
2.9050

> <Gold.Chemscore.Internal.Correction>
   9.000000E+99

> <Gold.Chemscore.Hbonds>
donor molecule, donor type, donor heavy atom, donor atom, acceptor molecule, acceptor atom, score
      P1  H  6896  6907       L1    17  0.38

> <Gold.Chemscore.Hbond.Weighted>
-3.3346

> <Gold.Chemscore.Metal.Weighted>
-0.0000

> <Gold.Chemscore.Lipo.Weighted>
-8.3830

> <Gold.Chemscore.Internal_Hbond.Weighted>
0.0000

> <Gold.Chemscore.DEClash.Weighted>
0.0524

> <Gold.Chemscore.DEInternal.Weighted>
0.2604

> <Gold.Chemscore.Rot.Weighted>
7.4367

> <Gold.Chemscore.Internal.Correction.Weighted>
   9.000000E+99

> <Gold.Protein.RotatedTorsions>
[ 6907 6896 6895 6894 ] final  178.29 input  -60.11 | X-H torsion
[ 7974 7965 7964 7962 ] final  -35.58 input  175.53 | X-H torsion
[ 8008 7997 7996 7995 ] final  -61.05 input   59.86 | X-H torsion
[ 10167 10162 10161 10158 ] final  137.06 input  -65.29 | X-H torsion
[ 10718 10713 10712 10709 ] final  -50.05 input   66.30 | X-H torsion
[ 10763 10752 10751 10750 ] final   83.22 input  -60.55 | X-H torsion
[ 11005 11000 10999 10996 ] final  173.07 input  -57.11 | X-H torsion

> <Gold.Protein.ActiveResidues>
 VAL166  LYS551  ARG553  GLY616  TRP617  ASP618  TYR619  PRO620  LYS621  CYS622 
 ASP623  PHE694  ASN695  SER759  ASP760  ASP761  ALA762  ILE779  LEU786  VAL792 
 PHE793  MET794  SER795  GLU796  ALA797  LYS798  CYS799  TRP800  GLU811  SER814 

> <Gold.Protein.RotatedAtoms>
  151.6902  133.3311  159.3240 H   0  0  0  0  0  0  0  0  0  0  0  0  # atno 6907 bound_to 6896
  150.7782  134.6705  159.6398 H   0  0  0  0  0  0  0  0  0  0  0  0  # atno 6908 bound_to 6896
  152.3832  134.6562  160.0187 H   0  0  0  0  0  0  0  0  0  0  0  0  # atno 6909 bound_to 6896
  146.0734  140.6176  142.8941 H   0  0  0  0  0  0  0  0  0  0  0  0  # atno 7974 bound_to 7965
  154.4428  140.1026  156.6369 H   0  0  0  0  0  0  0  0  0  0  0  0  # atno 8008 bound_to 7997
  155.5543  140.3486  155.4457 H   0  0  0  0  0  0  0  0  0  0  0  0  # atno 8009 bound_to 7997
  156.0506  140.1303  157.0044 H   0  0  0  0  0  0  0  0  0  0  0  0  # atno 8010 bound_to 7997
  139.5157  144.6430  151.5516 H   0  0  0  0  0  0  0  0  0  0  0  0  # atno 10167 bound_to 10162
  156.1836  130.4151  149.9471 H   0  0  0  0  0  0  0  0  0  0  0  0  # atno 10718 bound_to 10713
  153.1272  135.4699  154.9291 H   0  0  0  0  0  0  0  0  0  0  0  0  # atno 10763 bound_to 10752
  154.7631  135.3137  154.8342 H   0  0  0  0  0  0  0  0  0  0  0  0  # atno 10764 bound_to 10752
  153.8893  135.6886  153.4815 H   0  0  0  0  0  0  0  0  0  0  0  0  # atno 10765 bound_to 10752
  140.3365  134.7313  157.4172 H   0  0  0  0  0  0  0  0  0  0  0  0  # atno 11005 bound_to 11000
  144.7246  140.4484  143.6982 LP  0  0  0  0  0  0  0  0  0  0  0  0  # atno 17320 bound_to 7965
  145.6349  139.1541  143.2948 LP  0  0  0  0  0  0  0  0  0  0  0  0  # atno 17321 bound_to 7965
  140.6205  143.9268  150.6522 LP  0  0  0  0  0  0  0  0  0  0  0  0  # atno 17342 bound_to 10162
  140.2540  143.3572  152.1381 LP  0  0  0  0  0  0  0  0  0  0  0  0  # atno 17343 bound_to 10162
  156.7233  130.9015  151.3620 LP  0  0  0  0  0  0  0  0  0  0  0  0  # atno 17370 bound_to 10713
  157.6884  130.9209  150.0448 LP  0  0  0  0  0  0  0  0  0  0  0  0  # atno 17371 bound_to 10713
  140.0817  134.5722  155.8534 LP  0  0  0  0  0  0  0  0  0  0  0  0  # atno 17394 bound_to 11000
  141.2050  133.6643  156.6153 LP  0  0  0  0  0  0  0  0  0  0  0  0  # atno 17395 bound_to 11000

$$$$
