AV-unprocessed.smi:3120|AV-procd|sdf|11893|dock3
  -GOLD-   2272017283D 1   1.00000     0.00000
 Structure written by MMmdl.
 22 23  0  0  0  0  0  0  0  0  1 V2000
  151.8346  145.1135  158.5424 O   0  0  0  0  0  0  0  0  0  0  0  0
  151.6453  143.9596  158.1625 C   0  0  0  0  0  0  0  0  0  0  0  0
  150.6735  143.5636  157.3418 N   0  0  0  0  0  0  0  0  0  0  0  0
  150.7007  142.1420  157.0567 C   0  0  0  0  0  0  0  0  0  0  0  0
  151.7251  141.5648  158.0459 C   0  0  0  0  0  0  0  0  0  0  0  0
  152.5108  142.7756  158.5803 C   0  0  2  0  0  0  0  0  0  0  0  0
  152.7763  142.7420  160.0818 C   0  0  0  0  0  0  0  0  0  0  0  0
  153.4930  141.6856  160.6880 C   0  0  0  0  0  0  0  0  0  0  0  0
  153.7060  141.7157  162.0793 C   0  0  0  0  0  0  0  0  0  0  0  0
  153.1927  142.8037  162.8123 C   0  0  0  0  0  0  0  0  0  0  0  0
  152.5060  143.8195  162.2472 N   0  0  0  0  0  0  0  0  0  0  0  0
  152.3055  143.7821  160.9123 C   0  0  0  0  0  0  0  0  0  0  0  0
  149.9839  144.1843  156.9430 H   0  0  0  0  0  0  0  0  0  0  0  0
  149.7138  141.6959  157.1823 H   0  0  0  0  0  0  0  0  0  0  0  0
  151.0199  141.9890  156.0251 H   0  0  0  0  0  0  0  0  0  0  0  0
  151.1943  141.0562  158.8517 H   0  0  0  0  0  0  0  0  0  0  0  0
  152.3781  140.8274  157.5782 H   0  0  0  0  0  0  0  0  0  0  0  0
  153.4552  142.8625  158.0411 H   0  0  0  0  0  0  0  0  0  0  0  0
  153.8739  140.8644  160.0987 H   0  0  0  0  0  0  0  0  0  0  0  0
  154.2494  140.9236  162.5730 H   0  0  0  0  0  0  0  0  0  0  0  0
  153.3384  142.8603  163.8808 H   0  0  0  0  0  0  0  0  0  0  0  0
  151.7525  144.6111  160.4952 H   0  0  0  0  0  0  0  0  0  0  0  0
  1  2  2  0  0  0  0
  2  6  1  0  0  0  0
  2  3  1  0  0  0  0
  3  4  1  0  0  0  0
  3 13  1  0  0  0  0
  4  5  1  0  0  0  0
  4 14  1  0  0  0  0
  4 15  1  0  0  0  0
  5  6  1  0  0  0  0
  5 16  1  0  0  0  0
  5 17  1  0  0  0  0
  6  7  1  0  0  0  0
  6 18  1  0  0  0  0
  7 12  1  0  0  0  0
  7  8  2  0  0  0  0
  8  9  1  0  0  0  0
  8 19  1  0  0  0  0
  9 10  2  0  0  0  0
  9 20  1  0  0  0  0
 10 11  1  0  0  0  0
 10 21  1  0  0  0  0
 11 12  2  0  0  0  0
 12 22  1  0  0  0  0
M  END
> <s_m_source_file>
AV-unprocessed.smi

> <i_m_source_file_index>
3120

> <i_lp_mmshare_version>
43012

> <i_f3d_flags>
0

> <s_epik_input>
Tz1DMVtOSF1bQ0gyXVtDSDJdW0NASF0xYzJbY0hdW2NIXVtjSF1uW2NIXTI=

> <s_epik_cmdline>
J2VwaWtfcHl0aG9uJywgJy1waCcsICc3LjAnLCAnLXRuJywgJzgnLCAnLW1hJywgJzIwMCcsICctbWV0YWxfYmluZGluZycsICctaW1hZScsICc8aW5maWxlLm1hZT4nLCAnLW9tYWUnLCAnPG91dGZpbGUubWFlPic=

> <r_epik_Ionization_Penalty>
0.00558523

> <r_epik_Ionization_Penalty_Charging>
0

> <r_epik_Ionization_Penalty_Neutral>
0.00558523

> <r_epik_State_Penalty>
0.00409114

> <r_epik_Charging_Adjusted_Penalty>
0.00409114

> <i_epik_Tot_Q>
0

> <i_epik_Tot_abs_Q>
0

> <r_epik_Metal_State_Penalty>
-0

> <b_epik_Metal_Only>
0

> <s_lp_Force_Field>
OPLS_2005

> <r_lp_Energy>
14.9187

> <b_lp_Chiralities_Consistent>
1

> <s_lp_Variant>
AV-unprocessed.smi:3120-2

> <Gold.Version>
5.8.1

> <Gold.Id.Protein>
6NUR|6NUR_protein|mol2

> <Gold.PLP.Fitness>
36.6276

> <Gold.PLP.PLP>
-33.6499

> <Gold.PLP.part.hbond>
-1.0000

> <Gold.PLP.part.metal>
0.0000

> <Gold.PLP.part.buried>
-4.3931

> <Gold.PLP.part.nonpolar>
-28.0399

> <Gold.PLP.part.repulsive>
0.2646

> <Gold.PLP.ligand.clash>
0.0000

> <Gold.PLP.ligand.torsion>
0.0149

> <Gold.PLP.Chemscore.Hbond>
1.0000

> <Gold.PLP.Chemscore.CHOScore>
0.0000

> <Gold.PLP.Chemscore.Metal>
0.0000

> <Gold.Chemscore.Hbonds>
donor molecule, donor type, donor heavy atom, donor atom, acceptor molecule, acceptor atom, score
      L1  H     3    13       P1  8028  1.00

> <Gold.PLP.Chemscore.Internal.Correction>
0.0075

> <Gold.Rescore>
     Score         DG    S(hbond)    S(metal)    S(lipo)     H(rot)  DE(clash)    DE(int)     intcor
     14.61     -16.08       0.98        0.00      84.40       1.00       0.02       1.44       ----

> <Gold.Chemscore.Fitness>
14.6114

> <Gold.Chemscore.DG>
-16.0795

> <Gold.Chemscore.ZeroCoef>
-5.4800

> <Gold.Chemscore.Hbond>
0.9835

> <Gold.Chemscore.Metal>
0.0000

> <Gold.Chemscore.Lipo>
84.3975

> <Gold.Chemscore.Internal_Hbond>
0.0000

> <Gold.Chemscore.DEClash>
0.0242

> <Gold.Chemscore.DEInternal>
1.4438

> <Gold.Chemscore.Rot>
1.0000

> <Gold.Chemscore.Internal.Correction>
   9.000000E+99

> <Gold.Chemscore.Hbonds>
donor molecule, donor type, donor heavy atom, donor atom, acceptor molecule, acceptor atom, score
      L1  H     3    13       P1  8028  0.86

> <Gold.Chemscore.Hbond.Weighted>
-3.2850

> <Gold.Chemscore.Metal.Weighted>
-0.0000

> <Gold.Chemscore.Lipo.Weighted>
-9.8745

> <Gold.Chemscore.Internal_Hbond.Weighted>
0.0000

> <Gold.Chemscore.DEClash.Weighted>
0.0242

> <Gold.Chemscore.DEInternal.Weighted>
1.4438

> <Gold.Chemscore.Rot.Weighted>
2.5600

> <Gold.Chemscore.Internal.Correction.Weighted>
   9.000000E+99

> <Gold.Protein.RotatedTorsions>
[ 6907 6896 6895 6894 ] final   83.68 input  -60.11 | X-H torsion
[ 7974 7965 7964 7962 ] final  -33.52 input  175.53 | X-H torsion
[ 8008 7997 7996 7995 ] final  151.16 input   59.86 | X-H torsion
[ 10167 10162 10161 10158 ] final -171.29 input  -65.29 | X-H torsion
[ 10718 10713 10712 10709 ] final   36.64 input   66.30 | X-H torsion
[ 10763 10752 10751 10750 ] final -151.46 input  -60.55 | X-H torsion
[ 11005 11000 10999 10996 ] final  -37.72 input  -57.11 | X-H torsion

> <Gold.Protein.ActiveResidues>
 VAL166  LYS551  ARG553  GLY616  TRP617  ASP618  TYR619  PRO620  LYS621  CYS622 
 ASP623  PHE694  ASN695  SER759  ASP760  ASP761  ALA762  ILE779  LEU786  VAL792 
 PHE793  MET794  SER795  GLU796  ALA797  LYS798  CYS799  TRP800  GLU811  SER814 

> <Gold.Protein.RotatedAtoms>
  152.5333  134.2858  159.9024 H   0  0  0  0  0  0  0  0  0  0  0  0  # atno 6907 bound_to 6896
  151.2811  133.4202  159.2634 H   0  0  0  0  0  0  0  0  0  0  0  0  # atno 6908 bound_to 6896
  151.0282  134.9535  159.8153 H   0  0  0  0  0  0  0  0  0  0  0  0  # atno 6909 bound_to 6896
  146.0904  140.5926  142.8867 H   0  0  0  0  0  0  0  0  0  0  0  0  # atno 7974 bound_to 7965
  156.2685  140.2055  156.6132 H   0  0  0  0  0  0  0  0  0  0  0  0  # atno 8008 bound_to 7997
  154.6815  140.0539  157.0294 H   0  0  0  0  0  0  0  0  0  0  0  0  # atno 8009 bound_to 7997
  155.0994  140.3204  155.4554 H   0  0  0  0  0  0  0  0  0  0  0  0  # atno 8010 bound_to 7997
  139.5811  144.1421  152.1516 H   0  0  0  0  0  0  0  0  0  0  0  0  # atno 10167 bound_to 10162
  157.3373  130.7529  149.6888 H   0  0  0  0  0  0  0  0  0  0  0  0  # atno 10718 bound_to 10713
  154.8056  135.3259  154.7438 H   0  0  0  0  0  0  0  0  0  0  0  0  # atno 10763 bound_to 10752
  153.8097  135.6896  153.4847 H   0  0  0  0  0  0  0  0  0  0  0  0  # atno 10764 bound_to 10752
  153.1800  135.4590  154.9960 H   0  0  0  0  0  0  0  0  0  0  0  0  # atno 10765 bound_to 10752
  140.9973  133.6973  156.1959 H   0  0  0  0  0  0  0  0  0  0  0  0  # atno 11005 bound_to 11000
  144.7356  140.4798  143.6906 LP  0  0  0  0  0  0  0  0  0  0  0  0  # atno 17320 bound_to 7965
  145.6050  139.1507  143.3108 LP  0  0  0  0  0  0  0  0  0  0  0  0  # atno 17321 bound_to 7965
  140.0975  144.5568  150.7012 LP  0  0  0  0  0  0  0  0  0  0  0  0  # atno 17342 bound_to 10162
  140.7089  143.2489  151.4642 LP  0  0  0  0  0  0  0  0  0  0  0  0  # atno 17343 bound_to 10162
  155.9703  130.4178  150.4295 LP  0  0  0  0  0  0  0  0  0  0  0  0  # atno 17370 bound_to 10713
  157.2337  131.0510  151.2477 LP  0  0  0  0  0  0  0  0  0  0  0  0  # atno 17371 bound_to 10713
  140.6945  134.4631  157.5588 LP  0  0  0  0  0  0  0  0  0  0  0  0  # atno 17394 bound_to 11000
  139.9021  134.8532  156.1852 LP  0  0  0  0  0  0  0  0  0  0  0  0  # atno 17395 bound_to 11000

$$$$
