AV-unprocessed.smi:3089|AV-procd|sdf|11772|dock3
  -GOLD-   2272017153D 1   1.00000     0.00000
 Structure written by MMmdl.
 24 24  0  0  0  0  0  0  0  0  1 V2000
  152.2446  141.2577  158.5537 C   0  0  0  0  0  0  0  0  0  0  0  0
  151.6738  140.8168  157.2992 N   0  0  0  0  0  0  0  0  0  0  0  0
  150.4454  141.1257  156.7573 C   0  0  0  0  0  0  0  0  0  0  0  0
  150.3478  140.4811  155.5547 C   0  0  0  0  0  0  0  0  0  0  0  0
  149.2002  140.4961  154.5668 C   0  0  1  0  0  0  0  0  0  0  0  0
  148.0620  141.3809  155.1051 C   0  0  0  0  0  0  0  0  0  0  0  0
  149.5658  141.0699  153.3259 O   0  0  0  0  0  0  0  0  0  0  0  0
  148.6705  139.0749  154.2726 C   0  0  0  0  0  0  0  0  0  0  0  0
  149.5754  138.2673  153.4368 N   0  0  0  0  0  0  0  0  0  0  0  0
  151.5912  139.7892  155.4583 C   0  0  0  0  0  0  0  0  0  0  0  0
  152.3809  139.9928  156.5003 N   0  0  0  0  0  0  0  0  0  0  0  0
  151.5508  141.9241  159.0664 H   0  0  0  0  0  0  0  0  0  0  0  0
  153.1765  141.7925  158.3674 H   0  0  0  0  0  0  0  0  0  0  0  0
  152.4456  140.3964  159.1914 H   0  0  0  0  0  0  0  0  0  0  0  0
  149.7468  141.7741  157.2651 H   0  0  0  0  0  0  0  0  0  0  0  0
  147.6765  141.0009  156.0519 H   0  0  0  0  0  0  0  0  0  0  0  0
  147.2245  141.4242  154.4076 H   0  0  0  0  0  0  0  0  0  0  0  0
  148.4013  142.4035  155.2769 H   0  0  0  0  0  0  0  0  0  0  0  0
  149.3847  140.4442  152.6415 H   0  0  0  0  0  0  0  0  0  0  0  0
  148.5181  138.5519  155.2173 H   0  0  0  0  0  0  0  0  0  0  0  0
  147.6871  139.1348  153.8047 H   0  0  0  0  0  0  0  0  0  0  0  0
  149.0732  137.4852  153.0191 H   0  0  0  0  0  0  0  0  0  0  0  0
  149.9454  138.8293  152.6713 H   0  0  0  0  0  0  0  0  0  0  0  0
  151.9418  139.1478  154.6631 H   0  0  0  0  0  0  0  0  0  0  0  0
  1  2  1  0  0  0  0
  1 12  1  0  0  0  0
  1 13  1  0  0  0  0
  1 14  1  0  0  0  0
  2 11  1  0  0  0  0
  2  3  1  0  0  0  0
  3  4  2  0  0  0  0
  3 15  1  0  0  0  0
  4  5  1  0  0  0  0
  4 10  1  0  0  0  0
  5  6  1  0  0  0  0
  5  7  1  0  0  0  0
  5  8  1  0  0  0  0
  6 16  1  0  0  0  0
  6 17  1  0  0  0  0
  6 18  1  0  0  0  0
  7 19  1  0  0  0  0
  8  9  1  0  0  0  0
  8 20  1  0  0  0  0
  8 21  1  0  0  0  0
  9 22  1  0  0  0  0
  9 23  1  0  0  0  0
 10 11  2  0  0  0  0
 10 24  1  0  0  0  0
M  END
> <s_m_source_file>
AV-unprocessed.smi

> <i_m_source_file_index>
3089

> <i_lp_mmshare_version>
43012

> <i_f3d_flags>
0

> <s_epik_input>
W0NIM11uMVtjSF1jKFtjSF1uMSlbQ0BAXShbQ0gzXSkoW09IXSlbQ0gyXVtOSDJd

> <s_epik_cmdline>
J2VwaWtfcHl0aG9uJywgJy1waCcsICc3LjAnLCAnLXRuJywgJzgnLCAnLW1hJywgJzIwMCcsICctbWV0YWxfYmluZGluZycsICctaW1hZScsICc8aW5maWxlLm1hZT4nLCAnLW9tYWUnLCAnPG91dGZpbGUubWFlPic=

> <r_lp_tautomer_probability>
1

> <r_epik_Ionization_Penalty>
2.22427

> <r_epik_Ionization_Penalty_Charging>
0

> <r_epik_Ionization_Penalty_Neutral>
2.22427

> <r_epik_State_Penalty>
2.36938

> <r_epik_Charging_Adjusted_Penalty>
2.36938

> <i_epik_Tot_Q>
0

> <i_epik_Tot_abs_Q>
0

> <r_epik_Metal_State_Penalty>
2.36933

> <b_epik_Metal_Only>
0

> <s_lp_Force_Field>
OPLS_2005

> <r_lp_Energy>
8.30458

> <b_lp_Chiralities_Consistent>
1

> <s_lp_Variant>
AV-unprocessed.smi:3089-3

> <Gold.Version>
5.8.1

> <Gold.Id.Protein>
6NUR|6NUR_protein|mol2

> <Gold.PLP.Fitness>
37.7705

> <Gold.PLP.PLP>
-23.1600

> <Gold.PLP.part.hbond>
-5.5133

> <Gold.PLP.part.metal>
0.0000

> <Gold.PLP.part.buried>
-1.7885

> <Gold.PLP.part.nonpolar>
-16.4294

> <Gold.PLP.part.repulsive>
0.0000

> <Gold.PLP.ligand.clash>
0.0000

> <Gold.PLP.ligand.torsion>
0.1369

> <Gold.PLP.Chemscore.Hbond>
4.9545

> <Gold.PLP.Chemscore.CHOScore>
0.0000

> <Gold.PLP.Chemscore.Metal>
0.0000

> <Gold.Chemscore.Hbonds>
donor molecule, donor type, donor heavy atom, donor atom, acceptor molecule, acceptor atom, score
      L1  H     7    19       P1  7957  0.93
      L1  H     9    22       P1  7948  0.99
      L1  H     9    23       P1  7957  0.99
      P1  H  7989  7998       L1     7  0.17
      P1  H  7997  8010       L1    11  1.00
      P1  H  8011  8017       L1     7  0.85

> <Gold.PLP.Chemscore.Internal.Correction>
0.0209

> <Gold.Rescore>
     Score         DG    S(hbond)    S(metal)    S(lipo)     H(rot)  DE(clash)    DE(int)     intcor
     18.11     -18.27       3.74        0.00      42.65       1.84       0.00       0.15       ----

> <Gold.Chemscore.Fitness>
18.1102

> <Gold.Chemscore.DG>
-18.2686

> <Gold.Chemscore.ZeroCoef>
-5.4800

> <Gold.Chemscore.Hbond>
3.7440

> <Gold.Chemscore.Metal>
0.0000

> <Gold.Chemscore.Lipo>
42.6533

> <Gold.Chemscore.Internal_Hbond>
0.0000

> <Gold.Chemscore.DEClash>
0.0038

> <Gold.Chemscore.DEInternal>
0.1546

> <Gold.Chemscore.Rot>
1.8386

> <Gold.Chemscore.Internal.Correction>
   9.000000E+99

> <Gold.Chemscore.Hbonds>
donor molecule, donor type, donor heavy atom, donor atom, acceptor molecule, acceptor atom, score
      L1  H     7    19       P1  7957  0.85
      L1  H     9    22       P1  7948  0.93
      L1  H     9    23       P1  7957  0.56
      P1  H  7989  7998       L1     7  0.01
      P1  H  7997  8010       L1    11  0.88
      P1  H  8011  8017       L1     7  0.14

> <Gold.Chemscore.Hbond.Weighted>
-12.5051

> <Gold.Chemscore.Metal.Weighted>
-0.0000

> <Gold.Chemscore.Lipo.Weighted>
-4.9904

> <Gold.Chemscore.Internal_Hbond.Weighted>
0.0000

> <Gold.Chemscore.DEClash.Weighted>
0.0038

> <Gold.Chemscore.DEInternal.Weighted>
0.1546

> <Gold.Chemscore.Rot.Weighted>
4.7069

> <Gold.Chemscore.Internal.Correction.Weighted>
   9.000000E+99

> <Gold.Protein.RotatedTorsions>
[ 6907 6896 6895 6894 ] final   51.12 input  -60.11 | X-H torsion
[ 7974 7965 7964 7962 ] final -100.95 input  175.53 | X-H torsion
[ 8008 7997 7996 7995 ] final   60.05 input   59.86 | X-H torsion
[ 10167 10162 10161 10158 ] final  146.12 input  -65.29 | X-H torsion
[ 10718 10713 10712 10709 ] final -101.23 input   66.30 | X-H torsion
[ 10763 10752 10751 10750 ] final -153.96 input  -60.55 | X-H torsion
[ 11005 11000 10999 10996 ] final   45.52 input  -57.11 | X-H torsion

> <Gold.Protein.ActiveResidues>
 VAL166  LYS551  ARG553  GLY616  TRP617  ASP618  TYR619  PRO620  LYS621  CYS622 
 ASP623  PHE694  ASN695  SER759  ASP760  ASP761  ALA762  ILE779  LEU786  VAL792 
 PHE793  MET794  SER795  GLU796  ALA797  LYS798  CYS799  TRP800  GLU811  SER814 

> <Gold.Protein.RotatedAtoms>
  152.3093  134.7517  160.0339 H   0  0  0  0  0  0  0  0  0  0  0  0  # atno 6907 bound_to 6896
  151.8004  133.3364  159.3533 H   0  0  0  0  0  0  0  0  0  0  0  0  # atno 6908 bound_to 6896
  150.7312  134.5689  159.5925 H   0  0  0  0  0  0  0  0  0  0  0  0  # atno 6909 bound_to 6896
  145.2879  140.9344  143.2895 H   0  0  0  0  0  0  0  0  0  0  0  0  # atno 7974 bound_to 7965
  155.5761  140.3490  155.4528 H   0  0  0  0  0  0  0  0  0  0  0  0  # atno 8008 bound_to 7997
  156.0408  140.1295  157.0183 H   0  0  0  0  0  0  0  0  0  0  0  0  # atno 8009 bound_to 7997
  154.4391  140.1024  156.6219 H   0  0  0  0  0  0  0  0  0  0  0  0  # atno 8010 bound_to 7997
  139.4913  144.5852  151.6792 H   0  0  0  0  0  0  0  0  0  0  0  0  # atno 10167 bound_to 10162
  156.0188  130.5364  150.6933 H   0  0  0  0  0  0  0  0  0  0  0  0  # atno 10718 bound_to 10713
  154.7892  135.3201  154.7816 H   0  0  0  0  0  0  0  0  0  0  0  0  # atno 10763 bound_to 10752
  153.8509  135.6862  153.4797 H   0  0  0  0  0  0  0  0  0  0  0  0  # atno 10764 bound_to 10752
  153.1555  135.4682  154.9638 H   0  0  0  0  0  0  0  0  0  0  0  0  # atno 10765 bound_to 10752
  140.1452  134.4532  155.8421 H   0  0  0  0  0  0  0  0  0  0  0  0  # atno 11005 bound_to 11000
  144.9198  139.4426  143.6547 LP  0  0  0  0  0  0  0  0  0  0  0  0  # atno 17320 bound_to 7965
  146.3195  139.8052  142.8957 LP  0  0  0  0  0  0  0  0  0  0  0  0  # atno 17321 bound_to 7965
  140.5467  144.0492  150.6110 LP  0  0  0  0  0  0  0  0  0  0  0  0  # atno 17342 bound_to 10162
  140.3532  143.2951  152.0464 LP  0  0  0  0  0  0  0  0  0  0  0  0  # atno 17343 bound_to 10162
  157.4610  131.0883  151.0746 LP  0  0  0  0  0  0  0  0  0  0  0  0  # atno 17370 bound_to 10713
  157.1233  130.6071  149.5510 LP  0  0  0  0  0  0  0  0  0  0  0  0  # atno 17371 bound_to 10713
  141.2191  133.6849  156.7321 LP  0  0  0  0  0  0  0  0  0  0  0  0  # atno 17394 bound_to 11000
  140.2672  134.8420  157.3814 LP  0  0  0  0  0  0  0  0  0  0  0  0  # atno 17395 bound_to 11000

$$$$
