AV-unprocessed.smi:438|AV-procd|sdf|2563|dock10
  -GOLD-   2262022533D 1   1.00000     0.00000
 Structure written by MMmdl.
 48 49  0  0  0  0  0  0  0  0  1 V2000
  146.9536  136.1295  155.9327 C   0  0  0  0  0  0  0  0  0  0  0  0
  146.9646  137.2100  154.8660 C   0  0  0  0  0  0  0  0  0  0  0  0
  147.0111  138.5273  155.3389 N   0  0  0  0  0  0  0  0  0  0  0  0
  147.0279  139.5171  154.5045 C   0  0  0  0  0  0  0  0  0  0  0  0
  147.0881  141.3004  154.8400 S   0  0  0  0  0  0  0  0  0  0  0  0
  148.8793  141.5850  154.9038 C   0  0  0  0  0  0  0  0  0  0  0  0
  149.3967  141.7096  156.3345 C   0  0  0  0  0  0  0  0  0  0  0  0
  149.2071  140.7976  157.1390 O   0  0  0  0  0  0  0  0  0  0  0  0
  150.0451  142.8442  156.6397 N   0  0  0  0  0  0  0  0  0  0  0  0
  150.6249  143.1668  157.9418 C   0  0  2  0  0  0  0  0  0  0  0  0
  150.7462  144.6985  158.0921 C   0  0  0  0  0  0  0  0  0  0  0  0
  151.4178  145.0887  159.4165 C   0  0  0  0  0  0  0  0  0  0  0  0
  152.7898  144.4162  159.5558 C   0  0  0  0  0  0  0  0  0  0  0  0
  152.6692  142.8904  159.4300 C   0  0  0  0  0  0  0  0  0  0  0  0
  152.0016  142.4741  158.1036 C   0  0  1  0  0  0  0  0  0  0  0  0
  151.9057  140.9406  158.0067 C   0  0  0  0  0  0  0  0  0  0  0  0
  146.9977  139.2837  153.1289 N   0  0  0  0  0  0  0  0  0  0  0  0
  146.9438  138.0528  152.5729 C   0  0  0  0  0  0  0  0  0  0  0  0
  146.9088  137.9216  151.3505 O   0  0  0  0  0  0  0  0  0  0  0  0
  146.9278  136.9357  153.5320 C   0  0  0  0  0  0  0  0  0  0  0  0
  146.8917  135.5168  152.9709 C   0  0  0  0  0  0  0  0  0  0  0  0
  145.5471  135.1929  152.3038 C   0  0  0  0  0  0  0  0  0  0  0  0
  144.4922  135.7439  153.0615 O   0  0  0  0  0  0  0  0  0  0  0  0
  146.1328  135.4314  155.7671 H   0  0  0  0  0  0  0  0  0  0  0  0
  146.8305  136.5568  156.9286 H   0  0  0  0  0  0  0  0  0  0  0  0
  147.8915  135.5737  155.9190 H   0  0  0  0  0  0  0  0  0  0  0  0
  149.1180  142.4862  154.3368 H   0  0  0  0  0  0  0  0  0  0  0  0
  149.3905  140.7545  154.4161 H   0  0  0  0  0  0  0  0  0  0  0  0
  150.1510  143.5372  155.9133 H   0  0  0  0  0  0  0  0  0  0  0  0
  149.9655  142.7924  158.7274 H   0  0  0  0  0  0  0  0  0  0  0  0
  151.3245  145.1063  157.2620 H   0  0  0  0  0  0  0  0  0  0  0  0
  149.7603  145.1617  158.0363 H   0  0  0  0  0  0  0  0  0  0  0  0
  151.5266  146.1722  159.4733 H   0  0  0  0  0  0  0  0  0  0  0  0
  150.7793  144.7967  160.2513 H   0  0  0  0  0  0  0  0  0  0  0  0
  153.4647  144.7959  158.7877 H   0  0  0  0  0  0  0  0  0  0  0  0
  153.2354  144.6766  160.5162 H   0  0  0  0  0  0  0  0  0  0  0  0
  153.6603  142.4414  159.5051 H   0  0  0  0  0  0  0  0  0  0  0  0
  152.0920  142.5024  160.2705 H   0  0  0  0  0  0  0  0  0  0  0  0
  152.6473  142.8125  157.2915 H   0  0  0  0  0  0  0  0  0  0  0  0
  151.2489  140.5365  158.7777 H   0  0  0  0  0  0  0  0  0  0  0  0
  152.8857  140.4792  158.1308 H   0  0  0  0  0  0  0  0  0  0  0  0
  151.5191  140.6197  157.0392 H   0  0  0  0  0  0  0  0  0  0  0  0
  147.0103  140.0778  152.5055 H   0  0  0  0  0  0  0  0  0  0  0  0
  147.0904  134.7947  153.7626 H   0  0  0  0  0  0  0  0  0  0  0  0
  147.7057  135.3865  152.2561 H   0  0  0  0  0  0  0  0  0  0  0  0
  145.5091  135.6011  151.2935 H   0  0  0  0  0  0  0  0  0  0  0  0
  145.4021  134.1148  152.2266 H   0  0  0  0  0  0  0  0  0  0  0  0
  143.9449  136.2565  152.4864 H   0  0  0  0  0  0  0  0  0  0  0  0
  1 24  1  0  0  0  0
  1 25  1  0  0  0  0
  1 26  1  0  0  0  0
  1  2  1  0  0  0  0
  2 20  2  0  0  0  0
  2  3  1  0  0  0  0
  3  4  2  0  0  0  0
  4  5  1  0  0  0  0
  4 17  1  0  0  0  0
  5  6  1  0  0  0  0
  6  7  1  0  0  0  0
  6 27  1  0  0  0  0
  6 28  1  0  0  0  0
  7  8  2  0  0  0  0
  7  9  1  0  0  0  0
  9 10  1  0  0  0  0
  9 29  1  0  0  0  0
 10 15  1  0  0  0  0
 10 11  1  0  0  0  0
 10 30  1  0  0  0  0
 11 12  1  0  0  0  0
 11 31  1  0  0  0  0
 11 32  1  0  0  0  0
 12 13  1  0  0  0  0
 12 33  1  0  0  0  0
 12 34  1  0  0  0  0
 13 14  1  0  0  0  0
 13 35  1  0  0  0  0
 13 36  1  0  0  0  0
 14 15  1  0  0  0  0
 14 37  1  0  0  0  0
 14 38  1  0  0  0  0
 15 16  1  0  0  0  0
 15 39  1  0  0  0  0
 16 40  1  0  0  0  0
 16 41  1  0  0  0  0
 16 42  1  0  0  0  0
 17 43  1  0  0  0  0
 17 18  1  0  0  0  0
 18 19  2  0  0  0  0
 18 20  1  0  0  0  0
 20 21  1  0  0  0  0
 21 22  1  0  0  0  0
 21 44  1  0  0  0  0
 21 45  1  0  0  0  0
 22 23  1  0  0  0  0
 22 46  1  0  0  0  0
 22 47  1  0  0  0  0
 23 48  1  0  0  0  0
M  END
> <s_m_source_file>
AV-unprocessed.smi

> <i_m_source_file_index>
438

> <i_lp_mmshare_version>
43012

> <i_f3d_flags>
0

> <s_epik_input>
W09IXVtDSDJdW0NIMl1jMWMoW09IXSluYyhuYzFbQ0gzXSlTW0NIMl1DKD1PKVtOSF1bQ0BASF0yW0NIMl1bQ0gyXVtDSDJdW0NIMl1bQ0BIXTJbQ0gzXQ==

> <s_epik_cmdline>
J2VwaWtfcHl0aG9uJywgJy1waCcsICc3LjAnLCAnLXRuJywgJzgnLCAnLW1hJywgJzIwMCcsICctbWV0YWxfYmluZGluZycsICctaW1hZScsICc8aW5maWxlLm1hZT4nLCAnLW9tYWUnLCAnPG91dGZpbGUubWFlPic=

> <r_lp_tautomer_probability>
0.660323

> <r_epik_Ionization_Penalty>
0.00860626

> <r_epik_Ionization_Penalty_Charging>
0.00860522

> <r_epik_Ionization_Penalty_Neutral>
1.04215e-06

> <r_epik_State_Penalty>
0.156825

> <r_epik_Charging_Adjusted_Penalty>
0.16543

> <i_epik_Tot_Q>
0

> <i_epik_Tot_abs_Q>
0

> <r_epik_Metal_State_Penalty>
0.752038

> <b_epik_Metal_Only>
0

> <s_lp_Force_Field>
OPLS_2005

> <r_lp_Energy>
14.035

> <b_lp_Chiralities_Consistent>
1

> <s_lp_Variant>
AV-unprocessed.smi:438-1

> <Gold.Version>
5.8.1

> <Gold.Id.Protein>
6NUR|6NUR_protein|mol2

> <Gold.PLP.Fitness>
48.9096

> <Gold.PLP.PLP>
-44.0471

> <Gold.PLP.part.hbond>
-5.0000

> <Gold.PLP.part.metal>
0.0000

> <Gold.PLP.part.buried>
-4.1631

> <Gold.PLP.part.nonpolar>
-37.3557

> <Gold.PLP.part.repulsive>
1.7970

> <Gold.PLP.ligand.clash>
0.0000

> <Gold.PLP.ligand.torsion>
1.1648

> <Gold.PLP.Chemscore.Hbond>
2.3764

> <Gold.PLP.Chemscore.CHOScore>
0.0000

> <Gold.PLP.Chemscore.Metal>
0.0000

> <Gold.Chemscore.Hbonds>
donor molecule, donor type, donor heavy atom, donor atom, acceptor molecule, acceptor atom, score
      L1  H     9    29       P1  8028  0.40
      P1  H  7954  7966       L1    19  1.00

> <Gold.PLP.Chemscore.Internal.Correction>
0.0630

> <Gold.Rescore>
     Score         DG    S(hbond)    S(metal)    S(lipo)     H(rot)  DE(clash)    DE(int)     intcor
     16.44     -19.10       2.86        0.00      97.51       2.86       1.83       0.83       ----

> <Gold.Chemscore.Fitness>
16.4448

> <Gold.Chemscore.DG>
-19.0981

> <Gold.Chemscore.ZeroCoef>
-5.4800

> <Gold.Chemscore.Hbond>
2.8572

> <Gold.Chemscore.Metal>
0.0000

> <Gold.Chemscore.Lipo>
97.5055

> <Gold.Chemscore.Internal_Hbond>
0.0000

> <Gold.Chemscore.DEClash>
1.8283

> <Gold.Chemscore.DEInternal>
0.8250

> <Gold.Chemscore.Rot>
2.8645

> <Gold.Chemscore.Internal.Correction>
   9.000000E+99

> <Gold.Chemscore.Hbonds>
donor molecule, donor type, donor heavy atom, donor atom, acceptor molecule, acceptor atom, score
      L1  H     9    29       P1  8028  0.40
      P1  H  7954  7966       L1    19  1.00

> <Gold.Chemscore.Hbond.Weighted>
-9.5431

> <Gold.Chemscore.Metal.Weighted>
-0.0000

> <Gold.Chemscore.Lipo.Weighted>
-11.4081

> <Gold.Chemscore.Internal_Hbond.Weighted>
0.0000

> <Gold.Chemscore.DEClash.Weighted>
1.8283

> <Gold.Chemscore.DEInternal.Weighted>
0.8250

> <Gold.Chemscore.Rot.Weighted>
7.3331

> <Gold.Chemscore.Internal.Correction.Weighted>
   9.000000E+99

> <Gold.Protein.RotatedTorsions>
[ 6907 6896 6895 6894 ] final   41.12 input  -60.11 | X-H torsion
[ 7974 7965 7964 7962 ] final -161.93 input  175.53 | X-H torsion
[ 8008 7997 7996 7995 ] final -121.74 input   59.86 | X-H torsion
[ 10167 10162 10161 10158 ] final -115.21 input  -65.29 | X-H torsion
[ 10718 10713 10712 10709 ] final  172.91 input   66.30 | X-H torsion
[ 10763 10752 10751 10750 ] final  140.68 input  -60.55 | X-H torsion
[ 11005 11000 10999 10996 ] final  167.30 input  -57.11 | X-H torsion

> <Gold.Protein.ActiveResidues>
 VAL166  LYS551  ARG553  GLY616  TRP617  ASP618  TYR619  PRO620  LYS621  CYS622 
 ASP623  PHE694  ASN695  SER759  ASP760  ASP761  ALA762  ILE779  LEU786  VAL792 
 PHE793  MET794  SER795  GLU796  ALA797  LYS798  CYS799  TRP800  GLU811  SER814 

> <Gold.Protein.RotatedAtoms>
  152.1912  134.8670  160.0517 H   0  0  0  0  0  0  0  0  0  0  0  0  # atno 6907 bound_to 6896
  151.9558  133.3675  159.4025 H   0  0  0  0  0  0  0  0  0  0  0  0  # atno 6908 bound_to 6896
  150.6935  134.4216  159.5251 H   0  0  0  0  0  0  0  0  0  0  0  0  # atno 6909 bound_to 6896
  144.7374  140.3326  143.6150 H   0  0  0  0  0  0  0  0  0  0  0  0  # atno 7974 bound_to 7965
  155.1530  140.0404  157.2825 H   0  0  0  0  0  0  0  0  0  0  0  0  # atno 8008 bound_to 7997
  154.6391  140.2542  155.7317 H   0  0  0  0  0  0  0  0  0  0  0  0  # atno 8009 bound_to 7997
  156.2523  140.2859  156.0776 H   0  0  0  0  0  0  0  0  0  0  0  0  # atno 8010 bound_to 7997
  140.0925  143.4686  152.1861 H   0  0  0  0  0  0  0  0  0  0  0  0  # atno 10167 bound_to 10162
  156.9720  131.0093  151.2903 H   0  0  0  0  0  0  0  0  0  0  0  0  # atno 10718 bound_to 10713
  153.9267  135.2994  155.3446 H   0  0  0  0  0  0  0  0  0  0  0  0  # atno 10763 bound_to 10752
  154.7547  135.4963  153.9357 H   0  0  0  0  0  0  0  0  0  0  0  0  # atno 10764 bound_to 10752
  153.1113  135.6760  153.9600 H   0  0  0  0  0  0  0  0  0  0  0  0  # atno 10765 bound_to 10752
  140.2754  134.7793  157.3712 H   0  0  0  0  0  0  0  0  0  0  0  0  # atno 11005 bound_to 11000
  145.7456  139.1778  143.2351 LP  0  0  0  0  0  0  0  0  0  0  0  0  # atno 17320 bound_to 7965
  146.1100  140.7440  142.9508 LP  0  0  0  0  0  0  0  0  0  0  0  0  # atno 17321 bound_to 7965
  139.5716  144.7466  151.3875 LP  0  0  0  0  0  0  0  0  0  0  0  0  # atno 17342 bound_to 10162
  140.7021  143.7606  150.7420 LP  0  0  0  0  0  0  0  0  0  0  0  0  # atno 17343 bound_to 10162
  157.5586  130.8230  149.8236 LP  0  0  0  0  0  0  0  0  0  0  0  0  # atno 17370 bound_to 10713
  156.0279  130.3773  150.1771 LP  0  0  0  0  0  0  0  0  0  0  0  0  # atno 17371 bound_to 10713
  140.1333  134.5066  155.8088 LP  0  0  0  0  0  0  0  0  0  0  0  0  # atno 17394 bound_to 11000
  141.2171  133.6798  156.7079 LP  0  0  0  0  0  0  0  0  0  0  0  0  # atno 17395 bound_to 11000

$$$$
