AV-unprocessed.smi:1710|AV-procd|sdf|6899|dock9
  -GOLD-   22720 8103D 1   1.00000     0.00000
 Structure written by MMmdl.
 36 37  0  0  0  0  0  0  0  0  1 V2000
  150.0062  139.1348  154.1593 C   0  0  0  0  0  0  0  0  0  0  0  0
  148.9110  140.5883  154.4255 S   0  0  0  0  0  0  0  0  0  0  0  0
  148.8933  140.8915  155.8648 O   0  0  0  0  0  0  0  0  0  0  0  0
  149.2947  141.6340  153.4649 O   0  0  0  0  0  0  0  0  0  0  0  0
  147.3289  140.0136  153.9833 N   0  0  0  0  0  0  0  0  0  0  0  0
  146.9453  139.9304  152.5594 C   0  0  0  0  0  0  0  0  0  0  0  0
  147.0231  138.4874  152.0304 C   0  0  0  0  0  0  0  0  0  0  0  0
  146.2073  137.5240  152.9083 C   0  0  0  0  0  0  0  0  0  0  0  0
  146.3449  136.1492  152.4356 N   0  0  0  0  0  0  0  0  0  0  0  0
  145.3386  135.3837  151.9896 C   0  0  0  0  0  0  0  0  0  0  0  0
  144.1684  135.7623  151.9339 O   0  0  0  0  0  0  0  0  0  0  0  0
  145.7763  134.1712  151.6121 N   0  0  0  0  0  0  0  0  0  0  0  0
  145.0019  133.0977  151.1037 C   0  0  0  0  0  0  0  0  0  0  0  0
  145.5043  131.7977  150.8240 C   0  0  0  0  0  0  0  0  0  0  0  0
  144.5517  130.9997  150.3630 N   0  0  0  0  0  0  0  0  0  0  0  0
  143.4454  131.7770  150.3484 N   0  0  0  0  0  0  0  0  0  0  0  0
  143.6716  133.0614  150.7918 C   0  0  0  0  0  0  0  0  0  0  0  0
  146.6911  137.6306  154.3615 C   0  0  0  0  0  0  0  0  0  0  0  0
  146.6086  139.0800  154.8723 C   0  0  0  0  0  0  0  0  0  0  0  0
  142.5525  131.4203  150.0385 H   0  0  0  0  0  0  0  0  0  0  0  0
  151.0308  139.4130  154.4046 H   0  0  0  0  0  0  0  0  0  0  0  0
  149.9643  138.8241  153.1171 H   0  0  0  0  0  0  0  0  0  0  0  0
  149.6986  138.3156  154.8067 H   0  0  0  0  0  0  0  0  0  0  0  0
  145.9244  140.3000  152.4568 H   0  0  0  0  0  0  0  0  0  0  0  0
  147.5714  140.5884  151.9577 H   0  0  0  0  0  0  0  0  0  0  0  0
  146.6562  138.4600  151.0038 H   0  0  0  0  0  0  0  0  0  0  0  0
  148.0623  138.1620  151.9894 H   0  0  0  0  0  0  0  0  0  0  0  0
  145.1550  137.8137  152.8757 H   0  0  0  0  0  0  0  0  0  0  0  0
  147.2746  135.7555  152.4448 H   0  0  0  0  0  0  0  0  0  0  0  0
  146.7673  133.9978  151.6944 H   0  0  0  0  0  0  0  0  0  0  0  0
  146.5078  131.4147  150.9372 H   0  0  0  0  0  0  0  0  0  0  0  0
  142.8873  133.8017  150.8426 H   0  0  0  0  0  0  0  0  0  0  0  0
  146.0885  136.9858  155.0024 H   0  0  0  0  0  0  0  0  0  0  0  0
  147.7150  137.2664  154.4405 H   0  0  0  0  0  0  0  0  0  0  0  0
  146.9956  139.1472  155.8887 H   0  0  0  0  0  0  0  0  0  0  0  0
  145.5641  139.3897  154.9207 H   0  0  0  0  0  0  0  0  0  0  0  0
  1  2  1  0  0  0  0
  1 21  1  0  0  0  0
  1 22  1  0  0  0  0
  1 23  1  0  0  0  0
  2  3  2  0  0  0  0
  2  4  2  0  0  0  0
  2  5  1  0  0  0  0
  5 19  1  0  0  0  0
  5  6  1  0  0  0  0
  6  7  1  0  0  0  0
  6 24  1  0  0  0  0
  6 25  1  0  0  0  0
  7  8  1  0  0  0  0
  7 26  1  0  0  0  0
  7 27  1  0  0  0  0
  8  9  1  0  0  0  0
  8 18  1  0  0  0  0
  8 28  1  0  0  0  0
  9 10  1  0  0  0  0
  9 29  1  0  0  0  0
 10 11  2  0  0  0  0
 10 12  1  0  0  0  0
 12 13  1  0  0  0  0
 12 30  1  0  0  0  0
 13 17  2  0  0  0  0
 13 14  1  0  0  0  0
 14 15  2  0  0  0  0
 14 31  1  0  0  0  0
 15 16  1  0  0  0  0
 16 20  1  0  0  0  0
 16 17  1  0  0  0  0
 17 32  1  0  0  0  0
 18 19  1  0  0  0  0
 18 33  1  0  0  0  0
 18 34  1  0  0  0  0
 19 35  1  0  0  0  0
 19 36  1  0  0  0  0
M  END
> <s_m_source_file>
AV-unprocessed.smi

> <i_m_source_file_index>
1710

> <i_lp_mmshare_version>
43012

> <i_f3d_flags>
0

> <s_epik_input>
W0NIM11TKD1PKSg9TylOMVtDSDJdW0NIMl1bQ0hdKFtDSDJdW0NIMl0xKVtOSF1DKD1PKVtOSF1jMltjSF1uW25IXVtjSF0y

> <s_epik_cmdline>
J2VwaWtfcHl0aG9uJywgJy1waCcsICc3LjAnLCAnLXRuJywgJzgnLCAnLW1hJywgJzIwMCcsICctbWV0YWxfYmluZGluZycsICctaW1hZScsICc8aW5maWxlLm1hZT4nLCAnLW9tYWUnLCAnPG91dGZpbGUubWFlPic=

> <r_lp_tautomer_probability>
1

> <r_epik_Ionization_Penalty>
5.00334e-05

> <r_epik_Ionization_Penalty_Charging>
0

> <r_epik_Ionization_Penalty_Neutral>
5.00334e-05

> <r_epik_State_Penalty>
-0

> <r_epik_Charging_Adjusted_Penalty>
0

> <i_epik_Tot_Q>
0

> <i_epik_Tot_abs_Q>
0

> <r_epik_Metal_State_Penalty>
-0

> <b_epik_Metal_Only>
0

> <s_lp_Force_Field>
OPLS_2005

> <r_lp_Energy>
2.71919

> <b_lp_Chiralities_Consistent>
1

> <s_lp_Variant>
AV-unprocessed.smi:1710-1

> <Gold.Version>
5.8.1

> <Gold.Id.Protein>
6NUR|6NUR_protein|mol2

> <Gold.PLP.Fitness>
37.4422

> <Gold.PLP.PLP>
-24.2188

> <Gold.PLP.part.hbond>
-4.8023

> <Gold.PLP.part.metal>
0.0000

> <Gold.PLP.part.buried>
-0.4255

> <Gold.PLP.part.nonpolar>
-20.6123

> <Gold.PLP.part.repulsive>
0.8292

> <Gold.PLP.ligand.clash>
0.0000

> <Gold.PLP.ligand.torsion>
1.0335

> <Gold.PLP.Chemscore.Hbond>
2.4133

> <Gold.PLP.Chemscore.CHOScore>
2.0000

> <Gold.PLP.Chemscore.Metal>
0.0000

> <Gold.Chemscore.Hbonds>
donor molecule, donor type, donor heavy atom, donor atom, acceptor molecule, acceptor atom, score
      L1  H     9    29       P1  7948  0.75
      L1  H    16    20       P1 10952  0.84
      P1  H  8011  8017       L1     4  0.66
      L1  C    14    31       P1 10747  0.79
      L1  C    17    32       P1 10186  1.00

> <Gold.PLP.Chemscore.Internal.Correction>
2.0508

> <Gold.Rescore>
     Score         DG    S(hbond)    S(metal)    S(lipo)     H(rot)  DE(clash)    DE(int)     intcor
     15.10     -17.49       2.49        0.00      53.32       1.00       0.27       2.12       ----

> <Gold.Chemscore.Fitness>
15.1045

> <Gold.Chemscore.DG>
-17.4904

> <Gold.Chemscore.ZeroCoef>
-5.4800

> <Gold.Chemscore.Hbond>
2.4946

> <Gold.Chemscore.Metal>
0.0000

> <Gold.Chemscore.Lipo>
53.3196

> <Gold.Chemscore.Internal_Hbond>
0.0000

> <Gold.Chemscore.DEClash>
0.2704

> <Gold.Chemscore.DEInternal>
2.1155

> <Gold.Chemscore.Rot>
1.0000

> <Gold.Chemscore.Internal.Correction>
   9.000000E+99

> <Gold.Chemscore.Hbonds>
donor molecule, donor type, donor heavy atom, donor atom, acceptor molecule, acceptor atom, score
      L1  H     9    29       P1  7948  0.76
      L1  H    16    20       P1 10952  0.76
      P1  H  8011  8017       L1     4  0.65

> <Gold.Chemscore.Hbond.Weighted>
-8.3320

> <Gold.Chemscore.Metal.Weighted>
-0.0000

> <Gold.Chemscore.Lipo.Weighted>
-6.2384

> <Gold.Chemscore.Internal_Hbond.Weighted>
0.0000

> <Gold.Chemscore.DEClash.Weighted>
0.2704

> <Gold.Chemscore.DEInternal.Weighted>
2.1155

> <Gold.Chemscore.Rot.Weighted>
2.5600

> <Gold.Chemscore.Internal.Correction.Weighted>
   9.000000E+99

> <Gold.Protein.RotatedTorsions>
[ 6907 6896 6895 6894 ] final  -97.06 input  -60.11 | X-H torsion
[ 7974 7965 7964 7962 ] final -142.18 input  175.53 | X-H torsion
[ 8008 7997 7996 7995 ] final  -96.85 input   59.86 | X-H torsion
[ 10167 10162 10161 10158 ] final  134.69 input  -65.29 | X-H torsion
[ 10718 10713 10712 10709 ] final -110.84 input   66.30 | X-H torsion
[ 10763 10752 10751 10750 ] final   14.30 input  -60.55 | X-H torsion
[ 11005 11000 10999 10996 ] final    3.39 input  -57.11 | X-H torsion

> <Gold.Protein.ActiveResidues>
 VAL166  LYS551  ARG553  GLY616  TRP617  ASP618  TYR619  PRO620  LYS621  CYS622 
 ASP623  PHE694  ASN695  SER759  ASP760  ASP761  ALA762  ILE779  LEU786  VAL792 
 PHE793  MET794  SER795  GLU796  ALA797  LYS798  CYS799  TRP800  GLU811  SER814 

> <Gold.Protein.RotatedAtoms>
  150.7006  134.1406  159.4103 H   0  0  0  0  0  0  0  0  0  0  0  0  # atno 6907 bound_to 6896
  151.9391  135.0219  160.0544 H   0  0  0  0  0  0  0  0  0  0  0  0  # atno 6908 bound_to 6896
  152.2110  133.4876  159.5146 H   0  0  0  0  0  0  0  0  0  0  0  0  # atno 6909 bound_to 6896
  144.8463  140.5989  143.5419 H   0  0  0  0  0  0  0  0  0  0  0  0  # atno 7974 bound_to 7965
  154.7799  140.0468  157.1119 H   0  0  0  0  0  0  0  0  0  0  0  0  # atno 8008 bound_to 7997
  154.9717  140.3090  155.4965 H   0  0  0  0  0  0  0  0  0  0  0  0  # atno 8009 bound_to 7997
  156.2935  140.2252  156.4810 H   0  0  0  0  0  0  0  0  0  0  0  0  # atno 8010 bound_to 7997
  139.5246  144.6554  151.5176 H   0  0  0  0  0  0  0  0  0  0  0  0  # atno 10167 bound_to 10162
  156.0613  130.5836  150.8293 H   0  0  0  0  0  0  0  0  0  0  0  0  # atno 10718 bound_to 10713
  153.1635  135.6800  153.8708 H   0  0  0  0  0  0  0  0  0  0  0  0  # atno 10763 bound_to 10752
  153.8096  135.3145  155.3400 H   0  0  0  0  0  0  0  0  0  0  0  0  # atno 10764 bound_to 10752
  154.7949  135.4813  154.0227 H   0  0  0  0  0  0  0  0  0  0  0  0  # atno 10765 bound_to 10752
  140.5937  133.9900  155.8100 H   0  0  0  0  0  0  0  0  0  0  0  0  # atno 11005 bound_to 11000
  145.4591  139.1515  143.3876 LP  0  0  0  0  0  0  0  0  0  0  0  0  # atno 17320 bound_to 7965
  146.2747  140.4720  142.8800 LP  0  0  0  0  0  0  0  0  0  0  0  0  # atno 17321 bound_to 7965
  140.6378  143.8949  150.6663 LP  0  0  0  0  0  0  0  0  0  0  0  0  # atno 17342 bound_to 10162
  140.2274  143.3762  152.1593 LP  0  0  0  0  0  0  0  0  0  0  0  0  # atno 17343 bound_to 10162
  157.5624  131.0946  150.9539 LP  0  0  0  0  0  0  0  0  0  0  0  0  # atno 17370 bound_to 10713
  156.9774  130.5514  149.5294 LP  0  0  0  0  0  0  0  0  0  0  0  0  # atno 17371 bound_to 10713
  141.0918  133.9905  157.3225 LP  0  0  0  0  0  0  0  0  0  0  0  0  # atno 17394 bound_to 11000
  139.9263  135.0201  156.8244 LP  0  0  0  0  0  0  0  0  0  0  0  0  # atno 17395 bound_to 11000

$$$$
