AV-unprocessed.smi:153|AV-procd|sdf|1262|dock2
  -GOLD-   2262018513D 1   1.00000     0.00000
 Structure written by MMmdl.
 59 62  0  0  0  0  0  0  0  0  1 V2000
  151.9905  144.3161  157.9601 C   0  0  0  0  0  0  0  0  0  0  0  0
  151.5525  143.0349  158.6865 C   0  0  2  0  0  0  0  0  0  0  0  0
  152.6776  142.5436  159.4110 O   0  0  0  0  0  0  0  0  0  0  0  0
  152.5911  141.1318  159.4903 C   0  0  0  0  0  0  0  0  0  0  0  0
  152.0932  140.7574  158.1028 C   0  0  0  0  0  0  0  0  0  0  0  0
  151.0742  141.8518  157.7971 C   0  0  1  0  0  0  0  0  0  0  0  0
  149.8169  141.4232  158.2940 O   0  0  0  0  0  0  0  0  0  0  0  0
  150.9126  142.1451  156.2823 C   0  0  0  0  0  0  0  0  0  0  0  0
  150.1647  141.1181  155.5722 N   0  0  0  0  0  0  0  0  0  0  0  0
  150.4873  139.7834  155.4702 C   0  0  0  0  0  0  0  0  0  0  0  0
  149.6517  139.0596  154.7772 N   0  0  0  0  0  0  0  0  0  0  0  0
  148.6759  139.9624  154.3734 C   0  0  0  0  0  0  0  0  0  0  0  0
  147.4743  139.8493  153.6198 C   0  0  0  0  0  0  0  0  0  0  0  0
  147.0495  138.6697  153.1011 N   0  0  0  0  0  0  0  0  0  0  0  0
  146.7664  138.7252  151.6718 C   0  0  0  0  0  0  0  0  0  0  0  0
  146.2425  137.7698  153.9286 C   0  0  0  0  0  0  0  0  0  0  0  0
  146.3247  136.2898  153.4930 C   0  0  1  0  0  0  0  0  0  0  0  0
  145.7090  135.5278  154.5101 O   0  0  0  0  0  0  0  0  0  0  0  0
  145.5816  136.0122  152.1637 C   0  0  0  0  0  0  0  0  0  0  0  0
  145.3915  134.5985  151.8349 N   0  0  0  0  0  0  0  0  0  0  0  0
  146.6583  133.9064  151.6016 C   0  0  0  0  0  0  0  0  0  0  0  0
  146.4533  132.4341  151.2082 C   0  0  0  0  0  0  0  0  0  0  0  0
  145.6154  132.3578  150.0599 O   0  0  0  0  0  0  0  0  0  0  0  0
  144.3489  132.9743  150.2656 C   0  0  0  0  0  0  0  0  0  0  0  0
  144.5519  134.4502  150.6504 C   0  0  0  0  0  0  0  0  0  0  0  0
  146.7433  140.9799  153.4316 N   0  0  0  0  0  0  0  0  0  0  0  0
  147.1511  142.1404  153.9530 C   0  0  0  0  0  0  0  0  0  0  0  0
  148.2393  142.3902  154.6837 N   0  0  0  0  0  0  0  0  0  0  0  0
  148.9803  141.2607  154.8704 C   0  0  0  0  0  0  0  0  0  0  0  0
  151.1708  144.7505  157.3877 H   0  0  0  0  0  0  0  0  0  0  0  0
  152.8214  144.1272  157.2799 H   0  0  0  0  0  0  0  0  0  0  0  0
  152.3217  145.0686  158.6762 H   0  0  0  0  0  0  0  0  0  0  0  0
  150.7823  143.2996  159.4135 H   0  0  0  0  0  0  0  0  0  0  0  0
  153.5542  140.6812  159.7302 H   0  0  0  0  0  0  0  0  0  0  0  0
  151.8715  140.8468  160.2592 H   0  0  0  0  0  0  0  0  0  0  0  0
  152.9295  140.8178  157.4055 H   0  0  0  0  0  0  0  0  0  0  0  0
  151.6874  139.7462  158.0479 H   0  0  0  0  0  0  0  0  0  0  0  0
  149.6439  141.8782  159.1040 H   0  0  0  0  0  0  0  0  0  0  0  0
  150.4080  143.1000  156.1292 H   0  0  0  0  0  0  0  0  0  0  0  0
  151.8883  142.2321  155.8039 H   0  0  0  0  0  0  0  0  0  0  0  0
  151.3704  139.3607  155.9268 H   0  0  0  0  0  0  0  0  0  0  0  0
  146.4208  139.7153  151.3699 H   0  0  0  0  0  0  0  0  0  0  0  0
  145.9953  138.0068  151.3923 H   0  0  0  0  0  0  0  0  0  0  0  0
  147.6649  138.4868  151.1023 H   0  0  0  0  0  0  0  0  0  0  0  0
  146.5522  137.8737  154.9694 H   0  0  0  0  0  0  0  0  0  0  0  0
  145.2014  138.0931  153.8900 H   0  0  0  0  0  0  0  0  0  0  0  0
  147.3619  135.9620  153.4469 H   0  0  0  0  0  0  0  0  0  0  0  0
  146.3431  134.9133  154.8470 H   0  0  0  0  0  0  0  0  0  0  0  0
  144.6108  136.5101  152.1918 H   0  0  0  0  0  0  0  0  0  0  0  0
  146.1121  136.4923  151.3401 H   0  0  0  0  0  0  0  0  0  0  0  0
  147.2168  134.4135  150.8133 H   0  0  0  0  0  0  0  0  0  0  0  0
  147.2794  133.9377  152.4951 H   0  0  0  0  0  0  0  0  0  0  0  0
  147.4125  131.9672  150.9830 H   0  0  0  0  0  0  0  0  0  0  0  0
  146.0078  131.8731  152.0309 H   0  0  0  0  0  0  0  0  0  0  0  0
  143.7626  132.8983  149.3498 H   0  0  0  0  0  0  0  0  0  0  0  0
  143.7991  132.4432  151.0442 H   0  0  0  0  0  0  0  0  0  0  0  0
  143.5796  134.9116  150.8263 H   0  0  0  0  0  0  0  0  0  0  0  0
  145.0011  134.9813  149.8096 H   0  0  0  0  0  0  0  0  0  0  0  0
  146.5129  142.9897  153.7592 H   0  0  0  0  0  0  0  0  0  0  0  0
  1  2  1  0  0  0  0
  1 30  1  0  0  0  0
  1 31  1  0  0  0  0
  1 32  1  0  0  0  0
  2  6  1  0  0  0  0
  2  3  1  0  0  0  0
  2 33  1  0  0  0  0
  3  4  1  0  0  0  0
  4  5  1  0  0  0  0
  4 34  1  0  0  0  0
  4 35  1  0  0  0  0
  5  6  1  0  0  0  0
  5 36  1  0  0  0  0
  5 37  1  0  0  0  0
  6  7  1  0  0  0  0
  6  8  1  0  0  0  0
  7 38  1  0  0  0  0
  8  9  1  0  0  0  0
  8 39  1  0  0  0  0
  8 40  1  0  0  0  0
  9 29  1  0  0  0  0
  9 10  1  0  0  0  0
 10 11  2  0  0  0  0
 10 41  1  0  0  0  0
 11 12  1  0  0  0  0
 12 29  2  0  0  0  0
 12 13  1  0  0  0  0
 13 14  1  0  0  0  0
 13 26  2  0  0  0  0
 14 15  1  0  0  0  0
 14 16  1  0  0  0  0
 15 42  1  0  0  0  0
 15 43  1  0  0  0  0
 15 44  1  0  0  0  0
 16 17  1  0  0  0  0
 16 45  1  0  0  0  0
 16 46  1  0  0  0  0
 17 18  1  0  0  0  0
 17 19  1  0  0  0  0
 17 47  1  0  0  0  0
 18 48  1  0  0  0  0
 19 20  1  0  0  0  0
 19 49  1  0  0  0  0
 19 50  1  0  0  0  0
 20 25  1  0  0  0  0
 20 21  1  0  0  0  0
 21 22  1  0  0  0  0
 21 51  1  0  0  0  0
 21 52  1  0  0  0  0
 22 23  1  0  0  0  0
 22 53  1  0  0  0  0
 22 54  1  0  0  0  0
 23 24  1  0  0  0  0
 24 25  1  0  0  0  0
 24 55  1  0  0  0  0
 24 56  1  0  0  0  0
 25 57  1  0  0  0  0
 25 58  1  0  0  0  0
 26 27  1  0  0  0  0
 27 28  2  0  0  0  0
 27 59  1  0  0  0  0
 28 29  1  0  0  0  0
M  END
> <s_m_source_file>
AV-unprocessed.smi

> <i_m_source_file_index>
153

> <i_lp_mmshare_version>
43012

> <i_f3d_flags>
0

> <s_epik_input>
W0NIMl0xW0NIMl1PW0NAQEhdKFtDSDNdKVtDQEBdMShbT0hdKVtDSDJdbihbY0hdbjIpYyhjMjMpbltjSF1uYzNOKFtDSDNdKVtDSDJdW0NASF0oW09IXSlbQ0gyXU40W0NIMl1bQ0gyXU9bQ0gyXVtDSDJdNA==

> <s_epik_cmdline>
J2VwaWtfcHl0aG9uJywgJy1waCcsICc3LjAnLCAnLXRuJywgJzgnLCAnLW1hJywgJzIwMCcsICctbWV0YWxfYmluZGluZycsICctaW1hZScsICc8aW5maWxlLm1hZT4nLCAnLW9tYWUnLCAnPG91dGZpbGUubWFlPic=

> <r_lp_tautomer_probability>
1

> <r_epik_Ionization_Penalty>
0.424123

> <r_epik_Ionization_Penalty_Charging>
0

> <r_epik_Ionization_Penalty_Neutral>
0.424123

> <r_epik_State_Penalty>
0.421495

> <r_epik_Charging_Adjusted_Penalty>
0.421495

> <i_epik_Tot_Q>
0

> <i_epik_Tot_abs_Q>
0

> <r_epik_Metal_State_Penalty>
0.421223

> <b_epik_Metal_Only>
0

> <s_lp_Force_Field>
OPLS_2005

> <r_lp_Energy>
51.9128

> <b_lp_Chiralities_Consistent>
1

> <s_lp_Variant>
AV-unprocessed.smi:153-13

> <Gold.Version>
5.8.1

> <Gold.Id.Protein>
6NUR|6NUR_protein|mol2

> <Gold.PLP.Fitness>
46.3055

> <Gold.PLP.PLP>
-48.8198

> <Gold.PLP.part.hbond>
-0.7396

> <Gold.PLP.part.metal>
0.0000

> <Gold.PLP.part.buried>
-6.2964

> <Gold.PLP.part.nonpolar>
-45.4807

> <Gold.PLP.part.repulsive>
4.3865

> <Gold.PLP.ligand.clash>
0.0000

> <Gold.PLP.ligand.torsion>
1.6934

> <Gold.PLP.Chemscore.Hbond>
0.0000

> <Gold.PLP.Chemscore.CHOScore>
0.0000

> <Gold.PLP.Chemscore.Metal>
0.0000

> <Gold.PLP.Chemscore.Internal.Correction>
0.8726

> <Gold.Rescore>
     Score         DG    S(hbond)    S(metal)    S(lipo)     H(rot)  DE(clash)    DE(int)     intcor
      5.98      -9.48       0.00        0.00     111.11       3.52       1.78       1.72       ----

> <Gold.Chemscore.Fitness>
5.9786

> <Gold.Chemscore.DG>
-9.4774

> <Gold.Chemscore.ZeroCoef>
-5.4800

> <Gold.Chemscore.Hbond>
0.0003

> <Gold.Chemscore.Metal>
0.0000

> <Gold.Chemscore.Lipo>
111.1099

> <Gold.Chemscore.Internal_Hbond>
0.0000

> <Gold.Chemscore.DEClash>
1.7813

> <Gold.Chemscore.DEInternal>
1.7175

> <Gold.Chemscore.Rot>
3.5170

> <Gold.Chemscore.Internal.Correction>
   9.000000E+99

> <Gold.Chemscore.Hbond.Weighted>
-0.0011

> <Gold.Chemscore.Metal.Weighted>
-0.0000

> <Gold.Chemscore.Lipo.Weighted>
-12.9999

> <Gold.Chemscore.Internal_Hbond.Weighted>
0.0000

> <Gold.Chemscore.DEClash.Weighted>
1.7813

> <Gold.Chemscore.DEInternal.Weighted>
1.7175

> <Gold.Chemscore.Rot.Weighted>
9.0036

> <Gold.Chemscore.Internal.Correction.Weighted>
   9.000000E+99

> <Gold.Protein.RotatedTorsions>
[ 6907 6896 6895 6894 ] final  -56.54 input  -60.11 | X-H torsion
[ 7974 7965 7964 7962 ] final    9.55 input  175.53 | X-H torsion
[ 8008 7997 7996 7995 ] final  -31.21 input   59.86 | X-H torsion
[ 10167 10162 10161 10158 ] final -103.73 input  -65.29 | X-H torsion
[ 10718 10713 10712 10709 ] final -165.86 input   66.30 | X-H torsion
[ 10763 10752 10751 10750 ] final  -64.17 input  -60.55 | X-H torsion
[ 11005 11000 10999 10996 ] final  144.53 input  -57.11 | X-H torsion

> <Gold.Protein.ActiveResidues>
 VAL166  LYS551  ARG553  GLY616  TRP617  ASP618  TYR619  PRO620  LYS621  CYS622 
 ASP623  PHE694  ASN695  SER759  ASP760  ASP761  ALA762  ILE779  LEU786  VAL792 
 PHE793  MET794  SER795  GLU796  ALA797  LYS798  CYS799  TRP800  GLU811  SER814 

> <Gold.Protein.RotatedAtoms>
  150.8159  134.7341  159.6729 H   0  0  0  0  0  0  0  0  0  0  0  0  # atno 6907 bound_to 6896
  152.4278  134.5832  159.9963 H   0  0  0  0  0  0  0  0  0  0  0  0  # atno 6908 bound_to 6896
  151.6029  133.3317  159.3087 H   0  0  0  0  0  0  0  0  0  0  0  0  # atno 6909 bound_to 6896
  146.2402  139.9767  142.8441 H   0  0  0  0  0  0  0  0  0  0  0  0  # atno 7974 bound_to 7965
  154.4222  140.1770  156.1531 H   0  0  0  0  0  0  0  0  0  0  0  0  # atno 8008 bound_to 7997
  155.9899  140.3370  155.6719 H   0  0  0  0  0  0  0  0  0  0  0  0  # atno 8009 bound_to 7997
  155.6386  140.0677  157.2616 H   0  0  0  0  0  0  0  0  0  0  0  0  # atno 8010 bound_to 7997
  140.2169  143.3705  152.1003 H   0  0  0  0  0  0  0  0  0  0  0  0  # atno 10167 bound_to 10162
  156.6595  130.9040  151.3027 H   0  0  0  0  0  0  0  0  0  0  0  0  # atno 10718 bound_to 10713
  154.3261  135.6186  153.5530 H   0  0  0  0  0  0  0  0  0  0  0  0  # atno 10763 bound_to 10752
  152.9815  135.5735  154.5015 H   0  0  0  0  0  0  0  0  0  0  0  0  # atno 10764 bound_to 10752
  154.4692  135.2858  155.1632 H   0  0  0  0  0  0  0  0  0  0  0  0  # atno 10765 bound_to 10752
  140.0639  134.9189  157.1232 H   0  0  0  0  0  0  0  0  0  0  0  0  # atno 11005 bound_to 11000
  145.1630  140.9682  143.4366 LP  0  0  0  0  0  0  0  0  0  0  0  0  # atno 17320 bound_to 7965
  145.0099  139.3520  143.6125 LP  0  0  0  0  0  0  0  0  0  0  0  0  # atno 17321 bound_to 7965
  139.5159  144.6969  151.5604 LP  0  0  0  0  0  0  0  0  0  0  0  0  # atno 17342 bound_to 10162
  140.6283  143.9125  150.6584 LP  0  0  0  0  0  0  0  0  0  0  0  0  # atno 17343 bound_to 10162
  157.7114  130.9445  150.1103 LP  0  0  0  0  0  0  0  0  0  0  0  0  # atno 17370 bound_to 10713
  156.2022  130.3661  149.8774 LP  0  0  0  0  0  0  0  0  0  0  0  0  # atno 17371 bound_to 10713
  140.3728  134.2372  155.7176 LP  0  0  0  0  0  0  0  0  0  0  0  0  # atno 17394 bound_to 11000
  141.1985  133.8035  157.0581 LP  0  0  0  0  0  0  0  0  0  0  0  0  # atno 17395 bound_to 11000

$$$$
