AV-unprocessed.smi:2107|AV-procd|sdf|8603|dock2
  -GOLD-   2272011343D 1   1.00000     0.00000
 Structure written by MMmdl.
 46 47  0  0  0  0  0  0  0  0  3 V2000
  146.2863  132.7299  161.5627 C   0  0  0  0  0  0  0  0  0  0  0  0
  147.5773  133.3561  161.0190 C   0  0  0  0  0  0  0  0  0  0  0  0
  147.5783  134.8150  161.2145 N   0  0  0  0  0  0  0  0  0  0  0  0
  147.0980  135.3083  162.5168 C   0  0  0  0  0  0  0  0  0  0  0  0
  145.6192  135.7124  162.4490 C   0  0  0  0  0  0  0  0  0  0  0  0
  147.6517  135.8903  159.8454 S   0  0  0  0  0  0  0  0  0  0  0  0
  146.3555  135.7967  159.1510 O   0  0  0  0  0  0  0  0  0  0  0  0
  148.0283  137.1995  160.3996 O   0  0  0  0  0  0  0  0  0  0  0  0
  148.8873  135.1812  159.0539 N   0  5  0  0  0  0  0  0  0  0  0  0
  148.7684  134.7731  157.6599 C   0  0  0  0  0  0  0  0  0  0  0  0
  149.2185  135.8848  156.7036 C   0  0  0  0  0  0  0  0  0  0  0  0
  149.6936  137.0989  157.2610 C   0  0  0  0  0  0  0  0  0  0  0  0
  150.1323  138.1407  156.4203 C   0  0  0  0  0  0  0  0  0  0  0  0
  150.0909  137.9575  155.0277 C   0  0  0  0  0  0  0  0  0  0  0  0
  149.6321  136.7957  154.5197 N   0  3  0  0  0  0  0  0  0  0  0  0
  149.1951  135.7575  155.2771 C   0  0  0  0  0  0  0  0  0  0  0  0
  148.7240  134.6221  154.5851 N   0  0  0  0  0  0  0  0  0  0  0  0
  149.6222  133.4775  154.6750 C   0  0  0  0  0  0  0  0  0  0  0  0
  149.1244  132.3401  153.7666 C   0  0  0  0  0  0  0  0  0  0  0  0
  147.7740  132.0212  154.0919 O   0  0  0  0  0  0  0  0  0  0  0  0
  146.9025  133.1334  153.9076 C   0  0  0  0  0  0  0  0  0  0  0  0
  147.3321  134.2773  154.8411 C   0  0  0  0  0  0  0  0  0  0  0  0
  146.2800  131.6528  161.3961 H   0  0  0  0  0  0  0  0  0  0  0  0
  145.4080  133.1474  161.0699 H   0  0  0  0  0  0  0  0  0  0  0  0
  146.1772  132.8976  162.6340 H   0  0  0  0  0  0  0  0  0  0  0  0
  148.4475  132.9265  161.5162 H   0  0  0  0  0  0  0  0  0  0  0  0
  147.6810  133.1181  159.9598 H   0  0  0  0  0  0  0  0  0  0  0  0
  147.2218  134.5291  163.2698 H   0  0  0  0  0  0  0  0  0  0  0  0
  147.7148  136.1476  162.8394 H   0  0  0  0  0  0  0  0  0  0  0  0
  145.2634  136.0369  163.4268 H   0  0  0  0  0  0  0  0  0  0  0  0
  144.9978  134.8744  162.1320 H   0  0  0  0  0  0  0  0  0  0  0  0
  145.4578  136.5334  161.7506 H   0  0  0  0  0  0  0  0  0  0  0  0
  149.3500  133.8718  157.4636 H   0  0  0  0  0  0  0  0  0  0  0  0
  147.7458  134.5137  157.3861 H   0  0  0  0  0  0  0  0  0  0  0  0
  149.7312  137.2534  158.3312 H   0  0  0  0  0  0  0  0  0  0  0  0
  150.4944  139.0672  156.8410 H   0  0  0  0  0  0  0  0  0  0  0  0
  150.4046  138.6999  154.3087 H   0  0  0  0  0  0  0  0  0  0  0  0
  150.6302  133.7738  154.3820 H   0  0  0  0  0  0  0  0  0  0  0  0
  149.6740  133.1325  155.7085 H   0  0  0  0  0  0  0  0  0  0  0  0
  149.1992  132.6180  152.7146 H   0  0  0  0  0  0  0  0  0  0  0  0
  149.7430  131.4531  153.9035 H   0  0  0  0  0  0  0  0  0  0  0  0
  146.9188  133.4543  152.8644 H   0  0  0  0  0  0  0  0  0  0  0  0
  145.8809  132.8270  154.1323 H   0  0  0  0  0  0  0  0  0  0  0  0
  147.2087  133.9715  155.8806 H   0  0  0  0  0  0  0  0  0  0  0  0
  146.7003  135.1516  154.6811 H   0  0  0  0  0  0  0  0  0  0  0  0
  149.6056  136.6930  153.5053 H   0  0  0  0  0  0  0  0  0  0  0  0
  1  2  1  0  0  0  0
  1 23  1  0  0  0  0
  1 24  1  0  0  0  0
  1 25  1  0  0  0  0
  2  3  1  0  0  0  0
  2 26  1  0  0  0  0
  2 27  1  0  0  0  0
  3  4  1  0  0  0  0
  3  6  1  0  0  0  0
  4  5  1  0  0  0  0
  4 28  1  0  0  0  0
  4 29  1  0  0  0  0
  5 30  1  0  0  0  0
  5 31  1  0  0  0  0
  5 32  1  0  0  0  0
  6  7  2  0  0  0  0
  6  8  2  0  0  0  0
  6  9  1  0  0  0  0
  9 10  1  0  0  0  0
 10 11  1  0  0  0  0
 10 33  1  0  0  0  0
 10 34  1  0  0  0  0
 11 16  1  0  0  0  0
 11 12  2  0  0  0  0
 12 13  1  0  0  0  0
 12 35  1  0  0  0  0
 13 14  2  0  0  0  0
 13 36  1  0  0  0  0
 14 15  1  0  0  0  0
 14 37  1  0  0  0  0
 15 16  2  0  0  0  0
 15 46  1  0  0  0  0
 16 17  1  0  0  0  0
 17 22  1  0  0  0  0
 17 18  1  0  0  0  0
 18 19  1  0  0  0  0
 18 38  1  0  0  0  0
 18 39  1  0  0  0  0
 19 20  1  0  0  0  0
 19 40  1  0  0  0  0
 19 41  1  0  0  0  0
 20 21  1  0  0  0  0
 21 22  1  0  0  0  0
 21 42  1  0  0  0  0
 21 43  1  0  0  0  0
 22 44  1  0  0  0  0
 22 45  1  0  0  0  0
M  CHG  1   9  -1
M  CHG  1  15   1
M  END
> <s_m_source_file>
AV-unprocessed.smi

> <i_m_source_file_index>
2107

> <i_lp_mmshare_version>
43012

> <i_f3d_flags>
0

> <s_epik_input>
W0NIM11bQ0gyXU4oW0NIMl1bQ0gzXSlTKD1PKSg9TylbTkhdW0NIMl1jMVtjSF1bY0hdW2NIXW5jMU4yW0NIMl1bQ0gyXU9bQ0gyXVtDSDJdMg==

> <s_epik_cmdline>
J2VwaWtfcHl0aG9uJywgJy1waCcsICc3LjAnLCAnLXRuJywgJzgnLCAnLW1hJywgJzIwMCcsICctbWV0YWxfYmluZGluZycsICctaW1hZScsICc8aW5maWxlLm1hZT4nLCAnLW9tYWUnLCAnPG91dGZpbGUubWFlPic=

> <r_lp_tautomer_probability>
0.999994

> <r_epik_Ionization_Penalty>
2.67026

> <r_epik_Ionization_Penalty_Charging>
2.67026

> <r_epik_Ionization_Penalty_Neutral>
4.07977e-08

> <r_epik_State_Penalty>
4.05768

> <r_epik_Charging_Adjusted_Penalty>
6.72795

> <i_epik_Tot_Q>
0

> <i_epik_Tot_abs_Q>
2

> <r_epik_Metal_State_Penalty>
2.91237

> <b_epik_Metal_Only>
1

> <s_lp_Force_Field>
OPLS_2005

> <r_lp_Energy>
19.7011

> <b_lp_Chiralities_Consistent>
1

> <s_lp_Variant>
AV-unprocessed.smi:2107-4

> <Gold.Version>
5.8.1

> <Gold.Id.Protein>
6NUR|6NUR_protein|mol2

> <Gold.PLP.Fitness>
44.3822

> <Gold.PLP.PLP>
-29.3732

> <Gold.PLP.part.hbond>
-4.0000

> <Gold.PLP.part.metal>
0.0000

> <Gold.PLP.part.buried>
-5.3428

> <Gold.PLP.part.nonpolar>
-20.2959

> <Gold.PLP.part.repulsive>
0.2113

> <Gold.PLP.ligand.clash>
0.1323

> <Gold.PLP.ligand.torsion>
2.3001

> <Gold.PLP.Chemscore.Hbond>
5.3497

> <Gold.PLP.Chemscore.CHOScore>
0.0000

> <Gold.PLP.Chemscore.Metal>
0.0000

> <Gold.Chemscore.Hbonds>
donor molecule, donor type, donor heavy atom, donor atom, acceptor molecule, acceptor atom, score
      L1  H    15    46       P1  7948  2.00
      P1  H  6896  6909       L1     9  2.00
      P1  H  6931  6943       L1     8  0.62
      P1  H  6934  6947       L1     8  0.67

> <Gold.PLP.Chemscore.Internal.Correction>
3.6926

> <Gold.Rescore>
     Score         DG    S(hbond)    S(metal)    S(lipo)     H(rot)  DE(clash)    DE(int)     intcor
     16.33     -18.64       3.07        0.00      62.41       1.72       0.04       2.26       ----

> <Gold.Chemscore.Fitness>
16.3262

> <Gold.Chemscore.DG>
-18.6353

> <Gold.Chemscore.ZeroCoef>
-5.4800

> <Gold.Chemscore.Hbond>
3.0676

> <Gold.Chemscore.Metal>
0.0000

> <Gold.Chemscore.Lipo>
62.4098

> <Gold.Chemscore.Internal_Hbond>
0.0000

> <Gold.Chemscore.DEClash>
0.0442

> <Gold.Chemscore.DEInternal>
2.2649

> <Gold.Chemscore.Rot>
1.7159

> <Gold.Chemscore.Internal.Correction>
   9.000000E+99

> <Gold.Chemscore.Hbonds>
donor molecule, donor type, donor heavy atom, donor atom, acceptor molecule, acceptor atom, score
      L1  H    15    46       P1  7948  0.65
      P1  H  6896  6909       L1     9  0.34
      P1  H  6931  6943       L1     8  0.60
      P1  H  6934  6947       L1     8  0.64

> <Gold.Chemscore.Hbond.Weighted>
-10.2459

> <Gold.Chemscore.Metal.Weighted>
-0.0000

> <Gold.Chemscore.Lipo.Weighted>
-7.3019

> <Gold.Chemscore.Internal_Hbond.Weighted>
0.0000

> <Gold.Chemscore.DEClash.Weighted>
0.0442

> <Gold.Chemscore.DEInternal.Weighted>
2.2649

> <Gold.Chemscore.Rot.Weighted>
4.3926

> <Gold.Chemscore.Internal.Correction.Weighted>
   9.000000E+99

> <Gold.Protein.RotatedTorsions>
[ 6907 6896 6895 6894 ] final   43.97 input  -60.11 | X-H torsion
[ 7974 7965 7964 7962 ] final  -30.66 input  175.53 | X-H torsion
[ 8008 7997 7996 7995 ] final   30.91 input   59.86 | X-H torsion
[ 10167 10162 10161 10158 ] final   -9.25 input  -65.29 | X-H torsion
[ 10718 10713 10712 10709 ] final   34.66 input   66.30 | X-H torsion
[ 10763 10752 10751 10750 ] final   25.25 input  -60.55 | X-H torsion
[ 11005 11000 10999 10996 ] final   -8.82 input  -57.11 | X-H torsion

> <Gold.Protein.ActiveResidues>
 VAL166  LYS551  ARG553  GLY616  TRP617  ASP618  TYR619  PRO620  LYS621  CYS622 
 ASP623  PHE694  ASN695  SER759  ASP760  ASP761  ALA762  ILE779  LEU786  VAL792 
 PHE793  MET794  SER795  GLU796  ALA797  LYS798  CYS799  TRP800  GLU811  SER814 

> <Gold.Protein.RotatedAtoms>
  152.2268  134.8360  160.0478 H   0  0  0  0  0  0  0  0  0  0  0  0  # atno 6907 bound_to 6896
  151.9123  133.3559  159.3876 H   0  0  0  0  0  0  0  0  0  0  0  0  # atno 6908 bound_to 6896
  150.7015  134.4644  159.5440 H   0  0  0  0  0  0  0  0  0  0  0  0  # atno 6909 bound_to 6896
  146.1126  140.5569  142.8771 H   0  0  0  0  0  0  0  0  0  0  0  0  # atno 7974 bound_to 7965
  155.0979  140.3226  155.4555 H   0  0  0  0  0  0  0  0  0  0  0  0  # atno 8008 bound_to 7997
  156.2725  140.2066  156.6053 H   0  0  0  0  0  0  0  0  0  0  0  0  # atno 8009 bound_to 7997
  154.6852  140.0522  157.0294 H   0  0  0  0  0  0  0  0  0  0  0  0  # atno 8010 bound_to 7997
  140.7082  143.5879  150.8924 H   0  0  0  0  0  0  0  0  0  0  0  0  # atno 10167 bound_to 10162
  157.3131  130.7409  149.6737 H   0  0  0  0  0  0  0  0  0  0  0  0  # atno 10718 bound_to 10713
  153.0705  135.6587  154.0257 H   0  0  0  0  0  0  0  0  0  0  0  0  # atno 10763 bound_to 10752
  153.9904  135.2946  155.3414 H   0  0  0  0  0  0  0  0  0  0  0  0  # atno 10764 bound_to 10752
  154.7078  135.5218  153.8691 H   0  0  0  0  0  0  0  0  0  0  0  0  # atno 10765 bound_to 10752
  140.7276  133.8776  155.8868 H   0  0  0  0  0  0  0  0  0  0  0  0  # atno 11005 bound_to 11000
  144.7525  140.5225  143.6792 LP  0  0  0  0  0  0  0  0  0  0  0  0  # atno 17320 bound_to 7965
  145.5633  139.1480  143.3329 LP  0  0  0  0  0  0  0  0  0  0  0  0  # atno 17321 bound_to 7965
  139.9604  143.6170  152.3004 LP  0  0  0  0  0  0  0  0  0  0  0  0  # atno 17342 bound_to 10162
  139.6720  144.7660  151.1765 LP  0  0  0  0  0  0  0  0  0  0  0  0  # atno 17343 bound_to 10162
  155.9679  130.4245  150.4612 LP  0  0  0  0  0  0  0  0  0  0  0  0  # atno 17370 bound_to 10713
  157.2614  131.0568  151.2318 LP  0  0  0  0  0  0  0  0  0  0  0  0  # atno 17371 bound_to 10713
  140.9949  134.1228  157.4373 LP  0  0  0  0  0  0  0  0  0  0  0  0  # atno 17394 bound_to 11000
  139.8833  135.0051  156.6295 LP  0  0  0  0  0  0  0  0  0  0  0  0  # atno 17395 bound_to 11000

$$$$
