AV-unprocessed.smi:1362|AV-procd|sdf|5559|dock4
  -GOLD-   22720 5153D 1   1.00000     0.00000
 Structure written by MMmdl.
 39 39  0  0  0  0  0  0  0  0  1 V2000
  146.4648  138.2454  151.6667 C   0  0  0  0  0  0  0  0  0  0  0  0
  147.1042  139.2920  152.5548 C   0  0  0  0  0  0  0  0  0  0  0  0
  146.4855  140.3365  152.9981 N   0  0  0  0  0  0  0  0  0  0  0  0
  147.1845  141.2389  153.8116 C   0  0  0  0  0  0  0  0  0  0  0  0
  146.3908  142.4444  154.2861 C   0  0  0  0  0  0  0  0  0  0  0  0
  148.4931  141.0370  154.1450 C   0  0  0  0  0  0  0  0  0  0  0  0
  149.2812  142.0055  155.0254 C   0  0  0  0  0  0  0  0  0  0  0  0
  149.6094  141.4983  156.4314 C   0  0  0  0  0  0  0  0  0  0  0  0
  149.1398  140.4323  156.8298 O   0  0  0  0  0  0  0  0  0  0  0  0
  150.4286  142.2667  157.1660 N   0  0  0  0  0  0  0  0  0  0  0  0
  150.8989  141.9622  158.5167 C   0  0  1  0  0  0  0  0  0  0  0  0
  151.4795  140.5351  158.5268 C   0  0  0  0  0  0  0  0  0  0  0  0
  151.9111  143.0403  158.9871 C   0  0  0  0  0  0  0  0  0  0  0  0
  152.3989  142.7994  160.4274 C   0  0  0  0  0  0  0  0  0  0  0  0
  151.3398  144.4672  158.8708 C   0  0  0  0  0  0  0  0  0  0  0  0
  149.1893  139.8399  153.6344 C   0  0  0  0  0  0  0  0  0  0  0  0
  150.3646  139.5625  153.8685 O   0  0  0  0  0  0  0  0  0  0  0  0
  148.4389  139.0275  152.8570 N   0  0  0  0  0  0  0  0  0  0  0  0
  148.8710  138.1960  152.4817 H   0  0  0  0  0  0  0  0  0  0  0  0
  146.1100  138.7034  150.7430 H   0  0  0  0  0  0  0  0  0  0  0  0
  145.6125  137.7928  152.1741 H   0  0  0  0  0  0  0  0  0  0  0  0
  147.1682  137.4531  151.4065 H   0  0  0  0  0  0  0  0  0  0  0  0
  146.3207  142.4545  155.3739 H   0  0  0  0  0  0  0  0  0  0  0  0
  145.3759  142.4322  153.8867 H   0  0  0  0  0  0  0  0  0  0  0  0
  146.8644  143.3700  153.9591 H   0  0  0  0  0  0  0  0  0  0  0  0
  150.2092  142.2583  154.5110 H   0  0  0  0  0  0  0  0  0  0  0  0
  148.7534  142.9545  155.1234 H   0  0  0  0  0  0  0  0  0  0  0  0
  150.7633  143.1258  156.7540 H   0  0  0  0  0  0  0  0  0  0  0  0
  150.0467  141.9865  159.1986 H   0  0  0  0  0  0  0  0  0  0  0  0
  151.7274  140.2062  159.5354 H   0  0  0  0  0  0  0  0  0  0  0  0
  152.3829  140.4700  157.9195 H   0  0  0  0  0  0  0  0  0  0  0  0
  150.7628  139.8149  158.1302 H   0  0  0  0  0  0  0  0  0  0  0  0
  152.7853  142.9899  158.3362 H   0  0  0  0  0  0  0  0  0  0  0  0
  151.5643  142.7670  161.1286 H   0  0  0  0  0  0  0  0  0  0  0  0
  153.0721  143.5936  160.7516 H   0  0  0  0  0  0  0  0  0  0  0  0
  152.9510  141.8646  160.5184 H   0  0  0  0  0  0  0  0  0  0  0  0
  150.4340  144.5795  159.4674 H   0  0  0  0  0  0  0  0  0  0  0  0
  151.0940  144.7265  157.8409 H   0  0  0  0  0  0  0  0  0  0  0  0
  152.0596  145.2081  159.2199 H   0  0  0  0  0  0  0  0  0  0  0  0
  1  2  1  0  0  0  0
  1 20  1  0  0  0  0
  1 21  1  0  0  0  0
  1 22  1  0  0  0  0
  2 18  1  0  0  0  0
  2  3  2  0  0  0  0
  3  4  1  0  0  0  0
  4  5  1  0  0  0  0
  4  6  2  0  0  0  0
  5 23  1  0  0  0  0
  5 24  1  0  0  0  0
  5 25  1  0  0  0  0
  6  7  1  0  0  0  0
  6 16  1  0  0  0  0
  7  8  1  0  0  0  0
  7 26  1  0  0  0  0
  7 27  1  0  0  0  0
  8  9  2  0  0  0  0
  8 10  1  0  0  0  0
 10 11  1  0  0  0  0
 10 28  1  0  0  0  0
 11 12  1  0  0  0  0
 11 13  1  0  0  0  0
 11 29  1  0  0  0  0
 12 30  1  0  0  0  0
 12 31  1  0  0  0  0
 12 32  1  0  0  0  0
 13 14  1  0  0  0  0
 13 15  1  0  0  0  0
 13 33  1  0  0  0  0
 14 34  1  0  0  0  0
 14 35  1  0  0  0  0
 14 36  1  0  0  0  0
 15 37  1  0  0  0  0
 15 38  1  0  0  0  0
 15 39  1  0  0  0  0
 16 17  2  0  0  0  0
 16 18  1  0  0  0  0
 18 19  1  0  0  0  0
M  END
> <s_m_source_file>
AV-unprocessed.smi

> <i_m_source_file_index>
1362

> <i_lp_mmshare_version>
43012

> <i_f3d_flags>
0

> <s_epik_input>
W0NIM11jMW5jKFtDSDNdKWMoYyg9TylbbkhdMSlbQ0gyXUMoPU8pW05IXVtDQEhdKFtDSDNdKVtDSF0oW0NIM10pW0NIM10=

> <s_epik_cmdline>
J2VwaWtfcHl0aG9uJywgJy1waCcsICc3LjAnLCAnLXRuJywgJzgnLCAnLW1hJywgJzIwMCcsICctbWV0YWxfYmluZGluZycsICctaW1hZScsICc8aW5maWxlLm1hZT4nLCAnLW9tYWUnLCAnPG91dGZpbGUubWFlPic=

> <r_lp_tautomer_probability>
0.839158

> <r_epik_Ionization_Penalty>
0.000388977

> <r_epik_Ionization_Penalty_Charging>
0.000356458

> <r_epik_Ionization_Penalty_Neutral>
3.25191e-05

> <r_epik_State_Penalty>
0.0469868

> <r_epik_Charging_Adjusted_Penalty>
0.0473433

> <i_epik_Tot_Q>
0

> <i_epik_Tot_abs_Q>
0

> <r_epik_Metal_State_Penalty>
0.223288

> <b_epik_Metal_Only>
0

> <s_lp_Force_Field>
OPLS_2005

> <r_lp_Energy>
7.84192

> <b_lp_Chiralities_Consistent>
1

> <s_lp_Variant>
AV-unprocessed.smi:1362-2

> <Gold.Version>
5.8.1

> <Gold.Id.Protein>
6NUR|6NUR_protein|mol2

> <Gold.PLP.Fitness>
43.6066

> <Gold.PLP.PLP>
-38.0272

> <Gold.PLP.part.hbond>
-2.9907

> <Gold.PLP.part.metal>
0.0000

> <Gold.PLP.part.buried>
2.9762

> <Gold.PLP.part.nonpolar>
-38.0500

> <Gold.PLP.part.repulsive>
0.5190

> <Gold.PLP.ligand.clash>
0.0000

> <Gold.PLP.ligand.torsion>
0.2258

> <Gold.PLP.Chemscore.Hbond>
2.0000

> <Gold.PLP.Chemscore.CHOScore>
0.0000

> <Gold.PLP.Chemscore.Metal>
0.0000

> <Gold.Chemscore.Hbonds>
donor molecule, donor type, donor heavy atom, donor atom, acceptor molecule, acceptor atom, score
      L1  H    18    19       P1  7948  1.00
      P1  H  7989  7998       L1    17  1.00

> <Gold.PLP.Chemscore.Internal.Correction>
0.0309

> <Gold.Rescore>
     Score         DG    S(hbond)    S(metal)    S(lipo)     H(rot)  DE(clash)    DE(int)     intcor
     14.22     -14.98       1.04        0.00      88.43       1.69       0.41       0.35       ----

> <Gold.Chemscore.Fitness>
14.2227

> <Gold.Chemscore.DG>
-14.9812

> <Gold.Chemscore.ZeroCoef>
-5.4800

> <Gold.Chemscore.Hbond>
1.0435

> <Gold.Chemscore.Metal>
0.0000

> <Gold.Chemscore.Lipo>
88.4301

> <Gold.Chemscore.Internal_Hbond>
0.0000

> <Gold.Chemscore.DEClash>
0.4128

> <Gold.Chemscore.DEInternal>
0.3457

> <Gold.Chemscore.Rot>
1.6916

> <Gold.Chemscore.Internal.Correction>
   9.000000E+99

> <Gold.Chemscore.Hbonds>
donor molecule, donor type, donor heavy atom, donor atom, acceptor molecule, acceptor atom, score
      L1  H    18    19       P1  7948  0.92
      P1  H  7989  7998       L1    17  0.90

> <Gold.Chemscore.Hbond.Weighted>
-3.4854

> <Gold.Chemscore.Metal.Weighted>
-0.0000

> <Gold.Chemscore.Lipo.Weighted>
-10.3463

> <Gold.Chemscore.Internal_Hbond.Weighted>
0.0000

> <Gold.Chemscore.DEClash.Weighted>
0.4128

> <Gold.Chemscore.DEInternal.Weighted>
0.3457

> <Gold.Chemscore.Rot.Weighted>
4.3305

> <Gold.Chemscore.Internal.Correction.Weighted>
   9.000000E+99

> <Gold.Protein.RotatedTorsions>
[ 6907 6896 6895 6894 ] final  -24.50 input  -60.11 | X-H torsion
[ 7974 7965 7964 7962 ] final  152.88 input  175.53 | X-H torsion
[ 8008 7997 7996 7995 ] final -137.97 input   59.86 | X-H torsion
[ 10167 10162 10161 10158 ] final   70.89 input  -65.29 | X-H torsion
[ 10718 10713 10712 10709 ] final  162.22 input   66.30 | X-H torsion
[ 10763 10752 10751 10750 ] final   19.34 input  -60.55 | X-H torsion
[ 11005 11000 10999 10996 ] final   98.00 input  -57.11 | X-H torsion

> <Gold.Protein.ActiveResidues>
 VAL166  LYS551  ARG553  GLY616  TRP617  ASP618  TYR619  PRO620  LYS621  CYS622 
 ASP623  PHE694  ASN695  SER759  ASP760  ASP761  ALA762  ILE779  LEU786  VAL792 
 PHE793  MET794  SER795  GLU796  ALA797  LYS798  CYS799  TRP800  GLU811  SER814 

> <Gold.Protein.RotatedAtoms>
  151.1886  135.0392  159.8822 H   0  0  0  0  0  0  0  0  0  0  0  0  # atno 6907 bound_to 6896
  152.5441  134.0982  159.8316 H   0  0  0  0  0  0  0  0  0  0  0  0  # atno 6908 bound_to 6896
  151.1107  133.5128  159.2638 H   0  0  0  0  0  0  0  0  0  0  0  0  # atno 6909 bound_to 6896
  144.8192  139.6726  143.6108 H   0  0  0  0  0  0  0  0  0  0  0  0  # atno 7974 bound_to 7965
  155.4206  140.0518  157.3026 H   0  0  0  0  0  0  0  0  0  0  0  0  # atno 8008 bound_to 7997
  154.4904  140.2118  155.9519 H   0  0  0  0  0  0  0  0  0  0  0  0  # atno 8009 bound_to 7997
  156.1334  140.3167  155.8389 H   0  0  0  0  0  0  0  0  0  0  0  0  # atno 8010 bound_to 7997
  140.0520  144.5304  150.7356 H   0  0  0  0  0  0  0  0  0  0  0  0  # atno 10167 bound_to 10162
  157.1256  131.0503  151.2395 H   0  0  0  0  0  0  0  0  0  0  0  0  # atno 10718 bound_to 10713
  153.1170  135.6710  153.9400 H   0  0  0  0  0  0  0  0  0  0  0  0  # atno 10763 bound_to 10752
  153.8927  135.3045  155.3449 H   0  0  0  0  0  0  0  0  0  0  0  0  # atno 10764 bound_to 10752
  154.7586  135.4999  153.9499 H   0  0  0  0  0  0  0  0  0  0  0  0  # atno 10765 bound_to 10752
  139.8774  134.9028  156.4391 H   0  0  0  0  0  0  0  0  0  0  0  0  # atno 11005 bound_to 11000
  146.2497  139.6173  142.9435 LP  0  0  0  0  0  0  0  0  0  0  0  0  # atno 17320 bound_to 7965
  145.5143  141.0434  143.2470 LP  0  0  0  0  0  0  0  0  0  0  0  0  # atno 17321 bound_to 7965
  140.7212  143.2591  151.4272 LP  0  0  0  0  0  0  0  0  0  0  0  0  # atno 17342 bound_to 10162
  139.5947  144.1423  152.2129 LP  0  0  0  0  0  0  0  0  0  0  0  0  # atno 17343 bound_to 10162
  157.4438  130.7559  149.7092 LP  0  0  0  0  0  0  0  0  0  0  0  0  # atno 17370 bound_to 10713
  155.9819  130.4015  150.3447 LP  0  0  0  0  0  0  0  0  0  0  0  0  # atno 17371 bound_to 10713
  140.9012  133.7778  155.9683 LP  0  0  0  0  0  0  0  0  0  0  0  0  # atno 17394 bound_to 11000
  140.8648  134.2797  157.5218 LP  0  0  0  0  0  0  0  0  0  0  0  0  # atno 17395 bound_to 11000

$$$$
