AV-unprocessed.smi:949|AV-procd|sdf|4247|dock7
  -GOLD-   22720 2153D 1   1.00000     0.00000
 Structure written by MMmdl.
 32 33  0  0  0  0  0  0  0  0  1 V2000
  151.7801  138.2211  154.8286 C   0  0  0  0  0  0  0  0  0  0  0  0
  150.4371  137.4840  154.9804 C   0  0  1  0  0  0  0  0  0  0  0  0
  149.4932  137.9266  153.9595 N   0  0  0  0  0  0  0  0  0  0  0  0
  148.8875  139.1957  153.9723 C   0  0  0  0  0  0  0  0  0  0  0  0
  149.4046  140.2850  154.7134 C   0  0  0  0  0  0  0  0  0  0  0  0
  148.7307  141.5211  154.6688 C   0  0  0  0  0  0  0  0  0  0  0  0
  147.6070  141.7300  153.9532 N   0  0  0  0  0  0  0  0  0  0  0  0
  147.1122  140.6926  153.2473 C   0  0  0  0  0  0  0  0  0  0  0  0
  147.7060  139.4130  153.2208 C   0  0  0  0  0  0  0  0  0  0  0  0
  147.1192  138.3990  152.4596 N   0  0  0  0  0  0  0  0  0  0  0  0
  150.6309  135.9570  154.8987 C   0  0  2  0  0  0  0  0  0  0  0  0
  149.3338  135.1494  154.9993 C   0  0  0  0  0  0  0  0  0  0  0  0
  149.8314  133.8278  155.5362 C   0  0  0  0  0  0  0  0  0  0  0  0
  150.8981  134.2855  156.5238 C   0  0  0  0  0  0  0  0  0  0  0  0
  151.4286  135.4949  155.9886 O   0  0  0  0  0  0  0  0  0  0  0  0
  152.4829  137.9248  155.6076 H   0  0  0  0  0  0  0  0  0  0  0  0
  151.6585  139.3018  154.8992 H   0  0  0  0  0  0  0  0  0  0  0  0
  152.2439  138.0042  153.8656 H   0  0  0  0  0  0  0  0  0  0  0  0
  150.0210  137.7043  155.9634 H   0  0  0  0  0  0  0  0  0  0  0  0
  149.2616  137.2844  153.2160 H   0  0  0  0  0  0  0  0  0  0  0  0
  150.2999  140.2008  155.3094 H   0  0  0  0  0  0  0  0  0  0  0  0
  149.1064  142.3667  155.2255 H   0  0  0  0  0  0  0  0  0  0  0  0
  146.2111  140.8916  152.6855 H   0  0  0  0  0  0  0  0  0  0  0  0
  147.5246  137.4748  152.4237 H   0  0  0  0  0  0  0  0  0  0  0  0
  146.1865  138.5000  152.0864 H   0  0  0  0  0  0  0  0  0  0  0  0
  151.1476  135.6886  153.9756 H   0  0  0  0  0  0  0  0  0  0  0  0
  148.6483  135.6067  155.7144 H   0  0  0  0  0  0  0  0  0  0  0  0
  148.8164  135.0540  154.0441 H   0  0  0  0  0  0  0  0  0  0  0  0
  149.0482  133.2281  156.0005 H   0  0  0  0  0  0  0  0  0  0  0  0
  150.2839  133.2427  154.7345 H   0  0  0  0  0  0  0  0  0  0  0  0
  150.4486  134.5054  157.4930 H   0  0  0  0  0  0  0  0  0  0  0  0
  151.6778  133.5382  156.6730 H   0  0  0  0  0  0  0  0  0  0  0  0
  1  2  1  0  0  0  0
  1 16  1  0  0  0  0
  1 17  1  0  0  0  0
  1 18  1  0  0  0  0
  2  3  1  0  0  0  0
  2 11  1  0  0  0  0
  2 19  1  0  0  0  0
  3  4  1  0  0  0  0
  3 20  1  0  0  0  0
  4  9  1  0  0  0  0
  4  5  2  0  0  0  0
  5  6  1  0  0  0  0
  5 21  1  0  0  0  0
  6  7  2  0  0  0  0
  6 22  1  0  0  0  0
  7  8  1  0  0  0  0
  8  9  2  0  0  0  0
  8 23  1  0  0  0  0
  9 10  1  0  0  0  0
 10 24  1  0  0  0  0
 10 25  1  0  0  0  0
 11 15  1  0  0  0  0
 11 12  1  0  0  0  0
 11 26  1  0  0  0  0
 12 13  1  0  0  0  0
 12 27  1  0  0  0  0
 12 28  1  0  0  0  0
 13 14  1  0  0  0  0
 13 29  1  0  0  0  0
 13 30  1  0  0  0  0
 14 15  1  0  0  0  0
 14 31  1  0  0  0  0
 14 32  1  0  0  0  0
M  END
> <s_m_source_file>
AV-unprocessed.smi

> <i_m_source_file_index>
949

> <i_lp_mmshare_version>
43012

> <i_f3d_flags>
0

> <s_epik_input>
TzFbQ0gyXVtDSDJdW0NIMl1bQ0BIXTFbQ0BIXShbQ0gzXSlbTkhdYzJbY0hdW2NIXW5bY0hdYzJbTkgyXQ==

> <s_epik_cmdline>
J2VwaWtfcHl0aG9uJywgJy1waCcsICc3LjAnLCAnLXRuJywgJzgnLCAnLW1hJywgJzIwMCcsICctbWV0YWxfYmluZGluZycsICctaW1hZScsICc8aW5maWxlLm1hZT4nLCAnLW9tYWUnLCAnPG91dGZpbGUubWFlPic=

> <r_epik_Ionization_Penalty>
3.88091

> <r_epik_Ionization_Penalty_Charging>
0

> <r_epik_Ionization_Penalty_Neutral>
3.88091

> <r_epik_State_Penalty>
3.88049

> <r_epik_Charging_Adjusted_Penalty>
3.88049

> <i_epik_Tot_Q>
0

> <i_epik_Tot_abs_Q>
0

> <r_epik_Metal_State_Penalty>
0.313783

> <b_epik_Metal_Only>
1

> <s_lp_Force_Field>
OPLS_2005

> <r_lp_Energy>
23.3849

> <b_lp_Chiralities_Consistent>
1

> <s_lp_Variant>
AV-unprocessed.smi:949-6

> <Gold.Version>
5.8.1

> <Gold.Id.Protein>
6NUR|6NUR_protein|mol2

> <Gold.PLP.Fitness>
41.3650

> <Gold.PLP.PLP>
-26.8905

> <Gold.PLP.part.hbond>
-3.1962

> <Gold.PLP.part.metal>
0.0000

> <Gold.PLP.part.buried>
-0.5206

> <Gold.PLP.part.nonpolar>
-24.1061

> <Gold.PLP.part.repulsive>
0.2878

> <Gold.PLP.ligand.clash>
0.0000

> <Gold.PLP.ligand.torsion>
0.2569

> <Gold.PLP.Chemscore.Hbond>
2.9920

> <Gold.PLP.Chemscore.CHOScore>
2.0000

> <Gold.PLP.Chemscore.Metal>
0.0000

> <Gold.Chemscore.Hbonds>
donor molecule, donor type, donor heavy atom, donor atom, acceptor molecule, acceptor atom, score
      L1  H     3    20       P1  7948  1.00
      L1  H    10    24       P1  7948  1.00
      P1  H 10752 10765       L1    15  1.00
      L1  C     6    22       P1  8028  1.00
      L1  C     8    23       P1 10175  0.93

> <Gold.PLP.Chemscore.Internal.Correction>
0.0122

> <Gold.Rescore>
     Score         DG    S(hbond)    S(metal)    S(lipo)     H(rot)  DE(clash)    DE(int)     intcor
     16.06     -16.90       1.95        0.00      68.65       1.22       0.61       0.23       ----

> <Gold.Chemscore.Fitness>
16.0554

> <Gold.Chemscore.DG>
-16.9025

> <Gold.Chemscore.ZeroCoef>
-5.4800

> <Gold.Chemscore.Hbond>
1.9476

> <Gold.Chemscore.Metal>
0.0000

> <Gold.Chemscore.Lipo>
68.6546

> <Gold.Chemscore.Internal_Hbond>
0.0000

> <Gold.Chemscore.DEClash>
0.6140

> <Gold.Chemscore.DEInternal>
0.2331

> <Gold.Chemscore.Rot>
1.2169

> <Gold.Chemscore.Internal.Correction>
   9.000000E+99

> <Gold.Chemscore.Hbonds>
donor molecule, donor type, donor heavy atom, donor atom, acceptor molecule, acceptor atom, score
      L1  H     3    20       P1  7948  0.98
      L1  H    10    24       P1  7948  0.93
      P1  H 10752 10765       L1    15  0.23

> <Gold.Chemscore.Hbond.Weighted>
-6.5051

> <Gold.Chemscore.Metal.Weighted>
-0.0000

> <Gold.Chemscore.Lipo.Weighted>
-8.0326

> <Gold.Chemscore.Internal_Hbond.Weighted>
0.0000

> <Gold.Chemscore.DEClash.Weighted>
0.6140

> <Gold.Chemscore.DEInternal.Weighted>
0.2331

> <Gold.Chemscore.Rot.Weighted>
3.1152

> <Gold.Chemscore.Internal.Correction.Weighted>
   9.000000E+99

> <Gold.Protein.RotatedTorsions>
[ 6907 6896 6895 6894 ] final  115.63 input  -60.11 | X-H torsion
[ 7974 7965 7964 7962 ] final  -48.86 input  175.53 | X-H torsion
[ 8008 7997 7996 7995 ] final  106.15 input   59.86 | X-H torsion
[ 10167 10162 10161 10158 ] final   39.93 input  -65.29 | X-H torsion
[ 10718 10713 10712 10709 ] final   86.25 input   66.30 | X-H torsion
[ 10763 10752 10751 10750 ] final -144.83 input  -60.55 | X-H torsion
[ 11005 11000 10999 10996 ] final   94.08 input  -57.11 | X-H torsion

> <Gold.Protein.ActiveResidues>
 VAL166  LYS551  ARG553  GLY616  TRP617  ASP618  TYR619  PRO620  LYS621  CYS622 
 ASP623  PHE694  ASN695  SER759  ASP760  ASP761  ALA762  ILE779  LEU786  VAL792 
 PHE793  MET794  SER795  GLU796  ALA797  LYS798  CYS799  TRP800  GLU811  SER814 

> <Gold.Protein.RotatedAtoms>
  152.4729  133.8072  159.6983 H   0  0  0  0  0  0  0  0  0  0  0  0  # atno 6907 bound_to 6896
  150.8729  133.7470  159.2962 H   0  0  0  0  0  0  0  0  0  0  0  0  # atno 6908 bound_to 6896
  151.4999  135.1064  159.9878 H   0  0  0  0  0  0  0  0  0  0  0  0  # atno 6909 bound_to 6896
  145.9467  140.7612  142.9525 H   0  0  0  0  0  0  0  0  0  0  0  0  # atno 7974 bound_to 7965
  156.1719  140.3118  155.8989 H   0  0  0  0  0  0  0  0  0  0  0  0  # atno 8008 bound_to 7997
  155.3568  140.0474  157.3063 H   0  0  0  0  0  0  0  0  0  0  0  0  # atno 8009 bound_to 7997
  154.5250  140.2211  155.8917 H   0  0  0  0  0  0  0  0  0  0  0  0  # atno 8010 bound_to 7997
  140.3791  144.2003  150.6131 H   0  0  0  0  0  0  0  0  0  0  0  0  # atno 10167 bound_to 10162
  157.6926  131.0208  150.2944 H   0  0  0  0  0  0  0  0  0  0  0  0  # atno 10718 bound_to 10713
  154.8411  135.3429  154.6408 H   0  0  0  0  0  0  0  0  0  0  0  0  # atno 10763 bound_to 10752
  153.7019  135.6969  153.5065 H   0  0  0  0  0  0  0  0  0  0  0  0  # atno 10764 bound_to 10752
  153.2516  135.4351  155.0758 H   0  0  0  0  0  0  0  0  0  0  0  0  # atno 10765 bound_to 10752
  139.8802  134.8825  156.3811 H   0  0  0  0  0  0  0  0  0  0  0  0  # atno 11005 bound_to 11000
  144.6788  140.2367  143.7348 LP  0  0  0  0  0  0  0  0  0  0  0  0  # atno 17320 bound_to 7965
  145.8227  139.2051  143.1928 LP  0  0  0  0  0  0  0  0  0  0  0  0  # atno 17321 bound_to 7965
  140.4955  143.2334  151.8755 LP  0  0  0  0  0  0  0  0  0  0  0  0  # atno 17342 bound_to 10162
  139.4797  144.5118  151.8922 LP  0  0  0  0  0  0  0  0  0  0  0  0  # atno 17343 bound_to 10162
  156.3470  130.3824  149.7361 LP  0  0  0  0  0  0  0  0  0  0  0  0  # atno 17370 bound_to 10713
  156.4851  130.8059  151.3071 LP  0  0  0  0  0  0  0  0  0  0  0  0  # atno 17371 bound_to 10713
  140.9398  133.7522  156.0131 LP  0  0  0  0  0  0  0  0  0  0  0  0  # atno 17394 bound_to 11000
  140.8233  134.3264  157.5374 LP  0  0  0  0  0  0  0  0  0  0  0  0  # atno 17395 bound_to 11000

$$$$
