AV-unprocessed.smi:1333|AV-procd|sdf|5490|dock1
  -GOLD-   22720 5 63D 1   1.00000     0.00000
 Structure written by MMmdl.
 33 34  0  0  0  0  0  0  0  0  1 V2000
  146.3310  136.0961  153.0330 O   0  0  0  0  0  0  0  0  0  0  0  0
  145.6438  136.5120  152.0960 C   0  0  0  0  0  0  0  0  0  0  0  0
  144.4978  135.6564  151.5391 C   0  0  0  0  0  0  0  0  0  0  0  0
  144.9439  134.3765  151.0148 N   0  0  0  0  0  0  0  0  0  0  0  0
  146.2544  133.9351  150.8814 C   0  0  0  0  0  0  0  0  0  0  0  0
  146.1905  132.6724  150.3368 C   0  0  0  0  0  0  0  0  0  0  0  0
  144.8594  132.3182  150.1288 N   0  0  0  0  0  0  0  0  0  0  0  0
  144.1802  133.3764  150.5522 C   0  0  0  0  0  0  0  0  0  0  0  0
  145.8019  137.7038  151.4750 N   0  0  0  0  0  0  0  0  0  0  0  0
  146.6888  138.7063  151.6827 C   0  0  0  0  0  0  0  0  0  0  0  0
  146.5189  139.8086  151.1640 O   0  0  0  0  0  0  0  0  0  0  0  0
  147.7480  138.4372  152.4691 N   0  0  0  0  0  0  0  0  0  0  0  0
  148.5777  139.4307  153.1448 C   0  0  0  0  0  0  0  0  0  0  0  0
  149.6284  138.7651  154.0564 C   0  0  0  0  0  0  0  0  0  0  0  0
  149.1604  139.0159  155.4900 C   0  0  0  0  0  0  0  0  0  0  0  0
  148.4338  140.3547  155.4150 C   0  0  0  0  0  0  0  0  0  0  0  0
  147.7195  140.3233  154.0622 C   0  0  0  0  0  0  0  0  0  0  0  0
  143.7638  135.4740  152.3253 H   0  0  0  0  0  0  0  0  0  0  0  0
  143.9901  136.2030  150.7433 H   0  0  0  0  0  0  0  0  0  0  0  0
  147.1002  134.5401  151.1735 H   0  0  0  0  0  0  0  0  0  0  0  0
  146.9936  131.9979  150.0796 H   0  0  0  0  0  0  0  0  0  0  0  0
  143.1015  133.4260  150.5235 H   0  0  0  0  0  0  0  0  0  0  0  0
  145.1474  137.8784  150.7264 H   0  0  0  0  0  0  0  0  0  0  0  0
  147.9960  137.4677  152.6083 H   0  0  0  0  0  0  0  0  0  0  0  0
  149.0804  140.0510  152.4004 H   0  0  0  0  0  0  0  0  0  0  0  0
  149.7729  137.7028  153.8550 H   0  0  0  0  0  0  0  0  0  0  0  0
  150.5926  139.2516  153.9035 H   0  0  0  0  0  0  0  0  0  0  0  0
  148.4616  138.2343  155.7911 H   0  0  0  0  0  0  0  0  0  0  0  0
  149.9834  139.0227  156.2053 H   0  0  0  0  0  0  0  0  0  0  0  0
  147.7482  140.5085  156.2487 H   0  0  0  0  0  0  0  0  0  0  0  0
  149.1617  141.1671  155.4280 H   0  0  0  0  0  0  0  0  0  0  0  0
  147.5831  141.3246  153.6519 H   0  0  0  0  0  0  0  0  0  0  0  0
  146.7253  139.8937  154.1971 H   0  0  0  0  0  0  0  0  0  0  0  0
  1  2  2  0  0  0  0
  2  3  1  0  0  0  0
  2  9  1  0  0  0  0
  3  4  1  0  0  0  0
  3 18  1  0  0  0  0
  3 19  1  0  0  0  0
  4  8  1  0  0  0  0
  4  5  1  0  0  0  0
  5  6  2  0  0  0  0
  5 20  1  0  0  0  0
  6  7  1  0  0  0  0
  6 21  1  0  0  0  0
  7  8  2  0  0  0  0
  8 22  1  0  0  0  0
  9 10  1  0  0  0  0
  9 23  1  0  0  0  0
 10 11  2  0  0  0  0
 10 12  1  0  0  0  0
 12 13  1  0  0  0  0
 12 24  1  0  0  0  0
 13 17  1  0  0  0  0
 13 14  1  0  0  0  0
 13 25  1  0  0  0  0
 14 15  1  0  0  0  0
 14 26  1  0  0  0  0
 14 27  1  0  0  0  0
 15 16  1  0  0  0  0
 15 28  1  0  0  0  0
 15 29  1  0  0  0  0
 16 17  1  0  0  0  0
 16 30  1  0  0  0  0
 16 31  1  0  0  0  0
 17 32  1  0  0  0  0
 17 33  1  0  0  0  0
M  END
> <s_m_source_file>
AV-unprocessed.smi

> <i_m_source_file_index>
1333

> <i_lp_mmshare_version>
43012

> <i_f3d_flags>
0

> <s_epik_input>
W2NIXTFuW2NIXVtjSF1uMVtDSDJdQyg9TylbTkhdQyg9TylbTkhdW0NIXTJbQ0gyXVtDSDJdW0NIMl1bQ0gyXTI=

> <s_epik_cmdline>
J2VwaWtfcHl0aG9uJywgJy1waCcsICc3LjAnLCAnLXRuJywgJzgnLCAnLW1hJywgJzIwMCcsICctbWV0YWxfYmluZGluZycsICctaW1hZScsICc8aW5maWxlLm1hZT4nLCAnLW9tYWUnLCAnPG91dGZpbGUubWFlPic=

> <r_lp_tautomer_probability>
1

> <r_epik_Ionization_Penalty>
0.171964

> <r_epik_Ionization_Penalty_Charging>
0.171937

> <r_epik_Ionization_Penalty_Neutral>
2.73302e-05

> <r_epik_State_Penalty>
0.161333

> <r_epik_Charging_Adjusted_Penalty>
0.33327

> <i_epik_Tot_Q>
0

> <i_epik_Tot_abs_Q>
0

> <r_epik_Metal_State_Penalty>
0.124658

> <b_epik_Metal_Only>
0

> <s_lp_Force_Field>
OPLS_2005

> <r_lp_Energy>
24.334

> <b_lp_Chiralities_Consistent>
1

> <s_lp_Variant>
AV-unprocessed.smi:1333-1

> <Gold.Version>
5.8.1

> <Gold.Id.Protein>
6NUR|6NUR_protein|mol2

> <Gold.PLP.Fitness>
39.4636

> <Gold.PLP.PLP>
-25.6933

> <Gold.PLP.part.hbond>
-3.0000

> <Gold.PLP.part.metal>
0.0000

> <Gold.PLP.part.buried>
-1.6856

> <Gold.PLP.part.nonpolar>
-23.9365

> <Gold.PLP.part.repulsive>
2.1743

> <Gold.PLP.ligand.clash>
0.0000

> <Gold.PLP.ligand.torsion>
0.1690

> <Gold.PLP.Chemscore.Hbond>
1.6880

> <Gold.PLP.Chemscore.CHOScore>
3.0000

> <Gold.PLP.Chemscore.Metal>
0.0000

> <Gold.Chemscore.Hbonds>
donor molecule, donor type, donor heavy atom, donor atom, acceptor molecule, acceptor atom, score
      L1  H     9    23       P1 10171  1.00
      L1  H    12    24       P1  7948  0.77
      L1  C     5    20       P1  7948  0.98
      L1  C     6    21       P1 10747  1.00
      L1  C     8    22       P1 10186  1.00

> <Gold.PLP.Chemscore.Internal.Correction>
0.0444

> <Gold.Rescore>
     Score         DG    S(hbond)    S(metal)    S(lipo)     H(rot)  DE(clash)    DE(int)     intcor
      9.17     -12.45       1.76        0.00      47.21       1.73       3.10       0.18       ----

> <Gold.Chemscore.Fitness>
9.1700

> <Gold.Chemscore.DG>
-12.4482

> <Gold.Chemscore.ZeroCoef>
-5.4800

> <Gold.Chemscore.Hbond>
1.7557

> <Gold.Chemscore.Metal>
0.0000

> <Gold.Chemscore.Lipo>
47.2098

> <Gold.Chemscore.Internal_Hbond>
0.0000

> <Gold.Chemscore.DEClash>
3.0968

> <Gold.Chemscore.DEInternal>
0.1813

> <Gold.Chemscore.Rot>
1.7263

> <Gold.Chemscore.Internal.Correction>
   9.000000E+99

> <Gold.Chemscore.Hbonds>
donor molecule, donor type, donor heavy atom, donor atom, acceptor molecule, acceptor atom, score
      L1  H     9    23       P1 10171  1.00
      L1  H    12    24       P1  7948  0.76

> <Gold.Chemscore.Hbond.Weighted>
-5.8639

> <Gold.Chemscore.Metal.Weighted>
-0.0000

> <Gold.Chemscore.Lipo.Weighted>
-5.5236

> <Gold.Chemscore.Internal_Hbond.Weighted>
0.0000

> <Gold.Chemscore.DEClash.Weighted>
3.0968

> <Gold.Chemscore.DEInternal.Weighted>
0.1813

> <Gold.Chemscore.Rot.Weighted>
4.4193

> <Gold.Chemscore.Internal.Correction.Weighted>
   9.000000E+99

> <Gold.Protein.RotatedTorsions>
[ 6907 6896 6895 6894 ] final   62.96 input  -60.11 | X-H torsion
[ 7974 7965 7964 7962 ] final   72.08 input  175.53 | X-H torsion
[ 8008 7997 7996 7995 ] final -178.49 input   59.86 | X-H torsion
[ 10167 10162 10161 10158 ] final  -56.32 input  -65.29 | X-H torsion
[ 10718 10713 10712 10709 ] final  -70.48 input   66.30 | X-H torsion
[ 10763 10752 10751 10750 ] final   71.67 input  -60.55 | X-H torsion
[ 11005 11000 10999 10996 ] final   47.43 input  -57.11 | X-H torsion

> <Gold.Protein.ActiveResidues>
 VAL166  LYS551  ARG553  GLY616  TRP617  ASP618  TYR619  PRO620  LYS621  CYS622 
 ASP623  PHE694  ASN695  SER759  ASP760  ASP761  ALA762  ILE779  LEU786  VAL792 
 PHE793  MET794  SER795  GLU796  ALA797  LYS798  CYS799  TRP800  GLU811  SER814 

> <Gold.Protein.RotatedAtoms>
  152.4214  134.5948  159.9983 H   0  0  0  0  0  0  0  0  0  0  0  0  # atno 6907 bound_to 6896
  151.6096  133.3343  159.3072 H   0  0  0  0  0  0  0  0  0  0  0  0  # atno 6908 bound_to 6896
  150.8103  134.7291  159.6747 H   0  0  0  0  0  0  0  0  0  0  0  0  # atno 6909 bound_to 6896
  145.7579  139.2788  143.1393 H   0  0  0  0  0  0  0  0  0  0  0  0  # atno 7974 bound_to 7965
  156.0194  140.1258  157.0373 H   0  0  0  0  0  0  0  0  0  0  0  0  # atno 8008 bound_to 7997
  154.4306  140.1071  156.6012 H   0  0  0  0  0  0  0  0  0  0  0  0  # atno 8009 bound_to 7997
  155.5966  140.3470  155.4584 H   0  0  0  0  0  0  0  0  0  0  0  0  # atno 8010 bound_to 7997
  140.6324  143.2465  151.5207 H   0  0  0  0  0  0  0  0  0  0  0  0  # atno 10167 bound_to 10162
  156.0406  130.4332  150.2302 H   0  0  0  0  0  0  0  0  0  0  0  0  # atno 10718 bound_to 10713
  153.0413  135.5128  154.7629 H   0  0  0  0  0  0  0  0  0  0  0  0  # atno 10763 bound_to 10752
  154.6564  135.2932  154.9924 H   0  0  0  0  0  0  0  0  0  0  0  0  # atno 10764 bound_to 10752
  154.0791  135.6666  153.4888 H   0  0  0  0  0  0  0  0  0  0  0  0  # atno 10765 bound_to 10752
  140.1280  134.4743  155.8544 H   0  0  0  0  0  0  0  0  0  0  0  0  # atno 11005 bound_to 11000
  146.0293  140.8273  142.9884 LP  0  0  0  0  0  0  0  0  0  0  0  0  # atno 17320 bound_to 7965
  144.6836  140.2745  143.7301 LP  0  0  0  0  0  0  0  0  0  0  0  0  # atno 17321 bound_to 7965
  139.5537  144.2331  152.1574 LP  0  0  0  0  0  0  0  0  0  0  0  0  # atno 17342 bound_to 10162
  140.1578  144.5054  150.6650 LP  0  0  0  0  0  0  0  0  0  0  0  0  # atno 17343 bound_to 10162
  157.0397  131.0031  151.3287 LP  0  0  0  0  0  0  0  0  0  0  0  0  # atno 17370 bound_to 10713
  157.5218  130.8003  149.7818 LP  0  0  0  0  0  0  0  0  0  0  0  0  # atno 17371 bound_to 10713
  141.2165  133.6785  156.7015 LP  0  0  0  0  0  0  0  0  0  0  0  0  # atno 17394 bound_to 11000
  140.2879  134.8264  157.3991 LP  0  0  0  0  0  0  0  0  0  0  0  0  # atno 17395 bound_to 11000

$$$$
