AV-unprocessed.smi:3017|AV-procd|sdf|11477|dock5
  -GOLD-   2272016413D 1   1.00000     0.00000
 Structure written by MMmdl.
 37 38  0  0  0  0  0  0  0  0  1 V2000
  154.4915  140.8048  161.2575 C   0  0  0  0  0  0  0  0  0  0  0  0
  153.7179  142.0614  160.8336 C   0  0  2  0  0  0  0  0  0  0  0  0
  152.9751  142.6937  162.0264 C   0  0  0  0  0  0  0  0  0  0  0  0
  152.1957  143.9485  161.6030 C   0  0  0  0  0  0  0  0  0  0  0  0
  151.2225  143.6351  160.4568 C   0  0  0  0  0  0  0  0  0  0  0  0
  151.9548  143.0179  159.2537 C   0  0  2  0  0  0  0  0  0  0  0  0
  150.9688  142.6951  158.2825 O   0  0  0  0  0  0  0  0  0  0  0  0
  151.4381  142.6975  156.9399 C   0  0  0  0  0  0  0  0  0  0  0  0
  150.7046  141.6142  156.1489 C   0  0  0  0  0  0  0  0  0  0  0  0
  151.1705  140.4755  156.1118 O   0  0  0  0  0  0  0  0  0  0  0  0
  149.5804  142.0019  155.5175 N   0  0  0  0  0  0  0  0  0  0  0  0
  148.6978  141.2153  154.7325 C   0  0  0  0  0  0  0  0  0  0  0  0
  147.4638  141.8232  154.4011 C   0  0  0  0  0  0  0  0  0  0  0  0
  146.5184  141.1999  153.6629 N   0  0  0  0  0  0  0  0  0  0  0  0
  146.8058  139.9484  153.2464 C   0  0  0  0  0  0  0  0  0  0  0  0
  148.0297  139.3273  153.5661 C   0  0  0  0  0  0  0  0  0  0  0  0
  148.9704  139.9560  154.3042 N   0  0  0  0  0  0  0  0  0  0  0  0
  152.7367  141.7587  159.6835 C   0  0  0  0  0  0  0  0  0  0  0  0
  153.8187  140.0313  161.6288 H   0  0  0  0  0  0  0  0  0  0  0  0
  155.2061  141.0324  162.0489 H   0  0  0  0  0  0  0  0  0  0  0  0
  155.0503  140.3864  160.4200 H   0  0  0  0  0  0  0  0  0  0  0  0
  154.4468  142.7874  160.4702 H   0  0  0  0  0  0  0  0  0  0  0  0
  152.2861  141.9670  162.4593 H   0  0  0  0  0  0  0  0  0  0  0  0
  153.6839  142.9529  162.8135 H   0  0  0  0  0  0  0  0  0  0  0  0
  151.6481  144.3511  162.4555 H   0  0  0  0  0  0  0  0  0  0  0  0
  152.8940  144.7251  161.2885 H   0  0  0  0  0  0  0  0  0  0  0  0
  150.4529  142.9478  160.8110 H   0  0  0  0  0  0  0  0  0  0  0  0
  150.7063  144.5456  160.1505 H   0  0  0  0  0  0  0  0  0  0  0  0
  152.6439  143.7634  158.8521 H   0  0  0  0  0  0  0  0  0  0  0  0
  151.2495  143.6645  156.4714 H   0  0  0  0  0  0  0  0  0  0  0  0
  152.5114  142.5096  156.9000 H   0  0  0  0  0  0  0  0  0  0  0  0
  149.3201  142.9711  155.6295 H   0  0  0  0  0  0  0  0  0  0  0  0
  147.2286  142.8242  154.7330 H   0  0  0  0  0  0  0  0  0  0  0  0
  146.0571  139.4405  152.6565 H   0  0  0  0  0  0  0  0  0  0  0  0
  148.2542  138.3261  153.2298 H   0  0  0  0  0  0  0  0  0  0  0  0
  153.2892  141.3502  158.8377 H   0  0  0  0  0  0  0  0  0  0  0  0
  152.0341  140.9845  159.9951 H   0  0  0  0  0  0  0  0  0  0  0  0
  1  2  1  0  0  0  0
  1 19  1  0  0  0  0
  1 20  1  0  0  0  0
  1 21  1  0  0  0  0
  2 18  1  0  0  0  0
  2  3  1  0  0  0  0
  2 22  1  0  0  0  0
  3  4  1  0  0  0  0
  3 23  1  0  0  0  0
  3 24  1  0  0  0  0
  4  5  1  0  0  0  0
  4 25  1  0  0  0  0
  4 26  1  0  0  0  0
  5  6  1  0  0  0  0
  5 27  1  0  0  0  0
  5 28  1  0  0  0  0
  6  7  1  0  0  0  0
  6 18  1  0  0  0  0
  6 29  1  0  0  0  0
  7  8  1  0  0  0  0
  8  9  1  0  0  0  0
  8 30  1  0  0  0  0
  8 31  1  0  0  0  0
  9 10  2  0  0  0  0
  9 11  1  0  0  0  0
 11 12  1  0  0  0  0
 11 32  1  0  0  0  0
 12 17  1  0  0  0  0
 12 13  2  0  0  0  0
 13 14  1  0  0  0  0
 13 33  1  0  0  0  0
 14 15  2  0  0  0  0
 15 16  1  0  0  0  0
 15 34  1  0  0  0  0
 16 17  2  0  0  0  0
 16 35  1  0  0  0  0
 18 36  1  0  0  0  0
 18 37  1  0  0  0  0
M  END
> <s_m_source_file>
AV-unprocessed.smi

> <i_m_source_file_index>
3017

> <i_lp_mmshare_version>
43012

> <i_f3d_flags>
0

> <s_epik_input>
W0NIM11bQ0BASF0xW0NIMl1bQ0gyXVtDSDJdW0NASF0oW0NIMl0xKU9bQ0gyXUMoPU8pW05IXWMyW2NIXW5bY0hdW2NIXW4y

> <s_epik_cmdline>
J2VwaWtfcHl0aG9uJywgJy1waCcsICc3LjAnLCAnLXRuJywgJzgnLCAnLW1hJywgJzIwMCcsICctbWV0YWxfYmluZGluZycsICctaW1hZScsICc8aW5maWxlLm1hZT4nLCAnLW9tYWUnLCAnPG91dGZpbGUubWFlPic=

> <r_lp_tautomer_probability>
1

> <r_epik_Ionization_Penalty>
2.89243e-06

> <r_epik_Ionization_Penalty_Charging>
0

> <r_epik_Ionization_Penalty_Neutral>
2.89243e-06

> <r_epik_State_Penalty>
-0

> <r_epik_Charging_Adjusted_Penalty>
0

> <i_epik_Tot_Q>
0

> <i_epik_Tot_abs_Q>
0

> <r_epik_Metal_State_Penalty>
-0

> <b_epik_Metal_Only>
0

> <s_lp_Force_Field>
OPLS_2005

> <r_lp_Energy>
19.9912

> <b_lp_Chiralities_Consistent>
1

> <s_lp_Variant>
AV-unprocessed.smi:3017-3

> <Gold.Version>
5.8.1

> <Gold.Id.Protein>
6NUR|6NUR_protein|mol2

> <Gold.PLP.Fitness>
47.4232

> <Gold.PLP.PLP>
-39.0031

> <Gold.PLP.part.hbond>
-1.0000

> <Gold.PLP.part.metal>
0.0000

> <Gold.PLP.part.buried>
-4.7231

> <Gold.PLP.part.nonpolar>
-34.8005

> <Gold.PLP.part.repulsive>
0.5933

> <Gold.PLP.ligand.clash>
0.0000

> <Gold.PLP.ligand.torsion>
0.9456

> <Gold.PLP.Chemscore.Hbond>
1.0000

> <Gold.PLP.Chemscore.CHOScore>
2.4299

> <Gold.PLP.Chemscore.Metal>
0.0000

> <Gold.Chemscore.Hbonds>
donor molecule, donor type, donor heavy atom, donor atom, acceptor molecule, acceptor atom, score
      L1  H    11    32       P1  8028  1.00
      L1  C    13    33       P1  8028  0.73
      L1  C    15    34       P1 10175  0.67
      L1  C    16    35       P1  7948  0.88

> <Gold.PLP.Chemscore.Internal.Correction>
0.0216

> <Gold.Rescore>
     Score         DG    S(hbond)    S(metal)    S(lipo)     H(rot)  DE(clash)    DE(int)     intcor
     14.47     -17.39       1.00        0.00     106.35       1.51       0.85       2.07       ----

> <Gold.Chemscore.Fitness>
14.4722

> <Gold.Chemscore.DG>
-17.3929

> <Gold.Chemscore.ZeroCoef>
-5.4800

> <Gold.Chemscore.Hbond>
1.0000

> <Gold.Chemscore.Metal>
0.0000

> <Gold.Chemscore.Lipo>
106.3548

> <Gold.Chemscore.Internal_Hbond>
0.0000

> <Gold.Chemscore.DEClash>
0.8470

> <Gold.Chemscore.DEInternal>
2.0737

> <Gold.Chemscore.Rot>
1.5119

> <Gold.Chemscore.Internal.Correction>
   9.000000E+99

> <Gold.Chemscore.Hbonds>
donor molecule, donor type, donor heavy atom, donor atom, acceptor molecule, acceptor atom, score
      L1  H    11    32       P1  8028  1.00

> <Gold.Chemscore.Hbond.Weighted>
-3.3400

> <Gold.Chemscore.Metal.Weighted>
-0.0000

> <Gold.Chemscore.Lipo.Weighted>
-12.4435

> <Gold.Chemscore.Internal_Hbond.Weighted>
0.0000

> <Gold.Chemscore.DEClash.Weighted>
0.8470

> <Gold.Chemscore.DEInternal.Weighted>
2.0737

> <Gold.Chemscore.Rot.Weighted>
3.8706

> <Gold.Chemscore.Internal.Correction.Weighted>
   9.000000E+99

> <Gold.Protein.RotatedTorsions>
[ 6907 6896 6895 6894 ] final  114.13 input  -60.11 | X-H torsion
[ 7974 7965 7964 7962 ] final  -72.05 input  175.53 | X-H torsion
[ 8008 7997 7996 7995 ] final   18.53 input   59.86 | X-H torsion
[ 10167 10162 10161 10158 ] final  -40.42 input  -65.29 | X-H torsion
[ 10718 10713 10712 10709 ] final -146.99 input   66.30 | X-H torsion
[ 10763 10752 10751 10750 ] final -135.11 input  -60.55 | X-H torsion
[ 11005 11000 10999 10996 ] final   11.56 input  -57.11 | X-H torsion

> <Gold.Protein.ActiveResidues>
 VAL166  LYS551  ARG553  GLY616  TRP617  ASP618  TYR619  PRO620  LYS621  CYS622 
 ASP623  PHE694  ASN695  SER759  ASP760  ASP761  ALA762  ILE779  LEU786  VAL792 
 PHE793  MET794  SER795  GLU796  ALA797  LYS798  CYS799  TRP800  GLU811  SER814 

> <Gold.Protein.RotatedAtoms>
  152.4820  133.8279  159.7087 H   0  0  0  0  0  0  0  0  0  0  0  0  # atno 6907 bound_to 6896
  150.8877  133.7275  159.2920 H   0  0  0  0  0  0  0  0  0  0  0  0  # atno 6908 bound_to 6896
  151.4758  135.1052  159.9816 H   0  0  0  0  0  0  0  0  0  0  0  0  # atno 6909 bound_to 6896
  145.6701  140.9224  143.0887 H   0  0  0  0  0  0  0  0  0  0  0  0  # atno 7974 bound_to 7965
  154.9073  140.3009  155.5285 H   0  0  0  0  0  0  0  0  0  0  0  0  # atno 8008 bound_to 7997
  156.3016  140.2395  156.4044 H   0  0  0  0  0  0  0  0  0  0  0  0  # atno 8009 bound_to 7997
  154.8460  140.0411  157.1562 H   0  0  0  0  0  0  0  0  0  0  0  0  # atno 8010 bound_to 7997
  140.7035  143.3154  151.2922 H   0  0  0  0  0  0  0  0  0  0  0  0  # atno 10167 bound_to 10162
  156.4019  130.7938  151.2149 H   0  0  0  0  0  0  0  0  0  0  0  0  # atno 10718 bound_to 10713
  154.8708  135.3713  154.4845 H   0  0  0  0  0  0  0  0  0  0  0  0  # atno 10763 bound_to 10752
  153.5496  135.7025  153.5602 H   0  0  0  0  0  0  0  0  0  0  0  0  # atno 10764 bound_to 10752
  153.3727  135.4017  155.1764 H   0  0  0  0  0  0  0  0  0  0  0  0  # atno 10765 bound_to 10752
  140.5019  134.0738  155.7796 H   0  0  0  0  0  0  0  0  0  0  0  0  # atno 11005 bound_to 11000
  144.7060  139.8561  143.7430 LP  0  0  0  0  0  0  0  0  0  0  0  0  # atno 17320 bound_to 7965
  146.1052  139.4052  143.0322 LP  0  0  0  0  0  0  0  0  0  0  0  0  # atno 17321 bound_to 7965
  139.6591  144.0222  152.2680 LP  0  0  0  0  0  0  0  0  0  0  0  0  # atno 17342 bound_to 10162
  139.9783  144.6446  150.7924 LP  0  0  0  0  0  0  0  0  0  0  0  0  # atno 17343 bound_to 10162
  157.7504  131.0284  150.4048 LP  0  0  0  0  0  0  0  0  0  0  0  0  # atno 17370 bound_to 10713
  156.4329  130.3975  149.6748 LP  0  0  0  0  0  0  0  0  0  0  0  0  # atno 17371 bound_to 10713
  141.1431  133.9103  157.2279 LP  0  0  0  0  0  0  0  0  0  0  0  0  # atno 17394 bound_to 11000
  139.9709  135.0128  156.9508 LP  0  0  0  0  0  0  0  0  0  0  0  0  # atno 17395 bound_to 11000

$$$$
