AV-unprocessed.smi:227|AV-procd|sdf|1732|dock4
  -GOLD-   2262020223D 1   1.00000     0.00000
 Structure written by MMmdl.
 54 58  0  0  0  0  0  0  0  0  1 V2000
  150.3741  139.6437  153.7914 O   0  0  0  0  0  0  0  0  0  0  0  0
  149.6675  139.7726  155.0080 C   0  0  0  0  0  0  0  0  0  0  0  0
  148.9011  141.1162  155.0784 C   0  0  1  0  0  0  0  0  0  0  0  0
  147.3658  140.9308  154.9929 C   0  0  0  0  0  0  0  0  0  0  0  0
  146.9720  139.8539  154.1012 N   0  0  0  0  0  0  0  0  0  0  0  0
  147.2522  139.7616  152.7578 C   0  0  0  0  0  0  0  0  0  0  0  0
  146.7971  138.6906  152.1682 N   0  0  0  0  0  0  0  0  0  0  0  0
  146.1425  137.9945  153.1784 C   0  0  0  0  0  0  0  0  0  0  0  0
  145.4274  136.7639  153.2386 C   0  0  0  0  0  0  0  0  0  0  0  0
  145.2353  135.9582  152.1625 N   0  0  0  0  0  0  0  0  0  0  0  0
  145.6288  134.5599  152.1533 C   0  0  2  0  0  0  0  0  0  0  0  0
  145.4879  134.2074  150.6603 C   0  0  0  0  0  0  0  0  0  0  0  0
  144.2963  135.0936  150.2466 C   0  0  0  0  0  0  0  0  0  0  0  0
  143.9142  135.7331  151.5944 C   0  0  1  0  0  0  0  0  0  0  0  0
  143.2681  134.6292  152.4739 C   0  0  2  0  0  0  0  0  0  0  0  0
  142.2780  135.0876  153.5674 C   0  0  0  0  0  0  0  0  0  0  0  0
  141.5641  134.0335  154.1752 O   0  0  0  0  0  0  0  0  0  0  0  0
  144.5127  133.8590  152.9568 C   0  0  0  0  0  0  0  0  0  0  0  0
  144.9449  136.3808  154.4505 N   0  0  0  0  0  0  0  0  0  0  0  0
  145.1143  137.1591  155.5227 C   0  0  0  0  0  0  0  0  0  0  0  0
  145.7374  138.3351  155.6095 N   0  0  0  0  0  0  0  0  0  0  0  0
  146.2465  138.7144  154.4029 C   0  0  0  0  0  0  0  0  0  0  0  0
  149.3086  141.9605  156.3125 C   0  0  2  0  0  0  0  0  0  0  0  0
  150.8055  142.1341  156.5025 C   0  0  0  0  0  0  0  0  0  0  0  0
  150.8946  142.5627  157.9624 C   0  0  0  0  0  0  0  0  0  0  0  0
  149.8290  141.8908  158.6238 O   0  0  0  0  0  0  0  0  0  0  0  0
  148.9276  141.3467  157.6642 C   0  0  0  0  0  0  0  0  0  0  0  0
  149.7687  139.7693  153.0767 H   0  0  0  0  0  0  0  0  0  0  0  0
  148.9837  138.9295  155.1041 H   0  0  0  0  0  0  0  0  0  0  0  0
  150.3723  139.6791  155.8341 H   0  0  0  0  0  0  0  0  0  0  0  0
  149.1978  141.6816  154.1937 H   0  0  0  0  0  0  0  0  0  0  0  0
  146.9504  140.7368  155.9825 H   0  0  0  0  0  0  0  0  0  0  0  0
  146.8883  141.8424  154.6339 H   0  0  0  0  0  0  0  0  0  0  0  0
  147.8144  140.5165  152.2276 H   0  0  0  0  0  0  0  0  0  0  0  0
  146.6301  134.3630  152.5383 H   0  0  0  0  0  0  0  0  0  0  0  0
  146.3836  134.4874  150.1044 H   0  0  0  0  0  0  0  0  0  0  0  0
  145.3037  133.1449  150.4977 H   0  0  0  0  0  0  0  0  0  0  0  0
  144.6179  135.8572  149.5369 H   0  0  0  0  0  0  0  0  0  0  0  0
  143.4830  134.5316  149.7860 H   0  0  0  0  0  0  0  0  0  0  0  0
  143.2888  136.6159  151.4718 H   0  0  0  0  0  0  0  0  0  0  0  0
  142.6868  133.9712  151.8262 H   0  0  0  0  0  0  0  0  0  0  0  0
  142.8107  135.6376  154.3437 H   0  0  0  0  0  0  0  0  0  0  0  0
  141.5521  135.7775  153.1367 H   0  0  0  0  0  0  0  0  0  0  0  0
  142.0651  133.2374  154.0838 H   0  0  0  0  0  0  0  0  0  0  0  0
  144.4535  132.7895  152.7520 H   0  0  0  0  0  0  0  0  0  0  0  0
  144.6739  133.9822  154.0281 H   0  0  0  0  0  0  0  0  0  0  0  0
  144.6897  136.7857  156.4427 H   0  0  0  0  0  0  0  0  0  0  0  0
  148.8572  142.9517  156.2425 H   0  0  0  0  0  0  0  0  0  0  0  0
  151.3228  141.1843  156.3593 H   0  0  0  0  0  0  0  0  0  0  0  0
  151.2451  142.8689  155.8277 H   0  0  0  0  0  0  0  0  0  0  0  0
  151.8590  142.3239  158.4108 H   0  0  0  0  0  0  0  0  0  0  0  0
  150.7357  143.6380  158.0525 H   0  0  0  0  0  0  0  0  0  0  0  0
  147.8932  141.5546  157.9385 H   0  0  0  0  0  0  0  0  0  0  0  0
  149.0614  140.2642  157.6500 H   0  0  0  0  0  0  0  0  0  0  0  0
  1  2  1  0  0  0  0
  1 28  1  0  0  0  0
  2  3  1  0  0  0  0
  2 29  1  0  0  0  0
  2 30  1  0  0  0  0
  3  4  1  0  0  0  0
  3 23  1  0  0  0  0
  3 31  1  0  0  0  0
  4  5  1  0  0  0  0
  4 32  1  0  0  0  0
  4 33  1  0  0  0  0
  5 22  1  0  0  0  0
  5  6  1  0  0  0  0
  6  7  2  0  0  0  0
  6 34  1  0  0  0  0
  7  8  1  0  0  0  0
  8 22  2  0  0  0  0
  8  9  1  0  0  0  0
  9 10  1  0  0  0  0
  9 19  2  0  0  0  0
 10 14  1  0  0  0  0
 10 11  1  0  0  0  0
 11 18  1  0  0  0  0
 11 12  1  0  0  0  0
 11 35  1  0  0  0  0
 12 13  1  0  0  0  0
 12 36  1  0  0  0  0
 12 37  1  0  0  0  0
 13 14  1  0  0  0  0
 13 38  1  0  0  0  0
 13 39  1  0  0  0  0
 14 15  1  0  0  0  0
 14 40  1  0  0  0  0
 15 16  1  0  0  0  0
 15 18  1  0  0  0  0
 15 41  1  0  0  0  0
 16 17  1  0  0  0  0
 16 42  1  0  0  0  0
 16 43  1  0  0  0  0
 17 44  1  0  0  0  0
 18 45  1  0  0  0  0
 18 46  1  0  0  0  0
 19 20  1  0  0  0  0
 20 21  2  0  0  0  0
 20 47  1  0  0  0  0
 21 22  1  0  0  0  0
 23 27  1  0  0  0  0
 23 24  1  0  0  0  0
 23 48  1  0  0  0  0
 24 25  1  0  0  0  0
 24 49  1  0  0  0  0
 24 50  1  0  0  0  0
 25 26  1  0  0  0  0
 25 51  1  0  0  0  0
 25 52  1  0  0  0  0
 26 27  1  0  0  0  0
 27 53  1  0  0  0  0
 27 54  1  0  0  0  0
M  END
> <s_m_source_file>
AV-unprocessed.smi

> <i_m_source_file_index>
227

> <i_lp_mmshare_version>
43012

> <i_f3d_flags>
0

> <s_epik_input>
W0NIMl0xT1tDSDJdW0NIMl1bQ0BIXTFbQ0BIXShbQ0gyXVtPSF0pW0NIMl1uKFtjSF1uMiljKGMyMyluW2NIXW5jM04oW0NASF00NSlbQ0BASF0oW0NIMl1bQ0gyXTQpW0NASF0oW0NIMl01KVtDSDJdW09IXQ==

> <s_epik_cmdline>
J2VwaWtfcHl0aG9uJywgJy1waCcsICc3LjAnLCAnLXRuJywgJzgnLCAnLW1hJywgJzIwMCcsICctbWV0YWxfYmluZGluZycsICctaW1hZScsICc8aW5maWxlLm1hZT4nLCAnLW9tYWUnLCAnPG91dGZpbGUubWFlPic=

> <r_lp_tautomer_probability>
1

> <r_epik_Ionization_Penalty>
0.0055791

> <r_epik_Ionization_Penalty_Charging>
0

> <r_epik_Ionization_Penalty_Neutral>
0.0055791

> <r_epik_State_Penalty>
0.00401299

> <r_epik_Charging_Adjusted_Penalty>
0.00401299

> <i_epik_Tot_Q>
0

> <i_epik_Tot_abs_Q>
0

> <r_epik_Metal_State_Penalty>
-0

> <b_epik_Metal_Only>
0

> <s_lp_Force_Field>
OPLS_2005

> <r_lp_Energy>
91.5057

> <b_lp_Chiralities_Consistent>
1

> <s_lp_Variant>
AV-unprocessed.smi:227-6

> <Gold.Version>
5.8.1

> <Gold.Id.Protein>
6NUR|6NUR_protein|mol2

> <Gold.PLP.Fitness>
46.5535

> <Gold.PLP.PLP>
-34.0690

> <Gold.PLP.part.hbond>
-4.8995

> <Gold.PLP.part.metal>
0.0000

> <Gold.PLP.part.buried>
-0.5585

> <Gold.PLP.part.nonpolar>
-29.7562

> <Gold.PLP.part.repulsive>
0.6164

> <Gold.PLP.ligand.clash>
0.0000

> <Gold.PLP.ligand.torsion>
1.0900

> <Gold.PLP.Chemscore.Hbond>
3.9440

> <Gold.PLP.Chemscore.CHOScore>
0.8775

> <Gold.PLP.Chemscore.Metal>
0.0000

> <Gold.Chemscore.Hbonds>
donor molecule, donor type, donor heavy atom, donor atom, acceptor molecule, acceptor atom, score
      L1  H     1    28       P1  7957  0.88
      L1  H    17    44       P1 10957  0.98
      P1  H  7989  7998       L1     1  0.98
      P1  H 11000 11005       L1    17  0.99
      L1  C     6    34       P1  7957  0.84

> <Gold.PLP.Chemscore.Internal.Correction>
0.1997

> <Gold.Rescore>
     Score         DG    S(hbond)    S(metal)    S(lipo)     H(rot)  DE(clash)    DE(int)     intcor
     10.93     -16.28       3.20        0.00      79.73       3.61       2.41       2.94       ----

> <Gold.Chemscore.Fitness>
10.9304

> <Gold.Chemscore.DG>
-16.2767

> <Gold.Chemscore.ZeroCoef>
-5.4800

> <Gold.Chemscore.Hbond>
3.2045

> <Gold.Chemscore.Metal>
0.0000

> <Gold.Chemscore.Lipo>
79.7260

> <Gold.Chemscore.Internal_Hbond>
0.0000

> <Gold.Chemscore.DEClash>
2.4078

> <Gold.Chemscore.DEInternal>
2.9385

> <Gold.Chemscore.Rot>
3.6071

> <Gold.Chemscore.Internal.Correction>
   9.000000E+99

> <Gold.Chemscore.Hbonds>
donor molecule, donor type, donor heavy atom, donor atom, acceptor molecule, acceptor atom, score
      L1  H     1    28       P1  7957  0.86
      L1  H    17    44       P1 10957  0.93
      P1  H  7989  7998       L1     1  0.35
      P1  H 11000 11005       L1    17  0.87

> <Gold.Chemscore.Hbond.Weighted>
-10.7029

> <Gold.Chemscore.Metal.Weighted>
-0.0000

> <Gold.Chemscore.Lipo.Weighted>
-9.3279

> <Gold.Chemscore.Internal_Hbond.Weighted>
0.0000

> <Gold.Chemscore.DEClash.Weighted>
2.4078

> <Gold.Chemscore.DEInternal.Weighted>
2.9385

> <Gold.Chemscore.Rot.Weighted>
9.2342

> <Gold.Chemscore.Internal.Correction.Weighted>
   9.000000E+99

> <Gold.Protein.RotatedTorsions>
[ 6907 6896 6895 6894 ] final  154.64 input  -60.11 | X-H torsion
[ 7974 7965 7964 7962 ] final   45.31 input  175.53 | X-H torsion
[ 8008 7997 7996 7995 ] final  -63.27 input   59.86 | X-H torsion
[ 10167 10162 10161 10158 ] final   31.10 input  -65.29 | X-H torsion
[ 10718 10713 10712 10709 ] final -177.01 input   66.30 | X-H torsion
[ 10763 10752 10751 10750 ] final -134.01 input  -60.55 | X-H torsion
[ 11005 11000 10999 10996 ] final   19.15 input  -57.11 | X-H torsion

> <Gold.Protein.ActiveResidues>
 VAL166  LYS551  ARG553  GLY616  TRP617  ASP618  TYR619  PRO620  LYS621  CYS622 
 ASP623  PHE694  ASN695  SER759  ASP760  ASP761  ALA762  ILE779  LEU786  VAL792 
 PHE793  MET794  SER795  GLU796  ALA797  LYS798  CYS799  TRP800  GLU811  SER814 

> <Gold.Protein.RotatedAtoms>
  152.0556  133.4039  159.4395 H   0  0  0  0  0  0  0  0  0  0  0  0  # atno 6907 bound_to 6896
  150.6868  134.3258  159.4815 H   0  0  0  0  0  0  0  0  0  0  0  0  # atno 6908 bound_to 6896
  152.1073  134.9299  160.0618 H   0  0  0  0  0  0  0  0  0  0  0  0  # atno 6909 bound_to 6896
  146.0491  139.4978  142.9730 H   0  0  0  0  0  0  0  0  0  0  0  0  # atno 7974 bound_to 7965
  154.4545  140.0978  156.6716 H   0  0  0  0  0  0  0  0  0  0  0  0  # atno 8008 bound_to 7997
  155.5182  140.3478  155.4383 H   0  0  0  0  0  0  0  0  0  0  0  0  # atno 8009 bound_to 7997
  156.0749  140.1358  156.9773 H   0  0  0  0  0  0  0  0  0  0  0  0  # atno 8010 bound_to 7997
  140.4619  144.0894  150.6215 H   0  0  0  0  0  0  0  0  0  0  0  0  # atno 10167 bound_to 10162
  156.8231  130.9627  151.3110 H   0  0  0  0  0  0  0  0  0  0  0  0  # atno 10718 bound_to 10713
  154.8725  135.3748  154.4667 H   0  0  0  0  0  0  0  0  0  0  0  0  # atno 10763 bound_to 10752
  153.5330  135.7027  153.5679 H   0  0  0  0  0  0  0  0  0  0  0  0  # atno 10764 bound_to 10752
  153.3874  135.3981  155.1865 H   0  0  0  0  0  0  0  0  0  0  0  0  # atno 10765 bound_to 10752
  140.4169  134.1560  155.7670 H   0  0  0  0  0  0  0  0  0  0  0  0  # atno 11005 bound_to 11000
  145.6755  141.0205  143.1634 LP  0  0  0  0  0  0  0  0  0  0  0  0  # atno 17320 bound_to 7965
  144.7113  139.8360  143.7413 LP  0  0  0  0  0  0  0  0  0  0  0  0  # atno 17321 bound_to 7965
  140.4083  143.2669  151.9864 LP  0  0  0  0  0  0  0  0  0  0  0  0  # atno 17342 bound_to 10162
  139.4807  144.5938  151.7726 LP  0  0  0  0  0  0  0  0  0  0  0  0  # atno 17343 bound_to 10162
  157.6446  130.8834  149.9514 LP  0  0  0  0  0  0  0  0  0  0  0  0  # atno 17370 bound_to 10713
  156.0977  130.3658  150.0275 LP  0  0  0  0  0  0  0  0  0  0  0  0  # atno 17371 bound_to 10713
  141.1799  133.8435  157.1293 LP  0  0  0  0  0  0  0  0  0  0  0  0  # atno 17394 bound_to 11000
  140.0228  134.9938  157.0625 LP  0  0  0  0  0  0  0  0  0  0  0  0  # atno 17395 bound_to 11000

$$$$
