AV-unprocessed.smi:347|AV-procd|sdf|2394|dock1
  -GOLD-   2262022323D 1   1.00000     0.00000
 Structure written by MMmdl.
 45 46  0  0  0  0  0  0  0  0  2 V2000
  153.7419  141.7722  160.7958 C   0  0  0  0  0  0  0  0  0  0  0  0
  153.0491  141.0800  159.6725 C   0  0  0  0  0  0  0  0  0  0  0  0
  151.7601  141.1041  159.2192 C   0  0  0  0  0  0  0  0  0  0  0  0
  151.7919  140.2091  158.1170 C   0  0  0  0  0  0  0  0  0  0  0  0
  150.6246  139.9540  157.3533 N   0  0  0  0  0  0  0  0  0  0  0  0
  150.4457  140.1620  156.0379 C   0  0  0  0  0  0  0  0  0  0  0  0
  151.3023  140.5859  155.2620 O   0  0  0  0  0  0  0  0  0  0  0  0
  149.1961  139.8515  155.6631 N   0  0  0  0  0  0  0  0  0  0  0  0
  148.6579  139.9711  154.3097 C   0  0  0  0  0  0  0  0  0  0  0  0
  148.0343  141.3476  154.0071 C   0  0  0  0  0  0  0  0  0  0  0  0
  146.6384  141.5911  154.6339 C   0  0  0  0  0  0  0  0  0  0  0  0
  146.7236  141.9675  156.1297 C   0  0  0  0  0  0  0  0  0  0  0  0
  145.9985  142.7948  153.9146 C   0  0  0  0  0  0  0  0  0  0  0  0
  145.7352  140.4268  154.4106 N   0  3  0  0  0  0  0  0  0  0  0  0
  146.2415  139.0392  154.6117 C   0  0  0  0  0  0  0  0  0  0  0  0
  146.1962  138.6290  156.1005 C   0  0  0  0  0  0  0  0  0  0  0  0
  145.2695  138.1019  153.8685 C   0  0  0  0  0  0  0  0  0  0  0  0
  147.6510  138.8544  153.9906 C   0  0  0  0  0  0  0  0  0  0  0  0
  152.9914  139.6863  157.9146 N   0  0  0  0  0  0  0  0  0  0  0  0
  153.8031  140.2409  158.9113 O   0  0  0  0  0  0  0  0  0  0  0  0
  153.1779  142.6467  161.1205 H   0  0  0  0  0  0  0  0  0  0  0  0
  154.7355  142.1043  160.4946 H   0  0  0  0  0  0  0  0  0  0  0  0
  153.8524  141.1044  161.6502 H   0  0  0  0  0  0  0  0  0  0  0  0
  150.9314  141.6719  159.6152 H   0  0  0  0  0  0  0  0  0  0  0  0
  149.8379  139.5872  157.8679 H   0  0  0  0  0  0  0  0  0  0  0  0
  148.5671  139.5007  156.3707 H   0  0  0  0  0  0  0  0  0  0  0  0
  149.5063  139.8359  153.6357 H   0  0  0  0  0  0  0  0  0  0  0  0
  148.7174  142.1523  154.2818 H   0  0  0  0  0  0  0  0  0  0  0  0
  147.9410  141.4168  152.9220 H   0  0  0  0  0  0  0  0  0  0  0  0
  147.2558  142.9104  156.2612 H   0  0  0  0  0  0  0  0  0  0  0  0
  147.2515  141.2397  156.7366 H   0  0  0  0  0  0  0  0  0  0  0  0
  145.7311  142.0944  156.5631 H   0  0  0  0  0  0  0  0  0  0  0  0
  146.6131  143.6906  154.0136 H   0  0  0  0  0  0  0  0  0  0  0  0
  145.0139  143.0281  154.3225 H   0  0  0  0  0  0  0  0  0  0  0  0
  145.8704  142.6049  152.8480 H   0  0  0  0  0  0  0  0  0  0  0  0
  144.8954  140.5529  154.9574 H   0  0  0  0  0  0  0  0  0  0  0  0
  146.4144  137.5667  156.2161 H   0  0  0  0  0  0  0  0  0  0  0  0
  145.2084  138.8030  156.5288 H   0  0  0  0  0  0  0  0  0  0  0  0
  146.9145  139.1521  156.7226 H   0  0  0  0  0  0  0  0  0  0  0  0
  145.5833  137.0600  153.9442 H   0  0  0  0  0  0  0  0  0  0  0  0
  145.2083  138.3468  152.8071 H   0  0  0  0  0  0  0  0  0  0  0  0
  144.2591  138.1696  154.2746 H   0  0  0  0  0  0  0  0  0  0  0  0
  147.5485  138.8236  152.9046 H   0  0  0  0  0  0  0  0  0  0  0  0
  148.0646  137.8831  154.2668 H   0  0  0  0  0  0  0  0  0  0  0  0
  145.4745  140.4761  153.4361 H   0  0  0  0  0  0  0  0  0  0  0  0
  1  2  1  0  0  0  0
  1 21  1  0  0  0  0
  1 22  1  0  0  0  0
  1 23  1  0  0  0  0
  2 20  1  0  0  0  0
  2  3  2  0  0  0  0
  3  4  1  0  0  0  0
  3 24  1  0  0  0  0
  4  5  1  0  0  0  0
  4 19  2  0  0  0  0
  5  6  1  0  0  0  0
  5 25  1  0  0  0  0
  6  7  2  0  0  0  0
  6  8  1  0  0  0  0
  8  9  1  0  0  0  0
  8 26  1  0  0  0  0
  9 18  1  0  0  0  0
  9 10  1  0  0  0  0
  9 27  1  0  0  0  0
 10 11  1  0  0  0  0
 10 28  1  0  0  0  0
 10 29  1  0  0  0  0
 11 12  1  0  0  0  0
 11 13  1  0  0  0  0
 11 14  1  0  0  0  0
 12 30  1  0  0  0  0
 12 31  1  0  0  0  0
 12 32  1  0  0  0  0
 13 33  1  0  0  0  0
 13 34  1  0  0  0  0
 13 35  1  0  0  0  0
 14 15  1  0  0  0  0
 14 36  1  0  0  0  0
 14 45  1  0  0  0  0
 15 16  1  0  0  0  0
 15 17  1  0  0  0  0
 15 18  1  0  0  0  0
 16 37  1  0  0  0  0
 16 38  1  0  0  0  0
 16 39  1  0  0  0  0
 17 40  1  0  0  0  0
 17 41  1  0  0  0  0
 17 42  1  0  0  0  0
 18 43  1  0  0  0  0
 18 44  1  0  0  0  0
 19 20  1  0  0  0  0
M  CHG  1  14   1
M  END
> <s_m_source_file>
AV-unprocessed.smi

> <i_m_source_file_index>
347

> <i_lp_mmshare_version>
43012

> <i_f3d_flags>
0

> <s_epik_input>
W0NIM11jMVtjSF1jKG5vMSlbTkhdQyg9TylbTkhdW0NIXShbQ0gyXUMyKFtDSDNdKVtDSDNdKVtDSDJdQyhbTkhdMikoW0NIM10pW0NIM10=

> <s_epik_cmdline>
J2VwaWtfcHl0aG9uJywgJy1waCcsICc3LjAnLCAnLXRuJywgJzgnLCAnLW1hJywgJzIwMCcsICctbWV0YWxfYmluZGluZycsICctaW1hZScsICc8aW5maWxlLm1hZT4nLCAnLW9tYWUnLCAnPG91dGZpbGUubWFlPic=

> <r_lp_tautomer_probability>
1

> <r_epik_Ionization_Penalty>
0.000125139

> <r_epik_Ionization_Penalty_Charging>
0.000103024

> <r_epik_Ionization_Penalty_Neutral>
2.21147e-05

> <r_epik_State_Penalty>
-0

> <r_epik_Charging_Adjusted_Penalty>
0.000103024

> <i_epik_Tot_Q>
1

> <i_epik_Tot_abs_Q>
1

> <r_epik_Metal_State_Penalty>
-0

> <b_epik_Metal_Only>
0

> <s_lp_Force_Field>
OPLS_2005

> <r_lp_Energy>
23.9758

> <b_lp_Chiralities_Consistent>
1

> <s_lp_Variant>
AV-unprocessed.smi:347-1

> <Gold.Version>
5.8.1

> <Gold.Id.Protein>
6NUR|6NUR_protein|mol2

> <Gold.PLP.Fitness>
36.3313

> <Gold.PLP.PLP>
-30.2038

> <Gold.PLP.part.hbond>
-4.0000

> <Gold.PLP.part.metal>
0.0000

> <Gold.PLP.part.buried>
-3.0680

> <Gold.PLP.part.nonpolar>
-23.8900

> <Gold.PLP.part.repulsive>
0.0956

> <Gold.PLP.ligand.clash>
0.0000

> <Gold.PLP.ligand.torsion>
0.9166

> <Gold.PLP.Chemscore.Hbond>
2.6480

> <Gold.PLP.Chemscore.CHOScore>
0.0000

> <Gold.PLP.Chemscore.Metal>
0.0000

> <Gold.Chemscore.Hbonds>
donor molecule, donor type, donor heavy atom, donor atom, acceptor molecule, acceptor atom, score
      L1  H    14    45       P1 10175  1.34
      P1  H  7989  7998       L1     7  0.86
      P1  H  7997  8008       L1    19  0.44

> <Gold.PLP.Chemscore.Internal.Correction>
0.0167

> <Gold.Rescore>
     Score         DG    S(hbond)    S(metal)    S(lipo)     H(rot)  DE(clash)    DE(int)     intcor
     15.25     -16.11       1.83        0.00      60.63       1.00       0.02       0.84       ----

> <Gold.Chemscore.Fitness>
15.2549

> <Gold.Chemscore.DG>
-16.1114

> <Gold.Chemscore.ZeroCoef>
-5.4800

> <Gold.Chemscore.Hbond>
1.8258

> <Gold.Chemscore.Metal>
0.0000

> <Gold.Chemscore.Lipo>
60.6259

> <Gold.Chemscore.Internal_Hbond>
0.0000

> <Gold.Chemscore.DEClash>
0.0174

> <Gold.Chemscore.DEInternal>
0.8391

> <Gold.Chemscore.Rot>
1.0000

> <Gold.Chemscore.Internal.Correction>
   9.000000E+99

> <Gold.Chemscore.Hbonds>
donor molecule, donor type, donor heavy atom, donor atom, acceptor molecule, acceptor atom, score
      L1  H    14    45       P1 10175  0.60
      P1  H  7989  7998       L1     7  0.85
      P1  H  7997  8008       L1    19  0.02

> <Gold.Chemscore.Hbond.Weighted>
-6.0982

> <Gold.Chemscore.Metal.Weighted>
-0.0000

> <Gold.Chemscore.Lipo.Weighted>
-7.0932

> <Gold.Chemscore.Internal_Hbond.Weighted>
0.0000

> <Gold.Chemscore.DEClash.Weighted>
0.0174

> <Gold.Chemscore.DEInternal.Weighted>
0.8391

> <Gold.Chemscore.Rot.Weighted>
2.5600

> <Gold.Chemscore.Internal.Correction.Weighted>
   9.000000E+99

> <Gold.Protein.RotatedTorsions>
[ 6907 6896 6895 6894 ] final   82.04 input  -60.11 | X-H torsion
[ 7974 7965 7964 7962 ] final -125.56 input  175.53 | X-H torsion
[ 8008 7997 7996 7995 ] final  -54.82 input   59.86 | X-H torsion
[ 10167 10162 10161 10158 ] final  -92.82 input  -65.29 | X-H torsion
[ 10718 10713 10712 10709 ] final  158.75 input   66.30 | X-H torsion
[ 10763 10752 10751 10750 ] final -106.02 input  -60.55 | X-H torsion
[ 11005 11000 10999 10996 ] final -168.69 input  -57.11 | X-H torsion

> <Gold.Protein.ActiveResidues>
 VAL166  LYS551  ARG553  GLY616  TRP617  ASP618  TYR619  PRO620  LYS621  CYS622 
 ASP623  PHE694  ASN695  SER759  ASP760  ASP761  ALA762  ILE779  LEU786  VAL792 
 PHE793  MET794  SER795  GLU796  ALA797  LYS798  CYS799  TRP800  GLU811  SER814 

> <Gold.Protein.RotatedAtoms>
  152.5287  134.3111  159.9113 H   0  0  0  0  0  0  0  0  0  0  0  0  # atno 6907 bound_to 6896
  151.3061  133.4094  159.2651 H   0  0  0  0  0  0  0  0  0  0  0  0  # atno 6908 bound_to 6896
  151.0078  134.9389  159.8047 H   0  0  0  0  0  0  0  0  0  0  0  0  # atno 6909 bound_to 6896
  144.9964  140.7779  143.4523 H   0  0  0  0  0  0  0  0  0  0  0  0  # atno 7974 bound_to 7965
  154.4175  140.1167  156.5378 H   0  0  0  0  0  0  0  0  0  0  0  0  # atno 8008 bound_to 7997
  155.6539  140.3496  155.4739 H   0  0  0  0  0  0  0  0  0  0  0  0  # atno 8009 bound_to 7997
  155.9769  140.1152  157.0751 H   0  0  0  0  0  0  0  0  0  0  0  0  # atno 8010 bound_to 7997
  140.3309  143.2995  151.9942 H   0  0  0  0  0  0  0  0  0  0  0  0  # atno 10167 bound_to 10162
  157.1736  131.0616  151.2170 H   0  0  0  0  0  0  0  0  0  0  0  0  # atno 10718 bound_to 10713
  154.7985  135.4727  154.0219 H   0  0  0  0  0  0  0  0  0  0  0  0  # atno 10763 bound_to 10752
  153.1743  135.6830  153.8572 H   0  0  0  0  0  0  0  0  0  0  0  0  # atno 10764 bound_to 10752
  153.8144  135.3212  155.3382 H   0  0  0  0  0  0  0  0  0  0  0  0  # atno 10765 bound_to 10752
  140.5392  134.5540  157.5095 H   0  0  0  0  0  0  0  0  0  0  0  0  # atno 11005 bound_to 11000
  145.2214  139.2157  143.5091 LP  0  0  0  0  0  0  0  0  0  0  0  0  # atno 17320 bound_to 7965
  146.3442  140.2073  142.8589 LP  0  0  0  0  0  0  0  0  0  0  0  0  # atno 17321 bound_to 7965
  139.4856  144.6235  151.7209 LP  0  0  0  0  0  0  0  0  0  0  0  0  # atno 17342 bound_to 10162
  140.5397  144.0598  150.6084 LP  0  0  0  0  0  0  0  0  0  0  0  0  # atno 17343 bound_to 10162
  157.4020  130.7338  149.6774 LP  0  0  0  0  0  0  0  0  0  0  0  0  # atno 17370 bound_to 10713
  155.9734  130.4118  150.4001 LP  0  0  0  0  0  0  0  0  0  0  0  0  # atno 17371 bound_to 10713
  139.9513  134.7612  156.0442 LP  0  0  0  0  0  0  0  0  0  0  0  0  # atno 17394 bound_to 11000
  141.1237  133.6605  156.3281 LP  0  0  0  0  0  0  0  0  0  0  0  0  # atno 17395 bound_to 11000

$$$$
