AV-unprocessed.smi:1363|AV-procd|sdf|5565|dock6
  -GOLD-   22720 5153D 1   1.00000     0.00000
 Structure written by MMmdl.
 44 45  0  0  0  0  0  0  0  0  1 V2000
  156.3601  133.1247  164.5873 C   0  0  0  0  0  0  0  0  0  0  0  0
  155.6061  134.1447  163.7622 C   0  0  0  0  0  0  0  0  0  0  0  0
  155.3653  135.3333  164.4311 N   0  0  0  0  0  0  0  0  0  0  0  0
  154.6911  136.3332  163.7526 C   0  0  0  0  0  0  0  0  0  0  0  0
  154.4736  137.6043  164.5549 C   0  0  0  0  0  0  0  0  0  0  0  0
  154.2720  136.1551  162.4740 C   0  0  0  0  0  0  0  0  0  0  0  0
  153.5270  137.2357  161.6914 C   0  0  0  0  0  0  0  0  0  0  0  0
  154.3804  138.3973  161.1761 C   0  0  0  0  0  0  0  0  0  0  0  0
  155.3351  138.1862  160.4280 O   0  0  0  0  0  0  0  0  0  0  0  0
  154.0179  139.6237  161.5807 N   0  0  0  0  0  0  0  0  0  0  0  0
  154.6737  140.8650  161.1873 C   0  0  0  0  0  0  0  0  0  0  0  0
  153.9518  142.0923  161.7784 C   0  0  0  0  0  0  0  0  0  0  0  0
  153.2171  142.9770  160.7760 C   0  0  0  0  0  0  0  0  0  0  0  0
  152.5143  144.0815  161.1072 C   0  0  0  0  0  0  0  0  0  0  0  0
  151.8093  144.9782  160.1044 C   0  0  0  0  0  0  0  0  0  0  0  0
  152.2663  144.7178  158.6603 C   0  0  0  0  0  0  0  0  0  0  0  0
  152.3582  143.2145  158.3770 C   0  0  0  0  0  0  0  0  0  0  0  0
  153.3548  142.5257  159.3264 C   0  0  0  0  0  0  0  0  0  0  0  0
  154.5472  134.8563  161.8152 C   0  0  0  0  0  0  0  0  0  0  0  0
  154.1773  134.6260  160.6647 O   0  0  0  0  0  0  0  0  0  0  0  0
  155.2449  133.8791  162.5437 N   0  0  0  0  0  0  0  0  0  0  0  0
  155.6590  135.5074  165.3814 H   0  0  0  0  0  0  0  0  0  0  0  0
  156.4246  132.1701  164.0636 H   0  0  0  0  0  0  0  0  0  0  0  0
  155.8569  132.9563  165.5398 H   0  0  0  0  0  0  0  0  0  0  0  0
  157.3736  133.4738  164.7871 H   0  0  0  0  0  0  0  0  0  0  0  0
  154.9638  138.4496  164.0716 H   0  0  0  0  0  0  0  0  0  0  0  0
  154.8780  137.5163  165.5641 H   0  0  0  0  0  0  0  0  0  0  0  0
  153.4092  137.8246  164.6405 H   0  0  0  0  0  0  0  0  0  0  0  0
  152.7105  137.6494  162.2836 H   0  0  0  0  0  0  0  0  0  0  0  0
  153.0376  136.7608  160.8402 H   0  0  0  0  0  0  0  0  0  0  0  0
  153.2222  139.7042  162.1970 H   0  0  0  0  0  0  0  0  0  0  0  0
  155.7009  140.8216  161.5503 H   0  0  0  0  0  0  0  0  0  0  0  0
  154.7233  140.9299  160.0988 H   0  0  0  0  0  0  0  0  0  0  0  0
  153.2259  141.7635  162.5232 H   0  0  0  0  0  0  0  0  0  0  0  0
  154.6761  142.7134  162.3070 H   0  0  0  0  0  0  0  0  0  0  0  0
  152.4124  144.3852  162.1376 H   0  0  0  0  0  0  0  0  0  0  0  0
  150.7363  144.8079  160.1968 H   0  0  0  0  0  0  0  0  0  0  0  0
  151.9892  146.0212  160.3669 H   0  0  0  0  0  0  0  0  0  0  0  0
  151.5822  145.1970  157.9593 H   0  0  0  0  0  0  0  0  0  0  0  0
  153.2444  145.1731  158.4988 H   0  0  0  0  0  0  0  0  0  0  0  0
  151.3709  142.7667  158.4987 H   0  0  0  0  0  0  0  0  0  0  0  0
  152.6500  143.0400  157.3409 H   0  0  0  0  0  0  0  0  0  0  0  0
  154.3763  142.7340  159.0065 H   0  0  0  0  0  0  0  0  0  0  0  0
  153.2216  141.4452  159.2654 H   0  0  0  0  0  0  0  0  0  0  0  0
  1 23  1  0  0  0  0
  1 24  1  0  0  0  0
  1 25  1  0  0  0  0
  1  2  1  0  0  0  0
  2  3  1  0  0  0  0
  2 21  2  0  0  0  0
  3  4  1  0  0  0  0
  3 22  1  0  0  0  0
  4  6  2  0  0  0  0
  4  5  1  0  0  0  0
  5 26  1  0  0  0  0
  5 27  1  0  0  0  0
  5 28  1  0  0  0  0
  6 19  1  0  0  0  0
  6  7  1  0  0  0  0
  7  8  1  0  0  0  0
  7 29  1  0  0  0  0
  7 30  1  0  0  0  0
  8  9  2  0  0  0  0
  8 10  1  0  0  0  0
 10 11  1  0  0  0  0
 10 31  1  0  0  0  0
 11 12  1  0  0  0  0
 11 32  1  0  0  0  0
 11 33  1  0  0  0  0
 12 13  1  0  0  0  0
 12 34  1  0  0  0  0
 12 35  1  0  0  0  0
 13 18  1  0  0  0  0
 13 14  2  0  0  0  0
 14 15  1  0  0  0  0
 14 36  1  0  0  0  0
 15 16  1  0  0  0  0
 15 37  1  0  0  0  0
 15 38  1  0  0  0  0
 16 17  1  0  0  0  0
 16 39  1  0  0  0  0
 16 40  1  0  0  0  0
 17 18  1  0  0  0  0
 17 41  1  0  0  0  0
 17 42  1  0  0  0  0
 18 43  1  0  0  0  0
 18 44  1  0  0  0  0
 19 20  2  0  0  0  0
 19 21  1  0  0  0  0
M  END
> <s_m_source_file>
AV-unprocessed.smi

> <i_m_source_file_index>
1363

> <i_lp_mmshare_version>
43012

> <i_f3d_flags>
0

> <s_epik_input>
W0NIM11jMW5jKFtDSDNdKWMoYyg9TylbbkhdMSlbQ0gyXUMoPU8pW05IXVtDSDJdW0NIMl1DMj1bQ0hdW0NIMl1bQ0gyXVtDSDJdW0NIMl0y

> <s_epik_cmdline>
J2VwaWtfcHl0aG9uJywgJy1waCcsICc3LjAnLCAnLXRuJywgJzgnLCAnLW1hJywgJzIwMCcsICctbWV0YWxfYmluZGluZycsICctaW1hZScsICc8aW5maWxlLm1hZT4nLCAnLW9tYWUnLCAnPG91dGZpbGUubWFlPic=

> <r_lp_tautomer_probability>
0.156392

> <r_epik_Ionization_Penalty>
0.0140998

> <r_epik_Ionization_Penalty_Charging>
0.0139776

> <r_epik_Ionization_Penalty_Neutral>
0.000122158

> <r_epik_State_Penalty>
1.53009

> <r_epik_Charging_Adjusted_Penalty>
1.54407

> <i_epik_Tot_Q>
0

> <i_epik_Tot_abs_Q>
0

> <r_epik_Metal_State_Penalty>
1.7066

> <b_epik_Metal_Only>
0

> <s_lp_Force_Field>
OPLS_2005

> <r_lp_Energy>
12.7953

> <b_lp_Chiralities_Consistent>
1

> <s_lp_Variant>
AV-unprocessed.smi:1363-2

> <Gold.Version>
5.8.1

> <Gold.Id.Protein>
6NUR|6NUR_protein|mol2

> <Gold.PLP.Fitness>
47.8178

> <Gold.PLP.PLP>
-45.8985

> <Gold.PLP.part.hbond>
-1.0000

> <Gold.PLP.part.metal>
0.0000

> <Gold.PLP.part.buried>
-3.8278

> <Gold.PLP.part.nonpolar>
-40.5728

> <Gold.PLP.part.repulsive>
0.0251

> <Gold.PLP.ligand.clash>
0.0000

> <Gold.PLP.ligand.torsion>
0.5596

> <Gold.PLP.Chemscore.Hbond>
1.0000

> <Gold.PLP.Chemscore.CHOScore>
0.0000

> <Gold.PLP.Chemscore.Metal>
0.0000

> <Gold.Chemscore.Hbonds>
donor molecule, donor type, donor heavy atom, donor atom, acceptor molecule, acceptor atom, score
      P1  H  6896  6909       L1    20  1.00

> <Gold.PLP.Chemscore.Internal.Correction>
0.0385

> <Gold.Rescore>
     Score         DG    S(hbond)    S(metal)    S(lipo)     H(rot)  DE(clash)    DE(int)     intcor
     18.15     -18.73       0.99        0.00     125.59       1.86       0.00       0.58       ----

> <Gold.Chemscore.Fitness>
18.1467

> <Gold.Chemscore.DG>
-18.7251

> <Gold.Chemscore.ZeroCoef>
-5.4800

> <Gold.Chemscore.Hbond>
0.9941

> <Gold.Chemscore.Metal>
0.0000

> <Gold.Chemscore.Lipo>
125.5946

> <Gold.Chemscore.Internal_Hbond>
0.0000

> <Gold.Chemscore.DEClash>
0.0000

> <Gold.Chemscore.DEInternal>
0.5784

> <Gold.Chemscore.Rot>
1.8631

> <Gold.Chemscore.Internal.Correction>
   9.000000E+99

> <Gold.Chemscore.Hbonds>
donor molecule, donor type, donor heavy atom, donor atom, acceptor molecule, acceptor atom, score
      P1  H  6896  6909       L1    20  0.98

> <Gold.Chemscore.Hbond.Weighted>
-3.3202

> <Gold.Chemscore.Metal.Weighted>
-0.0000

> <Gold.Chemscore.Lipo.Weighted>
-14.6946

> <Gold.Chemscore.Internal_Hbond.Weighted>
0.0000

> <Gold.Chemscore.DEClash.Weighted>
0.0000

> <Gold.Chemscore.DEInternal.Weighted>
0.5784

> <Gold.Chemscore.Rot.Weighted>
4.7697

> <Gold.Chemscore.Internal.Correction.Weighted>
   9.000000E+99

> <Gold.Protein.RotatedTorsions>
[ 6907 6896 6895 6894 ] final -163.81 input  -60.11 | X-H torsion
[ 7974 7965 7964 7962 ] final   25.83 input  175.53 | X-H torsion
[ 8008 7997 7996 7995 ] final   86.25 input   59.86 | X-H torsion
[ 10167 10162 10161 10158 ] final -122.18 input  -65.29 | X-H torsion
[ 10718 10713 10712 10709 ] final  -41.64 input   66.30 | X-H torsion
[ 10763 10752 10751 10750 ] final -112.58 input  -60.55 | X-H torsion
[ 11005 11000 10999 10996 ] final  -92.98 input  -57.11 | X-H torsion

> <Gold.Protein.ActiveResidues>
 VAL166  LYS551  ARG553  GLY616  TRP617  ASP618  TYR619  PRO620  LYS621  CYS622 
 ASP623  PHE694  ASN695  SER759  ASP760  ASP761  ALA762  ILE779  LEU786  VAL792 
 PHE793  MET794  SER795  GLU796  ALA797  LYS798  CYS799  TRP800  GLU811  SER814 

> <Gold.Protein.RotatedAtoms>
  151.4018  133.3755  159.2732 H   0  0  0  0  0  0  0  0  0  0  0  0  # atno 6907 bound_to 6896
  150.9427  134.8836  159.7633 H   0  0  0  0  0  0  0  0  0  0  0  0  # atno 6908 bound_to 6896
  152.5078  134.3970  159.9455 H   0  0  0  0  0  0  0  0  0  0  0  0  # atno 6909 bound_to 6896
  146.1869  139.7412  142.8860 H   0  0  0  0  0  0  0  0  0  0  0  0  # atno 7974 bound_to 7965
  155.9604  140.3394  155.6485 H   0  0  0  0  0  0  0  0  0  0  0  0  # atno 8008 bound_to 7997
  155.6806  140.0737  157.2504 H   0  0  0  0  0  0  0  0  0  0  0  0  # atno 8009 bound_to 7997
  154.4142  140.1675  156.1965 H   0  0  0  0  0  0  0  0  0  0  0  0  # atno 8010 bound_to 7997
  140.0171  143.5382  152.2237 H   0  0  0  0  0  0  0  0  0  0  0  0  # atno 10167 bound_to 10162
  156.2682  130.4204  149.8467 H   0  0  0  0  0  0  0  0  0  0  0  0  # atno 10718 bound_to 10713
  154.8356  135.4486  154.1215 H   0  0  0  0  0  0  0  0  0  0  0  0  # atno 10763 bound_to 10752
  153.2450  135.6920  153.7748 H   0  0  0  0  0  0  0  0  0  0  0  0  # atno 10764 bound_to 10752
  153.7081  135.3361  155.3216 H   0  0  0  0  0  0  0  0  0  0  0  0  # atno 10765 bound_to 10752
  141.1509  133.7857  157.0095 H   0  0  0  0  0  0  0  0  0  0  0  0  # atno 11005 bound_to 11000
  145.3912  141.0372  143.3123 LP  0  0  0  0  0  0  0  0  0  0  0  0  # atno 17320 bound_to 7965
  144.8413  139.5467  143.6899 LP  0  0  0  0  0  0  0  0  0  0  0  0  # atno 17321 bound_to 7965
  139.6165  144.7620  151.2834 LP  0  0  0  0  0  0  0  0  0  0  0  0  # atno 17342 bound_to 10162
  140.7358  143.6727  150.8068 LP  0  0  0  0  0  0  0  0  0  0  0  0  # atno 17343 bound_to 10162
  156.5958  130.8525  151.3419 LP  0  0  0  0  0  0  0  0  0  0  0  0  # atno 17370 bound_to 10713
  157.7275  130.9643  150.1700 LP  0  0  0  0  0  0  0  0  0  0  0  0  # atno 17371 bound_to 10713
  140.0887  134.9605  157.1741 LP  0  0  0  0  0  0  0  0  0  0  0  0  # atno 17394 bound_to 11000
  140.3476  134.2634  155.7203 LP  0  0  0  0  0  0  0  0  0  0  0  0  # atno 17395 bound_to 11000

$$$$
