AV-unprocessed.smi:37|AV-procd|sdf|324|dock9
  -GOLD-   2262016153D 1   1.00000     0.00000
 Structure written by MMmdl.
 43 44  0  0  0  0  0  0  0  0  2 V2000
  152.4075  144.5184  158.1860 C   0  0  0  0  0  0  0  0  0  0  0  0
  151.0959  144.0375  158.8244 C   0  0  0  0  0  0  0  0  0  0  0  0
  150.5141  142.7859  158.1634 C   0  0  0  0  0  0  0  0  0  0  0  0
  149.4347  142.2985  158.5050 O   0  0  0  0  0  0  0  0  0  0  0  0
  151.3150  142.3119  157.1978 O   0  0  0  0  0  0  0  0  0  0  0  0
  150.7924  141.4198  156.2279 C   0  0  0  0  0  0  0  0  0  0  0  0
  151.9205  140.5196  155.7035 C   0  0  1  0  0  0  0  0  0  0  0  0
  152.2523  139.4917  156.6374 O   0  0  0  0  0  0  0  0  0  0  0  0
  152.5726  138.3011  155.9740 C   0  0  1  0  0  0  0  0  0  0  0  0
  151.5386  137.2423  156.3108 N   0  0  0  0  0  0  0  0  0  0  0  0
  150.9773  136.4373  155.3315 C   0  0  0  0  0  0  0  0  0  0  0  0
  150.0767  135.4827  155.6403 C   0  0  0  0  0  0  0  0  0  0  0  0
  149.5598  134.7111  154.6684 F   0  0  0  0  0  0  0  0  0  0  0  0
  149.6731  135.2923  157.0317 C   0  0  0  0  0  0  0  0  0  0  0  0
  148.8541  134.4171  157.3080 O   0  0  0  0  0  0  0  0  0  0  0  0
  150.2309  136.1058  157.9741 N   0  5  0  0  0  0  0  0  0  0  0  0
  151.1453  137.0717  157.6666 C   0  0  0  0  0  0  0  0  0  0  0  0
  151.6566  137.8074  158.5111 O   0  0  0  0  0  0  0  0  0  0  0  0
  152.5547  138.6061  154.4682 C   0  0  2  0  0  0  0  0  0  0  0  0
  154.3751  139.1651  153.8825 Br  0  0  0  0  0  0  0  0  0  0  0  0
  151.6116  139.7944  154.3893 C   0  0  1  0  0  0  0  0  0  0  0  0
  150.2585  139.3519  154.3787 O   0  0  0  0  0  0  0  0  0  0  0  0
  149.2721  140.1517  153.9415 C   0  0  0  0  0  0  0  0  0  0  0  0
  149.3988  141.3191  153.5724 O   0  0  0  0  0  0  0  0  0  0  0  0
  147.9186  139.4446  153.9015 C   0  0  0  0  0  0  0  0  0  0  0  0
  147.2046  139.6099  152.5525 C   0  0  0  0  0  0  0  0  0  0  0  0
  152.7737  145.4122  158.6910 H   0  0  0  0  0  0  0  0  0  0  0  0
  152.2712  144.7675  157.1330 H   0  0  0  0  0  0  0  0  0  0  0  0
  153.1860  143.7579  158.2560 H   0  0  0  0  0  0  0  0  0  0  0  0
  151.2583  143.8269  159.8817 H   0  0  0  0  0  0  0  0  0  0  0  0
  150.3509  144.8317  158.7722 H   0  0  0  0  0  0  0  0  0  0  0  0
  149.9846  140.8236  156.6536 H   0  0  0  0  0  0  0  0  0  0  0  0
  150.3735  141.9995  155.4042 H   0  0  0  0  0  0  0  0  0  0  0  0
  152.8176  141.1211  155.5509 H   0  0  0  0  0  0  0  0  0  0  0  0
  153.5195  137.9009  156.3399 H   0  0  0  0  0  0  0  0  0  0  0  0
  151.2614  136.5540  154.2974 H   0  0  0  0  0  0  0  0  0  0  0  0
  152.2568  137.7501  153.8621 H   0  0  0  0  0  0  0  0  0  0  0  0
  151.8098  140.4305  153.5252 H   0  0  0  0  0  0  0  0  0  0  0  0
  148.0713  138.3853  154.1095 H   0  0  0  0  0  0  0  0  0  0  0  0
  147.2943  139.8377  154.7046 H   0  0  0  0  0  0  0  0  0  0  0  0
  146.2817  139.0305  152.5352 H   0  0  0  0  0  0  0  0  0  0  0  0
  147.8278  139.2643  151.7270 H   0  0  0  0  0  0  0  0  0  0  0  0
  146.9405  140.6516  152.3646 H   0  0  0  0  0  0  0  0  0  0  0  0
  1  2  1  0  0  0  0
  1 27  1  0  0  0  0
  1 28  1  0  0  0  0
  1 29  1  0  0  0  0
  2  3  1  0  0  0  0
  2 30  1  0  0  0  0
  2 31  1  0  0  0  0
  3  4  2  0  0  0  0
  3  5  1  0  0  0  0
  5  6  1  0  0  0  0
  6  7  1  0  0  0  0
  6 32  1  0  0  0  0
  6 33  1  0  0  0  0
  7 21  1  0  0  0  0
  7  8  1  0  0  0  0
  7 34  1  0  0  0  0
  8  9  1  0  0  0  0
  9 10  1  0  0  0  0
  9 19  1  0  0  0  0
  9 35  1  0  0  0  0
 10 17  1  0  0  0  0
 10 11  1  0  0  0  0
 11 12  2  0  0  0  0
 11 36  1  0  0  0  0
 12 13  1  0  0  0  0
 12 14  1  0  0  0  0
 14 15  2  0  0  0  0
 14 16  1  0  0  0  0
 16 17  1  0  0  0  0
 17 18  2  0  0  0  0
 19 20  1  0  0  0  0
 19 21  1  0  0  0  0
 19 37  1  0  0  0  0
 21 22  1  0  0  0  0
 21 38  1  0  0  0  0
 22 23  1  0  0  0  0
 23 24  2  0  0  0  0
 23 25  1  0  0  0  0
 25 26  1  0  0  0  0
 25 39  1  0  0  0  0
 25 40  1  0  0  0  0
 26 41  1  0  0  0  0
 26 42  1  0  0  0  0
 26 43  1  0  0  0  0
M  CHG  1  16  -1
M  END
> <s_m_source_file>
AV-unprocessed.smi

> <i_m_source_file_index>
37

> <i_lp_mmshare_version>
43012

> <i_f3d_flags>
0

> <s_epik_input>
W0NIM11bQ0gyXUMoPU8pT1tDSDJdW0NAQEhdMU9bQ0BASF0objJbY0hdYyhGKWMoPU8pW25IXWMyPU8pW0NAQEhdKEJyKVtDQEhdMU9DKD1PKVtDSDJdW0NIM10=

> <s_epik_cmdline>
J2VwaWtfcHl0aG9uJywgJy1waCcsICc3LjAnLCAnLXRuJywgJzgnLCAnLW1hJywgJzIwMCcsICctbWV0YWxfYmluZGluZycsICctaW1hZScsICc8aW5maWxlLm1hZT4nLCAnLW9tYWUnLCAnPG91dGZpbGUubWFlPic=

> <r_epik_Ionization_Penalty>
1.08158

> <r_epik_Ionization_Penalty_Charging>
9.05154e-09

> <r_epik_Ionization_Penalty_Neutral>
1.08158

> <r_epik_State_Penalty>
1.13706

> <r_epik_Charging_Adjusted_Penalty>
1.13706

> <i_epik_Tot_Q>
-1

> <i_epik_Tot_abs_Q>
1

> <r_epik_Metal_State_Penalty>
0.00343535

> <b_epik_Metal_Only>
0

> <s_epik_Chemistry_Notes>
This compound has an ester and may undergo hydrolysis at high or low pH. This compound contains an acetal/aminal-like group ( X-CH(R)-Y where X, Y are N, S, or O) that may be acid/base labile, releasing an aldehyde.

> <s_lp_Force_Field>
OPLS_2005

> <r_lp_Energy>
30.833

> <b_lp_Chiralities_Consistent>
1

> <s_lp_Variant>
AV-unprocessed.smi:37-22

> <Gold.Version>
5.8.1

> <Gold.Id.Protein>
6NUR|6NUR_protein|mol2

> <Gold.PLP.Fitness>
43.0269

> <Gold.PLP.PLP>
-36.3013

> <Gold.PLP.part.hbond>
-3.4350

> <Gold.PLP.part.metal>
0.0000

> <Gold.PLP.part.buried>
-0.5250

> <Gold.PLP.part.nonpolar>
-34.1072

> <Gold.PLP.part.repulsive>
2.1243

> <Gold.PLP.ligand.clash>
0.0000

> <Gold.PLP.ligand.torsion>
1.3205

> <Gold.PLP.Chemscore.Hbond>
3.0836

> <Gold.PLP.Chemscore.CHOScore>
0.0000

> <Gold.PLP.Chemscore.Metal>
0.0000

> <Gold.Chemscore.Hbonds>
donor molecule, donor type, donor heavy atom, donor atom, acceptor molecule, acceptor atom, score
      P1  H  6896  6908       L1    16  0.97
      P1  H  7989  7998       L1    24  0.03
      P1  H  7997  8010       L1     8  0.19
      P1  H  8011  8017       L1    24  0.93
      L1  C    11    36       P1  7949  0.17

> <Gold.PLP.Chemscore.Internal.Correction>
0.1157

> <Gold.Rescore>
     Score         DG    S(hbond)    S(metal)    S(lipo)     H(rot)  DE(clash)    DE(int)     intcor
      4.56     -11.06       1.18        0.00      85.54       3.27       3.31       3.19       ----

> <Gold.Chemscore.Fitness>
4.5575

> <Gold.Chemscore.DG>
-11.0574

> <Gold.Chemscore.ZeroCoef>
-5.4800

> <Gold.Chemscore.Hbond>
1.1773

> <Gold.Chemscore.Metal>
0.0000

> <Gold.Chemscore.Lipo>
85.5447

> <Gold.Chemscore.Internal_Hbond>
0.0000

> <Gold.Chemscore.DEClash>
3.3056

> <Gold.Chemscore.DEInternal>
3.1943

> <Gold.Chemscore.Rot>
3.2669

> <Gold.Chemscore.Internal.Correction>
   9.000000E+99

> <Gold.Chemscore.Hbonds>
donor molecule, donor type, donor heavy atom, donor atom, acceptor molecule, acceptor atom, score
      P1  H  6896  6908       L1    16  0.26
      P1  H  8011  8017       L1    24  0.90

> <Gold.Chemscore.Hbond.Weighted>
-3.9321

> <Gold.Chemscore.Metal.Weighted>
-0.0000

> <Gold.Chemscore.Lipo.Weighted>
-10.0087

> <Gold.Chemscore.Internal_Hbond.Weighted>
0.0000

> <Gold.Chemscore.DEClash.Weighted>
3.3056

> <Gold.Chemscore.DEInternal.Weighted>
3.1943

> <Gold.Chemscore.Rot.Weighted>
8.3634

> <Gold.Chemscore.Internal.Correction.Weighted>
   9.000000E+99

> <Gold.Protein.RotatedTorsions>
[ 6907 6896 6895 6894 ] final -170.96 input  -60.11 | X-H torsion
[ 7974 7965 7964 7962 ] final  -18.71 input  175.53 | X-H torsion
[ 8008 7997 7996 7995 ] final   53.53 input   59.86 | X-H torsion
[ 10167 10162 10161 10158 ] final  156.32 input  -65.29 | X-H torsion
[ 10718 10713 10712 10709 ] final  134.68 input   66.30 | X-H torsion
[ 10763 10752 10751 10750 ] final   38.57 input  -60.55 | X-H torsion
[ 11005 11000 10999 10996 ] final   26.45 input  -57.11 | X-H torsion

> <Gold.Protein.ActiveResidues>
 VAL166  LYS551  ARG553  GLY616  TRP617  ASP618  TYR619  PRO620  LYS621  CYS622 
 ASP623  PHE694  ASN695  SER759  ASP760  ASP761  ALA762  ILE779  LEU786  VAL792 
 PHE793  MET794  SER795  GLU796  ALA797  LYS798  CYS799  TRP800  GLU811  SER814 

> <Gold.Protein.RotatedAtoms>
  151.5162  133.3475  159.2893 H   0  0  0  0  0  0  0  0  0  0  0  0  # atno 6907 bound_to 6896
  150.8681  134.8051  159.7145 H   0  0  0  0  0  0  0  0  0  0  0  0  # atno 6908 bound_to 6896
  152.4679  134.5042  159.9786 H   0  0  0  0  0  0  0  0  0  0  0  0  # atno 6909 bound_to 6896
  146.1878  140.3959  142.8469 H   0  0  0  0  0  0  0  0  0  0  0  0  # atno 7974 bound_to 7965
  155.4697  140.3465  155.4324 H   0  0  0  0  0  0  0  0  0  0  0  0  # atno 8008 bound_to 7997
  156.1108  140.1460  156.9370 H   0  0  0  0  0  0  0  0  0  0  0  0  # atno 8009 bound_to 7997
  154.4755  140.0886  156.7230 H   0  0  0  0  0  0  0  0  0  0  0  0  # atno 8010 bound_to 7997
  139.4821  144.5020  151.8155 H   0  0  0  0  0  0  0  0  0  0  0  0  # atno 10167 bound_to 10162
  157.4648  131.1076  150.9876 H   0  0  0  0  0  0  0  0  0  0  0  0  # atno 10718 bound_to 10713
  152.9996  135.6245  154.2326 H   0  0  0  0  0  0  0  0  0  0  0  0  # atno 10763 bound_to 10752
  154.2068  135.2801  155.2974 H   0  0  0  0  0  0  0  0  0  0  0  0  # atno 10764 bound_to 10752
  154.5639  135.5697  153.7091 H   0  0  0  0  0  0  0  0  0  0  0  0  # atno 10765 bound_to 10752
  140.3369  134.2376  155.7695 H   0  0  0  0  0  0  0  0  0  0  0  0  # atno 11005 bound_to 11000
  144.8430  140.6886  143.6217 LP  0  0  0  0  0  0  0  0  0  0  0  0  # atno 17320 bound_to 7965
  145.3884  139.1622  143.4242 LP  0  0  0  0  0  0  0  0  0  0  0  0  # atno 17321 bound_to 7965
  140.4514  144.1850  150.5898 LP  0  0  0  0  0  0  0  0  0  0  0  0  # atno 17342 bound_to 10162
  140.4581  143.2460  151.9257 LP  0  0  0  0  0  0  0  0  0  0  0  0  # atno 17343 bound_to 10162
  157.0661  130.5845  149.5394 LP  0  0  0  0  0  0  0  0  0  0  0  0  # atno 17370 bound_to 10713
  156.0045  130.5130  150.7782 LP  0  0  0  0  0  0  0  0  0  0  0  0  # atno 17371 bound_to 10713
  141.2049  133.7874  157.0263 LP  0  0  0  0  0  0  0  0  0  0  0  0  # atno 17394 bound_to 11000
  140.0814  134.9646  157.1630 LP  0  0  0  0  0  0  0  0  0  0  0  0  # atno 17395 bound_to 11000

$$$$
