AV-unprocessed.smi:1433|AV-procd|sdf|5848|dock5
  -GOLD-   22720 5513D 1   1.00000     0.00000
 Structure written by MMmdl.
 45 46  0  0  0  0  0  0  0  0  2 V2000
  151.9554  139.5173  156.9392 C   0  0  0  0  0  0  0  0  0  0  0  0
  151.8491  139.3456  155.4133 C   0  0  1  0  0  0  0  0  0  0  0  0
  151.3856  137.9423  154.9807 C   0  0  0  0  0  0  0  0  0  0  0  0
  149.9395  137.7259  155.2589 N   0  3  2  0  0  0  0  0  0  0  0  0
  149.4994  136.3272  154.9423 C   0  0  1  0  0  0  0  0  0  0  0  0
  150.2348  135.3186  155.8559 C   0  0  0  0  0  0  0  0  0  0  0  0
  147.9614  136.1139  155.0338 C   0  0  0  0  0  0  0  0  0  0  0  0
  147.3105  136.1490  153.7285 N   0  0  0  0  0  0  0  0  0  0  0  0
  146.0610  136.5839  153.5032 C   0  0  0  0  0  0  0  0  0  0  0  0
  145.2952  136.9405  154.3982 O   0  0  0  0  0  0  0  0  0  0  0  0
  145.6180  136.6506  152.0421 C   0  0  0  0  0  0  0  0  0  0  0  0
  145.4291  135.3159  151.5021 N   0  0  0  0  0  0  0  0  0  0  0  0
  146.3424  134.2846  151.4284 C   0  0  0  0  0  0  0  0  0  0  0  0
  145.7070  133.2189  150.8582 C   0  0  0  0  0  0  0  0  0  0  0  0
  144.3904  133.7006  150.6147 C   0  0  0  0  0  0  0  0  0  0  0  0
  144.2258  134.9548  151.0038 N   0  0  0  0  0  0  0  0  0  0  0  0
  149.1482  138.8127  154.6216 C   0  0  0  0  0  0  0  0  0  0  0  0
  149.6372  140.1998  155.0781 C   0  0  2  0  0  0  0  0  0  0  0  0
  148.9026  141.3319  154.3514 C   0  0  0  0  0  0  0  0  0  0  0  0
  151.0268  140.3384  154.8061 O   0  0  0  0  0  0  0  0  0  0  0  0
  152.6971  138.8340  157.3534 H   0  0  0  0  0  0  0  0  0  0  0  0
  151.0128  139.3157  157.4473 H   0  0  0  0  0  0  0  0  0  0  0  0
  152.2643  140.5311  157.1951 H   0  0  0  0  0  0  0  0  0  0  0  0
  152.8506  139.5010  155.0107 H   0  0  0  0  0  0  0  0  0  0  0  0
  151.5607  137.8205  153.9105 H   0  0  0  0  0  0  0  0  0  0  0  0
  152.0059  137.2003  155.4801 H   0  0  0  0  0  0  0  0  0  0  0  0
  149.7886  136.1247  153.9098 H   0  0  0  0  0  0  0  0  0  0  0  0
  149.9670  134.2881  155.6228 H   0  0  0  0  0  0  0  0  0  0  0  0
  149.9928  135.4911  156.9051 H   0  0  0  0  0  0  0  0  0  0  0  0
  151.3173  135.3711  155.7552 H   0  0  0  0  0  0  0  0  0  0  0  0
  147.7417  135.1498  155.4936 H   0  0  0  0  0  0  0  0  0  0  0  0
  147.4868  136.8762  155.6532 H   0  0  0  0  0  0  0  0  0  0  0  0
  147.8664  135.8746  152.9306 H   0  0  0  0  0  0  0  0  0  0  0  0
  144.6897  137.2172  151.9521 H   0  0  0  0  0  0  0  0  0  0  0  0
  146.3709  137.1687  151.4462 H   0  0  0  0  0  0  0  0  0  0  0  0
  147.3559  134.3934  151.7859 H   0  0  0  0  0  0  0  0  0  0  0  0
  146.1199  132.2436  150.6468 H   0  0  0  0  0  0  0  0  0  0  0  0
  143.5548  133.1794  150.1715 H   0  0  0  0  0  0  0  0  0  0  0  0
  149.2117  138.7215  153.5359 H   0  0  0  0  0  0  0  0  0  0  0  0
  148.0968  138.7396  154.8976 H   0  0  0  0  0  0  0  0  0  0  0  0
  149.4584  140.3163  156.1473 H   0  0  0  0  0  0  0  0  0  0  0  0
  147.8281  141.2823  154.5304 H   0  0  0  0  0  0  0  0  0  0  0  0
  149.0649  141.2808  153.2743 H   0  0  0  0  0  0  0  0  0  0  0  0
  149.2513  142.3063  154.6945 H   0  0  0  0  0  0  0  0  0  0  0  0
  149.8103  137.8413  156.2540 H   0  0  0  0  0  0  0  0  0  0  0  0
  1  2  1  0  0  0  0
  1 21  1  0  0  0  0
  1 22  1  0  0  0  0
  1 23  1  0  0  0  0
  2 20  1  0  0  0  0
  2  3  1  0  0  0  0
  2 24  1  0  0  0  0
  3  4  1  0  0  0  0
  3 25  1  0  0  0  0
  3 26  1  0  0  0  0
  4  5  1  0  0  0  0
  4 17  1  0  0  0  0
  4 45  1  0  0  0  0
  5  6  1  0  0  0  0
  5  7  1  0  0  0  0
  5 27  1  0  0  0  0
  6 28  1  0  0  0  0
  6 29  1  0  0  0  0
  6 30  1  0  0  0  0
  7  8  1  0  0  0  0
  7 31  1  0  0  0  0
  7 32  1  0  0  0  0
  8  9  1  0  0  0  0
  8 33  1  0  0  0  0
  9 10  2  0  0  0  0
  9 11  1  0  0  0  0
 11 12  1  0  0  0  0
 11 34  1  0  0  0  0
 11 35  1  0  0  0  0
 12 16  1  0  0  0  0
 12 13  1  0  0  0  0
 13 14  2  0  0  0  0
 13 36  1  0  0  0  0
 14 15  1  0  0  0  0
 14 37  1  0  0  0  0
 15 16  2  0  0  0  0
 15 38  1  0  0  0  0
 17 18  1  0  0  0  0
 17 39  1  0  0  0  0
 17 40  1  0  0  0  0
 18 19  1  0  0  0  0
 18 20  1  0  0  0  0
 18 41  1  0  0  0  0
 19 42  1  0  0  0  0
 19 43  1  0  0  0  0
 19 44  1  0  0  0  0
M  CHG  1   4   1
M  END
> <s_m_source_file>
AV-unprocessed.smi

> <i_m_source_file_index>
1433

> <i_lp_mmshare_version>
43012

> <i_f3d_flags>
0

> <s_epik_input>
W0NIM11bQ0BASF0xW0NIMl1OKFtDSDJdW0NASF0oTzEpW0NIM10pW0NASF0oW0NIM10pW0NIMl1bTkhdQyg9TylbQ0gyXW4yW2NIXVtjSF1bY0hdbjI=

> <s_epik_cmdline>
J2VwaWtfcHl0aG9uJywgJy1waCcsICc3LjAnLCAnLXRuJywgJzgnLCAnLW1hJywgJzIwMCcsICctbWV0YWxfYmluZGluZycsICctaW1hZScsICc8aW5maWxlLm1hZT4nLCAnLW9tYWUnLCAnPG91dGZpbGUubWFlPic=

> <r_lp_tautomer_probability>
1

> <r_epik_Ionization_Penalty>
0.748405

> <r_epik_Ionization_Penalty_Charging>
0.748396

> <r_epik_Ionization_Penalty_Neutral>
8.54426e-06

> <r_epik_State_Penalty>
0.775162

> <r_epik_Charging_Adjusted_Penalty>
1.52356

> <i_epik_Tot_Q>
1

> <i_epik_Tot_abs_Q>
1

> <r_epik_Metal_State_Penalty>
0.775167

> <b_epik_Metal_Only>
0

> <s_lp_Force_Field>
OPLS_2005

> <r_lp_Energy>
21.4141

> <b_lp_Chiralities_Consistent>
1

> <s_lp_Variant>
AV-unprocessed.smi:1433-14

> <Gold.Version>
5.8.1

> <Gold.Id.Protein>
6NUR|6NUR_protein|mol2

> <Gold.PLP.Fitness>
41.0265

> <Gold.PLP.PLP>
-30.9259

> <Gold.PLP.part.hbond>
-1.7748

> <Gold.PLP.part.metal>
0.0000

> <Gold.PLP.part.buried>
-2.6946

> <Gold.PLP.part.nonpolar>
-26.4252

> <Gold.PLP.part.repulsive>
0.3654

> <Gold.PLP.ligand.clash>
0.0000

> <Gold.PLP.ligand.torsion>
0.9780

> <Gold.PLP.Chemscore.Hbond>
2.0000

> <Gold.PLP.Chemscore.CHOScore>
2.0000

> <Gold.PLP.Chemscore.Metal>
0.0000

> <Gold.Chemscore.Hbonds>
donor molecule, donor type, donor heavy atom, donor atom, acceptor molecule, acceptor atom, score
      L1  H     8    33       P1  7948  1.00
      P1  H  7989  7998       L1    20  1.00
      L1  C    13    36       P1  7948  1.00
      L1  C    15    38       P1 10186  0.06

> <Gold.PLP.Chemscore.Internal.Correction>
0.0565

> <Gold.Rescore>
     Score         DG    S(hbond)    S(metal)    S(lipo)     H(rot)  DE(clash)    DE(int)     intcor
     14.43     -15.73       1.90        0.00      74.07       1.87       0.05       1.25       ----

> <Gold.Chemscore.Fitness>
14.4288

> <Gold.Chemscore.DG>
-15.7326

> <Gold.Chemscore.ZeroCoef>
-5.4800

> <Gold.Chemscore.Hbond>
1.9048

> <Gold.Chemscore.Metal>
0.0000

> <Gold.Chemscore.Lipo>
74.0730

> <Gold.Chemscore.Internal_Hbond>
0.0000

> <Gold.Chemscore.DEClash>
0.0500

> <Gold.Chemscore.DEInternal>
1.2538

> <Gold.Chemscore.Rot>
1.8657

> <Gold.Chemscore.Internal.Correction>
   9.000000E+99

> <Gold.Chemscore.Hbonds>
donor molecule, donor type, donor heavy atom, donor atom, acceptor molecule, acceptor atom, score
      L1  H     8    33       P1  7948  0.91
      P1  H  7989  7998       L1    20  0.76

> <Gold.Chemscore.Hbond.Weighted>
-6.3621

> <Gold.Chemscore.Metal.Weighted>
-0.0000

> <Gold.Chemscore.Lipo.Weighted>
-8.6665

> <Gold.Chemscore.Internal_Hbond.Weighted>
0.0000

> <Gold.Chemscore.DEClash.Weighted>
0.0500

> <Gold.Chemscore.DEInternal.Weighted>
1.2538

> <Gold.Chemscore.Rot.Weighted>
4.7761

> <Gold.Chemscore.Internal.Correction.Weighted>
   9.000000E+99

> <Gold.Protein.RotatedTorsions>
[ 6907 6896 6895 6894 ] final   23.66 input  -60.11 | X-H torsion
[ 7974 7965 7964 7962 ] final   81.03 input  175.53 | X-H torsion
[ 8008 7997 7996 7995 ] final -121.16 input   59.86 | X-H torsion
[ 10167 10162 10161 10158 ] final  -58.88 input  -65.29 | X-H torsion
[ 10718 10713 10712 10709 ] final   36.86 input   66.30 | X-H torsion
[ 10763 10752 10751 10750 ] final   33.51 input  -60.55 | X-H torsion
[ 11005 11000 10999 10996 ] final  -27.11 input  -57.11 | X-H torsion

> <Gold.Protein.ActiveResidues>
 VAL166  LYS551  ARG553  GLY616  TRP617  ASP618  TYR619  PRO620  LYS621  CYS622 
 ASP623  PHE694  ASN695  SER759  ASP760  ASP761  ALA762  ILE779  LEU786  VAL792 
 PHE793  MET794  SER795  GLU796  ALA797  LYS798  CYS799  TRP800  GLU811  SER814 

> <Gold.Protein.RotatedAtoms>
  151.9457  135.0192  160.0538 H   0  0  0  0  0  0  0  0  0  0  0  0  # atno 6907 bound_to 6896
  152.1997  133.4827  159.5060 H   0  0  0  0  0  0  0  0  0  0  0  0  # atno 6908 bound_to 6896
  150.6952  134.1523  159.4188 H   0  0  0  0  0  0  0  0  0  0  0  0  # atno 6909 bound_to 6896
  145.6435  139.2431  143.2017 H   0  0  0  0  0  0  0  0  0  0  0  0  # atno 7974 bound_to 7965
  155.1436  140.0402  157.2804 H   0  0  0  0  0  0  0  0  0  0  0  0  # atno 8008 bound_to 7997
  154.6455  140.2557  155.7246 H   0  0  0  0  0  0  0  0  0  0  0  0  # atno 8009 bound_to 7997
  156.2553  140.2847  156.0867 H   0  0  0  0  0  0  0  0  0  0  0  0  # atno 8010 bound_to 7997
  140.6170  143.2406  151.5574 H   0  0  0  0  0  0  0  0  0  0  0  0  # atno 10167 bound_to 10162
  157.3400  130.7542  149.6905 H   0  0  0  0  0  0  0  0  0  0  0  0  # atno 10718 bound_to 10713
  153.0208  135.6385  154.1523 H   0  0  0  0  0  0  0  0  0  0  0  0  # atno 10763 bound_to 10752
  154.1258  135.2843  155.3199 H   0  0  0  0  0  0  0  0  0  0  0  0  # atno 10764 bound_to 10752
  154.6231  135.5518  153.7658 H   0  0  0  0  0  0  0  0  0  0  0  0  # atno 10765 bound_to 10752
  140.9090  133.7473  156.0645 H   0  0  0  0  0  0  0  0  0  0  0  0  # atno 11005 bound_to 11000
  146.1261  140.7246  142.9434 LP  0  0  0  0  0  0  0  0  0  0  0  0  # atno 17320 bound_to 7965
  144.7148  140.4172  143.7052 LP  0  0  0  0  0  0  0  0  0  0  0  0  # atno 17321 bound_to 7965
  139.5406  144.2657  152.1343 LP  0  0  0  0  0  0  0  0  0  0  0  0  # atno 17342 bound_to 10162
  140.1869  144.4790  150.6499 LP  0  0  0  0  0  0  0  0  0  0  0  0  # atno 17343 bound_to 10162
  155.9706  130.4170  150.4260 LP  0  0  0  0  0  0  0  0  0  0  0  0  # atno 17370 bound_to 10713
  157.2306  131.0503  151.2494 LP  0  0  0  0  0  0  0  0  0  0  0  0  # atno 17371 bound_to 10713
  140.8134  134.3373  157.5404 LP  0  0  0  0  0  0  0  0  0  0  0  0  # atno 17394 bound_to 11000
  139.8754  134.9267  156.3407 LP  0  0  0  0  0  0  0  0  0  0  0  0  # atno 17395 bound_to 11000

$$$$
