AV-unprocessed.smi:2727|AV-procd|sdf|10524|dock3
  -GOLD-   2272014563D 1   1.00000     0.00000
 Structure written by MMmdl.
 39 40  0  0  0  0  0  0  0  0  2 V2000
  150.9938  139.7860  154.4400 O   0  0  0  0  0  0  0  0  0  0  0  0
  151.1790  139.1750  155.4951 C   0  0  0  0  0  0  0  0  0  0  0  0
  151.0198  139.8056  156.6663 N   0  0  0  0  0  0  0  0  0  0  0  0
  150.6309  141.2039  156.8238 C   0  0  0  0  0  0  0  0  0  0  0  0
  150.7012  141.6507  158.2978 C   0  0  0  0  0  0  0  0  0  0  0  0
  152.0184  141.2900  159.0145 C   0  0  0  0  0  0  0  0  0  0  0  0
  152.2876  140.1023  159.2026 O   0  0  0  0  0  0  0  0  0  0  0  0
  152.8480  142.2828  159.4211 N   0  0  0  0  0  0  0  0  0  0  0  0
  154.0664  141.9946  160.1882 C   0  0  0  0  0  0  0  0  0  0  0  0
  153.7715  141.8082  161.6906 C   0  0  0  0  0  0  0  0  0  0  0  0
  152.6485  142.6955  162.2729 C   0  0  0  0  0  0  0  0  0  0  0  0
  152.6345  144.1548  161.7751 C   0  0  0  0  0  0  0  0  0  0  0  0
  151.8980  144.3462  160.4319 C   0  0  0  0  0  0  0  0  0  0  0  0
  152.6103  143.7186  159.2185 C   0  0  0  0  0  0  0  0  0  0  0  0
  151.5417  137.8783  155.6190 N   0  5  0  0  0  0  0  0  0  0  0  0
  152.5753  137.5461  156.4093 C   0  0  0  0  0  0  0  0  0  0  0  0
  153.0086  136.3109  156.6682 N   0  0  0  0  0  0  0  0  0  0  0  0
  154.0824  136.4592  157.5324 C   0  0  0  0  0  0  0  0  0  0  0  0
  154.2500  137.7966  157.7681 C   0  0  0  0  0  0  0  0  0  0  0  0
  153.3029  138.4921  157.0685 O   0  0  0  0  0  0  0  0  0  0  0  0
  151.1863  139.2750  157.5087 H   0  0  0  0  0  0  0  0  0  0  0  0
  151.2647  141.8358  156.1993 H   0  0  0  0  0  0  0  0  0  0  0  0
  149.6106  141.3283  156.4584 H   0  0  0  0  0  0  0  0  0  0  0  0
  150.5742  142.7321  158.3531 H   0  0  0  0  0  0  0  0  0  0  0  0
  149.8521  141.2085  158.8174 H   0  0  0  0  0  0  0  0  0  0  0  0
  154.5785  141.1148  159.7946 H   0  0  0  0  0  0  0  0  0  0  0  0
  154.7878  142.8041  160.0726 H   0  0  0  0  0  0  0  0  0  0  0  0
  153.5107  140.7657  161.8773 H   0  0  0  0  0  0  0  0  0  0  0  0
  154.6939  141.9825  162.2451 H   0  0  0  0  0  0  0  0  0  0  0  0
  151.6783  142.2386  162.0716 H   0  0  0  0  0  0  0  0  0  0  0  0
  152.7475  142.6915  163.3588 H   0  0  0  0  0  0  0  0  0  0  0  0
  152.1190  144.7601  162.5214 H   0  0  0  0  0  0  0  0  0  0  0  0
  153.6491  144.5511  161.7204 H   0  0  0  0  0  0  0  0  0  0  0  0
  150.8862  143.9490  160.5169 H   0  0  0  0  0  0  0  0  0  0  0  0
  151.7799  145.4143  160.2464 H   0  0  0  0  0  0  0  0  0  0  0  0
  153.5535  144.2384  159.0467 H   0  0  0  0  0  0  0  0  0  0  0  0
  152.0382  143.9044  158.3095 H   0  0  0  0  0  0  0  0  0  0  0  0
  154.6345  135.6107  157.9082 H   0  0  0  0  0  0  0  0  0  0  0  0
  154.9402  138.3762  158.3625 H   0  0  0  0  0  0  0  0  0  0  0  0
  1  2  2  0  0  0  0
  2  3  1  0  0  0  0
  2 15  1  0  0  0  0
  3  4  1  0  0  0  0
  3 21  1  0  0  0  0
  4  5  1  0  0  0  0
  4 22  1  0  0  0  0
  4 23  1  0  0  0  0
  5  6  1  0  0  0  0
  5 24  1  0  0  0  0
  5 25  1  0  0  0  0
  6  7  2  0  0  0  0
  6  8  1  0  0  0  0
  8 14  1  0  0  0  0
  8  9  1  0  0  0  0
  9 10  1  0  0  0  0
  9 26  1  0  0  0  0
  9 27  1  0  0  0  0
 10 11  1  0  0  0  0
 10 28  1  0  0  0  0
 10 29  1  0  0  0  0
 11 12  1  0  0  0  0
 11 30  1  0  0  0  0
 11 31  1  0  0  0  0
 12 13  1  0  0  0  0
 12 32  1  0  0  0  0
 12 33  1  0  0  0  0
 13 14  1  0  0  0  0
 13 34  1  0  0  0  0
 13 35  1  0  0  0  0
 14 36  1  0  0  0  0
 14 37  1  0  0  0  0
 15 16  1  0  0  0  0
 16 20  1  0  0  0  0
 16 17  2  0  0  0  0
 17 18  1  0  0  0  0
 18 19  2  0  0  0  0
 18 38  1  0  0  0  0
 19 20  1  0  0  0  0
 19 39  1  0  0  0  0
M  CHG  1  15  -1
M  END
> <s_m_source_file>
AV-unprocessed.smi

> <i_m_source_file_index>
2727

> <i_lp_mmshare_version>
43012

> <i_f3d_flags>
0

> <s_epik_input>
bzFbY0hdW2NIXW5jMVtOSF1DKD1PKVtOSF1bQ0gyXVtDSDJdQyg9TylOMltDSDJdW0NIMl1bQ0gyXVtDSDJdW0NIMl1bQ0gyXTI=

> <s_epik_cmdline>
J2VwaWtfcHl0aG9uJywgJy1waCcsICc3LjAnLCAnLXRuJywgJzgnLCAnLW1hJywgJzIwMCcsICctbWV0YWxfYmluZGluZycsICctaW1hZScsICc8aW5maWxlLm1hZT4nLCAnLW9tYWUnLCAnPG91dGZpbGUubWFlPic=

> <r_lp_tautomer_probability>
0.785861

> <r_epik_Ionization_Penalty>
9.14426

> <r_epik_Ionization_Penalty_Charging>
6.65642

> <r_epik_Ionization_Penalty_Neutral>
2.48784

> <r_epik_State_Penalty>
6.67734

> <r_epik_Charging_Adjusted_Penalty>
13.3338

> <i_epik_Tot_Q>
-1

> <i_epik_Tot_abs_Q>
1

> <r_epik_Metal_State_Penalty>
2.58025

> <b_epik_Metal_Only>
1

> <s_lp_Force_Field>
OPLS_2005

> <r_lp_Energy>
17.6318

> <b_lp_Chiralities_Consistent>
1

> <s_lp_Variant>
AV-unprocessed.smi:2727-4

> <Gold.Version>
5.8.1

> <Gold.Id.Protein>
6NUR|6NUR_protein|mol2

> <Gold.PLP.Fitness>
47.8637

> <Gold.PLP.PLP>
-39.8936

> <Gold.PLP.part.hbond>
-3.0000

> <Gold.PLP.part.metal>
0.0000

> <Gold.PLP.part.buried>
-4.9194

> <Gold.PLP.part.nonpolar>
-31.7745

> <Gold.PLP.part.repulsive>
0.1907

> <Gold.PLP.ligand.clash>
0.0000

> <Gold.PLP.ligand.torsion>
0.5380

> <Gold.PLP.Chemscore.Hbond>
3.0000

> <Gold.PLP.Chemscore.CHOScore>
0.0000

> <Gold.PLP.Chemscore.Metal>
0.0000

> <Gold.Chemscore.Hbonds>
donor molecule, donor type, donor heavy atom, donor atom, acceptor molecule, acceptor atom, score
      P1  H  7989  7998       L1     1  1.00
      P1  H  7997  8010       L1    20  0.75
      P1  H 10752 10764       L1    17  1.00

> <Gold.PLP.Chemscore.Internal.Correction>
0.0462

> <Gold.Rescore>
     Score         DG    S(hbond)    S(metal)    S(lipo)     H(rot)  DE(clash)    DE(int)     intcor
     14.27     -18.07       1.94        0.00      88.74       1.67       0.36       3.44       ----

> <Gold.Chemscore.Fitness>
14.2721

> <Gold.Chemscore.DG>
-18.0716

> <Gold.Chemscore.ZeroCoef>
-5.4800

> <Gold.Chemscore.Hbond>
1.9449

> <Gold.Chemscore.Metal>
0.0000

> <Gold.Chemscore.Lipo>
88.7385

> <Gold.Chemscore.Internal_Hbond>
0.0000

> <Gold.Chemscore.DEClash>
0.3623

> <Gold.Chemscore.DEInternal>
3.4372

> <Gold.Chemscore.Rot>
1.6745

> <Gold.Chemscore.Internal.Correction>
   9.000000E+99

> <Gold.Chemscore.Hbonds>
donor molecule, donor type, donor heavy atom, donor atom, acceptor molecule, acceptor atom, score
      P1  H  7989  7998       L1     1  0.97
      P1  H  7997  8010       L1    20  0.09
      P1  H 10752 10764       L1    17  0.42

> <Gold.Chemscore.Hbond.Weighted>
-6.4958

> <Gold.Chemscore.Metal.Weighted>
-0.0000

> <Gold.Chemscore.Lipo.Weighted>
-10.3824

> <Gold.Chemscore.Internal_Hbond.Weighted>
0.0000

> <Gold.Chemscore.DEClash.Weighted>
0.3623

> <Gold.Chemscore.DEInternal.Weighted>
3.4372

> <Gold.Chemscore.Rot.Weighted>
4.2866

> <Gold.Chemscore.Internal.Correction.Weighted>
   9.000000E+99

> <Gold.Protein.RotatedTorsions>
[ 6907 6896 6895 6894 ] final -128.55 input  -60.11 | X-H torsion
[ 7974 7965 7964 7962 ] final  121.09 input  175.53 | X-H torsion
[ 8008 7997 7996 7995 ] final   54.07 input   59.86 | X-H torsion
[ 10167 10162 10161 10158 ] final  172.37 input  -65.29 | X-H torsion
[ 10718 10713 10712 10709 ] final   -5.77 input   66.30 | X-H torsion
[ 10763 10752 10751 10750 ] final    5.98 input  -60.55 | X-H torsion
[ 11005 11000 10999 10996 ] final   11.58 input  -57.11 | X-H torsion

> <Gold.Protein.ActiveResidues>
 VAL166  LYS551  ARG553  GLY616  TRP617  ASP618  TYR619  PRO620  LYS621  CYS622 
 ASP623  PHE694  ASN695  SER759  ASP760  ASP761  ALA762  ILE779  LEU786  VAL792 
 PHE793  MET794  SER795  GLU796  ALA797  LYS798  CYS799  TRP800  GLU811  SER814 

> <Gold.Protein.RotatedAtoms>
  150.9191  133.6902  159.2836 H   0  0  0  0  0  0  0  0  0  0  0  0  # atno 6907 bound_to 6896
  151.4363  135.1014  159.9667 H   0  0  0  0  0  0  0  0  0  0  0  0  # atno 6908 bound_to 6896
  152.4970  133.8610  159.7305 H   0  0  0  0  0  0  0  0  0  0  0  0  # atno 6909 bound_to 6896
  145.1234  139.3374  143.4702 H   0  0  0  0  0  0  0  0  0  0  0  0  # atno 7974 bound_to 7965
  155.4786  140.3467  155.4336 H   0  0  0  0  0  0  0  0  0  0  0  0  # atno 8008 bound_to 7997
  156.1054  140.1446  156.9440 H   0  0  0  0  0  0  0  0  0  0  0  0  # atno 8009 bound_to 7997
  154.4720  140.0897  156.7148 H   0  0  0  0  0  0  0  0  0  0  0  0  # atno 8010 bound_to 7997
  139.5074  144.3382  152.0044 H   0  0  0  0  0  0  0  0  0  0  0  0  # atno 10167 bound_to 10162
  156.7416  130.5211  149.5823 H   0  0  0  0  0  0  0  0  0  0  0  0  # atno 10718 bound_to 10713
  153.2531  135.6915  153.7658 H   0  0  0  0  0  0  0  0  0  0  0  0  # atno 10763 bound_to 10752
  153.6745  135.3339  155.3163 H   0  0  0  0  0  0  0  0  0  0  0  0  # atno 10764 bound_to 10752
  154.8402  135.4508  154.1495 H   0  0  0  0  0  0  0  0  0  0  0  0  # atno 10765 bound_to 10752
  140.5016  134.0740  155.7795 H   0  0  0  0  0  0  0  0  0  0  0  0  # atno 11005 bound_to 11000
  146.3519  140.1203  142.8600 LP  0  0  0  0  0  0  0  0  0  0  0  0  # atno 17320 bound_to 7965
  145.0715  140.9158  143.4879 LP  0  0  0  0  0  0  0  0  0  0  0  0  # atno 17321 bound_to 7965
  140.2820  144.3849  150.6116 LP  0  0  0  0  0  0  0  0  0  0  0  0  # atno 17342 bound_to 10162
  140.6011  143.2167  151.7071 LP  0  0  0  0  0  0  0  0  0  0  0  0  # atno 17343 bound_to 10162
  156.1461  130.6278  151.0532 LP  0  0  0  0  0  0  0  0  0  0  0  0  # atno 17370 bound_to 10713
  157.6816  131.0836  150.7355 LP  0  0  0  0  0  0  0  0  0  0  0  0  # atno 17371 bound_to 10713
  141.1432  133.9101  157.2276 LP  0  0  0  0  0  0  0  0  0  0  0  0  # atno 17394 bound_to 11000
  139.9710  135.0128  156.9511 LP  0  0  0  0  0  0  0  0  0  0  0  0  # atno 17395 bound_to 11000

$$$$
