AV-unprocessed.smi:1244|AV-procd|sdf|5235|dock8
  -GOLD-   22720 4343D 1   1.00000     0.00000
 Structure written by MMmdl.
 55 57  0  0  0  0  0  0  0  0  4 V2000
  146.5988  133.4841  151.1697 C   0  0  0  0  0  0  0  0  0  0  0  0
  146.2083  133.0098  152.5807 C   0  0  2  0  0  0  0  0  0  0  0  0
  146.0491  134.1603  153.5940 C   0  0  0  0  0  0  0  0  0  0  0  0
  147.3676  134.7105  153.9911 N   0  3  1  0  0  0  0  0  0  0  0  0
  147.2543  135.8786  154.9046 C   0  0  0  0  0  0  0  0  0  0  0  0
  148.5128  136.0582  155.7779 C   0  0  0  0  0  0  0  0  0  0  0  0
  148.1880  136.8485  156.9649 N   0  5  0  0  0  0  0  0  0  0  0  0
  148.9738  137.8274  157.4882 C   0  0  0  0  0  0  0  0  0  0  0  0
  149.5870  137.8109  158.5614 O   0  0  0  0  0  0  0  0  0  0  0  0
  149.0248  138.9083  156.6905 N   0  0  0  0  0  0  0  0  0  0  0  0
  149.7012  140.1452  156.8891 C   0  0  0  0  0  0  0  0  0  0  0  0
  150.9578  140.2025  157.5446 C   0  0  0  0  0  0  0  0  0  0  0  0
  151.5921  141.4432  157.7420 C   0  0  0  0  0  0  0  0  0  0  0  0
  150.9639  142.6096  157.2742 C   0  0  0  0  0  0  0  0  0  0  0  0
  149.7808  142.5202  156.6325 N   0  3  0  0  0  0  0  0  0  0  0  0
  149.1271  141.3544  156.3985 C   0  0  0  0  0  0  0  0  0  0  0  0
  147.9017  141.4179  155.6954 N   0  0  0  0  0  0  0  0  0  0  0  0
  146.7448  142.0835  156.2830 C   0  0  0  0  0  0  0  0  0  0  0  0
  145.7574  142.2527  155.1314 C   0  0  0  0  0  0  0  0  0  0  0  0
  146.6799  142.4999  153.9416 C   0  0  0  0  0  0  0  0  0  0  0  0
  147.9115  141.6433  154.2533 C   0  0  0  0  0  0  0  0  0  0  0  0
  148.2385  133.6233  154.5070 C   0  0  0  0  0  0  0  0  0  0  0  0
  148.3950  132.5163  153.4503 C   0  0  1  0  0  0  0  0  0  0  0  0
  149.2212  131.3359  153.9729 C   0  0  0  0  0  0  0  0  0  0  0  0
  147.1077  132.0235  153.0873 O   0  0  0  0  0  0  0  0  0  0  0  0
  145.8265  134.1307  150.7526 H   0  0  0  0  0  0  0  0  0  0  0  0
  146.7179  132.6367  150.4944 H   0  0  0  0  0  0  0  0  0  0  0  0
  147.5302  134.0499  151.1652 H   0  0  0  0  0  0  0  0  0  0  0  0
  145.2410  132.5150  152.4883 H   0  0  0  0  0  0  0  0  0  0  0  0
  145.4263  134.9464  153.1648 H   0  0  0  0  0  0  0  0  0  0  0  0
  145.5332  133.7992  154.4852 H   0  0  0  0  0  0  0  0  0  0  0  0
  147.1220  136.7880  154.3158 H   0  0  0  0  0  0  0  0  0  0  0  0
  146.3581  135.7869  155.5204 H   0  0  0  0  0  0  0  0  0  0  0  0
  148.8915  135.0754  156.0582 H   0  0  0  0  0  0  0  0  0  0  0  0
  149.3037  136.5098  155.1772 H   0  0  0  0  0  0  0  0  0  0  0  0
  148.4141  138.8725  155.8879 H   0  0  0  0  0  0  0  0  0  0  0  0
  151.4505  139.3086  157.8956 H   0  0  0  0  0  0  0  0  0  0  0  0
  152.5460  141.4971  158.2459 H   0  0  0  0  0  0  0  0  0  0  0  0
  151.3727  143.6037  157.3829 H   0  0  0  0  0  0  0  0  0  0  0  0
  146.3194  141.4976  157.0985 H   0  0  0  0  0  0  0  0  0  0  0  0
  147.0257  143.0634  156.6716 H   0  0  0  0  0  0  0  0  0  0  0  0
  145.1964  141.3290  154.9817 H   0  0  0  0  0  0  0  0  0  0  0  0
  145.0448  143.0612  155.2968 H   0  0  0  0  0  0  0  0  0  0  0  0
  146.2203  142.2482  152.9854 H   0  0  0  0  0  0  0  0  0  0  0  0
  146.9632  143.5529  153.9112 H   0  0  0  0  0  0  0  0  0  0  0  0
  148.8281  142.1309  153.9181 H   0  0  0  0  0  0  0  0  0  0  0  0
  147.8334  140.6801  153.7474 H   0  0  0  0  0  0  0  0  0  0  0  0
  149.2209  134.0176  154.7684 H   0  0  0  0  0  0  0  0  0  0  0  0
  147.8070  133.2144  155.4223 H   0  0  0  0  0  0  0  0  0  0  0  0
  148.8990  132.9171  152.5707 H   0  0  0  0  0  0  0  0  0  0  0  0
  150.2239  131.6544  154.2588 H   0  0  0  0  0  0  0  0  0  0  0  0
  149.3236  130.5640  153.2098 H   0  0  0  0  0  0  0  0  0  0  0  0
  148.7527  130.8811  154.8461 H   0  0  0  0  0  0  0  0  0  0  0  0
  147.7941  135.0603  153.1448 H   0  0  0  0  0  0  0  0  0  0  0  0
  149.3554  143.3830  156.2939 H   0  0  0  0  0  0  0  0  0  0  0  0
  1  2  1  0  0  0  0
  1 26  1  0  0  0  0
  1 27  1  0  0  0  0
  1 28  1  0  0  0  0
  2 25  1  0  0  0  0
  2  3  1  0  0  0  0
  2 29  1  0  0  0  0
  3  4  1  0  0  0  0
  3 30  1  0  0  0  0
  3 31  1  0  0  0  0
  4  5  1  0  0  0  0
  4 22  1  0  0  0  0
  4 54  1  0  0  0  0
  5  6  1  0  0  0  0
  5 32  1  0  0  0  0
  5 33  1  0  0  0  0
  6  7  1  0  0  0  0
  6 34  1  0  0  0  0
  6 35  1  0  0  0  0
  7  8  1  0  0  0  0
  8  9  2  0  0  0  0
  8 10  1  0  0  0  0
 10 11  1  0  0  0  0
 10 36  1  0  0  0  0
 11 16  1  0  0  0  0
 11 12  2  0  0  0  0
 12 13  1  0  0  0  0
 12 37  1  0  0  0  0
 13 14  2  0  0  0  0
 13 38  1  0  0  0  0
 14 15  1  0  0  0  0
 14 39  1  0  0  0  0
 15 16  2  0  0  0  0
 15 55  1  0  0  0  0
 16 17  1  0  0  0  0
 17 21  1  0  0  0  0
 17 18  1  0  0  0  0
 18 19  1  0  0  0  0
 18 40  1  0  0  0  0
 18 41  1  0  0  0  0
 19 20  1  0  0  0  0
 19 42  1  0  0  0  0
 19 43  1  0  0  0  0
 20 21  1  0  0  0  0
 20 44  1  0  0  0  0
 20 45  1  0  0  0  0
 21 46  1  0  0  0  0
 21 47  1  0  0  0  0
 22 23  1  0  0  0  0
 22 48  1  0  0  0  0
 22 49  1  0  0  0  0
 23 24  1  0  0  0  0
 23 25  1  0  0  0  0
 23 50  1  0  0  0  0
 24 51  1  0  0  0  0
 24 52  1  0  0  0  0
 24 53  1  0  0  0  0
M  CHG  1   4   1
M  CHG  1   7  -1
M  CHG  1  15   1
M  END
> <s_m_source_file>
AV-unprocessed.smi

> <i_m_source_file_index>
1244

> <i_lp_mmshare_version>
43012

> <i_f3d_flags>
0

> <s_epik_input>
W0NIM11bQ0BASF0xW0NIMl1OKFtDSDJdW0NASF0oTzEpW0NIM10pW0NIMl1bQ0gyXVtOSF1DKD1PKVtOSF1jMltjSF1bY0hdW2NIXW5jMk4zW0NIMl1bQ0gyXVtDSDJdW0NIMl0z

> <s_epik_cmdline>
J2VwaWtfcHl0aG9uJywgJy1waCcsICc3LjAnLCAnLXRuJywgJzgnLCAnLW1hJywgJzIwMCcsICctbWV0YWxfYmluZGluZycsICctaW1hZScsICc8aW5maWxlLm1hZT4nLCAnLW9tYWUnLCAnPG91dGZpbGUubWFlPic=

> <r_lp_tautomer_probability>
0.999994

> <r_epik_Ionization_Penalty>
8.60539

> <r_epik_Ionization_Penalty_Charging>
8.60539

> <r_epik_Ionization_Penalty_Neutral>
3.60441e-06

> <r_epik_State_Penalty>
8.59967

> <r_epik_Charging_Adjusted_Penalty>
17.2051

> <i_epik_Tot_Q>
1

> <i_epik_Tot_abs_Q>
3

> <r_epik_Metal_State_Penalty>
4.59489

> <b_epik_Metal_Only>
1

> <s_lp_Force_Field>
OPLS_2005

> <r_lp_Energy>
46.9863

> <b_lp_Chiralities_Consistent>
1

> <s_lp_Variant>
AV-unprocessed.smi:1244-15

> <Gold.Version>
5.8.1

> <Gold.Id.Protein>
6NUR|6NUR_protein|mol2

> <Gold.PLP.Fitness>
43.7671

> <Gold.PLP.PLP>
-34.7000

> <Gold.PLP.part.hbond>
-2.0000

> <Gold.PLP.part.metal>
0.0000

> <Gold.PLP.part.buried>
-7.1974

> <Gold.PLP.part.nonpolar>
-25.5899

> <Gold.PLP.part.repulsive>
0.2634

> <Gold.PLP.ligand.clash>
0.0000

> <Gold.PLP.ligand.torsion>
1.6908

> <Gold.PLP.Chemscore.Hbond>
4.0000

> <Gold.PLP.Chemscore.CHOScore>
0.0000

> <Gold.PLP.Chemscore.Metal>
0.0000

> <Gold.Chemscore.Hbonds>
donor molecule, donor type, donor heavy atom, donor atom, acceptor molecule, acceptor atom, score
      L1  H     4    54       P1  7948  1.82
      L1  H    15    55       P1  8028  2.00

> <Gold.PLP.Chemscore.Internal.Correction>
0.4488

> <Gold.Rescore>
     Score         DG    S(hbond)    S(metal)    S(lipo)     H(rot)  DE(clash)    DE(int)     intcor
     14.07     -17.27       1.97        0.00      79.46       1.60       0.18       3.01       ----

> <Gold.Chemscore.Fitness>
14.0746

> <Gold.Chemscore.DG>
-17.2659

> <Gold.Chemscore.ZeroCoef>
-5.4800

> <Gold.Chemscore.Hbond>
1.9700

> <Gold.Chemscore.Metal>
0.0000

> <Gold.Chemscore.Lipo>
79.4592

> <Gold.Chemscore.Internal_Hbond>
0.0000

> <Gold.Chemscore.DEClash>
0.1799

> <Gold.Chemscore.DEInternal>
3.0115

> <Gold.Chemscore.Rot>
1.5978

> <Gold.Chemscore.Internal.Correction>
   9.000000E+99

> <Gold.Chemscore.Hbonds>
donor molecule, donor type, donor heavy atom, donor atom, acceptor molecule, acceptor atom, score
      L1  H     4    54       P1  7948  0.87
      L1  H    15    55       P1  8028  0.95

> <Gold.Chemscore.Hbond.Weighted>
-6.5797

> <Gold.Chemscore.Metal.Weighted>
-0.0000

> <Gold.Chemscore.Lipo.Weighted>
-9.2967

> <Gold.Chemscore.Internal_Hbond.Weighted>
0.0000

> <Gold.Chemscore.DEClash.Weighted>
0.1799

> <Gold.Chemscore.DEInternal.Weighted>
3.0115

> <Gold.Chemscore.Rot.Weighted>
4.0905

> <Gold.Chemscore.Internal.Correction.Weighted>
   9.000000E+99

> <Gold.Protein.RotatedTorsions>
[ 6907 6896 6895 6894 ] final -111.51 input  -60.11 | X-H torsion
[ 7974 7965 7964 7962 ] final  -19.06 input  175.53 | X-H torsion
[ 8008 7997 7996 7995 ] final   25.89 input   59.86 | X-H torsion
[ 10167 10162 10161 10158 ] final -167.61 input  -65.29 | X-H torsion
[ 10718 10713 10712 10709 ] final -108.73 input   66.30 | X-H torsion
[ 10763 10752 10751 10750 ] final  100.48 input  -60.55 | X-H torsion
[ 11005 11000 10999 10996 ] final   18.18 input  -57.11 | X-H torsion

> <Gold.Protein.ActiveResidues>
 VAL166  LYS551  ARG553  GLY616  TRP617  ASP618  TYR619  PRO620  LYS621  CYS622 
 ASP623  PHE694  ASN695  SER759  ASP760  ASP761  ALA762  ILE779  LEU786  VAL792 
 PHE793  MET794  SER795  GLU796  ALA797  LYS798  CYS799  TRP800  GLU811  SER814 

> <Gold.Protein.RotatedAtoms>
  150.7695  133.9224  159.3401 H   0  0  0  0  0  0  0  0  0  0  0  0  # atno 6907 bound_to 6896
  151.7114  135.0910  160.0278 H   0  0  0  0  0  0  0  0  0  0  0  0  # atno 6908 bound_to 6896
  152.3707  133.6377  159.6120 H   0  0  0  0  0  0  0  0  0  0  0  0  # atno 6909 bound_to 6896
  146.1860  140.4009  142.8476 H   0  0  0  0  0  0  0  0  0  0  0  0  # atno 7974 bound_to 7965
  155.0187  140.3145  155.4801 H   0  0  0  0  0  0  0  0  0  0  0  0  # atno 8008 bound_to 7997
  156.2896  140.2201  156.5247 H   0  0  0  0  0  0  0  0  0  0  0  0  # atno 8009 bound_to 7997
  154.7470  140.0469  157.0849 H   0  0  0  0  0  0  0  0  0  0  0  0  # atno 8010 bound_to 7997
  139.6038  144.0955  152.1771 H   0  0  0  0  0  0  0  0  0  0  0  0  # atno 10167 bound_to 10162
  156.0501  130.5728  150.8002 H   0  0  0  0  0  0  0  0  0  0  0  0  # atno 10718 bound_to 10713
  153.3145  135.4077  155.1364 H   0  0  0  0  0  0  0  0  0  0  0  0  # atno 10763 bound_to 10752
  154.8584  135.3572  154.5679 H   0  0  0  0  0  0  0  0  0  0  0  0  # atno 10764 bound_to 10752
  153.6109  135.7068  153.5406 H   0  0  0  0  0  0  0  0  0  0  0  0  # atno 10765 bound_to 10752
  140.4277  134.1452  155.7678 H   0  0  0  0  0  0  0  0  0  0  0  0  # atno 11005 bound_to 11000
  144.8399  140.6840  143.6236 LP  0  0  0  0  0  0  0  0  0  0  0  0  # atno 17320 bound_to 7965
  145.3936  139.1611  143.4216 LP  0  0  0  0  0  0  0  0  0  0  0  0  # atno 17321 bound_to 7965
  140.0557  144.5897  150.7301 LP  0  0  0  0  0  0  0  0  0  0  0  0  # atno 17342 bound_to 10162
  140.7270  143.2647  151.4087 LP  0  0  0  0  0  0  0  0  0  0  0  0  # atno 17343 bound_to 10162
  157.5417  131.0941  150.9818 LP  0  0  0  0  0  0  0  0  0  0  0  0  # atno 17370 bound_to 10713
  157.0099  130.5632  149.5320 LP  0  0  0  0  0  0  0  0  0  0  0  0  # atno 17371 bound_to 10713
  141.1758  133.8516  157.1425 LP  0  0  0  0  0  0  0  0  0  0  0  0  # atno 17394 bound_to 11000
  140.0156  134.9969  157.0486 LP  0  0  0  0  0  0  0  0  0  0  0  0  # atno 17395 bound_to 11000

$$$$
