AV-unprocessed.smi:1163|AV-procd|sdf|4925|dock3
  -GOLD-   22720 3503D 1   1.00000     0.00000
 Structure written by MMmdl.
 40 41  0  0  0  0  0  0  0  0  2 V2000
  152.4837  142.4981  160.0876 C   0  0  0  0  0  0  0  0  0  0  0  0
  153.0022  141.6048  159.1081 O   0  0  0  0  0  0  0  0  0  0  0  0
  152.1967  141.2630  158.0412 C   0  0  0  0  0  0  0  0  0  0  0  0
  151.0429  142.0325  157.7935 C   0  0  0  0  0  0  0  0  0  0  0  0
  150.2125  141.6883  156.7097 C   0  0  0  0  0  0  0  0  0  0  0  0
  150.5669  140.5825  155.8992 C   0  0  0  0  0  0  0  0  0  0  0  0
  149.8150  140.1147  154.7858 N   0  0  0  0  0  0  0  0  0  0  0  0
  148.4823  140.0195  154.6375 C   0  0  0  0  0  0  0  0  0  0  0  0
  147.6403  140.3689  155.4638 O   0  0  0  0  0  0  0  0  0  0  0  0
  148.1648  139.4904  153.4475 N   0  0  0  0  0  0  0  0  0  0  0  0
  146.8031  139.2472  152.9823 C   0  0  1  0  0  0  0  0  0  0  0  0
  146.7190  138.2411  151.8351 C   0  0  0  0  0  0  0  0  0  0  0  0
  145.3350  137.5879  151.9947 C   0  0  0  0  0  0  0  0  0  0  0  0
  144.7866  138.0479  153.2940 N   0  3  1  0  0  0  0  0  0  0  0  0
  143.9908  137.0458  154.0434 C   0  0  0  0  0  0  0  0  0  0  0  0
  142.7595  136.5587  153.2601 C   0  0  0  0  0  0  0  0  0  0  0  0
  142.2410  137.5834  152.5851 F   0  0  0  0  0  0  0  0  0  0  0  0
  143.1143  135.6105  152.3932 F   0  0  0  0  0  0  0  0  0  0  0  0
  141.8259  136.0778  154.0801 F   0  0  0  0  0  0  0  0  0  0  0  0
  145.9207  138.6043  154.0520 C   0  0  0  0  0  0  0  0  0  0  0  0
  151.7400  139.8755  156.2364 C   0  0  0  0  0  0  0  0  0  0  0  0
  152.5397  140.1994  157.2739 N   0  0  0  0  0  0  0  0  0  0  0  0
  153.2381  142.6684  160.8557 H   0  0  0  0  0  0  0  0  0  0  0  0
  151.6004  142.0854  160.5770 H   0  0  0  0  0  0  0  0  0  0  0  0
  152.2323  143.4657  159.6511 H   0  0  0  0  0  0  0  0  0  0  0  0
  150.7954  142.8709  158.4278 H   0  0  0  0  0  0  0  0  0  0  0  0
  149.3239  142.2739  156.5381 H   0  0  0  0  0  0  0  0  0  0  0  0
  150.3671  139.8320  153.9891 H   0  0  0  0  0  0  0  0  0  0  0  0
  148.9160  139.2380  152.8217 H   0  0  0  0  0  0  0  0  0  0  0  0
  146.3514  140.1872  152.6585 H   0  0  0  0  0  0  0  0  0  0  0  0
  146.8479  138.7136  150.8608 H   0  0  0  0  0  0  0  0  0  0  0  0
  147.4935  137.4795  151.9382 H   0  0  0  0  0  0  0  0  0  0  0  0
  144.6589  137.8860  151.1928 H   0  0  0  0  0  0  0  0  0  0  0  0
  145.4312  136.5013  151.9616 H   0  0  0  0  0  0  0  0  0  0  0  0
  144.6216  136.2052  154.3363 H   0  0  0  0  0  0  0  0  0  0  0  0
  143.6465  137.5107  154.9687 H   0  0  0  0  0  0  0  0  0  0  0  0
  146.4576  137.7993  154.5582 H   0  0  0  0  0  0  0  0  0  0  0  0
  145.5853  139.3177  154.8056 H   0  0  0  0  0  0  0  0  0  0  0  0
  152.0494  139.0192  155.6546 H   0  0  0  0  0  0  0  0  0  0  0  0
  144.1778  138.8288  153.0927 H   0  0  0  0  0  0  0  0  0  0  0  0
  1  2  1  0  0  0  0
  1 23  1  0  0  0  0
  1 24  1  0  0  0  0
  1 25  1  0  0  0  0
  2  3  1  0  0  0  0
  3 22  1  0  0  0  0
  3  4  2  0  0  0  0
  4  5  1  0  0  0  0
  4 26  1  0  0  0  0
  5  6  2  0  0  0  0
  5 27  1  0  0  0  0
  6  7  1  0  0  0  0
  6 21  1  0  0  0  0
  7  8  1  0  0  0  0
  7 28  1  0  0  0  0
  8  9  2  0  0  0  0
  8 10  1  0  0  0  0
 10 11  1  0  0  0  0
 10 29  1  0  0  0  0
 11 20  1  0  0  0  0
 11 12  1  0  0  0  0
 11 30  1  0  0  0  0
 12 13  1  0  0  0  0
 12 31  1  0  0  0  0
 12 32  1  0  0  0  0
 13 14  1  0  0  0  0
 13 33  1  0  0  0  0
 13 34  1  0  0  0  0
 14 15  1  0  0  0  0
 14 20  1  0  0  0  0
 14 40  1  0  0  0  0
 15 16  1  0  0  0  0
 15 35  1  0  0  0  0
 15 36  1  0  0  0  0
 16 17  1  0  0  0  0
 16 18  1  0  0  0  0
 16 19  1  0  0  0  0
 20 37  1  0  0  0  0
 20 38  1  0  0  0  0
 21 22  2  0  0  0  0
 21 39  1  0  0  0  0
M  CHG  1  14   1
M  END
> <s_m_source_file>
AV-unprocessed.smi

> <i_m_source_file_index>
1163

> <i_lp_mmshare_version>
43012

> <i_f3d_flags>
0

> <s_epik_input>
W0NIM11PYzFbY0hdW2NIXWMoW2NIXW4xKVtOSF1DKD1PKVtOSF1bQ0BASF0yW0NIMl1bQ0gyXU4oW0NIMl0yKVtDSDJdQyhGKShGKUY=

> <s_epik_cmdline>
J2VwaWtfcHl0aG9uJywgJy1waCcsICc3LjAnLCAnLXRuJywgJzgnLCAnLW1hJywgJzIwMCcsICctbWV0YWxfYmluZGluZycsICctaW1hZScsICc8aW5maWxlLm1hZT4nLCAnLW9tYWUnLCAnPG91dGZpbGUubWFlPic=

> <r_lp_tautomer_probability>
1

> <r_epik_Ionization_Penalty>
1.12054

> <r_epik_Ionization_Penalty_Charging>
1.12047

> <r_epik_Ionization_Penalty_Neutral>
7.20346e-05

> <r_epik_State_Penalty>
1.17927

> <r_epik_Charging_Adjusted_Penalty>
2.29974

> <i_epik_Tot_Q>
1

> <i_epik_Tot_abs_Q>
1

> <r_epik_Metal_State_Penalty>
1.17928

> <b_epik_Metal_Only>
0

> <s_lp_Force_Field>
OPLS_2005

> <r_lp_Energy>
29.7576

> <b_lp_Chiralities_Consistent>
1

> <s_lp_Variant>
AV-unprocessed.smi:1163-6

> <Gold.Version>
5.8.1

> <Gold.Id.Protein>
6NUR|6NUR_protein|mol2

> <Gold.PLP.Fitness>
41.5780

> <Gold.PLP.PLP>
-32.0000

> <Gold.PLP.part.hbond>
-3.0000

> <Gold.PLP.part.metal>
0.0000

> <Gold.PLP.part.buried>
-0.7285

> <Gold.PLP.part.nonpolar>
-28.5351

> <Gold.PLP.part.repulsive>
0.2370

> <Gold.PLP.ligand.clash>
0.0460

> <Gold.PLP.ligand.torsion>
1.0671

> <Gold.PLP.Chemscore.Hbond>
3.7520

> <Gold.PLP.Chemscore.CHOScore>
0.0000

> <Gold.PLP.Chemscore.Metal>
0.0000

> <Gold.Chemscore.Hbonds>
donor molecule, donor type, donor heavy atom, donor atom, acceptor molecule, acceptor atom, score
      L1  H    10    29       P1  7957  0.67
      L1  H    14    40       P1 10175  2.00
      P1  H  7997  8008       L1    22  1.00

> <Gold.PLP.Chemscore.Internal.Correction>
0.5022

> <Gold.Rescore>
     Score         DG    S(hbond)    S(metal)    S(lipo)     H(rot)  DE(clash)    DE(int)     intcor
     13.56     -18.18       2.70        0.00      68.25       1.68       2.05       2.57       ----

> <Gold.Chemscore.Fitness>
13.5640

> <Gold.Chemscore.DG>
-18.1785

> <Gold.Chemscore.ZeroCoef>
-5.4800

> <Gold.Chemscore.Hbond>
2.6972

> <Gold.Chemscore.Metal>
0.0000

> <Gold.Chemscore.Lipo>
68.2480

> <Gold.Chemscore.Internal_Hbond>
0.0000

> <Gold.Chemscore.DEClash>
2.0481

> <Gold.Chemscore.DEInternal>
2.5664

> <Gold.Chemscore.Rot>
1.6778

> <Gold.Chemscore.Internal.Correction>
   9.000000E+99

> <Gold.Chemscore.Hbonds>
donor molecule, donor type, donor heavy atom, donor atom, acceptor molecule, acceptor atom, score
      L1  H    10    29       P1  7957  0.65
      L1  H    14    40       P1 10175  0.99
      P1  H  7997  8008       L1    22  0.63

> <Gold.Chemscore.Hbond.Weighted>
-9.0086

> <Gold.Chemscore.Metal.Weighted>
-0.0000

> <Gold.Chemscore.Lipo.Weighted>
-7.9850

> <Gold.Chemscore.Internal_Hbond.Weighted>
0.0000

> <Gold.Chemscore.DEClash.Weighted>
2.0481

> <Gold.Chemscore.DEInternal.Weighted>
2.5664

> <Gold.Chemscore.Rot.Weighted>
4.2951

> <Gold.Chemscore.Internal.Correction.Weighted>
   9.000000E+99

> <Gold.Protein.RotatedTorsions>
[ 6907 6896 6895 6894 ] final   -8.27 input  -60.11 | X-H torsion
[ 7974 7965 7964 7962 ] final  -32.23 input  175.53 | X-H torsion
[ 8008 7997 7996 7995 ] final  -62.70 input   59.86 | X-H torsion
[ 10167 10162 10161 10158 ] final  -41.55 input  -65.29 | X-H torsion
[ 10718 10713 10712 10709 ] final   -0.79 input   66.30 | X-H torsion
[ 10763 10752 10751 10750 ] final -103.14 input  -60.55 | X-H torsion
[ 11005 11000 10999 10996 ] final -174.43 input  -57.11 | X-H torsion

> <Gold.Protein.ActiveResidues>
 VAL166  LYS551  ARG553  GLY616  TRP617  ASP618  TYR619  PRO620  LYS621  CYS622 
 ASP623  PHE694  ASN695  SER759  ASP760  ASP761  ALA762  ILE779  LEU786  VAL792 
 PHE793  MET794  SER795  GLU796  ALA797  LYS798  CYS799  TRP800  GLU811  SER814 

> <Gold.Protein.RotatedAtoms>
  151.4363  135.1015  159.9656 H   0  0  0  0  0  0  0  0  0  0  0  0  # atno 6907 bound_to 6896
  152.4938  133.8570  159.7241 H   0  0  0  0  0  0  0  0  0  0  0  0  # atno 6908 bound_to 6896
  150.9120  133.6928  159.2880 H   0  0  0  0  0  0  0  0  0  0  0  0  # atno 6909 bound_to 6896
  146.1006  140.5767  142.8823 H   0  0  0  0  0  0  0  0  0  0  0  0  # atno 7974 bound_to 7965
  154.4514  140.0990  156.6629 H   0  0  0  0  0  0  0  0  0  0  0  0  # atno 8008 bound_to 7997
  155.5274  140.3480  155.4400 H   0  0  0  0  0  0  0  0  0  0  0  0  # atno 8009 bound_to 7997
  156.0688  140.1344  156.9842 H   0  0  0  0  0  0  0  0  0  0  0  0  # atno 8010 bound_to 7997
  140.6999  143.3088  151.3082 H   0  0  0  0  0  0  0  0  0  0  0  0  # atno 10167 bound_to 10162
  156.8152  130.5438  149.5704 H   0  0  0  0  0  0  0  0  0  0  0  0  # atno 10718 bound_to 10713
  154.7786  135.4834  153.9796 H   0  0  0  0  0  0  0  0  0  0  0  0  # atno 10763 bound_to 10752
  153.1462  135.6782  153.8958 H   0  0  0  0  0  0  0  0  0  0  0  0  # atno 10764 bound_to 10752
  153.8617  135.3154  155.3416 H   0  0  0  0  0  0  0  0  0  0  0  0  # atno 10765 bound_to 10752
  140.4746  134.6133  157.4895 H   0  0  0  0  0  0  0  0  0  0  0  0  # atno 11005 bound_to 11000
  144.7429  140.4992  143.6856 LP  0  0  0  0  0  0  0  0  0  0  0  0  # atno 17320 bound_to 7965
  145.5862  139.1492  143.3208 LP  0  0  0  0  0  0  0  0  0  0  0  0  # atno 17321 bound_to 7965
  139.6504  144.0373  152.2622 LP  0  0  0  0  0  0  0  0  0  0  0  0  # atno 17342 bound_to 10162
  139.9908  144.6363  150.7816 LP  0  0  0  0  0  0  0  0  0  0  0  0  # atno 17343 bound_to 10162
  156.1021  130.5977  150.9911 LP  0  0  0  0  0  0  0  0  0  0  0  0  # atno 17370 bound_to 10713
  157.6485  131.0900  150.8101 LP  0  0  0  0  0  0  0  0  0  0  0  0  # atno 17371 bound_to 10713
  139.9864  134.7055  155.9766 LP  0  0  0  0  0  0  0  0  0  0  0  0  # atno 17394 bound_to 11000
  141.1561  133.6543  156.4165 LP  0  0  0  0  0  0  0  0  0  0  0  0  # atno 17395 bound_to 11000

$$$$
