AV-unprocessed.smi:79|AV-procd|sdf|778|dock8
  -GOLD-   2262017133D 1   1.00000     0.00000
 Structure written by MMmdl.
 56 59  0  0  0  0  0  0  0  0  2 V2000
  145.5305  131.1840  150.6790 C   0  0  0  0  0  0  0  0  0  0  0  0
  145.3802  132.2371  149.5738 C   0  0  1  0  0  0  0  0  0  0  0  0
  145.6520  131.6169  148.3332 O   0  0  0  0  0  0  0  0  0  0  0  0
  143.9628  132.8411  149.5361 C   0  0  0  0  0  0  0  0  0  0  0  0
  143.7532  133.8577  150.5982 N   0  3  2  0  0  0  0  0  0  0  0  0
  144.7396  134.9696  150.5558 C   0  0  0  0  0  0  0  0  0  0  0  0
  144.4113  136.0407  151.6095 C   0  0  0  0  0  0  0  0  0  0  0  0
  144.2911  135.4388  152.9355 N   0  0  0  0  0  0  0  0  0  0  0  0
  145.4375  135.4169  153.6642 C   0  0  0  0  0  0  0  0  0  0  0  0
  145.6456  136.3438  154.6370 N   0  0  0  0  0  0  0  0  0  0  0  0
  146.7637  136.3161  155.3675 C   0  0  0  0  0  0  0  0  0  0  0  0
  147.7885  135.4655  155.2909 N   0  0  0  0  0  0  0  0  0  0  0  0
  147.5927  134.5389  154.3098 C   0  0  0  0  0  0  0  0  0  0  0  0
  146.4540  134.4416  153.4615 C   0  0  0  0  0  0  0  0  0  0  0  0
  146.6062  133.3735  152.5863 N   0  0  0  0  0  0  0  0  0  0  0  0
  147.7654  132.8649  152.9029 C   0  0  0  0  0  0  0  0  0  0  0  0
  148.4356  133.5123  153.9167 N   0  0  0  0  0  0  0  0  0  0  0  0
  149.7387  133.1615  154.4640 C   0  0  0  0  0  0  0  0  0  0  0  0
  149.7784  131.7995  155.1911 C   0  0  0  0  0  0  0  0  0  0  0  0
  150.8695  131.7958  156.2748 C   0  0  0  0  0  0  0  0  0  0  0  0
  150.6244  132.7873  157.2511 O   0  0  0  0  0  0  0  0  0  0  0  0
  148.4095  131.2648  155.6341 C   0  0  0  0  0  0  0  0  0  0  0  0
  148.3925  130.2550  154.6035 O   0  0  0  0  0  0  0  0  0  0  0  0
  149.7656  130.5610  154.2823 C   0  0  0  0  0  0  0  0  0  0  0  0
  143.3573  134.3121  153.0368 C   0  0  1  0  0  0  0  0  0  0  0  0
  141.8962  134.7905  152.9780 C   0  0  0  0  0  0  0  0  0  0  0  0
  143.6565  133.2517  151.9523 C   0  0  0  0  0  0  0  0  0  0  0  0
  145.3500  131.6207  151.6617 H   0  0  0  0  0  0  0  0  0  0  0  0
  146.5369  130.7637  150.6877 H   0  0  0  0  0  0  0  0  0  0  0  0
  144.8265  130.3616  150.5470 H   0  0  0  0  0  0  0  0  0  0  0  0
  146.1266  133.0136  149.7374 H   0  0  0  0  0  0  0  0  0  0  0  0
  145.6837  132.2811  147.6613 H   0  0  0  0  0  0  0  0  0  0  0  0
  143.8051  133.2918  148.5548 H   0  0  0  0  0  0  0  0  0  0  0  0
  143.2081  132.0591  149.6338 H   0  0  0  0  0  0  0  0  0  0  0  0
  145.7405  134.5716  150.7314 H   0  0  0  0  0  0  0  0  0  0  0  0
  144.7542  135.4342  149.5711 H   0  0  0  0  0  0  0  0  0  0  0  0
  145.1763  136.8167  151.5864 H   0  0  0  0  0  0  0  0  0  0  0  0
  143.4730  136.5362  151.3601 H   0  0  0  0  0  0  0  0  0  0  0  0
  146.8506  137.0852  156.1210 H   0  0  0  0  0  0  0  0  0  0  0  0
  148.1626  131.9954  152.3998 H   0  0  0  0  0  0  0  0  0  0  0  0
  150.4702  133.1895  153.6557 H   0  0  0  0  0  0  0  0  0  0  0  0
  150.0330  133.9605  155.1461 H   0  0  0  0  0  0  0  0  0  0  0  0
  150.9026  130.8324  156.7844 H   0  0  0  0  0  0  0  0  0  0  0  0
  151.8623  131.9447  155.8504 H   0  0  0  0  0  0  0  0  0  0  0  0
  150.1274  133.4853  156.8525 H   0  0  0  0  0  0  0  0  0  0  0  0
  148.4061  130.8250  156.6326 H   0  0  0  0  0  0  0  0  0  0  0  0
  147.5970  131.9840  155.5253 H   0  0  0  0  0  0  0  0  0  0  0  0
  149.8991  130.7729  153.2224 H   0  0  0  0  0  0  0  0  0  0  0  0
  150.4423  129.7677  154.6033 H   0  0  0  0  0  0  0  0  0  0  0  0
  143.4770  133.8406  154.0133 H   0  0  0  0  0  0  0  0  0  0  0  0
  141.2079  133.9599  153.1362 H   0  0  0  0  0  0  0  0  0  0  0  0
  141.6494  135.2420  152.0169 H   0  0  0  0  0  0  0  0  0  0  0  0
  141.6972  135.5310  153.7534 H   0  0  0  0  0  0  0  0  0  0  0  0
  142.8802  132.4855  151.9646 H   0  0  0  0  0  0  0  0  0  0  0  0
  144.5955  132.7431  152.1746 H   0  0  0  0  0  0  0  0  0  0  0  0
  142.8478  134.2672  150.4162 H   0  0  0  0  0  0  0  0  0  0  0  0
  1  2  1  0  0  0  0
  1 28  1  0  0  0  0
  1 29  1  0  0  0  0
  1 30  1  0  0  0  0
  2  3  1  0  0  0  0
  2  4  1  0  0  0  0
  2 31  1  0  0  0  0
  3 32  1  0  0  0  0
  4  5  1  0  0  0  0
  4 33  1  0  0  0  0
  4 34  1  0  0  0  0
  5 27  1  0  0  0  0
  5  6  1  0  0  0  0
  5 56  1  0  0  0  0
  6  7  1  0  0  0  0
  6 35  1  0  0  0  0
  6 36  1  0  0  0  0
  7  8  1  0  0  0  0
  7 37  1  0  0  0  0
  7 38  1  0  0  0  0
  8  9  1  0  0  0  0
  8 25  1  0  0  0  0
  9 14  1  0  0  0  0
  9 10  2  0  0  0  0
 10 11  1  0  0  0  0
 11 12  2  0  0  0  0
 11 39  1  0  0  0  0
 12 13  1  0  0  0  0
 13 17  1  0  0  0  0
 13 14  2  0  0  0  0
 14 15  1  0  0  0  0
 15 16  2  0  0  0  0
 16 17  1  0  0  0  0
 16 40  1  0  0  0  0
 17 18  1  0  0  0  0
 18 19  1  0  0  0  0
 18 41  1  0  0  0  0
 18 42  1  0  0  0  0
 19 24  1  0  0  0  0
 19 20  1  0  0  0  0
 19 22  1  0  0  0  0
 20 21  1  0  0  0  0
 20 43  1  0  0  0  0
 20 44  1  0  0  0  0
 21 45  1  0  0  0  0
 22 23  1  0  0  0  0
 22 46  1  0  0  0  0
 22 47  1  0  0  0  0
 23 24  1  0  0  0  0
 24 48  1  0  0  0  0
 24 49  1  0  0  0  0
 25 26  1  0  0  0  0
 25 27  1  0  0  0  0
 25 50  1  0  0  0  0
 26 51  1  0  0  0  0
 26 52  1  0  0  0  0
 26 53  1  0  0  0  0
 27 54  1  0  0  0  0
 27 55  1  0  0  0  0
M  CHG  1   5   1
M  END
> <s_m_source_file>
AV-unprocessed.smi

> <i_m_source_file_index>
79

> <i_lp_mmshare_version>
43012

> <i_f3d_flags>
0

> <s_epik_input>
W0NIM11bQ0BIXShbT0hdKVtDSDJdTjFbQ0gyXVtDSDJdTihbQ0BASF0oW0NIM10pW0NIMl0xKWMobltjSF1uMiljKGMyMyluW2NIXW4zW0NIMl1DNChbQ0gyXVtPSF0pW0NIMl1PW0NIMl00

> <s_epik_cmdline>
J2VwaWtfcHl0aG9uJywgJy1waCcsICc3LjAnLCAnLXRuJywgJzgnLCAnLW1hJywgJzIwMCcsICctbWV0YWxfYmluZGluZycsICctaW1hZScsICc8aW5maWxlLm1hZT4nLCAnLW9tYWUnLCAnPG91dGZpbGUubWFlPic=

> <r_lp_tautomer_probability>
1

> <r_epik_Ionization_Penalty>
0.00515943

> <r_epik_Ionization_Penalty_Charging>
0.00509693

> <r_epik_Ionization_Penalty_Neutral>
6.25007e-05

> <r_epik_State_Penalty>
-0

> <r_epik_Charging_Adjusted_Penalty>
0.00509693

> <i_epik_Tot_Q>
1

> <i_epik_Tot_abs_Q>
1

> <r_epik_Metal_State_Penalty>
-0

> <b_epik_Metal_Only>
0

> <s_lp_Force_Field>
OPLS_2005

> <r_lp_Energy>
48.7837

> <b_lp_Chiralities_Consistent>
1

> <s_lp_Variant>
AV-unprocessed.smi:79-2

> <Gold.Version>
5.8.1

> <Gold.Id.Protein>
6NUR|6NUR_protein|mol2

> <Gold.PLP.Fitness>
46.9255

> <Gold.PLP.PLP>
-37.0749

> <Gold.PLP.part.hbond>
-4.0000

> <Gold.PLP.part.metal>
0.0000

> <Gold.PLP.part.buried>
-0.0617

> <Gold.PLP.part.nonpolar>
-33.3898

> <Gold.PLP.part.repulsive>
0.3424

> <Gold.PLP.ligand.clash>
0.0000

> <Gold.PLP.ligand.torsion>
1.1127

> <Gold.PLP.Chemscore.Hbond>
2.7950

> <Gold.PLP.Chemscore.CHOScore>
0.9171

> <Gold.PLP.Chemscore.Metal>
0.0000

> <Gold.Chemscore.Hbonds>
donor molecule, donor type, donor heavy atom, donor atom, acceptor molecule, acceptor atom, score
      L1  H     5    56       P1 10186  1.98
      P1  H  6896  6907       L1    21  0.76
      L1  C    16    40       P1 10747  0.99

> <Gold.PLP.Chemscore.Internal.Correction>
0.9395

> <Gold.Rescore>
     Score         DG    S(hbond)    S(metal)    S(lipo)     H(rot)  DE(clash)    DE(int)     intcor
      9.80     -12.92       1.90        0.00      90.88       3.72       0.92       2.20       ----

> <Gold.Chemscore.Fitness>
9.7976

> <Gold.Chemscore.DG>
-12.9233

> <Gold.Chemscore.ZeroCoef>
-5.4800

> <Gold.Chemscore.Hbond>
1.8983

> <Gold.Chemscore.Metal>
0.0000

> <Gold.Chemscore.Lipo>
90.8787

> <Gold.Chemscore.Internal_Hbond>
0.0000

> <Gold.Chemscore.DEClash>
0.9230

> <Gold.Chemscore.DEInternal>
2.2027

> <Gold.Chemscore.Rot>
3.7226

> <Gold.Chemscore.Internal.Correction>
   9.000000E+99

> <Gold.Chemscore.Hbonds>
donor molecule, donor type, donor heavy atom, donor atom, acceptor molecule, acceptor atom, score
      L1  H     5    56       P1 10186  0.72
      P1  H  6896  6907       L1    21  0.46

> <Gold.Chemscore.Hbond.Weighted>
-6.3403

> <Gold.Chemscore.Metal.Weighted>
-0.0000

> <Gold.Chemscore.Lipo.Weighted>
-10.6328

> <Gold.Chemscore.Internal_Hbond.Weighted>
0.0000

> <Gold.Chemscore.DEClash.Weighted>
0.9230

> <Gold.Chemscore.DEInternal.Weighted>
2.2027

> <Gold.Chemscore.Rot.Weighted>
9.5298

> <Gold.Chemscore.Internal.Correction.Weighted>
   9.000000E+99

> <Gold.Protein.RotatedTorsions>
[ 6907 6896 6895 6894 ] final -149.56 input  -60.11 | X-H torsion
[ 7974 7965 7964 7962 ] final  160.91 input  175.53 | X-H torsion
[ 8008 7997 7996 7995 ] final -165.81 input   59.86 | X-H torsion
[ 10167 10162 10161 10158 ] final   10.44 input  -65.29 | X-H torsion
[ 10718 10713 10712 10709 ] final -131.02 input   66.30 | X-H torsion
[ 10763 10752 10751 10750 ] final  152.56 input  -60.55 | X-H torsion
[ 11005 11000 10999 10996 ] final  155.59 input  -57.11 | X-H torsion

> <Gold.Protein.ActiveResidues>
 VAL166  LYS551  ARG553  GLY616  TRP617  ASP618  TYR619  PRO620  LYS621  CYS622 
 ASP623  PHE694  ASN695  SER759  ASP760  ASP761  ALA762  ILE779  LEU786  VAL792 
 PHE793  MET794  SER795  GLU796  ALA797  LYS798  CYS799  TRP800  GLU811  SER814 

> <Gold.Protein.RotatedAtoms>
  151.1858  133.4697  159.2594 H   0  0  0  0  0  0  0  0  0  0  0  0  # atno 6907 bound_to 6896
  151.1213  135.0080  159.8550 H   0  0  0  0  0  0  0  0  0  0  0  0  # atno 6908 bound_to 6896
  152.5456  134.1769  159.8673 H   0  0  0  0  0  0  0  0  0  0  0  0  # atno 6909 bound_to 6896
  144.7712  139.7824  143.6296 H   0  0  0  0  0  0  0  0  0  0  0  0  # atno 7974 bound_to 7965
  155.8550  140.0969  157.1650 H   0  0  0  0  0  0  0  0  0  0  0  0  # atno 8008 bound_to 7997
  154.3987  140.1376  156.3952 H   0  0  0  0  0  0  0  0  0  0  0  0  # atno 8009 bound_to 7997
  155.7920  140.3455  155.5357 H   0  0  0  0  0  0  0  0  0  0  0  0  # atno 8010 bound_to 7997
  140.6194  143.8237  150.7157 H   0  0  0  0  0  0  0  0  0  0  0  0  # atno 10167 bound_to 10162
  156.2202  130.6974  151.0748 H   0  0  0  0  0  0  0  0  0  0  0  0  # atno 10718 bound_to 10713
  154.1220  135.2832  155.3206 H   0  0  0  0  0  0  0  0  0  0  0  0  # atno 10763 bound_to 10752
  154.6416  135.5400  153.7800 H   0  0  0  0  0  0  0  0  0  0  0  0  # atno 10764 bound_to 10752
  153.0310  135.6488  154.1374 H   0  0  0  0  0  0  0  0  0  0  0  0  # atno 10765 bound_to 10752
  140.1596  134.8619  157.2557 H   0  0  0  0  0  0  0  0  0  0  0  0  # atno 11005 bound_to 11000
  146.1860  139.5076  142.9836 LP  0  0  0  0  0  0  0  0  0  0  0  0  # atno 17320 bound_to 7965
  145.6318  141.0302  143.1859 LP  0  0  0  0  0  0  0  0  0  0  0  0  # atno 17321 bound_to 7965
  140.1824  143.4104  152.1923 LP  0  0  0  0  0  0  0  0  0  0  0  0  # atno 17342 bound_to 10162
  139.5426  144.7270  151.4686 LP  0  0  0  0  0  0  0  0  0  0  0  0  # atno 17343 bound_to 10162
  157.7084  131.0746  150.6588 LP  0  0  0  0  0  0  0  0  0  0  0  0  # atno 17370 bound_to 10713
  156.6651  130.4523  149.5675 LP  0  0  0  0  0  0  0  0  0  0  0  0  # atno 17371 bound_to 10713
  140.2506  134.3688  155.7444 LP  0  0  0  0  0  0  0  0  0  0  0  0  # atno 17394 bound_to 11000
  141.2208  133.7314  156.8929 LP  0  0  0  0  0  0  0  0  0  0  0  0  # atno 17395 bound_to 11000

$$$$
