AV-unprocessed.smi:885|AV-procd|sdf|4046|dock4
  -GOLD-   22720 1533D 1   1.00000     0.00000
 Structure written by MMmdl.
 39 41  0  0  0  0  0  0  0  0  1 V2000
  151.6956  144.7567  160.2387 C   0  0  0  0  0  0  0  0  0  0  0  0
  152.3124  143.7199  161.1948 C   0  0  0  0  0  0  0  0  0  0  0  0
  152.7542  142.3845  160.5707 C   0  0  0  0  0  0  0  0  0  0  0  0
  151.8024  141.8056  159.5100 C   0  0  0  0  0  0  0  0  0  0  0  0
  152.0742  142.3394  158.0867 C   0  0  0  0  0  0  0  0  0  0  0  0
  151.4425  141.4584  157.0510 C   0  0  0  0  0  0  0  0  0  0  0  0
  152.1802  140.7392  156.2129 N   0  0  0  0  0  0  0  0  0  0  0  0
  151.2271  140.0842  155.4202 O   0  0  0  0  0  0  0  0  0  0  0  0
  150.0188  140.4760  155.8917 C   0  0  0  0  0  0  0  0  0  0  0  0
  148.7867  139.9799  155.2052 C   0  0  2  0  0  0  0  0  0  0  0  0
  149.1005  138.9001  154.1516 C   0  0  0  0  0  0  0  0  0  0  0  0
  147.8795  138.5070  153.4502 N   0  0  0  0  0  0  0  0  0  0  0  0
  147.2109  139.6676  152.8640 C   0  0  0  0  0  0  0  0  0  0  0  0
  146.9496  140.7364  153.9408 C   0  0  0  0  0  0  0  0  0  0  0  0
  148.1772  141.0980  154.5641 O   0  0  0  0  0  0  0  0  0  0  0  0
  150.0936  141.3473  156.8958 N   0  0  0  0  0  0  0  0  0  0  0  0
  151.6908  143.8148  157.8556 C   0  0  0  0  0  0  0  0  0  0  0  0
  152.3231  144.8178  158.8364 C   0  0  0  0  0  0  0  0  0  0  0  0
  151.7815  145.7373  160.7083 H   0  0  0  0  0  0  0  0  0  0  0  0
  150.6235  144.5774  160.1480 H   0  0  0  0  0  0  0  0  0  0  0  0
  153.1773  144.1628  161.6899 H   0  0  0  0  0  0  0  0  0  0  0  0
  151.5927  143.5213  161.9897 H   0  0  0  0  0  0  0  0  0  0  0  0
  153.7535  142.4906  160.1470 H   0  0  0  0  0  0  0  0  0  0  0  0
  152.8643  141.6605  161.3787 H   0  0  0  0  0  0  0  0  0  0  0  0
  151.9622  140.7264  159.4959 H   0  0  0  0  0  0  0  0  0  0  0  0
  150.7591  141.9473  159.7949 H   0  0  0  0  0  0  0  0  0  0  0  0
  153.1520  142.2729  157.9283 H   0  0  0  0  0  0  0  0  0  0  0  0
  148.1113  139.5826  155.9653 H   0  0  0  0  0  0  0  0  0  0  0  0
  149.8294  139.2840  153.4364 H   0  0  0  0  0  0  0  0  0  0  0  0
  149.5554  138.0306  154.6264 H   0  0  0  0  0  0  0  0  0  0  0  0
  148.1068  137.8406  152.7193 H   0  0  0  0  0  0  0  0  0  0  0  0
  147.8293  140.0907  152.0717 H   0  0  0  0  0  0  0  0  0  0  0  0
  146.2719  139.3642  152.4010 H   0  0  0  0  0  0  0  0  0  0  0  0
  146.5105  141.6250  153.4872 H   0  0  0  0  0  0  0  0  0  0  0  0
  146.2396  140.3756  154.6868 H   0  0  0  0  0  0  0  0  0  0  0  0
  151.9937  144.0909  156.8446 H   0  0  0  0  0  0  0  0  0  0  0  0
  150.6058  143.9252  157.8774 H   0  0  0  0  0  0  0  0  0  0  0  0
  152.1516  145.8178  158.4365 H   0  0  0  0  0  0  0  0  0  0  0  0
  153.4061  144.6983  158.8828 H   0  0  0  0  0  0  0  0  0  0  0  0
  1 18  1  0  0  0  0
  1  2  1  0  0  0  0
  1 19  1  0  0  0  0
  1 20  1  0  0  0  0
  2  3  1  0  0  0  0
  2 21  1  0  0  0  0
  2 22  1  0  0  0  0
  3  4  1  0  0  0  0
  3 23  1  0  0  0  0
  3 24  1  0  0  0  0
  4  5  1  0  0  0  0
  4 25  1  0  0  0  0
  4 26  1  0  0  0  0
  5  6  1  0  0  0  0
  5 17  1  0  0  0  0
  5 27  1  0  0  0  0
  6 16  1  0  0  0  0
  6  7  2  0  0  0  0
  7  8  1  0  0  0  0
  8  9  1  0  0  0  0
  9 10  1  0  0  0  0
  9 16  2  0  0  0  0
 10 15  1  0  0  0  0
 10 11  1  0  0  0  0
 10 28  1  0  0  0  0
 11 12  1  0  0  0  0
 11 29  1  0  0  0  0
 11 30  1  0  0  0  0
 12 13  1  0  0  0  0
 12 31  1  0  0  0  0
 13 14  1  0  0  0  0
 13 32  1  0  0  0  0
 13 33  1  0  0  0  0
 14 15  1  0  0  0  0
 14 34  1  0  0  0  0
 14 35  1  0  0  0  0
 17 18  1  0  0  0  0
 17 36  1  0  0  0  0
 17 37  1  0  0  0  0
 18 38  1  0  0  0  0
 18 39  1  0  0  0  0
M  END
> <s_m_source_file>
AV-unprocessed.smi

> <i_m_source_file_index>
885

> <i_lp_mmshare_version>
43012

> <i_f3d_flags>
0

> <s_epik_input>
W0NIMl0xW0NIMl1bQ0gyXVtDSDJdW0NIMl1bQ0gyXVtDSF0xYzJub2MobjIpW0NAQEhdM1tDSDJdW05IXVtDSDJdW0NIMl1PMw==

> <s_epik_cmdline>
J2VwaWtfcHl0aG9uJywgJy1waCcsICc3LjAnLCAnLXRuJywgJzgnLCAnLW1hJywgJzIwMCcsICctbWV0YWxfYmluZGluZycsICctaW1hZScsICc8aW5maWxlLm1hZT4nLCAnLW9tYWUnLCAnPG91dGZpbGUubWFlPic=

> <r_lp_tautomer_probability>
1

> <r_epik_Ionization_Penalty>
0.861744

> <r_epik_Ionization_Penalty_Charging>
0

> <r_epik_Ionization_Penalty_Neutral>
0.861744

> <r_epik_State_Penalty>
0.898282

> <r_epik_Charging_Adjusted_Penalty>
0.898282

> <i_epik_Tot_Q>
0

> <i_epik_Tot_abs_Q>
0

> <r_epik_Metal_State_Penalty>
0.898282

> <b_epik_Metal_Only>
0

> <s_lp_Force_Field>
OPLS_2005

> <r_lp_Energy>
20.6019

> <b_lp_Chiralities_Consistent>
1

> <s_lp_Variant>
AV-unprocessed.smi:885-3

> <Gold.Version>
5.8.1

> <Gold.Id.Protein>
6NUR|6NUR_protein|mol2

> <Gold.PLP.Fitness>
41.4293

> <Gold.PLP.PLP>
-34.3946

> <Gold.PLP.part.hbond>
-3.2871

> <Gold.PLP.part.metal>
0.0000

> <Gold.PLP.part.buried>
-0.3675

> <Gold.PLP.part.nonpolar>
-30.3563

> <Gold.PLP.part.repulsive>
0.2073

> <Gold.PLP.ligand.clash>
0.0000

> <Gold.PLP.ligand.torsion>
0.1447

> <Gold.PLP.Chemscore.Hbond>
2.4056

> <Gold.PLP.Chemscore.CHOScore>
0.0000

> <Gold.PLP.Chemscore.Metal>
0.0000

> <Gold.Chemscore.Hbonds>
donor molecule, donor type, donor heavy atom, donor atom, acceptor molecule, acceptor atom, score
      L1  H    12    31       P1  7948  1.00
      P1  H  7989  7998       L1     8  0.80
      P1  H  7997  8010       L1     7  0.44

> <Gold.PLP.Chemscore.Internal.Correction>
0.1074

> <Gold.Rescore>
     Score         DG    S(hbond)    S(metal)    S(lipo)     H(rot)  DE(clash)    DE(int)     intcor
     18.62     -20.47       1.80        0.00     103.26       1.21       1.65       0.20       ----

> <Gold.Chemscore.Fitness>
18.6230

> <Gold.Chemscore.DG>
-20.4729

> <Gold.Chemscore.ZeroCoef>
-5.4800

> <Gold.Chemscore.Hbond>
1.7981

> <Gold.Chemscore.Metal>
0.0000

> <Gold.Chemscore.Lipo>
103.2632

> <Gold.Chemscore.Internal_Hbond>
0.0000

> <Gold.Chemscore.DEClash>
1.6539

> <Gold.Chemscore.DEInternal>
0.1959

> <Gold.Chemscore.Rot>
1.2088

> <Gold.Chemscore.Internal.Correction>
   9.000000E+99

> <Gold.Chemscore.Hbonds>
donor molecule, donor type, donor heavy atom, donor atom, acceptor molecule, acceptor atom, score
      L1  H    12    31       P1  7948  0.96
      P1  H  7989  7998       L1     8  0.23
      P1  H  7997  8010       L1     7  0.42

> <Gold.Chemscore.Hbond.Weighted>
-6.0057

> <Gold.Chemscore.Metal.Weighted>
-0.0000

> <Gold.Chemscore.Lipo.Weighted>
-12.0818

> <Gold.Chemscore.Internal_Hbond.Weighted>
0.0000

> <Gold.Chemscore.DEClash.Weighted>
1.6539

> <Gold.Chemscore.DEInternal.Weighted>
0.1959

> <Gold.Chemscore.Rot.Weighted>
3.0946

> <Gold.Chemscore.Internal.Correction.Weighted>
   9.000000E+99

> <Gold.Protein.RotatedTorsions>
[ 6907 6896 6895 6894 ] final   74.80 input  -60.11 | X-H torsion
[ 7974 7965 7964 7962 ] final  -86.47 input  175.53 | X-H torsion
[ 8008 7997 7996 7995 ] final   80.53 input   59.86 | X-H torsion
[ 10167 10162 10161 10158 ] final  167.51 input  -65.29 | X-H torsion
[ 10718 10713 10712 10709 ] final  118.46 input   66.30 | X-H torsion
[ 10763 10752 10751 10750 ] final -157.94 input  -60.55 | X-H torsion
[ 11005 11000 10999 10996 ] final  134.44 input  -57.11 | X-H torsion

> <Gold.Protein.ActiveResidues>
 VAL166  LYS551  ARG553  GLY616  TRP617  ASP618  TYR619  PRO620  LYS621  CYS622 
 ASP623  PHE694  ASN695  SER759  ASP760  ASP761  ALA762  ILE779  LEU786  VAL792 
 PHE793  MET794  SER795  GLU796  ALA797  LYS798  CYS799  TRP800  GLU811  SER814 

> <Gold.Protein.RotatedAtoms>
  152.4994  134.4217  159.9482 H   0  0  0  0  0  0  0  0  0  0  0  0  # atno 6907 bound_to 6896
  151.4190  133.3698  159.2761 H   0  0  0  0  0  0  0  0  0  0  0  0  # atno 6908 bound_to 6896
  150.9236  134.8675  159.7565 H   0  0  0  0  0  0  0  0  0  0  0  0  # atno 6909 bound_to 6896
  145.4794  140.9557  143.1872 H   0  0  0  0  0  0  0  0  0  0  0  0  # atno 7974 bound_to 7965
  155.8847  140.3442  155.5913 H   0  0  0  0  0  0  0  0  0  0  0  0  # atno 8008 bound_to 7997
  155.7680  140.0841  157.2141 H   0  0  0  0  0  0  0  0  0  0  0  0  # atno 8009 bound_to 7997
  154.4027  140.1523  156.2896 H   0  0  0  0  0  0  0  0  0  0  0  0  # atno 8010 bound_to 7997
  139.4947  144.3913  151.9514 H   0  0  0  0  0  0  0  0  0  0  0  0  # atno 10167 bound_to 10162
  157.6029  131.1048  150.7759 H   0  0  0  0  0  0  0  0  0  0  0  0  # atno 10718 bound_to 10713
  154.7596  135.3114  154.8403 H   0  0  0  0  0  0  0  0  0  0  0  0  # atno 10763 bound_to 10752
  153.9168  135.6800  153.4753 H   0  0  0  0  0  0  0  0  0  0  0  0  # atno 10764 bound_to 10752
  153.1196  135.4829  154.9104 H   0  0  0  0  0  0  0  0  0  0  0  0  # atno 10765 bound_to 10752
  139.9915  134.9513  156.9867 H   0  0  0  0  0  0  0  0  0  0  0  0  # atno 11005 bound_to 11000
  144.7898  139.6352  143.7118 LP  0  0  0  0  0  0  0  0  0  0  0  0  # atno 17320 bound_to 7965
  146.2350  139.5887  142.9530 LP  0  0  0  0  0  0  0  0  0  0  0  0  # atno 17321 bound_to 7965
  140.3351  144.3270  150.5979 LP  0  0  0  0  0  0  0  0  0  0  0  0  # atno 17342 bound_to 10162
  140.5613  143.2192  151.7761 LP  0  0  0  0  0  0  0  0  0  0  0  0  # atno 17343 bound_to 10162
  156.8154  130.4966  149.5350 LP  0  0  0  0  0  0  0  0  0  0  0  0  # atno 17370 bound_to 10713
  156.1106  130.6038  151.0042 LP  0  0  0  0  0  0  0  0  0  0  0  0  # atno 17371 bound_to 10713
  140.4899  134.1204  155.7231 LP  0  0  0  0  0  0  0  0  0  0  0  0  # atno 17394 bound_to 11000
  141.1570  133.8864  157.1951 LP  0  0  0  0  0  0  0  0  0  0  0  0  # atno 17395 bound_to 11000

$$$$
