AV-unprocessed.smi:37|AV-procd|sdf|306|dock7
  -GOLD-   2262016113D 1   1.00000     0.00000
 Structure written by MMmdl.
 44 45  0  0  0  0  0  0  0  0  1 V2000
  147.0976  134.1356  162.1492 C   0  0  0  0  0  0  0  0  0  0  0  0
  146.9778  135.6664  162.1739 C   0  0  0  0  0  0  0  0  0  0  0  0
  146.9574  136.3013  160.7821 C   0  0  0  0  0  0  0  0  0  0  0  0
  146.5961  137.4635  160.5891 O   0  0  0  0  0  0  0  0  0  0  0  0
  147.3650  135.4437  159.8376 O   0  0  0  0  0  0  0  0  0  0  0  0
  147.3613  135.8380  158.4758 C   0  0  0  0  0  0  0  0  0  0  0  0
  148.6898  136.5163  158.0976 C   0  0  1  0  0  0  0  0  0  0  0  0
  149.7556  135.5786  158.2656 O   0  0  0  0  0  0  0  0  0  0  0  0
  150.6998  135.7254  157.2469 C   0  0  2  0  0  0  0  0  0  0  0  0
  151.7693  136.7292  157.6526 N   0  0  0  0  0  0  0  0  0  0  0  0
  151.4653  137.9915  158.1543 C   0  0  0  0  0  0  0  0  0  0  0  0
  152.4098  138.8796  158.5454 C   0  0  0  0  0  0  0  0  0  0  0  0
  152.0352  140.0803  159.0188 F   0  0  0  0  0  0  0  0  0  0  0  0
  153.8270  138.5402  158.4758 C   0  0  0  0  0  0  0  0  0  0  0  0
  154.7548  139.2818  158.7926 O   0  0  0  0  0  0  0  0  0  0  0  0
  154.0863  137.2473  158.0147 N   0  0  0  0  0  0  0  0  0  0  0  0
  153.1223  136.3188  157.6197 C   0  0  0  0  0  0  0  0  0  0  0  0
  153.4676  135.1916  157.2676 O   0  0  0  0  0  0  0  0  0  0  0  0
  149.8993  136.2066  156.0280 C   0  0  1  0  0  0  0  0  0  0  0  0
  149.1117  134.6181  155.1105 Br  0  0  0  0  0  0  0  0  0  0  0  0
  148.8247  137.0770  156.6660 C   0  0  1  0  0  0  0  0  0  0  0  0
  147.6352  137.0969  155.8840 O   0  0  0  0  0  0  0  0  0  0  0  0
  147.6289  137.6690  154.6661 C   0  0  0  0  0  0  0  0  0  0  0  0
  148.5415  138.3358  154.1784 O   0  0  0  0  0  0  0  0  0  0  0  0
  146.3359  137.4070  153.8966 C   0  0  0  0  0  0  0  0  0  0  0  0
  146.3375  138.0612  152.5082 C   0  0  0  0  0  0  0  0  0  0  0  0
  155.0526  136.9568  157.9752 H   0  0  0  0  0  0  0  0  0  0  0  0
  147.1130  133.7363  163.1633 H   0  0  0  0  0  0  0  0  0  0  0  0
  148.0162  133.8161  161.6552 H   0  0  0  0  0  0  0  0  0  0  0  0
  146.2554  133.6787  161.6284 H   0  0  0  0  0  0  0  0  0  0  0  0
  146.0672  135.9558  162.6988 H   0  0  0  0  0  0  0  0  0  0  0  0
  147.8116  136.0897  162.7345 H   0  0  0  0  0  0  0  0  0  0  0  0
  147.1987  134.9680  157.8383 H   0  0  0  0  0  0  0  0  0  0  0  0
  146.5307  136.5229  158.3011 H   0  0  0  0  0  0  0  0  0  0  0  0
  148.8414  137.3417  158.7929 H   0  0  0  0  0  0  0  0  0  0  0  0
  151.2454  134.7940  157.0853 H   0  0  0  0  0  0  0  0  0  0  0  0
  150.4389  138.3051  158.2628 H   0  0  0  0  0  0  0  0  0  0  0  0
  150.5000  136.7444  155.2962 H   0  0  0  0  0  0  0  0  0  0  0  0
  149.2348  138.0860  156.7389 H   0  0  0  0  0  0  0  0  0  0  0  0
  146.2031  136.3296  153.7945 H   0  0  0  0  0  0  0  0  0  0  0  0
  145.4941  137.7752  154.4834 H   0  0  0  0  0  0  0  0  0  0  0  0
  145.4417  137.7844  151.9522 H   0  0  0  0  0  0  0  0  0  0  0  0
  147.2009  137.7479  151.9204 H   0  0  0  0  0  0  0  0  0  0  0  0
  146.3545  139.1490  152.5813 H   0  0  0  0  0  0  0  0  0  0  0  0
  1  2  1  0  0  0  0
  1 28  1  0  0  0  0
  1 29  1  0  0  0  0
  1 30  1  0  0  0  0
  2  3  1  0  0  0  0
  2 31  1  0  0  0  0
  2 32  1  0  0  0  0
  3  4  2  0  0  0  0
  3  5  1  0  0  0  0
  5  6  1  0  0  0  0
  6  7  1  0  0  0  0
  6 33  1  0  0  0  0
  6 34  1  0  0  0  0
  7 21  1  0  0  0  0
  7  8  1  0  0  0  0
  7 35  1  0  0  0  0
  8  9  1  0  0  0  0
  9 10  1  0  0  0  0
  9 19  1  0  0  0  0
  9 36  1  0  0  0  0
 10 17  1  0  0  0  0
 10 11  1  0  0  0  0
 11 12  2  0  0  0  0
 11 37  1  0  0  0  0
 12 13  1  0  0  0  0
 12 14  1  0  0  0  0
 14 15  2  0  0  0  0
 14 16  1  0  0  0  0
 16 27  1  0  0  0  0
 16 17  1  0  0  0  0
 17 18  2  0  0  0  0
 19 20  1  0  0  0  0
 19 21  1  0  0  0  0
 19 38  1  0  0  0  0
 21 22  1  0  0  0  0
 21 39  1  0  0  0  0
 22 23  1  0  0  0  0
 23 24  2  0  0  0  0
 23 25  1  0  0  0  0
 25 26  1  0  0  0  0
 25 40  1  0  0  0  0
 25 41  1  0  0  0  0
 26 42  1  0  0  0  0
 26 43  1  0  0  0  0
 26 44  1  0  0  0  0
M  END
> <s_m_source_file>
AV-unprocessed.smi

> <i_m_source_file_index>
37

> <i_lp_mmshare_version>
43012

> <i_f3d_flags>
0

> <s_epik_input>
W0NIM11bQ0gyXUMoPU8pT1tDSDJdW0NAQEhdMU9bQ0BASF0objJbY0hdYyhGKWMoPU8pW25IXWMyPU8pW0NAQEhdKEJyKVtDQEhdMU9DKD1PKVtDSDJdW0NIM10=

> <s_epik_cmdline>
J2VwaWtfcHl0aG9uJywgJy1waCcsICc3LjAnLCAnLXRuJywgJzgnLCAnLW1hJywgJzIwMCcsICctbWV0YWxfYmluZGluZycsICctaW1hZScsICc8aW5maWxlLm1hZT4nLCAnLW9tYWUnLCAnPG91dGZpbGUubWFlPic=

> <r_lp_tautomer_probability>
0.999537

> <r_epik_Ionization_Penalty>
0.104106

> <r_epik_Ionization_Penalty_Charging>
0.104106

> <r_epik_Ionization_Penalty_Neutral>
3.94675e-16

> <r_epik_State_Penalty>
0.0940182

> <r_epik_Charging_Adjusted_Penalty>
0.198124

> <i_epik_Tot_Q>
0

> <i_epik_Tot_abs_Q>
0

> <r_epik_Metal_State_Penalty>
3.05314

> <b_epik_Metal_Only>
0

> <s_epik_Chemistry_Notes>
This compound has an ester and may undergo hydrolysis at high or low pH. This compound contains an acetal/aminal-like group ( X-CH(R)-Y where X, Y are N, S, or O) that may be acid/base labile, releasing an aldehyde.

> <s_lp_Force_Field>
OPLS_2005

> <r_lp_Energy>
23.6922

> <b_lp_Chiralities_Consistent>
1

> <s_lp_Variant>
AV-unprocessed.smi:37-4

> <Gold.Version>
5.8.1

> <Gold.Id.Protein>
6NUR|6NUR_protein|mol2

> <Gold.PLP.Fitness>
37.8177

> <Gold.PLP.PLP>
-26.7488

> <Gold.PLP.part.hbond>
-4.0000

> <Gold.PLP.part.metal>
0.0000

> <Gold.PLP.part.buried>
-3.9039

> <Gold.PLP.part.nonpolar>
-19.7900

> <Gold.PLP.part.repulsive>
0.3470

> <Gold.PLP.ligand.clash>
0.0000

> <Gold.PLP.ligand.torsion>
0.5355

> <Gold.PLP.Chemscore.Hbond>
4.0000

> <Gold.PLP.Chemscore.CHOScore>
0.0000

> <Gold.PLP.Chemscore.Metal>
0.0000

> <Gold.Chemscore.Hbonds>
donor molecule, donor type, donor heavy atom, donor atom, acceptor molecule, acceptor atom, score
      P1  H  6896  6908       L1     8  1.00
      P1  H  6934  6947       L1     4  1.00
      P1  H  7997  8010       L1    15  1.00
      P1  H 10752 10763       L1    18  1.00

> <Gold.PLP.Chemscore.Internal.Correction>
0.1399

> <Gold.Rescore>
     Score         DG    S(hbond)    S(metal)    S(lipo)     H(rot)  DE(clash)    DE(int)     intcor
     11.90     -12.68       3.01        0.00      48.58       3.33       0.07       0.71       ----

> <Gold.Chemscore.Fitness>
11.9036

> <Gold.Chemscore.DG>
-12.6807

> <Gold.Chemscore.ZeroCoef>
-5.4800

> <Gold.Chemscore.Hbond>
3.0066

> <Gold.Chemscore.Metal>
0.0000

> <Gold.Chemscore.Lipo>
48.5842

> <Gold.Chemscore.Internal_Hbond>
0.0000

> <Gold.Chemscore.DEClash>
0.0650

> <Gold.Chemscore.DEInternal>
0.7120

> <Gold.Chemscore.Rot>
3.3303

> <Gold.Chemscore.Internal.Correction>
   9.000000E+99

> <Gold.Chemscore.Hbonds>
donor molecule, donor type, donor heavy atom, donor atom, acceptor molecule, acceptor atom, score
      P1  H  6896  6908       L1     8  0.34
      P1  H  6934  6947       L1     4  1.00
      P1  H  7997  8010       L1    15  0.35
      P1  H 10752 10763       L1    18  0.50

> <Gold.Chemscore.Hbond.Weighted>
-10.0419

> <Gold.Chemscore.Metal.Weighted>
-0.0000

> <Gold.Chemscore.Lipo.Weighted>
-5.6844

> <Gold.Chemscore.Internal_Hbond.Weighted>
0.0000

> <Gold.Chemscore.DEClash.Weighted>
0.0650

> <Gold.Chemscore.DEInternal.Weighted>
0.7120

> <Gold.Chemscore.Rot.Weighted>
8.5256

> <Gold.Chemscore.Internal.Correction.Weighted>
   9.000000E+99

> <Gold.Protein.RotatedTorsions>
[ 6907 6896 6895 6894 ] final  164.64 input  -60.11 | X-H torsion
[ 7974 7965 7964 7962 ] final  104.95 input  175.53 | X-H torsion
[ 8008 7997 7996 7995 ] final   -2.10 input   59.86 | X-H torsion
[ 10167 10162 10161 10158 ] final -114.84 input  -65.29 | X-H torsion
[ 10718 10713 10712 10709 ] final   64.92 input   66.30 | X-H torsion
[ 10763 10752 10751 10750 ] final  130.65 input  -60.55 | X-H torsion
[ 11005 11000 10999 10996 ] final  -27.49 input  -57.11 | X-H torsion

> <Gold.Protein.ActiveResidues>
 VAL166  LYS551  ARG553  GLY616  TRP617  ASP618  TYR619  PRO620  LYS621  CYS622 
 ASP623  PHE694  ASN695  SER759  ASP760  ASP761  ALA762  ILE779  LEU786  VAL792 
 PHE793  MET794  SER795  GLU796  ALA797  LYS798  CYS799  TRP800  GLU811  SER814 

> <Gold.Protein.RotatedAtoms>
  151.9067  133.3551  159.3849 H   0  0  0  0  0  0  0  0  0  0  0  0  # atno 6907 bound_to 6896
  150.7067  134.4773  159.5463 H   0  0  0  0  0  0  0  0  0  0  0  0  # atno 6908 bound_to 6896
  152.2371  134.8265  160.0516 H   0  0  0  0  0  0  0  0  0  0  0  0  # atno 6909 bound_to 6896
  145.3260  139.2499  143.3686 H   0  0  0  0  0  0  0  0  0  0  0  0  # atno 7974 bound_to 7965
  154.6394  140.2543  155.7340 H   0  0  0  0  0  0  0  0  0  0  0  0  # atno 8008 bound_to 7997
  156.2521  140.2890  156.0701 H   0  0  0  0  0  0  0  0  0  0  0  0  # atno 8009 bound_to 7997
  155.1620  140.0384  157.2835 H   0  0  0  0  0  0  0  0  0  0  0  0  # atno 8010 bound_to 7997
  140.0966  143.4651  152.1838 H   0  0  0  0  0  0  0  0  0  0  0  0  # atno 10167 bound_to 10162
  157.6071  130.9186  149.9908 H   0  0  0  0  0  0  0  0  0  0  0  0  # atno 10718 bound_to 10713
  153.7615  135.3195  155.3338 H   0  0  0  0  0  0  0  0  0  0  0  0  # atno 10763 bound_to 10752
  154.8228  135.4591  154.0833 H   0  0  0  0  0  0  0  0  0  0  0  0  # atno 10764 bound_to 10752
  153.2065  135.6930  153.8249 H   0  0  0  0  0  0  0  0  0  0  0  0  # atno 10765 bound_to 10752
  140.9124  133.7452  156.0689 H   0  0  0  0  0  0  0  0  0  0  0  0  # atno 11005 bound_to 11000
  146.3064  140.3828  142.8686 LP  0  0  0  0  0  0  0  0  0  0  0  0  # atno 17320 bound_to 7965
  144.8902  140.7513  143.5932 LP  0  0  0  0  0  0  0  0  0  0  0  0  # atno 17321 bound_to 7965
  139.5695  144.7454  151.3931 LP  0  0  0  0  0  0  0  0  0  0  0  0  # atno 17342 bound_to 10162
  140.7000  143.7654  150.7388 LP  0  0  0  0  0  0  0  0  0  0  0  0  # atno 17343 bound_to 10162
  156.1161  130.3648  149.9965 LP  0  0  0  0  0  0  0  0  0  0  0  0  # atno 17370 bound_to 10713
  156.8054  130.9306  151.3645 LP  0  0  0  0  0  0  0  0  0  0  0  0  # atno 17371 bound_to 10713
  140.8093  134.3418  157.5416 LP  0  0  0  0  0  0  0  0  0  0  0  0  # atno 17394 bound_to 11000
  139.8760  134.9244  156.3349 LP  0  0  0  0  0  0  0  0  0  0  0  0  # atno 17395 bound_to 11000

$$$$
