AV-unprocessed.smi:2003|AV-procd|sdf|8118|dock4
  -GOLD-   2272010353D 1   1.00000     0.00000
 Structure written by MMmdl.
 43 44  0  0  0  0  0  0  0  0  1 V2000
  143.7501  132.0575  150.1050 C   0  0  0  0  0  0  0  0  0  0  0  0
  144.8028  132.8949  150.7703 C   0  0  0  0  0  0  0  0  0  0  0  0
  144.7596  134.2893  151.0615 C   0  0  0  0  0  0  0  0  0  0  0  0
  145.9677  134.5095  151.6654 C   0  0  0  0  0  0  0  0  0  0  0  0
  146.4735  135.6704  152.1606 N   0  0  0  0  0  0  0  0  0  0  0  0
  145.8918  136.5572  152.9866 C   0  0  0  0  0  0  0  0  0  0  0  0
  144.7518  136.4683  153.4432 O   0  0  0  0  0  0  0  0  0  0  0  0
  146.7209  137.5730  153.2671 N   0  0  0  0  0  0  0  0  0  0  0  0
  146.4065  138.6880  154.1566 C   0  0  0  0  0  0  0  0  0  0  0  0
  147.3392  139.9184  153.9566 C   0  0  1  0  0  0  0  0  0  0  0  0
  146.5713  141.1981  154.3756 C   0  0  0  0  0  0  0  0  0  0  0  0
  148.6456  139.7838  154.6421 N   0  0  0  0  0  0  0  0  0  0  0  0
  149.2848  141.0820  154.8893 C   0  0  0  0  0  0  0  0  0  0  0  0
  150.6580  140.9547  155.5712 C   0  0  0  0  0  0  0  0  0  0  0  0
  151.5097  140.1357  154.7824 O   0  0  0  0  0  0  0  0  0  0  0  0
  150.9655  138.8384  154.5850 C   0  0  0  0  0  0  0  0  0  0  0  0
  149.5947  138.9496  153.8953 C   0  0  0  0  0  0  0  0  0  0  0  0
  146.6625  133.3198  151.7157 N   0  0  0  0  0  0  0  0  0  0  0  0
  147.9760  133.0251  152.2558 C   0  0  0  0  0  0  0  0  0  0  0  0
  145.9365  132.3249  151.1622 N   0  0  0  0  0  0  0  0  0  0  0  0
  142.9765  132.6816  149.6573 H   0  0  0  0  0  0  0  0  0  0  0  0
  143.2671  131.3938  150.8224 H   0  0  0  0  0  0  0  0  0  0  0  0
  144.1764  131.4409  149.3133 H   0  0  0  0  0  0  0  0  0  0  0  0
  143.9647  134.9898  150.8542 H   0  0  0  0  0  0  0  0  0  0  0  0
  147.4179  135.8830  151.8749 H   0  0  0  0  0  0  0  0  0  0  0  0
  147.6394  137.5709  152.8482 H   0  0  0  0  0  0  0  0  0  0  0  0
  145.3690  138.9770  153.9854 H   0  0  0  0  0  0  0  0  0  0  0  0
  146.4523  138.2971  155.1721 H   0  0  0  0  0  0  0  0  0  0  0  0
  147.5347  140.0031  152.8867 H   0  0  0  0  0  0  0  0  0  0  0  0
  145.5881  141.2655  153.9111 H   0  0  0  0  0  0  0  0  0  0  0  0
  147.0886  142.1074  154.0734 H   0  0  0  0  0  0  0  0  0  0  0  0
  146.4260  141.2346  155.4556 H   0  0  0  0  0  0  0  0  0  0  0  0
  149.3976  141.6238  153.9490 H   0  0  0  0  0  0  0  0  0  0  0  0
  148.6646  141.6982  155.5376 H   0  0  0  0  0  0  0  0  0  0  0  0
  151.1159  141.9373  155.6850 H   0  0  0  0  0  0  0  0  0  0  0  0
  150.5557  140.5310  156.5714 H   0  0  0  0  0  0  0  0  0  0  0  0
  151.6518  138.2547  153.9715 H   0  0  0  0  0  0  0  0  0  0  0  0
  150.8756  138.3234  155.5428 H   0  0  0  0  0  0  0  0  0  0  0  0
  149.2162  137.9355  153.7869 H   0  0  0  0  0  0  0  0  0  0  0  0
  149.7269  139.3494  152.8886 H   0  0  0  0  0  0  0  0  0  0  0  0
  148.4862  133.9415  152.5515 H   0  0  0  0  0  0  0  0  0  0  0  0
  148.5794  132.5170  151.5029 H   0  0  0  0  0  0  0  0  0  0  0  0
  147.8759  132.3792  153.1286 H   0  0  0  0  0  0  0  0  0  0  0  0
  1  2  1  0  0  0  0
  1 21  1  0  0  0  0
  1 22  1  0  0  0  0
  1 23  1  0  0  0  0
  2 20  2  0  0  0  0
  2  3  1  0  0  0  0
  3  4  2  0  0  0  0
  3 24  1  0  0  0  0
  4  5  1  0  0  0  0
  4 18  1  0  0  0  0
  5  6  1  0  0  0  0
  5 25  1  0  0  0  0
  6  7  2  0  0  0  0
  6  8  1  0  0  0  0
  8  9  1  0  0  0  0
  8 26  1  0  0  0  0
  9 10  1  0  0  0  0
  9 27  1  0  0  0  0
  9 28  1  0  0  0  0
 10 11  1  0  0  0  0
 10 12  1  0  0  0  0
 10 29  1  0  0  0  0
 11 30  1  0  0  0  0
 11 31  1  0  0  0  0
 11 32  1  0  0  0  0
 12 17  1  0  0  0  0
 12 13  1  0  0  0  0
 13 14  1  0  0  0  0
 13 33  1  0  0  0  0
 13 34  1  0  0  0  0
 14 15  1  0  0  0  0
 14 35  1  0  0  0  0
 14 36  1  0  0  0  0
 15 16  1  0  0  0  0
 16 17  1  0  0  0  0
 16 37  1  0  0  0  0
 16 38  1  0  0  0  0
 17 39  1  0  0  0  0
 17 40  1  0  0  0  0
 18 19  1  0  0  0  0
 18 20  1  0  0  0  0
 19 41  1  0  0  0  0
 19 42  1  0  0  0  0
 19 43  1  0  0  0  0
M  END
> <s_m_source_file>
AV-unprocessed.smi

> <i_m_source_file_index>
2003

> <i_lp_mmshare_version>
43012

> <i_f3d_flags>
0

> <s_epik_input>
W0NIM11jMVtjSF1jKG4objEpW0NIM10pW05IXUMoPU8pW05IXVtDSDJdW0NASF0oW0NIM10pTjJbQ0gyXVtDSDJdT1tDSDJdW0NIMl0y

> <s_epik_cmdline>
J2VwaWtfcHl0aG9uJywgJy1waCcsICc3LjAnLCAnLXRuJywgJzgnLCAnLW1hJywgJzIwMCcsICctbWV0YWxfYmluZGluZycsICctaW1hZScsICc8aW5maWxlLm1hZT4nLCAnLW9tYWUnLCAnPG91dGZpbGUubWFlPic=

> <r_lp_tautomer_probability>
1

> <r_epik_Ionization_Penalty>
0.233974

> <r_epik_Ionization_Penalty_Charging>
0

> <r_epik_Ionization_Penalty_Neutral>
0.233974

> <r_epik_State_Penalty>
0.224627

> <r_epik_Charging_Adjusted_Penalty>
0.224627

> <i_epik_Tot_Q>
0

> <i_epik_Tot_abs_Q>
0

> <r_epik_Metal_State_Penalty>
0.224624

> <b_epik_Metal_Only>
0

> <s_lp_Force_Field>
OPLS_2005

> <r_lp_Energy>
29.1269

> <b_lp_Chiralities_Consistent>
1

> <s_lp_Variant>
AV-unprocessed.smi:2003-2

> <Gold.Version>
5.8.1

> <Gold.Id.Protein>
6NUR|6NUR_protein|mol2

> <Gold.PLP.Fitness>
42.3833

> <Gold.PLP.PLP>
-37.3948

> <Gold.PLP.part.hbond>
-2.9061

> <Gold.PLP.part.metal>
0.0000

> <Gold.PLP.part.buried>
-2.8583

> <Gold.PLP.part.nonpolar>
-32.6511

> <Gold.PLP.part.repulsive>
0.5528

> <Gold.PLP.ligand.clash>
0.0000

> <Gold.PLP.ligand.torsion>
1.2969

> <Gold.PLP.Chemscore.Hbond>
2.5158

> <Gold.PLP.Chemscore.CHOScore>
0.0000

> <Gold.PLP.Chemscore.Metal>
0.0000

> <Gold.Chemscore.Hbonds>
donor molecule, donor type, donor heavy atom, donor atom, acceptor molecule, acceptor atom, score
      L1  H     5    25       P1  7948  1.00
      L1  H     8    26       P1  7948  0.64
      P1  H  7989  7998       L1    15  0.88

> <Gold.PLP.Chemscore.Internal.Correction>
0.0349

> <Gold.Rescore>
     Score         DG    S(hbond)    S(metal)    S(lipo)     H(rot)  DE(clash)    DE(int)     intcor
     15.89     -16.98       1.90        0.00      76.70       1.49       0.11       0.99       ----

> <Gold.Chemscore.Fitness>
15.8853

> <Gold.Chemscore.DG>
-16.9793

> <Gold.Chemscore.ZeroCoef>
-5.4800

> <Gold.Chemscore.Hbond>
1.9010

> <Gold.Chemscore.Metal>
0.0000

> <Gold.Chemscore.Lipo>
76.7012

> <Gold.Chemscore.Internal_Hbond>
0.0000

> <Gold.Chemscore.DEClash>
0.1075

> <Gold.Chemscore.DEInternal>
0.9865

> <Gold.Chemscore.Rot>
1.4938

> <Gold.Chemscore.Internal.Correction>
   9.000000E+99

> <Gold.Chemscore.Hbonds>
donor molecule, donor type, donor heavy atom, donor atom, acceptor molecule, acceptor atom, score
      L1  H     5    25       P1  7948  0.94
      L1  H     8    26       P1  7948  0.63
      P1  H  7989  7998       L1    15  0.35

> <Gold.Chemscore.Hbond.Weighted>
-6.3494

> <Gold.Chemscore.Metal.Weighted>
-0.0000

> <Gold.Chemscore.Lipo.Weighted>
-8.9740

> <Gold.Chemscore.Internal_Hbond.Weighted>
0.0000

> <Gold.Chemscore.DEClash.Weighted>
0.1075

> <Gold.Chemscore.DEInternal.Weighted>
0.9865

> <Gold.Chemscore.Rot.Weighted>
3.8242

> <Gold.Chemscore.Internal.Correction.Weighted>
   9.000000E+99

> <Gold.Protein.RotatedTorsions>
[ 6907 6896 6895 6894 ] final -145.70 input  -60.11 | X-H torsion
[ 7974 7965 7964 7962 ] final -175.41 input  175.53 | X-H torsion
[ 8008 7997 7996 7995 ] final  -17.53 input   59.86 | X-H torsion
[ 10167 10162 10161 10158 ] final  152.61 input  -65.29 | X-H torsion
[ 10718 10713 10712 10709 ] final   20.09 input   66.30 | X-H torsion
[ 10763 10752 10751 10750 ] final  -36.29 input  -60.55 | X-H torsion
[ 11005 11000 10999 10996 ] final   63.40 input  -57.11 | X-H torsion

> <Gold.Protein.ActiveResidues>
 VAL166  LYS551  ARG553  GLY616  TRP617  ASP618  TYR619  PRO620  LYS621  CYS622 
 ASP623  PHE694  ASN695  SER759  ASP760  ASP761  ALA762  ILE779  LEU786  VAL792 
 PHE793  MET794  SER795  GLU796  ALA797  LYS798  CYS799  TRP800  GLU811  SER814 

> <Gold.Protein.RotatedAtoms>
  151.1314  133.5034  159.2598 H   0  0  0  0  0  0  0  0  0  0  0  0  # atno 6907 bound_to 6896
  151.1753  135.0336  159.8779 H   0  0  0  0  0  0  0  0  0  0  0  0  # atno 6908 bound_to 6896
  152.5460  134.1173  159.8437 H   0  0  0  0  0  0  0  0  0  0  0  0  # atno 6909 bound_to 6896
  144.7128  140.1326  143.6397 H   0  0  0  0  0  0  0  0  0  0  0  0  # atno 7974 bound_to 7965
  154.4972  140.2140  155.9422 H   0  0  0  0  0  0  0  0  0  0  0  0  # atno 8008 bound_to 7997
  156.1386  140.3184  155.8427 H   0  0  0  0  0  0  0  0  0  0  0  0  # atno 8009 bound_to 7997
  155.4163  140.0494  157.3019 H   0  0  0  0  0  0  0  0  0  0  0  0  # atno 8010 bound_to 7997
  139.4832  144.5343  151.7670 H   0  0  0  0  0  0  0  0  0  0  0  0  # atno 10167 bound_to 10162
  157.1197  130.6544  149.5920 H   0  0  0  0  0  0  0  0  0  0  0  0  # atno 10718 bound_to 10713
  153.8772  135.6825  153.4769 H   0  0  0  0  0  0  0  0  0  0  0  0  # atno 10763 bound_to 10752
  153.1254  135.4721  154.9261 H   0  0  0  0  0  0  0  0  0  0  0  0  # atno 10764 bound_to 10752
  154.7686  135.3231  154.8187 H   0  0  0  0  0  0  0  0  0  0  0  0  # atno 10765 bound_to 10752
  140.0027  134.6417  155.9905 H   0  0  0  0  0  0  0  0  0  0  0  0  # atno 11005 bound_to 11000
  145.9273  139.2584  143.1346 LP  0  0  0  0  0  0  0  0  0  0  0  0  # atno 17320 bound_to 7965
  145.9559  140.8873  143.0235 LP  0  0  0  0  0  0  0  0  0  0  0  0  # atno 17321 bound_to 7965
  140.4874  144.1361  150.5943 LP  0  0  0  0  0  0  0  0  0  0  0  0  # atno 17342 bound_to 10162
  140.4210  143.2612  151.9716 LP  0  0  0  0  0  0  0  0  0  0  0  0  # atno 17343 bound_to 10162
  155.9831  130.4849  150.6917 LP  0  0  0  0  0  0  0  0  0  0  0  0  # atno 17370 bound_to 10713
  157.4487  131.0870  151.0868 LP  0  0  0  0  0  0  0  0  0  0  0  0  # atno 17371 bound_to 10713
  141.1654  133.6537  156.4461 LP  0  0  0  0  0  0  0  0  0  0  0  0  # atno 17394 bound_to 11000
  140.4698  134.6764  157.5124 LP  0  0  0  0  0  0  0  0  0  0  0  0  # atno 17395 bound_to 11000

$$$$
