AV-unprocessed.smi:2360|AV-procd|sdf|9409|dock6
  -GOLD-   2272013 43D 1   1.00000     0.00000
 Structure written by MMmdl.
 34 35  0  0  0  0  0  0  0  0  1 V2000
  148.6228  141.1178  153.7885 C   0  0  0  0  0  0  0  0  0  0  0  0
  149.3565  140.8334  155.0873 C   0  0  0  0  0  0  0  0  0  0  0  0
  149.0407  141.6771  156.1562 N   0  0  0  0  0  0  0  0  0  0  0  0
  149.6199  141.5128  157.3004 C   0  0  0  0  0  0  0  0  0  0  0  0
  150.5710  140.5006  157.5071 N   0  0  0  0  0  0  0  0  0  0  0  0
  151.1578  140.4215  158.8557 C   0  0  0  0  0  0  0  0  0  0  0  0
  152.6656  140.7577  158.8606 C   0  0  2  0  0  0  0  0  0  0  0  0
  153.3838  139.6260  158.4096 O   0  0  0  0  0  0  0  0  0  0  0  0
  153.1223  141.1862  160.2470 C   0  0  0  0  0  0  0  0  0  0  0  0
  154.1095  140.4384  160.9242 C   0  0  0  0  0  0  0  0  0  0  0  0
  154.5458  140.8326  162.2040 C   0  0  0  0  0  0  0  0  0  0  0  0
  153.9996  141.9785  162.8136 C   0  0  0  0  0  0  0  0  0  0  0  0
  154.4205  142.3560  164.0439 F   0  0  0  0  0  0  0  0  0  0  0  0
  153.0174  142.7316  162.1411 C   0  0  0  0  0  0  0  0  0  0  0  0
  152.4924  143.8358  162.7235 F   0  0  0  0  0  0  0  0  0  0  0  0
  152.5811  142.3376  160.8611 C   0  0  0  0  0  0  0  0  0  0  0  0
  150.9294  139.6275  156.5214 C   0  0  0  0  0  0  0  0  0  0  0  0
  151.7541  138.7327  156.7183 O   0  0  0  0  0  0  0  0  0  0  0  0
  150.2651  139.8294  155.2236 C   0  0  0  0  0  0  0  0  0  0  0  0
  150.6492  138.8801  154.0953 C   0  0  0  0  0  0  0  0  0  0  0  0
  149.3313  141.3534  152.9940 H   0  0  0  0  0  0  0  0  0  0  0  0
  147.9449  141.9660  153.8922 H   0  0  0  0  0  0  0  0  0  0  0  0
  148.0324  140.2527  153.4857 H   0  0  0  0  0  0  0  0  0  0  0  0
  149.4055  142.1408  158.1670 H   0  0  0  0  0  0  0  0  0  0  0  0
  150.6302  141.1357  159.4913 H   0  0  0  0  0  0  0  0  0  0  0  0
  150.9786  139.4555  159.3328 H   0  0  0  0  0  0  0  0  0  0  0  0
  152.8728  141.5743  158.1677 H   0  0  0  0  0  0  0  0  0  0  0  0
  152.7786  139.0381  157.9835 H   0  0  0  0  0  0  0  0  0  0  0  0
  154.5381  139.5602  160.4636 H   0  0  0  0  0  0  0  0  0  0  0  0
  155.3011  140.2561  162.7174 H   0  0  0  0  0  0  0  0  0  0  0  0
  151.8310  142.9239  160.3509 H   0  0  0  0  0  0  0  0  0  0  0  0
  150.4239  137.8511  154.3767 H   0  0  0  0  0  0  0  0  0  0  0  0
  151.7185  138.9499  153.8935 H   0  0  0  0  0  0  0  0  0  0  0  0
  150.1263  139.0866  153.1629 H   0  0  0  0  0  0  0  0  0  0  0  0
  1  2  1  0  0  0  0
  1 21  1  0  0  0  0
  1 22  1  0  0  0  0
  1 23  1  0  0  0  0
  2 19  2  0  0  0  0
  2  3  1  0  0  0  0
  3  4  2  0  0  0  0
  4  5  1  0  0  0  0
  4 24  1  0  0  0  0
  5  6  1  0  0  0  0
  5 17  1  0  0  0  0
  6  7  1  0  0  0  0
  6 25  1  0  0  0  0
  6 26  1  0  0  0  0
  7  8  1  0  0  0  0
  7  9  1  0  0  0  0
  7 27  1  0  0  0  0
  8 28  1  0  0  0  0
  9 16  1  0  0  0  0
  9 10  2  0  0  0  0
 10 11  1  0  0  0  0
 10 29  1  0  0  0  0
 11 12  2  0  0  0  0
 11 30  1  0  0  0  0
 12 13  1  0  0  0  0
 12 14  1  0  0  0  0
 14 15  1  0  0  0  0
 14 16  2  0  0  0  0
 16 31  1  0  0  0  0
 17 18  2  0  0  0  0
 17 19  1  0  0  0  0
 19 20  1  0  0  0  0
 20 32  1  0  0  0  0
 20 33  1  0  0  0  0
 20 34  1  0  0  0  0
M  END
> <s_m_source_file>
AV-unprocessed.smi

> <i_m_source_file_index>
2360

> <i_lp_mmshare_version>
43012

> <i_f3d_flags>
0

> <s_epik_input>
W0NIM11jMW5bY0hdbihjKD1PKWMxW0NIM10pW0NIMl1bQ0BIXShbT0hdKWMyW2NIXVtjSF1jKEYpYyhGKVtjSF0y

> <s_epik_cmdline>
J2VwaWtfcHl0aG9uJywgJy1waCcsICc3LjAnLCAnLXRuJywgJzgnLCAnLW1hJywgJzIwMCcsICctbWV0YWxfYmluZGluZycsICctaW1hZScsICc8aW5maWxlLm1hZT4nLCAnLW9tYWUnLCAnPG91dGZpbGUubWFlPic=

> <r_lp_tautomer_probability>
1

> <r_epik_Ionization_Penalty>
5.07449e-05

> <r_epik_Ionization_Penalty_Charging>
7.56727e-08

> <r_epik_Ionization_Penalty_Neutral>
5.06692e-05

> <r_epik_State_Penalty>
-0

> <r_epik_Charging_Adjusted_Penalty>
7.56727e-08

> <i_epik_Tot_Q>
0

> <i_epik_Tot_abs_Q>
0

> <r_epik_Metal_State_Penalty>
-0

> <b_epik_Metal_Only>
0

> <s_lp_Force_Field>
OPLS_2005

> <r_lp_Energy>
18.6732

> <b_lp_Chiralities_Consistent>
1

> <s_lp_Variant>
AV-unprocessed.smi:2360-1

> <Gold.Version>
5.8.1

> <Gold.Id.Protein>
6NUR|6NUR_protein|mol2

> <Gold.PLP.Fitness>
43.6427

> <Gold.PLP.PLP>
-41.4774

> <Gold.PLP.part.hbond>
-1.0000

> <Gold.PLP.part.metal>
0.0000

> <Gold.PLP.part.buried>
3.8749

> <Gold.PLP.part.nonpolar>
-43.4371

> <Gold.PLP.part.repulsive>
0.3995

> <Gold.PLP.ligand.clash>
0.3508

> <Gold.PLP.ligand.torsion>
0.2446

> <Gold.PLP.Chemscore.Hbond>
1.0000

> <Gold.PLP.Chemscore.CHOScore>
0.0000

> <Gold.PLP.Chemscore.Metal>
0.0000

> <Gold.Chemscore.Hbonds>
donor molecule, donor type, donor heavy atom, donor atom, acceptor molecule, acceptor atom, score
      P1  H  7997  8008       L1     8  1.00

> <Gold.PLP.Chemscore.Internal.Correction>
0.0053

> <Gold.Rescore>
     Score         DG    S(hbond)    S(metal)    S(lipo)     H(rot)  DE(clash)    DE(int)     intcor
     11.83     -14.63       0.78        0.00     102.09       2.11       0.83       1.96       ----

> <Gold.Chemscore.Fitness>
11.8331

> <Gold.Chemscore.DG>
-14.6267

> <Gold.Chemscore.ZeroCoef>
-5.4800

> <Gold.Chemscore.Hbond>
0.7793

> <Gold.Chemscore.Metal>
0.0000

> <Gold.Chemscore.Lipo>
102.0910

> <Gold.Chemscore.Internal_Hbond>
0.0000

> <Gold.Chemscore.DEClash>
0.8306

> <Gold.Chemscore.DEInternal>
1.9629

> <Gold.Chemscore.Rot>
2.1097

> <Gold.Chemscore.Internal.Correction>
   9.000000E+99

> <Gold.Chemscore.Hbonds>
donor molecule, donor type, donor heavy atom, donor atom, acceptor molecule, acceptor atom, score
      P1  H  7997  8008       L1     8  0.60

> <Gold.Chemscore.Hbond.Weighted>
-2.6030

> <Gold.Chemscore.Metal.Weighted>
-0.0000

> <Gold.Chemscore.Lipo.Weighted>
-11.9446

> <Gold.Chemscore.Internal_Hbond.Weighted>
0.0000

> <Gold.Chemscore.DEClash.Weighted>
0.8306

> <Gold.Chemscore.DEInternal.Weighted>
1.9629

> <Gold.Chemscore.Rot.Weighted>
5.4009

> <Gold.Chemscore.Internal.Correction.Weighted>
   9.000000E+99

> <Gold.Protein.RotatedTorsions>
[ 6907 6896 6895 6894 ] final  -30.58 input  -60.11 | X-H torsion
[ 7974 7965 7964 7962 ] final -136.83 input  175.53 | X-H torsion
[ 8008 7997 7996 7995 ] final -103.81 input   59.86 | X-H torsion
[ 10167 10162 10161 10158 ] final -121.57 input  -65.29 | X-H torsion
[ 10718 10713 10712 10709 ] final  -44.11 input   66.30 | X-H torsion
[ 10763 10752 10751 10750 ] final   50.08 input  -60.55 | X-H torsion
[ 11005 11000 10999 10996 ] final  -16.34 input  -57.11 | X-H torsion

> <Gold.Protein.ActiveResidues>
 VAL166  LYS551  ARG553  GLY616  TRP617  ASP618  TYR619  PRO620  LYS621  CYS622 
 ASP623  PHE694  ASN695  SER759  ASP760  ASP761  ALA762  ILE779  LEU786  VAL792 
 PHE793  MET794  SER795  GLU796  ALA797  LYS798  CYS799  TRP800  GLU811  SER814 

> <Gold.Protein.RotatedAtoms>
  151.1036  134.9986  159.8460 H   0  0  0  0  0  0  0  0  0  0  0  0  # atno 6907 bound_to 6896
  152.5438  134.1920  159.8688 H   0  0  0  0  0  0  0  0  0  0  0  0  # atno 6908 bound_to 6896
  151.1965  133.4592  159.2629 H   0  0  0  0  0  0  0  0  0  0  0  0  # atno 6909 bound_to 6896
  144.8894  140.6620  143.5155 H   0  0  0  0  0  0  0  0  0  0  0  0  # atno 7974 bound_to 7965
  154.8762  140.0421  157.1755 H   0  0  0  0  0  0  0  0  0  0  0  0  # atno 8008 bound_to 7997
  154.8687  140.2955  155.5474 H   0  0  0  0  0  0  0  0  0  0  0  0  # atno 8009 bound_to 7997
  156.2999  140.2433  156.3672 H   0  0  0  0  0  0  0  0  0  0  0  0  # atno 8010 bound_to 7997
  140.0236  143.5320  152.2209 H   0  0  0  0  0  0  0  0  0  0  0  0  # atno 10167 bound_to 10162
  156.2420  130.4180  149.8749 H   0  0  0  0  0  0  0  0  0  0  0  0  # atno 10718 bound_to 10713
  152.9785  135.5890  154.4194 H   0  0  0  0  0  0  0  0  0  0  0  0  # atno 10763 bound_to 10752
  154.3820  135.2767  155.2207 H   0  0  0  0  0  0  0  0  0  0  0  0  # atno 10764 bound_to 10752
  154.4117  135.6080  153.6011 H   0  0  0  0  0  0  0  0  0  0  0  0  # atno 10765 bound_to 10752
  140.8058  133.8179  155.9514 H   0  0  0  0  0  0  0  0  0  0  0  0  # atno 11005 bound_to 11000
  145.3811  139.1637  143.4280 LP  0  0  0  0  0  0  0  0  0  0  0  0  # atno 17320 bound_to 7965
  146.3044  140.3891  142.8692 LP  0  0  0  0  0  0  0  0  0  0  0  0  # atno 17321 bound_to 7965
  139.6123  144.7611  151.2923 LP  0  0  0  0  0  0  0  0  0  0  0  0  # atno 17342 bound_to 10162
  140.7332  143.6801  150.8008 LP  0  0  0  0  0  0  0  0  0  0  0  0  # atno 17343 bound_to 10162
  156.6327  130.8672  151.3498 LP  0  0  0  0  0  0  0  0  0  0  0  0  # atno 17370 bound_to 10713
  157.7179  130.9521  150.1325 LP  0  0  0  0  0  0  0  0  0  0  0  0  # atno 17371 bound_to 10713
  140.9248  134.2096  157.4903 LP  0  0  0  0  0  0  0  0  0  0  0  0  # atno 17394 bound_to 11000
  139.8718  134.9808  156.5090 LP  0  0  0  0  0  0  0  0  0  0  0  0  # atno 17395 bound_to 11000

$$$$
