AV-unprocessed.smi:1741|AV-procd|sdf|7016|dock3
  -GOLD-   22720 8233D 1   1.00000     0.00000
 Structure written by MMmdl.
 38 39  0  0  0  0  0  0  0  0  1 V2000
  144.5568  131.7717  150.3045 C   0  0  0  0  0  0  0  0  0  0  0  0
  143.6921  133.0351  150.2173 C   0  0  0  0  0  0  0  0  0  0  0  0
  144.2178  134.1038  151.0442 N   0  0  0  0  0  0  0  0  0  0  0  0
  145.4466  134.7275  150.9542 C   0  0  0  0  0  0  0  0  0  0  0  0
  145.4635  135.6560  151.9567 C   0  0  0  0  0  0  0  0  0  0  0  0
  146.4850  136.5693  152.3206 N   0  0  0  0  0  0  0  0  0  0  0  0
  146.3573  137.6871  153.0538 C   0  0  0  0  0  0  0  0  0  0  0  0
  145.3045  138.0924  153.5469 O   0  0  0  0  0  0  0  0  0  0  0  0
  147.5354  138.3126  153.1920 N   0  0  0  0  0  0  0  0  0  0  0  0
  147.7673  139.5547  153.9279 C   0  0  2  0  0  0  0  0  0  0  0  0
  147.0258  140.6962  153.2169 C   0  0  0  0  0  0  0  0  0  0  0  0
  149.2792  139.8385  154.0440 C   0  0  2  0  0  0  0  0  0  0  0  0
  150.0984  138.7287  154.7052 C   0  0  0  0  0  0  0  0  0  0  0  0
  151.3200  139.4882  155.1687 C   0  0  0  0  0  0  0  0  0  0  0  0
  150.7167  140.8178  155.6135 C   0  0  0  0  0  0  0  0  0  0  0  0
  149.5138  140.9798  154.8651 O   0  0  0  0  0  0  0  0  0  0  0  0
  144.2112  135.5395  152.6135 C   0  0  0  0  0  0  0  0  0  0  0  0
  143.4630  134.5999  152.0559 N   0  0  0  0  0  0  0  0  0  0  0  0
  144.1546  130.9821  149.6696 H   0  0  0  0  0  0  0  0  0  0  0  0
  144.5969  131.3895  151.3249 H   0  0  0  0  0  0  0  0  0  0  0  0
  145.5787  131.9715  149.9806 H   0  0  0  0  0  0  0  0  0  0  0  0
  143.6409  133.3851  149.1858 H   0  0  0  0  0  0  0  0  0  0  0  0
  142.6698  132.8181  150.5299 H   0  0  0  0  0  0  0  0  0  0  0  0
  146.1748  134.4550  150.2045 H   0  0  0  0  0  0  0  0  0  0  0  0
  147.4112  136.3491  151.9848 H   0  0  0  0  0  0  0  0  0  0  0  0
  148.3422  137.8964  152.7509 H   0  0  0  0  0  0  0  0  0  0  0  0
  147.3533  139.4725  154.9345 H   0  0  0  0  0  0  0  0  0  0  0  0
  147.1386  141.6363  153.7575 H   0  0  0  0  0  0  0  0  0  0  0  0
  145.9580  140.4871  153.1464 H   0  0  0  0  0  0  0  0  0  0  0  0
  147.4039  140.8478  152.2053 H   0  0  0  0  0  0  0  0  0  0  0  0
  149.6987  140.0471  153.0582 H   0  0  0  0  0  0  0  0  0  0  0  0
  149.5667  138.3170  155.5644 H   0  0  0  0  0  0  0  0  0  0  0  0
  150.3375  137.9106  154.0253 H   0  0  0  0  0  0  0  0  0  0  0  0
  151.8675  138.9806  155.9633 H   0  0  0  0  0  0  0  0  0  0  0  0
  152.0003  139.6460  154.3306 H   0  0  0  0  0  0  0  0  0  0  0  0
  150.4624  140.7883  156.6734 H   0  0  0  0  0  0  0  0  0  0  0  0
  151.3989  141.6526  155.4524 H   0  0  0  0  0  0  0  0  0  0  0  0
  143.8277  136.0927  153.4581 H   0  0  0  0  0  0  0  0  0  0  0  0
  1  2  1  0  0  0  0
  1 19  1  0  0  0  0
  1 20  1  0  0  0  0
  1 21  1  0  0  0  0
  2  3  1  0  0  0  0
  2 22  1  0  0  0  0
  2 23  1  0  0  0  0
  3 18  1  0  0  0  0
  3  4  1  0  0  0  0
  4  5  2  0  0  0  0
  4 24  1  0  0  0  0
  5  6  1  0  0  0  0
  5 17  1  0  0  0  0
  6  7  1  0  0  0  0
  6 25  1  0  0  0  0
  7  8  2  0  0  0  0
  7  9  1  0  0  0  0
  9 10  1  0  0  0  0
  9 26  1  0  0  0  0
 10 11  1  0  0  0  0
 10 12  1  0  0  0  0
 10 27  1  0  0  0  0
 11 28  1  0  0  0  0
 11 29  1  0  0  0  0
 11 30  1  0  0  0  0
 12 16  1  0  0  0  0
 12 13  1  0  0  0  0
 12 31  1  0  0  0  0
 13 14  1  0  0  0  0
 13 32  1  0  0  0  0
 13 33  1  0  0  0  0
 14 15  1  0  0  0  0
 14 34  1  0  0  0  0
 14 35  1  0  0  0  0
 15 16  1  0  0  0  0
 15 36  1  0  0  0  0
 15 37  1  0  0  0  0
 17 18  2  0  0  0  0
 17 38  1  0  0  0  0
M  END
> <s_m_source_file>
AV-unprocessed.smi

> <i_m_source_file_index>
1741

> <i_lp_mmshare_version>
43012

> <i_f3d_flags>
0

> <s_epik_input>
W0NIM11bQ0gyXW4xW2NIXWMoW2NIXW4xKVtOSF1DKD1PKVtOSF1bQ0BIXShbQ0gzXSlbQ0BASF0yW0NIMl1bQ0gyXVtDSDJdTzI=

> <s_epik_cmdline>
J2VwaWtfcHl0aG9uJywgJy1waCcsICc3LjAnLCAnLXRuJywgJzgnLCAnLW1hJywgJzIwMCcsICctbWV0YWxfYmluZGluZycsICctaW1hZScsICc8aW5maWxlLm1hZT4nLCAnLW9tYWUnLCAnPG91dGZpbGUubWFlPic=

> <r_lp_tautomer_probability>
1

> <r_epik_Ionization_Penalty>
0.000179292

> <r_epik_Ionization_Penalty_Charging>
0

> <r_epik_Ionization_Penalty_Neutral>
0.000179292

> <r_epik_State_Penalty>
-0

> <r_epik_Charging_Adjusted_Penalty>
0

> <i_epik_Tot_Q>
0

> <i_epik_Tot_abs_Q>
0

> <r_epik_Metal_State_Penalty>
-0

> <b_epik_Metal_Only>
0

> <s_lp_Force_Field>
OPLS_2005

> <r_lp_Energy>
21.1803

> <b_lp_Chiralities_Consistent>
1

> <s_lp_Variant>
AV-unprocessed.smi:1741-1

> <Gold.Version>
5.8.1

> <Gold.Id.Protein>
6NUR|6NUR_protein|mol2

> <Gold.PLP.Fitness>
38.8890

> <Gold.PLP.PLP>
-30.6701

> <Gold.PLP.part.hbond>
-2.0866

> <Gold.PLP.part.metal>
0.0000

> <Gold.PLP.part.buried>
-1.0381

> <Gold.PLP.part.nonpolar>
-28.8740

> <Gold.PLP.part.repulsive>
1.1020

> <Gold.PLP.ligand.clash>
0.0000

> <Gold.PLP.ligand.torsion>
0.1526

> <Gold.PLP.Chemscore.Hbond>
1.8390

> <Gold.PLP.Chemscore.CHOScore>
0.9973

> <Gold.PLP.Chemscore.Metal>
0.0000

> <Gold.Chemscore.Hbonds>
donor molecule, donor type, donor heavy atom, donor atom, acceptor molecule, acceptor atom, score
      L1  H     6    25       P1  7948  1.00
      L1  H     9    26       P1  7948  0.86
      L1  C     4    24       P1  7921  0.86

> <Gold.PLP.Chemscore.Internal.Correction>
0.0150

> <Gold.Rescore>
     Score         DG    S(hbond)    S(metal)    S(lipo)     H(rot)  DE(clash)    DE(int)     intcor
     15.22     -16.75       1.87        0.00      73.22       1.38       0.20       1.33       ----

> <Gold.Chemscore.Fitness>
15.2162

> <Gold.Chemscore.DG>
-16.7479

> <Gold.Chemscore.ZeroCoef>
-5.4800

> <Gold.Chemscore.Hbond>
1.8655

> <Gold.Chemscore.Metal>
0.0000

> <Gold.Chemscore.Lipo>
73.2241

> <Gold.Chemscore.Internal_Hbond>
0.0000

> <Gold.Chemscore.DEClash>
0.1971

> <Gold.Chemscore.DEInternal>
1.3346

> <Gold.Chemscore.Rot>
1.3790

> <Gold.Chemscore.Internal.Correction>
   9.000000E+99

> <Gold.Chemscore.Hbonds>
donor molecule, donor type, donor heavy atom, donor atom, acceptor molecule, acceptor atom, score
      L1  H     6    25       P1  7948  0.93
      L1  H     9    26       P1  7948  0.83

> <Gold.Chemscore.Hbond.Weighted>
-6.2309

> <Gold.Chemscore.Metal.Weighted>
-0.0000

> <Gold.Chemscore.Lipo.Weighted>
-8.5672

> <Gold.Chemscore.Internal_Hbond.Weighted>
0.0000

> <Gold.Chemscore.DEClash.Weighted>
0.1971

> <Gold.Chemscore.DEInternal.Weighted>
1.3346

> <Gold.Chemscore.Rot.Weighted>
3.5302

> <Gold.Chemscore.Internal.Correction.Weighted>
   9.000000E+99

> <Gold.Protein.RotatedTorsions>
[ 6907 6896 6895 6894 ] final  -35.47 input  -60.11 | X-H torsion
[ 7974 7965 7964 7962 ] final -173.21 input  175.53 | X-H torsion
[ 8008 7997 7996 7995 ] final -161.31 input   59.86 | X-H torsion
[ 10167 10162 10161 10158 ] final   92.18 input  -65.29 | X-H torsion
[ 10718 10713 10712 10709 ] final  -52.14 input   66.30 | X-H torsion
[ 10763 10752 10751 10750 ] final    7.92 input  -60.55 | X-H torsion
[ 11005 11000 10999 10996 ] final -133.06 input  -57.11 | X-H torsion

> <Gold.Protein.ActiveResidues>
 VAL166  LYS551  ARG553  GLY616  TRP617  ASP618  TYR619  PRO620  LYS621  CYS622 
 ASP623  PHE694  ASN695  SER759  ASP760  ASP761  ALA762  ILE779  LEU786  VAL792 
 PHE793  MET794  SER795  GLU796  ALA797  LYS798  CYS799  TRP800  GLU811  SER814 

> <Gold.Protein.RotatedAtoms>
  151.0394  134.9596  159.8153 H   0  0  0  0  0  0  0  0  0  0  0  0  # atno 6907 bound_to 6896
  152.5361  134.2677  159.8969 H   0  0  0  0  0  0  0  0  0  0  0  0  # atno 6908 bound_to 6896
  151.2689  133.4222  159.2654 H   0  0  0  0  0  0  0  0  0  0  0  0  # atno 6909 bound_to 6896
  144.7140  140.1657  143.6372 H   0  0  0  0  0  0  0  0  0  0  0  0  # atno 7974 bound_to 7965
  155.7903  140.0877  157.2012 H   0  0  0  0  0  0  0  0  0  0  0  0  # atno 8008 bound_to 7997
  154.3986  140.1491  156.3213 H   0  0  0  0  0  0  0  0  0  0  0  0  # atno 8009 bound_to 7997
  155.8565  140.3432  155.5731 H   0  0  0  0  0  0  0  0  0  0  0  0  # atno 8010 bound_to 7997
  139.8301  144.6691  150.9410 H   0  0  0  0  0  0  0  0  0  0  0  0  # atno 10167 bound_to 10162
  156.1648  130.4149  149.9737 H   0  0  0  0  0  0  0  0  0  0  0  0  # atno 10718 bound_to 10713
  153.2309  135.6892  153.7891 H   0  0  0  0  0  0  0  0  0  0  0  0  # atno 10763 bound_to 10752
  153.7056  135.3290  155.3235 H   0  0  0  0  0  0  0  0  0  0  0  0  # atno 10764 bound_to 10752
  154.8313  135.4578  154.1193 H   0  0  0  0  0  0  0  0  0  0  0  0  # atno 10765 bound_to 10752
  140.9115  134.1562  157.4385 H   0  0  0  0  0  0  0  0  0  0  0  0  # atno 11005 bound_to 11000
  145.8990  139.2419  143.1505 LP  0  0  0  0  0  0  0  0  0  0  0  0  # atno 17320 bound_to 7965
  145.9829  140.8667  143.0105 LP  0  0  0  0  0  0  0  0  0  0  0  0  # atno 17321 bound_to 7965
  140.7807  143.4009  151.1151 LP  0  0  0  0  0  0  0  0  0  0  0  0  # atno 17342 bound_to 10162
  139.7663  143.8560  152.3111 LP  0  0  0  0  0  0  0  0  0  0  0  0  # atno 17343 bound_to 10162
  156.7555  130.9131  151.3639 LP  0  0  0  0  0  0  0  0  0  0  0  0  # atno 17370 bound_to 10713
  157.6759  130.9094  150.0150 LP  0  0  0  0  0  0  0  0  0  0  0  0  # atno 17371 bound_to 10713
  139.8758  134.9937  156.5659 LP  0  0  0  0  0  0  0  0  0  0  0  0  # atno 17394 bound_to 11000
  140.8104  133.8434  155.8805 LP  0  0  0  0  0  0  0  0  0  0  0  0  # atno 17395 bound_to 11000

$$$$
