AV-unprocessed.smi:102|AV-procd|sdf|961|dock3
  -GOLD-   2262017503D 1   1.00000     0.00000
 Structure written by MMmdl.
 43 44  0  0  0  0  0  0  0  0  2 V2000
  150.1579  129.0069  154.6961 C   0  0  0  0  0  0  0  0  0  0  0  0
  149.1697  130.0865  154.2759 C   0  0  0  0  0  0  0  0  0  0  0  0
  148.1163  129.8048  153.7047 O   0  0  0  0  0  0  0  0  0  0  0  0
  149.5920  131.3214  154.6011 O   0  0  0  0  0  0  0  0  0  0  0  0
  148.8897  132.4689  154.1421 C   0  0  0  0  0  0  0  0  0  0  0  0
  149.1925  133.6830  155.0330 C   0  0  2  0  0  0  0  0  0  0  0  0
  150.5964  133.9013  155.1230 O   0  0  0  0  0  0  0  0  0  0  0  0
  150.8960  134.6140  156.2885 C   0  0  1  0  0  0  0  0  0  0  0  0
  151.3175  136.0253  155.9238 N   0  0  0  0  0  0  0  0  0  0  0  0
  150.6719  136.7406  154.9279 C   0  0  0  0  0  0  0  0  0  0  0  0
  151.0455  137.9988  154.6183 C   0  0  0  0  0  0  0  0  0  0  0  0
  150.3996  138.6684  153.6481 F   0  0  0  0  0  0  0  0  0  0  0  0
  152.1504  138.6247  155.3422 C   0  0  0  0  0  0  0  0  0  0  0  0
  152.4858  139.7727  155.0550 O   0  0  0  0  0  0  0  0  0  0  0  0
  152.7677  137.8971  156.3176 N   0  5  0  0  0  0  0  0  0  0  0  0
  152.3915  136.6242  156.6366 C   0  0  0  0  0  0  0  0  0  0  0  0
  152.9318  135.9629  157.5233 O   0  0  0  0  0  0  0  0  0  0  0  0
  149.6343  134.5715  157.1828 C   0  0  1  0  0  0  0  0  0  0  0  0
  148.9449  135.8232  157.1538 O   0  0  0  0  0  0  0  0  0  0  0  0
  149.3197  136.8364  157.9534 C   0  0  0  0  0  0  0  0  0  0  0  0
  148.5071  138.0997  157.7047 C   0  0  0  0  0  0  0  0  0  0  0  0
  150.2054  136.8006  158.8075 O   0  0  0  0  0  0  0  0  0  0  0  0
  148.8201  133.4786  156.4971 C   0  0  1  0  0  0  0  0  0  0  0  0
  147.4184  133.5910  156.7166 O   0  0  0  0  0  0  0  0  0  0  0  0
  146.9111  133.4089  157.9480 C   0  0  0  0  0  0  0  0  0  0  0  0
  145.3922  133.5130  157.9705 C   0  0  0  0  0  0  0  0  0  0  0  0
  147.5563  133.1914  158.9735 O   0  0  0  0  0  0  0  0  0  0  0  0
  151.1128  129.1499  154.1904 H   0  0  0  0  0  0  0  0  0  0  0  0
  149.7754  128.0185  154.4412 H   0  0  0  0  0  0  0  0  0  0  0  0
  150.3252  129.0453  155.7727 H   0  0  0  0  0  0  0  0  0  0  0  0
  149.2429  132.6719  153.1309 H   0  0  0  0  0  0  0  0  0  0  0  0
  147.8166  132.2878  154.0653 H   0  0  0  0  0  0  0  0  0  0  0  0
  148.7004  134.5782  154.6480 H   0  0  0  0  0  0  0  0  0  0  0  0
  151.7721  134.1533  156.7479 H   0  0  0  0  0  0  0  0  0  0  0  0
  149.8523  136.3005  154.3810 H   0  0  0  0  0  0  0  0  0  0  0  0
  149.9237  134.2876  158.1955 H   0  0  0  0  0  0  0  0  0  0  0  0
  147.5020  137.8502  157.3637 H   0  0  0  0  0  0  0  0  0  0  0  0
  148.9897  138.7106  156.9417 H   0  0  0  0  0  0  0  0  0  0  0  0
  148.4255  138.6867  158.6197 H   0  0  0  0  0  0  0  0  0  0  0  0
  149.1863  132.4997  156.8119 H   0  0  0  0  0  0  0  0  0  0  0  0
  144.9547  132.8609  157.2143 H   0  0  0  0  0  0  0  0  0  0  0  0
  145.0826  134.5382  157.7674 H   0  0  0  0  0  0  0  0  0  0  0  0
  145.0026  133.2209  158.9459 H   0  0  0  0  0  0  0  0  0  0  0  0
  1  2  1  0  0  0  0
  1 28  1  0  0  0  0
  1 29  1  0  0  0  0
  1 30  1  0  0  0  0
  2  3  2  0  0  0  0
  2  4  1  0  0  0  0
  4  5  1  0  0  0  0
  5  6  1  0  0  0  0
  5 31  1  0  0  0  0
  5 32  1  0  0  0  0
  6 23  1  0  0  0  0
  6  7  1  0  0  0  0
  6 33  1  0  0  0  0
  7  8  1  0  0  0  0
  8  9  1  0  0  0  0
  8 18  1  0  0  0  0
  8 34  1  0  0  0  0
  9 16  1  0  0  0  0
  9 10  1  0  0  0  0
 10 11  2  0  0  0  0
 10 35  1  0  0  0  0
 11 12  1  0  0  0  0
 11 13  1  0  0  0  0
 13 14  2  0  0  0  0
 13 15  1  0  0  0  0
 15 16  1  0  0  0  0
 16 17  2  0  0  0  0
 18 19  1  0  0  0  0
 18 23  1  0  0  0  0
 18 36  1  0  0  0  0
 19 20  1  0  0  0  0
 20 21  1  0  0  0  0
 20 22  2  0  0  0  0
 21 37  1  0  0  0  0
 21 38  1  0  0  0  0
 21 39  1  0  0  0  0
 23 24  1  0  0  0  0
 23 40  1  0  0  0  0
 24 25  1  0  0  0  0
 25 26  1  0  0  0  0
 25 27  2  0  0  0  0
 26 41  1  0  0  0  0
 26 42  1  0  0  0  0
 26 43  1  0  0  0  0
M  CHG  1  15  -1
M  END
> <s_m_source_file>
AV-unprocessed.smi

> <i_m_source_file_index>
102

> <i_lp_mmshare_version>
43012

> <i_f3d_flags>
0

> <s_epik_input>
W0NIM11DKD1PKU9bQ0gyXVtDQEBIXTFPW0NASF0oW0NAQEhdKE9DKD1PKVtDSDNdKVtDQEhdMU9DKD1PKVtDSDNdKW4yW2NIXWMoRiljKD1PKVtuSF1jMj1P

> <s_epik_cmdline>
J2VwaWtfcHl0aG9uJywgJy1waCcsICc3LjAnLCAnLXRuJywgJzgnLCAnLW1hJywgJzIwMCcsICctbWV0YWxfYmluZGluZycsICctaW1hZScsICc8aW5maWxlLm1hZT4nLCAnLW9tYWUnLCAnPG91dGZpbGUubWFlPic=

> <r_epik_Ionization_Penalty>
1.40304

> <r_epik_Ionization_Penalty_Charging>
1.43915e-08

> <r_epik_Ionization_Penalty_Neutral>
1.40304

> <r_epik_State_Penalty>
1.48536

> <r_epik_Charging_Adjusted_Penalty>
1.48536

> <i_epik_Tot_Q>
-1

> <i_epik_Tot_abs_Q>
1

> <r_epik_Metal_State_Penalty>
0.00663881

> <b_epik_Metal_Only>
0

> <s_epik_Chemistry_Notes>
This compound has an ester and may undergo hydrolysis at high or low pH. This compound contains an acetal/aminal-like group ( X-CH(R)-Y where X, Y are N, S, or O) that may be acid/base labile, releasing an aldehyde.

> <s_lp_Force_Field>
OPLS_2005

> <r_lp_Energy>
23.8996

> <b_lp_Chiralities_Consistent>
1

> <s_lp_Variant>
AV-unprocessed.smi:102-17

> <Gold.Version>
5.8.1

> <Gold.Id.Protein>
6NUR|6NUR_protein|mol2

> <Gold.PLP.Fitness>
34.3729

> <Gold.PLP.PLP>
-27.7144

> <Gold.PLP.part.hbond>
-3.2403

> <Gold.PLP.part.metal>
0.0000

> <Gold.PLP.part.buried>
-1.8241

> <Gold.PLP.part.nonpolar>
-21.2495

> <Gold.PLP.part.repulsive>
0.2475

> <Gold.PLP.ligand.clash>
0.0000

> <Gold.PLP.ligand.torsion>
0.9378

> <Gold.PLP.Chemscore.Hbond>
2.1405

> <Gold.PLP.Chemscore.CHOScore>
0.4488

> <Gold.PLP.Chemscore.Metal>
0.0000

> <Gold.Chemscore.Hbonds>
donor molecule, donor type, donor heavy atom, donor atom, acceptor molecule, acceptor atom, score
      P1  H  6896  6907       L1    22  0.54
      P1  H  7989  7998       L1    14  0.59
      P1  H  7997  8010       L1    14  0.65
      L1  C    10    35       P1  7948  0.72

> <Gold.PLP.Chemscore.Internal.Correction>
0.7662

> <Gold.Rescore>
     Score         DG    S(hbond)    S(metal)    S(lipo)     H(rot)  DE(clash)    DE(int)     intcor
      4.64      -7.04       2.28        0.00      35.78       4.00       0.10       2.30       ----

> <Gold.Chemscore.Fitness>
4.6397

> <Gold.Chemscore.DG>
-7.0436

> <Gold.Chemscore.ZeroCoef>
-5.4800

> <Gold.Chemscore.Hbond>
2.2768

> <Gold.Chemscore.Metal>
0.0000

> <Gold.Chemscore.Lipo>
35.7820

> <Gold.Chemscore.Internal_Hbond>
0.0000

> <Gold.Chemscore.DEClash>
0.0996

> <Gold.Chemscore.DEInternal>
2.3042

> <Gold.Chemscore.Rot>
3.9951

> <Gold.Chemscore.Internal.Correction>
   9.000000E+99

> <Gold.Chemscore.Hbonds>
donor molecule, donor type, donor heavy atom, donor atom, acceptor molecule, acceptor atom, score
      P1  H  6896  6907       L1    22  0.50
      P1  H  7989  7998       L1    14  0.57
      P1  H  7997  8010       L1    14  0.45

> <Gold.Chemscore.Hbond.Weighted>
-7.6045

> <Gold.Chemscore.Metal.Weighted>
-0.0000

> <Gold.Chemscore.Lipo.Weighted>
-4.1865

> <Gold.Chemscore.Internal_Hbond.Weighted>
0.0000

> <Gold.Chemscore.DEClash.Weighted>
0.0996

> <Gold.Chemscore.DEInternal.Weighted>
2.3042

> <Gold.Chemscore.Rot.Weighted>
10.2274

> <Gold.Chemscore.Internal.Correction.Weighted>
   9.000000E+99

> <Gold.Protein.RotatedTorsions>
[ 6907 6896 6895 6894 ] final  -50.29 input  -60.11 | X-H torsion
[ 7974 7965 7964 7962 ] final  -59.00 input  175.53 | X-H torsion
[ 8008 7997 7996 7995 ] final   99.22 input   59.86 | X-H torsion
[ 10167 10162 10161 10158 ] final -114.04 input  -65.29 | X-H torsion
[ 10718 10713 10712 10709 ] final  157.00 input   66.30 | X-H torsion
[ 10763 10752 10751 10750 ] final -165.80 input  -60.55 | X-H torsion
[ 11005 11000 10999 10996 ] final -155.29 input  -57.11 | X-H torsion

> <Gold.Protein.ActiveResidues>
 VAL166  LYS551  ARG553  GLY616  TRP617  ASP618  TYR619  PRO620  LYS621  CYS622 
 ASP623  PHE694  ASN695  SER759  ASP760  ASP761  ALA762  ILE779  LEU786  VAL792 
 PHE793  MET794  SER795  GLU796  ALA797  LYS798  CYS799  TRP800  GLU811  SER814 

> <Gold.Protein.RotatedAtoms>
  150.8721  134.8097  159.7162 H   0  0  0  0  0  0  0  0  0  0  0  0  # atno 6907 bound_to 6896
  152.4722  134.4930  159.9711 H   0  0  0  0  0  0  0  0  0  0  0  0  # atno 6908 bound_to 6896
  151.5017  133.3464  159.2905 H   0  0  0  0  0  0  0  0  0  0  0  0  # atno 6909 bound_to 6896
  145.8327  140.8469  143.0075 H   0  0  0  0  0  0  0  0  0  0  0  0  # atno 7974 bound_to 7965
  156.1083  140.3232  155.8036 H   0  0  0  0  0  0  0  0  0  0  0  0  # atno 8008 bound_to 7997
  155.4718  140.0547  157.2996 H   0  0  0  0  0  0  0  0  0  0  0  0  # atno 8009 bound_to 7997
  154.4742  140.2025  155.9933 H   0  0  0  0  0  0  0  0  0  0  0  0  # atno 8010 bound_to 7997
  140.1053  143.4576  152.1786 H   0  0  0  0  0  0  0  0  0  0  0  0  # atno 10167 bound_to 10162
  157.1974  131.0668  151.2045 H   0  0  0  0  0  0  0  0  0  0  0  0  # atno 10718 bound_to 10713
  154.6896  135.2968  154.9498 H   0  0  0  0  0  0  0  0  0  0  0  0  # atno 10763 bound_to 10752
  154.0465  135.6650  153.4799 H   0  0  0  0  0  0  0  0  0  0  0  0  # atno 10764 bound_to 10752
  153.0603  135.5119  154.7982 H   0  0  0  0  0  0  0  0  0  0  0  0  # atno 10765 bound_to 10752
  140.6881  134.4071  157.5221 H   0  0  0  0  0  0  0  0  0  0  0  0  # atno 11005 bound_to 11000
  144.6738  140.0695  143.7473 LP  0  0  0  0  0  0  0  0  0  0  0  0  # atno 17320 bound_to 7965
  145.9553  139.2762  143.1188 LP  0  0  0  0  0  0  0  0  0  0  0  0  # atno 17321 bound_to 7965
  139.5649  144.7429  151.4051 LP  0  0  0  0  0  0  0  0  0  0  0  0  # atno 17342 bound_to 10162
  140.6955  143.7758  150.7321 LP  0  0  0  0  0  0  0  0  0  0  0  0  # atno 17343 bound_to 10162
  157.3801  130.7226  149.6624 LP  0  0  0  0  0  0  0  0  0  0  0  0  # atno 17370 bound_to 10713
  155.9704  130.4175  150.4282 LP  0  0  0  0  0  0  0  0  0  0  0  0  # atno 17371 bound_to 10713
  139.8931  134.8738  156.2237 LP  0  0  0  0  0  0  0  0  0  0  0  0  # atno 17394 bound_to 11000
  141.0263  133.7013  156.1354 LP  0  0  0  0  0  0  0  0  0  0  0  0  # atno 17395 bound_to 11000

$$$$
