AV-unprocessed.smi:2032|AV-procd|sdf|8249|dock2
  -GOLD-   2272010523D 1   1.00000     0.00000
 Structure written by MMmdl.
 41 42  0  0  0  0  0  0  0  0  2 V2000
  150.9444  142.1096  156.5819 C   0  0  0  0  0  0  0  0  0  0  0  0
  150.0956  140.9370  156.0789 C   0  0  1  0  0  0  0  0  0  0  0  0
  148.7123  141.3951  155.5829 C   0  0  0  0  0  0  0  0  0  0  0  0
  147.9169  140.2995  155.0213 N   0  0  0  0  0  0  0  0  0  0  0  0
  146.5767  140.7425  154.5687 C   0  0  2  0  0  0  0  0  0  0  0  0
  146.6009  142.1459  153.9102 C   0  0  0  0  0  0  0  0  0  0  0  0
  145.5117  140.7365  155.7053 C   0  0  0  0  0  0  0  0  0  0  0  0
  145.4761  141.9715  156.4857 N   0  0  0  0  0  0  0  0  0  0  0  0
  145.7159  142.0797  157.8002 C   0  0  0  0  0  0  0  0  0  0  0  0
  146.0091  141.0780  158.4571 O   0  0  0  0  0  0  0  0  0  0  0  0
  145.5956  143.3415  158.2720 N   0  5  0  0  0  0  0  0  0  0  0  0
  145.9776  143.6304  159.5266 C   0  0  0  0  0  0  0  0  0  0  0  0
  146.3228  142.6943  160.4181 N   0  0  0  0  0  0  0  0  0  0  0  0
  146.6968  143.2184  161.6567 C   0  0  0  0  0  0  0  0  0  0  0  0
  146.6442  144.5863  161.7068 C   0  0  0  0  0  0  0  0  0  0  0  0
  146.1183  145.2609  160.1909 S   0  0  0  0  0  0  0  0  0  0  0  0
  148.7020  139.6787  153.9483 C   0  0  0  0  0  0  0  0  0  0  0  0
  150.1078  139.2294  154.3939 C   0  0  2  0  0  0  0  0  0  0  0  0
  150.0920  137.9726  155.2815 C   0  0  0  0  0  0  0  0  0  0  0  0
  150.8014  140.3098  155.0138 O   0  0  0  0  0  0  0  0  0  0  0  0
  150.4556  142.6217  157.4111 H   0  0  0  0  0  0  0  0  0  0  0  0
  151.1160  142.8405  155.7910 H   0  0  0  0  0  0  0  0  0  0  0  0
  151.9170  141.7640  156.9325 H   0  0  0  0  0  0  0  0  0  0  0  0
  149.9713  140.2301  156.8995 H   0  0  0  0  0  0  0  0  0  0  0  0
  148.2038  141.8410  156.4353 H   0  0  0  0  0  0  0  0  0  0  0  0
  148.8312  142.1832  154.8375 H   0  0  0  0  0  0  0  0  0  0  0  0
  146.2359  140.0418  153.8051 H   0  0  0  0  0  0  0  0  0  0  0  0
  145.6072  142.4935  153.6304 H   0  0  0  0  0  0  0  0  0  0  0  0
  147.1718  142.1581  152.9829 H   0  0  0  0  0  0  0  0  0  0  0  0
  147.0296  142.8893  154.5828 H   0  0  0  0  0  0  0  0  0  0  0  0
  144.5039  140.5857  155.3211 H   0  0  0  0  0  0  0  0  0  0  0  0
  145.7069  139.9116  156.3909 H   0  0  0  0  0  0  0  0  0  0  0  0
  145.2434  142.8177  155.9873 H   0  0  0  0  0  0  0  0  0  0  0  0
  146.9889  142.5431  162.4472 H   0  0  0  0  0  0  0  0  0  0  0  0
  146.8825  145.2348  162.5363 H   0  0  0  0  0  0  0  0  0  0  0  0
  148.1979  138.8000  153.5521 H   0  0  0  0  0  0  0  0  0  0  0  0
  148.8003  140.3821  153.1197 H   0  0  0  0  0  0  0  0  0  0  0  0
  150.6765  138.9768  153.4989 H   0  0  0  0  0  0  0  0  0  0  0  0
  149.6669  137.1248  154.7439 H   0  0  0  0  0  0  0  0  0  0  0  0
  149.4977  138.1139  156.1840 H   0  0  0  0  0  0  0  0  0  0  0  0
  151.1023  137.6982  155.5857 H   0  0  0  0  0  0  0  0  0  0  0  0
  1  2  1  0  0  0  0
  1 21  1  0  0  0  0
  1 22  1  0  0  0  0
  1 23  1  0  0  0  0
  2 20  1  0  0  0  0
  2  3  1  0  0  0  0
  2 24  1  0  0  0  0
  3  4  1  0  0  0  0
  3 25  1  0  0  0  0
  3 26  1  0  0  0  0
  4  5  1  0  0  0  0
  4 17  1  0  0  0  0
  5  6  1  0  0  0  0
  5  7  1  0  0  0  0
  5 27  1  0  0  0  0
  6 28  1  0  0  0  0
  6 29  1  0  0  0  0
  6 30  1  0  0  0  0
  7  8  1  0  0  0  0
  7 31  1  0  0  0  0
  7 32  1  0  0  0  0
  8  9  1  0  0  0  0
  8 33  1  0  0  0  0
  9 10  2  0  0  0  0
  9 11  1  0  0  0  0
 11 12  1  0  0  0  0
 12 16  1  0  0  0  0
 12 13  2  0  0  0  0
 13 14  1  0  0  0  0
 14 15  2  0  0  0  0
 14 34  1  0  0  0  0
 15 16  1  0  0  0  0
 15 35  1  0  0  0  0
 17 18  1  0  0  0  0
 17 36  1  0  0  0  0
 17 37  1  0  0  0  0
 18 19  1  0  0  0  0
 18 20  1  0  0  0  0
 18 38  1  0  0  0  0
 19 39  1  0  0  0  0
 19 40  1  0  0  0  0
 19 41  1  0  0  0  0
M  CHG  1  11  -1
M  END
> <s_m_source_file>
AV-unprocessed.smi

> <i_m_source_file_index>
2032

> <i_lp_mmshare_version>
43012

> <i_f3d_flags>
0

> <s_epik_input>
W0NIM11bQ0BASF0xW0NIMl1OKFtDSDJdW0NASF0oTzEpW0NIM10pW0NASF0oW0NIM10pW0NIMl1bTkhdQyg9TylbTkhdYzJuW2NIXVtjSF1zMg==

> <s_epik_cmdline>
J2VwaWtfcHl0aG9uJywgJy1waCcsICc3LjAnLCAnLXRuJywgJzgnLCAnLW1hJywgJzIwMCcsICctbWV0YWxfYmluZGluZycsICctaW1hZScsICc8aW5maWxlLm1hZT4nLCAnLW9tYWUnLCAnPG91dGZpbGUubWFlPic=

> <r_lp_tautomer_probability>
0.999

> <r_epik_Ionization_Penalty>
7.22375

> <r_epik_Ionization_Penalty_Charging>
5.82415

> <r_epik_Ionization_Penalty_Neutral>
1.39959

> <r_epik_State_Penalty>
6.03347

> <r_epik_Charging_Adjusted_Penalty>
11.8576

> <i_epik_Tot_Q>
-1

> <i_epik_Tot_abs_Q>
1

> <r_epik_Metal_State_Penalty>
2.01024

> <b_epik_Metal_Only>
1

> <s_lp_Force_Field>
OPLS_2005

> <r_lp_Energy>
25.9518

> <b_lp_Chiralities_Consistent>
1

> <s_lp_Variant>
AV-unprocessed.smi:2032-19

> <Gold.Version>
5.8.1

> <Gold.Id.Protein>
6NUR|6NUR_protein|mol2

> <Gold.PLP.Fitness>
31.9042

> <Gold.PLP.PLP>
-28.1000

> <Gold.PLP.part.hbond>
-3.0618

> <Gold.PLP.part.metal>
0.0000

> <Gold.PLP.part.buried>
-1.7168

> <Gold.PLP.part.nonpolar>
-24.1009

> <Gold.PLP.part.repulsive>
0.2595

> <Gold.PLP.ligand.clash>
0.0000

> <Gold.PLP.ligand.torsion>
0.8550

> <Gold.PLP.Chemscore.Hbond>
1.8125

> <Gold.PLP.Chemscore.CHOScore>
0.0000

> <Gold.PLP.Chemscore.Metal>
0.0000

> <Gold.Chemscore.Hbonds>
donor molecule, donor type, donor heavy atom, donor atom, acceptor molecule, acceptor atom, score
      P1  H  6934  6946       L1    13  0.85
      P1  H  7989  7998       L1    20  0.80

> <Gold.PLP.Chemscore.Internal.Correction>
0.0767

> <Gold.Rescore>
     Score         DG    S(hbond)    S(metal)    S(lipo)     H(rot)  DE(clash)    DE(int)     intcor
     11.32     -14.23       1.57        0.00      63.76       1.54       0.21       2.70       ----

> <Gold.Chemscore.Fitness>
11.3221

> <Gold.Chemscore.DG>
-14.2308

> <Gold.Chemscore.ZeroCoef>
-5.4800

> <Gold.Chemscore.Hbond>
1.5691

> <Gold.Chemscore.Metal>
0.0000

> <Gold.Chemscore.Lipo>
63.7634

> <Gold.Chemscore.Internal_Hbond>
0.0000

> <Gold.Chemscore.DEClash>
0.2113

> <Gold.Chemscore.DEInternal>
2.6974

> <Gold.Chemscore.Rot>
1.5431

> <Gold.Chemscore.Internal.Correction>
   9.000000E+99

> <Gold.Chemscore.Hbonds>
donor molecule, donor type, donor heavy atom, donor atom, acceptor molecule, acceptor atom, score
      P1  H  6934  6946       L1    13  0.14
      P1  H  7989  7998       L1    20  0.12

> <Gold.Chemscore.Hbond.Weighted>
-5.2407

> <Gold.Chemscore.Metal.Weighted>
-0.0000

> <Gold.Chemscore.Lipo.Weighted>
-7.4603

> <Gold.Chemscore.Internal_Hbond.Weighted>
0.0000

> <Gold.Chemscore.DEClash.Weighted>
0.2113

> <Gold.Chemscore.DEInternal.Weighted>
2.6974

> <Gold.Chemscore.Rot.Weighted>
3.9503

> <Gold.Chemscore.Internal.Correction.Weighted>
   9.000000E+99

> <Gold.Protein.RotatedTorsions>
[ 6907 6896 6895 6894 ] final   56.40 input  -60.11 | X-H torsion
[ 7974 7965 7964 7962 ] final -103.71 input  175.53 | X-H torsion
[ 8008 7997 7996 7995 ] final -109.87 input   59.86 | X-H torsion
[ 10167 10162 10161 10158 ] final  -58.50 input  -65.29 | X-H torsion
[ 10718 10713 10712 10709 ] final  -70.27 input   66.30 | X-H torsion
[ 10763 10752 10751 10750 ] final   54.39 input  -60.55 | X-H torsion
[ 11005 11000 10999 10996 ] final -164.29 input  -57.11 | X-H torsion

> <Gold.Protein.ActiveResidues>
 VAL166  LYS551  ARG553  GLY616  TRP617  ASP618  TYR619  PRO620  LYS621  CYS622 
 ASP623  PHE694  ASN695  SER759  ASP760  ASP761  ALA762  ILE779  LEU786  VAL792 
 PHE793  MET794  SER795  GLU796  ALA797  LYS798  CYS799  TRP800  GLU811  SER814 

> <Gold.Protein.RotatedAtoms>
  152.3632  134.6842  160.0200 H   0  0  0  0  0  0  0  0  0  0  0  0  # atno 6907 bound_to 6896
  151.7159  133.3308  159.3310 H   0  0  0  0  0  0  0  0  0  0  0  0  # atno 6908 bound_to 6896
  150.7619  134.6426  159.6289 H   0  0  0  0  0  0  0  0  0  0  0  0  # atno 6909 bound_to 6896
  145.2524  140.9242  143.3088 H   0  0  0  0  0  0  0  0  0  0  0  0  # atno 7974 bound_to 7965
  154.9659  140.0398  157.2212 H   0  0  0  0  0  0  0  0  0  0  0  0  # atno 8008 bound_to 7997
  154.7845  140.2824  155.6016 H   0  0  0  0  0  0  0  0  0  0  0  0  # atno 8009 bound_to 7997
  156.2941  140.2585  156.2679 H   0  0  0  0  0  0  0  0  0  0  0  0  # atno 8010 bound_to 7997
  140.6193  143.2414  151.5519 H   0  0  0  0  0  0  0  0  0  0  0  0  # atno 10167 bound_to 10162
  156.0415  130.4328  150.2271 H   0  0  0  0  0  0  0  0  0  0  0  0  # atno 10718 bound_to 10713
  152.9804  135.5746  154.4897 H   0  0  0  0  0  0  0  0  0  0  0  0  # atno 10763 bound_to 10752
  154.4433  135.2776  155.1834 H   0  0  0  0  0  0  0  0  0  0  0  0  # atno 10764 bound_to 10752
  154.3493  135.6212  153.5688 H   0  0  0  0  0  0  0  0  0  0  0  0  # atno 10765 bound_to 10752
  140.5886  134.5068  157.5189 H   0  0  0  0  0  0  0  0  0  0  0  0  # atno 11005 bound_to 11000
  144.9491  139.4102  143.6411 LP  0  0  0  0  0  0  0  0  0  0  0  0  # atno 17320 bound_to 7965
  146.3299  139.8490  142.8876 LP  0  0  0  0  0  0  0  0  0  0  0  0  # atno 17321 bound_to 7965
  139.5425  144.2608  152.1379 LP  0  0  0  0  0  0  0  0  0  0  0  0  # atno 17342 bound_to 10162
  140.1825  144.4831  150.6521 LP  0  0  0  0  0  0  0  0  0  0  0  0  # atno 17343 bound_to 10162
  157.0366  131.0023  151.3296 LP  0  0  0  0  0  0  0  0  0  0  0  0  # atno 17370 bound_to 10713
  157.5240  130.8016  149.7840 LP  0  0  0  0  0  0  0  0  0  0  0  0  # atno 17371 bound_to 10713
  139.9284  134.8011  156.1001 LP  0  0  0  0  0  0  0  0  0  0  0  0  # atno 17394 bound_to 11000
  141.0950  133.6699  156.2624 LP  0  0  0  0  0  0  0  0  0  0  0  0  # atno 17395 bound_to 11000

$$$$
