AV-unprocessed.smi:109|AV-procd|sdf|1036|dock3
  -GOLD-   2262018 53D 1   1.00000     0.00000
 Structure written by MMmdl.
 58 61  0  0  0  0  0  0  0  0  1 V2000
  152.8354  139.1442  156.4022 O   0  0  0  0  0  0  0  0  0  0  0  0
  151.4954  139.2336  156.8359 C   0  0  0  0  0  0  0  0  0  0  0  0
  151.4122  140.1034  158.1004 C   0  0  0  0  0  0  0  0  0  0  0  0
  152.0328  141.5056  157.9096 C   0  0  1  0  0  0  0  0  0  0  0  0
  151.0250  142.4264  157.3840 N   0  0  0  0  0  0  0  0  0  0  0  0
  149.7440  142.0409  157.1895 C   0  0  0  0  0  0  0  0  0  0  0  0
  148.7725  142.3333  158.0928 N   0  0  0  0  0  0  0  0  0  0  0  0
  147.5153  141.9395  157.8722 C   0  0  0  0  0  0  0  0  0  0  0  0
  147.0253  141.2580  156.8348 N   0  0  0  0  0  0  0  0  0  0  0  0
  147.9942  140.9627  155.9207 C   0  0  0  0  0  0  0  0  0  0  0  0
  149.3682  141.3189  156.0274 C   0  0  0  0  0  0  0  0  0  0  0  0
  150.0624  140.8575  154.9178 N   0  0  0  0  0  0  0  0  0  0  0  0
  149.1474  140.2670  154.1979 C   0  0  0  0  0  0  0  0  0  0  0  0
  147.8758  140.2731  154.7284 N   0  0  0  0  0  0  0  0  0  0  0  0
  146.6427  139.6871  154.1108 C   0  0  2  0  0  0  0  0  0  0  0  0
  146.2079  138.6330  154.9187 O   0  0  0  0  0  0  0  0  0  0  0  0
  146.2691  137.3945  154.2127 C   0  0  1  0  0  0  0  0  0  0  0  0
  145.2043  136.4097  154.7276 C   0  0  0  0  0  0  0  0  0  0  0  0
  145.2727  135.1990  154.0046 O   0  0  0  0  0  0  0  0  0  0  0  0
  146.1310  137.8128  152.7430 C   0  0  1  0  0  0  0  0  0  0  0  0
  144.7644  137.9876  152.4008 O   0  0  0  0  0  0  0  0  0  0  0  0
  146.9136  139.1219  152.7081 C   0  0  1  0  0  0  0  0  0  0  0  0
  146.4733  139.9695  151.6636 O   0  0  0  0  0  0  0  0  0  0  0  0
  152.6958  142.0848  159.1905 C   0  0  0  0  0  0  0  0  0  0  0  0
  153.2596  140.9897  160.1220 C   0  0  0  0  0  0  0  0  0  0  0  0
  154.0063  141.6020  161.3183 C   0  0  0  0  0  0  0  0  0  0  0  0
  153.1032  142.5677  162.1017 C   0  0  0  0  0  0  0  0  0  0  0  0
  152.5295  143.6589  161.1842 C   0  0  0  0  0  0  0  0  0  0  0  0
  151.7846  143.0464  159.9865 C   0  0  0  0  0  0  0  0  0  0  0  0
  145.9017  140.4874  154.1263 H   0  0  0  0  0  0  0  0  0  0  0  0
  147.2593  136.9587  154.3439 H   0  0  0  0  0  0  0  0  0  0  0  0
  146.5589  137.0700  152.0688 H   0  0  0  0  0  0  0  0  0  0  0  0
  147.9759  138.9111  152.5849 H   0  0  0  0  0  0  0  0  0  0  0  0
  153.0698  138.2309  156.3385 H   0  0  0  0  0  0  0  0  0  0  0  0
  150.8917  139.6612  156.0348 H   0  0  0  0  0  0  0  0  0  0  0  0
  151.1205  138.2276  157.0262 H   0  0  0  0  0  0  0  0  0  0  0  0
  150.3710  140.1922  158.4127 H   0  0  0  0  0  0  0  0  0  0  0  0
  151.9260  139.5753  158.9024 H   0  0  0  0  0  0  0  0  0  0  0  0
  152.8161  141.3948  157.1587 H   0  0  0  0  0  0  0  0  0  0  0  0
  151.3707  143.3297  157.0934 H   0  0  0  0  0  0  0  0  0  0  0  0
  146.8002  142.2085  158.6354 H   0  0  0  0  0  0  0  0  0  0  0  0
  149.3792  139.8043  153.2495 H   0  0  0  0  0  0  0  0  0  0  0  0
  145.3194  136.2194  155.7951 H   0  0  0  0  0  0  0  0  0  0  0  0
  144.2065  136.8228  154.5752 H   0  0  0  0  0  0  0  0  0  0  0  0
  144.7602  134.5482  154.4594 H   0  0  0  0  0  0  0  0  0  0  0  0
  144.7214  138.3288  151.5200 H   0  0  0  0  0  0  0  0  0  0  0  0
  145.5689  140.1929  151.8221 H   0  0  0  0  0  0  0  0  0  0  0  0
  153.5582  142.6682  158.8653 H   0  0  0  0  0  0  0  0  0  0  0  0
  152.4572  140.3560  160.4987 H   0  0  0  0  0  0  0  0  0  0  0  0
  153.9345  140.3375  159.5667 H   0  0  0  0  0  0  0  0  0  0  0  0
  154.3635  140.8106  161.9777 H   0  0  0  0  0  0  0  0  0  0  0  0
  154.8915  142.1326  160.9651 H   0  0  0  0  0  0  0  0  0  0  0  0
  152.2860  142.0111  162.5623 H   0  0  0  0  0  0  0  0  0  0  0  0
  153.6652  143.0240  162.9170 H   0  0  0  0  0  0  0  0  0  0  0  0
  151.8567  144.3039  161.7500 H   0  0  0  0  0  0  0  0  0  0  0  0
  153.3378  144.2965  160.8240 H   0  0  0  0  0  0  0  0  0  0  0  0
  151.4218  143.8471  159.3415 H   0  0  0  0  0  0  0  0  0  0  0  0
  150.9031  142.5173  160.3494 H   0  0  0  0  0  0  0  0  0  0  0  0
  1  2  1  0  0  0  0
  1 34  1  0  0  0  0
  2  3  1  0  0  0  0
  2 35  1  0  0  0  0
  2 36  1  0  0  0  0
  3  4  1  0  0  0  0
  3 37  1  0  0  0  0
  3 38  1  0  0  0  0
  4  5  1  0  0  0  0
  4 24  1  0  0  0  0
  4 39  1  0  0  0  0
  5  6  1  0  0  0  0
  5 40  1  0  0  0  0
  6 11  1  0  0  0  0
  6  7  2  0  0  0  0
  7  8  1  0  0  0  0
  8  9  2  0  0  0  0
  8 41  1  0  0  0  0
  9 10  1  0  0  0  0
 10 14  1  0  0  0  0
 10 11  2  0  0  0  0
 11 12  1  0  0  0  0
 12 13  2  0  0  0  0
 13 14  1  0  0  0  0
 13 42  1  0  0  0  0
 14 15  1  0  0  0  0
 15 30  1  0  0  0  0
 15 22  1  0  0  0  0
 15 16  1  0  0  0  0
 16 17  1  0  0  0  0
 17 31  1  0  0  0  0
 17 18  1  0  0  0  0
 17 20  1  0  0  0  0
 18 19  1  0  0  0  0
 18 43  1  0  0  0  0
 18 44  1  0  0  0  0
 19 45  1  0  0  0  0
 20 32  1  0  0  0  0
 20 21  1  0  0  0  0
 20 22  1  0  0  0  0
 21 46  1  0  0  0  0
 22 33  1  0  0  0  0
 22 23  1  0  0  0  0
 23 47  1  0  0  0  0
 24 29  1  0  0  0  0
 24 25  1  0  0  0  0
 24 48  1  0  0  0  0
 25 26  1  0  0  0  0
 25 49  1  0  0  0  0
 25 50  1  0  0  0  0
 26 27  1  0  0  0  0
 26 51  1  0  0  0  0
 26 52  1  0  0  0  0
 27 28  1  0  0  0  0
 27 53  1  0  0  0  0
 27 54  1  0  0  0  0
 28 29  1  0  0  0  0
 28 55  1  0  0  0  0
 28 56  1  0  0  0  0
 29 57  1  0  0  0  0
 29 58  1  0  0  0  0
M  END
> <s_m_source_file>
AV-unprocessed.smi

> <i_m_source_file_index>
109

> <i_lp_mmshare_version>
43012

> <i_f3d_flags>
0

> <s_epik_input>
W0NIMl0xW0NIMl1bQ0gyXVtDSDJdW0NIMl1bQ0hdMVtDQEhdKFtDSDJdW0NIMl1bT0hdKVtOSF1jKG5bY0hdbjIpYyhjMjMpbltjSF1uM1tDQEBIXTRPW0NASF0oW0NIMl1bT0hdKVtDQEBIXShbT0hdKVtDQEhdNFtPSF0=

> <s_epik_cmdline>
J2VwaWtfcHl0aG9uJywgJy1waCcsICc3LjAnLCAnLXRuJywgJzgnLCAnLW1hJywgJzIwMCcsICctbWV0YWxfYmluZGluZycsICctaW1hZScsICc8aW5maWxlLm1hZT4nLCAnLW9tYWUnLCAnPG91dGZpbGUubWFlPic=

> <r_lp_tautomer_probability>
1

> <r_epik_Ionization_Penalty>
0.000793976

> <r_epik_Ionization_Penalty_Charging>
0

> <r_epik_Ionization_Penalty_Neutral>
0.000793976

> <r_epik_State_Penalty>
-0

> <r_epik_Charging_Adjusted_Penalty>
0

> <i_epik_Tot_Q>
0

> <i_epik_Tot_abs_Q>
0

> <r_epik_Metal_State_Penalty>
-0

> <b_epik_Metal_Only>
0

> <s_epik_Chemistry_Notes>
This compound contains an acetal/aminal-like group ( X-CH(R)-Y where X, Y are N, S, or O) that may be acid/base labile, releasing an aldehyde.

> <s_lp_Force_Field>
OPLS_2005

> <r_lp_Energy>
57.9321

> <b_lp_Chiralities_Consistent>
1

> <s_lp_Variant>
AV-unprocessed.smi:109-6

> <Gold.Version>
5.8.1

> <Gold.Id.Protein>
6NUR|6NUR_protein|mol2

> <Gold.PLP.Fitness>
54.3201

> <Gold.PLP.PLP>
-45.3973

> <Gold.PLP.part.hbond>
-5.7638

> <Gold.PLP.part.metal>
0.0000

> <Gold.PLP.part.buried>
-6.8480

> <Gold.PLP.part.nonpolar>
-34.0718

> <Gold.PLP.part.repulsive>
0.4085

> <Gold.PLP.ligand.clash>
1.2961

> <Gold.PLP.ligand.torsion>
1.9934

> <Gold.PLP.Chemscore.Hbond>
3.5722

> <Gold.PLP.Chemscore.CHOScore>
1.0000

> <Gold.PLP.Chemscore.Metal>
0.0000

> <Gold.Chemscore.Hbonds>
donor molecule, donor type, donor heavy atom, donor atom, acceptor molecule, acceptor atom, score
      L1  H    21    46       P1 10171  1.00
      L1  H    23    47       P1 10175  1.00
      P1  H  7989  7998       L1    12  0.58
      P1  H  7997  8010       L1     1  1.00
      L1  C    13    42       P1  7957  1.00

> <Gold.PLP.Chemscore.Internal.Correction>
0.4892

> <Gold.Rescore>
     Score         DG    S(hbond)    S(metal)    S(lipo)     H(rot)  DE(clash)    DE(int)     intcor
     10.53     -12.86       2.86        0.00     101.07       5.47       0.23       2.10       ----

> <Gold.Chemscore.Fitness>
10.5316

> <Gold.Chemscore.DG>
-12.8634

> <Gold.Chemscore.ZeroCoef>
-5.4800

> <Gold.Chemscore.Hbond>
2.8598

> <Gold.Chemscore.Metal>
0.0000

> <Gold.Chemscore.Lipo>
101.0699

> <Gold.Chemscore.Internal_Hbond>
0.0000

> <Gold.Chemscore.DEClash>
0.2306

> <Gold.Chemscore.DEInternal>
2.1012

> <Gold.Chemscore.Rot>
5.4662

> <Gold.Chemscore.Internal.Correction>
   9.000000E+99

> <Gold.Chemscore.Hbonds>
donor molecule, donor type, donor heavy atom, donor atom, acceptor molecule, acceptor atom, score
      L1  H    21    46       P1 10171  0.97
      L1  H    23    47       P1 10175  0.25
      P1  H  7989  7998       L1    12  0.13
      P1  H  7997  8010       L1     1  0.65

> <Gold.Chemscore.Hbond.Weighted>
-9.5517

> <Gold.Chemscore.Metal.Weighted>
-0.0000

> <Gold.Chemscore.Lipo.Weighted>
-11.8252

> <Gold.Chemscore.Internal_Hbond.Weighted>
0.0000

> <Gold.Chemscore.DEClash.Weighted>
0.2306

> <Gold.Chemscore.DEInternal.Weighted>
2.1012

> <Gold.Chemscore.Rot.Weighted>
13.9935

> <Gold.Chemscore.Internal.Correction.Weighted>
   9.000000E+99

> <Gold.Protein.RotatedTorsions>
[ 6907 6896 6895 6894 ] final   32.15 input  -60.11 | X-H torsion
[ 7974 7965 7964 7962 ] final -147.52 input  175.53 | X-H torsion
[ 8008 7997 7996 7995 ] final   69.07 input   59.86 | X-H torsion
[ 10167 10162 10161 10158 ] final   82.79 input  -65.29 | X-H torsion
[ 10718 10713 10712 10709 ] final   12.42 input   66.30 | X-H torsion
[ 10763 10752 10751 10750 ] final   63.54 input  -60.55 | X-H torsion
[ 11005 11000 10999 10996 ] final  121.43 input  -57.11 | X-H torsion

> <Gold.Protein.ActiveResidues>
 VAL166  LYS551  ARG553  GLY616  TRP617  ASP618  TYR619  PRO620  LYS621  CYS622 
 ASP623  PHE694  ASN695  SER759  ASP760  ASP761  ALA762  ILE779  LEU786  VAL792 
 PHE793  MET794  SER795  GLU796  ALA797  LYS798  CYS799  TRP800  GLU811  SER814 

> <Gold.Protein.RotatedAtoms>
  152.0704  134.9537  160.0574 H   0  0  0  0  0  0  0  0  0  0  0  0  # atno 6907 bound_to 6896
  152.0865  133.4174  159.4533 H   0  0  0  0  0  0  0  0  0  0  0  0  # atno 6908 bound_to 6896
  150.6836  134.2841  159.4683 H   0  0  0  0  0  0  0  0  0  0  0  0  # atno 6909 bound_to 6896
  144.8088  140.5316  143.5657 H   0  0  0  0  0  0  0  0  0  0  0  0  # atno 7974 bound_to 7965
  155.7180  140.3493  155.5003 H   0  0  0  0  0  0  0  0  0  0  0  0  # atno 8008 bound_to 7997
  155.9296  140.1082  157.1165 H   0  0  0  0  0  0  0  0  0  0  0  0  # atno 8009 bound_to 7997
  154.4083  140.1234  156.4772 H   0  0  0  0  0  0  0  0  0  0  0  0  # atno 8010 bound_to 7997
  139.9251  144.6188  150.8401 H   0  0  0  0  0  0  0  0  0  0  0  0  # atno 10167 bound_to 10162
  157.0099  130.6113  149.5707 H   0  0  0  0  0  0  0  0  0  0  0  0  # atno 10718 bound_to 10713
  153.0022  135.5425  154.6369 H   0  0  0  0  0  0  0  0  0  0  0  0  # atno 10763 bound_to 10752
  154.5633  135.2835  155.0900 H   0  0  0  0  0  0  0  0  0  0  0  0  # atno 10764 bound_to 10752
  154.2094  135.6470  153.5163 H   0  0  0  0  0  0  0  0  0  0  0  0  # atno 10765 bound_to 10752
  139.9225  134.9639  156.7956 H   0  0  0  0  0  0  0  0  0  0  0  0  # atno 11005 bound_to 11000
  145.5374  139.1475  143.3466 LP  0  0  0  0  0  0  0  0  0  0  0  0  # atno 17320 bound_to 7965
  146.2383  140.5514  142.8945 LP  0  0  0  0  0  0  0  0  0  0  0  0  # atno 17321 bound_to 7965
  140.7652  143.3269  151.2496 LP  0  0  0  0  0  0  0  0  0  0  0  0  # atno 17342 bound_to 10162
  139.6829  143.9824  152.2818 LP  0  0  0  0  0  0  0  0  0  0  0  0  # atno 17343 bound_to 10162
  156.0140  130.5233  150.8076 LP  0  0  0  0  0  0  0  0  0  0  0  0  # atno 17370 bound_to 10713
  157.5328  131.0937  150.9932 LP  0  0  0  0  0  0  0  0  0  0  0  0  # atno 17371 bound_to 10713
  140.6431  133.9800  155.7717 LP  0  0  0  0  0  0  0  0  0  0  0  0  # atno 17394 bound_to 11000
  141.0758  134.0137  157.3460 LP  0  0  0  0  0  0  0  0  0  0  0  0  # atno 17395 bound_to 11000

$$$$
