AV-unprocessed.smi:3174|AV-procd|sdf|12121|dock8
  -GOLD-   2272017563D 1   1.00000     0.00000
 Structure written by MMmdl.
 32 33  0  0  0  0  0  0  0  0  1 V2000
  151.9821  134.8588  155.5107 C   0  0  0  0  0  0  0  0  0  0  0  0
  152.7472  136.0488  155.4434 O   0  0  0  0  0  0  0  0  0  0  0  0
  151.9472  137.2002  155.2318 C   0  0  0  0  0  0  0  0  0  0  0  0
  152.8185  138.4645  155.3121 C   0  0  0  0  0  0  0  0  0  0  0  0
  152.0471  139.6305  155.7579 N   0  0  0  0  0  0  0  0  0  0  0  0
  152.6256  140.3150  156.8142 N   0  0  0  0  0  0  0  0  0  0  0  0
  152.0548  141.3715  157.2965 C   0  0  0  0  0  0  0  0  0  0  0  0
  152.6458  142.1362  158.4299 C   0  0  0  0  0  0  0  0  0  0  0  0
  153.5345  141.6620  159.1397 O   0  0  0  0  0  0  0  0  0  0  0  0
  152.1399  143.3681  158.6162 N   0  0  0  0  0  0  0  0  0  0  0  0
  152.5399  144.2870  159.6319 C   0  0  0  0  0  0  0  0  0  0  0  0
  152.2893  143.8944  161.0719 C   0  0  0  0  0  0  0  0  0  0  0  0
  151.4499  144.9659  160.4327 C   0  0  0  0  0  0  0  0  0  0  0  0
  150.8017  141.8574  156.7437 C   0  0  0  0  0  0  0  0  0  0  0  0
  150.2502  141.1809  155.7126 C   0  0  0  0  0  0  0  0  0  0  0  0
  150.8765  139.9851  155.1463 C   0  0  0  0  0  0  0  0  0  0  0  0
  150.3939  139.3573  154.2044 O   0  0  0  0  0  0  0  0  0  0  0  0
  152.6433  134.0084  155.6761 H   0  0  0  0  0  0  0  0  0  0  0  0
  151.4378  134.6867  154.5814 H   0  0  0  0  0  0  0  0  0  0  0  0
  151.2677  134.8951  156.3341 H   0  0  0  0  0  0  0  0  0  0  0  0
  151.4852  137.1412  154.2454 H   0  0  0  0  0  0  0  0  0  0  0  0
  151.1404  137.2459  155.9651 H   0  0  0  0  0  0  0  0  0  0  0  0
  153.6845  138.2854  155.9513 H   0  0  0  0  0  0  0  0  0  0  0  0
  153.2330  138.6731  154.3244 H   0  0  0  0  0  0  0  0  0  0  0  0
  151.4134  143.6765  157.9860 H   0  0  0  0  0  0  0  0  0  0  0  0
  153.4349  144.8794  159.4469 H   0  0  0  0  0  0  0  0  0  0  0  0
  151.8158  142.9330  161.2627 H   0  0  0  0  0  0  0  0  0  0  0  0
  153.0239  144.2060  161.8115 H   0  0  0  0  0  0  0  0  0  0  0  0
  151.6245  145.9938  160.7442 H   0  0  0  0  0  0  0  0  0  0  0  0
  150.4157  144.7197  160.1988 H   0  0  0  0  0  0  0  0  0  0  0  0
  150.3169  142.7374  157.1411 H   0  0  0  0  0  0  0  0  0  0  0  0
  149.3193  141.5315  155.2917 H   0  0  0  0  0  0  0  0  0  0  0  0
  1  2  1  0  0  0  0
  1 18  1  0  0  0  0
  1 19  1  0  0  0  0
  1 20  1  0  0  0  0
  2  3  1  0  0  0  0
  3  4  1  0  0  0  0
  3 21  1  0  0  0  0
  3 22  1  0  0  0  0
  4  5  1  0  0  0  0
  4 23  1  0  0  0  0
  4 24  1  0  0  0  0
  5 16  1  0  0  0  0
  5  6  1  0  0  0  0
  6  7  2  0  0  0  0
  7  8  1  0  0  0  0
  7 14  1  0  0  0  0
  8  9  2  0  0  0  0
  8 10  1  0  0  0  0
 10 11  1  0  0  0  0
 10 25  1  0  0  0  0
 11 13  1  0  0  0  0
 11 12  1  0  0  0  0
 11 26  1  0  0  0  0
 12 13  1  0  0  0  0
 12 27  1  0  0  0  0
 12 28  1  0  0  0  0
 13 29  1  0  0  0  0
 13 30  1  0  0  0  0
 14 15  2  0  0  0  0
 14 31  1  0  0  0  0
 15 16  1  0  0  0  0
 15 32  1  0  0  0  0
 16 17  2  0  0  0  0
M  END
> <s_m_source_file>
AV-unprocessed.smi

> <i_m_source_file_index>
3174

> <i_lp_mmshare_version>
43012

> <i_f3d_flags>
0

> <s_epik_input>
W0NIM11PW0NIMl1bQ0gyXW4xbmMoW2NIXVtjSF1jMT1PKUMoPU8pW05IXVtDSF0yW0NIMl1bQ0gyXTI=

> <s_epik_cmdline>
J2VwaWtfcHl0aG9uJywgJy1waCcsICc3LjAnLCAnLXRuJywgJzgnLCAnLW1hJywgJzIwMCcsICctbWV0YWxfYmluZGluZycsICctaW1hZScsICc8aW5maWxlLm1hZT4nLCAnLW9tYWUnLCAnPG91dGZpbGUubWFlPic=

> <r_lp_tautomer_probability>
1

> <r_epik_Ionization_Penalty>
5.63485e-07

> <r_epik_Ionization_Penalty_Charging>
6.67133e-09

> <r_epik_Ionization_Penalty_Neutral>
5.56814e-07

> <r_epik_State_Penalty>
-0

> <r_epik_Charging_Adjusted_Penalty>
6.67133e-09

> <i_epik_Tot_Q>
0

> <i_epik_Tot_abs_Q>
0

> <r_epik_Metal_State_Penalty>
-0

> <b_epik_Metal_Only>
0

> <s_lp_Force_Field>
OPLS_2005

> <r_lp_Energy>
37.1062

> <b_lp_Chiralities_Consistent>
1

> <s_lp_Variant>
AV-unprocessed.smi:3174-1

> <Gold.Version>
5.8.1

> <Gold.Id.Protein>
6NUR|6NUR_protein|mol2

> <Gold.PLP.Fitness>
38.7678

> <Gold.PLP.PLP>
-34.1313

> <Gold.PLP.part.hbond>
-2.6260

> <Gold.PLP.part.metal>
0.0000

> <Gold.PLP.part.buried>
-4.9793

> <Gold.PLP.part.nonpolar>
-26.4390

> <Gold.PLP.part.repulsive>
0.1950

> <Gold.PLP.ligand.clash>
0.0000

> <Gold.PLP.ligand.torsion>
0.4320

> <Gold.PLP.Chemscore.Hbond>
1.8182

> <Gold.PLP.Chemscore.CHOScore>
0.0000

> <Gold.PLP.Chemscore.Metal>
0.0000

> <Gold.Chemscore.Hbonds>
donor molecule, donor type, donor heavy atom, donor atom, acceptor molecule, acceptor atom, score
      P1  H  7997  8010       L1     6  0.99

> <Gold.PLP.Chemscore.Internal.Correction>
0.0460

> <Gold.Rescore>
     Score         DG    S(hbond)    S(metal)    S(lipo)     H(rot)  DE(clash)    DE(int)     intcor
     12.98     -13.94       1.18        0.00      75.23       1.68       0.27       0.69       ----

> <Gold.Chemscore.Fitness>
12.9802

> <Gold.Chemscore.DG>
-13.9419

> <Gold.Chemscore.ZeroCoef>
-5.4800

> <Gold.Chemscore.Hbond>
1.1826

> <Gold.Chemscore.Metal>
0.0000

> <Gold.Chemscore.Lipo>
75.2261

> <Gold.Chemscore.Internal_Hbond>
0.0000

> <Gold.Chemscore.DEClash>
0.2719

> <Gold.Chemscore.DEInternal>
0.6898

> <Gold.Chemscore.Rot>
1.6756

> <Gold.Chemscore.Internal.Correction>
   9.000000E+99

> <Gold.Chemscore.Hbonds>
donor molecule, donor type, donor heavy atom, donor atom, acceptor molecule, acceptor atom, score
      P1  H  7997  8010       L1     6  0.42

> <Gold.Chemscore.Hbond.Weighted>
-3.9499

> <Gold.Chemscore.Metal.Weighted>
-0.0000

> <Gold.Chemscore.Lipo.Weighted>
-8.8015

> <Gold.Chemscore.Internal_Hbond.Weighted>
0.0000

> <Gold.Chemscore.DEClash.Weighted>
0.2719

> <Gold.Chemscore.DEInternal.Weighted>
0.6898

> <Gold.Chemscore.Rot.Weighted>
4.2894

> <Gold.Chemscore.Internal.Correction.Weighted>
   9.000000E+99

> <Gold.Protein.RotatedTorsions>
[ 6907 6896 6895 6894 ] final -155.72 input  -60.11 | X-H torsion
[ 7974 7965 7964 7962 ] final  147.39 input  175.53 | X-H torsion
[ 8008 7997 7996 7995 ] final   64.14 input   59.86 | X-H torsion
[ 10167 10162 10161 10158 ] final  -54.01 input  -65.29 | X-H torsion
[ 10718 10713 10712 10709 ] final   60.72 input   66.30 | X-H torsion
[ 10763 10752 10751 10750 ] final   81.47 input  -60.55 | X-H torsion
[ 11005 11000 10999 10996 ] final  121.84 input  -57.11 | X-H torsion

> <Gold.Protein.ActiveResidues>
 VAL166  LYS551  ARG553  GLY616  TRP617  ASP618  TYR619  PRO620  LYS621  CYS622 
 ASP623  PHE694  ASN695  SER759  ASP760  ASP761  ALA762  ILE779  LEU786  VAL792 
 PHE793  MET794  SER795  GLU796  ALA797  LYS798  CYS799  TRP800  GLU811  SER814 

> <Gold.Protein.RotatedAtoms>
  151.2767  133.4229  159.2624 H   0  0  0  0  0  0  0  0  0  0  0  0  # atno 6907 bound_to 6896
  151.0397  134.9598  159.8165 H   0  0  0  0  0  0  0  0  0  0  0  0  # atno 6908 bound_to 6896
  152.5362  134.2725  159.9029 H   0  0  0  0  0  0  0  0  0  0  0  0  # atno 6909 bound_to 6896
  144.8595  139.6023  143.5937 H   0  0  0  0  0  0  0  0  0  0  0  0  # atno 7974 bound_to 7965
  155.6414  140.3497  155.4716 H   0  0  0  0  0  0  0  0  0  0  0  0  # atno 8008 bound_to 7997
  155.9923  140.1196  157.0650 H   0  0  0  0  0  0  0  0  0  0  0  0  # atno 8009 bound_to 7997
  154.4223  140.1117  156.5568 H   0  0  0  0  0  0  0  0  0  0  0  0  # atno 8010 bound_to 7997
  140.6454  143.2532  151.4874 H   0  0  0  0  0  0  0  0  0  0  0  0  # atno 10167 bound_to 10162
  157.5774  130.8955  149.9371 H   0  0  0  0  0  0  0  0  0  0  0  0  # atno 10718 bound_to 10713
  153.1119  135.4764  154.9050 H   0  0  0  0  0  0  0  0  0  0  0  0  # atno 10763 bound_to 10752
  154.7490  135.3101  154.8595 H   0  0  0  0  0  0  0  0  0  0  0  0  # atno 10764 bound_to 10752
  153.9182  135.6858  153.4802 H   0  0  0  0  0  0  0  0  0  0  0  0  # atno 10765 bound_to 10752
  139.9243  134.9640  156.8019 H   0  0  0  0  0  0  0  0  0  0  0  0  # atno 11005 bound_to 11000
  146.2849  139.6978  142.9202 LP  0  0  0  0  0  0  0  0  0  0  0  0  # atno 17320 bound_to 7965
  145.4340  141.0417  143.2895 LP  0  0  0  0  0  0  0  0  0  0  0  0  # atno 17321 bound_to 7965
  139.5664  144.2031  152.1772 LP  0  0  0  0  0  0  0  0  0  0  0  0  # atno 17342 bound_to 10162
  140.1315  144.5284  150.6800 LP  0  0  0  0  0  0  0  0  0  0  0  0  # atno 17343 bound_to 10162
  156.0819  130.3672  150.0563 LP  0  0  0  0  0  0  0  0  0  0  0  0  # atno 17370 bound_to 10713
  156.8707  130.9523  151.3609 LP  0  0  0  0  0  0  0  0  0  0  0  0  # atno 17371 bound_to 10713
  140.6382  133.9842  155.7695 LP  0  0  0  0  0  0  0  0  0  0  0  0  # atno 17394 bound_to 11000
  141.0788  134.0093  157.3417 LP  0  0  0  0  0  0  0  0  0  0  0  0  # atno 17395 bound_to 11000

$$$$
