AV-unprocessed.smi:256|AV-procd|sdf|1959|dock2
  -GOLD-   2262021103D 1   1.00000     0.00000
 Structure written by MMmdl.
 62 65  0  0  0  0  0  0  0  0  2 V2000
  146.7957  140.7456  156.7050 C   0  0  0  0  0  0  0  0  0  0  0  0
  148.3126  140.6211  156.9058 C   0  0  0  0  0  0  0  0  0  0  0  0
  149.1543  141.4846  155.9284 C   0  0  2  0  0  0  0  0  0  0  0  0
  148.8687  141.1792  154.4384 C   0  0  0  0  0  0  0  0  0  0  0  0
  149.4486  139.8972  154.0383 N   0  0  0  0  0  0  0  0  0  0  0  0
  148.6489  138.7943  154.0443 C   0  0  0  0  0  0  0  0  0  0  0  0
  148.7168  137.9856  155.1345 N   0  0  0  0  0  0  0  0  0  0  0  0
  147.9709  136.8815  155.2163 C   0  0  0  0  0  0  0  0  0  0  0  0
  147.0985  136.4005  154.3321 N   0  0  0  0  0  0  0  0  0  0  0  0
  147.0189  137.2003  153.2317 C   0  0  0  0  0  0  0  0  0  0  0  0
  147.7451  138.4068  153.0063 C   0  0  0  0  0  0  0  0  0  0  0  0
  147.3910  138.9283  151.7653 N   0  0  0  0  0  0  0  0  0  0  0  0
  146.5064  138.0932  151.2960 C   0  0  0  0  0  0  0  0  0  0  0  0
  146.2333  137.0174  152.1073 N   0  0  0  0  0  0  0  0  0  0  0  0
  145.3045  135.9308  151.8346 C   0  0  0  0  0  0  0  0  0  0  0  0
  145.7122  135.0379  150.6361 C   0  0  0  0  0  0  0  0  0  0  0  0
  145.6085  135.8158  149.4560 O   0  0  0  0  0  0  0  0  0  0  0  0
  147.1759  134.5773  150.7867 C   0  0  0  0  0  0  0  0  0  0  0  0
  147.5742  133.5488  149.7135 C   0  0  0  0  0  0  0  0  0  0  0  0
  146.6805  132.4429  149.7468 O   0  0  0  0  0  0  0  0  0  0  0  0
  145.3417  132.8087  149.4351 C   0  0  0  0  0  0  0  0  0  0  0  0
  144.8035  133.7985  150.4837 C   0  0  0  0  0  0  0  0  0  0  0  0
  150.8837  139.7992  154.2753 C   0  0  0  0  0  0  0  0  0  0  0  0
  151.2211  140.1025  155.7467 C   0  0  0  0  0  0  0  0  0  0  0  0
  150.6291  141.3963  156.1798 N   0  3  2  0  0  0  0  0  0  0  0  0
  151.0978  141.8030  157.5329 C   0  0  0  0  0  0  0  0  0  0  0  0
  150.8370  143.2879  157.8548 C   0  0  0  0  0  0  0  0  0  0  0  0
  151.1593  143.6086  159.2020 O   0  0  0  0  0  0  0  0  0  0  0  0
  152.0390  144.7128  159.3470 C   0  0  0  0  0  0  0  0  0  0  0  0
  146.2602  140.1975  157.4805 H   0  0  0  0  0  0  0  0  0  0  0  0
  146.4774  140.3373  155.7462 H   0  0  0  0  0  0  0  0  0  0  0  0
  146.4741  141.7862  156.7537 H   0  0  0  0  0  0  0  0  0  0  0  0
  148.5175  140.9184  157.9331 H   0  0  0  0  0  0  0  0  0  0  0  0
  148.5954  139.5711  156.8361 H   0  0  0  0  0  0  0  0  0  0  0  0
  148.8579  142.5223  156.0780 H   0  0  0  0  0  0  0  0  0  0  0  0
  147.8042  141.2517  154.2208 H   0  0  0  0  0  0  0  0  0  0  0  0
  149.3349  141.9503  153.8237 H   0  0  0  0  0  0  0  0  0  0  0  0
  148.0916  136.2996  156.1181 H   0  0  0  0  0  0  0  0  0  0  0  0
  146.0343  138.2332  150.3343 H   0  0  0  0  0  0  0  0  0  0  0  0
  145.2086  135.3283  152.7391 H   0  0  0  0  0  0  0  0  0  0  0  0
  144.3206  136.3669  151.6576 H   0  0  0  0  0  0  0  0  0  0  0  0
  146.0699  135.3716  148.7612 H   0  0  0  0  0  0  0  0  0  0  0  0
  147.8517  135.4330  150.7537 H   0  0  0  0  0  0  0  0  0  0  0  0
  147.3114  134.1203  151.7679 H   0  0  0  0  0  0  0  0  0  0  0  0
  147.5799  133.9983  148.7194 H   0  0  0  0  0  0  0  0  0  0  0  0
  148.5856  133.1885  149.9010 H   0  0  0  0  0  0  0  0  0  0  0  0
  145.2926  133.2340  148.4317 H   0  0  0  0  0  0  0  0  0  0  0  0
  144.7271  131.9084  149.4252 H   0  0  0  0  0  0  0  0  0  0  0  0
  144.7356  133.2839  151.4429 H   0  0  0  0  0  0  0  0  0  0  0  0
  143.7865  134.0901  150.2194 H   0  0  0  0  0  0  0  0  0  0  0  0
  151.2844  138.8368  153.9599 H   0  0  0  0  0  0  0  0  0  0  0  0
  151.3721  140.5377  153.6387 H   0  0  0  0  0  0  0  0  0  0  0  0
  150.8652  139.3053  156.3991 H   0  0  0  0  0  0  0  0  0  0  0  0
  152.3052  140.1357  155.8614 H   0  0  0  0  0  0  0  0  0  0  0  0
  150.6471  141.1687  158.2959 H   0  0  0  0  0  0  0  0  0  0  0  0
  152.1687  141.6116  157.6005 H   0  0  0  0  0  0  0  0  0  0  0  0
  151.4319  143.9247  157.2004 H   0  0  0  0  0  0  0  0  0  0  0  0
  149.7978  143.5444  157.6445 H   0  0  0  0  0  0  0  0  0  0  0  0
  152.2797  144.8472  160.4015 H   0  0  0  0  0  0  0  0  0  0  0  0
  151.5889  145.6399  158.9924 H   0  0  0  0  0  0  0  0  0  0  0  0
  152.9742  144.5479  158.8104 H   0  0  0  0  0  0  0  0  0  0  0  0
  151.0311  142.0807  155.5550 H   0  0  0  0  0  0  0  0  0  0  0  0
  1  2  1  0  0  0  0
  1 30  1  0  0  0  0
  1 31  1  0  0  0  0
  1 32  1  0  0  0  0
  2  3  1  0  0  0  0
  2 33  1  0  0  0  0
  2 34  1  0  0  0  0
  3 25  1  0  0  0  0
  3  4  1  0  0  0  0
  3 35  1  0  0  0  0
  4  5  1  0  0  0  0
  4 36  1  0  0  0  0
  4 37  1  0  0  0  0
  5  6  1  0  0  0  0
  5 23  1  0  0  0  0
  6 11  1  0  0  0  0
  6  7  2  0  0  0  0
  7  8  1  0  0  0  0
  8  9  2  0  0  0  0
  8 38  1  0  0  0  0
  9 10  1  0  0  0  0
 10 14  1  0  0  0  0
 10 11  2  0  0  0  0
 11 12  1  0  0  0  0
 12 13  2  0  0  0  0
 13 14  1  0  0  0  0
 13 39  1  0  0  0  0
 14 15  1  0  0  0  0
 15 16  1  0  0  0  0
 15 40  1  0  0  0  0
 15 41  1  0  0  0  0
 16 22  1  0  0  0  0
 16 17  1  0  0  0  0
 16 18  1  0  0  0  0
 17 42  1  0  0  0  0
 18 19  1  0  0  0  0
 18 43  1  0  0  0  0
 18 44  1  0  0  0  0
 19 20  1  0  0  0  0
 19 45  1  0  0  0  0
 19 46  1  0  0  0  0
 20 21  1  0  0  0  0
 21 22  1  0  0  0  0
 21 47  1  0  0  0  0
 21 48  1  0  0  0  0
 22 49  1  0  0  0  0
 22 50  1  0  0  0  0
 23 24  1  0  0  0  0
 23 51  1  0  0  0  0
 23 52  1  0  0  0  0
 24 25  1  0  0  0  0
 24 53  1  0  0  0  0
 24 54  1  0  0  0  0
 25 26  1  0  0  0  0
 25 62  1  0  0  0  0
 26 27  1  0  0  0  0
 26 55  1  0  0  0  0
 26 56  1  0  0  0  0
 27 28  1  0  0  0  0
 27 57  1  0  0  0  0
 27 58  1  0  0  0  0
 28 29  1  0  0  0  0
 29 59  1  0  0  0  0
 29 60  1  0  0  0  0
 29 61  1  0  0  0  0
M  CHG  1  25   1
M  END
> <s_m_source_file>
AV-unprocessed.smi

> <i_m_source_file_index>
256

> <i_lp_mmshare_version>
43012

> <i_f3d_flags>
0

> <s_epik_input>
W0NIM11PW0NIMl1bQ0gyXU4xW0NIMl1bQ0gyXU4oW0NIMl1bQ0BIXTFbQ0gyXVtDSDNdKWMobltjSF1uMiljKGMyMyluW2NIXW4zW0NIMl1DNChbT0hdKVtDSDJdW0NIMl1PW0NIMl1bQ0gyXTQ=

> <s_epik_cmdline>
J2VwaWtfcHl0aG9uJywgJy1waCcsICc3LjAnLCAnLXRuJywgJzgnLCAnLW1hJywgJzIwMCcsICctbWV0YWxfYmluZGluZycsICctaW1hZScsICc8aW5maWxlLm1hZT4nLCAnLW9tYWUnLCAnPG91dGZpbGUubWFlPic=

> <r_lp_tautomer_probability>
1

> <r_epik_Ionization_Penalty>
0.233023

> <r_epik_Ionization_Penalty_Charging>
0.23295

> <r_epik_Ionization_Penalty_Neutral>
7.2493e-05

> <r_epik_State_Penalty>
0.223667

> <r_epik_Charging_Adjusted_Penalty>
0.456618

> <i_epik_Tot_Q>
1

> <i_epik_Tot_abs_Q>
1

> <r_epik_Metal_State_Penalty>
0.226879

> <b_epik_Metal_Only>
0

> <s_lp_Force_Field>
OPLS_2005

> <r_lp_Energy>
46.9359

> <b_lp_Chiralities_Consistent>
1

> <s_lp_Variant>
AV-unprocessed.smi:256-3

> <Gold.Version>
5.8.1

> <Gold.Id.Protein>
6NUR|6NUR_protein|mol2

> <Gold.PLP.Fitness>
47.2421

> <Gold.PLP.PLP>
-44.2079

> <Gold.PLP.part.hbond>
-2.0000

> <Gold.PLP.part.metal>
0.0000

> <Gold.PLP.part.buried>
-2.6906

> <Gold.PLP.part.nonpolar>
-42.2297

> <Gold.PLP.part.repulsive>
2.2526

> <Gold.PLP.ligand.clash>
0.0000

> <Gold.PLP.ligand.torsion>
1.7339

> <Gold.PLP.Chemscore.Hbond>
1.0000

> <Gold.PLP.Chemscore.CHOScore>
0.9940

> <Gold.PLP.Chemscore.Metal>
0.0000

> <Gold.Chemscore.Hbonds>
donor molecule, donor type, donor heavy atom, donor atom, acceptor molecule, acceptor atom, score
      L1  H    17    42       P1  7921  0.28
      L1  C    13    39       P1 10171  1.00

> <Gold.PLP.Chemscore.Internal.Correction>
0.5199

> <Gold.Rescore>
     Score         DG    S(hbond)    S(metal)    S(lipo)     H(rot)  DE(clash)    DE(int)     intcor
     10.10     -13.33       0.95        0.00      97.71       2.65       1.49       1.74       ----

> <Gold.Chemscore.Fitness>
10.0994

> <Gold.Chemscore.DG>
-13.3253

> <Gold.Chemscore.ZeroCoef>
-5.4800

> <Gold.Chemscore.Hbond>
0.9544

> <Gold.Chemscore.Metal>
0.0000

> <Gold.Chemscore.Lipo>
97.7068

> <Gold.Chemscore.Internal_Hbond>
0.0000

> <Gold.Chemscore.DEClash>
1.4889

> <Gold.Chemscore.DEInternal>
1.7371

> <Gold.Chemscore.Rot>
2.6462

> <Gold.Chemscore.Internal.Correction>
   9.000000E+99

> <Gold.Chemscore.Hbonds>
donor molecule, donor type, donor heavy atom, donor atom, acceptor molecule, acceptor atom, score
      L1  H    17    42       P1  7921  0.25

> <Gold.Chemscore.Hbond.Weighted>
-3.1878

> <Gold.Chemscore.Metal.Weighted>
-0.0000

> <Gold.Chemscore.Lipo.Weighted>
-11.4317

> <Gold.Chemscore.Internal_Hbond.Weighted>
0.0000

> <Gold.Chemscore.DEClash.Weighted>
1.4889

> <Gold.Chemscore.DEInternal.Weighted>
1.7371

> <Gold.Chemscore.Rot.Weighted>
6.7742

> <Gold.Chemscore.Internal.Correction.Weighted>
   9.000000E+99

> <Gold.Protein.RotatedTorsions>
[ 6907 6896 6895 6894 ] final   31.05 input  -60.11 | X-H torsion
[ 7974 7965 7964 7962 ] final  164.63 input  175.53 | X-H torsion
[ 8008 7997 7996 7995 ] final   -7.41 input   59.86 | X-H torsion
[ 10167 10162 10161 10158 ] final  -95.80 input  -65.29 | X-H torsion
[ 10718 10713 10712 10709 ] final   97.45 input   66.30 | X-H torsion
[ 10763 10752 10751 10750 ] final -100.26 input  -60.55 | X-H torsion
[ 11005 11000 10999 10996 ] final  -73.38 input  -57.11 | X-H torsion

> <Gold.Protein.ActiveResidues>
 VAL166  LYS551  ARG553  GLY616  TRP617  ASP618  TYR619  PRO620  LYS621  CYS622 
 ASP623  PHE694  ASN695  SER759  ASP760  ASP761  ALA762  ILE779  LEU786  VAL792 
 PHE793  MET794  SER795  GLU796  ALA797  LYS798  CYS799  TRP800  GLU811  SER814 

> <Gold.Protein.RotatedAtoms>
  152.0547  134.9632  160.0574 H   0  0  0  0  0  0  0  0  0  0  0  0  # atno 6907 bound_to 6896
  152.1019  133.4249  159.4599 H   0  0  0  0  0  0  0  0  0  0  0  0  # atno 6908 bound_to 6896
  150.6840  134.2670  159.4616 H   0  0  0  0  0  0  0  0  0  0  0  0  # atno 6909 bound_to 6896
  144.7537  139.8353  143.6357 H   0  0  0  0  0  0  0  0  0  0  0  0  # atno 7974 bound_to 7965
  154.5841  140.2407  155.8012 H   0  0  0  0  0  0  0  0  0  0  0  0  # atno 8008 bound_to 7997
  156.2200  140.3000  155.9886 H   0  0  0  0  0  0  0  0  0  0  0  0  # atno 8009 bound_to 7997
  155.2489  140.0410  157.2975 H   0  0  0  0  0  0  0  0  0  0  0  0  # atno 8010 bound_to 7997
  140.3004  143.3166  152.0254 H   0  0  0  0  0  0  0  0  0  0  0  0  # atno 10167 bound_to 10162
  157.6912  131.0610  150.4645 H   0  0  0  0  0  0  0  0  0  0  0  0  # atno 10718 bound_to 10713
  154.7564  135.4942  153.9383 H   0  0  0  0  0  0  0  0  0  0  0  0  # atno 10763 bound_to 10752
  153.1201  135.6730  153.9358 H   0  0  0  0  0  0  0  0  0  0  0  0  # atno 10764 bound_to 10752
  153.9092  135.3101  155.3427 H   0  0  0  0  0  0  0  0  0  0  0  0  # atno 10765 bound_to 10752
  141.1622  133.6876  156.7202 H   0  0  0  0  0  0  0  0  0  0  0  0  # atno 11005 bound_to 11000
  146.1520  139.4607  143.0042 LP  0  0  0  0  0  0  0  0  0  0  0  0  # atno 17320 bound_to 7965
  145.6854  141.0179  143.1584 LP  0  0  0  0  0  0  0  0  0  0  0  0  # atno 17321 bound_to 7965
  139.4916  144.6460  151.6777 LP  0  0  0  0  0  0  0  0  0  0  0  0  # atno 17342 bound_to 10162
  140.5656  144.0195  150.6191 LP  0  0  0  0  0  0  0  0  0  0  0  0  # atno 17343 bound_to 10162
  156.4987  130.4112  149.6365 LP  0  0  0  0  0  0  0  0  0  0  0  0  # atno 17370 bound_to 10713
  156.3348  130.7351  151.2286 LP  0  0  0  0  0  0  0  0  0  0  0  0  # atno 17371 bound_to 10713
  140.2821  134.8308  157.3943 LP  0  0  0  0  0  0  0  0  0  0  0  0  # atno 17394 bound_to 11000
  140.1423  134.4956  155.8022 LP  0  0  0  0  0  0  0  0  0  0  0  0  # atno 17395 bound_to 11000

$$$$
