AV-unprocessed.smi:2454|AV-procd|sdf|9695|dock8
  -GOLD-   2272013333D 1   1.00000     0.00000
 Structure written by MMmdl.
 42 43  0  0  0  0  0  0  0  0  1 V2000
  151.4755  139.6788  155.3804 C   0  0  0  0  0  0  0  0  0  0  0  0
  152.6752  139.2488  155.9992 O   0  0  0  0  0  0  0  0  0  0  0  0
  152.4459  138.5910  157.2369 C   0  0  0  0  0  0  0  0  0  0  0  0
  151.4916  137.4153  157.1189 C   0  0  0  0  0  0  0  0  0  0  0  0
  150.3607  137.3202  157.9575 C   0  0  0  0  0  0  0  0  0  0  0  0
  149.5218  136.1943  157.7961 C   0  0  0  0  0  0  0  0  0  0  0  0
  148.3871  136.1519  158.6586 N   0  0  0  0  0  0  0  0  0  0  0  0
  148.2188  136.5821  159.9275 C   0  0  0  0  0  0  0  0  0  0  0  0
  149.1385  137.1145  160.5466 O   0  0  0  0  0  0  0  0  0  0  0  0
  147.0013  136.3861  160.4593 N   0  0  0  0  0  0  0  0  0  0  0  0
  146.5675  136.7875  161.7951 C   0  0  2  0  0  0  0  0  0  0  0  0
  147.4679  136.1337  162.8602 C   0  0  0  0  0  0  0  0  0  0  0  0
  147.2431  134.6149  162.9529 C   0  0  0  0  0  0  0  0  0  0  0  0
  145.7628  134.2830  163.1982 C   0  0  0  0  0  0  0  0  0  0  0  0
  144.8503  134.9003  162.1171 C   0  0  1  0  0  0  0  0  0  0  0  0
  143.3646  134.5581  162.3510 C   0  0  0  0  0  0  0  0  0  0  0  0
  142.5824  135.2341  161.5085 F   0  0  0  0  0  0  0  0  0  0  0  0
  143.1633  133.2524  162.1725 F   0  0  0  0  0  0  0  0  0  0  0  0
  143.0170  134.8642  163.6011 F   0  0  0  0  0  0  0  0  0  0  0  0
  145.0853  136.4261  162.0312 C   0  0  0  0  0  0  0  0  0  0  0  0
  149.8220  135.2628  156.8551 N   0  0  0  0  0  0  0  0  0  0  0  0
  150.9164  135.4470  156.1133 C   0  0  0  0  0  0  0  0  0  0  0  0
  151.7674  136.4696  156.1941 N   0  0  0  0  0  0  0  0  0  0  0  0
  151.7066  140.1711  154.4359 H   0  0  0  0  0  0  0  0  0  0  0  0
  150.9409  140.3916  156.0094 H   0  0  0  0  0  0  0  0  0  0  0  0
  150.8168  138.8358  155.1678 H   0  0  0  0  0  0  0  0  0  0  0  0
  153.3914  138.2253  157.6404 H   0  0  0  0  0  0  0  0  0  0  0  0
  152.0348  139.2983  157.9590 H   0  0  0  0  0  0  0  0  0  0  0  0
  150.1494  138.0820  158.6942 H   0  0  0  0  0  0  0  0  0  0  0  0
  147.5825  135.6849  158.2661 H   0  0  0  0  0  0  0  0  0  0  0  0
  146.3080  135.9377  159.8766 H   0  0  0  0  0  0  0  0  0  0  0  0
  146.6815  137.8697  161.8803 H   0  0  0  0  0  0  0  0  0  0  0  0
  148.5172  136.3441  162.6494 H   0  0  0  0  0  0  0  0  0  0  0  0
  147.2579  136.5842  163.8311 H   0  0  0  0  0  0  0  0  0  0  0  0
  147.5793  134.1330  162.0339 H   0  0  0  0  0  0  0  0  0  0  0  0
  147.8528  134.2002  163.7561 H   0  0  0  0  0  0  0  0  0  0  0  0
  145.6362  133.2005  163.2224 H   0  0  0  0  0  0  0  0  0  0  0  0
  145.4687  134.6491  164.1826 H   0  0  0  0  0  0  0  0  0  0  0  0
  145.1324  134.4630  161.1579 H   0  0  0  0  0  0  0  0  0  0  0  0
  144.7532  136.8931  162.9592 H   0  0  0  0  0  0  0  0  0  0  0  0
  144.4684  136.8588  161.2428 H   0  0  0  0  0  0  0  0  0  0  0  0
  151.1331  134.6911  155.3731 H   0  0  0  0  0  0  0  0  0  0  0  0
  1  2  1  0  0  0  0
  1 24  1  0  0  0  0
  1 25  1  0  0  0  0
  1 26  1  0  0  0  0
  2  3  1  0  0  0  0
  3  4  1  0  0  0  0
  3 27  1  0  0  0  0
  3 28  1  0  0  0  0
  4 23  1  0  0  0  0
  4  5  2  0  0  0  0
  5  6  1  0  0  0  0
  5 29  1  0  0  0  0
  6  7  1  0  0  0  0
  6 21  2  0  0  0  0
  7  8  1  0  0  0  0
  7 30  1  0  0  0  0
  8  9  2  0  0  0  0
  8 10  1  0  0  0  0
 10 11  1  0  0  0  0
 10 31  1  0  0  0  0
 11 20  1  0  0  0  0
 11 12  1  0  0  0  0
 11 32  1  0  0  0  0
 12 13  1  0  0  0  0
 12 33  1  0  0  0  0
 12 34  1  0  0  0  0
 13 14  1  0  0  0  0
 13 35  1  0  0  0  0
 13 36  1  0  0  0  0
 14 15  1  0  0  0  0
 14 37  1  0  0  0  0
 14 38  1  0  0  0  0
 15 16  1  0  0  0  0
 15 20  1  0  0  0  0
 15 39  1  0  0  0  0
 16 17  1  0  0  0  0
 16 18  1  0  0  0  0
 16 19  1  0  0  0  0
 20 40  1  0  0  0  0
 20 41  1  0  0  0  0
 21 22  1  0  0  0  0
 22 23  2  0  0  0  0
 22 42  1  0  0  0  0
M  END
> <s_m_source_file>
AV-unprocessed.smi

> <i_m_source_file_index>
2454

> <i_lp_mmshare_version>
43012

> <i_f3d_flags>
0

> <s_epik_input>
W0NIM11PW0NIMl1jMVtjSF1jKG5bY0hdbjEpW05IXUMoPU8pW05IXVtDQEBIXTJbQ0gyXVtDSDJdW0NIMl1bQ0BASF0oQyhGKShGKUYpW0NIMl0y

> <s_epik_cmdline>
J2VwaWtfcHl0aG9uJywgJy1waCcsICc3LjAnLCAnLXRuJywgJzgnLCAnLW1hJywgJzIwMCcsICctbWV0YWxfYmluZGluZycsICctaW1hZScsICc8aW5maWxlLm1hZT4nLCAnLW9tYWUnLCAnPG91dGZpbGUubWFlPic=

> <r_lp_tautomer_probability>
1

> <r_epik_Ionization_Penalty>
3.01554e-05

> <r_epik_Ionization_Penalty_Charging>
0

> <r_epik_Ionization_Penalty_Neutral>
3.01554e-05

> <r_epik_State_Penalty>
-0

> <r_epik_Charging_Adjusted_Penalty>
0

> <i_epik_Tot_Q>
0

> <i_epik_Tot_abs_Q>
0

> <r_epik_Metal_State_Penalty>
-0

> <b_epik_Metal_Only>
0

> <s_lp_Force_Field>
OPLS_2005

> <r_lp_Energy>
13.8487

> <b_lp_Chiralities_Consistent>
1

> <s_lp_Variant>
AV-unprocessed.smi:2454-1

> <Gold.Version>
5.8.1

> <Gold.Id.Protein>
6NUR|6NUR_protein|mol2

> <Gold.PLP.Fitness>
42.3141

> <Gold.PLP.PLP>
-35.3889

> <Gold.PLP.part.hbond>
-3.0000

> <Gold.PLP.part.metal>
0.0000

> <Gold.PLP.part.buried>
-5.1849

> <Gold.PLP.part.nonpolar>
-27.9698

> <Gold.PLP.part.repulsive>
0.2392

> <Gold.PLP.ligand.clash>
0.0000

> <Gold.PLP.ligand.torsion>
0.4316

> <Gold.PLP.Chemscore.Hbond>
2.5873

> <Gold.PLP.Chemscore.CHOScore>
0.0000

> <Gold.PLP.Chemscore.Metal>
0.0000

> <Gold.Chemscore.Hbonds>
donor molecule, donor type, donor heavy atom, donor atom, acceptor molecule, acceptor atom, score
      P1  H  6931  6943       L1     9  0.62
      P1  H  7997  8009       L1     2  1.00
      P1  H 10752 10764       L1    23  0.54

> <Gold.PLP.Chemscore.Internal.Correction>
0.0266

> <Gold.Rescore>
     Score         DG    S(hbond)    S(metal)    S(lipo)     H(rot)  DE(clash)    DE(int)     intcor
     14.11     -15.78       1.90        0.00      68.95       1.60       0.08       1.60       ----

> <Gold.Chemscore.Fitness>
14.1065

> <Gold.Chemscore.DG>
-15.7839

> <Gold.Chemscore.ZeroCoef>
-5.4800

> <Gold.Chemscore.Hbond>
1.8987

> <Gold.Chemscore.Metal>
0.0000

> <Gold.Chemscore.Lipo>
68.9514

> <Gold.Chemscore.Internal_Hbond>
0.0000

> <Gold.Chemscore.DEClash>
0.0785

> <Gold.Chemscore.DEInternal>
1.5989

> <Gold.Chemscore.Rot>
1.6035

> <Gold.Chemscore.Internal.Correction>
   9.000000E+99

> <Gold.Chemscore.Hbonds>
donor molecule, donor type, donor heavy atom, donor atom, acceptor molecule, acceptor atom, score
      P1  H  6931  6943       L1     9  0.62
      P1  H  7997  8009       L1     2  0.45
      P1  H 10752 10764       L1    23  0.03

> <Gold.Chemscore.Hbond.Weighted>
-6.3416

> <Gold.Chemscore.Metal.Weighted>
-0.0000

> <Gold.Chemscore.Lipo.Weighted>
-8.0673

> <Gold.Chemscore.Internal_Hbond.Weighted>
0.0000

> <Gold.Chemscore.DEClash.Weighted>
0.0785

> <Gold.Chemscore.DEInternal.Weighted>
1.5989

> <Gold.Chemscore.Rot.Weighted>
4.1050

> <Gold.Chemscore.Internal.Correction.Weighted>
   9.000000E+99

> <Gold.Protein.RotatedTorsions>
[ 6907 6896 6895 6894 ] final -164.15 input  -60.11 | X-H torsion
[ 7974 7965 7964 7962 ] final  106.10 input  175.53 | X-H torsion
[ 8008 7997 7996 7995 ] final -156.37 input   59.86 | X-H torsion
[ 10167 10162 10161 10158 ] final -150.14 input  -65.29 | X-H torsion
[ 10718 10713 10712 10709 ] final -174.43 input   66.30 | X-H torsion
[ 10763 10752 10751 10750 ] final  -35.08 input  -60.55 | X-H torsion
[ 11005 11000 10999 10996 ] final -166.62 input  -57.11 | X-H torsion

> <Gold.Protein.ActiveResidues>
 VAL166  LYS551  ARG553  GLY616  TRP617  ASP618  TYR619  PRO620  LYS621  CYS622 
 ASP623  PHE694  ASN695  SER759  ASP760  ASP761  ALA762  ILE779  LEU786  VAL792 
 PHE793  MET794  SER795  GLU796  ALA797  LYS798  CYS799  TRP800  GLU811  SER814 

> <Gold.Protein.RotatedAtoms>
  151.4073  133.3738  159.2739 H   0  0  0  0  0  0  0  0  0  0  0  0  # atno 6907 bound_to 6896
  150.9389  134.8801  159.7610 H   0  0  0  0  0  0  0  0  0  0  0  0  # atno 6908 bound_to 6896
  152.5062  134.4022  159.9472 H   0  0  0  0  0  0  0  0  0  0  0  0  # atno 6909 bound_to 6896
  145.3110  139.2540  143.3763 H   0  0  0  0  0  0  0  0  0  0  0  0  # atno 7974 bound_to 7965
  155.7162  140.0784  157.2350 H   0  0  0  0  0  0  0  0  0  0  0  0  # atno 8008 bound_to 7997
  154.4051  140.1621  156.2405 H   0  0  0  0  0  0  0  0  0  0  0  0  # atno 8009 bound_to 7997
  155.9238  140.3396  155.6197 H   0  0  0  0  0  0  0  0  0  0  0  0  # atno 8010 bound_to 7997
  139.7381  143.8705  152.2554 H   0  0  0  0  0  0  0  0  0  0  0  0  # atno 10167 bound_to 10162
  156.7850  130.9497  151.3120 H   0  0  0  0  0  0  0  0  0  0  0  0  # atno 10718 bound_to 10713
  153.8574  135.6843  153.4786 H   0  0  0  0  0  0  0  0  0  0  0  0  # atno 10763 bound_to 10752
  153.1362  135.4677  154.9423 H   0  0  0  0  0  0  0  0  0  0  0  0  # atno 10764 bound_to 10752
  154.7774  135.3258  154.8011 H   0  0  0  0  0  0  0  0  0  0  0  0  # atno 10765 bound_to 10752
  140.5624  134.5320  157.5146 H   0  0  0  0  0  0  0  0  0  0  0  0  # atno 11005 bound_to 11000
  146.3118  140.3646  142.8668 LP  0  0  0  0  0  0  0  0  0  0  0  0  # atno 17320 bound_to 7965
  144.9016  140.7649  143.5863 LP  0  0  0  0  0  0  0  0  0  0  0  0  # atno 17321 bound_to 7965
  139.8647  144.7099  150.9058 LP  0  0  0  0  0  0  0  0  0  0  0  0  # atno 17342 bound_to 10162
  140.7782  143.3788  151.1515 LP  0  0  0  0  0  0  0  0  0  0  0  0  # atno 17343 bound_to 10162
  157.6628  130.8981  149.9866 LP  0  0  0  0  0  0  0  0  0  0  0  0  # atno 17370 bound_to 10713
  156.1194  130.3646  149.9913 LP  0  0  0  0  0  0  0  0  0  0  0  0  # atno 17371 bound_to 10713
  139.9401  134.7802  156.0700 LP  0  0  0  0  0  0  0  0  0  0  0  0  # atno 17394 bound_to 11000
  141.1106  133.6644  156.2970 LP  0  0  0  0  0  0  0  0  0  0  0  0  # atno 17395 bound_to 11000

$$$$
