AV-unprocessed.smi:2026|AV-procd|sdf|8203|dock10
  -GOLD-   2272010463D 1   1.00000     0.00000
 Structure written by MMmdl.
 47 49  0  0  0  0  0  0  0  0  2 V2000
  151.7690  144.9959  160.4911 C   0  0  0  0  0  0  0  0  0  0  0  0
  151.6426  143.8087  159.5518 C   0  0  0  0  0  0  0  0  0  0  0  0
  150.8778  143.9592  158.3722 C   0  0  0  0  0  0  0  0  0  0  0  0
  150.7816  142.8549  157.5332 C   0  0  0  0  0  0  0  0  0  0  0  0
  150.1174  142.6803  156.3166 N   0  3  0  0  0  0  0  0  0  0  0  0
  150.3177  141.4098  155.8667 C   0  0  0  0  0  0  0  0  0  0  0  0
  151.0986  140.7718  156.7796 N   0  0  0  0  0  0  0  0  0  0  0  0
  151.6164  139.3990  156.7972 C   0  0  0  0  0  0  0  0  0  0  0  0
  151.9343  138.8740  155.3816 C   0  0  2  0  0  0  0  0  0  0  0  0
  152.6949  139.8398  154.6851 O   0  0  0  0  0  0  0  0  0  0  0  0
  150.6818  138.5371  154.5468 C   0  0  0  0  0  0  0  0  0  0  0  0
  150.0142  137.3113  155.0027 N   0  0  0  0  0  0  0  0  0  0  0  0
  148.6825  137.1711  155.1331 C   0  0  0  0  0  0  0  0  0  0  0  0
  147.8294  138.0255  154.8990 O   0  0  0  0  0  0  0  0  0  0  0  0
  148.4308  135.9327  155.5769 N   0  0  0  0  0  0  0  0  0  0  0  0
  149.6338  135.1491  155.7794 C   0  0  0  0  0  0  0  0  0  0  0  0
  149.7918  134.7604  157.2603 C   0  0  0  0  0  0  0  0  0  0  0  0
  149.6544  133.9234  154.8485 C   0  0  0  0  0  0  0  0  0  0  0  0
  150.6584  136.1910  155.3577 C   0  0  0  0  0  0  0  0  0  0  0  0
  151.8750  136.0033  155.3671 O   0  0  0  0  0  0  0  0  0  0  0  0
  151.4133  141.6337  157.8346 C   0  0  0  0  0  0  0  0  0  0  0  0
  152.1713  141.4681  158.9906 C   0  0  0  0  0  0  0  0  0  0  0  0
  152.2822  142.5788  159.8563 C   0  0  0  0  0  0  0  0  0  0  0  0
  153.1049  142.4276  161.1245 C   0  0  0  0  0  0  0  0  0  0  0  0
  151.2135  145.8586  160.1220 H   0  0  0  0  0  0  0  0  0  0  0  0
  152.8131  145.2922  160.5949 H   0  0  0  0  0  0  0  0  0  0  0  0
  151.3794  144.7466  161.4784 H   0  0  0  0  0  0  0  0  0  0  0  0
  150.3903  144.8932  158.1330 H   0  0  0  0  0  0  0  0  0  0  0  0
  149.9296  140.9869  154.9513 H   0  0  0  0  0  0  0  0  0  0  0  0
  152.4993  139.3886  157.4365 H   0  0  0  0  0  0  0  0  0  0  0  0
  150.8749  138.7651  157.2856 H   0  0  0  0  0  0  0  0  0  0  0  0
  152.5564  137.9821  155.4578 H   0  0  0  0  0  0  0  0  0  0  0  0
  153.3956  140.1336  155.2470 H   0  0  0  0  0  0  0  0  0  0  0  0
  149.9900  139.3813  154.5608 H   0  0  0  0  0  0  0  0  0  0  0  0
  150.9621  138.4068  153.5000 H   0  0  0  0  0  0  0  0  0  0  0  0
  147.5057  135.5711  155.7587 H   0  0  0  0  0  0  0  0  0  0  0  0
  150.7164  134.2067  157.4281 H   0  0  0  0  0  0  0  0  0  0  0  0
  148.9667  134.1277  157.5887 H   0  0  0  0  0  0  0  0  0  0  0  0
  149.8088  135.6368  157.9092 H   0  0  0  0  0  0  0  0  0  0  0  0
  150.5597  133.3328  154.9924 H   0  0  0  0  0  0  0  0  0  0  0  0
  149.6134  134.2133  153.7972 H   0  0  0  0  0  0  0  0  0  0  0  0
  148.8026  133.2707  155.0411 H   0  0  0  0  0  0  0  0  0  0  0  0
  152.6606  140.5331  159.2177 H   0  0  0  0  0  0  0  0  0  0  0  0
  153.5597  141.4389  161.1897 H   0  0  0  0  0  0  0  0  0  0  0  0
  152.4778  142.5653  162.0055 H   0  0  0  0  0  0  0  0  0  0  0  0
  153.9085  143.1639  161.1513 H   0  0  0  0  0  0  0  0  0  0  0  0
  149.5691  143.3752  155.8264 H   0  0  0  0  0  0  0  0  0  0  0  0
  1  2  1  0  0  0  0
  1 25  1  0  0  0  0
  1 26  1  0  0  0  0
  1 27  1  0  0  0  0
  2 23  1  0  0  0  0
  2  3  2  0  0  0  0
  3  4  1  0  0  0  0
  3 28  1  0  0  0  0
  4 21  2  0  0  0  0
  4  5  1  0  0  0  0
  5  6  2  0  0  0  0
  5 47  1  0  0  0  0
  6  7  1  0  0  0  0
  6 29  1  0  0  0  0
  7  8  1  0  0  0  0
  7 21  1  0  0  0  0
  8  9  1  0  0  0  0
  8 30  1  0  0  0  0
  8 31  1  0  0  0  0
  9 10  1  0  0  0  0
  9 11  1  0  0  0  0
  9 32  1  0  0  0  0
 10 33  1  0  0  0  0
 11 12  1  0  0  0  0
 11 34  1  0  0  0  0
 11 35  1  0  0  0  0
 12 19  1  0  0  0  0
 12 13  1  0  0  0  0
 13 14  2  0  0  0  0
 13 15  1  0  0  0  0
 15 16  1  0  0  0  0
 15 36  1  0  0  0  0
 16 17  1  0  0  0  0
 16 18  1  0  0  0  0
 16 19  1  0  0  0  0
 17 37  1  0  0  0  0
 17 38  1  0  0  0  0
 17 39  1  0  0  0  0
 18 40  1  0  0  0  0
 18 41  1  0  0  0  0
 18 42  1  0  0  0  0
 19 20  2  0  0  0  0
 21 22  1  0  0  0  0
 22 23  2  0  0  0  0
 22 43  1  0  0  0  0
 23 24  1  0  0  0  0
 24 44  1  0  0  0  0
 24 45  1  0  0  0  0
 24 46  1  0  0  0  0
M  CHG  1   5   1
M  END
> <s_m_source_file>
AV-unprocessed.smi

> <i_m_source_file_index>
2026

> <i_lp_mmshare_version>
43012

> <i_f3d_flags>
0

> <s_epik_input>
W0NIM11jKFtjSF0xKWMoW0NIM10pW2NIXWMoYzEyKW4oW2NIXW4yKVtDSDJdW0NASF0oW09IXSlbQ0gyXU4oQzM9TylDKD1PKVtOSF1DMyhbQ0gzXSlbQ0gzXQ==

> <s_epik_cmdline>
J2VwaWtfcHl0aG9uJywgJy1waCcsICc3LjAnLCAnLXRuJywgJzgnLCAnLW1hJywgJzIwMCcsICctbWV0YWxfYmluZGluZycsICctaW1hZScsICc8aW5maWxlLm1hZT4nLCAnLW9tYWUnLCAnPG91dGZpbGUubWFlPic=

> <r_lp_tautomer_probability>
1

> <r_epik_Ionization_Penalty>
1.08255

> <r_epik_Ionization_Penalty_Charging>
1.08249

> <r_epik_Ionization_Penalty_Neutral>
6.65731e-05

> <r_epik_State_Penalty>
1.13805

> <r_epik_Charging_Adjusted_Penalty>
2.22054

> <i_epik_Tot_Q>
1

> <i_epik_Tot_abs_Q>
1

> <r_epik_Metal_State_Penalty>
1.29676

> <b_epik_Metal_Only>
0

> <s_lp_Force_Field>
OPLS_2005

> <r_lp_Energy>
25.6396

> <b_lp_Chiralities_Consistent>
1

> <s_lp_Variant>
AV-unprocessed.smi:2026-3

> <Gold.Version>
5.8.1

> <Gold.Id.Protein>
6NUR|6NUR_protein|mol2

> <Gold.PLP.Fitness>
56.6686

> <Gold.PLP.PLP>
-47.8426

> <Gold.PLP.part.hbond>
-3.9078

> <Gold.PLP.part.metal>
0.0000

> <Gold.PLP.part.buried>
-7.0816

> <Gold.PLP.part.nonpolar>
-38.4786

> <Gold.PLP.part.repulsive>
0.2904

> <Gold.PLP.ligand.clash>
0.0000

> <Gold.PLP.ligand.torsion>
0.7657

> <Gold.PLP.Chemscore.Hbond>
3.4480

> <Gold.PLP.Chemscore.CHOScore>
0.0000

> <Gold.PLP.Chemscore.Metal>
0.0000

> <Gold.Chemscore.Hbonds>
donor molecule, donor type, donor heavy atom, donor atom, acceptor molecule, acceptor atom, score
      L1  H     5    47       P1  8028  1.92
      P1  H  7989  7998       L1    10  0.46
      P1  H 10752 10764       L1    20  0.54

> <Gold.PLP.Chemscore.Internal.Correction>
0.0135

> <Gold.Rescore>
     Score         DG    S(hbond)    S(metal)    S(lipo)     H(rot)  DE(clash)    DE(int)     intcor
     20.06     -20.76       2.56        0.00     112.10       2.49       0.20       0.51       ----

> <Gold.Chemscore.Fitness>
20.0568

> <Gold.Chemscore.DG>
-20.7620

> <Gold.Chemscore.ZeroCoef>
-5.4800

> <Gold.Chemscore.Hbond>
2.5594

> <Gold.Chemscore.Metal>
0.0000

> <Gold.Chemscore.Lipo>
112.0969

> <Gold.Chemscore.Internal_Hbond>
0.0000

> <Gold.Chemscore.DEClash>
0.1956

> <Gold.Chemscore.DEInternal>
0.5095

> <Gold.Chemscore.Rot>
2.4929

> <Gold.Chemscore.Internal.Correction>
   9.000000E+99

> <Gold.Chemscore.Hbonds>
donor molecule, donor type, donor heavy atom, donor atom, acceptor molecule, acceptor atom, score
      L1  H     5    47       P1  8028  0.89
      P1  H  7989  7998       L1    10  0.41
      P1  H 10752 10764       L1    20  0.54

> <Gold.Chemscore.Hbond.Weighted>
-8.5485

> <Gold.Chemscore.Metal.Weighted>
-0.0000

> <Gold.Chemscore.Lipo.Weighted>
-13.1153

> <Gold.Chemscore.Internal_Hbond.Weighted>
0.0000

> <Gold.Chemscore.DEClash.Weighted>
0.1956

> <Gold.Chemscore.DEInternal.Weighted>
0.5095

> <Gold.Chemscore.Rot.Weighted>
6.3819

> <Gold.Chemscore.Internal.Correction.Weighted>
   9.000000E+99

> <Gold.Protein.RotatedTorsions>
[ 6907 6896 6895 6894 ] final -136.60 input  -60.11 | X-H torsion
[ 7974 7965 7964 7962 ] final -149.15 input  175.53 | X-H torsion
[ 8008 7997 7996 7995 ] final  -39.50 input   59.86 | X-H torsion
[ 10167 10162 10161 10158 ] final  -63.61 input  -65.29 | X-H torsion
[ 10718 10713 10712 10709 ] final -159.86 input   66.30 | X-H torsion
[ 10763 10752 10751 10750 ] final  -54.63 input  -60.55 | X-H torsion
[ 11005 11000 10999 10996 ] final   26.67 input  -57.11 | X-H torsion

> <Gold.Protein.ActiveResidues>
 VAL166  LYS551  ARG553  GLY616  TRP617  ASP618  TYR619  PRO620  LYS621  CYS622 
 ASP623  PHE694  ASN695  SER759  ASP760  ASP761  ALA762  ILE779  LEU786  VAL792 
 PHE793  MET794  SER795  GLU796  ALA797  LYS798  CYS799  TRP800  GLU811  SER814 

> <Gold.Protein.RotatedAtoms>
  151.0120  133.5956  159.2681 H   0  0  0  0  0  0  0  0  0  0  0  0  # atno 6907 bound_to 6896
  151.3104  135.0791  159.9280 H   0  0  0  0  0  0  0  0  0  0  0  0  # atno 6908 bound_to 6896
  152.5302  133.9786  159.7850 H   0  0  0  0  0  0  0  0  0  0  0  0  # atno 6909 bound_to 6896
  144.7985  140.5103  143.5723 H   0  0  0  0  0  0  0  0  0  0  0  0  # atno 7974 bound_to 7965
  154.4022  140.1550  156.2873 H   0  0  0  0  0  0  0  0  0  0  0  0  # atno 8008 bound_to 7997
  155.8816  140.3443  155.5870 H   0  0  0  0  0  0  0  0  0  0  0  0  # atno 8009 bound_to 7997
  155.7660  140.0824  157.2122 H   0  0  0  0  0  0  0  0  0  0  0  0  # atno 8010 bound_to 7997
  140.5859  143.2334  151.6244 H   0  0  0  0  0  0  0  0  0  0  0  0  # atno 10167 bound_to 10162
  156.5741  130.8701  151.2846 H   0  0  0  0  0  0  0  0  0  0  0  0  # atno 10718 bound_to 10713
  154.1780  135.6448  153.5026 H   0  0  0  0  0  0  0  0  0  0  0  0  # atno 10763 bound_to 10752
  153.0067  135.5399  154.6544 H   0  0  0  0  0  0  0  0  0  0  0  0  # atno 10764 bound_to 10752
  154.5900  135.2933  155.0617 H   0  0  0  0  0  0  0  0  0  0  0  0  # atno 10765 bound_to 10752
  140.3346  134.2400  155.7698 H   0  0  0  0  0  0  0  0  0  0  0  0  # atno 11005 bound_to 11000
  145.5612  139.1479  143.3340 LP  0  0  0  0  0  0  0  0  0  0  0  0  # atno 17320 bound_to 7965
  146.2260  140.5748  142.8996 LP  0  0  0  0  0  0  0  0  0  0  0  0  # atno 17321 bound_to 7965
  139.5197  144.3245  152.0881 LP  0  0  0  0  0  0  0  0  0  0  0  0  # atno 17342 bound_to 10162
  140.2402  144.4277  150.6263 LP  0  0  0  0  0  0  0  0  0  0  0  0  # atno 17343 bound_to 10162
  157.7341  130.9741  150.2014 LP  0  0  0  0  0  0  0  0  0  0  0  0  # atno 17370 bound_to 10713
  156.2689  130.3719  149.8052 LP  0  0  0  0  0  0  0  0  0  0  0  0  # atno 17371 bound_to 10713
  141.2054  133.7859  157.0231 LP  0  0  0  0  0  0  0  0  0  0  0  0  # atno 17394 bound_to 11000
  140.0832  134.9636  157.1658 LP  0  0  0  0  0  0  0  0  0  0  0  0  # atno 17395 bound_to 11000

$$$$
