AV-unprocessed.smi:3155|AV-procd|sdf|12027|dock2
  -GOLD-   2272017443D 1   1.00000     0.00000
 Structure written by MMmdl.
 37 38  0  0  0  0  0  0  0  0  1 V2000
  145.2100  137.4339  152.9643 C   0  0  0  0  0  0  0  0  0  0  0  0
  145.1499  135.9237  152.6944 C   0  0  2  0  0  0  0  0  0  0  0  0
  145.1379  135.6429  151.1732 C   0  0  0  0  0  0  0  0  0  0  0  0
  145.0396  134.2342  150.8325 N   0  0  0  0  0  0  0  0  0  0  0  0
  143.9761  133.5631  150.2663 C   0  0  0  0  0  0  0  0  0  0  0  0
  144.3492  132.2582  150.1196 C   0  0  0  0  0  0  0  0  0  0  0  0
  145.6832  132.2311  150.6137 C   0  0  0  0  0  0  0  0  0  0  0  0
  146.0967  133.4166  151.0309 N   0  0  0  0  0  0  0  0  0  0  0  0
  143.9330  135.4267  153.3308 N   0  0  0  0  0  0  0  0  0  0  0  0
  142.7066  135.8760  152.6594 C   0  0  0  0  0  0  0  0  0  0  0  0
  141.4841  135.7501  153.5748 C   0  0  0  0  0  0  0  0  0  0  0  0
  141.2656  134.6701  154.1241 O   0  0  0  0  0  0  0  0  0  0  0  0
  140.6832  136.8230  153.7499 N   0  0  0  0  0  0  0  0  0  0  0  0
  140.9288  138.1210  153.1246 C   0  0  0  0  0  0  0  0  0  0  0  0
  139.9613  139.0944  153.7978 C   0  0  0  0  0  0  0  0  0  0  0  0
  138.8135  138.2119  154.2672 C   0  0  0  0  0  0  0  0  0  0  0  0
  139.4758  136.8690  154.5742 C   0  0  0  0  0  0  0  0  0  0  0  0
  146.1109  137.8719  152.5335 H   0  0  0  0  0  0  0  0  0  0  0  0
  145.2259  137.6436  154.0345 H   0  0  0  0  0  0  0  0  0  0  0  0
  144.3521  137.9530  152.5352 H   0  0  0  0  0  0  0  0  0  0  0  0
  146.0344  135.4793  153.1543 H   0  0  0  0  0  0  0  0  0  0  0  0
  144.3171  136.1779  150.6933 H   0  0  0  0  0  0  0  0  0  0  0  0
  146.0555  136.0223  150.7213 H   0  0  0  0  0  0  0  0  0  0  0  0
  143.0498  134.0631  150.0239 H   0  0  0  0  0  0  0  0  0  0  0  0
  143.7610  131.4473  149.7164 H   0  0  0  0  0  0  0  0  0  0  0  0
  146.3597  131.3916  150.6779 H   0  0  0  0  0  0  0  0  0  0  0  0
  143.9398  135.6687  154.3111 H   0  0  0  0  0  0  0  0  0  0  0  0
  142.8069  136.9030  152.3126 H   0  0  0  0  0  0  0  0  0  0  0  0
  142.5350  135.2653  151.7716 H   0  0  0  0  0  0  0  0  0  0  0  0
  141.9637  138.4460  153.2433 H   0  0  0  0  0  0  0  0  0  0  0  0
  140.7171  138.0456  152.0570 H   0  0  0  0  0  0  0  0  0  0  0  0
  140.4458  139.5519  154.6615 H   0  0  0  0  0  0  0  0  0  0  0  0
  139.6363  139.8959  153.1337 H   0  0  0  0  0  0  0  0  0  0  0  0
  138.2822  138.6269  155.1240 H   0  0  0  0  0  0  0  0  0  0  0  0
  138.0947  138.0879  153.4563 H   0  0  0  0  0  0  0  0  0  0  0  0
  138.7968  136.0435  154.3596 H   0  0  0  0  0  0  0  0  0  0  0  0
  139.7594  136.8166  155.6263 H   0  0  0  0  0  0  0  0  0  0  0  0
  1  2  1  0  0  0  0
  1 18  1  0  0  0  0
  1 19  1  0  0  0  0
  1 20  1  0  0  0  0
  2  3  1  0  0  0  0
  2  9  1  0  0  0  0
  2 21  1  0  0  0  0
  3  4  1  0  0  0  0
  3 22  1  0  0  0  0
  3 23  1  0  0  0  0
  4  8  1  0  0  0  0
  4  5  1  0  0  0  0
  5  6  2  0  0  0  0
  5 24  1  0  0  0  0
  6  7  1  0  0  0  0
  6 25  1  0  0  0  0
  7  8  2  0  0  0  0
  7 26  1  0  0  0  0
  9 10  1  0  0  0  0
  9 27  1  0  0  0  0
 10 11  1  0  0  0  0
 10 28  1  0  0  0  0
 10 29  1  0  0  0  0
 11 12  2  0  0  0  0
 11 13  1  0  0  0  0
 13 17  1  0  0  0  0
 13 14  1  0  0  0  0
 14 15  1  0  0  0  0
 14 30  1  0  0  0  0
 14 31  1  0  0  0  0
 15 16  1  0  0  0  0
 15 32  1  0  0  0  0
 15 33  1  0  0  0  0
 16 17  1  0  0  0  0
 16 34  1  0  0  0  0
 16 35  1  0  0  0  0
 17 36  1  0  0  0  0
 17 37  1  0  0  0  0
M  END
> <s_m_source_file>
AV-unprocessed.smi

> <i_m_source_file_index>
3155

> <i_lp_mmshare_version>
43012

> <i_f3d_flags>
0

> <s_epik_input>
bjFbY0hdW2NIXVtjSF1uMVtDSDJdW0NAQEhdKFtDSDNdKVtOSF1bQ0gyXUMoPU8pTjJbQ0gyXVtDSDJdW0NIMl1bQ0gyXTI=

> <s_epik_cmdline>
J2VwaWtfcHl0aG9uJywgJy1waCcsICc3LjAnLCAnLXRuJywgJzgnLCAnLW1hJywgJzIwMCcsICctbWV0YWxfYmluZGluZycsICctaW1hZScsICc8aW5maWxlLm1hZT4nLCAnLW9tYWUnLCAnPG91dGZpbGUubWFlPic=

> <r_lp_tautomer_probability>
1

> <r_epik_Ionization_Penalty>
1.00455

> <r_epik_Ionization_Penalty_Charging>
0

> <r_epik_Ionization_Penalty_Neutral>
1.00455

> <r_epik_State_Penalty>
1.05336

> <r_epik_Charging_Adjusted_Penalty>
1.05336

> <i_epik_Tot_Q>
0

> <i_epik_Tot_abs_Q>
0

> <r_epik_Metal_State_Penalty>
1.05331

> <b_epik_Metal_Only>
0

> <s_lp_Force_Field>
OPLS_2005

> <r_lp_Energy>
30.8586

> <b_lp_Chiralities_Consistent>
1

> <s_lp_Variant>
AV-unprocessed.smi:3155-3

> <Gold.Version>
5.8.1

> <Gold.Id.Protein>
6NUR|6NUR_protein|mol2

> <Gold.PLP.Fitness>
43.2171

> <Gold.PLP.PLP>
-34.7467

> <Gold.PLP.part.hbond>
-1.6173

> <Gold.PLP.part.metal>
0.0000

> <Gold.PLP.part.buried>
-7.7342

> <Gold.PLP.part.nonpolar>
-26.1857

> <Gold.PLP.part.repulsive>
0.3613

> <Gold.PLP.ligand.clash>
0.0000

> <Gold.PLP.ligand.torsion>
0.3051

> <Gold.PLP.Chemscore.Hbond>
1.0000

> <Gold.PLP.Chemscore.CHOScore>
2.0000

> <Gold.PLP.Chemscore.Metal>
0.0000

> <Gold.Chemscore.Hbonds>
donor molecule, donor type, donor heavy atom, donor atom, acceptor molecule, acceptor atom, score
      P1  H 11000 11005       L1    12  1.00
      L1  C     5    24       P1 10186  1.00
      L1  C     7    26       P1 10747  0.59

> <Gold.PLP.Chemscore.Internal.Correction>
0.0805

> <Gold.Rescore>
     Score         DG    S(hbond)    S(metal)    S(lipo)     H(rot)  DE(clash)    DE(int)     intcor
     12.50     -12.81       0.97        0.00      73.74       1.77       0.09       0.22       ----

> <Gold.Chemscore.Fitness>
12.5050

> <Gold.Chemscore.DG>
-12.8111

> <Gold.Chemscore.ZeroCoef>
-5.4800

> <Gold.Chemscore.Hbond>
0.9680

> <Gold.Chemscore.Metal>
0.0000

> <Gold.Chemscore.Lipo>
73.7369

> <Gold.Chemscore.Internal_Hbond>
0.0000

> <Gold.Chemscore.DEClash>
0.0861

> <Gold.Chemscore.DEInternal>
0.2200

> <Gold.Chemscore.Rot>
1.7693

> <Gold.Chemscore.Internal.Correction>
   9.000000E+99

> <Gold.Chemscore.Hbonds>
donor molecule, donor type, donor heavy atom, donor atom, acceptor molecule, acceptor atom, score
      P1  H 11000 11005       L1    12  0.96

> <Gold.Chemscore.Hbond.Weighted>
-3.2332

> <Gold.Chemscore.Metal.Weighted>
-0.0000

> <Gold.Chemscore.Lipo.Weighted>
-8.6272

> <Gold.Chemscore.Internal_Hbond.Weighted>
0.0000

> <Gold.Chemscore.DEClash.Weighted>
0.0861

> <Gold.Chemscore.DEInternal.Weighted>
0.2200

> <Gold.Chemscore.Rot.Weighted>
4.5294

> <Gold.Chemscore.Internal.Correction.Weighted>
   9.000000E+99

> <Gold.Protein.RotatedTorsions>
[ 6907 6896 6895 6894 ] final -122.01 input  -60.11 | X-H torsion
[ 7974 7965 7964 7962 ] final  161.80 input  175.53 | X-H torsion
[ 8008 7997 7996 7995 ] final  -17.74 input   59.86 | X-H torsion
[ 10167 10162 10161 10158 ] final -107.73 input  -65.29 | X-H torsion
[ 10718 10713 10712 10709 ] final -122.19 input   66.30 | X-H torsion
[ 10763 10752 10751 10750 ] final   97.26 input  -60.55 | X-H torsion
[ 11005 11000 10999 10996 ] final    3.65 input  -57.11 | X-H torsion

> <Gold.Protein.ActiveResidues>
 VAL166  LYS551  ARG553  GLY616  TRP617  ASP618  TYR619  PRO620  LYS621  CYS622 
 ASP623  PHE694  ASN695  SER759  ASP760  ASP761  ALA762  ILE779  LEU786  VAL792 
 PHE793  MET794  SER795  GLU796  ALA797  LYS798  CYS799  TRP800  GLU811  SER814 

> <Gold.Protein.RotatedAtoms>
  150.8536  133.7749  159.3016 H   0  0  0  0  0  0  0  0  0  0  0  0  # atno 6907 bound_to 6896
  151.5413  135.1067  159.9936 H   0  0  0  0  0  0  0  0  0  0  0  0  # atno 6908 bound_to 6896
  152.4572  133.7704  159.6852 H   0  0  0  0  0  0  0  0  0  0  0  0  # atno 6909 bound_to 6896
  144.7668  139.7950  143.6312 H   0  0  0  0  0  0  0  0  0  0  0  0  # atno 7974 bound_to 7965
  154.4956  140.2134  155.9453 H   0  0  0  0  0  0  0  0  0  0  0  0  # atno 8008 bound_to 7997
  156.1366  140.3187  155.8398 H   0  0  0  0  0  0  0  0  0  0  0  0  # atno 8009 bound_to 7997
  155.4198  140.0496  157.3017 H   0  0  0  0  0  0  0  0  0  0  0  0  # atno 8010 bound_to 7997
  140.1738  143.4022  152.1334 H   0  0  0  0  0  0  0  0  0  0  0  0  # atno 10167 bound_to 10162
  156.1398  130.6457  150.9753 H   0  0  0  0  0  0  0  0  0  0  0  0  # atno 10718 bound_to 10713
  153.2748  135.4189  155.1022 H   0  0  0  0  0  0  0  0  0  0  0  0  # atno 10763 bound_to 10752
  154.8469  135.3481  154.6194 H   0  0  0  0  0  0  0  0  0  0  0  0  # atno 10764 bound_to 10752
  153.6614  135.7048  153.5233 H   0  0  0  0  0  0  0  0  0  0  0  0  # atno 10765 bound_to 10752
  140.5907  133.9926  155.8087 H   0  0  0  0  0  0  0  0  0  0  0  0  # atno 11005 bound_to 11000
  146.1781  139.4961  142.9884 LP  0  0  0  0  0  0  0  0  0  0  0  0  # atno 17320 bound_to 7965
  145.6447  141.0276  143.1793 LP  0  0  0  0  0  0  0  0  0  0  0  0  # atno 17321 bound_to 7965
  139.5326  144.7176  151.5002 LP  0  0  0  0  0  0  0  0  0  0  0  0  # atno 17342 bound_to 10162
  140.6565  143.8588  150.6841 LP  0  0  0  0  0  0  0  0  0  0  0  0  # atno 17343 bound_to 10162
  157.6565  131.0888  150.7935 LP  0  0  0  0  0  0  0  0  0  0  0  0  # atno 17370 bound_to 10713
  156.8011  130.4921  149.5369 LP  0  0  0  0  0  0  0  0  0  0  0  0  # atno 17371 bound_to 10713
  141.0936  133.9878  157.3196 LP  0  0  0  0  0  0  0  0  0  0  0  0  # atno 17394 bound_to 11000
  139.9275  135.0201  156.8286 LP  0  0  0  0  0  0  0  0  0  0  0  0  # atno 17395 bound_to 11000

$$$$
