AV-unprocessed.smi:1883|AV-procd|sdf|7642|dock10
  -GOLD-   22720 9373D 1   1.00000     0.00000
 Structure written by MMmdl.
 35 37  0  0  0  0  0  0  0  0  1 V2000
  152.5613  139.0396  155.6589 C   0  0  0  0  0  0  0  0  0  0  0  0
  151.2591  139.7734  155.6022 C   0  0  0  0  0  0  0  0  0  0  0  0
  150.6465  140.0450  154.4493 N   0  0  0  0  0  0  0  0  0  0  0  0
  149.5113  140.7167  154.8604 C   0  0  0  0  0  0  0  0  0  0  0  0
  148.4494  141.2713  154.1107 C   0  0  0  0  0  0  0  0  0  0  0  0
  147.3810  141.9235  154.7607 C   0  0  0  0  0  0  0  0  0  0  0  0
  147.3584  142.0299  156.1667 C   0  0  0  0  0  0  0  0  0  0  0  0
  148.4055  141.4824  156.9329 C   0  0  0  0  0  0  0  0  0  0  0  0
  149.4696  140.8332  156.2787 C   0  0  0  0  0  0  0  0  0  0  0  0
  150.6279  140.2036  156.7226 N   0  0  0  0  0  0  0  0  0  0  0  0
  151.0435  140.0538  158.1106 C   0  0  0  0  0  0  0  0  0  0  0  0
  152.4150  140.6988  158.3918 C   0  0  2  0  0  0  0  0  0  0  0  0
  153.3661  139.6960  158.6967 O   0  0  0  0  0  0  0  0  0  0  0  0
  152.3112  141.7547  159.4840 C   0  0  0  0  0  0  0  0  0  0  0  0
  152.7452  141.4691  160.7983 C   0  0  0  0  0  0  0  0  0  0  0  0
  152.6407  142.4423  161.8107 C   0  0  0  0  0  0  0  0  0  0  0  0
  153.0601  142.1601  163.0668 F   0  0  0  0  0  0  0  0  0  0  0  0
  152.0982  143.7076  161.5174 C   0  0  0  0  0  0  0  0  0  0  0  0
  151.6560  143.9970  160.2127 C   0  0  0  0  0  0  0  0  0  0  0  0
  151.7585  143.0242  159.1986 C   0  0  0  0  0  0  0  0  0  0  0  0
  151.3180  143.3164  157.9511 F   0  0  0  0  0  0  0  0  0  0  0  0
  152.9415  138.8572  154.6534 H   0  0  0  0  0  0  0  0  0  0  0  0
  152.4301  138.0787  156.1567 H   0  0  0  0  0  0  0  0  0  0  0  0
  153.3038  139.6222  156.2039 H   0  0  0  0  0  0  0  0  0  0  0  0
  148.4574  141.1948  153.0335 H   0  0  0  0  0  0  0  0  0  0  0  0
  146.5751  142.3444  154.1777 H   0  0  0  0  0  0  0  0  0  0  0  0
  146.5365  142.5314  156.6564 H   0  0  0  0  0  0  0  0  0  0  0  0
  148.3920  141.5616  158.0098 H   0  0  0  0  0  0  0  0  0  0  0  0
  150.2813  140.5185  158.7372 H   0  0  0  0  0  0  0  0  0  0  0  0
  151.0528  138.9974  158.3803 H   0  0  0  0  0  0  0  0  0  0  0  0
  152.7697  141.1805  157.4802 H   0  0  0  0  0  0  0  0  0  0  0  0
  153.4513  139.6389  159.6361 H   0  0  0  0  0  0  0  0  0  0  0  0
  153.1576  140.4994  161.0371 H   0  0  0  0  0  0  0  0  0  0  0  0
  152.0182  144.4543  162.2937 H   0  0  0  0  0  0  0  0  0  0  0  0
  151.2349  144.9662  159.9895 H   0  0  0  0  0  0  0  0  0  0  0  0
  1  2  1  0  0  0  0
  1 22  1  0  0  0  0
  1 23  1  0  0  0  0
  1 24  1  0  0  0  0
  2 10  1  0  0  0  0
  2  3  2  0  0  0  0
  3  4  1  0  0  0  0
  4  9  2  0  0  0  0
  4  5  1  0  0  0  0
  5  6  2  0  0  0  0
  5 25  1  0  0  0  0
  6  7  1  0  0  0  0
  6 26  1  0  0  0  0
  7  8  2  0  0  0  0
  7 27  1  0  0  0  0
  8  9  1  0  0  0  0
  8 28  1  0  0  0  0
  9 10  1  0  0  0  0
 10 11  1  0  0  0  0
 11 12  1  0  0  0  0
 11 29  1  0  0  0  0
 11 30  1  0  0  0  0
 12 13  1  0  0  0  0
 12 14  1  0  0  0  0
 12 31  1  0  0  0  0
 13 32  1  0  0  0  0
 14 20  1  0  0  0  0
 14 15  2  0  0  0  0
 15 16  1  0  0  0  0
 15 33  1  0  0  0  0
 16 17  1  0  0  0  0
 16 18  2  0  0  0  0
 18 19  1  0  0  0  0
 18 34  1  0  0  0  0
 19 20  2  0  0  0  0
 19 35  1  0  0  0  0
 20 21  1  0  0  0  0
M  END
> <s_m_source_file>
AV-unprocessed.smi

> <i_m_source_file_index>
1883

> <i_lp_mmshare_version>
43012

> <i_f3d_flags>
0

> <s_epik_input>
W2NIXTFbY0hdW2NIXVtjSF1jKGMxMiluKGMobjIpW0NIM10pW0NIMl1bQ0BIXShbT0hdKWMzW2NIXWMoRilbY0hdW2NIXWMzRg==

> <s_epik_cmdline>
J2VwaWtfcHl0aG9uJywgJy1waCcsICc3LjAnLCAnLXRuJywgJzgnLCAnLW1hJywgJzIwMCcsICctbWV0YWxfYmluZGluZycsICctaW1hZScsICc8aW5maWxlLm1hZT4nLCAnLW9tYWUnLCAnPG91dGZpbGUubWFlPic=

> <r_epik_Ionization_Penalty>
0.129664

> <r_epik_Ionization_Penalty_Charging>
0

> <r_epik_Ionization_Penalty_Neutral>
0.129664

> <r_epik_State_Penalty>
0.119073

> <r_epik_Charging_Adjusted_Penalty>
0.119073

> <i_epik_Tot_Q>
0

> <i_epik_Tot_abs_Q>
0

> <r_epik_Metal_State_Penalty>
0.000131867

> <b_epik_Metal_Only>
0

> <s_lp_Force_Field>
OPLS_2005

> <r_lp_Energy>
11.5832

> <b_lp_Chiralities_Consistent>
1

> <s_lp_Variant>
AV-unprocessed.smi:1883-1

> <Gold.Version>
5.8.1

> <Gold.Id.Protein>
6NUR|6NUR_protein|mol2

> <Gold.PLP.Fitness>
55.9661

> <Gold.PLP.PLP>
-52.4453

> <Gold.PLP.part.hbond>
-2.0000

> <Gold.PLP.part.metal>
0.0000

> <Gold.PLP.part.buried>
-3.8797

> <Gold.PLP.part.nonpolar>
-47.3365

> <Gold.PLP.part.repulsive>
0.1102

> <Gold.PLP.ligand.clash>
0.0000

> <Gold.PLP.ligand.torsion>
1.2515

> <Gold.PLP.Chemscore.Hbond>
2.0000

> <Gold.PLP.Chemscore.CHOScore>
0.0000

> <Gold.PLP.Chemscore.Metal>
0.0000

> <Gold.Chemscore.Hbonds>
donor molecule, donor type, donor heavy atom, donor atom, acceptor molecule, acceptor atom, score
      P1  H  7989  7998       L1     3  1.00
      P1  H  7997  8010       L1    13  0.84

> <Gold.PLP.Chemscore.Internal.Correction>
0.0238

> <Gold.Rescore>
     Score         DG    S(hbond)    S(metal)    S(lipo)     H(rot)  DE(clash)    DE(int)     intcor
     17.07     -18.80       1.39        0.00     115.51       1.88       0.01       1.73       ----

> <Gold.Chemscore.Fitness>
17.0689

> <Gold.Chemscore.DG>
-18.8025

> <Gold.Chemscore.ZeroCoef>
-5.4800

> <Gold.Chemscore.Hbond>
1.3864

> <Gold.Chemscore.Metal>
0.0000

> <Gold.Chemscore.Lipo>
115.5102

> <Gold.Chemscore.Internal_Hbond>
0.0000

> <Gold.Chemscore.DEClash>
0.0062

> <Gold.Chemscore.DEInternal>
1.7274

> <Gold.Chemscore.Rot>
1.8839

> <Gold.Chemscore.Internal.Correction>
   9.000000E+99

> <Gold.Chemscore.Hbonds>
donor molecule, donor type, donor heavy atom, donor atom, acceptor molecule, acceptor atom, score
      P1  H  7989  7998       L1     3  0.66
      P1  H  7997  8010       L1    13  0.24

> <Gold.Chemscore.Hbond.Weighted>
-4.6305

> <Gold.Chemscore.Metal.Weighted>
-0.0000

> <Gold.Chemscore.Lipo.Weighted>
-13.5147

> <Gold.Chemscore.Internal_Hbond.Weighted>
0.0000

> <Gold.Chemscore.DEClash.Weighted>
0.0062

> <Gold.Chemscore.DEInternal.Weighted>
1.7274

> <Gold.Chemscore.Rot.Weighted>
4.8227

> <Gold.Chemscore.Internal.Correction.Weighted>
   9.000000E+99

> <Gold.Protein.RotatedTorsions>
[ 6907 6896 6895 6894 ] final -143.38 input  -60.11 | X-H torsion
[ 7974 7965 7964 7962 ] final   16.02 input  175.53 | X-H torsion
[ 8008 7997 7996 7995 ] final   18.34 input   59.86 | X-H torsion
[ 10167 10162 10161 10158 ] final  112.91 input  -65.29 | X-H torsion
[ 10718 10713 10712 10709 ] final  -64.23 input   66.30 | X-H torsion
[ 10763 10752 10751 10750 ] final    0.71 input  -60.55 | X-H torsion
[ 11005 11000 10999 10996 ] final  170.09 input  -57.11 | X-H torsion

> <Gold.Protein.ActiveResidues>
 VAL166  LYS551  ARG553  GLY616  TRP617  ASP618  TYR619  PRO620  LYS621  CYS622 
 ASP623  PHE694  ASN695  SER759  ASP760  ASP761  ALA762  ILE779  LEU786  VAL792 
 PHE793  MET794  SER795  GLU796  ALA797  LYS798  CYS799  TRP800  GLU811  SER814 

> <Gold.Protein.RotatedAtoms>
  151.0997  133.5253  159.2610 H   0  0  0  0  0  0  0  0  0  0  0  0  # atno 6907 bound_to 6896
  151.2088  135.0472  159.8913 H   0  0  0  0  0  0  0  0  0  0  0  0  # atno 6908 bound_to 6896
  152.5442  134.0815  159.8291 H   0  0  0  0  0  0  0  0  0  0  0  0  # atno 6909 bound_to 6896
  146.2261  139.8808  142.8571 H   0  0  0  0  0  0  0  0  0  0  0  0  # atno 7974 bound_to 7965
  154.9045  140.3005  155.5299 H   0  0  0  0  0  0  0  0  0  0  0  0  # atno 8008 bound_to 7997
  156.3017  140.2400  156.4012 H   0  0  0  0  0  0  0  0  0  0  0  0  # atno 8009 bound_to 7997
  154.8487  140.0410  157.1579 H   0  0  0  0  0  0  0  0  0  0  0  0  # atno 8010 bound_to 7997
  139.6500  144.7128  151.2066 H   0  0  0  0  0  0  0  0  0  0  0  0  # atno 10167 bound_to 10162
  156.0742  130.4231  150.1390 H   0  0  0  0  0  0  0  0  0  0  0  0  # atno 10718 bound_to 10713
  153.3172  135.6967  153.7063 H   0  0  0  0  0  0  0  0  0  0  0  0  # atno 10763 bound_to 10752
  153.5917  135.3478  155.2914 H   0  0  0  0  0  0  0  0  0  0  0  0  # atno 10764 bound_to 10752
  154.8589  135.4319  154.2326 H   0  0  0  0  0  0  0  0  0  0  0  0  # atno 10765 bound_to 10752
  140.3046  134.7567  157.3943 H   0  0  0  0  0  0  0  0  0  0  0  0  # atno 11005 bound_to 11000
  145.2514  141.0045  143.3879 LP  0  0  0  0  0  0  0  0  0  0  0  0  # atno 17320 bound_to 7965
  144.9371  139.4231  143.6467 LP  0  0  0  0  0  0  0  0  0  0  0  0  # atno 17321 bound_to 7965
  140.7533  143.6166  150.8554 LP  0  0  0  0  0  0  0  0  0  0  0  0  # atno 17342 bound_to 10162
  139.9813  143.5948  152.2942 LP  0  0  0  0  0  0  0  0  0  0  0  0  # atno 17343 bound_to 10162
  156.9435  130.9752  151.3512 LP  0  0  0  0  0  0  0  0  0  0  0  0  # atno 17370 bound_to 10713
  157.5829  130.8389  149.8547 LP  0  0  0  0  0  0  0  0  0  0  0  0  # atno 17371 bound_to 10713
  140.1078  134.5386  155.8293 LP  0  0  0  0  0  0  0  0  0  0  0  0  # atno 17394 bound_to 11000
  141.2121  133.6715  156.6632 LP  0  0  0  0  0  0  0  0  0  0  0  0  # atno 17395 bound_to 11000

$$$$
