AV-unprocessed.smi:2889|AV-procd|sdf|11114|dock10
  -GOLD-   2272015583D 1   1.00000     0.00000
 Structure written by MMmdl.
 35 36  0  0  0  0  0  0  0  0  2 V2000
  153.6170  142.3445  162.6702 C   0  0  0  0  0  0  0  0  0  0  0  0
  153.4328  141.6425  161.0064 S   0  0  0  0  0  0  0  0  0  0  0  0
  153.0261  143.1247  160.0210 C   0  0  2  0  0  0  0  0  0  0  0  0
  152.1434  144.1021  160.8449 C   0  0  0  0  0  0  0  0  0  0  0  0
  151.8315  145.4103  160.0884 C   0  0  0  0  0  0  0  0  0  0  0  0
  151.2141  145.0835  158.7135 C   0  0  0  0  0  0  0  0  0  0  0  0
  152.0849  144.1042  157.8840 C   0  0  0  0  0  0  0  0  0  0  0  0
  152.4303  142.7843  158.6213 C   0  0  2  0  0  0  0  0  0  0  0  0
  151.2351  141.9596  158.7521 N   0  5  0  0  0  0  0  0  0  0  0  0
  151.1930  140.4832  158.0846 S   0  0  0  0  0  0  0  0  0  0  0  0
  152.2618  139.6002  158.5811 O   0  0  0  0  0  0  0  0  0  0  0  0
  149.8291  139.9305  158.0520 O   0  0  0  0  0  0  0  0  0  0  0  0
  151.6138  140.8876  156.3322 C   0  0  0  0  0  0  0  0  0  0  0  0
  151.2153  139.7625  155.4168 C   0  0  0  0  0  0  0  0  0  0  0  0
  151.6849  138.4197  155.4109 C   0  0  0  0  0  0  0  0  0  0  0  0
  150.9948  137.8446  154.3835 C   0  0  0  0  0  0  0  0  0  0  0  0
  150.1600  138.7459  153.8079 O   0  0  0  0  0  0  0  0  0  0  0  0
  150.3034  139.9659  154.4780 N   0  0  0  0  0  0  0  0  0  0  0  0
  153.8172  141.5501  163.3888 H   0  0  0  0  0  0  0  0  0  0  0  0
  152.7043  142.8588  162.9709 H   0  0  0  0  0  0  0  0  0  0  0  0
  154.4455  143.0517  162.7053 H   0  0  0  0  0  0  0  0  0  0  0  0
  153.9737  143.6382  159.8536 H   0  0  0  0  0  0  0  0  0  0  0  0
  151.2079  143.6183  161.1333 H   0  0  0  0  0  0  0  0  0  0  0  0
  152.6489  144.3461  161.7796 H   0  0  0  0  0  0  0  0  0  0  0  0
  151.1540  146.0347  160.6713 H   0  0  0  0  0  0  0  0  0  0  0  0
  152.7495  145.9830  159.9518 H   0  0  0  0  0  0  0  0  0  0  0  0
  150.2133  144.6698  158.8539 H   0  0  0  0  0  0  0  0  0  0  0  0
  151.0743  146.0073  158.1517 H   0  0  0  0  0  0  0  0  0  0  0  0
  151.5955  143.8919  156.9329 H   0  0  0  0  0  0  0  0  0  0  0  0
  153.0168  144.6090  157.6268 H   0  0  0  0  0  0  0  0  0  0  0  0
  153.1993  142.2665  158.0468 H   0  0  0  0  0  0  0  0  0  0  0  0
  151.0735  141.7952  156.0662 H   0  0  0  0  0  0  0  0  0  0  0  0
  152.6791  141.1116  156.2703 H   0  0  0  0  0  0  0  0  0  0  0  0
  152.4191  137.9571  156.0533 H   0  0  0  0  0  0  0  0  0  0  0  0
  150.9854  136.8511  153.9608 H   0  0  0  0  0  0  0  0  0  0  0  0
  1  2  1  0  0  0  0
  1 19  1  0  0  0  0
  1 20  1  0  0  0  0
  1 21  1  0  0  0  0
  2  3  1  0  0  0  0
  3  8  1  0  0  0  0
  3  4  1  0  0  0  0
  3 22  1  0  0  0  0
  4  5  1  0  0  0  0
  4 23  1  0  0  0  0
  4 24  1  0  0  0  0
  5  6  1  0  0  0  0
  5 25  1  0  0  0  0
  5 26  1  0  0  0  0
  6  7  1  0  0  0  0
  6 27  1  0  0  0  0
  6 28  1  0  0  0  0
  7  8  1  0  0  0  0
  7 29  1  0  0  0  0
  7 30  1  0  0  0  0
  8  9  1  0  0  0  0
  8 31  1  0  0  0  0
  9 10  1  0  0  0  0
 10 11  2  0  0  0  0
 10 12  2  0  0  0  0
 10 13  1  0  0  0  0
 13 14  1  0  0  0  0
 13 32  1  0  0  0  0
 13 33  1  0  0  0  0
 14 18  2  0  0  0  0
 14 15  1  0  0  0  0
 15 16  2  0  0  0  0
 15 34  1  0  0  0  0
 16 17  1  0  0  0  0
 16 35  1  0  0  0  0
 17 18  1  0  0  0  0
M  CHG  1   9  -1
M  END
> <s_m_source_file>
AV-unprocessed.smi

> <i_m_source_file_index>
2889

> <i_lp_mmshare_version>
43012

> <i_f3d_flags>
0

> <s_epik_input>
W0NIM11TW0NAQEhdMVtDSDJdW0NIMl1bQ0gyXVtDSDJdW0NASF0xW05IXVMoPU8pKD1PKVtDSDJdYzJbY0hdW2NIXW9uMg==

> <s_epik_cmdline>
J2VwaWtfcHl0aG9uJywgJy1waCcsICc3LjAnLCAnLXRuJywgJzgnLCAnLW1hJywgJzIwMCcsICctbWV0YWxfYmluZGluZycsICctaW1hZScsICc8aW5maWxlLm1hZT4nLCAnLW9tYWUnLCAnPG91dGZpbGUubWFlPic=

> <r_lp_tautomer_probability>
1

> <r_epik_Ionization_Penalty>
4.65467

> <r_epik_Ionization_Penalty_Charging>
4.65467

> <r_epik_Ionization_Penalty_Neutral>
2.71476e-10

> <r_epik_State_Penalty>
4.65444

> <r_epik_Charging_Adjusted_Penalty>
9.30911

> <i_epik_Tot_Q>
-1

> <i_epik_Tot_abs_Q>
1

> <r_epik_Metal_State_Penalty>
0.901484

> <b_epik_Metal_Only>
1

> <s_lp_Force_Field>
OPLS_2005

> <r_lp_Energy>
12.0464

> <b_lp_Chiralities_Consistent>
1

> <s_lp_Variant>
AV-unprocessed.smi:2889-7

> <Gold.Version>
5.8.1

> <Gold.Id.Protein>
6NUR|6NUR_protein|mol2

> <Gold.PLP.Fitness>
48.6485

> <Gold.PLP.PLP>
-45.5984

> <Gold.PLP.part.hbond>
-1.0000

> <Gold.PLP.part.metal>
0.0000

> <Gold.PLP.part.buried>
-5.1572

> <Gold.PLP.part.nonpolar>
-37.8975

> <Gold.PLP.part.repulsive>
0.8122

> <Gold.PLP.ligand.clash>
0.0000

> <Gold.PLP.ligand.torsion>
1.0991

> <Gold.PLP.Chemscore.Hbond>
0.6000

> <Gold.PLP.Chemscore.CHOScore>
0.8067

> <Gold.PLP.Chemscore.Metal>
0.0000

> <Gold.Chemscore.Hbonds>
donor molecule, donor type, donor heavy atom, donor atom, acceptor molecule, acceptor atom, score
      P1  H  7989  7998       L1    18  0.40
      L1  C    16    35       P1  7949  0.77

> <Gold.PLP.Chemscore.Internal.Correction>
1.0284

> <Gold.Rescore>
     Score         DG    S(hbond)    S(metal)    S(lipo)     H(rot)  DE(clash)    DE(int)     intcor
     15.14     -16.21       0.03        0.00     124.53       1.53       0.02       1.06       ----

> <Gold.Chemscore.Fitness>
15.1408

> <Gold.Chemscore.DG>
-16.2137

> <Gold.Chemscore.ZeroCoef>
-5.4800

> <Gold.Chemscore.Hbond>
0.0253

> <Gold.Chemscore.Metal>
0.0000

> <Gold.Chemscore.Lipo>
124.5274

> <Gold.Chemscore.Internal_Hbond>
0.0000

> <Gold.Chemscore.DEClash>
0.0163

> <Gold.Chemscore.DEInternal>
1.0566

> <Gold.Chemscore.Rot>
1.5314

> <Gold.Chemscore.Internal.Correction>
   9.000000E+99

> <Gold.Chemscore.Hbond.Weighted>
-0.0844

> <Gold.Chemscore.Metal.Weighted>
-0.0000

> <Gold.Chemscore.Lipo.Weighted>
-14.5697

> <Gold.Chemscore.Internal_Hbond.Weighted>
0.0000

> <Gold.Chemscore.DEClash.Weighted>
0.0163

> <Gold.Chemscore.DEInternal.Weighted>
1.0566

> <Gold.Chemscore.Rot.Weighted>
3.9205

> <Gold.Chemscore.Internal.Correction.Weighted>
   9.000000E+99

> <Gold.Protein.RotatedTorsions>
[ 6907 6896 6895 6894 ] final   27.89 input  -60.11 | X-H torsion
[ 7974 7965 7964 7962 ] final   19.51 input  175.53 | X-H torsion
[ 8008 7997 7996 7995 ] final -164.11 input   59.86 | X-H torsion
[ 10167 10162 10161 10158 ] final  -53.52 input  -65.29 | X-H torsion
[ 10718 10713 10712 10709 ] final  -61.67 input   66.30 | X-H torsion
[ 10763 10752 10751 10750 ] final  -55.32 input  -60.55 | X-H torsion
[ 11005 11000 10999 10996 ] final   30.38 input  -57.11 | X-H torsion

> <Gold.Protein.ActiveResidues>
 VAL166  LYS551  ARG553  GLY616  TRP617  ASP618  TYR619  PRO620  LYS621  CYS622 
 ASP623  PHE694  ASN695  SER759  ASP760  ASP761  ALA762  ILE779  LEU786  VAL792 
 PHE793  MET794  SER795  GLU796  ALA797  LYS798  CYS799  TRP800  GLU811  SER814 

> <Gold.Protein.RotatedAtoms>
  152.0089  134.9887  160.0567 H   0  0  0  0  0  0  0  0  0  0  0  0  # atno 6907 bound_to 6896
  152.1447  133.4481  159.4792 H   0  0  0  0  0  0  0  0  0  0  0  0  # atno 6908 bound_to 6896
  150.6869  134.2180  159.4428 H   0  0  0  0  0  0  0  0  0  0  0  0  # atno 6909 bound_to 6896
  146.2146  139.8302  142.8661 H   0  0  0  0  0  0  0  0  0  0  0  0  # atno 7974 bound_to 7965
  155.8309  140.0933  157.1793 H   0  0  0  0  0  0  0  0  0  0  0  0  # atno 8008 bound_to 7997
  154.3980  140.1419  156.3673 H   0  0  0  0  0  0  0  0  0  0  0  0  # atno 8009 bound_to 7997
  155.8167  140.3448  155.5492 H   0  0  0  0  0  0  0  0  0  0  0  0  # atno 8010 bound_to 7997
  140.6480  143.2547  151.4804 H   0  0  0  0  0  0  0  0  0  0  0  0  # atno 10167 bound_to 10162
  156.0906  130.4201  150.1026 H   0  0  0  0  0  0  0  0  0  0  0  0  # atno 10718 bound_to 10713
  154.1889  135.6430  153.5054 H   0  0  0  0  0  0  0  0  0  0  0  0  # atno 10763 bound_to 10752
  153.0040  135.5424  154.6436 H   0  0  0  0  0  0  0  0  0  0  0  0  # atno 10764 bound_to 10752
  154.5820  135.2926  155.0696 H   0  0  0  0  0  0  0  0  0  0  0  0  # atno 10765 bound_to 10752
  140.2950  134.2821  155.7767 H   0  0  0  0  0  0  0  0  0  0  0  0  # atno 11005 bound_to 11000
  145.3005  141.0193  143.3611 LP  0  0  0  0  0  0  0  0  0  0  0  0  # atno 17320 bound_to 7965
  144.9010  139.4650  143.6633 LP  0  0  0  0  0  0  0  0  0  0  0  0  # atno 17321 bound_to 7965
  139.5692  144.1968  152.1812 LP  0  0  0  0  0  0  0  0  0  0  0  0  # atno 17342 bound_to 10162
  140.1259  144.5332  150.6833 LP  0  0  0  0  0  0  0  0  0  0  0  0  # atno 17343 bound_to 10162
  156.9037  130.9629  151.3573 LP  0  0  0  0  0  0  0  0  0  0  0  0  # atno 17370 bound_to 10713
  157.6054  130.8543  149.8867 LP  0  0  0  0  0  0  0  0  0  0  0  0  # atno 17371 bound_to 10713
  141.2139  133.7609  156.9682 LP  0  0  0  0  0  0  0  0  0  0  0  0  # atno 17394 bound_to 11000
  140.1161  134.9447  157.2135 LP  0  0  0  0  0  0  0  0  0  0  0  0  # atno 17395 bound_to 11000

$$$$
