AV-unprocessed.smi:2178|AV-procd|sdf|8854|dock4
  -GOLD-   2272012 43D 1   1.00000     0.00000
 Structure written by MMmdl.
 47 49  0  0  0  0  0  0  0  0  2 V2000
  150.0863  132.3950  155.8598 C   0  0  0  0  0  0  0  0  0  0  0  0
  149.7472  131.0565  155.2298 C   0  0  0  0  0  0  0  0  0  0  0  0
  150.6696  129.9943  155.3282 C   0  0  0  0  0  0  0  0  0  0  0  0
  150.3863  128.7508  154.7341 C   0  0  0  0  0  0  0  0  0  0  0  0
  149.1804  128.5644  154.0336 C   0  0  0  0  0  0  0  0  0  0  0  0
  148.2487  129.6180  153.9314 C   0  0  0  0  0  0  0  0  0  0  0  0
  146.9555  129.4060  153.1669 C   0  0  0  0  0  0  0  0  0  0  0  0
  148.5244  130.8636  154.5427 C   0  0  0  0  0  0  0  0  0  0  0  0
  147.6144  131.8844  154.4402 O   0  0  0  0  0  0  0  0  0  0  0  0
  147.5539  132.4675  153.1467 C   0  0  0  0  0  0  0  0  0  0  0  0
  147.5528  133.9970  153.2895 C   0  0  2  0  0  0  0  0  0  0  0  0
  148.2589  134.3402  154.4656 O   0  0  0  0  0  0  0  0  0  0  0  0
  146.1225  134.5664  153.3718 C   0  0  0  0  0  0  0  0  0  0  0  0
  145.6046  134.9982  152.0631 N   0  0  0  0  0  0  0  0  0  0  0  0
  145.5252  136.2496  151.5255 C   0  0  0  0  0  0  0  0  0  0  0  0
  145.9661  137.5270  152.1606 C   0  0  0  0  0  0  0  0  0  0  0  0
  147.0835  138.0912  151.5108 O   0  0  0  0  0  0  0  0  0  0  0  0
  144.9739  136.1230  150.2859 N   0  3  0  0  0  0  0  0  0  0  0  0
  144.6937  134.7808  150.0282 C   0  0  0  0  0  0  0  0  0  0  0  0
  144.1315  134.1668  148.9134 C   0  0  0  0  0  0  0  0  0  0  0  0
  143.9790  132.7660  148.9719 C   0  0  0  0  0  0  0  0  0  0  0  0
  144.3799  132.0311  150.1064 C   0  0  0  0  0  0  0  0  0  0  0  0
  144.9505  132.6646  151.2300 C   0  0  0  0  0  0  0  0  0  0  0  0
  145.0972  134.0505  151.1653 C   0  0  0  0  0  0  0  0  0  0  0  0
  151.1661  132.5356  155.9151 H   0  0  0  0  0  0  0  0  0  0  0  0
  149.6841  132.4490  156.8712 H   0  0  0  0  0  0  0  0  0  0  0  0
  149.6738  133.2203  155.2786 H   0  0  0  0  0  0  0  0  0  0  0  0
  151.6016  130.1315  155.8569 H   0  0  0  0  0  0  0  0  0  0  0  0
  151.0972  127.9414  154.8103 H   0  0  0  0  0  0  0  0  0  0  0  0
  148.9747  127.6088  153.5738 H   0  0  0  0  0  0  0  0  0  0  0  0
  146.7704  130.2384  152.4873 H   0  0  0  0  0  0  0  0  0  0  0  0
  146.1154  129.3320  153.8573 H   0  0  0  0  0  0  0  0  0  0  0  0
  146.9906  128.4913  152.5744 H   0  0  0  0  0  0  0  0  0  0  0  0
  148.4382  132.1531  152.5901 H   0  0  0  0  0  0  0  0  0  0  0  0
  146.6864  132.1229  152.5819 H   0  0  0  0  0  0  0  0  0  0  0  0
  148.0616  134.4407  152.4329 H   0  0  0  0  0  0  0  0  0  0  0  0
  148.0786  133.6880  155.1248 H   0  0  0  0  0  0  0  0  0  0  0  0
  145.4404  133.8018  153.7459 H   0  0  0  0  0  0  0  0  0  0  0  0
  146.0622  135.3935  154.0795 H   0  0  0  0  0  0  0  0  0  0  0  0
  145.1452  138.2443  152.1430 H   0  0  0  0  0  0  0  0  0  0  0  0
  146.2131  137.3487  153.2072 H   0  0  0  0  0  0  0  0  0  0  0  0
  147.6751  137.3945  151.2697 H   0  0  0  0  0  0  0  0  0  0  0  0
  143.8234  134.7282  148.0434 H   0  0  0  0  0  0  0  0  0  0  0  0
  143.5456  132.2452  148.1303 H   0  0  0  0  0  0  0  0  0  0  0  0
  144.2465  130.9590  150.1157 H   0  0  0  0  0  0  0  0  0  0  0  0
  145.2497  132.0902  152.0937 H   0  0  0  0  0  0  0  0  0  0  0  0
  144.8045  136.9015  149.6624 H   0  0  0  0  0  0  0  0  0  0  0  0
  1  2  1  0  0  0  0
  1 25  1  0  0  0  0
  1 26  1  0  0  0  0
  1 27  1  0  0  0  0
  2  8  1  0  0  0  0
  2  3  2  0  0  0  0
  3  4  1  0  0  0  0
  3 28  1  0  0  0  0
  4  5  2  0  0  0  0
  4 29  1  0  0  0  0
  5  6  1  0  0  0  0
  5 30  1  0  0  0  0
  6  7  1  0  0  0  0
  6  8  2  0  0  0  0
  7 31  1  0  0  0  0
  7 32  1  0  0  0  0
  7 33  1  0  0  0  0
  8  9  1  0  0  0  0
  9 10  1  0  0  0  0
 10 11  1  0  0  0  0
 10 34  1  0  0  0  0
 10 35  1  0  0  0  0
 11 12  1  0  0  0  0
 11 13  1  0  0  0  0
 11 36  1  0  0  0  0
 12 37  1  0  0  0  0
 13 14  1  0  0  0  0
 13 38  1  0  0  0  0
 13 39  1  0  0  0  0
 14 24  1  0  0  0  0
 14 15  1  0  0  0  0
 15 16  1  0  0  0  0
 15 18  2  0  0  0  0
 16 17  1  0  0  0  0
 16 40  1  0  0  0  0
 16 41  1  0  0  0  0
 17 42  1  0  0  0  0
 18 19  1  0  0  0  0
 18 47  1  0  0  0  0
 19 24  2  0  0  0  0
 19 20  1  0  0  0  0
 20 21  2  0  0  0  0
 20 43  1  0  0  0  0
 21 22  1  0  0  0  0
 21 44  1  0  0  0  0
 22 23  2  0  0  0  0
 22 45  1  0  0  0  0
 23 24  1  0  0  0  0
 23 46  1  0  0  0  0
M  CHG  1  18   1
M  END
> <s_m_source_file>
AV-unprocessed.smi

> <i_m_source_file_index>
2178

> <i_lp_mmshare_version>
43012

> <i_f3d_flags>
0

> <s_epik_input>
W0NIM11jMVtjSF1bY0hdW2NIXWMoW0NIM10pYzFPW0NIMl1bQ0BIXShbT0hdKVtDSDJdbihjKG4yKVtDSDJdW09IXSljKGMyMylbY0hdW2NIXVtjSF1bY0hdMw==

> <s_epik_cmdline>
J2VwaWtfcHl0aG9uJywgJy1waCcsICc3LjAnLCAnLXRuJywgJzgnLCAnLW1hJywgJzIwMCcsICctbWV0YWxfYmluZGluZycsICctaW1hZScsICc8aW5maWxlLm1hZT4nLCAnLW9tYWUnLCAnPG91dGZpbGUubWFlPic=

> <r_lp_tautomer_probability>
1

> <r_epik_Ionization_Penalty>
1.43125

> <r_epik_Ionization_Penalty_Charging>
1.43039

> <r_epik_Ionization_Penalty_Neutral>
0.000858184

> <r_epik_State_Penalty>
1.51493

> <r_epik_Charging_Adjusted_Penalty>
2.94531

> <i_epik_Tot_Q>
1

> <i_epik_Tot_abs_Q>
1

> <r_epik_Metal_State_Penalty>
5.5599

> <b_epik_Metal_Only>
0

> <s_lp_Force_Field>
OPLS_2005

> <r_lp_Energy>
23.8242

> <b_lp_Chiralities_Consistent>
1

> <s_lp_Variant>
AV-unprocessed.smi:2178-3

> <Gold.Version>
5.8.1

> <Gold.Id.Protein>
6NUR|6NUR_protein|mol2

> <Gold.PLP.Fitness>
43.9675

> <Gold.PLP.PLP>
-42.1296

> <Gold.PLP.part.hbond>
-4.7234

> <Gold.PLP.part.metal>
0.0000

> <Gold.PLP.part.buried>
3.8085

> <Gold.PLP.part.nonpolar>
-42.8632

> <Gold.PLP.part.repulsive>
0.1265

> <Gold.PLP.ligand.clash>
0.0000

> <Gold.PLP.ligand.torsion>
1.6752

> <Gold.PLP.Chemscore.Hbond>
1.6800

> <Gold.PLP.Chemscore.CHOScore>
0.0000

> <Gold.PLP.Chemscore.Metal>
0.0000

> <Gold.Chemscore.Hbonds>
donor molecule, donor type, donor heavy atom, donor atom, acceptor molecule, acceptor atom, score
      L1  H    17    42       P1  7948  0.94
      L1  H    18    47       P1 10171  0.72

> <Gold.PLP.Chemscore.Internal.Correction>
0.1483

> <Gold.Rescore>
     Score         DG    S(hbond)    S(metal)    S(lipo)     H(rot)  DE(clash)    DE(int)     intcor
     13.63     -17.12       1.97        0.00     109.81       3.05       1.89       1.60       ----

> <Gold.Chemscore.Fitness>
13.6272

> <Gold.Chemscore.DG>
-17.1206

> <Gold.Chemscore.ZeroCoef>
-5.4800

> <Gold.Chemscore.Hbond>
1.9743

> <Gold.Chemscore.Metal>
0.0000

> <Gold.Chemscore.Lipo>
109.8130

> <Gold.Chemscore.Internal_Hbond>
0.0000

> <Gold.Chemscore.DEClash>
1.8895

> <Gold.Chemscore.DEInternal>
1.6038

> <Gold.Chemscore.Rot>
3.0476

> <Gold.Chemscore.Internal.Correction>
   9.000000E+99

> <Gold.Chemscore.Hbonds>
donor molecule, donor type, donor heavy atom, donor atom, acceptor molecule, acceptor atom, score
      L1  H    17    42       P1  7948  0.91
      L1  H    18    47       P1 10171  0.72

> <Gold.Chemscore.Hbond.Weighted>
-6.5942

> <Gold.Chemscore.Metal.Weighted>
-0.0000

> <Gold.Chemscore.Lipo.Weighted>
-12.8481

> <Gold.Chemscore.Internal_Hbond.Weighted>
0.0000

> <Gold.Chemscore.DEClash.Weighted>
1.8895

> <Gold.Chemscore.DEInternal.Weighted>
1.6038

> <Gold.Chemscore.Rot.Weighted>
7.8018

> <Gold.Chemscore.Internal.Correction.Weighted>
   9.000000E+99

> <Gold.Protein.RotatedTorsions>
[ 6907 6896 6895 6894 ] final  171.23 input  -60.11 | X-H torsion
[ 7974 7965 7964 7962 ] final   81.79 input  175.53 | X-H torsion
[ 8008 7997 7996 7995 ] final  -32.07 input   59.86 | X-H torsion
[ 10167 10162 10161 10158 ] final  -22.44 input  -65.29 | X-H torsion
[ 10718 10713 10712 10709 ] final  133.39 input   66.30 | X-H torsion
[ 10763 10752 10751 10750 ] final    1.77 input  -60.55 | X-H torsion
[ 11005 11000 10999 10996 ] final  -43.46 input  -57.11 | X-H torsion

> <Gold.Protein.ActiveResidues>
 VAL166  LYS551  ARG553  GLY616  TRP617  ASP618  TYR619  PRO620  LYS621  CYS622 
 ASP623  PHE694  ASN695  SER759  ASP760  ASP761  ALA762  ILE779  LEU786  VAL792 
 PHE793  MET794  SER795  GLU796  ALA797  LYS798  CYS799  TRP800  GLU811  SER814 

> <Gold.Protein.RotatedAtoms>
  151.8034  133.3373  159.3533 H   0  0  0  0  0  0  0  0  0  0  0  0  # atno 6907 bound_to 6896
  150.7350  134.5732  159.5910 H   0  0  0  0  0  0  0  0  0  0  0  0  # atno 6908 bound_to 6896
  152.3126  134.7479  160.0384 H   0  0  0  0  0  0  0  0  0  0  0  0  # atno 6909 bound_to 6896
  145.6335  139.2410  143.2071 H   0  0  0  0  0  0  0  0  0  0  0  0  # atno 7974 bound_to 7965
  154.4192  140.1747  156.1667 H   0  0  0  0  0  0  0  0  0  0  0  0  # atno 8008 bound_to 7997
  155.9793  140.3379  155.6624 H   0  0  0  0  0  0  0  0  0  0  0  0  # atno 8009 bound_to 7997
  155.6521  140.0691  157.2574 H   0  0  0  0  0  0  0  0  0  0  0  0  # atno 8010 bound_to 7997
  140.7286  143.4535  151.0482 H   0  0  0  0  0  0  0  0  0  0  0  0  # atno 10167 bound_to 10162
  157.4777  131.1084  150.9721 H   0  0  0  0  0  0  0  0  0  0  0  0  # atno 10718 bound_to 10713
  153.3038  135.6958  153.7178 H   0  0  0  0  0  0  0  0  0  0  0  0  # atno 10763 bound_to 10752
  153.6082  135.3449  155.2970 H   0  0  0  0  0  0  0  0  0  0  0  0  # atno 10764 bound_to 10752
  154.8558  135.4357  154.2157 H   0  0  0  0  0  0  0  0  0  0  0  0  # atno 10765 bound_to 10752
  141.0385  133.6789  156.2736 H   0  0  0  0  0  0  0  0  0  0  0  0  # atno 11005 bound_to 11000
  146.1338  140.7150  142.9399 LP  0  0  0  0  0  0  0  0  0  0  0  0  # atno 17320 bound_to 7965
  144.7184  140.4291  143.7026 LP  0  0  0  0  0  0  0  0  0  0  0  0  # atno 17321 bound_to 7965
  139.8213  143.7816  152.3177 LP  0  0  0  0  0  0  0  0  0  0  0  0  # atno 17342 bound_to 10162
  139.7899  144.7414  150.9969 LP  0  0  0  0  0  0  0  0  0  0  0  0  # atno 17343 bound_to 10162
  157.0465  130.5770  149.5364 LP  0  0  0  0  0  0  0  0  0  0  0  0  # atno 17370 bound_to 10713
  156.0105  130.5196  150.7974 LP  0  0  0  0  0  0  0  0  0  0  0  0  # atno 17371 bound_to 10713
  140.6277  134.5296  157.5556 LP  0  0  0  0  0  0  0  0  0  0  0  0  # atno 17394 bound_to 11000
  139.9258  134.8058  156.1072 LP  0  0  0  0  0  0  0  0  0  0  0  0  # atno 17395 bound_to 11000

$$$$
