AV-unprocessed.smi:1554|AV-procd|sdf|6254|dock6
  -GOLD-   22720 6443D 1   1.00000     0.00000
 Structure written by MMmdl.
 48 50  0  0  0  0  0  0  0  0  2 V2000
  152.1987  142.7068  161.3128 C   0  0  0  0  0  0  0  0  0  0  0  0
  151.9667  142.1118  159.9342 C   0  0  0  0  0  0  0  0  0  0  0  0
  151.1799  142.8364  159.0108 C   0  0  0  0  0  0  0  0  0  0  0  0
  150.9849  142.2660  157.7585 C   0  0  0  0  0  0  0  0  0  0  0  0
  150.2710  142.7218  156.6483 N   0  3  0  0  0  0  0  0  0  0  0  0
  150.3654  141.8098  155.6417 C   0  0  0  0  0  0  0  0  0  0  0  0
  151.1291  140.7779  156.0923 N   0  0  0  0  0  0  0  0  0  0  0  0
  151.5293  139.5420  155.4043 C   0  0  0  0  0  0  0  0  0  0  0  0
  150.8888  138.2818  156.0222 C   0  0  2  0  0  0  0  0  0  0  0  0
  151.8805  137.5189  156.6795 O   0  0  0  0  0  0  0  0  0  0  0  0
  150.2241  137.3745  154.9678 C   0  0  0  0  0  0  0  0  0  0  0  0
  149.5606  136.1798  155.4906 N   0  0  0  0  0  0  0  0  0  0  0  0
  148.9660  136.3964  156.8077 C   0  0  0  0  0  0  0  0  0  0  0  0
  148.3030  135.1209  157.3548 C   0  0  0  0  0  0  0  0  0  0  0  0
  149.2545  134.0626  157.3903 O   0  0  0  0  0  0  0  0  0  0  0  0
  149.8227  133.7835  156.1139 C   0  0  2  0  0  0  0  0  0  0  0  0
  150.8184  132.6297  156.2720 C   0  0  0  0  0  0  0  0  0  0  0  0
  150.4937  135.0609  155.5730 C   0  0  0  0  0  0  0  0  0  0  0  0
  151.5408  141.0198  157.4087 C   0  0  0  0  0  0  0  0  0  0  0  0
  152.3191  140.2934  158.3073 C   0  0  0  0  0  0  0  0  0  0  0  0
  152.5303  140.8570  159.5860 C   0  0  0  0  0  0  0  0  0  0  0  0
  153.3762  140.0870  160.5859 C   0  0  0  0  0  0  0  0  0  0  0  0
  151.6565  143.6443  161.4392 H   0  0  0  0  0  0  0  0  0  0  0  0
  153.2585  142.9107  161.4669 H   0  0  0  0  0  0  0  0  0  0  0  0
  151.8605  142.0212  162.0900 H   0  0  0  0  0  0  0  0  0  0  0  0
  150.7477  143.7922  159.2688 H   0  0  0  0  0  0  0  0  0  0  0  0
  149.9146  141.8894  154.6628 H   0  0  0  0  0  0  0  0  0  0  0  0
  151.2160  139.6457  154.3646 H   0  0  0  0  0  0  0  0  0  0  0  0
  152.6169  139.4706  155.3872 H   0  0  0  0  0  0  0  0  0  0  0  0
  150.1649  138.5745  156.7822 H   0  0  0  0  0  0  0  0  0  0  0  0
  151.7599  137.6098  157.6121 H   0  0  0  0  0  0  0  0  0  0  0  0
  149.4940  137.9753  154.4233 H   0  0  0  0  0  0  0  0  0  0  0  0
  150.9697  137.0744  154.2292 H   0  0  0  0  0  0  0  0  0  0  0  0
  149.7308  136.7344  157.5085 H   0  0  0  0  0  0  0  0  0  0  0  0
  148.2139  137.1830  156.7611 H   0  0  0  0  0  0  0  0  0  0  0  0
  147.9240  135.2925  158.3624 H   0  0  0  0  0  0  0  0  0  0  0  0
  147.4513  134.8331  156.7364 H   0  0  0  0  0  0  0  0  0  0  0  0
  149.0286  133.4711  155.4332 H   0  0  0  0  0  0  0  0  0  0  0  0
  151.2752  132.3714  155.3163 H   0  0  0  0  0  0  0  0  0  0  0  0
  150.3229  131.7375  156.6552 H   0  0  0  0  0  0  0  0  0  0  0  0
  151.6177  132.8913  156.9659 H   0  0  0  0  0  0  0  0  0  0  0  0
  150.9109  134.8566  154.5863 H   0  0  0  0  0  0  0  0  0  0  0  0
  151.3338  135.3289  156.2161 H   0  0  0  0  0  0  0  0  0  0  0  0
  152.7444  139.3359  158.0467 H   0  0  0  0  0  0  0  0  0  0  0  0
  153.7632  139.1636  160.1540 H   0  0  0  0  0  0  0  0  0  0  0  0
  152.7850  139.8225  161.4629 H   0  0  0  0  0  0  0  0  0  0  0  0
  154.2288  140.6850  160.9088 H   0  0  0  0  0  0  0  0  0  0  0  0
  149.7552  143.5899  156.5805 H   0  0  0  0  0  0  0  0  0  0  0  0
  1  2  1  0  0  0  0
  1 23  1  0  0  0  0
  1 24  1  0  0  0  0
  1 25  1  0  0  0  0
  2 21  1  0  0  0  0
  2  3  2  0  0  0  0
  3  4  1  0  0  0  0
  3 26  1  0  0  0  0
  4 19  2  0  0  0  0
  4  5  1  0  0  0  0
  5  6  2  0  0  0  0
  5 48  1  0  0  0  0
  6  7  1  0  0  0  0
  6 27  1  0  0  0  0
  7  8  1  0  0  0  0
  7 19  1  0  0  0  0
  8  9  1  0  0  0  0
  8 28  1  0  0  0  0
  8 29  1  0  0  0  0
  9 10  1  0  0  0  0
  9 11  1  0  0  0  0
  9 30  1  0  0  0  0
 10 31  1  0  0  0  0
 11 12  1  0  0  0  0
 11 32  1  0  0  0  0
 11 33  1  0  0  0  0
 12 18  1  0  0  0  0
 12 13  1  0  0  0  0
 13 14  1  0  0  0  0
 13 34  1  0  0  0  0
 13 35  1  0  0  0  0
 14 15  1  0  0  0  0
 14 36  1  0  0  0  0
 14 37  1  0  0  0  0
 15 16  1  0  0  0  0
 16 17  1  0  0  0  0
 16 18  1  0  0  0  0
 16 38  1  0  0  0  0
 17 39  1  0  0  0  0
 17 40  1  0  0  0  0
 17 41  1  0  0  0  0
 18 42  1  0  0  0  0
 18 43  1  0  0  0  0
 19 20  1  0  0  0  0
 20 21  2  0  0  0  0
 20 44  1  0  0  0  0
 21 22  1  0  0  0  0
 22 45  1  0  0  0  0
 22 46  1  0  0  0  0
 22 47  1  0  0  0  0
M  CHG  1   5   1
M  END
> <s_m_source_file>
AV-unprocessed.smi

> <i_m_source_file_index>
1554

> <i_lp_mmshare_version>
43012

> <i_f3d_flags>
0

> <s_epik_input>
W0NIM11jKFtjSF0xKWMoW0NIM10pW2NIXWMoYzEyKW4oW2NIXW4yKVtDSDJdW0NASF0oW09IXSlbQ0gyXU4zW0NIMl1bQ0gyXU9bQ0BASF0oW0NIM10pW0NIMl0z

> <s_epik_cmdline>
J2VwaWtfcHl0aG9uJywgJy1waCcsICc3LjAnLCAnLXRuJywgJzgnLCAnLW1hJywgJzIwMCcsICctbWV0YWxfYmluZGluZycsICctaW1hZScsICc8aW5maWxlLm1hZT4nLCAnLW9tYWUnLCAnPG91dGZpbGUubWFlPic=

> <r_epik_Ionization_Penalty>
1.42504

> <r_epik_Ionization_Penalty_Charging>
1.21068

> <r_epik_Ionization_Penalty_Neutral>
0.214359

> <r_epik_State_Penalty>
1.46962

> <r_epik_Charging_Adjusted_Penalty>
2.6803

> <i_epik_Tot_Q>
1

> <i_epik_Tot_abs_Q>
1

> <r_epik_Metal_State_Penalty>
5.48754

> <b_epik_Metal_Only>
0

> <s_lp_Force_Field>
OPLS_2005

> <r_lp_Energy>
32.4448

> <b_lp_Chiralities_Consistent>
1

> <s_lp_Variant>
AV-unprocessed.smi:1554-15

> <Gold.Version>
5.8.1

> <Gold.Id.Protein>
6NUR|6NUR_protein|mol2

> <Gold.PLP.Fitness>
45.0699

> <Gold.PLP.PLP>
-38.2350

> <Gold.PLP.part.hbond>
-2.0000

> <Gold.PLP.part.metal>
0.0000

> <Gold.PLP.part.buried>
-4.5025

> <Gold.PLP.part.nonpolar>
-31.5150

> <Gold.PLP.part.repulsive>
0.1331

> <Gold.PLP.ligand.clash>
0.0000

> <Gold.PLP.ligand.torsion>
1.0842

> <Gold.PLP.Chemscore.Hbond>
3.0000

> <Gold.PLP.Chemscore.CHOScore>
0.0000

> <Gold.PLP.Chemscore.Metal>
0.0000

> <Gold.Chemscore.Hbonds>
donor molecule, donor type, donor heavy atom, donor atom, acceptor molecule, acceptor atom, score
      L1  H     5    48       P1  8028  2.00
      P1  H  6896  6909       L1    15  0.06

> <Gold.PLP.Chemscore.Internal.Correction>
0.0031

> <Gold.Rescore>
     Score         DG    S(hbond)    S(metal)    S(lipo)     H(rot)  DE(clash)    DE(int)     intcor
     16.78     -18.71       1.91        0.00     103.35       2.04       0.03       1.90       ----

> <Gold.Chemscore.Fitness>
16.7822

> <Gold.Chemscore.DG>
-18.7089

> <Gold.Chemscore.ZeroCoef>
-5.4800

> <Gold.Chemscore.Hbond>
1.9062

> <Gold.Chemscore.Metal>
0.0000

> <Gold.Chemscore.Lipo>
103.3479

> <Gold.Chemscore.Internal_Hbond>
0.0000

> <Gold.Chemscore.DEClash>
0.0295

> <Gold.Chemscore.DEInternal>
1.8971

> <Gold.Chemscore.Rot>
2.0427

> <Gold.Chemscore.Internal.Correction>
   9.000000E+99

> <Gold.Chemscore.Hbonds>
donor molecule, donor type, donor heavy atom, donor atom, acceptor molecule, acceptor atom, score
      L1  H     5    48       P1  8028  0.95
      P1  H  6896  6909       L1    15  0.10

> <Gold.Chemscore.Hbond.Weighted>
-6.3666

> <Gold.Chemscore.Metal.Weighted>
-0.0000

> <Gold.Chemscore.Lipo.Weighted>
-12.0917

> <Gold.Chemscore.Internal_Hbond.Weighted>
0.0000

> <Gold.Chemscore.DEClash.Weighted>
0.0295

> <Gold.Chemscore.DEInternal.Weighted>
1.8971

> <Gold.Chemscore.Rot.Weighted>
5.2294

> <Gold.Chemscore.Internal.Correction.Weighted>
   9.000000E+99

> <Gold.Protein.RotatedTorsions>
[ 6907 6896 6895 6894 ] final   11.01 input  -60.11 | X-H torsion
[ 7974 7965 7964 7962 ] final  173.93 input  175.53 | X-H torsion
[ 8008 7997 7996 7995 ] final   60.86 input   59.86 | X-H torsion
[ 10167 10162 10161 10158 ] final -142.27 input  -65.29 | X-H torsion
[ 10718 10713 10712 10709 ] final   10.45 input   66.30 | X-H torsion
[ 10763 10752 10751 10750 ] final   69.33 input  -60.55 | X-H torsion
[ 11005 11000 10999 10996 ] final   26.12 input  -57.11 | X-H torsion

> <Gold.Protein.ActiveResidues>
 VAL166  LYS551  ARG553  GLY616  TRP617  ASP618  TYR619  PRO620  LYS621  CYS622 
 ASP623  PHE694  ASN695  SER759  ASP760  ASP761  ALA762  ILE779  LEU786  VAL792 
 PHE793  MET794  SER795  GLU796  ALA797  LYS798  CYS799  TRP800  GLU811  SER814 

> <Gold.Protein.RotatedAtoms>
  151.7475  135.0840  160.0325 H   0  0  0  0  0  0  0  0  0  0  0  0  # atno 6907 bound_to 6896
  152.3439  133.6095  159.5904 H   0  0  0  0  0  0  0  0  0  0  0  0  # atno 6908 bound_to 6896
  150.7496  133.9596  159.3553 H   0  0  0  0  0  0  0  0  0  0  0  0  # atno 6909 bound_to 6896
  144.7232  139.9721  143.6437 H   0  0  0  0  0  0  0  0  0  0  0  0  # atno 7974 bound_to 7965
  155.5890  140.3492  155.4561 H   0  0  0  0  0  0  0  0  0  0  0  0  # atno 8008 bound_to 7997
  156.0315  140.1275  157.0277 H   0  0  0  0  0  0  0  0  0  0  0  0  # atno 8009 bound_to 7997
  154.4354  140.1042  156.6093 H   0  0  0  0  0  0  0  0  0  0  0  0  # atno 8010 bound_to 7997
  139.8105  143.7709  152.2663 H   0  0  0  0  0  0  0  0  0  0  0  0  # atno 10167 bound_to 10162
  156.9811  130.6006  149.5677 H   0  0  0  0  0  0  0  0  0  0  0  0  # atno 10718 bound_to 10713
  153.0281  135.5214  154.7272 H   0  0  0  0  0  0  0  0  0  0  0  0  # atno 10763 bound_to 10752
  154.6310  135.2900  155.0218 H   0  0  0  0  0  0  0  0  0  0  0  0  # atno 10764 bound_to 10752
  154.1170  135.6613  153.4948 H   0  0  0  0  0  0  0  0  0  0  0  0  # atno 10765 bound_to 10752
  140.3404  134.2339  155.7690 H   0  0  0  0  0  0  0  0  0  0  0  0  # atno 11005 bound_to 11000
  146.0554  139.3552  143.0613 LP  0  0  0  0  0  0  0  0  0  0  0  0  # atno 17320 bound_to 7965
  145.8161  140.9702  143.0923 LP  0  0  0  0  0  0  0  0  0  0  0  0  # atno 17321 bound_to 7965
  139.7857  144.7428  151.0026 LP  0  0  0  0  0  0  0  0  0  0  0  0  # atno 17342 bound_to 10162
  140.7818  143.4495  151.0433 LP  0  0  0  0  0  0  0  0  0  0  0  0  # atno 17343 bound_to 10162
  156.0244  130.5338  150.8366 LP  0  0  0  0  0  0  0  0  0  0  0  0  # atno 17370 bound_to 10713
  157.5525  131.0944  150.9675 LP  0  0  0  0  0  0  0  0  0  0  0  0  # atno 17371 bound_to 10713
  141.2040  133.7898  157.0311 LP  0  0  0  0  0  0  0  0  0  0  0  0  # atno 17394 bound_to 11000
  140.0786  134.9661  157.1586 LP  0  0  0  0  0  0  0  0  0  0  0  0  # atno 17395 bound_to 11000

$$$$
