AV-unprocessed.smi:2148|AV-procd|sdf|8746|dock6
  -GOLD-   2272011523D 1   1.00000     0.00000
 Structure written by MMmdl.
 44 45  0  0  0  0  0  0  0  0  1 V2000
  155.9442  139.8066  166.1282 C   0  0  0  0  0  0  0  0  0  0  0  0
  155.5777  141.1094  167.3356 S   0  0  0  0  0  0  0  0  0  0  0  0
  156.1004  142.5906  166.4195 C   0  0  2  0  0  0  0  0  0  0  0  0
  156.2734  143.7766  167.3820 C   0  0  0  0  0  0  0  0  0  0  0  0
  155.1287  142.9352  165.2829 C   0  0  0  0  0  0  0  0  0  0  0  0
  154.4881  143.9857  165.3243 O   0  0  0  0  0  0  0  0  0  0  0  0
  155.0243  142.0159  164.3049 N   0  0  0  0  0  0  0  0  0  0  0  0
  154.2166  142.0493  163.1361 C   0  0  0  0  0  0  0  0  0  0  0  0
  153.2225  143.0215  162.8795 C   0  0  0  0  0  0  0  0  0  0  0  0
  152.5024  142.9579  161.6713 C   0  0  0  0  0  0  0  0  0  0  0  0
  152.7960  141.9326  160.7418 C   0  0  0  0  0  0  0  0  0  0  0  0
  152.0861  141.8540  159.5240 N   0  0  0  0  0  0  0  0  0  0  0  0
  152.1150  143.0581  158.6980 C   0  0  0  0  0  0  0  0  0  0  0  0
  151.0660  142.9655  157.5732 C   0  0  1  0  0  0  0  0  0  0  0  0
  151.1511  144.1532  156.6090 C   0  0  0  0  0  0  0  0  0  0  0  0
  151.2793  141.7695  156.8283 O   0  0  0  0  0  0  0  0  0  0  0  0
  151.1351  140.5983  157.6271 C   0  0  1  0  0  0  0  0  0  0  0  0
  151.2852  139.3736  156.7184 C   0  0  0  0  0  0  0  0  0  0  0  0
  152.1907  140.6200  158.7481 C   0  0  0  0  0  0  0  0  0  0  0  0
  153.7543  141.0062  160.9892 N   0  0  0  0  0  0  0  0  0  0  0  0
  154.4433  141.0717  162.1474 C   0  0  0  0  0  0  0  0  0  0  0  0
  155.7325  138.8284  166.5593 H   0  0  0  0  0  0  0  0  0  0  0  0
  156.9950  139.8364  165.8403 H   0  0  0  0  0  0  0  0  0  0  0  0
  155.3327  139.9248  165.2338 H   0  0  0  0  0  0  0  0  0  0  0  0
  157.0797  142.3739  165.9896 H   0  0  0  0  0  0  0  0  0  0  0  0
  156.5749  144.6802  166.8505 H   0  0  0  0  0  0  0  0  0  0  0  0
  157.0421  143.5637  168.1254 H   0  0  0  0  0  0  0  0  0  0  0  0
  155.3497  143.9969  167.9190 H   0  0  0  0  0  0  0  0  0  0  0  0
  155.5443  141.1621  164.4466 H   0  0  0  0  0  0  0  0  0  0  0  0
  153.0050  143.8180  163.5737 H   0  0  0  0  0  0  0  0  0  0  0  0
  151.7304  143.6876  161.4778 H   0  0  0  0  0  0  0  0  0  0  0  0
  151.9252  143.9541  159.2873 H   0  0  0  0  0  0  0  0  0  0  0  0
  153.1137  143.1651  158.2726 H   0  0  0  0  0  0  0  0  0  0  0  0
  150.0647  142.9429  158.0069 H   0  0  0  0  0  0  0  0  0  0  0  0
  150.9800  145.0951  157.1306 H   0  0  0  0  0  0  0  0  0  0  0  0
  150.4030  144.0691  155.8204 H   0  0  0  0  0  0  0  0  0  0  0  0
  152.1311  144.2063  156.1341 H   0  0  0  0  0  0  0  0  0  0  0  0
  150.1351  140.5844  158.0642 H   0  0  0  0  0  0  0  0  0  0  0  0
  151.1680  138.4491  157.2841 H   0  0  0  0  0  0  0  0  0  0  0  0
  152.2659  139.3533  156.2423 H   0  0  0  0  0  0  0  0  0  0  0  0
  150.5317  139.3790  155.9305 H   0  0  0  0  0  0  0  0  0  0  0  0
  153.1929  140.5463  158.3232 H   0  0  0  0  0  0  0  0  0  0  0  0
  152.0463  139.7555  159.3975 H   0  0  0  0  0  0  0  0  0  0  0  0
  155.1988  140.3127  162.2898 H   0  0  0  0  0  0  0  0  0  0  0  0
  1  2  1  0  0  0  0
  1 22  1  0  0  0  0
  1 23  1  0  0  0  0
  1 24  1  0  0  0  0
  2  3  1  0  0  0  0
  3  4  1  0  0  0  0
  3  5  1  0  0  0  0
  3 25  1  0  0  0  0
  4 26  1  0  0  0  0
  4 27  1  0  0  0  0
  4 28  1  0  0  0  0
  5  6  2  0  0  0  0
  5  7  1  0  0  0  0
  7  8  1  0  0  0  0
  7 29  1  0  0  0  0
  8 21  1  0  0  0  0
  8  9  2  0  0  0  0
  9 10  1  0  0  0  0
  9 30  1  0  0  0  0
 10 11  2  0  0  0  0
 10 31  1  0  0  0  0
 11 12  1  0  0  0  0
 11 20  1  0  0  0  0
 12 19  1  0  0  0  0
 12 13  1  0  0  0  0
 13 14  1  0  0  0  0
 13 32  1  0  0  0  0
 13 33  1  0  0  0  0
 14 15  1  0  0  0  0
 14 16  1  0  0  0  0
 14 34  1  0  0  0  0
 15 35  1  0  0  0  0
 15 36  1  0  0  0  0
 15 37  1  0  0  0  0
 16 17  1  0  0  0  0
 17 18  1  0  0  0  0
 17 19  1  0  0  0  0
 17 38  1  0  0  0  0
 18 39  1  0  0  0  0
 18 40  1  0  0  0  0
 18 41  1  0  0  0  0
 19 42  1  0  0  0  0
 19 43  1  0  0  0  0
 20 21  2  0  0  0  0
 21 44  1  0  0  0  0
M  END
> <s_m_source_file>
AV-unprocessed.smi

> <i_m_source_file_index>
2148

> <i_lp_mmshare_version>
43012

> <i_f3d_flags>
0

> <s_epik_input>
W0NIM11TW0NASF0oW0NIM10pQyg9TylbTkhdYzFbY0hdW2NIXWMobltjSF0xKU4yW0NIMl1bQ0BASF0oW0NIM10pT1tDQEBIXShbQ0gzXSlbQ0gyXTI=

> <s_epik_cmdline>
J2VwaWtfcHl0aG9uJywgJy1waCcsICc3LjAnLCAnLXRuJywgJzgnLCAnLW1hJywgJzIwMCcsICctbWV0YWxfYmluZGluZycsICctaW1hZScsICc8aW5maWxlLm1hZT4nLCAnLW9tYWUnLCAnPG91dGZpbGUubWFlPic=

> <r_lp_tautomer_probability>
1

> <r_epik_Ionization_Penalty>
0.000646494

> <r_epik_Ionization_Penalty_Charging>
0

> <r_epik_Ionization_Penalty_Neutral>
0.000646494

> <r_epik_State_Penalty>
0.000408447

> <r_epik_Charging_Adjusted_Penalty>
0.000408447

> <i_epik_Tot_Q>
0

> <i_epik_Tot_abs_Q>
0

> <r_epik_Metal_State_Penalty>
-0

> <b_epik_Metal_Only>
0

> <s_lp_Force_Field>
OPLS_2005

> <r_lp_Energy>
22.6119

> <b_lp_Chiralities_Consistent>
1

> <s_lp_Variant>
AV-unprocessed.smi:2148-1

> <Gold.Version>
5.8.1

> <Gold.Id.Protein>
6NUR|6NUR_protein|mol2

> <Gold.PLP.Fitness>
39.1377

> <Gold.PLP.PLP>
-39.5702

> <Gold.PLP.part.hbond>
-1.0000

> <Gold.PLP.part.metal>
0.0000

> <Gold.PLP.part.buried>
0.6568

> <Gold.PLP.part.nonpolar>
-38.3337

> <Gold.PLP.part.repulsive>
0.1549

> <Gold.PLP.ligand.clash>
0.0000

> <Gold.PLP.ligand.torsion>
0.3939

> <Gold.PLP.Chemscore.Hbond>
0.0000

> <Gold.PLP.Chemscore.CHOScore>
0.0000

> <Gold.PLP.Chemscore.Metal>
0.0000

> <Gold.PLP.Chemscore.Internal.Correction>
0.3553

> <Gold.Rescore>
     Score         DG    S(hbond)    S(metal)    S(lipo)     H(rot)  DE(clash)    DE(int)     intcor
     12.19     -15.43       0.00        0.00     112.73       1.27       1.54       1.70       ----

> <Gold.Chemscore.Fitness>
12.1892

> <Gold.Chemscore.DG>
-15.4290

> <Gold.Chemscore.ZeroCoef>
-5.4800

> <Gold.Chemscore.Hbond>
0.0000

> <Gold.Chemscore.Metal>
0.0000

> <Gold.Chemscore.Lipo>
112.7313

> <Gold.Chemscore.Internal_Hbond>
0.0000

> <Gold.Chemscore.DEClash>
1.5351

> <Gold.Chemscore.DEInternal>
1.7047

> <Gold.Chemscore.Rot>
1.2659

> <Gold.Chemscore.Internal.Correction>
   9.000000E+99

> <Gold.Chemscore.Hbond.Weighted>
-0.0000

> <Gold.Chemscore.Metal.Weighted>
-0.0000

> <Gold.Chemscore.Lipo.Weighted>
-13.1896

> <Gold.Chemscore.Internal_Hbond.Weighted>
0.0000

> <Gold.Chemscore.DEClash.Weighted>
1.5351

> <Gold.Chemscore.DEInternal.Weighted>
1.7047

> <Gold.Chemscore.Rot.Weighted>
3.2406

> <Gold.Chemscore.Internal.Correction.Weighted>
   9.000000E+99

> <Gold.Protein.RotatedTorsions>
[ 6907 6896 6895 6894 ] final -143.51 input  -60.11 | X-H torsion
[ 7974 7965 7964 7962 ] final  104.81 input  175.53 | X-H torsion
[ 8008 7997 7996 7995 ] final -121.09 input   59.86 | X-H torsion
[ 10167 10162 10161 10158 ] final -123.60 input  -65.29 | X-H torsion
[ 10718 10713 10712 10709 ] final   -1.27 input   66.30 | X-H torsion
[ 10763 10752 10751 10750 ] final   -1.97 input  -60.55 | X-H torsion
[ 11005 11000 10999 10996 ] final   10.05 input  -57.11 | X-H torsion

> <Gold.Protein.ActiveResidues>
 VAL166  LYS551  ARG553  GLY616  TRP617  ASP618  TYR619  PRO620  LYS621  CYS622 
 ASP623  PHE694  ASN695  SER759  ASP760  ASP761  ALA762  ILE779  LEU786  VAL792 
 PHE793  MET794  SER795  GLU796  ALA797  LYS798  CYS799  TRP800  GLU811  SER814 

> <Gold.Protein.RotatedAtoms>
  151.1015  133.5240  159.2609 H   0  0  0  0  0  0  0  0  0  0  0  0  # atno 6907 bound_to 6896
  151.2069  135.0465  159.8905 H   0  0  0  0  0  0  0  0  0  0  0  0  # atno 6908 bound_to 6896
  152.5443  134.0836  159.8300 H   0  0  0  0  0  0  0  0  0  0  0  0  # atno 6909 bound_to 6896
  145.3279  139.2494  143.3676 H   0  0  0  0  0  0  0  0  0  0  0  0  # atno 7974 bound_to 7965
  155.1424  140.0402  157.2801 H   0  0  0  0  0  0  0  0  0  0  0  0  # atno 8008 bound_to 7997
  154.6463  140.2559  155.7238 H   0  0  0  0  0  0  0  0  0  0  0  0  # atno 8009 bound_to 7997
  156.2556  140.2845  156.0878 H   0  0  0  0  0  0  0  0  0  0  0  0  # atno 8010 bound_to 7997
  140.0018  143.5533  152.2300 H   0  0  0  0  0  0  0  0  0  0  0  0  # atno 10167 bound_to 10162
  156.8082  130.5415  149.5712 H   0  0  0  0  0  0  0  0  0  0  0  0  # atno 10718 bound_to 10713
  153.3518  135.6986  153.6782 H   0  0  0  0  0  0  0  0  0  0  0  0  # atno 10763 bound_to 10752
  153.5505  135.3554  155.2758 H   0  0  0  0  0  0  0  0  0  0  0  0  # atno 10764 bound_to 10752
  154.8654  135.4225  154.2756 H   0  0  0  0  0  0  0  0  0  0  0  0  # atno 10765 bound_to 10752
  140.5189  134.0579  155.7839 H   0  0  0  0  0  0  0  0  0  0  0  0  # atno 11005 bound_to 11000
  146.3057  140.3851  142.8688 LP  0  0  0  0  0  0  0  0  0  0  0  0  # atno 17320 bound_to 7965
  144.8887  140.7496  143.5940 LP  0  0  0  0  0  0  0  0  0  0  0  0  # atno 17321 bound_to 7965
  139.6266  144.7638  151.2625 LP  0  0  0  0  0  0  0  0  0  0  0  0  # atno 17342 bound_to 10162
  140.7416  143.6553  150.8212 LP  0  0  0  0  0  0  0  0  0  0  0  0  # atno 17343 bound_to 10162
  156.1060  130.6005  150.9972 LP  0  0  0  0  0  0  0  0  0  0  0  0  # atno 17370 bound_to 10713
  157.6519  131.0895  150.8031 LP  0  0  0  0  0  0  0  0  0  0  0  0  # atno 17371 bound_to 10713
  141.1345  133.9245  157.2464 LP  0  0  0  0  0  0  0  0  0  0  0  0  # atno 17394 bound_to 11000
  139.9617  135.0152  156.9278 LP  0  0  0  0  0  0  0  0  0  0  0  0  # atno 17395 bound_to 11000

$$$$
