AV-unprocessed.smi:94|AV-procd|sdf|851|dock2
  -GOLD-   2262017293D 1   1.00000     0.00000
 Structure written by MMmdl.
 53 55  0  0  0  0  0  0  0  0  1 V2000
  153.3349  139.0169  158.8002 C   0  0  0  0  0  0  0  0  0  0  0  0
  152.5732  139.8309  157.9209 O   0  0  0  0  0  0  0  0  0  0  0  0
  152.1556  141.0689  158.3659 C   0  0  0  0  0  0  0  0  0  0  0  0
  152.6219  141.6614  159.5678 C   0  0  0  0  0  0  0  0  0  0  0  0
  152.1647  142.9298  159.9703 C   0  0  0  0  0  0  0  0  0  0  0  0
  151.2419  143.6325  159.1748 C   0  0  0  0  0  0  0  0  0  0  0  0
  150.7436  144.9982  159.6009 C   0  0  0  0  0  0  0  0  0  0  0  0
  150.7765  143.0556  157.9798 C   0  0  0  0  0  0  0  0  0  0  0  0
  151.2149  141.7725  157.5726 C   0  0  0  0  0  0  0  0  0  0  0  0
  150.6892  141.1548  156.2741 C   0  0  2  0  0  0  0  0  0  0  0  0
  149.5484  141.9946  155.6832 C   0  0  0  0  0  0  0  0  0  0  0  0
  150.2198  139.7872  156.4744 N   0  0  0  0  0  0  0  0  0  0  0  0
  150.5411  138.7058  155.7456 C   0  0  0  0  0  0  0  0  0  0  0  0
  151.1839  138.7621  154.6984 O   0  0  0  0  0  0  0  0  0  0  0  0
  150.1177  137.3355  156.3037 C   0  0  0  0  0  0  0  0  0  0  0  0
  148.9675  137.4055  157.2371 N   0  0  0  0  0  0  0  0  0  0  0  0
  147.7496  137.9493  156.7563 C   0  0  0  0  0  0  0  0  0  0  0  0
  147.6549  138.3911  155.6106 O   0  0  0  0  0  0  0  0  0  0  0  0
  146.6344  137.9242  157.6946 C   0  0  0  0  0  0  0  0  0  0  0  0
  145.4353  138.3993  157.3176 F   0  0  0  0  0  0  0  0  0  0  0  0
  146.7832  137.4166  158.9348 C   0  0  0  0  0  0  0  0  0  0  0  0
  147.9799  136.9086  159.4017 N   0  0  0  0  0  0  0  0  0  0  0  0
  148.0224  136.2982  160.7856 C   0  0  2  0  0  0  0  0  0  0  0  0
  147.2149  134.9982  160.9197 C   0  0  0  0  0  0  0  0  0  0  0  0
  146.6999  135.1193  162.3377 C   0  0  0  0  0  0  0  0  0  0  0  0
  146.4681  136.6213  162.4645 C   0  0  0  0  0  0  0  0  0  0  0  0
  147.5157  137.2208  161.7067 O   0  0  0  0  0  0  0  0  0  0  0  0
  149.1022  136.8700  158.5412 C   0  0  0  0  0  0  0  0  0  0  0  0
  150.1655  136.3643  158.9021 O   0  0  0  0  0  0  0  0  0  0  0  0
  153.5757  138.0785  158.3014 H   0  0  0  0  0  0  0  0  0  0  0  0
  152.7753  138.7747  159.7047 H   0  0  0  0  0  0  0  0  0  0  0  0
  154.2761  139.4958  159.0734 H   0  0  0  0  0  0  0  0  0  0  0  0
  153.3353  141.1612  160.2048 H   0  0  0  0  0  0  0  0  0  0  0  0
  152.5278  143.3615  160.8913 H   0  0  0  0  0  0  0  0  0  0  0  0
  150.5404  145.6255  158.7324 H   0  0  0  0  0  0  0  0  0  0  0  0
  151.4824  145.5074  160.2206 H   0  0  0  0  0  0  0  0  0  0  0  0
  149.8218  144.8995  160.1743 H   0  0  0  0  0  0  0  0  0  0  0  0
  150.0747  143.6139  157.3780 H   0  0  0  0  0  0  0  0  0  0  0  0
  151.5013  141.1414  155.5457 H   0  0  0  0  0  0  0  0  0  0  0  0
  149.8787  143.0117  155.4699 H   0  0  0  0  0  0  0  0  0  0  0  0
  148.7035  142.0564  156.3703 H   0  0  0  0  0  0  0  0  0  0  0  0
  149.1878  141.5641  154.7485 H   0  0  0  0  0  0  0  0  0  0  0  0
  149.6673  139.6295  157.3045 H   0  0  0  0  0  0  0  0  0  0  0  0
  149.9078  136.6768  155.4601 H   0  0  0  0  0  0  0  0  0  0  0  0
  150.9783  136.8727  156.7900 H   0  0  0  0  0  0  0  0  0  0  0  0
  145.9209  137.4120  159.5855 H   0  0  0  0  0  0  0  0  0  0  0  0
  149.0772  136.1414  161.0147 H   0  0  0  0  0  0  0  0  0  0  0  0
  146.3874  134.9613  160.2128 H   0  0  0  0  0  0  0  0  0  0  0  0
  147.8488  134.1261  160.7595 H   0  0  0  0  0  0  0  0  0  0  0  0
  145.8001  134.5311  162.5197 H   0  0  0  0  0  0  0  0  0  0  0  0
  147.4681  134.7988  163.0427 H   0  0  0  0  0  0  0  0  0  0  0  0
  145.5054  136.8982  162.0345 H   0  0  0  0  0  0  0  0  0  0  0  0
  146.4824  136.9611  163.5002 H   0  0  0  0  0  0  0  0  0  0  0  0
  1  2  1  0  0  0  0
  1 30  1  0  0  0  0
  1 31  1  0  0  0  0
  1 32  1  0  0  0  0
  2  3  1  0  0  0  0
  3  9  1  0  0  0  0
  3  4  2  0  0  0  0
  4  5  1  0  0  0  0
  4 33  1  0  0  0  0
  5  6  2  0  0  0  0
  5 34  1  0  0  0  0
  6  7  1  0  0  0  0
  6  8  1  0  0  0  0
  7 35  1  0  0  0  0
  7 36  1  0  0  0  0
  7 37  1  0  0  0  0
  8  9  2  0  0  0  0
  8 38  1  0  0  0  0
  9 10  1  0  0  0  0
 10 11  1  0  0  0  0
 10 12  1  0  0  0  0
 10 39  1  0  0  0  0
 11 40  1  0  0  0  0
 11 41  1  0  0  0  0
 11 42  1  0  0  0  0
 12 13  1  0  0  0  0
 12 43  1  0  0  0  0
 13 14  2  0  0  0  0
 13 15  1  0  0  0  0
 15 16  1  0  0  0  0
 15 44  1  0  0  0  0
 15 45  1  0  0  0  0
 16 28  1  0  0  0  0
 16 17  1  0  0  0  0
 17 18  2  0  0  0  0
 17 19  1  0  0  0  0
 19 20  1  0  0  0  0
 19 21  2  0  0  0  0
 21 22  1  0  0  0  0
 21 46  1  0  0  0  0
 22 23  1  0  0  0  0
 22 28  1  0  0  0  0
 23 27  1  0  0  0  0
 23 24  1  0  0  0  0
 23 47  1  0  0  0  0
 24 25  1  0  0  0  0
 24 48  1  0  0  0  0
 24 49  1  0  0  0  0
 25 26  1  0  0  0  0
 25 50  1  0  0  0  0
 25 51  1  0  0  0  0
 26 27  1  0  0  0  0
 26 52  1  0  0  0  0
 26 53  1  0  0  0  0
 28 29  2  0  0  0  0
M  END
> <s_m_source_file>
AV-unprocessed.smi

> <i_m_source_file_index>
94

> <i_lp_mmshare_version>
43012

> <i_f3d_flags>
0

> <s_epik_input>
W0NIM11PYzFbY0hdW2NIXWMoW0NIM10pW2NIXWMxW0NASF0oW0NIM10pW05IXUMoPU8pW0NIMl1uMmMoPU8pYyhGKVtjSF1uKGMyPU8pW0NAQEhdM1tDSDJdW0NIMl1bQ0gyXU8z

> <s_epik_cmdline>
J2VwaWtfcHl0aG9uJywgJy1waCcsICc3LjAnLCAnLXRuJywgJzgnLCAnLW1hJywgJzIwMCcsICctbWV0YWxfYmluZGluZycsICctaW1hZScsICc8aW5maWxlLm1hZT4nLCAnLW9tYWUnLCAnPG91dGZpbGUubWFlPic=

> <r_lp_tautomer_probability>
1

> <r_epik_Ionization_Penalty>
3.37009e-08

> <r_epik_Ionization_Penalty_Charging>
3.59856e-09

> <r_epik_Ionization_Penalty_Neutral>
3.01024e-08

> <r_epik_State_Penalty>
-0

> <r_epik_Charging_Adjusted_Penalty>
3.59856e-09

> <i_epik_Tot_Q>
0

> <i_epik_Tot_abs_Q>
0

> <r_epik_Metal_State_Penalty>
-0

> <b_epik_Metal_Only>
0

> <s_epik_Chemistry_Notes>
This compound contains an acetal/aminal-like group ( X-CH(R)-Y where X, Y are N, S, or O) that may be acid/base labile, releasing an aldehyde.

> <s_lp_Force_Field>
OPLS_2005

> <r_lp_Energy>
26.0468

> <b_lp_Chiralities_Consistent>
1

> <s_lp_Variant>
AV-unprocessed.smi:94-1

> <Gold.Version>
5.8.1

> <Gold.Id.Protein>
6NUR|6NUR_protein|mol2

> <Gold.PLP.Fitness>
56.4027

> <Gold.PLP.PLP>
-46.9613

> <Gold.PLP.part.hbond>
-4.0000

> <Gold.PLP.part.metal>
0.0000

> <Gold.PLP.part.buried>
-6.0001

> <Gold.PLP.part.nonpolar>
-36.6354

> <Gold.PLP.part.repulsive>
0.1707

> <Gold.PLP.ligand.clash>
0.0000

> <Gold.PLP.ligand.torsion>
0.8969

> <Gold.PLP.Chemscore.Hbond>
3.6880

> <Gold.PLP.Chemscore.CHOScore>
0.0000

> <Gold.PLP.Chemscore.Metal>
0.0000

> <Gold.Chemscore.Hbonds>
donor molecule, donor type, donor heavy atom, donor atom, acceptor molecule, acceptor atom, score
      P1  H  6896  6909       L1    29  1.00
      P1  H  6931  6943       L1    27  0.90
      P1  H  6934  6947       L1    27  0.77
      P1  H  7997  8009       L1     2  0.21

> <Gold.PLP.Chemscore.Internal.Correction>
0.1712

> <Gold.Rescore>
     Score         DG    S(hbond)    S(metal)    S(lipo)     H(rot)  DE(clash)    DE(int)     intcor
     20.88     -24.34       3.57        0.00     110.48       2.34       1.30       2.16       ----

> <Gold.Chemscore.Fitness>
20.8813

> <Gold.Chemscore.DG>
-24.3425

> <Gold.Chemscore.ZeroCoef>
-5.4800

> <Gold.Chemscore.Hbond>
3.5684

> <Gold.Chemscore.Metal>
0.0000

> <Gold.Chemscore.Lipo>
110.4848

> <Gold.Chemscore.Internal_Hbond>
0.0000

> <Gold.Chemscore.DEClash>
1.2971

> <Gold.Chemscore.DEInternal>
2.1640

> <Gold.Chemscore.Rot>
2.3370

> <Gold.Chemscore.Internal.Correction>
   9.000000E+99

> <Gold.Chemscore.Hbonds>
donor molecule, donor type, donor heavy atom, donor atom, acceptor molecule, acceptor atom, score
      P1  H  6896  6909       L1    29  0.99
      P1  H  6931  6943       L1    27  0.20
      P1  H  6934  6947       L1    27  0.64
      P1  H  7989  7998       L1    14  0.04

> <Gold.Chemscore.Hbond.Weighted>
-11.9184

> <Gold.Chemscore.Metal.Weighted>
-0.0000

> <Gold.Chemscore.Lipo.Weighted>
-12.9267

> <Gold.Chemscore.Internal_Hbond.Weighted>
0.0000

> <Gold.Chemscore.DEClash.Weighted>
1.2971

> <Gold.Chemscore.DEInternal.Weighted>
2.1640

> <Gold.Chemscore.Rot.Weighted>
5.9827

> <Gold.Chemscore.Internal.Correction.Weighted>
   9.000000E+99

> <Gold.Protein.RotatedTorsions>
[ 6907 6896 6895 6894 ] final   68.05 input  -60.11 | X-H torsion
[ 7974 7965 7964 7962 ] final   34.22 input  175.53 | X-H torsion
[ 8008 7997 7996 7995 ] final  173.93 input   59.86 | X-H torsion
[ 10167 10162 10161 10158 ] final  -35.73 input  -65.29 | X-H torsion
[ 10718 10713 10712 10709 ] final  154.79 input   66.30 | X-H torsion
[ 10763 10752 10751 10750 ] final   63.31 input  -60.55 | X-H torsion
[ 11005 11000 10999 10996 ] final   59.09 input  -57.11 | X-H torsion

> <Gold.Protein.ActiveResidues>
 VAL166  LYS551  ARG553  GLY616  TRP617  ASP618  TYR619  PRO620  LYS621  CYS622 
 ASP623  PHE694  ASN695  SER759  ASP760  ASP761  ALA762  ILE779  LEU786  VAL792 
 PHE793  MET794  SER795  GLU796  ALA797  LYS798  CYS799  TRP800  GLU811  SER814 

> <Gold.Protein.RotatedAtoms>
  152.4594  134.5219  159.9784 H   0  0  0  0  0  0  0  0  0  0  0  0  # atno 6907 bound_to 6896
  151.5272  133.3450  159.2919 H   0  0  0  0  0  0  0  0  0  0  0  0  # atno 6908 bound_to 6896
  150.8550  134.7916  159.7101 H   0  0  0  0  0  0  0  0  0  0  0  0  # atno 6909 bound_to 6896
  146.1368  139.6297  142.9190 H   0  0  0  0  0  0  0  0  0  0  0  0  # atno 7974 bound_to 7965
  156.1025  140.1447  156.9448 H   0  0  0  0  0  0  0  0  0  0  0  0  # atno 8008 bound_to 7997
  154.4712  140.0909  156.7194 H   0  0  0  0  0  0  0  0  0  0  0  0  # atno 8009 bound_to 7997
  155.4735  140.3442  155.4331 H   0  0  0  0  0  0  0  0  0  0  0  0  # atno 8010 bound_to 7997
  140.7158  143.3457  151.2261 H   0  0  0  0  0  0  0  0  0  0  0  0  # atno 10167 bound_to 10162
  157.2270  131.0731  151.1877 H   0  0  0  0  0  0  0  0  0  0  0  0  # atno 10718 bound_to 10713
  153.0013  135.5433  154.6332 H   0  0  0  0  0  0  0  0  0  0  0  0  # atno 10763 bound_to 10752
  154.5605  135.2833  155.0926 H   0  0  0  0  0  0  0  0  0  0  0  0  # atno 10764 bound_to 10752
  154.2131  135.6464  153.5174 H   0  0  0  0  0  0  0  0  0  0  0  0  # atno 10765 bound_to 10752
  140.0329  134.5985  155.9482 H   0  0  0  0  0  0  0  0  0  0  0  0  # atno 11005 bound_to 11000
  145.5138  141.0434  143.2473 LP  0  0  0  0  0  0  0  0  0  0  0  0  # atno 17320 bound_to 7965
  144.7748  139.6654  143.7179 LP  0  0  0  0  0  0  0  0  0  0  0  0  # atno 17321 bound_to 7965
  139.6976  143.9587  152.2890 LP  0  0  0  0  0  0  0  0  0  0  0  0  # atno 17342 bound_to 10162
  139.9269  144.6765  150.8403 LP  0  0  0  0  0  0  0  0  0  0  0  0  # atno 17343 bound_to 10162
  157.3518  130.7086  149.6445 LP  0  0  0  0  0  0  0  0  0  0  0  0  # atno 17370 bound_to 10713
  155.9678  130.4250  150.4635 LP  0  0  0  0  0  0  0  0  0  0  0  0  # atno 17371 bound_to 10713
  141.1841  133.6552  156.5144 LP  0  0  0  0  0  0  0  0  0  0  0  0  # atno 17394 bound_to 11000
  140.4195  134.7200  157.4882 LP  0  0  0  0  0  0  0  0  0  0  0  0  # atno 17395 bound_to 11000

$$$$
