AV-unprocessed.smi:865|AV-procd|sdf|3991|dock2
  -GOLD-   22720 1473D 1   1.00000     0.00000
 Structure written by MMmdl.
 36 36  0  0  0  0  0  0  0  0  1 V2000
  153.0653  141.5336  160.2983 C   0  0  0  0  0  0  0  0  0  0  0  0
  152.3373  142.8493  159.9849 C   0  0  0  0  0  0  0  0  0  0  0  0
  152.1990  143.1718  158.4747 C   0  0  0  0  0  0  0  0  0  0  0  0
  152.2069  144.7017  158.2197 C   0  0  0  0  0  0  0  0  0  0  0  0
  151.8651  145.5523  159.4522 C   0  0  0  0  0  0  0  0  0  0  0  0
  150.9724  142.4682  157.8273 C   0  0  1  0  0  0  0  0  0  0  0  0
  149.8184  143.2578  158.0448 O   0  0  0  0  0  0  0  0  0  0  0  0
  151.1339  142.2222  156.3102 C   0  0  0  0  0  0  0  0  0  0  0  0
  149.8435  142.1932  155.6309 N   0  0  0  0  0  0  0  0  0  0  0  0
  149.4485  141.2506  154.7617 C   0  0  0  0  0  0  0  0  0  0  0  0
  150.1275  140.2679  154.4656 O   0  0  0  0  0  0  0  0  0  0  0  0
  148.0793  141.4536  154.1149 C   0  0  0  0  0  0  0  0  0  0  0  0
  147.0527  141.6026  155.1282 N   0  0  0  0  0  0  0  0  0  0  0  0
  145.7244  141.6822  155.0255 C   0  0  0  0  0  0  0  0  0  0  0  0
  145.1510  141.8314  156.2098 N   0  0  0  0  0  0  0  0  0  0  0  0
  146.2273  141.8418  157.0818 N   0  0  0  0  0  0  0  0  0  0  0  0
  147.3584  141.7070  156.4456 N   0  0  0  0  0  0  0  0  0  0  0  0
  153.2401  141.4397  161.3702 H   0  0  0  0  0  0  0  0  0  0  0  0
  154.0345  141.4896  159.8012 H   0  0  0  0  0  0  0  0  0  0  0  0
  152.4860  140.6633  159.9918 H   0  0  0  0  0  0  0  0  0  0  0  0
  151.3567  142.8451  160.4614 H   0  0  0  0  0  0  0  0  0  0  0  0
  152.8977  143.6438  160.4753 H   0  0  0  0  0  0  0  0  0  0  0  0
  153.0844  142.7644  157.9844 H   0  0  0  0  0  0  0  0  0  0  0  0
  153.1932  145.0173  157.8824 H   0  0  0  0  0  0  0  0  0  0  0  0
  151.5229  144.9488  157.4070 H   0  0  0  0  0  0  0  0  0  0  0  0
  151.9826  146.6129  159.2293 H   0  0  0  0  0  0  0  0  0  0  0  0
  152.5239  145.3173  160.2886 H   0  0  0  0  0  0  0  0  0  0  0  0
  150.8368  145.4052  159.7797 H   0  0  0  0  0  0  0  0  0  0  0  0
  150.8203  141.5037  158.3108 H   0  0  0  0  0  0  0  0  0  0  0  0
  149.4559  143.4961  157.2053 H   0  0  0  0  0  0  0  0  0  0  0  0
  151.8120  142.9430  155.8496 H   0  0  0  0  0  0  0  0  0  0  0  0
  151.5796  141.2409  156.1459 H   0  0  0  0  0  0  0  0  0  0  0  0
  149.2177  142.9654  155.8096 H   0  0  0  0  0  0  0  0  0  0  0  0
  148.0910  142.3490  153.4923 H   0  0  0  0  0  0  0  0  0  0  0  0
  147.8324  140.6115  153.4660 H   0  0  0  0  0  0  0  0  0  0  0  0
  145.1837  141.6350  154.0916 H   0  0  0  0  0  0  0  0  0  0  0  0
  1  2  1  0  0  0  0
  1 18  1  0  0  0  0
  1 19  1  0  0  0  0
  1 20  1  0  0  0  0
  2  3  1  0  0  0  0
  2 21  1  0  0  0  0
  2 22  1  0  0  0  0
  3  4  1  0  0  0  0
  3  6  1  0  0  0  0
  3 23  1  0  0  0  0
  4  5  1  0  0  0  0
  4 24  1  0  0  0  0
  4 25  1  0  0  0  0
  5 26  1  0  0  0  0
  5 27  1  0  0  0  0
  5 28  1  0  0  0  0
  6  7  1  0  0  0  0
  6  8  1  0  0  0  0
  6 29  1  0  0  0  0
  7 30  1  0  0  0  0
  8  9  1  0  0  0  0
  8 31  1  0  0  0  0
  8 32  1  0  0  0  0
  9 10  1  0  0  0  0
  9 33  1  0  0  0  0
 10 11  2  0  0  0  0
 10 12  1  0  0  0  0
 12 13  1  0  0  0  0
 12 34  1  0  0  0  0
 12 35  1  0  0  0  0
 13 17  1  0  0  0  0
 13 14  1  0  0  0  0
 14 15  2  0  0  0  0
 14 36  1  0  0  0  0
 15 16  1  0  0  0  0
 16 17  2  0  0  0  0
M  END
> <s_m_source_file>
AV-unprocessed.smi

> <i_m_source_file_index>
865

> <i_lp_mmshare_version>
43012

> <i_f3d_flags>
0

> <s_epik_input>
W0NIM11bQ0gyXVtDSF0oW0NIMl1bQ0gzXSlbQ0BIXShbT0hdKVtDSDJdW05IXUMoPU8pW0NIMl1uMVtjSF1ubm4x

> <s_epik_cmdline>
J2VwaWtfcHl0aG9uJywgJy1waCcsICc3LjAnLCAnLXRuJywgJzgnLCAnLW1hJywgJzIwMCcsICctbWV0YWxfYmluZGluZycsICctaW1hZScsICc8aW5maWxlLm1hZT4nLCAnLW9tYWUnLCAnPG91dGZpbGUubWFlPic=

> <r_lp_tautomer_probability>
1

> <r_epik_Ionization_Penalty>
9.39891e-07

> <r_epik_Ionization_Penalty_Charging>
0

> <r_epik_Ionization_Penalty_Neutral>
9.39891e-07

> <r_epik_State_Penalty>
-0

> <r_epik_Charging_Adjusted_Penalty>
0

> <i_epik_Tot_Q>
0

> <i_epik_Tot_abs_Q>
0

> <r_epik_Metal_State_Penalty>
-0

> <b_epik_Metal_Only>
0

> <s_lp_Force_Field>
OPLS_2005

> <r_lp_Energy>
13.5174

> <b_lp_Chiralities_Consistent>
1

> <s_lp_Variant>
AV-unprocessed.smi:865-2

> <Gold.Version>
5.8.1

> <Gold.Id.Protein>
6NUR|6NUR_protein|mol2

> <Gold.PLP.Fitness>
46.9105

> <Gold.PLP.PLP>
-38.3523

> <Gold.PLP.part.hbond>
-3.0000

> <Gold.PLP.part.metal>
0.0000

> <Gold.PLP.part.buried>
-5.1424

> <Gold.PLP.part.nonpolar>
-30.5159

> <Gold.PLP.part.repulsive>
0.5259

> <Gold.PLP.ligand.clash>
0.0000

> <Gold.PLP.ligand.torsion>
1.8725

> <Gold.PLP.Chemscore.Hbond>
2.9920

> <Gold.PLP.Chemscore.CHOScore>
0.9731

> <Gold.PLP.Chemscore.Metal>
0.0000

> <Gold.Chemscore.Hbonds>
donor molecule, donor type, donor heavy atom, donor atom, acceptor molecule, acceptor atom, score
      L1  H     7    30       P1  8028  0.98
      L1  H     9    33       P1  8028  0.96
      P1  H  7989  7998       L1    11  1.00
      L1  C    14    36       P1 10175  1.00

> <Gold.PLP.Chemscore.Internal.Correction>
0.4078

> <Gold.Rescore>
     Score         DG    S(hbond)    S(metal)    S(lipo)     H(rot)  DE(clash)    DE(int)     intcor
     10.81     -13.92       2.45        0.00      85.16       3.80       0.15       2.96       ----

> <Gold.Chemscore.Fitness>
10.8126

> <Gold.Chemscore.DG>
-13.9198

> <Gold.Chemscore.ZeroCoef>
-5.4800

> <Gold.Chemscore.Hbond>
2.4537

> <Gold.Chemscore.Metal>
0.0000

> <Gold.Chemscore.Lipo>
85.1564

> <Gold.Chemscore.Internal_Hbond>
0.0000

> <Gold.Chemscore.DEClash>
0.1459

> <Gold.Chemscore.DEInternal>
2.9613

> <Gold.Chemscore.Rot>
3.7964

> <Gold.Chemscore.Internal.Correction>
   9.000000E+99

> <Gold.Chemscore.Hbonds>
donor molecule, donor type, donor heavy atom, donor atom, acceptor molecule, acceptor atom, score
      L1  H     7    30       P1  8028  0.74
      L1  H     9    33       P1  8028  0.92
      P1  H  7989  7998       L1    11  0.57

> <Gold.Chemscore.Hbond.Weighted>
-8.1953

> <Gold.Chemscore.Metal.Weighted>
-0.0000

> <Gold.Chemscore.Lipo.Weighted>
-9.9633

> <Gold.Chemscore.Internal_Hbond.Weighted>
0.0000

> <Gold.Chemscore.DEClash.Weighted>
0.1459

> <Gold.Chemscore.DEInternal.Weighted>
2.9613

> <Gold.Chemscore.Rot.Weighted>
9.7188

> <Gold.Chemscore.Internal.Correction.Weighted>
   9.000000E+99

> <Gold.Protein.RotatedTorsions>
[ 6907 6896 6895 6894 ] final -121.73 input  -60.11 | X-H torsion
[ 7974 7965 7964 7962 ] final -154.38 input  175.53 | X-H torsion
[ 8008 7997 7996 7995 ] final -151.73 input   59.86 | X-H torsion
[ 10167 10162 10161 10158 ] final -143.89 input  -65.29 | X-H torsion
[ 10718 10713 10712 10709 ] final   92.20 input   66.30 | X-H torsion
[ 10763 10752 10751 10750 ] final -154.17 input  -60.55 | X-H torsion
[ 11005 11000 10999 10996 ] final   18.11 input  -57.11 | X-H torsion

> <Gold.Protein.ActiveResidues>
 VAL166  LYS551  ARG553  GLY616  TRP617  ASP618  TYR619  PRO620  LYS621  CYS622 
 ASP623  PHE694  ASN695  SER759  ASP760  ASP761  ALA762  ILE779  LEU786  VAL792 
 PHE793  MET794  SER795  GLU796  ALA797  LYS798  CYS799  TRP800  GLU811  SER814 

> <Gold.Protein.RotatedAtoms>
  150.8510  133.7787  159.3025 H   0  0  0  0  0  0  0  0  0  0  0  0  # atno 6907 bound_to 6896
  151.5459  135.1066  159.9947 H   0  0  0  0  0  0  0  0  0  0  0  0  # atno 6908 bound_to 6896
  152.4552  133.7666  159.6832 H   0  0  0  0  0  0  0  0  0  0  0  0  # atno 6909 bound_to 6896
  144.7692  140.4395  143.5919 H   0  0  0  0  0  0  0  0  0  0  0  0  # atno 7974 bound_to 7965
  155.6440  140.0704  157.2609 H   0  0  0  0  0  0  0  0  0  0  0  0  # atno 8008 bound_to 7997
  154.4177  140.1745  156.1653 H   0  0  0  0  0  0  0  0  0  0  0  0  # atno 8009 bound_to 7997
  155.9832  140.3352  155.6686 H   0  0  0  0  0  0  0  0  0  0  0  0  # atno 8010 bound_to 7997
  139.7950  143.7912  152.2653 H   0  0  0  0  0  0  0  0  0  0  0  0  # atno 10167 bound_to 10162
  157.6959  131.0434  150.3845 H   0  0  0  0  0  0  0  0  0  0  0  0  # atno 10718 bound_to 10713
  154.7877  135.3196  154.7848 H   0  0  0  0  0  0  0  0  0  0  0  0  # atno 10763 bound_to 10752
  153.8544  135.6859  153.4793 H   0  0  0  0  0  0  0  0  0  0  0  0  # atno 10764 bound_to 10752
  153.1535  135.4689  154.9611 H   0  0  0  0  0  0  0  0  0  0  0  0  # atno 10765 bound_to 10752
  140.4285  134.1445  155.7678 H   0  0  0  0  0  0  0  0  0  0  0  0  # atno 11005 bound_to 11000
  145.6375  139.1545  143.2934 LP  0  0  0  0  0  0  0  0  0  0  0  0  # atno 17320 bound_to 7965
  146.1825  140.6475  142.9182 LP  0  0  0  0  0  0  0  0  0  0  0  0  # atno 17321 bound_to 7965
  139.8015  144.7372  150.9818 LP  0  0  0  0  0  0  0  0  0  0  0  0  # atno 17342 bound_to 10162
  140.7820  143.4340  151.0651 LP  0  0  0  0  0  0  0  0  0  0  0  0  # atno 17343 bound_to 10162
  156.4255  130.3961  149.6796 LP  0  0  0  0  0  0  0  0  0  0  0  0  # atno 17370 bound_to 10713
  156.4031  130.7685  151.2694 LP  0  0  0  0  0  0  0  0  0  0  0  0  # atno 17371 bound_to 10713
  141.1755  133.8522  157.1434 LP  0  0  0  0  0  0  0  0  0  0  0  0  # atno 17394 bound_to 11000
  140.0151  134.9971  157.0476 LP  0  0  0  0  0  0  0  0  0  0  0  0  # atno 17395 bound_to 11000

$$$$
