AV-unprocessed.smi:16|AV-procd|sdf|92|dock10
  -GOLD-   2262015233D 1   1.00000     0.00000
 Structure written by MMmdl.
 60 64  0  0  0  0  0  0  0  0  2 V2000
  144.9307  136.4020  154.4758 C   0  0  0  0  0  0  0  0  0  0  0  0
  145.9151  136.3677  153.2974 C   0  0  0  0  0  0  0  0  0  0  0  0
  147.1913  135.6890  153.6383 N   0  3  2  0  0  0  0  0  0  0  0  0
  146.9940  134.2449  153.9314 C   0  0  0  0  0  0  0  0  0  0  0  0
  148.3351  133.5321  154.1714 C   0  0  0  0  0  0  0  0  0  0  0  0
  149.1124  134.2202  155.2986 C   0  0  1  0  0  0  0  0  0  0  0  0
  150.3737  133.5855  155.4719 O   0  0  0  0  0  0  0  0  0  0  0  0
  151.0980  134.1490  156.5607 C   0  0  0  0  0  0  0  0  0  0  0  0
  151.3617  135.6390  156.2876 C   0  0  0  0  0  0  0  0  0  0  0  0
  150.1128  136.3420  156.0093 N   0  0  0  0  0  0  0  0  0  0  0  0
  150.3305  137.6717  155.8887 C   0  0  0  0  0  0  0  0  0  0  0  0
  150.0190  138.3149  154.7321 N   0  0  0  0  0  0  0  0  0  0  0  0
  150.2389  139.6288  154.6207 C   0  0  0  0  0  0  0  0  0  0  0  0
  150.7509  140.4691  155.5230 N   0  0  0  0  0  0  0  0  0  0  0  0
  151.0711  139.8212  156.6801 C   0  0  0  0  0  0  0  0  0  0  0  0
  150.8927  138.4351  156.9439 C   0  0  0  0  0  0  0  0  0  0  0  0
  151.3132  138.1341  158.2323 N   0  0  0  0  0  0  0  0  0  0  0  0
  151.7136  139.2822  158.7079 C   0  0  0  0  0  0  0  0  0  0  0  0
  151.6273  140.3436  157.8340 N   0  0  0  0  0  0  0  0  0  0  0  0
  151.9569  141.7120  158.1037 C   0  0  0  0  0  0  0  0  0  0  0  0
  152.8876  142.0845  159.2596 C   0  0  0  0  0  0  0  0  0  0  0  0
  152.1062  143.4042  159.4527 C   0  0  0  0  0  0  0  0  0  0  0  0
  151.8330  143.8067  160.9111 C   0  0  0  0  0  0  0  0  0  0  0  0
  151.6765  142.6687  161.7342 O   0  0  0  0  0  0  0  0  0  0  0  0
  152.6693  144.6192  158.6880 C   0  0  0  0  0  0  0  0  0  0  0  0
  151.9090  145.7845  158.9361 O   0  0  0  0  0  0  0  0  0  0  0  0
  150.9474  142.6641  158.7491 C   0  0  0  0  0  0  0  0  0  0  0  0
  149.3270  135.7065  154.9475 C   0  0  2  0  0  0  0  0  0  0  0  0
  147.9494  136.3749  154.7202 C   0  0  0  0  0  0  0  0  0  0  0  0
  148.5392  134.1318  156.2240 H   0  0  0  0  0  0  0  0  0  0  0  0
  149.9003  135.7623  154.0203 H   0  0  0  0  0  0  0  0  0  0  0  0
  144.0502  136.9921  154.2205 H   0  0  0  0  0  0  0  0  0  0  0  0
  145.3863  136.8551  155.3568 H   0  0  0  0  0  0  0  0  0  0  0  0
  144.5812  135.4073  154.7507 H   0  0  0  0  0  0  0  0  0  0  0  0
  145.4588  135.8946  152.4267 H   0  0  0  0  0  0  0  0  0  0  0  0
  146.1234  137.3999  153.0130 H   0  0  0  0  0  0  0  0  0  0  0  0
  146.3494  134.1365  154.8053 H   0  0  0  0  0  0  0  0  0  0  0  0
  146.4807  133.7657  153.0969 H   0  0  0  0  0  0  0  0  0  0  0  0
  148.1609  132.4855  154.4231 H   0  0  0  0  0  0  0  0  0  0  0  0
  148.9265  133.5378  153.2547 H   0  0  0  0  0  0  0  0  0  0  0  0
  150.5437  134.0160  157.4911 H   0  0  0  0  0  0  0  0  0  0  0  0
  152.0418  133.6153  156.6735 H   0  0  0  0  0  0  0  0  0  0  0  0
  151.8603  136.0878  157.1482 H   0  0  0  0  0  0  0  0  0  0  0  0
  152.0358  135.7433  155.4360 H   0  0  0  0  0  0  0  0  0  0  0  0
  149.9670  140.0705  153.6732 H   0  0  0  0  0  0  0  0  0  0  0  0
  152.0892  139.3839  159.7160 H   0  0  0  0  0  0  0  0  0  0  0  0
  152.3279  142.1224  157.1630 H   0  0  0  0  0  0  0  0  0  0  0  0
  152.7914  141.4019  160.1060 H   0  0  0  0  0  0  0  0  0  0  0  0
  153.9332  142.2018  158.9730 H   0  0  0  0  0  0  0  0  0  0  0  0
  152.6594  144.3946  161.3114 H   0  0  0  0  0  0  0  0  0  0  0  0
  150.9445  144.4326  160.9968 H   0  0  0  0  0  0  0  0  0  0  0  0
  152.2051  142.7834  162.5090 H   0  0  0  0  0  0  0  0  0  0  0  0
  153.6989  144.8263  158.9803 H   0  0  0  0  0  0  0  0  0  0  0  0
  152.6929  144.4387  157.6131 H   0  0  0  0  0  0  0  0  0  0  0  0
  152.1751  146.1448  159.7683 H   0  0  0  0  0  0  0  0  0  0  0  0
  150.3801  143.2689  158.0411 H   0  0  0  0  0  0  0  0  0  0  0  0
  150.2821  142.1573  159.4508 H   0  0  0  0  0  0  0  0  0  0  0  0
  148.0850  137.4212  154.4518 H   0  0  0  0  0  0  0  0  0  0  0  0
  147.3662  136.3607  155.6426 H   0  0  0  0  0  0  0  0  0  0  0  0
  147.7655  135.7294  152.8082 H   0  0  0  0  0  0  0  0  0  0  0  0
  1  2  1  0  0  0  0
  1 32  1  0  0  0  0
  1 33  1  0  0  0  0
  1 34  1  0  0  0  0
  2  3  1  0  0  0  0
  2 35  1  0  0  0  0
  2 36  1  0  0  0  0
  3 29  1  0  0  0  0
  3  4  1  0  0  0  0
  3 60  1  0  0  0  0
  4  5  1  0  0  0  0
  4 37  1  0  0  0  0
  4 38  1  0  0  0  0
  5  6  1  0  0  0  0
  5 39  1  0  0  0  0
  5 40  1  0  0  0  0
  6 30  1  0  0  0  0
  6 28  1  0  0  0  0
  6  7  1  0  0  0  0
  7  8  1  0  0  0  0
  8  9  1  0  0  0  0
  8 41  1  0  0  0  0
  8 42  1  0  0  0  0
  9 10  1  0  0  0  0
  9 43  1  0  0  0  0
  9 44  1  0  0  0  0
 10 11  1  0  0  0  0
 10 28  1  0  0  0  0
 11 16  1  0  0  0  0
 11 12  2  0  0  0  0
 12 13  1  0  0  0  0
 13 14  2  0  0  0  0
 13 45  1  0  0  0  0
 14 15  1  0  0  0  0
 15 19  1  0  0  0  0
 15 16  2  0  0  0  0
 16 17  1  0  0  0  0
 17 18  2  0  0  0  0
 18 19  1  0  0  0  0
 18 46  1  0  0  0  0
 19 20  1  0  0  0  0
 20 27  1  0  0  0  0
 20 21  1  0  0  0  0
 20 47  1  0  0  0  0
 21 22  1  0  0  0  0
 21 48  1  0  0  0  0
 21 49  1  0  0  0  0
 22 23  1  0  0  0  0
 22 25  1  0  0  0  0
 22 27  1  0  0  0  0
 23 24  1  0  0  0  0
 23 50  1  0  0  0  0
 23 51  1  0  0  0  0
 24 52  1  0  0  0  0
 25 26  1  0  0  0  0
 25 53  1  0  0  0  0
 25 54  1  0  0  0  0
 26 55  1  0  0  0  0
 27 56  1  0  0  0  0
 27 57  1  0  0  0  0
 28 31  1  0  0  0  0
 28 29  1  0  0  0  0
 29 58  1  0  0  0  0
 29 59  1  0  0  0  0
M  CHG  1   3   1
M  END
> <s_m_source_file>
AV-unprocessed.smi

> <i_m_source_file_index>
16

> <i_lp_mmshare_version>
43012

> <i_f3d_flags>
0

> <s_epik_input>
W0NIM11bQ0gyXU4oW0NIMl1bQ0gyXTEpW0NIMl1bQ0BASF0oW0NAQEhdMTIpTihbQ0gyXVtDSDJdTzIpYyhuW2NIXW4zKWMoYzM0KW5bY0hdbjRbQ0hdKFtDSDJdNSlbQ0gyXUM1KFtDSDJdW09IXSlbQ0gyXVtPSF0=

> <s_epik_cmdline>
J2VwaWtfcHl0aG9uJywgJy1waCcsICc3LjAnLCAnLXRuJywgJzgnLCAnLW1hJywgJzIwMCcsICctbWV0YWxfYmluZGluZycsICctaW1hZScsICc8aW5maWxlLm1hZT4nLCAnLW9tYWUnLCAnPG91dGZpbGUubWFlPic=

> <r_lp_tautomer_probability>
1

> <r_epik_Ionization_Penalty>
0.0135603

> <r_epik_Ionization_Penalty_Charging>
0.0131385

> <r_epik_Ionization_Penalty_Neutral>
0.000421734

> <r_epik_State_Penalty>
0.0102091

> <r_epik_Charging_Adjusted_Penalty>
0.0233476

> <i_epik_Tot_Q>
1

> <i_epik_Tot_abs_Q>
1

> <r_epik_Metal_State_Penalty>
0.0103746

> <b_epik_Metal_Only>
0

> <s_lp_Force_Field>
OPLS_2005

> <r_lp_Energy>
53.4104

> <b_lp_Chiralities_Consistent>
1

> <s_lp_Variant>
AV-unprocessed.smi:16-6

> <Gold.Version>
5.8.1

> <Gold.Id.Protein>
6NUR|6NUR_protein|mol2

> <Gold.PLP.Fitness>
48.9299

> <Gold.PLP.PLP>
-39.5993

> <Gold.PLP.part.hbond>
-3.9429

> <Gold.PLP.part.metal>
0.0000

> <Gold.PLP.part.buried>
-2.7116

> <Gold.PLP.part.nonpolar>
-32.2357

> <Gold.PLP.part.repulsive>
0.2870

> <Gold.PLP.ligand.clash>
0.0000

> <Gold.PLP.ligand.torsion>
1.1311

> <Gold.PLP.Chemscore.Hbond>
2.7520

> <Gold.PLP.Chemscore.CHOScore>
0.9047

> <Gold.PLP.Chemscore.Metal>
0.0000

> <Gold.Chemscore.Hbonds>
donor molecule, donor type, donor heavy atom, donor atom, acceptor molecule, acceptor atom, score
      L1  H     3    60       P1  7948  2.00
      P1  H  6933  6945       L1    24  0.70
      L1  C    13    45       P1  7957  0.99

> <Gold.PLP.Chemscore.Internal.Correction>
0.6226

> <Gold.Rescore>
     Score         DG    S(hbond)    S(metal)    S(lipo)     H(rot)  DE(clash)    DE(int)     intcor
     11.37     -13.89       1.67        0.00      96.95       3.33       0.07       2.45       ----

> <Gold.Chemscore.Fitness>
11.3711

> <Gold.Chemscore.DG>
-13.8888

> <Gold.Chemscore.ZeroCoef>
-5.4800

> <Gold.Chemscore.Hbond>
1.6700

> <Gold.Chemscore.Metal>
0.0000

> <Gold.Chemscore.Lipo>
96.9513

> <Gold.Chemscore.Internal_Hbond>
0.0000

> <Gold.Chemscore.DEClash>
0.0713

> <Gold.Chemscore.DEInternal>
2.4464

> <Gold.Chemscore.Rot>
3.3251

> <Gold.Chemscore.Internal.Correction>
   9.000000E+99

> <Gold.Chemscore.Hbonds>
donor molecule, donor type, donor heavy atom, donor atom, acceptor molecule, acceptor atom, score
      L1  H     3    60       P1  7948  0.97
      P1  H  6933  6945       L1    24  0.49

> <Gold.Chemscore.Hbond.Weighted>
-5.5777

> <Gold.Chemscore.Metal.Weighted>
-0.0000

> <Gold.Chemscore.Lipo.Weighted>
-11.3433

> <Gold.Chemscore.Internal_Hbond.Weighted>
0.0000

> <Gold.Chemscore.DEClash.Weighted>
0.0713

> <Gold.Chemscore.DEInternal.Weighted>
2.4464

> <Gold.Chemscore.Rot.Weighted>
8.5122

> <Gold.Chemscore.Internal.Correction.Weighted>
   9.000000E+99

> <Gold.Protein.RotatedTorsions>
[ 6907 6896 6895 6894 ] final  106.05 input  -60.11 | X-H torsion
[ 7974 7965 7964 7962 ] final   21.27 input  175.53 | X-H torsion
[ 8008 7997 7996 7995 ] final  111.81 input   59.86 | X-H torsion
[ 10167 10162 10161 10158 ] final  173.56 input  -65.29 | X-H torsion
[ 10718 10713 10712 10709 ] final  -91.40 input   66.30 | X-H torsion
[ 10763 10752 10751 10750 ] final  177.97 input  -60.55 | X-H torsion
[ 11005 11000 10999 10996 ] final   37.27 input  -57.11 | X-H torsion

> <Gold.Protein.ActiveResidues>
 VAL166  LYS551  ARG553  GLY616  TRP617  ASP618  TYR619  PRO620  LYS621  CYS622 
 ASP623  PHE694  ASN695  SER759  ASP760  ASP761  ALA762  ILE779  LEU786  VAL792 
 PHE793  MET794  SER795  GLU796  ALA797  LYS798  CYS799  TRP800  GLU811  SER814 

> <Gold.Protein.RotatedAtoms>
  152.5208  133.9439  159.7639 H   0  0  0  0  0  0  0  0  0  0  0  0  # atno 6907 bound_to 6896
  150.9763  133.6283  159.2737 H   0  0  0  0  0  0  0  0  0  0  0  0  # atno 6908 bound_to 6896
  151.3477  135.0883  159.9445 H   0  0  0  0  0  0  0  0  0  0  0  0  # atno 6909 bound_to 6896
  146.2078  139.8051  142.8712 H   0  0  0  0  0  0  0  0  0  0  0  0  # atno 7974 bound_to 7965
  156.2149  140.3012  155.9817 H   0  0  0  0  0  0  0  0  0  0  0  0  # atno 8008 bound_to 7997
  155.2630  140.0430  157.3016 H   0  0  0  0  0  0  0  0  0  0  0  0  # atno 8009 bound_to 7997
  154.5753  140.2360  155.8140 H   0  0  0  0  0  0  0  0  0  0  0  0  # atno 8010 bound_to 7997
  139.5112  144.3247  152.0169 H   0  0  0  0  0  0  0  0  0  0  0  0  # atno 10167 bound_to 10162
  155.9993  130.4947  150.5469 H   0  0  0  0  0  0  0  0  0  0  0  0  # atno 10718 bound_to 10713
  154.5015  135.2784  155.1417 H   0  0  0  0  0  0  0  0  0  0  0  0  # atno 10763 bound_to 10752
  154.3048  135.6241  153.5444 H   0  0  0  0  0  0  0  0  0  0  0  0  # atno 10764 bound_to 10752
  152.9903  135.5705  154.5459 H   0  0  0  0  0  0  0  0  0  0  0  0  # atno 10765 bound_to 10752
  140.2242  134.3604  155.7991 H   0  0  0  0  0  0  0  0  0  0  0  0  # atno 11005 bound_to 11000
  145.3255  141.0254  143.3476 LP  0  0  0  0  0  0  0  0  0  0  0  0  # atno 17320 bound_to 7965
  144.8836  139.4870  143.6711 LP  0  0  0  0  0  0  0  0  0  0  0  0  # atno 17321 bound_to 7965
  140.2688  144.3987  150.6159 LP  0  0  0  0  0  0  0  0  0  0  0  0  # atno 17342 bound_to 10162
  140.6104  143.2169  151.6898 LP  0  0  0  0  0  0  0  0  0  0  0  0  # atno 17343 bound_to 10162
  157.3398  131.0714  151.1797 LP  0  0  0  0  0  0  0  0  0  0  0  0  # atno 17370 bound_to 10713
  157.2649  130.6676  149.5992 LP  0  0  0  0  0  0  0  0  0  0  0  0  # atno 17371 bound_to 10713
  141.2221  133.7210  156.8626 LP  0  0  0  0  0  0  0  0  0  0  0  0  # atno 17394 bound_to 11000
  140.1818  134.9028  157.2957 LP  0  0  0  0  0  0  0  0  0  0  0  0  # atno 17395 bound_to 11000

$$$$
