AV-unprocessed.smi:2316|AV-procd|sdf|9270|dock2
  -GOLD-   2272012493D 1   1.00000     0.00000
 Structure written by MMmdl.
 31 32  0  0  0  0  0  0  0  0  1 V2000
  151.1310  141.0231  156.7265 O   0  0  0  0  0  0  0  0  0  0  0  0
  150.5622  142.0577  156.3854 C   0  0  0  0  0  0  0  0  0  0  0  0
  149.5573  142.1239  155.4902 N   0  0  0  0  0  0  0  0  0  0  0  0
  148.9433  141.0767  154.7512 C   0  0  0  0  0  0  0  0  0  0  0  0
  149.4371  139.7514  154.6855 C   0  0  0  0  0  0  0  0  0  0  0  0
  148.7414  138.8106  153.8999 C   0  0  0  0  0  0  0  0  0  0  0  0
  147.6275  139.1061  153.1968 N   0  0  0  0  0  0  0  0  0  0  0  0
  147.1675  140.3739  153.2511 C   0  0  0  0  0  0  0  0  0  0  0  0
  147.7874  141.3903  154.0051 C   0  0  0  0  0  0  0  0  0  0  0  0
  147.2752  142.6448  154.0129 F   0  0  0  0  0  0  0  0  0  0  0  0
  150.8990  143.2444  156.9248 N   0  0  0  0  0  0  0  0  0  0  0  0
  151.9348  143.5362  157.9187 C   0  0  1  0  0  0  0  0  0  0  0  0
  151.8363  144.9810  158.3934 C   0  0  0  0  0  0  0  0  0  0  0  0
  151.9257  145.3520  159.6820 C   0  0  0  0  0  0  0  0  0  0  0  0
  152.1505  144.3748  160.8209 C   0  0  0  0  0  0  0  0  0  0  0  0
  152.6200  142.9985  160.3181 C   0  0  0  0  0  0  0  0  0  0  0  0
  151.8170  142.5389  159.0916 C   0  0  0  0  0  0  0  0  0  0  0  0
  149.1377  143.0344  155.3700 H   0  0  0  0  0  0  0  0  0  0  0  0
  150.3308  139.4416  155.2041 H   0  0  0  0  0  0  0  0  0  0  0  0
  149.0943  137.7924  153.8296 H   0  0  0  0  0  0  0  0  0  0  0  0
  146.2787  140.5857  152.6752 H   0  0  0  0  0  0  0  0  0  0  0  0
  150.3561  144.0398  156.6206 H   0  0  0  0  0  0  0  0  0  0  0  0
  152.9218  143.4111  157.4703 H   0  0  0  0  0  0  0  0  0  0  0  0
  151.6855  145.7370  157.6365 H   0  0  0  0  0  0  0  0  0  0  0  0
  151.8248  146.3939  159.9480 H   0  0  0  0  0  0  0  0  0  0  0  0
  152.8863  144.7885  161.5109 H   0  0  0  0  0  0  0  0  0  0  0  0
  151.2152  144.2769  161.3726 H   0  0  0  0  0  0  0  0  0  0  0  0
  153.6765  143.0517  160.0517 H   0  0  0  0  0  0  0  0  0  0  0  0
  152.5416  142.2635  161.1196 H   0  0  0  0  0  0  0  0  0  0  0  0
  150.7709  142.4323  159.3835 H   0  0  0  0  0  0  0  0  0  0  0  0
  152.1490  141.5499  158.7744 H   0  0  0  0  0  0  0  0  0  0  0  0
  1  2  2  0  0  0  0
  2  3  1  0  0  0  0
  2 11  1  0  0  0  0
  3  4  1  0  0  0  0
  3 18  1  0  0  0  0
  4  9  1  0  0  0  0
  4  5  2  0  0  0  0
  5  6  1  0  0  0  0
  5 19  1  0  0  0  0
  6  7  2  0  0  0  0
  6 20  1  0  0  0  0
  7  8  1  0  0  0  0
  8  9  2  0  0  0  0
  8 21  1  0  0  0  0
  9 10  1  0  0  0  0
 11 12  1  0  0  0  0
 11 22  1  0  0  0  0
 12 17  1  0  0  0  0
 12 13  1  0  0  0  0
 12 23  1  0  0  0  0
 13 14  2  0  0  0  0
 13 24  1  0  0  0  0
 14 15  1  0  0  0  0
 14 25  1  0  0  0  0
 15 16  1  0  0  0  0
 15 26  1  0  0  0  0
 15 27  1  0  0  0  0
 16 17  1  0  0  0  0
 16 28  1  0  0  0  0
 16 29  1  0  0  0  0
 17 30  1  0  0  0  0
 17 31  1  0  0  0  0
M  END
> <s_m_source_file>
AV-unprocessed.smi

> <i_m_source_file_index>
2316

> <i_lp_mmshare_version>
43012

> <i_f3d_flags>
0

> <s_epik_input>
W0NIMl0xW0NIMl1bQ0gyXVtDSF09W0NIXVtDQEhdMVtOSF1DKD1PKVtOSF1jMltjSF1bY0hdbltjSF1jMkY=

> <s_epik_cmdline>
J2VwaWtfcHl0aG9uJywgJy1waCcsICc3LjAnLCAnLXRuJywgJzgnLCAnLW1hJywgJzIwMCcsICctbWV0YWxfYmluZGluZycsICctaW1hZScsICc8aW5maWxlLm1hZT4nLCAnLW9tYWUnLCAnPG91dGZpbGUubWFlPic=

> <r_epik_Ionization_Penalty>
0.0032416

> <r_epik_Ionization_Penalty_Charging>
0

> <r_epik_Ionization_Penalty_Neutral>
0.0032416

> <r_epik_State_Penalty>
0.00226065

> <r_epik_Charging_Adjusted_Penalty>
0.00226065

> <i_epik_Tot_Q>
0

> <i_epik_Tot_abs_Q>
0

> <r_epik_Metal_State_Penalty>
-0

> <b_epik_Metal_Only>
0

> <s_lp_Force_Field>
OPLS_2005

> <r_lp_Energy>
22.3144

> <b_lp_Chiralities_Consistent>
1

> <s_lp_Variant>
AV-unprocessed.smi:2316-2

> <Gold.Version>
5.8.1

> <Gold.Id.Protein>
6NUR|6NUR_protein|mol2

> <Gold.PLP.Fitness>
54.0165

> <Gold.PLP.PLP>
-42.2376

> <Gold.PLP.part.hbond>
-2.0000

> <Gold.PLP.part.metal>
0.0000

> <Gold.PLP.part.buried>
-4.1522

> <Gold.PLP.part.nonpolar>
-36.4645

> <Gold.PLP.part.repulsive>
1.3186

> <Gold.PLP.ligand.clash>
0.0000

> <Gold.PLP.ligand.torsion>
0.1145

> <Gold.PLP.Chemscore.Hbond>
2.0000

> <Gold.PLP.Chemscore.CHOScore>
2.0000

> <Gold.PLP.Chemscore.Metal>
0.0000

> <Gold.Chemscore.Hbonds>
donor molecule, donor type, donor heavy atom, donor atom, acceptor molecule, acceptor atom, score
      L1  H     3    18       P1  8028  1.00
      L1  H    11    22       P1  8028  1.00
      L1  C     6    20       P1  7948  0.96
      L1  C     8    21       P1 10175  0.84

> <Gold.PLP.Chemscore.Internal.Correction>
0.0078

> <Gold.Rescore>
     Score         DG    S(hbond)    S(metal)    S(lipo)     H(rot)  DE(clash)    DE(int)     intcor
     19.10     -21.93       1.95        0.00     106.66       1.00       0.32       2.50       ----

> <Gold.Chemscore.Fitness>
19.1037

> <Gold.Chemscore.DG>
-21.9272

> <Gold.Chemscore.ZeroCoef>
-5.4800

> <Gold.Chemscore.Hbond>
1.9543

> <Gold.Chemscore.Metal>
0.0000

> <Gold.Chemscore.Lipo>
106.6646

> <Gold.Chemscore.Internal_Hbond>
0.0000

> <Gold.Chemscore.DEClash>
0.3195

> <Gold.Chemscore.DEInternal>
2.5039

> <Gold.Chemscore.Rot>
1.0000

> <Gold.Chemscore.Internal.Correction>
   9.000000E+99

> <Gold.Chemscore.Hbonds>
donor molecule, donor type, donor heavy atom, donor atom, acceptor molecule, acceptor atom, score
      L1  H     3    18       P1  8028  0.99
      L1  H    11    22       P1  8028  0.95

> <Gold.Chemscore.Hbond.Weighted>
-6.5274

> <Gold.Chemscore.Metal.Weighted>
-0.0000

> <Gold.Chemscore.Lipo.Weighted>
-12.4798

> <Gold.Chemscore.Internal_Hbond.Weighted>
0.0000

> <Gold.Chemscore.DEClash.Weighted>
0.3195

> <Gold.Chemscore.DEInternal.Weighted>
2.5039

> <Gold.Chemscore.Rot.Weighted>
2.5600

> <Gold.Chemscore.Internal.Correction.Weighted>
   9.000000E+99

> <Gold.Protein.RotatedTorsions>
[ 6907 6896 6895 6894 ] final   32.52 input  -60.11 | X-H torsion
[ 7974 7965 7964 7962 ] final  -57.56 input  175.53 | X-H torsion
[ 8008 7997 7996 7995 ] final  107.51 input   59.86 | X-H torsion
[ 10167 10162 10161 10158 ] final -168.76 input  -65.29 | X-H torsion
[ 10718 10713 10712 10709 ] final   67.37 input   66.30 | X-H torsion
[ 10763 10752 10751 10750 ] final -168.93 input  -60.55 | X-H torsion
[ 11005 11000 10999 10996 ] final  -65.29 input  -57.11 | X-H torsion

> <Gold.Protein.ActiveResidues>
 VAL166  LYS551  ARG553  GLY616  TRP617  ASP618  TYR619  PRO620  LYS621  CYS622 
 ASP623  PHE694  ASN695  SER759  ASP760  ASP761  ALA762  ILE779  LEU786  VAL792 
 PHE793  MET794  SER795  GLU796  ALA797  LYS798  CYS799  TRP800  GLU811  SER814 

> <Gold.Protein.RotatedAtoms>
  152.0756  134.9505  160.0573 H   0  0  0  0  0  0  0  0  0  0  0  0  # atno 6907 bound_to 6896
  152.0813  133.4149  159.4511 H   0  0  0  0  0  0  0  0  0  0  0  0  # atno 6908 bound_to 6896
  150.6836  134.2898  159.4705 H   0  0  0  0  0  0  0  0  0  0  0  0  # atno 6909 bound_to 6896
  145.8497  140.8361  142.9992 H   0  0  0  0  0  0  0  0  0  0  0  0  # atno 7974 bound_to 7965
  156.1830  140.3093  155.9184 H   0  0  0  0  0  0  0  0  0  0  0  0  # atno 8008 bound_to 7997
  155.3343  140.0462  157.3060 H   0  0  0  0  0  0  0  0  0  0  0  0  # atno 8009 bound_to 7997
  154.5363  140.2247  155.8726 H   0  0  0  0  0  0  0  0  0  0  0  0  # atno 8010 bound_to 7997
  139.5965  144.1102  152.1695 H   0  0  0  0  0  0  0  0  0  0  0  0  # atno 10167 bound_to 10162
  157.6226  130.9317  150.0233 H   0  0  0  0  0  0  0  0  0  0  0  0  # atno 10718 bound_to 10713
  154.6576  135.2920  154.9907 H   0  0  0  0  0  0  0  0  0  0  0  0  # atno 10763 bound_to 10752
  154.0978  135.6581  153.4867 H   0  0  0  0  0  0  0  0  0  0  0  0  # atno 10764 bound_to 10752
  153.0411  135.5235  154.7513 H   0  0  0  0  0  0  0  0  0  0  0  0  # atno 10765 bound_to 10752
  141.1450  133.6679  156.5964 H   0  0  0  0  0  0  0  0  0  0  0  0  # atno 11005 bound_to 11000
  144.6729  140.0934  143.7464 LP  0  0  0  0  0  0  0  0  0  0  0  0  # atno 17320 bound_to 7965
  145.9372  139.2645  143.1290 LP  0  0  0  0  0  0  0  0  0  0  0  0  # atno 17321 bound_to 7965
  140.0688  144.5796  150.7207 LP  0  0  0  0  0  0  0  0  0  0  0  0  # atno 17342 bound_to 10162
  140.7216  143.2594  151.4261 LP  0  0  0  0  0  0  0  0  0  0  0  0  # atno 17343 bound_to 10162
  156.1380  130.3642  149.9627 LP  0  0  0  0  0  0  0  0  0  0  0  0  # atno 17370 bound_to 10713
  156.7674  130.9173  151.3643 LP  0  0  0  0  0  0  0  0  0  0  0  0  # atno 17371 bound_to 10713
  140.3723  134.7595  157.4606 LP  0  0  0  0  0  0  0  0  0  0  0  0  # atno 17394 bound_to 11000
  140.0701  134.5874  155.8651 LP  0  0  0  0  0  0  0  0  0  0  0  0  # atno 17395 bound_to 11000

$$$$
