AV-unprocessed.smi:418|AV-procd|sdf|2528|dock8
  -GOLD-   2262022483D 1   1.00000     0.00000
 Structure written by MMmdl.
 40 42  0  0  0  0  0  0  0  0  1 V2000
  154.4938  139.8760  160.2919 C   0  0  0  0  0  0  0  0  0  0  0  0
  153.2113  140.1605  159.6595 N   0  0  0  0  0  0  0  0  0  0  0  0
  152.4290  139.2940  158.9744 C   0  0  0  0  0  0  0  0  0  0  0  0
  152.6731  138.1058  158.7654 O   0  0  0  0  0  0  0  0  0  0  0  0
  151.3308  139.9650  158.5520 N   0  0  0  0  0  0  0  0  0  0  0  0
  150.2229  139.4155  157.7731 C   0  0  0  0  0  0  0  0  0  0  0  0
  150.0256  137.9103  158.0448 C   0  0  2  0  0  0  0  0  0  0  0  0
  149.3332  137.3409  156.9521 O   0  0  0  0  0  0  0  0  0  0  0  0
  149.1812  137.6557  159.3026 C   0  0  0  0  0  0  0  0  0  0  0  0
  148.7209  136.3110  159.2789 O   0  0  0  0  0  0  0  0  0  0  0  0
  148.0217  135.8376  160.3685 C   0  0  0  0  0  0  0  0  0  0  0  0
  147.8617  136.5530  161.5827 C   0  0  0  0  0  0  0  0  0  0  0  0
  147.1343  135.9920  162.6507 C   0  0  0  0  0  0  0  0  0  0  0  0
  146.5582  134.7152  162.5200 C   0  0  0  0  0  0  0  0  0  0  0  0
  146.7088  133.9995  161.3182 C   0  0  0  0  0  0  0  0  0  0  0  0
  147.4359  134.5591  160.2496 C   0  0  0  0  0  0  0  0  0  0  0  0
  147.5740  133.8589  159.0981 F   0  0  0  0  0  0  0  0  0  0  0  0
  151.4176  141.2998  158.9727 C   0  0  0  0  0  0  0  0  0  0  0  0
  150.5511  142.3907  158.7833 C   0  0  0  0  0  0  0  0  0  0  0  0
  150.9395  143.6297  159.3449 C   0  0  0  0  0  0  0  0  0  0  0  0
  152.1552  143.7519  160.0670 C   0  0  0  0  0  0  0  0  0  0  0  0
  153.0100  142.6382  160.2410 C   0  0  0  0  0  0  0  0  0  0  0  0
  152.6005  141.4207  159.6712 C   0  0  0  0  0  0  0  0  0  0  0  0
  154.8023  138.8398  160.1475 H   0  0  0  0  0  0  0  0  0  0  0  0
  154.4339  140.0638  161.3641 H   0  0  0  0  0  0  0  0  0  0  0  0
  155.2697  140.5184  159.8750 H   0  0  0  0  0  0  0  0  0  0  0  0
  149.3216  139.9617  158.0561 H   0  0  0  0  0  0  0  0  0  0  0  0
  150.3555  139.6109  156.7082 H   0  0  0  0  0  0  0  0  0  0  0  0
  150.9850  137.4025  158.1534 H   0  0  0  0  0  0  0  0  0  0  0  0
  148.4073  137.3638  157.1400 H   0  0  0  0  0  0  0  0  0  0  0  0
  149.7765  137.8486  160.1969 H   0  0  0  0  0  0  0  0  0  0  0  0
  148.3220  138.3289  159.3142 H   0  0  0  0  0  0  0  0  0  0  0  0
  148.2869  137.5353  161.7204 H   0  0  0  0  0  0  0  0  0  0  0  0
  147.0191  136.5436  163.5720 H   0  0  0  0  0  0  0  0  0  0  0  0
  146.0014  134.2856  163.3397 H   0  0  0  0  0  0  0  0  0  0  0  0
  146.2675  133.0190  161.2152 H   0  0  0  0  0  0  0  0  0  0  0  0
  149.6276  142.2938  158.2318 H   0  0  0  0  0  0  0  0  0  0  0  0
  150.3026  144.4933  159.2224 H   0  0  0  0  0  0  0  0  0  0  0  0
  152.4318  144.7072  160.4882 H   0  0  0  0  0  0  0  0  0  0  0  0
  153.9377  142.7231  160.7877 H   0  0  0  0  0  0  0  0  0  0  0  0
  1  2  1  0  0  0  0
  1 24  1  0  0  0  0
  1 25  1  0  0  0  0
  1 26  1  0  0  0  0
  2 23  1  0  0  0  0
  2  3  1  0  0  0  0
  3  4  2  0  0  0  0
  3  5  1  0  0  0  0
  5  6  1  0  0  0  0
  5 18  1  0  0  0  0
  6  7  1  0  0  0  0
  6 27  1  0  0  0  0
  6 28  1  0  0  0  0
  7  8  1  0  0  0  0
  7  9  1  0  0  0  0
  7 29  1  0  0  0  0
  8 30  1  0  0  0  0
  9 10  1  0  0  0  0
  9 31  1  0  0  0  0
  9 32  1  0  0  0  0
 10 11  1  0  0  0  0
 11 16  1  0  0  0  0
 11 12  2  0  0  0  0
 12 13  1  0  0  0  0
 12 33  1  0  0  0  0
 13 14  2  0  0  0  0
 13 34  1  0  0  0  0
 14 15  1  0  0  0  0
 14 35  1  0  0  0  0
 15 16  2  0  0  0  0
 15 36  1  0  0  0  0
 16 17  1  0  0  0  0
 18 23  2  0  0  0  0
 18 19  1  0  0  0  0
 19 20  2  0  0  0  0
 19 37  1  0  0  0  0
 20 21  1  0  0  0  0
 20 38  1  0  0  0  0
 21 22  2  0  0  0  0
 21 39  1  0  0  0  0
 22 23  1  0  0  0  0
 22 40  1  0  0  0  0
M  END
> <s_m_source_file>
AV-unprocessed.smi

> <i_m_source_file_index>
418

> <i_lp_mmshare_version>
43012

> <i_f3d_flags>
0

> <s_epik_input>
W2NIXTFbY0hdW2NIXVtjSF1jKGMxMiluKFtDSDNdKWMoPU8pbjJbQ0gyXVtDQEhdKFtPSF0pW0NIMl1PYzNbY0hdW2NIXVtjSF1bY0hdYzNG

> <s_epik_cmdline>
J2VwaWtfcHl0aG9uJywgJy1waCcsICc3LjAnLCAnLXRuJywgJzgnLCAnLW1hJywgJzIwMCcsICctbWV0YWxfYmluZGluZycsICctaW1hZScsICc8aW5maWxlLm1hZT4nLCAnLW9tYWUnLCAnPG91dGZpbGUubWFlPic=

> <r_lp_tautomer_probability>
1

> <r_epik_Ionization_Penalty>
2.40171e-06

> <r_epik_Ionization_Penalty_Charging>
2.41238e-09

> <r_epik_Ionization_Penalty_Neutral>
2.3993e-06

> <r_epik_State_Penalty>
-0

> <r_epik_Charging_Adjusted_Penalty>
2.41238e-09

> <i_epik_Tot_Q>
0

> <i_epik_Tot_abs_Q>
0

> <r_epik_Metal_State_Penalty>
-0

> <b_epik_Metal_Only>
0

> <s_lp_Force_Field>
OPLS_2005

> <r_lp_Energy>
46.4637

> <b_lp_Chiralities_Consistent>
1

> <s_lp_Variant>
AV-unprocessed.smi:418-1

> <Gold.Version>
5.8.1

> <Gold.Id.Protein>
6NUR|6NUR_protein|mol2

> <Gold.PLP.Fitness>
47.1512

> <Gold.PLP.PLP>
-45.7297

> <Gold.PLP.part.hbond>
-1.0000

> <Gold.PLP.part.metal>
0.0000

> <Gold.PLP.part.buried>
-3.9781

> <Gold.PLP.part.nonpolar>
-41.1918

> <Gold.PLP.part.repulsive>
0.0000

> <Gold.PLP.ligand.clash>
0.0000

> <Gold.PLP.ligand.torsion>
0.7984

> <Gold.PLP.Chemscore.Hbond>
1.0000

> <Gold.PLP.Chemscore.CHOScore>
0.0000

> <Gold.PLP.Chemscore.Metal>
0.0000

> <Gold.PLP.Chemscore.Internal.Correction>
0.0184

> <Gold.Rescore>
     Score         DG    S(hbond)    S(metal)    S(lipo)     H(rot)  DE(clash)    DE(int)     intcor
     14.69     -17.04       0.80        0.00     125.65       2.27       0.06       2.29       ----

> <Gold.Chemscore.Fitness>
14.6919

> <Gold.Chemscore.DG>
-17.0350

> <Gold.Chemscore.ZeroCoef>
-5.4800

> <Gold.Chemscore.Hbond>
0.7985

> <Gold.Chemscore.Metal>
0.0000

> <Gold.Chemscore.Lipo>
125.6479

> <Gold.Chemscore.Internal_Hbond>
0.0000

> <Gold.Chemscore.DEClash>
0.0553

> <Gold.Chemscore.DEInternal>
2.2878

> <Gold.Chemscore.Rot>
2.2706

> <Gold.Chemscore.Internal.Correction>
   9.000000E+99

> <Gold.Chemscore.Hbond.Weighted>
-2.6670

> <Gold.Chemscore.Metal.Weighted>
-0.0000

> <Gold.Chemscore.Lipo.Weighted>
-14.7008

> <Gold.Chemscore.Internal_Hbond.Weighted>
0.0000

> <Gold.Chemscore.DEClash.Weighted>
0.0553

> <Gold.Chemscore.DEInternal.Weighted>
2.2878

> <Gold.Chemscore.Rot.Weighted>
5.8128

> <Gold.Chemscore.Internal.Correction.Weighted>
   9.000000E+99

> <Gold.Protein.RotatedTorsions>
[ 6907 6896 6895 6894 ] final   55.29 input  -60.11 | X-H torsion
[ 7974 7965 7964 7962 ] final  -36.61 input  175.53 | X-H torsion
[ 8008 7997 7996 7995 ] final  130.01 input   59.86 | X-H torsion
[ 10167 10162 10161 10158 ] final  146.48 input  -65.29 | X-H torsion
[ 10718 10713 10712 10709 ] final   42.95 input   66.30 | X-H torsion
[ 10763 10752 10751 10750 ] final  168.31 input  -60.55 | X-H torsion
[ 11005 11000 10999 10996 ] final  126.78 input  -57.11 | X-H torsion

> <Gold.Protein.ActiveResidues>
 VAL166  LYS551  ARG553  GLY616  TRP617  ASP618  TYR619  PRO620  LYS621  CYS622 
 ASP623  PHE694  ASN695  SER759  ASP760  ASP761  ALA762  ILE779  LEU786  VAL792 
 PHE793  MET794  SER795  GLU796  ALA797  LYS798  CYS799  TRP800  GLU811  SER814 

> <Gold.Protein.RotatedAtoms>
  152.3524  134.6987  160.0232 H   0  0  0  0  0  0  0  0  0  0  0  0  # atno 6907 bound_to 6896
  151.7337  133.3313  159.3355 H   0  0  0  0  0  0  0  0  0  0  0  0  # atno 6908 bound_to 6896
  150.7549  134.6274  159.6213 H   0  0  0  0  0  0  0  0  0  0  0  0  # atno 6909 bound_to 6896
  146.0646  140.6299  142.8981 H   0  0  0  0  0  0  0  0  0  0  0  0  # atno 7974 bound_to 7965
  156.2947  140.2606  156.2693 H   0  0  0  0  0  0  0  0  0  0  0  0  # atno 8008 bound_to 7997
  154.9711  140.0391  157.2253 H   0  0  0  0  0  0  0  0  0  0  0  0  # atno 8009 bound_to 7997
  154.7858  140.2803  155.6034 H   0  0  0  0  0  0  0  0  0  0  0  0  # atno 8010 bound_to 7997
  139.4906  144.5826  151.6841 H   0  0  0  0  0  0  0  0  0  0  0  0  # atno 10167 bound_to 10162
  157.4106  130.7912  149.7427 H   0  0  0  0  0  0  0  0  0  0  0  0  # atno 10718 bound_to 10713
  154.3667  135.2753  155.2289 H   0  0  0  0  0  0  0  0  0  0  0  0  # atno 10763 bound_to 10752
  154.4455  135.5944  153.6160 H   0  0  0  0  0  0  0  0  0  0  0  0  # atno 10764 bound_to 10752
  152.9840  135.6029  154.3893 H   0  0  0  0  0  0  0  0  0  0  0  0  # atno 10765 bound_to 10752
  139.9473  134.9627  156.8757 H   0  0  0  0  0  0  0  0  0  0  0  0  # atno 11005 bound_to 11000
  144.7195  140.4324  143.7019 LP  0  0  0  0  0  0  0  0  0  0  0  0  # atno 17320 bound_to 7965
  145.6499  139.1563  143.2867 LP  0  0  0  0  0  0  0  0  0  0  0  0  # atno 17321 bound_to 7965
  140.5436  144.0539  150.6098 LP  0  0  0  0  0  0  0  0  0  0  0  0  # atno 17342 bound_to 10162
  140.3570  143.2930  152.0425 LP  0  0  0  0  0  0  0  0  0  0  0  0  # atno 17343 bound_to 10162
  155.9849  130.3987  150.3287 LP  0  0  0  0  0  0  0  0  0  0  0  0  # atno 17370 bound_to 10713
  157.1424  131.0300  151.2922 LP  0  0  0  0  0  0  0  0  0  0  0  0  # atno 17371 bound_to 10713
  140.5803  134.0359  155.7461 LP  0  0  0  0  0  0  0  0  0  0  0  0  # atno 17394 bound_to 11000
  141.1127  133.9590  157.2879 LP  0  0  0  0  0  0  0  0  0  0  0  0  # atno 17395 bound_to 11000

$$$$
