AV-unprocessed.smi:237|AV-procd|sdf|1817|dock5
  -GOLD-   2262020413D 1   1.00000     0.00000
 Structure written by MMmdl.
 53 56  0  0  0  0  0  0  0  0  1 V2000
  152.9753  138.5423  154.7348 C   0  0  0  0  0  0  0  0  0  0  0  0
  151.8742  139.1780  155.5869 C   0  0  0  0  0  0  0  0  0  0  0  0
  152.4508  139.6469  156.7967 O   0  0  0  0  0  0  0  0  0  0  0  0
  151.6142  139.5185  157.9404 C   0  0  0  0  0  0  0  0  0  0  0  0
  152.0509  140.4091  159.1344 C   0  0  2  0  0  0  0  0  0  0  0  0
  151.6747  141.8765  158.8305 C   0  0  0  0  0  0  0  0  0  0  0  0
  152.1368  142.8301  159.9408 C   0  0  0  0  0  0  0  0  0  0  0  0
  153.6438  142.6701  160.1698 C   0  0  0  0  0  0  0  0  0  0  0  0
  153.9826  141.2052  160.4766 C   0  0  0  0  0  0  0  0  0  0  0  0
  153.4921  140.3158  159.4238 N   0  0  0  0  0  0  0  0  0  0  0  0
  153.9683  139.0631  159.6007 C   0  0  0  0  0  0  0  0  0  0  0  0
  153.1509  138.1695  160.2091 N   0  0  0  0  0  0  0  0  0  0  0  0
  153.5775  136.9234  160.4362 C   0  0  0  0  0  0  0  0  0  0  0  0
  154.7592  136.3777  160.1399 N   0  0  0  0  0  0  0  0  0  0  0  0
  155.5771  137.2726  159.5141 C   0  0  0  0  0  0  0  0  0  0  0  0
  155.2631  138.6245  159.2031 C   0  0  0  0  0  0  0  0  0  0  0  0
  156.3426  139.2293  158.5712 N   0  0  0  0  0  0  0  0  0  0  0  0
  157.2477  138.2907  158.5224 C   0  0  0  0  0  0  0  0  0  0  0  0
  156.8688  137.0786  159.0557 N   0  0  0  0  0  0  0  0  0  0  0  0
  157.6724  135.8680  159.1473 C   0  0  0  0  0  0  0  0  0  0  0  0
  157.6342  134.9648  157.8909 C   0  0  0  0  0  0  0  0  0  0  0  0
  158.7087  133.8808  158.0518 C   0  0  0  0  0  0  0  0  0  0  0  0
  159.9859  134.4495  158.2591 O   0  0  0  0  0  0  0  0  0  0  0  0
  156.2595  134.4908  157.3859 C   0  0  0  0  0  0  0  0  0  0  0  0
  156.2287  135.5047  156.3591 O   0  0  0  0  0  0  0  0  0  0  0  0
  157.6467  135.7006  156.5405 C   0  0  0  0  0  0  0  0  0  0  0  0
  152.5709  138.1589  153.7979 H   0  0  0  0  0  0  0  0  0  0  0  0
  153.4478  137.7119  155.2594 H   0  0  0  0  0  0  0  0  0  0  0  0
  153.7506  139.2695  154.4929 H   0  0  0  0  0  0  0  0  0  0  0  0
  151.4174  140.0053  155.0420 H   0  0  0  0  0  0  0  0  0  0  0  0
  151.0938  138.4436  155.7837 H   0  0  0  0  0  0  0  0  0  0  0  0
  150.5952  139.7764  157.6497 H   0  0  0  0  0  0  0  0  0  0  0  0
  151.5806  138.4679  158.2334 H   0  0  0  0  0  0  0  0  0  0  0  0
  151.5017  140.1195  160.0294 H   0  0  0  0  0  0  0  0  0  0  0  0
  152.1244  142.1825  157.8846 H   0  0  0  0  0  0  0  0  0  0  0  0
  150.5956  141.9670  158.7020 H   0  0  0  0  0  0  0  0  0  0  0  0
  151.9029  143.8610  159.6743 H   0  0  0  0  0  0  0  0  0  0  0  0
  151.5969  142.6133  160.8635 H   0  0  0  0  0  0  0  0  0  0  0  0
  154.1886  142.9955  159.2824 H   0  0  0  0  0  0  0  0  0  0  0  0
  153.9708  143.3103  160.9893 H   0  0  0  0  0  0  0  0  0  0  0  0
  155.0634  141.0959  160.5817 H   0  0  0  0  0  0  0  0  0  0  0  0
  153.5398  140.9205  161.4321 H   0  0  0  0  0  0  0  0  0  0  0  0
  152.8722  136.2706  160.9289 H   0  0  0  0  0  0  0  0  0  0  0  0
  158.2250  138.4629  158.0964 H   0  0  0  0  0  0  0  0  0  0  0  0
  158.6981  136.1685  159.3642 H   0  0  0  0  0  0  0  0  0  0  0  0
  157.3349  135.3226  160.0291 H   0  0  0  0  0  0  0  0  0  0  0  0
  158.4891  133.2372  158.9042 H   0  0  0  0  0  0  0  0  0  0  0  0
  158.7476  133.2335  157.1751 H   0  0  0  0  0  0  0  0  0  0  0  0
  160.2343  134.9242  157.4805 H   0  0  0  0  0  0  0  0  0  0  0  0
  156.2714  133.4873  156.9573 H   0  0  0  0  0  0  0  0  0  0  0  0
  155.4462  134.5862  158.1038 H   0  0  0  0  0  0  0  0  0  0  0  0
  157.9288  136.7510  156.5972 H   0  0  0  0  0  0  0  0  0  0  0  0
  158.2230  135.1944  155.7642 H   0  0  0  0  0  0  0  0  0  0  0  0
  1  2  1  0  0  0  0
  1 27  1  0  0  0  0
  1 28  1  0  0  0  0
  1 29  1  0  0  0  0
  2  3  1  0  0  0  0
  2 30  1  0  0  0  0
  2 31  1  0  0  0  0
  3  4  1  0  0  0  0
  4  5  1  0  0  0  0
  4 32  1  0  0  0  0
  4 33  1  0  0  0  0
  5 10  1  0  0  0  0
  5  6  1  0  0  0  0
  5 34  1  0  0  0  0
  6  7  1  0  0  0  0
  6 35  1  0  0  0  0
  6 36  1  0  0  0  0
  7  8  1  0  0  0  0
  7 37  1  0  0  0  0
  7 38  1  0  0  0  0
  8  9  1  0  0  0  0
  8 39  1  0  0  0  0
  8 40  1  0  0  0  0
  9 10  1  0  0  0  0
  9 41  1  0  0  0  0
  9 42  1  0  0  0  0
 10 11  1  0  0  0  0
 11 16  1  0  0  0  0
 11 12  2  0  0  0  0
 12 13  1  0  0  0  0
 13 14  2  0  0  0  0
 13 43  1  0  0  0  0
 14 15  1  0  0  0  0
 15 19  1  0  0  0  0
 15 16  2  0  0  0  0
 16 17  1  0  0  0  0
 17 18  2  0  0  0  0
 18 19  1  0  0  0  0
 18 44  1  0  0  0  0
 19 20  1  0  0  0  0
 20 21  1  0  0  0  0
 20 45  1  0  0  0  0
 20 46  1  0  0  0  0
 21 26  1  0  0  0  0
 21 22  1  0  0  0  0
 21 24  1  0  0  0  0
 22 23  1  0  0  0  0
 22 47  1  0  0  0  0
 22 48  1  0  0  0  0
 23 49  1  0  0  0  0
 24 25  1  0  0  0  0
 24 50  1  0  0  0  0
 24 51  1  0  0  0  0
 25 26  1  0  0  0  0
 26 52  1  0  0  0  0
 26 53  1  0  0  0  0
M  END
> <s_m_source_file>
AV-unprocessed.smi

> <i_m_source_file_index>
237

> <i_lp_mmshare_version>
43012

> <i_f3d_flags>
0

> <s_epik_input>
W0NIM11bQ0gyXU9bQ0gyXVtDQEBIXTFbQ0gyXVtDSDJdW0NIMl1bQ0gyXU4xYyhuW2NIXW4yKWMoYzIzKW5bY0hdbjNbQ0gyXUM0KFtDSDJdW09IXSlbQ0gyXU9bQ0gyXTQ=

> <s_epik_cmdline>
J2VwaWtfcHl0aG9uJywgJy1waCcsICc3LjAnLCAnLXRuJywgJzgnLCAnLW1hJywgJzIwMCcsICctbWV0YWxfYmluZGluZycsICctaW1hZScsICc8aW5maWxlLm1hZT4nLCAnLW9tYWUnLCAnPG91dGZpbGUubWFlPic=

> <r_lp_tautomer_probability>
1

> <r_epik_Ionization_Penalty>
0.00358373

> <r_epik_Ionization_Penalty_Charging>
0

> <r_epik_Ionization_Penalty_Neutral>
0.00358373

> <r_epik_State_Penalty>
0.00240903

> <r_epik_Charging_Adjusted_Penalty>
0.00240903

> <i_epik_Tot_Q>
0

> <i_epik_Tot_abs_Q>
0

> <r_epik_Metal_State_Penalty>
-0

> <b_epik_Metal_Only>
0

> <s_lp_Force_Field>
OPLS_2005

> <r_lp_Energy>
38.4441

> <b_lp_Chiralities_Consistent>
1

> <s_lp_Variant>
AV-unprocessed.smi:237-1

> <Gold.Version>
5.8.1

> <Gold.Id.Protein>
6NUR|6NUR_protein|mol2

> <Gold.PLP.Fitness>
38.7968

> <Gold.PLP.PLP>
-32.4112

> <Gold.PLP.part.hbond>
-3.0000

> <Gold.PLP.part.metal>
0.0000

> <Gold.PLP.part.buried>
-3.1714

> <Gold.PLP.part.nonpolar>
-25.8563

> <Gold.PLP.part.repulsive>
0.0554

> <Gold.PLP.ligand.clash>
0.0000

> <Gold.PLP.ligand.torsion>
1.6343

> <Gold.PLP.Chemscore.Hbond>
3.0000

> <Gold.PLP.Chemscore.CHOScore>
0.0000

> <Gold.PLP.Chemscore.Metal>
0.0000

> <Gold.Chemscore.Hbonds>
donor molecule, donor type, donor heavy atom, donor atom, acceptor molecule, acceptor atom, score
      P1  H  7997  8009       L1    17  1.00
      P1  H  7997  8010       L1     3  1.00
      P1  H 10752 10764       L1    25  1.00

> <Gold.PLP.Chemscore.Internal.Correction>
0.6541

> <Gold.Rescore>
     Score         DG    S(hbond)    S(metal)    S(lipo)     H(rot)  DE(clash)    DE(int)     intcor
     14.98     -16.63       2.82        0.00      81.92       3.06       0.10       1.55       ----

> <Gold.Chemscore.Fitness>
14.9799

> <Gold.Chemscore.DG>
-16.6314

> <Gold.Chemscore.ZeroCoef>
-5.4800

> <Gold.Chemscore.Hbond>
2.8160

> <Gold.Chemscore.Metal>
0.0000

> <Gold.Chemscore.Lipo>
81.9217

> <Gold.Chemscore.Internal_Hbond>
0.0000

> <Gold.Chemscore.DEClash>
0.1009

> <Gold.Chemscore.DEInternal>
1.5506

> <Gold.Chemscore.Rot>
3.0620

> <Gold.Chemscore.Internal.Correction>
   9.000000E+99

> <Gold.Chemscore.Hbonds>
donor molecule, donor type, donor heavy atom, donor atom, acceptor molecule, acceptor atom, score
      P1  H  7997  8009       L1    17  0.84
      P1  H  7997  8010       L1     3  0.64
      P1  H 10752 10764       L1    25  0.82

> <Gold.Chemscore.Hbond.Weighted>
-9.4053

> <Gold.Chemscore.Metal.Weighted>
-0.0000

> <Gold.Chemscore.Lipo.Weighted>
-9.5848

> <Gold.Chemscore.Internal_Hbond.Weighted>
0.0000

> <Gold.Chemscore.DEClash.Weighted>
0.1009

> <Gold.Chemscore.DEInternal.Weighted>
1.5506

> <Gold.Chemscore.Rot.Weighted>
7.8388

> <Gold.Chemscore.Internal.Correction.Weighted>
   9.000000E+99

> <Gold.Protein.RotatedTorsions>
[ 6907 6896 6895 6894 ] final -118.34 input  -60.11 | X-H torsion
[ 7974 7965 7964 7962 ] final  -13.37 input  175.53 | X-H torsion
[ 8008 7997 7996 7995 ] final   71.46 input   59.86 | X-H torsion
[ 10167 10162 10161 10158 ] final  174.51 input  -65.29 | X-H torsion
[ 10718 10713 10712 10709 ] final  154.47 input   66.30 | X-H torsion
[ 10763 10752 10751 10750 ] final   70.70 input  -60.55 | X-H torsion
[ 11005 11000 10999 10996 ] final  111.19 input  -57.11 | X-H torsion

> <Gold.Protein.ActiveResidues>
 VAL166  LYS551  ARG553  GLY616  TRP617  ASP618  TYR619  PRO620  LYS621  CYS622 
 ASP623  PHE694  ASN695  SER759  ASP760  ASP761  ALA762  ILE779  LEU786  VAL792 
 PHE793  MET794  SER795  GLU796  ALA797  LYS798  CYS799  TRP800  GLU811  SER814 

> <Gold.Protein.RotatedAtoms>
  150.8211  133.8250  159.3138 H   0  0  0  0  0  0  0  0  0  0  0  0  # atno 6907 bound_to 6896
  151.6008  135.1045  160.0069 H   0  0  0  0  0  0  0  0  0  0  0  0  # atno 6908 bound_to 6896
  152.4300  133.7221  159.6595 H   0  0  0  0  0  0  0  0  0  0  0  0  # atno 6909 bound_to 6896
  146.2116  140.3194  142.8389 H   0  0  0  0  0  0  0  0  0  0  0  0  # atno 7974 bound_to 7965
  155.7542  140.3488  155.5165 H   0  0  0  0  0  0  0  0  0  0  0  0  # atno 8008 bound_to 7997
  155.8976  140.1028  157.1394 H   0  0  0  0  0  0  0  0  0  0  0  0  # atno 8009 bound_to 7997
  154.4040  140.1292  156.4382 H   0  0  0  0  0  0  0  0  0  0  0  0  # atno 8010 bound_to 7997
  139.5144  144.3138  152.0267 H   0  0  0  0  0  0  0  0  0  0  0  0  # atno 10167 bound_to 10162
  157.2312  131.0739  151.1852 H   0  0  0  0  0  0  0  0  0  0  0  0  # atno 10718 bound_to 10713
  153.0356  135.5164  154.7481 H   0  0  0  0  0  0  0  0  0  0  0  0  # atno 10763 bound_to 10752
  154.6460  135.2918  155.0048 H   0  0  0  0  0  0  0  0  0  0  0  0  # atno 10764 bound_to 10752
  154.0949  135.6645  153.4911 H   0  0  0  0  0  0  0  0  0  0  0  0  # atno 10765 bound_to 10752
  139.8898  134.9502  156.6393 H   0  0  0  0  0  0  0  0  0  0  0  0  # atno 11005 bound_to 11000
  144.8931  140.7548  143.5914 LP  0  0  0  0  0  0  0  0  0  0  0  0  # atno 17320 bound_to 7965
  145.3117  139.1816  143.4635 LP  0  0  0  0  0  0  0  0  0  0  0  0  # atno 17321 bound_to 7965
  140.2582  144.4096  150.6196 LP  0  0  0  0  0  0  0  0  0  0  0  0  # atno 17342 bound_to 10162
  140.6176  143.2173  151.6759 LP  0  0  0  0  0  0  0  0  0  0  0  0  # atno 17343 bound_to 10162
  157.3476  130.7065  149.6420 LP  0  0  0  0  0  0  0  0  0  0  0  0  # atno 17370 bound_to 10713
  155.9675  130.4262  150.4687 LP  0  0  0  0  0  0  0  0  0  0  0  0  # atno 17371 bound_to 10713
  140.7606  133.8821  155.8415 LP  0  0  0  0  0  0  0  0  0  0  0  0  # atno 17394 bound_to 11000
  140.9925  134.1259  157.4394 LP  0  0  0  0  0  0  0  0  0  0  0  0  # atno 17395 bound_to 11000

$$$$
