AV-unprocessed.smi:711|AV-procd|sdf|3464|dock8
  -GOLD-   22720 0453D 1   1.00000     0.00000
 Structure written by MMmdl.
 29 30  0  0  0  0  0  0  0  0  1 V2000
  146.9360  140.7856  152.9253 O   0  0  0  0  0  0  0  0  0  0  0  0
  147.7201  140.9515  153.8575 C   0  0  0  0  0  0  0  0  0  0  0  0
  149.0102  140.4181  153.7847 N   0  0  0  0  0  0  0  0  0  0  0  0
  149.9938  140.5314  154.7676 C   0  0  0  0  0  0  0  0  0  0  0  0
  151.0913  140.0017  154.5939 O   0  0  0  0  0  0  0  0  0  0  0  0
  149.6485  141.2563  155.9338 N   0  0  0  0  0  0  0  0  0  0  0  0
  150.6199  141.3772  156.9974 C   0  0  0  0  0  0  0  0  0  0  0  0
  150.6782  142.7887  157.6232 C   0  0  2  0  0  0  0  0  0  0  0  0
  151.2423  143.6711  156.6739 O   0  0  0  0  0  0  0  0  0  0  0  0
  151.4110  142.8246  158.9602 C   0  0  0  0  0  0  0  0  0  0  0  0
  152.0571  141.6667  159.4483 C   0  0  0  0  0  0  0  0  0  0  0  0
  152.7151  141.6893  160.6930 C   0  0  0  0  0  0  0  0  0  0  0  0
  152.7311  142.8696  161.4596 C   0  0  0  0  0  0  0  0  0  0  0  0
  153.3626  142.8915  162.6571 F   0  0  0  0  0  0  0  0  0  0  0  0
  152.0874  144.0264  160.9814 C   0  0  0  0  0  0  0  0  0  0  0  0
  151.4276  144.0061  159.7373 C   0  0  0  0  0  0  0  0  0  0  0  0
  150.8000  145.1246  159.3003 F   0  0  0  0  0  0  0  0  0  0  0  0
  148.3780  141.7980  156.0493 C   0  0  0  0  0  0  0  0  0  0  0  0
  147.4279  141.6804  155.0908 C   0  0  0  0  0  0  0  0  0  0  0  0
  145.8653  142.3817  155.3139 Cl  0  0  0  0  0  0  0  0  0  0  0  0
  149.2493  139.9024  152.9503 H   0  0  0  0  0  0  0  0  0  0  0  0
  150.4364  140.5984  157.7402 H   0  0  0  0  0  0  0  0  0  0  0  0
  151.5761  141.1229  156.5361 H   0  0  0  0  0  0  0  0  0  0  0  0
  149.6575  143.1389  157.7795 H   0  0  0  0  0  0  0  0  0  0  0  0
  150.5996  144.3292  156.4575 H   0  0  0  0  0  0  0  0  0  0  0  0
  152.0427  140.7526  158.8729 H   0  0  0  0  0  0  0  0  0  0  0  0
  153.2047  140.7993  161.0605 H   0  0  0  0  0  0  0  0  0  0  0  0
  152.0961  144.9308  161.5717 H   0  0  0  0  0  0  0  0  0  0  0  0
  148.1303  142.3380  156.9524 H   0  0  0  0  0  0  0  0  0  0  0  0
  1  2  2  0  0  0  0
  2 19  1  0  0  0  0
  2  3  1  0  0  0  0
  3 21  1  0  0  0  0
  3  4  1  0  0  0  0
  4  5  2  0  0  0  0
  4  6  1  0  0  0  0
  6  7  1  0  0  0  0
  6 18  1  0  0  0  0
  7  8  1  0  0  0  0
  7 22  1  0  0  0  0
  7 23  1  0  0  0  0
  8  9  1  0  0  0  0
  8 10  1  0  0  0  0
  8 24  1  0  0  0  0
  9 25  1  0  0  0  0
 10 16  1  0  0  0  0
 10 11  2  0  0  0  0
 11 12  1  0  0  0  0
 11 26  1  0  0  0  0
 12 13  2  0  0  0  0
 12 27  1  0  0  0  0
 13 14  1  0  0  0  0
 13 15  1  0  0  0  0
 15 16  2  0  0  0  0
 15 28  1  0  0  0  0
 16 17  1  0  0  0  0
 18 19  2  0  0  0  0
 18 29  1  0  0  0  0
 19 20  1  0  0  0  0
M  END
> <s_m_source_file>
AV-unprocessed.smi

> <i_m_source_file_index>
711

> <i_lp_mmshare_version>
43012

> <i_f3d_flags>
0

> <s_epik_input>
Tz1jMVtuSF1jKD1PKW4oW2NIXWMxQ2wpW0NIMl1bQ0BIXShbT0hdKWMyW2NIXVtjSF1jKEYpW2NIXWMyRg==

> <s_epik_cmdline>
J2VwaWtfcHl0aG9uJywgJy1waCcsICc3LjAnLCAnLXRuJywgJzgnLCAnLW1hJywgJzIwMCcsICctbWV0YWxfYmluZGluZycsICctaW1hZScsICc8aW5maWxlLm1hZT4nLCAnLW9tYWUnLCAnPG91dGZpbGUubWFlPic=

> <r_lp_tautomer_probability>
0.999537

> <r_epik_Ionization_Penalty>
0.0292058

> <r_epik_Ionization_Penalty_Charging>
0.0292057

> <r_epik_Ionization_Penalty_Neutral>
9.07348e-08

> <r_epik_State_Penalty>
0.0240115

> <r_epik_Charging_Adjusted_Penalty>
0.0532172

> <i_epik_Tot_Q>
0

> <i_epik_Tot_abs_Q>
0

> <r_epik_Metal_State_Penalty>
2.21956

> <b_epik_Metal_Only>
0

> <s_lp_Force_Field>
OPLS_2005

> <r_lp_Energy>
11.2971

> <b_lp_Chiralities_Consistent>
1

> <s_lp_Variant>
AV-unprocessed.smi:711-1

> <Gold.Version>
5.8.1

> <Gold.Id.Protein>
6NUR|6NUR_protein|mol2

> <Gold.PLP.Fitness>
52.5570

> <Gold.PLP.PLP>
-44.4893

> <Gold.PLP.part.hbond>
-3.0000

> <Gold.PLP.part.metal>
0.0000

> <Gold.PLP.part.buried>
-3.6433

> <Gold.PLP.part.nonpolar>
-37.9749

> <Gold.PLP.part.repulsive>
0.4514

> <Gold.PLP.ligand.clash>
0.0000

> <Gold.PLP.ligand.torsion>
0.3639

> <Gold.PLP.Chemscore.Hbond>
2.8400

> <Gold.PLP.Chemscore.CHOScore>
0.0840

> <Gold.PLP.Chemscore.Metal>
0.0000

> <Gold.Chemscore.Hbonds>
donor molecule, donor type, donor heavy atom, donor atom, acceptor molecule, acceptor atom, score
      L1  H     3    21       P1  7957  0.90
      L1  H     9    25       P1  8028  0.98
      P1  H  7989  7998       L1     5  0.93
      L1  C    18    29       P1  8028  0.06

> <Gold.PLP.Chemscore.Internal.Correction>
0.0236

> <Gold.Rescore>
     Score         DG    S(hbond)    S(metal)    S(lipo)     H(rot)  DE(clash)    DE(int)     intcor
     16.55     -17.59       2.44        0.00      85.48       2.37       0.57       0.47       ----

> <Gold.Chemscore.Fitness>
16.5496

> <Gold.Chemscore.DG>
-17.5869

> <Gold.Chemscore.ZeroCoef>
-5.4800

> <Gold.Chemscore.Hbond>
2.4431

> <Gold.Chemscore.Metal>
0.0000

> <Gold.Chemscore.Lipo>
85.4837

> <Gold.Chemscore.Internal_Hbond>
0.0000

> <Gold.Chemscore.DEClash>
0.5711

> <Gold.Chemscore.DEInternal>
0.4662

> <Gold.Chemscore.Rot>
2.3652

> <Gold.Chemscore.Internal.Correction>
   9.000000E+99

> <Gold.Chemscore.Hbonds>
donor molecule, donor type, donor heavy atom, donor atom, acceptor molecule, acceptor atom, score
      L1  H     3    21       P1  7957  0.88
      L1  H     9    25       P1  8028  0.93
      P1  H  7989  7998       L1     5  0.23

> <Gold.Chemscore.Hbond.Weighted>
-8.1601

> <Gold.Chemscore.Metal.Weighted>
-0.0000

> <Gold.Chemscore.Lipo.Weighted>
-10.0016

> <Gold.Chemscore.Internal_Hbond.Weighted>
0.0000

> <Gold.Chemscore.DEClash.Weighted>
0.5711

> <Gold.Chemscore.DEInternal.Weighted>
0.4662

> <Gold.Chemscore.Rot.Weighted>
6.0548

> <Gold.Chemscore.Internal.Correction.Weighted>
   9.000000E+99

> <Gold.Protein.RotatedTorsions>
[ 6907 6896 6895 6894 ] final  -22.08 input  -60.11 | X-H torsion
[ 7974 7965 7964 7962 ] final  -88.74 input  175.53 | X-H torsion
[ 8008 7997 7996 7995 ] final -109.10 input   59.86 | X-H torsion
[ 10167 10162 10161 10158 ] final -172.73 input  -65.29 | X-H torsion
[ 10718 10713 10712 10709 ] final   87.67 input   66.30 | X-H torsion
[ 10763 10752 10751 10750 ] final -106.21 input  -60.55 | X-H torsion
[ 11005 11000 10999 10996 ] final  -44.00 input  -57.11 | X-H torsion

> <Gold.Protein.ActiveResidues>
 VAL166  LYS551  ARG553  GLY616  TRP617  ASP618  TYR619  PRO620  LYS621  CYS622 
 ASP623  PHE694  ASN695  SER759  ASP760  ASP761  ALA762  ILE779  LEU786  VAL792 
 PHE793  MET794  SER795  GLU796  ALA797  LYS798  CYS799  TRP800  GLU811  SER814 

> <Gold.Protein.RotatedAtoms>
  151.2238  135.0528  159.8960 H   0  0  0  0  0  0  0  0  0  0  0  0  # atno 6907 bound_to 6896
  152.5412  134.0611  159.8163 H   0  0  0  0  0  0  0  0  0  0  0  0  # atno 6908 bound_to 6896
  151.0781  133.5363  159.2654 H   0  0  0  0  0  0  0  0  0  0  0  0  # atno 6909 bound_to 6896
  145.4492  140.9560  143.2032 H   0  0  0  0  0  0  0  0  0  0  0  0  # atno 7974 bound_to 7965
  154.9542  140.0400  157.2158 H   0  0  0  0  0  0  0  0  0  0  0  0  # atno 8008 bound_to 7997
  154.7950  140.2842  155.5941 H   0  0  0  0  0  0  0  0  0  0  0  0  # atno 8009 bound_to 7997
  156.2954  140.2566  156.2806 H   0  0  0  0  0  0  0  0  0  0  0  0  # atno 8010 bound_to 7997
  139.5728  144.1602  152.1408 H   0  0  0  0  0  0  0  0  0  0  0  0  # atno 10167 bound_to 10162
  157.6942  131.0264  150.3158 H   0  0  0  0  0  0  0  0  0  0  0  0  # atno 10718 bound_to 10713
  154.7998  135.4720  154.0247 H   0  0  0  0  0  0  0  0  0  0  0  0  # atno 10763 bound_to 10752
  153.1762  135.6833  153.8547 H   0  0  0  0  0  0  0  0  0  0  0  0  # atno 10764 bound_to 10752
  153.8113  135.3216  155.3378 H   0  0  0  0  0  0  0  0  0  0  0  0  # atno 10765 bound_to 10752
  141.0421  133.6776  156.2811 H   0  0  0  0  0  0  0  0  0  0  0  0  # atno 11005 bound_to 11000
  144.8072  139.6028  143.7045 LP  0  0  0  0  0  0  0  0  0  0  0  0  # atno 17320 bound_to 7965
  146.2514  139.6207  142.9424 LP  0  0  0  0  0  0  0  0  0  0  0  0  # atno 17321 bound_to 7965
  140.1139  144.5433  150.6907 LP  0  0  0  0  0  0  0  0  0  0  0  0  # atno 17342 bound_to 10162
  140.7012  143.2436  151.4860 LP  0  0  0  0  0  0  0  0  0  0  0  0  # atno 17343 bound_to 10162
  156.3652  130.3854  149.7219 LP  0  0  0  0  0  0  0  0  0  0  0  0  # atno 17370 bound_to 10713
  156.4652  130.7970  151.2990 LP  0  0  0  0  0  0  0  0  0  0  0  0  # atno 17371 bound_to 10713
  140.6215  134.5357  157.5548 LP  0  0  0  0  0  0  0  0  0  0  0  0  # atno 17394 bound_to 11000
  139.9284  134.8012  156.1002 LP  0  0  0  0  0  0  0  0  0  0  0  0  # atno 17395 bound_to 11000

$$$$
