AV-unprocessed.smi:1116|AV-procd|sdf|4808|dock5
  -GOLD-   22720 3353D 1   1.00000     0.00000
 Structure written by MMmdl.
 36 37  0  0  0  0  0  0  0  0  1 V2000
  153.4307  142.2862  160.4547 C   0  0  0  0  0  0  0  0  0  0  0  0
  152.6513  142.7647  159.2778 C   0  0  0  0  0  0  0  0  0  0  0  0
  151.8774  141.9726  158.5314 N   0  0  0  0  0  0  0  0  0  0  0  0
  151.2491  142.6606  157.4885 C   0  0  0  0  0  0  0  0  0  0  0  0
  150.3412  141.9280  156.5476 C   0  0  0  0  0  0  0  0  0  0  0  0
  149.0903  141.3775  157.2532 C   0  0  0  0  0  0  0  0  0  0  0  0
  148.1195  142.4316  157.5255 N   0  0  0  0  0  0  0  0  0  0  0  0
  147.0235  142.2940  158.2871 C   0  0  0  0  0  0  0  0  0  0  0  0
  146.7142  141.2365  158.8366 O   0  0  0  0  0  0  0  0  0  0  0  0
  146.1600  143.5484  158.4577 C   0  0  0  0  0  0  0  0  0  0  0  0
  146.4060  144.2833  159.7903 C   0  0  0  0  0  0  0  0  0  0  0  0
  145.5025  145.5180  159.9758 C   0  0  1  0  0  0  0  0  0  0  0  0
  146.1680  146.6073  160.6703 N   0  0  0  0  0  0  0  0  0  0  0  0
  146.2261  147.7251  159.9336 C   0  0  0  0  0  0  0  0  0  0  0  0
  146.7282  148.7917  160.2795 O   0  0  0  0  0  0  0  0  0  0  0  0
  145.6420  147.4749  158.7570 N   0  0  0  0  0  0  0  0  0  0  0  0
  145.1947  146.2237  158.6669 C   0  0  0  0  0  0  0  0  0  0  0  0
  144.6307  145.7067  157.7045 O   0  0  0  0  0  0  0  0  0  0  0  0
  151.5629  143.9967  157.4560 C   0  0  0  0  0  0  0  0  0  0  0  0
  152.6601  144.4382  158.7353 S   0  0  0  0  0  0  0  0  0  0  0  0
  153.2927  141.2140  160.5979 H   0  0  0  0  0  0  0  0  0  0  0  0
  153.1009  142.8046  161.3551 H   0  0  0  0  0  0  0  0  0  0  0  0
  154.4919  142.4846  160.3042 H   0  0  0  0  0  0  0  0  0  0  0  0
  150.0436  142.5911  155.7341 H   0  0  0  0  0  0  0  0  0  0  0  0
  150.8823  141.1058  156.0780 H   0  0  0  0  0  0  0  0  0  0  0  0
  148.6075  140.6316  156.6212 H   0  0  0  0  0  0  0  0  0  0  0  0
  149.3630  140.8693  158.1799 H   0  0  0  0  0  0  0  0  0  0  0  0
  148.2984  143.3345  157.1102 H   0  0  0  0  0  0  0  0  0  0  0  0
  146.3656  144.2188  157.6225 H   0  0  0  0  0  0  0  0  0  0  0  0
  145.1091  143.2657  158.3810 H   0  0  0  0  0  0  0  0  0  0  0  0
  146.2631  143.5892  160.6208 H   0  0  0  0  0  0  0  0  0  0  0  0
  147.4474  144.6062  159.8397 H   0  0  0  0  0  0  0  0  0  0  0  0
  144.5747  145.2590  160.4877 H   0  0  0  0  0  0  0  0  0  0  0  0
  146.5320  146.5215  161.6082 H   0  0  0  0  0  0  0  0  0  0  0  0
  145.5574  148.1555  158.0163 H   0  0  0  0  0  0  0  0  0  0  0  0
  151.2165  144.7456  156.7593 H   0  0  0  0  0  0  0  0  0  0  0  0
  1  2  1  0  0  0  0
  1 21  1  0  0  0  0
  1 22  1  0  0  0  0
  1 23  1  0  0  0  0
  2 20  1  0  0  0  0
  2  3  2  0  0  0  0
  3  4  1  0  0  0  0
  4  5  1  0  0  0  0
  4 19  2  0  0  0  0
  5  6  1  0  0  0  0
  5 24  1  0  0  0  0
  5 25  1  0  0  0  0
  6  7  1  0  0  0  0
  6 26  1  0  0  0  0
  6 27  1  0  0  0  0
  7  8  1  0  0  0  0
  7 28  1  0  0  0  0
  8  9  2  0  0  0  0
  8 10  1  0  0  0  0
 10 11  1  0  0  0  0
 10 29  1  0  0  0  0
 10 30  1  0  0  0  0
 11 12  1  0  0  0  0
 11 31  1  0  0  0  0
 11 32  1  0  0  0  0
 12 17  1  0  0  0  0
 12 13  1  0  0  0  0
 12 33  1  0  0  0  0
 13 14  1  0  0  0  0
 13 34  1  0  0  0  0
 14 15  2  0  0  0  0
 14 16  1  0  0  0  0
 16 17  1  0  0  0  0
 16 35  1  0  0  0  0
 17 18  2  0  0  0  0
 19 20  1  0  0  0  0
 19 36  1  0  0  0  0
M  END
> <s_m_source_file>
AV-unprocessed.smi

> <i_m_source_file_index>
1116

> <i_lp_mmshare_version>
43012

> <i_f3d_flags>
0

> <s_epik_input>
W0NIM11jMW5jKFtjSF1zMSlbQ0gyXVtDSDJdW05IXUMoPU8pW0NIMl1bQ0gyXVtDQEBIXTJbTkhdQyg9TylbTkhdQzI9Tw==

> <s_epik_cmdline>
J2VwaWtfcHl0aG9uJywgJy1waCcsICc3LjAnLCAnLXRuJywgJzgnLCAnLW1hJywgJzIwMCcsICctbWV0YWxfYmluZGluZycsICctaW1hZScsICc8aW5maWxlLm1hZT4nLCAnLW9tYWUnLCAnPG91dGZpbGUubWFlPic=

> <r_lp_tautomer_probability>
1

> <r_epik_Ionization_Penalty>
0.00889251

> <r_epik_Ionization_Penalty_Charging>
0

> <r_epik_Ionization_Penalty_Neutral>
0.00889251

> <r_epik_State_Penalty>
0.00583796

> <r_epik_Charging_Adjusted_Penalty>
0.00583796

> <i_epik_Tot_Q>
0

> <i_epik_Tot_abs_Q>
0

> <r_epik_Metal_State_Penalty>
0.408839

> <b_epik_Metal_Only>
0

> <s_lp_Force_Field>
OPLS_2005

> <r_lp_Energy>
13.0769

> <b_lp_Chiralities_Consistent>
1

> <s_lp_Variant>
AV-unprocessed.smi:1116-2

> <Gold.Version>
5.8.1

> <Gold.Id.Protein>
6NUR|6NUR_protein|mol2

> <Gold.PLP.Fitness>
42.0489

> <Gold.PLP.PLP>
-37.0785

> <Gold.PLP.part.hbond>
-7.2041

> <Gold.PLP.part.metal>
0.0000

> <Gold.PLP.part.buried>
-2.3282

> <Gold.PLP.part.nonpolar>
-28.4821

> <Gold.PLP.part.repulsive>
0.5790

> <Gold.PLP.ligand.clash>
0.0000

> <Gold.PLP.ligand.torsion>
0.8064

> <Gold.PLP.Chemscore.Hbond>
1.2800

> <Gold.PLP.Chemscore.CHOScore>
0.8933

> <Gold.PLP.Chemscore.Metal>
0.0000

> <Gold.Chemscore.Hbonds>
donor molecule, donor type, donor heavy atom, donor atom, acceptor molecule, acceptor atom, score
      L1  H     7    28       P1  8028  0.68
      P1  H  6934  6946       L1     9  0.46
      L1  C    19    36       P1  8028  0.89

> <Gold.PLP.Chemscore.Internal.Correction>
0.0632

> <Gold.Rescore>
     Score         DG    S(hbond)    S(metal)    S(lipo)     H(rot)  DE(clash)    DE(int)     intcor
      7.42      -9.85       0.66        0.00      80.50       2.83       0.06       2.36       ----

> <Gold.Chemscore.Fitness>
7.4204

> <Gold.Chemscore.DG>
-9.8453

> <Gold.Chemscore.ZeroCoef>
-5.4800

> <Gold.Chemscore.Hbond>
0.6580

> <Gold.Chemscore.Metal>
0.0000

> <Gold.Chemscore.Lipo>
80.5010

> <Gold.Chemscore.Internal_Hbond>
0.0000

> <Gold.Chemscore.DEClash>
0.0626

> <Gold.Chemscore.DEInternal>
2.3622

> <Gold.Chemscore.Rot>
2.8324

> <Gold.Chemscore.Internal.Correction>
   9.000000E+99

> <Gold.Chemscore.Hbonds>
donor molecule, donor type, donor heavy atom, donor atom, acceptor molecule, acceptor atom, score
      L1  H     7    28       P1  8028  0.08
      P1  H  6934  6946       L1     9  0.46

> <Gold.Chemscore.Hbond.Weighted>
-2.1976

> <Gold.Chemscore.Metal.Weighted>
-0.0000

> <Gold.Chemscore.Lipo.Weighted>
-9.4186

> <Gold.Chemscore.Internal_Hbond.Weighted>
0.0000

> <Gold.Chemscore.DEClash.Weighted>
0.0626

> <Gold.Chemscore.DEInternal.Weighted>
2.3622

> <Gold.Chemscore.Rot.Weighted>
7.2510

> <Gold.Chemscore.Internal.Correction.Weighted>
   9.000000E+99

> <Gold.Protein.RotatedTorsions>
[ 6907 6896 6895 6894 ] final  -24.34 input  -60.11 | X-H torsion
[ 7974 7965 7964 7962 ] final   96.65 input  175.53 | X-H torsion
[ 8008 7997 7996 7995 ] final  -24.60 input   59.86 | X-H torsion
[ 10167 10162 10161 10158 ] final   40.27 input  -65.29 | X-H torsion
[ 10718 10713 10712 10709 ] final -109.03 input   66.30 | X-H torsion
[ 10763 10752 10751 10750 ] final  -75.65 input  -60.55 | X-H torsion
[ 11005 11000 10999 10996 ] final -100.09 input  -57.11 | X-H torsion

> <Gold.Protein.ActiveResidues>
 VAL166  LYS551  ARG553  GLY616  TRP617  ASP618  TYR619  PRO620  LYS621  CYS622 
 ASP623  PHE694  ASN695  SER759  ASP760  ASP761  ALA762  ILE779  LEU786  VAL792 
 PHE793  MET794  SER795  GLU796  ALA797  LYS798  CYS799  TRP800  GLU811  SER814 

> <Gold.Protein.RotatedAtoms>
  151.1909  135.0402  159.8831 H   0  0  0  0  0  0  0  0  0  0  0  0  # atno 6907 bound_to 6896
  152.5439  134.0957  159.8306 H   0  0  0  0  0  0  0  0  0  0  0  0  # atno 6908 bound_to 6896
  151.1086  133.5143  159.2639 H   0  0  0  0  0  0  0  0  0  0  0  0  # atno 6909 bound_to 6896
  145.4360  139.2306  143.3118 H   0  0  0  0  0  0  0  0  0  0  0  0  # atno 7974 bound_to 7965
  154.4520  140.1949  156.0489 H   0  0  0  0  0  0  0  0  0  0  0  0  # atno 8008 bound_to 7997
  156.0669  140.3289  155.7501 H   0  0  0  0  0  0  0  0  0  0  0  0  # atno 8009 bound_to 7997
  155.5325  140.0579  157.2877 H   0  0  0  0  0  0  0  0  0  0  0  0  # atno 8010 bound_to 7997
  140.3758  144.2045  150.6131 H   0  0  0  0  0  0  0  0  0  0  0  0  # atno 10167 bound_to 10162
  156.0516  130.5743  150.8044 H   0  0  0  0  0  0  0  0  0  0  0  0  # atno 10718 bound_to 10713
  154.4893  135.5824  153.6447 H   0  0  0  0  0  0  0  0  0  0  0  0  # atno 10763 bound_to 10752
  152.9860  135.6109  154.3145 H   0  0  0  0  0  0  0  0  0  0  0  0  # atno 10764 bound_to 10752
  154.3043  135.2846  155.2575 H   0  0  0  0  0  0  0  0  0  0  0  0  # atno 10765 bound_to 10752
  141.1284  133.8372  157.1057 H   0  0  0  0  0  0  0  0  0  0  0  0  # atno 11005 bound_to 11000
  146.2581  140.5103  142.8865 LP  0  0  0  0  0  0  0  0  0  0  0  0  # atno 17320 bound_to 7965
  144.8152  140.6455  143.6389 LP  0  0  0  0  0  0  0  0  0  0  0  0  # atno 17321 bound_to 7965
  140.4988  143.2324  151.8710 LP  0  0  0  0  0  0  0  0  0  0  0  0  # atno 17342 bound_to 10162
  139.4799  144.5083  151.8967 LP  0  0  0  0  0  0  0  0  0  0  0  0  # atno 17343 bound_to 10162
  157.5447  131.0942  150.9778 LP  0  0  0  0  0  0  0  0  0  0  0  0  # atno 17370 bound_to 10713
  157.0052  130.5615  149.5315 LP  0  0  0  0  0  0  0  0  0  0  0  0  # atno 17371 bound_to 10713
  140.0306  134.9903  157.0772 LP  0  0  0  0  0  0  0  0  0  0  0  0  # atno 17394 bound_to 11000
  140.4292  134.1799  155.7167 LP  0  0  0  0  0  0  0  0  0  0  0  0  # atno 17395 bound_to 11000

$$$$
