AV-unprocessed.smi:1543|AV-procd|sdf|6206|dock9
  -GOLD-   22720 6373D 1   1.00000     0.00000
 Structure written by MMmdl.
 48 49  0  0  0  0  0  0  0  0  1 V2000
  145.4653  129.5155  151.8296 C   0  0  0  0  0  0  0  0  0  0  0  0
  146.1788  130.8708  151.7882 C   0  0  1  0  0  0  0  0  0  0  0  0
  145.1906  132.0506  151.8396 C   0  0  0  0  0  0  0  0  0  0  0  0
  145.8785  133.3460  151.8650 N   0  0  0  0  0  0  0  0  0  0  0  0
  144.9815  134.5337  151.7851 C   0  0  0  0  0  0  0  0  0  0  0  0
  145.7212  135.8692  152.0409 C   0  0  0  0  0  0  0  0  0  0  0  0
  144.3217  134.6393  150.3864 C   0  0  0  0  0  0  0  0  0  0  0  0
  143.8187  134.4501  152.8182 C   0  0  0  0  0  0  0  0  0  0  0  0
  143.0267  135.6783  152.8857 N   0  0  0  0  0  0  0  0  0  0  0  0
  141.8321  135.8114  153.4787 C   0  0  0  0  0  0  0  0  0  0  0  0
  141.2468  134.8898  154.0465 O   0  0  0  0  0  0  0  0  0  0  0  0
  141.3871  137.0762  153.3846 N   0  0  0  0  0  0  0  0  0  0  0  0
  140.1686  137.6298  153.8630 C   0  0  0  0  0  0  0  0  0  0  0  0
  139.1563  136.8903  154.5224 C   0  0  0  0  0  0  0  0  0  0  0  0
  137.9849  137.5569  154.9307 C   0  0  0  0  0  0  0  0  0  0  0  0
  137.8647  138.9339  154.6604 C   0  0  0  0  0  0  0  0  0  0  0  0
  138.8156  139.6484  154.0229 N   0  0  0  0  0  0  0  0  0  0  0  0
  139.9357  139.0027  153.6340 C   0  0  0  0  0  0  0  0  0  0  0  0
  146.8143  133.3541  152.9949 C   0  0  0  0  0  0  0  0  0  0  0  0
  147.7946  132.1667  152.9491 C   0  0  1  0  0  0  0  0  0  0  0  0
  148.7140  132.1280  154.1745 C   0  0  0  0  0  0  0  0  0  0  0  0
  147.0566  130.9501  152.9059 O   0  0  0  0  0  0  0  0  0  0  0  0
  144.7894  129.4025  150.9817 H   0  0  0  0  0  0  0  0  0  0  0  0
  144.8791  129.4059  152.7423 H   0  0  0  0  0  0  0  0  0  0  0  0
  146.1834  128.6960  151.7937 H   0  0  0  0  0  0  0  0  0  0  0  0
  146.7671  130.9273  150.8707 H   0  0  0  0  0  0  0  0  0  0  0  0
  144.5393  131.9745  150.9710 H   0  0  0  0  0  0  0  0  0  0  0  0
  144.5570  131.9444  152.7203 H   0  0  0  0  0  0  0  0  0  0  0  0
  145.0360  136.7147  151.9690 H   0  0  0  0  0  0  0  0  0  0  0  0
  146.5144  136.0480  151.3154 H   0  0  0  0  0  0  0  0  0  0  0  0
  146.1656  135.9101  153.0351 H   0  0  0  0  0  0  0  0  0  0  0  0
  143.5318  135.3910  150.3723 H   0  0  0  0  0  0  0  0  0  0  0  0
  143.8748  133.6934  150.0785 H   0  0  0  0  0  0  0  0  0  0  0  0
  145.0327  134.9330  149.6143 H   0  0  0  0  0  0  0  0  0  0  0  0
  143.1402  133.6326  152.5756 H   0  0  0  0  0  0  0  0  0  0  0  0
  144.2084  134.1908  153.8043 H   0  0  0  0  0  0  0  0  0  0  0  0
  143.4344  136.4967  152.4582 H   0  0  0  0  0  0  0  0  0  0  0  0
  142.0205  137.7358  152.9568 H   0  0  0  0  0  0  0  0  0  0  0  0
  139.2447  135.8319  154.7109 H   0  0  0  0  0  0  0  0  0  0  0  0
  137.1939  137.0234  155.4366 H   0  0  0  0  0  0  0  0  0  0  0  0
  136.9788  139.4743  154.9593 H   0  0  0  0  0  0  0  0  0  0  0  0
  140.6734  139.6059  153.1248 H   0  0  0  0  0  0  0  0  0  0  0  0
  147.4039  134.2692  153.0021 H   0  0  0  0  0  0  0  0  0  0  0  0
  146.2658  133.3233  153.9365 H   0  0  0  0  0  0  0  0  0  0  0  0
  148.4115  132.2378  152.0516 H   0  0  0  0  0  0  0  0  0  0  0  0
  149.3124  133.0365  154.2455 H   0  0  0  0  0  0  0  0  0  0  0  0
  149.3994  131.2820  154.1204 H   0  0  0  0  0  0  0  0  0  0  0  0
  148.1393  132.0329  155.0965 H   0  0  0  0  0  0  0  0  0  0  0  0
  1  2  1  0  0  0  0
  1 23  1  0  0  0  0
  1 24  1  0  0  0  0
  1 25  1  0  0  0  0
  2 22  1  0  0  0  0
  2  3  1  0  0  0  0
  2 26  1  0  0  0  0
  3  4  1  0  0  0  0
  3 27  1  0  0  0  0
  3 28  1  0  0  0  0
  4  5  1  0  0  0  0
  4 19  1  0  0  0  0
  5  6  1  0  0  0  0
  5  7  1  0  0  0  0
  5  8  1  0  0  0  0
  6 29  1  0  0  0  0
  6 30  1  0  0  0  0
  6 31  1  0  0  0  0
  7 32  1  0  0  0  0
  7 33  1  0  0  0  0
  7 34  1  0  0  0  0
  8  9  1  0  0  0  0
  8 35  1  0  0  0  0
  8 36  1  0  0  0  0
  9 10  1  0  0  0  0
  9 37  1  0  0  0  0
 10 11  2  0  0  0  0
 10 12  1  0  0  0  0
 12 13  1  0  0  0  0
 12 38  1  0  0  0  0
 13 18  1  0  0  0  0
 13 14  2  0  0  0  0
 14 15  1  0  0  0  0
 14 39  1  0  0  0  0
 15 16  2  0  0  0  0
 15 40  1  0  0  0  0
 16 17  1  0  0  0  0
 16 41  1  0  0  0  0
 17 18  2  0  0  0  0
 18 42  1  0  0  0  0
 19 20  1  0  0  0  0
 19 43  1  0  0  0  0
 19 44  1  0  0  0  0
 20 21  1  0  0  0  0
 20 22  1  0  0  0  0
 20 45  1  0  0  0  0
 21 46  1  0  0  0  0
 21 47  1  0  0  0  0
 21 48  1  0  0  0  0
M  END
> <s_m_source_file>
AV-unprocessed.smi

> <i_m_source_file_index>
1543

> <i_lp_mmshare_version>
43012

> <i_f3d_flags>
0

> <s_epik_input>
W0NIM11bQ0BASF0xW0NIMl1OKFtDSDJdW0NASF0oTzEpW0NIM10pQyhbQ0gzXSkoW0NIM10pW0NIMl1bTkhdQyg9TylbTkhdYzJbY0hdW2NIXVtjSF1uW2NIXTI=

> <s_epik_cmdline>
J2VwaWtfcHl0aG9uJywgJy1waCcsICc3LjAnLCAnLXRuJywgJzgnLCAnLW1hJywgJzIwMCcsICctbWV0YWxfYmluZGluZycsICctaW1hZScsICc8aW5maWxlLm1hZT4nLCAnLW9tYWUnLCAnPG91dGZpbGUubWFlPic=

> <r_epik_Ionization_Penalty>
0.270794

> <r_epik_Ionization_Penalty_Charging>
0

> <r_epik_Ionization_Penalty_Neutral>
0.270794

> <r_epik_State_Penalty>
0.268291

> <r_epik_Charging_Adjusted_Penalty>
0.268291

> <i_epik_Tot_Q>
0

> <i_epik_Tot_abs_Q>
0

> <r_epik_Metal_State_Penalty>
0.264827

> <b_epik_Metal_Only>
0

> <s_lp_Force_Field>
OPLS_2005

> <r_lp_Energy>
43.3582

> <b_lp_Chiralities_Consistent>
1

> <s_lp_Variant>
AV-unprocessed.smi:1543-2

> <Gold.Version>
5.8.1

> <Gold.Id.Protein>
6NUR|6NUR_protein|mol2

> <Gold.PLP.Fitness>
43.3839

> <Gold.PLP.PLP>
-38.1183

> <Gold.PLP.part.hbond>
-1.0000

> <Gold.PLP.part.metal>
0.0000

> <Gold.PLP.part.buried>
-3.7181

> <Gold.PLP.part.nonpolar>
-33.4181

> <Gold.PLP.part.repulsive>
0.4734

> <Gold.PLP.ligand.clash>
0.0000

> <Gold.PLP.ligand.torsion>
0.3957

> <Gold.PLP.Chemscore.Hbond>
1.0000

> <Gold.PLP.Chemscore.CHOScore>
1.0000

> <Gold.PLP.Chemscore.Metal>
0.0000

> <Gold.Chemscore.Hbonds>
donor molecule, donor type, donor heavy atom, donor atom, acceptor molecule, acceptor atom, score
      P1  H 11000 11005       L1    11  1.00
      L1  C    18    42       P1 10160  0.92

> <Gold.PLP.Chemscore.Internal.Correction>
0.0571

> <Gold.Rescore>
     Score         DG    S(hbond)    S(metal)    S(lipo)     H(rot)  DE(clash)    DE(int)     intcor
     15.08     -16.81       0.97        0.00     100.37       1.43       0.09       1.64       ----

> <Gold.Chemscore.Fitness>
15.0816

> <Gold.Chemscore.DG>
-16.8144

> <Gold.Chemscore.ZeroCoef>
-5.4800

> <Gold.Chemscore.Hbond>
0.9729

> <Gold.Chemscore.Metal>
0.0000

> <Gold.Chemscore.Lipo>
100.3731

> <Gold.Chemscore.Internal_Hbond>
0.0000

> <Gold.Chemscore.DEClash>
0.0942

> <Gold.Chemscore.DEInternal>
1.6386

> <Gold.Chemscore.Rot>
1.4291

> <Gold.Chemscore.Internal.Correction>
   9.000000E+99

> <Gold.Chemscore.Hbonds>
donor molecule, donor type, donor heavy atom, donor atom, acceptor molecule, acceptor atom, score
      P1  H 11000 11005       L1    11  0.95

> <Gold.Chemscore.Hbond.Weighted>
-3.2493

> <Gold.Chemscore.Metal.Weighted>
-0.0000

> <Gold.Chemscore.Lipo.Weighted>
-11.7437

> <Gold.Chemscore.Internal_Hbond.Weighted>
0.0000

> <Gold.Chemscore.DEClash.Weighted>
0.0942

> <Gold.Chemscore.DEInternal.Weighted>
1.6386

> <Gold.Chemscore.Rot.Weighted>
3.6586

> <Gold.Chemscore.Internal.Correction.Weighted>
   9.000000E+99

> <Gold.Protein.RotatedTorsions>
[ 6907 6896 6895 6894 ] final  177.68 input  -60.11 | X-H torsion
[ 7974 7965 7964 7962 ] final  -72.56 input  175.53 | X-H torsion
[ 8008 7997 7996 7995 ] final  -45.43 input   59.86 | X-H torsion
[ 10167 10162 10161 10158 ] final  -52.96 input  -65.29 | X-H torsion
[ 10718 10713 10712 10709 ] final   87.83 input   66.30 | X-H torsion
[ 10763 10752 10751 10750 ] final -122.69 input  -60.55 | X-H torsion
[ 11005 11000 10999 10996 ] final   23.19 input  -57.11 | X-H torsion

> <Gold.Protein.ActiveResidues>
 VAL166  LYS551  ARG553  GLY616  TRP617  ASP618  TYR619  PRO620  LYS621  CYS622 
 ASP623  PHE694  ASN695  SER759  ASP760  ASP761  ALA762  ILE779  LEU786  VAL792 
 PHE793  MET794  SER795  GLU796  ALA797  LYS798  CYS799  TRP800  GLU811  SER814 

> <Gold.Protein.RotatedAtoms>
  151.7000  133.3311  159.3263 H   0  0  0  0  0  0  0  0  0  0  0  0  # atno 6907 bound_to 6896
  150.7740  134.6624  159.6356 H   0  0  0  0  0  0  0  0  0  0  0  0  # atno 6908 bound_to 6896
  152.3775  134.6644  160.0206 H   0  0  0  0  0  0  0  0  0  0  0  0  # atno 6909 bound_to 6896
  145.6635  140.9245  143.0921 H   0  0  0  0  0  0  0  0  0  0  0  0  # atno 7974 bound_to 7965
  154.4001  140.1397  156.3847 H   0  0  0  0  0  0  0  0  0  0  0  0  # atno 8008 bound_to 7997
  155.7971  140.3477  155.5361 H   0  0  0  0  0  0  0  0  0  0  0  0  # atno 8009 bound_to 7997
  155.8521  140.0943  157.1658 H   0  0  0  0  0  0  0  0  0  0  0  0  # atno 8010 bound_to 7997
  140.6510  143.2566  151.4723 H   0  0  0  0  0  0  0  0  0  0  0  0  # atno 10167 bound_to 10162
  157.6944  131.0271  150.3182 H   0  0  0  0  0  0  0  0  0  0  0  0  # atno 10718 bound_to 10713
  154.8694  135.4124  154.2822 H   0  0  0  0  0  0  0  0  0  0  0  0  # atno 10763 bound_to 10752
  153.3713  135.7007  153.6641 H   0  0  0  0  0  0  0  0  0  0  0  0  # atno 10764 bound_to 10752
  153.5502  135.3630  155.2728 H   0  0  0  0  0  0  0  0  0  0  0  0  # atno 10765 bound_to 10752
  140.3723  134.2009  155.7666 H   0  0  0  0  0  0  0  0  0  0  0  0  # atno 11005 bound_to 11000
  144.7081  139.8480  143.7423 LP  0  0  0  0  0  0  0  0  0  0  0  0  # atno 17320 bound_to 7965
  146.1105  139.4110  143.0290 LP  0  0  0  0  0  0  0  0  0  0  0  0  # atno 17321 bound_to 7965
  139.5725  144.1894  152.1857 LP  0  0  0  0  0  0  0  0  0  0  0  0  # atno 17342 bound_to 10162
  140.1195  144.5386  150.6872 LP  0  0  0  0  0  0  0  0  0  0  0  0  # atno 17343 bound_to 10162
  156.3673  130.3857  149.7203 LP  0  0  0  0  0  0  0  0  0  0  0  0  # atno 17370 bound_to 10713
  156.4629  130.7960  151.2980 LP  0  0  0  0  0  0  0  0  0  0  0  0  # atno 17371 bound_to 10713
  141.1950  133.8115  157.0732 LP  0  0  0  0  0  0  0  0  0  0  0  0  # atno 17394 bound_to 11000
  140.0542  134.9789  157.1190 LP  0  0  0  0  0  0  0  0  0  0  0  0  # atno 17395 bound_to 11000

$$$$
