AV-unprocessed.smi:1792|AV-procd|sdf|7223|dock5
  -GOLD-   22720 8463D 1   1.00000     0.00000
 Structure written by MMmdl.
 43 44  0  0  0  0  0  0  0  0  2 V2000
  146.4377  140.8828  155.7777 C   0  0  0  0  0  0  0  0  0  0  0  0
  146.9207  140.9675  154.3086 C   0  0  0  0  0  0  0  0  0  0  0  0
  146.4791  142.3390  153.7475 C   0  0  0  0  0  0  0  0  0  0  0  0
  148.4784  140.9208  154.3175 C   0  0  0  0  0  0  0  0  0  0  0  0
  149.0960  141.8852  155.2295 N   0  0  0  0  0  0  0  0  0  0  0  0
  150.0057  141.5953  156.1711 C   0  0  0  0  0  0  0  0  0  0  0  0
  150.4488  140.4623  156.3584 O   0  0  0  0  0  0  0  0  0  0  0  0
  150.3580  142.6932  156.8632 N   0  0  0  0  0  0  0  0  0  0  0  0
  151.2946  142.7960  157.9263 C   0  0  0  0  0  0  0  0  0  0  0  0
  151.4542  144.0946  158.4607 C   0  0  0  0  0  0  0  0  0  0  0  0
  152.3582  144.3013  159.5208 C   0  0  0  0  0  0  0  0  0  0  0  0
  153.0816  143.2029  160.0185 C   0  0  0  0  0  0  0  0  0  0  0  0
  152.8661  141.9444  159.4277 C   0  0  0  0  0  0  0  0  0  0  0  0
  152.0001  141.7440  158.4119 N   0  0  0  0  0  0  0  0  0  0  0  0
  146.3536  139.8264  153.5024 N   0  3  0  0  0  0  0  0  0  0  0  0
  147.0333  139.5404  152.2072 C   0  0  0  0  0  0  0  0  0  0  0  0
  146.2584  138.4755  151.4122 C   0  0  0  0  0  0  0  0  0  0  0  0
  146.1232  137.2940  152.1892 O   0  0  0  0  0  0  0  0  0  0  0  0
  145.3967  137.5331  153.3860 C   0  0  0  0  0  0  0  0  0  0  0  0
  146.1544  138.5534  154.2507 C   0  0  0  0  0  0  0  0  0  0  0  0
  146.9862  141.5761  156.4163 H   0  0  0  0  0  0  0  0  0  0  0  0
  146.5719  139.8832  156.1921 H   0  0  0  0  0  0  0  0  0  0  0  0
  145.3853  141.1460  155.8830 H   0  0  0  0  0  0  0  0  0  0  0  0
  146.8714  143.1521  154.3594 H   0  0  0  0  0  0  0  0  0  0  0  0
  145.3948  142.4484  153.7344 H   0  0  0  0  0  0  0  0  0  0  0  0
  146.8420  142.5076  152.7340 H   0  0  0  0  0  0  0  0  0  0  0  0
  148.8268  139.9325  154.6170 H   0  0  0  0  0  0  0  0  0  0  0  0
  148.8703  141.0497  153.3069 H   0  0  0  0  0  0  0  0  0  0  0  0
  148.7803  142.8415  155.1588 H   0  0  0  0  0  0  0  0  0  0  0  0
  149.9002  143.5550  156.6061 H   0  0  0  0  0  0  0  0  0  0  0  0
  150.8897  144.9278  158.0678 H   0  0  0  0  0  0  0  0  0  0  0  0
  152.4934  145.2856  159.9442 H   0  0  0  0  0  0  0  0  0  0  0  0
  153.7829  143.3219  160.8311 H   0  0  0  0  0  0  0  0  0  0  0  0
  153.4029  141.0755  159.7793 H   0  0  0  0  0  0  0  0  0  0  0  0
  147.0989  140.4297  151.5832 H   0  0  0  0  0  0  0  0  0  0  0  0
  148.0517  139.1942  152.3853 H   0  0  0  0  0  0  0  0  0  0  0  0
  145.2753  138.8476  151.1189 H   0  0  0  0  0  0  0  0  0  0  0  0
  146.7920  138.2325  150.4932 H   0  0  0  0  0  0  0  0  0  0  0  0
  144.3904  137.8868  153.1553 H   0  0  0  0  0  0  0  0  0  0  0  0
  145.2873  136.5920  153.9252 H   0  0  0  0  0  0  0  0  0  0  0  0
  147.1174  138.1321  154.5407 H   0  0  0  0  0  0  0  0  0  0  0  0
  145.5854  138.7117  155.1647 H   0  0  0  0  0  0  0  0  0  0  0  0
  145.4262  140.1348  153.2476 H   0  0  0  0  0  0  0  0  0  0  0  0
  1  2  1  0  0  0  0
  1 21  1  0  0  0  0
  1 22  1  0  0  0  0
  1 23  1  0  0  0  0
  2  3  1  0  0  0  0
  2  4  1  0  0  0  0
  2 15  1  0  0  0  0
  3 24  1  0  0  0  0
  3 25  1  0  0  0  0
  3 26  1  0  0  0  0
  4  5  1  0  0  0  0
  4 27  1  0  0  0  0
  4 28  1  0  0  0  0
  5  6  1  0  0  0  0
  5 29  1  0  0  0  0
  6  7  2  0  0  0  0
  6  8  1  0  0  0  0
  8  9  1  0  0  0  0
  8 30  1  0  0  0  0
  9 14  1  0  0  0  0
  9 10  2  0  0  0  0
 10 11  1  0  0  0  0
 10 31  1  0  0  0  0
 11 12  2  0  0  0  0
 11 32  1  0  0  0  0
 12 13  1  0  0  0  0
 12 33  1  0  0  0  0
 13 14  2  0  0  0  0
 13 34  1  0  0  0  0
 15 20  1  0  0  0  0
 15 16  1  0  0  0  0
 15 43  1  0  0  0  0
 16 17  1  0  0  0  0
 16 35  1  0  0  0  0
 16 36  1  0  0  0  0
 17 18  1  0  0  0  0
 17 37  1  0  0  0  0
 17 38  1  0  0  0  0
 18 19  1  0  0  0  0
 19 20  1  0  0  0  0
 19 39  1  0  0  0  0
 19 40  1  0  0  0  0
 20 41  1  0  0  0  0
 20 42  1  0  0  0  0
M  CHG  1  15   1
M  END
> <s_m_source_file>
AV-unprocessed.smi

> <i_m_source_file_index>
1792

> <i_lp_mmshare_version>
43012

> <i_f3d_flags>
0

> <s_epik_input>
W0NIMl0xW0NIMl1PW0NIMl1bQ0gyXU4xQyhbQ0gzXSkoW0NIM10pW0NIMl1bTkhdQyg9TylbTkhdYzJbY0hdW2NIXVtjSF1bY0hdbjI=

> <s_epik_cmdline>
J2VwaWtfcHl0aG9uJywgJy1waCcsICc3LjAnLCAnLXRuJywgJzgnLCAnLW1hJywgJzIwMCcsICctbWV0YWxfYmluZGluZycsICctaW1hZScsICc8aW5maWxlLm1hZT4nLCAnLW9tYWUnLCAnPG91dGZpbGUubWFlPic=

> <r_epik_Ionization_Penalty>
0.602565

> <r_epik_Ionization_Penalty_Charging>
0.602531

> <r_epik_Ionization_Penalty_Neutral>
3.47415e-05

> <r_epik_State_Penalty>
0.617039

> <r_epik_Charging_Adjusted_Penalty>
1.21957

> <i_epik_Tot_Q>
1

> <i_epik_Tot_abs_Q>
1

> <r_epik_Metal_State_Penalty>
0.617041

> <b_epik_Metal_Only>
0

> <s_lp_Force_Field>
OPLS_2005

> <r_lp_Energy>
32.7628

> <b_lp_Chiralities_Consistent>
1

> <s_lp_Variant>
AV-unprocessed.smi:1792-2

> <Gold.Version>
5.8.1

> <Gold.Id.Protein>
6NUR|6NUR_protein|mol2

> <Gold.PLP.Fitness>
49.0703

> <Gold.PLP.PLP>
-38.6263

> <Gold.PLP.part.hbond>
-3.0000

> <Gold.PLP.part.metal>
0.0000

> <Gold.PLP.part.buried>
-1.9179

> <Gold.PLP.part.nonpolar>
-35.4914

> <Gold.PLP.part.repulsive>
1.2973

> <Gold.PLP.ligand.clash>
0.0000

> <Gold.PLP.ligand.torsion>
0.7700

> <Gold.PLP.Chemscore.Hbond>
3.9600

> <Gold.PLP.Chemscore.CHOScore>
0.0000

> <Gold.PLP.Chemscore.Metal>
0.0000

> <Gold.Chemscore.Hbonds>
donor molecule, donor type, donor heavy atom, donor atom, acceptor molecule, acceptor atom, score
      L1  H     5    29       P1  8028  1.00
      L1  H     8    30       P1  8028  1.00
      L1  H    15    43       P1 10175  2.00

> <Gold.PLP.Chemscore.Internal.Correction>
0.1039

> <Gold.Rescore>
     Score         DG    S(hbond)    S(metal)    S(lipo)     H(rot)  DE(clash)    DE(int)     intcor
     19.21     -22.32       2.93        0.00      94.28       1.55       1.27       1.84       ----

> <Gold.Chemscore.Fitness>
19.2064

> <Gold.Chemscore.DG>
-22.3187

> <Gold.Chemscore.ZeroCoef>
-5.4800

> <Gold.Chemscore.Hbond>
2.9251

> <Gold.Chemscore.Metal>
0.0000

> <Gold.Chemscore.Lipo>
94.2789

> <Gold.Chemscore.Internal_Hbond>
0.0000

> <Gold.Chemscore.DEClash>
1.2733

> <Gold.Chemscore.DEInternal>
1.8390

> <Gold.Chemscore.Rot>
1.5476

> <Gold.Chemscore.Internal.Correction>
   9.000000E+99

> <Gold.Chemscore.Hbonds>
donor molecule, donor type, donor heavy atom, donor atom, acceptor molecule, acceptor atom, score
      L1  H     5    29       P1  8028  0.96
      L1  H     8    30       P1  8028  1.00
      L1  H    15    43       P1 10175  0.99

> <Gold.Chemscore.Hbond.Weighted>
-9.7700

> <Gold.Chemscore.Metal.Weighted>
-0.0000

> <Gold.Chemscore.Lipo.Weighted>
-11.0306

> <Gold.Chemscore.Internal_Hbond.Weighted>
0.0000

> <Gold.Chemscore.DEClash.Weighted>
1.2733

> <Gold.Chemscore.DEInternal.Weighted>
1.8390

> <Gold.Chemscore.Rot.Weighted>
3.9619

> <Gold.Chemscore.Internal.Correction.Weighted>
   9.000000E+99

> <Gold.Protein.RotatedTorsions>
[ 6907 6896 6895 6894 ] final   59.10 input  -60.11 | X-H torsion
[ 7974 7965 7964 7962 ] final -148.05 input  175.53 | X-H torsion
[ 8008 7997 7996 7995 ] final -152.87 input   59.86 | X-H torsion
[ 10167 10162 10161 10158 ] final  127.44 input  -65.29 | X-H torsion
[ 10718 10713 10712 10709 ] final  -48.83 input   66.30 | X-H torsion
[ 10763 10752 10751 10750 ] final  146.69 input  -60.55 | X-H torsion
[ 11005 11000 10999 10996 ] final    0.50 input  -57.11 | X-H torsion

> <Gold.Protein.ActiveResidues>
 VAL166  LYS551  ARG553  GLY616  TRP617  ASP618  TYR619  PRO620  LYS621  CYS622 
 ASP623  PHE694  ASN695  SER759  ASP760  ASP761  ALA762  ILE779  LEU786  VAL792 
 PHE793  MET794  SER795  GLU796  ALA797  LYS798  CYS799  TRP800  GLU811  SER814 

> <Gold.Protein.RotatedAtoms>
  152.3884  134.6480  160.0116 H   0  0  0  0  0  0  0  0  0  0  0  0  # atno 6907 bound_to 6896
  151.6722  133.3308  159.3207 H   0  0  0  0  0  0  0  0  0  0  0  0  # atno 6908 bound_to 6896
  150.7805  134.6789  159.6478 H   0  0  0  0  0  0  0  0  0  0  0  0  # atno 6909 bound_to 6896
  144.8054  140.5248  143.5678 H   0  0  0  0  0  0  0  0  0  0  0  0  # atno 7974 bound_to 7965
  155.6619  140.0723  157.2551 H   0  0  0  0  0  0  0  0  0  0  0  0  # atno 8008 bound_to 7997
  154.4141  140.1715  156.1836 H   0  0  0  0  0  0  0  0  0  0  0  0  # atno 8009 bound_to 7997
  155.9690  140.3363  155.6562 H   0  0  0  0  0  0  0  0  0  0  0  0  # atno 8010 bound_to 7997
  139.5578  144.6861  151.4131 H   0  0  0  0  0  0  0  0  0  0  0  0  # atno 10167 bound_to 10162
  156.1950  130.4154  149.9318 H   0  0  0  0  0  0  0  0  0  0  0  0  # atno 10718 bound_to 10713
  154.0260  135.2902  155.3375 H   0  0  0  0  0  0  0  0  0  0  0  0  # atno 10763 bound_to 10752
  154.7017  135.5186  153.8539 H   0  0  0  0  0  0  0  0  0  0  0  0  # atno 10764 bound_to 10752
  153.0660  135.6631  154.0478 H   0  0  0  0  0  0  0  0  0  0  0  0  # atno 10765 bound_to 10752
  140.6259  133.9619  155.8249 H   0  0  0  0  0  0  0  0  0  0  0  0  # atno 11005 bound_to 11000
  145.5451  139.1476  143.3425 LP  0  0  0  0  0  0  0  0  0  0  0  0  # atno 17320 bound_to 7965
  146.2344  140.5590  142.8961 LP  0  0  0  0  0  0  0  0  0  0  0  0  # atno 17321 bound_to 7965
  140.6854  143.7986  150.7178 LP  0  0  0  0  0  0  0  0  0  0  0  0  # atno 17342 bound_to 10162
  140.1452  143.4406  152.2167 LP  0  0  0  0  0  0  0  0  0  0  0  0  # atno 17343 bound_to 10162
  156.7046  130.8946  151.3603 LP  0  0  0  0  0  0  0  0  0  0  0  0  # atno 17370 bound_to 10713
  157.6952  130.9275  150.0625 LP  0  0  0  0  0  0  0  0  0  0  0  0  # atno 17371 bound_to 10713
  141.0710  134.0206  157.3526 LP  0  0  0  0  0  0  0  0  0  0  0  0  # atno 17394 bound_to 11000
  139.9135  135.0193  156.7787 LP  0  0  0  0  0  0  0  0  0  0  0  0  # atno 17395 bound_to 11000

$$$$
