AV-unprocessed.smi:2114|AV-procd|sdf|8622|dock3
  -GOLD-   2272011363D 1   1.00000     0.00000
 Structure written by MMmdl.
 47 48  0  0  0  0  0  0  0  0  1 V2000
  144.1090  136.5957  152.4196 C   0  0  0  0  0  0  0  0  0  0  0  0
  145.5057  136.8283  152.3766 O   0  0  0  0  0  0  0  0  0  0  0  0
  145.8958  137.9512  153.1507 C   0  0  0  0  0  0  0  0  0  0  0  0
  147.1352  138.5995  152.5152 C   0  0  1  0  0  0  0  0  0  0  0  0
  146.7559  139.5645  151.3830 C   0  0  0  0  0  0  0  0  0  0  0  0
  147.8876  139.3227  153.5371 N   0  0  0  0  0  0  0  0  0  0  0  0
  147.3857  140.2354  154.3851 C   0  0  0  0  0  0  0  0  0  0  0  0
  146.2079  140.5931  154.3912 O   0  0  0  0  0  0  0  0  0  0  0  0
  148.3838  140.8651  155.3119 C   0  0  0  0  0  0  0  0  0  0  0  0
  149.7701  140.8322  155.0406 C   0  0  0  0  0  0  0  0  0  0  0  0
  150.6599  141.4247  155.9567 C   0  0  0  0  0  0  0  0  0  0  0  0
  150.1360  142.0304  157.1170 C   0  0  0  0  0  0  0  0  0  0  0  0
  151.0178  142.6286  158.0274 N   0  0  0  0  0  0  0  0  0  0  0  0
  151.9161  141.6905  158.6859 C   0  0  0  0  0  0  0  0  0  0  0  0
  152.7075  142.4103  159.7923 C   0  0  1  0  0  0  0  0  0  0  0  0
  153.7425  141.4902  160.4480 C   0  0  0  0  0  0  0  0  0  0  0  0
  153.3981  143.5264  159.2288 O   0  0  0  0  0  0  0  0  0  0  0  0
  152.5630  144.4763  158.5604 C   0  0  2  0  0  0  0  0  0  0  0  0
  151.7188  145.2995  159.5491 C   0  0  0  0  0  0  0  0  0  0  0  0
  151.7243  143.7755  157.4727 C   0  0  0  0  0  0  0  0  0  0  0  0
  148.8102  142.0534  157.3924 N   0  0  0  0  0  0  0  0  0  0  0  0
  147.9628  141.4784  156.5123 C   0  0  0  0  0  0  0  0  0  0  0  0
  143.8642  135.7232  151.8138 H   0  0  0  0  0  0  0  0  0  0  0  0
  143.5541  137.4469  152.0231 H   0  0  0  0  0  0  0  0  0  0  0  0
  143.7729  136.4024  153.4391 H   0  0  0  0  0  0  0  0  0  0  0  0
  145.0759  138.6705  153.1818 H   0  0  0  0  0  0  0  0  0  0  0  0
  146.1059  137.6504  154.1787 H   0  0  0  0  0  0  0  0  0  0  0  0
  147.7453  137.8027  152.0858 H   0  0  0  0  0  0  0  0  0  0  0  0
  146.2104  139.0470  150.5936 H   0  0  0  0  0  0  0  0  0  0  0  0
  147.6439  140.0081  150.9313 H   0  0  0  0  0  0  0  0  0  0  0  0
  146.1251  140.3765  151.7466 H   0  0  0  0  0  0  0  0  0  0  0  0
  148.8753  139.1222  153.5952 H   0  0  0  0  0  0  0  0  0  0  0  0
  150.1562  140.3604  154.1487 H   0  0  0  0  0  0  0  0  0  0  0  0
  151.7236  141.4158  155.7688 H   0  0  0  0  0  0  0  0  0  0  0  0
  151.3409  140.8662  159.1097 H   0  0  0  0  0  0  0  0  0  0  0  0
  152.6031  141.2628  157.9539 H   0  0  0  0  0  0  0  0  0  0  0  0
  152.0232  142.7550  160.5680 H   0  0  0  0  0  0  0  0  0  0  0  0
  153.2638  140.6230  160.9037 H   0  0  0  0  0  0  0  0  0  0  0  0
  154.2901  142.0159  161.2306 H   0  0  0  0  0  0  0  0  0  0  0  0
  154.4682  141.1285  159.7188 H   0  0  0  0  0  0  0  0  0  0  0  0
  153.2355  145.1749  158.0623 H   0  0  0  0  0  0  0  0  0  0  0  0
  151.1973  146.1059  159.0328 H   0  0  0  0  0  0  0  0  0  0  0  0
  152.3495  145.7520  160.3144 H   0  0  0  0  0  0  0  0  0  0  0  0
  150.9632  144.6953  160.0510 H   0  0  0  0  0  0  0  0  0  0  0  0
  152.3805  143.4352  156.6700 H   0  0  0  0  0  0  0  0  0  0  0  0
  151.0158  144.4761  157.0286 H   0  0  0  0  0  0  0  0  0  0  0  0
  146.9157  141.5207  156.7756 H   0  0  0  0  0  0  0  0  0  0  0  0
  1  2  1  0  0  0  0
  1 23  1  0  0  0  0
  1 24  1  0  0  0  0
  1 25  1  0  0  0  0
  2  3  1  0  0  0  0
  3  4  1  0  0  0  0
  3 26  1  0  0  0  0
  3 27  1  0  0  0  0
  4  5  1  0  0  0  0
  4  6  1  0  0  0  0
  4 28  1  0  0  0  0
  5 29  1  0  0  0  0
  5 30  1  0  0  0  0
  5 31  1  0  0  0  0
  6  7  1  0  0  0  0
  6 32  1  0  0  0  0
  7  8  2  0  0  0  0
  7  9  1  0  0  0  0
  9 22  1  0  0  0  0
  9 10  2  0  0  0  0
 10 11  1  0  0  0  0
 10 33  1  0  0  0  0
 11 12  2  0  0  0  0
 11 34  1  0  0  0  0
 12 13  1  0  0  0  0
 12 21  1  0  0  0  0
 13 20  1  0  0  0  0
 13 14  1  0  0  0  0
 14 15  1  0  0  0  0
 14 35  1  0  0  0  0
 14 36  1  0  0  0  0
 15 16  1  0  0  0  0
 15 17  1  0  0  0  0
 15 37  1  0  0  0  0
 16 38  1  0  0  0  0
 16 39  1  0  0  0  0
 16 40  1  0  0  0  0
 17 18  1  0  0  0  0
 18 19  1  0  0  0  0
 18 20  1  0  0  0  0
 18 41  1  0  0  0  0
 19 42  1  0  0  0  0
 19 43  1  0  0  0  0
 19 44  1  0  0  0  0
 20 45  1  0  0  0  0
 20 46  1  0  0  0  0
 21 22  2  0  0  0  0
 22 47  1  0  0  0  0
M  END
> <s_m_source_file>
AV-unprocessed.smi

> <i_m_source_file_index>
2114

> <i_lp_mmshare_version>
43012

> <i_f3d_flags>
0

> <s_epik_input>
W0NIM11PW0NIMl1bQ0BIXShbQ0gzXSlbTkhdQyg9TyljMVtjSF1bY0hdYyhuW2NIXTEpTjJbQ0gyXVtDQEBIXShbQ0gzXSlPW0NAQEhdKFtDSDNdKVtDSDJdMg==

> <s_epik_cmdline>
J2VwaWtfcHl0aG9uJywgJy1waCcsICc3LjAnLCAnLXRuJywgJzgnLCAnLW1hJywgJzIwMCcsICctbWV0YWxfYmluZGluZycsICctaW1hZScsICc8aW5maWxlLm1hZT4nLCAnLW9tYWUnLCAnPG91dGZpbGUubWFlPic=

> <r_lp_tautomer_probability>
1

> <r_epik_Ionization_Penalty>
1.92915e-05

> <r_epik_Ionization_Penalty_Charging>
0

> <r_epik_Ionization_Penalty_Neutral>
1.92915e-05

> <r_epik_State_Penalty>
-0

> <r_epik_Charging_Adjusted_Penalty>
0

> <i_epik_Tot_Q>
0

> <i_epik_Tot_abs_Q>
0

> <r_epik_Metal_State_Penalty>
-0

> <b_epik_Metal_Only>
0

> <s_lp_Force_Field>
OPLS_2005

> <r_lp_Energy>
24.377

> <b_lp_Chiralities_Consistent>
1

> <s_lp_Variant>
AV-unprocessed.smi:2114-6

> <Gold.Version>
5.8.1

> <Gold.Id.Protein>
6NUR|6NUR_protein|mol2

> <Gold.PLP.Fitness>
41.0148

> <Gold.PLP.PLP>
-42.5016

> <Gold.PLP.part.hbond>
-1.0000

> <Gold.PLP.part.metal>
0.0000

> <Gold.PLP.part.buried>
-0.1640

> <Gold.PLP.part.nonpolar>
-41.1334

> <Gold.PLP.part.repulsive>
0.6070

> <Gold.PLP.ligand.clash>
0.0000

> <Gold.PLP.ligand.torsion>
0.8079

> <Gold.PLP.Chemscore.Hbond>
0.0000

> <Gold.PLP.Chemscore.CHOScore>
0.0000

> <Gold.PLP.Chemscore.Metal>
0.0000

> <Gold.PLP.Chemscore.Internal.Correction>
0.1288

> <Gold.Rescore>
     Score         DG    S(hbond)    S(metal)    S(lipo)     H(rot)  DE(clash)    DE(int)     intcor
     13.29     -15.39       0.00        0.00     118.03       1.52       0.30       1.80       ----

> <Gold.Chemscore.Fitness>
13.2876

> <Gold.Chemscore.DG>
-15.3920

> <Gold.Chemscore.ZeroCoef>
-5.4800

> <Gold.Chemscore.Hbond>
0.0000

> <Gold.Chemscore.Metal>
0.0000

> <Gold.Chemscore.Lipo>
118.0342

> <Gold.Chemscore.Internal_Hbond>
0.0000

> <Gold.Chemscore.DEClash>
0.3044

> <Gold.Chemscore.DEInternal>
1.8000

> <Gold.Chemscore.Rot>
1.5226

> <Gold.Chemscore.Internal.Correction>
   9.000000E+99

> <Gold.Chemscore.Hbond.Weighted>
-0.0000

> <Gold.Chemscore.Metal.Weighted>
-0.0000

> <Gold.Chemscore.Lipo.Weighted>
-13.8100

> <Gold.Chemscore.Internal_Hbond.Weighted>
0.0000

> <Gold.Chemscore.DEClash.Weighted>
0.3044

> <Gold.Chemscore.DEInternal.Weighted>
1.8000

> <Gold.Chemscore.Rot.Weighted>
3.8980

> <Gold.Chemscore.Internal.Correction.Weighted>
   9.000000E+99

> <Gold.Protein.RotatedTorsions>
[ 6907 6896 6895 6894 ] final  154.23 input  -60.11 | X-H torsion
[ 7974 7965 7964 7962 ] final -147.68 input  175.53 | X-H torsion
[ 8008 7997 7996 7995 ] final  145.94 input   59.86 | X-H torsion
[ 10167 10162 10161 10158 ] final   52.19 input  -65.29 | X-H torsion
[ 10718 10713 10712 10709 ] final   56.20 input   66.30 | X-H torsion
[ 10763 10752 10751 10750 ] final -168.71 input  -60.55 | X-H torsion
[ 11005 11000 10999 10996 ] final  -76.59 input  -57.11 | X-H torsion

> <Gold.Protein.ActiveResidues>
 VAL166  LYS551  ARG553  GLY616  TRP617  ASP618  TYR619  PRO620  LYS621  CYS622 
 ASP623  PHE694  ASN695  SER759  ASP760  ASP761  ALA762  ILE779  LEU786  VAL792 
 PHE793  MET794  SER795  GLU796  ALA797  LYS798  CYS799  TRP800  GLU811  SER814 

> <Gold.Protein.RotatedAtoms>
  152.0614  133.4064  159.4419 H   0  0  0  0  0  0  0  0  0  0  0  0  # atno 6907 bound_to 6896
  150.6866  134.3196  159.4790 H   0  0  0  0  0  0  0  0  0  0  0  0  # atno 6908 bound_to 6896
  152.1017  134.9336  160.0620 H   0  0  0  0  0  0  0  0  0  0  0  0  # atno 6909 bound_to 6896
  144.8077  140.5295  143.5663 H   0  0  0  0  0  0  0  0  0  0  0  0  # atno 7974 bound_to 7965
  156.2869  140.2195  156.5297 H   0  0  0  0  0  0  0  0  0  0  0  0  # atno 8008 bound_to 7997
  154.7459  140.0484  157.0874 H   0  0  0  0  0  0  0  0  0  0  0  0  # atno 8009 bound_to 7997
  155.0171  140.3120  155.4810 H   0  0  0  0  0  0  0  0  0  0  0  0  # atno 8010 bound_to 7997
  140.2540  144.3447  150.6339 H   0  0  0  0  0  0  0  0  0  0  0  0  # atno 10167 bound_to 10162
  157.5411  130.8698  149.8823 H   0  0  0  0  0  0  0  0  0  0  0  0  # atno 10718 bound_to 10713
  154.6600  135.2923  154.9878 H   0  0  0  0  0  0  0  0  0  0  0  0  # atno 10763 bound_to 10752
  154.0941  135.6586  153.4861 H   0  0  0  0  0  0  0  0  0  0  0  0  # atno 10764 bound_to 10752
  153.0424  135.5227  154.7547 H   0  0  0  0  0  0  0  0  0  0  0  0  # atno 10765 bound_to 10752
  141.1655  133.6989  156.7692 H   0  0  0  0  0  0  0  0  0  0  0  0  # atno 11005 bound_to 11000
  145.5398  139.1475  143.3453 LP  0  0  0  0  0  0  0  0  0  0  0  0  # atno 17320 bound_to 7965
  146.2371  140.5537  142.8950 LP  0  0  0  0  0  0  0  0  0  0  0  0  # atno 17321 bound_to 7965
  140.6018  143.2167  151.7057 LP  0  0  0  0  0  0  0  0  0  0  0  0  # atno 17342 bound_to 10162
  139.5037  144.3781  152.0404 LP  0  0  0  0  0  0  0  0  0  0  0  0  # atno 17343 bound_to 10162
  156.0497  130.3720  150.1230 LP  0  0  0  0  0  0  0  0  0  0  0  0  # atno 17370 bound_to 10713
  156.9410  130.9744  151.3516 LP  0  0  0  0  0  0  0  0  0  0  0  0  # atno 17371 bound_to 10713
  140.2476  134.8565  157.3636 LP  0  0  0  0  0  0  0  0  0  0  0  0  # atno 17394 bound_to 11000
  140.1734  134.4580  155.7817 LP  0  0  0  0  0  0  0  0  0  0  0  0  # atno 17395 bound_to 11000

$$$$
