AV-unprocessed.smi:31|AV-procd|sdf|196|dock6
  -GOLD-   2262015463D 1   1.00000     0.00000
 Structure written by MMmdl.
 49 52  0  0  0  0  0  0  0  0  1 V2000
  151.0281  137.2439  159.7098 O   0  0  0  0  0  0  0  0  0  0  0  0
  150.8565  137.7056  158.5811 C   0  0  0  0  0  0  0  0  0  0  0  0
  152.0380  138.2957  157.7949 C   0  0  0  0  0  0  0  0  0  0  0  0
  151.8341  139.7033  157.3871 N   0  0  0  0  0  0  0  0  0  0  0  0
  151.2557  139.9723  156.1217 C   0  0  0  0  0  0  0  0  0  0  0  0
  150.9306  139.0599  155.3607 O   0  0  0  0  0  0  0  0  0  0  0  0
  151.0727  141.3833  155.8000 C   0  0  0  0  0  0  0  0  0  0  0  0
  150.5316  141.7318  154.6203 F   0  0  0  0  0  0  0  0  0  0  0  0
  151.4379  142.3480  156.6694 C   0  0  0  0  0  0  0  0  0  0  0  0
  152.0008  142.0706  157.9024 N   0  0  0  0  0  0  0  0  0  0  0  0
  152.3983  143.1649  158.8703 C   0  0  1  0  0  0  0  0  0  0  0  0
  152.4615  144.5260  158.1519 C   0  0  0  0  0  0  0  0  0  0  0  0
  151.6252  145.4156  159.0498 C   0  0  0  0  0  0  0  0  0  0  0  0
  150.6302  144.4234  159.6322 C   0  0  0  0  0  0  0  0  0  0  0  0
  151.4368  143.2794  159.8808 O   0  0  0  0  0  0  0  0  0  0  0  0
  152.2015  140.7283  158.2910 C   0  0  0  0  0  0  0  0  0  0  0  0
  152.6850  140.4594  159.3931 O   0  0  0  0  0  0  0  0  0  0  0  0
  149.6671  137.7750  157.9555 N   0  0  0  0  0  0  0  0  0  0  0  0
  148.3931  137.3209  158.3945 C   0  0  0  0  0  0  0  0  0  0  0  0
  147.3181  137.4681  157.4977 C   0  0  0  0  0  0  0  0  0  0  0  0
  146.0282  137.0381  157.8560 C   0  0  0  0  0  0  0  0  0  0  0  0
  145.7858  136.4473  159.1114 C   0  0  0  0  0  0  0  0  0  0  0  0
  146.8798  136.2330  160.0005 C   0  0  0  0  0  0  0  0  0  0  0  0
  148.1643  136.6919  159.6412 C   0  0  0  0  0  0  0  0  0  0  0  0
  146.7803  135.5729  161.2059 O   0  0  0  0  0  0  0  0  0  0  0  0
  145.8485  134.5026  161.2571 C   0  0  0  0  0  0  0  0  0  0  0  0
  144.4381  135.0110  161.5614 C   0  0  0  0  0  0  0  0  0  0  0  0
  144.0802  136.2599  160.7535 C   0  0  0  0  0  0  0  0  0  0  0  0
  144.4767  136.1256  159.3965 O   0  0  0  0  0  0  0  0  0  0  0  0
  152.9453  138.2004  158.3939 H   0  0  0  0  0  0  0  0  0  0  0  0
  152.2253  137.6552  156.9319 H   0  0  0  0  0  0  0  0  0  0  0  0
  151.2726  143.3719  156.3711 H   0  0  0  0  0  0  0  0  0  0  0  0
  153.3457  142.8448  159.3079 H   0  0  0  0  0  0  0  0  0  0  0  0
  153.4919  144.8658  158.0447 H   0  0  0  0  0  0  0  0  0  0  0  0
  152.0073  144.4520  157.1623 H   0  0  0  0  0  0  0  0  0  0  0  0
  152.2429  145.8360  159.8445 H   0  0  0  0  0  0  0  0  0  0  0  0
  151.1478  146.2367  158.5147 H   0  0  0  0  0  0  0  0  0  0  0  0
  150.1546  144.7853  160.5438 H   0  0  0  0  0  0  0  0  0  0  0  0
  149.8510  144.1851  158.9066 H   0  0  0  0  0  0  0  0  0  0  0  0
  149.6680  138.2589  157.0695 H   0  0  0  0  0  0  0  0  0  0  0  0
  147.4748  137.9276  156.5324 H   0  0  0  0  0  0  0  0  0  0  0  0
  145.2094  137.1853  157.1671 H   0  0  0  0  0  0  0  0  0  0  0  0
  148.9736  136.5122  160.3314 H   0  0  0  0  0  0  0  0  0  0  0  0
  145.8638  133.9385  160.3223 H   0  0  0  0  0  0  0  0  0  0  0  0
  146.1615  133.8046  162.0336 H   0  0  0  0  0  0  0  0  0  0  0  0
  143.7232  134.2149  161.3527 H   0  0  0  0  0  0  0  0  0  0  0  0
  144.3445  135.2386  162.6235 H   0  0  0  0  0  0  0  0  0  0  0  0
  143.0026  136.4207  160.7870 H   0  0  0  0  0  0  0  0  0  0  0  0
  144.5306  137.1506  161.1957 H   0  0  0  0  0  0  0  0  0  0  0  0
  1  2  2  0  0  0  0
  2  3  1  0  0  0  0
  2 18  1  0  0  0  0
  3  4  1  0  0  0  0
  3 30  1  0  0  0  0
  3 31  1  0  0  0  0
  4 16  1  0  0  0  0
  4  5  1  0  0  0  0
  5  6  2  0  0  0  0
  5  7  1  0  0  0  0
  7  8  1  0  0  0  0
  7  9  2  0  0  0  0
  9 10  1  0  0  0  0
  9 32  1  0  0  0  0
 10 11  1  0  0  0  0
 10 16  1  0  0  0  0
 11 15  1  0  0  0  0
 11 12  1  0  0  0  0
 11 33  1  0  0  0  0
 12 13  1  0  0  0  0
 12 34  1  0  0  0  0
 12 35  1  0  0  0  0
 13 14  1  0  0  0  0
 13 36  1  0  0  0  0
 13 37  1  0  0  0  0
 14 15  1  0  0  0  0
 14 38  1  0  0  0  0
 14 39  1  0  0  0  0
 16 17  2  0  0  0  0
 18 19  1  0  0  0  0
 18 40  1  0  0  0  0
 19 24  1  0  0  0  0
 19 20  2  0  0  0  0
 20 21  1  0  0  0  0
 20 41  1  0  0  0  0
 21 22  2  0  0  0  0
 21 42  1  0  0  0  0
 22 29  1  0  0  0  0
 22 23  1  0  0  0  0
 23 24  2  0  0  0  0
 23 25  1  0  0  0  0
 24 43  1  0  0  0  0
 25 26  1  0  0  0  0
 26 27  1  0  0  0  0
 26 44  1  0  0  0  0
 26 45  1  0  0  0  0
 27 28  1  0  0  0  0
 27 46  1  0  0  0  0
 27 47  1  0  0  0  0
 28 29  1  0  0  0  0
 28 48  1  0  0  0  0
 28 49  1  0  0  0  0
M  END
> <s_m_source_file>
AV-unprocessed.smi

> <i_m_source_file_index>
31

> <i_lp_mmshare_version>
43012

> <i_f3d_flags>
0

> <s_epik_input>
TzFbQ0gyXVtDSDJdW0NIMl1PYyhjMTIpW2NIXWMoW2NIXVtjSF0yKVtOSF1DKD1PKVtDSDJdbjNjKD1PKWMoRilbY0hdbihjMz1PKVtDQEBIXTRbQ0gyXVtDSDJdW0NIMl1PNA==

> <s_epik_cmdline>
J2VwaWtfcHl0aG9uJywgJy1waCcsICc3LjAnLCAnLXRuJywgJzgnLCAnLW1hJywgJzIwMCcsICctbWV0YWxfYmluZGluZycsICctaW1hZScsICc8aW5maWxlLm1hZT4nLCAnLW9tYWUnLCAnPG91dGZpbGUubWFlPic=

> <r_lp_tautomer_probability>
1

> <r_epik_Ionization_Penalty>
1.0483e-05

> <r_epik_Ionization_Penalty_Charging>
3.88729e-08

> <r_epik_Ionization_Penalty_Neutral>
1.04441e-05

> <r_epik_State_Penalty>
-0

> <r_epik_Charging_Adjusted_Penalty>
3.88729e-08

> <i_epik_Tot_Q>
0

> <i_epik_Tot_abs_Q>
0

> <r_epik_Metal_State_Penalty>
-0

> <b_epik_Metal_Only>
0

> <s_epik_Chemistry_Notes>
This compound contains an acetal/aminal-like group ( X-CH(R)-Y where X, Y are N, S, or O) that may be acid/base labile, releasing an aldehyde.

> <s_lp_Force_Field>
OPLS_2005

> <r_lp_Energy>
46.1803

> <b_lp_Chiralities_Consistent>
1

> <s_lp_Variant>
AV-unprocessed.smi:31-2

> <Gold.Version>
5.8.1

> <Gold.Id.Protein>
6NUR|6NUR_protein|mol2

> <Gold.PLP.Fitness>
54.4575

> <Gold.PLP.PLP>
-50.0779

> <Gold.PLP.part.hbond>
-1.0000

> <Gold.PLP.part.metal>
0.0000

> <Gold.PLP.part.buried>
-7.4717

> <Gold.PLP.part.nonpolar>
-42.1428

> <Gold.PLP.part.repulsive>
0.1900

> <Gold.PLP.ligand.clash>
0.0000

> <Gold.PLP.ligand.torsion>
0.8162

> <Gold.PLP.Chemscore.Hbond>
1.0000

> <Gold.PLP.Chemscore.CHOScore>
1.0000

> <Gold.PLP.Chemscore.Metal>
0.0000

> <Gold.Chemscore.Hbonds>
donor molecule, donor type, donor heavy atom, donor atom, acceptor molecule, acceptor atom, score
      P1  H  6896  6907       L1     1  0.71
      L1  C     9    32       P1  8028  0.28

> <Gold.PLP.Chemscore.Internal.Correction>
0.0120

> <Gold.Rescore>
     Score         DG    S(hbond)    S(metal)    S(lipo)     H(rot)  DE(clash)    DE(int)     intcor
     13.99     -16.42       1.00        0.00     100.95       1.64       0.07       2.36       ----

> <Gold.Chemscore.Fitness>
13.9916

> <Gold.Chemscore.DG>
-16.4170

> <Gold.Chemscore.ZeroCoef>
-5.4800

> <Gold.Chemscore.Hbond>
0.9972

> <Gold.Chemscore.Metal>
0.0000

> <Gold.Chemscore.Lipo>
100.9536

> <Gold.Chemscore.Internal_Hbond>
0.0000

> <Gold.Chemscore.DEClash>
0.0659

> <Gold.Chemscore.DEInternal>
2.3594

> <Gold.Chemscore.Rot>
1.6427

> <Gold.Chemscore.Internal.Correction>
   9.000000E+99

> <Gold.Chemscore.Hbonds>
donor molecule, donor type, donor heavy atom, donor atom, acceptor molecule, acceptor atom, score
      P1  H  6896  6907       L1     1  0.67

> <Gold.Chemscore.Hbond.Weighted>
-3.3307

> <Gold.Chemscore.Metal.Weighted>
-0.0000

> <Gold.Chemscore.Lipo.Weighted>
-11.8116

> <Gold.Chemscore.Internal_Hbond.Weighted>
0.0000

> <Gold.Chemscore.DEClash.Weighted>
0.0659

> <Gold.Chemscore.DEInternal.Weighted>
2.3594

> <Gold.Chemscore.Rot.Weighted>
4.2053

> <Gold.Chemscore.Internal.Correction.Weighted>
   9.000000E+99

> <Gold.Protein.RotatedTorsions>
[ 6907 6896 6895 6894 ] final  -23.39 input  -60.11 | X-H torsion
[ 7974 7965 7964 7962 ] final  127.82 input  175.53 | X-H torsion
[ 8008 7997 7996 7995 ] final   79.66 input   59.86 | X-H torsion
[ 10167 10162 10161 10158 ] final  122.10 input  -65.29 | X-H torsion
[ 10718 10713 10712 10709 ] final   64.96 input   66.30 | X-H torsion
[ 10763 10752 10751 10750 ] final -174.72 input  -60.55 | X-H torsion
[ 11005 11000 10999 10996 ] final  123.37 input  -57.11 | X-H torsion

> <Gold.Protein.ActiveResidues>
 VAL166  LYS551  ARG553  GLY616  TRP617  ASP618  TYR619  PRO620  LYS621  CYS622 
 ASP623  PHE694  ASN695  SER759  ASP760  ASP761  ALA762  ILE779  LEU786  VAL792 
 PHE793  MET794  SER795  GLU796  ALA797  LYS798  CYS799  TRP800  GLU811  SER814 

> <Gold.Protein.RotatedAtoms>
  151.2047  135.0457  159.8886 H   0  0  0  0  0  0  0  0  0  0  0  0  # atno 6907 bound_to 6896
  152.5430  134.0811  159.8246 H   0  0  0  0  0  0  0  0  0  0  0  0  # atno 6908 bound_to 6896
  151.0956  133.5234  159.2644 H   0  0  0  0  0  0  0  0  0  0  0  0  # atno 6909 bound_to 6896
  145.0463  139.3920  143.5076 H   0  0  0  0  0  0  0  0  0  0  0  0  # atno 7974 bound_to 7965
  155.8727  140.3448  155.5832 H   0  0  0  0  0  0  0  0  0  0  0  0  # atno 8008 bound_to 7997
  155.7809  140.0858  157.2079 H   0  0  0  0  0  0  0  0  0  0  0  0  # atno 8009 bound_to 7997
  154.4018  140.1501  156.3038 H   0  0  0  0  0  0  0  0  0  0  0  0  # atno 8010 bound_to 7997
  139.5879  144.7014  151.3363 H   0  0  0  0  0  0  0  0  0  0  0  0  # atno 10167 bound_to 10162
  157.6074  130.9188  149.9914 H   0  0  0  0  0  0  0  0  0  0  0  0  # atno 10718 bound_to 10713
  154.5929  135.2847  155.0617 H   0  0  0  0  0  0  0  0  0  0  0  0  # atno 10763 bound_to 10752
  154.1910  135.6440  153.5064 H   0  0  0  0  0  0  0  0  0  0  0  0  # atno 10764 bound_to 10752
  153.0128  135.5446  154.6621 H   0  0  0  0  0  0  0  0  0  0  0  0  # atno 10765 bound_to 10752
  139.9309  134.9641  156.8249 H   0  0  0  0  0  0  0  0  0  0  0  0  # atno 11005 bound_to 11000
  146.3514  140.0090  142.8669 LP  0  0  0  0  0  0  0  0  0  0  0  0  # atno 17320 bound_to 7965
  145.1584  140.9660  143.4392 LP  0  0  0  0  0  0  0  0  0  0  0  0  # atno 17321 bound_to 7965
  140.7148  143.7296  150.7633 LP  0  0  0  0  0  0  0  0  0  0  0  0  # atno 17342 bound_to 10162
  140.0845  143.4937  152.2512 LP  0  0  0  0  0  0  0  0  0  0  0  0  # atno 17343 bound_to 10162
  156.1165  130.3647  149.9959 LP  0  0  0  0  0  0  0  0  0  0  0  0  # atno 17370 bound_to 10713
  156.8048  130.9303  151.3645 LP  0  0  0  0  0  0  0  0  0  0  0  0  # atno 17371 bound_to 10713
  140.6204  133.9999  155.7615 LP  0  0  0  0  0  0  0  0  0  0  0  0  # atno 17394 bound_to 11000
  141.0898  133.9935  157.3256 LP  0  0  0  0  0  0  0  0  0  0  0  0  # atno 17395 bound_to 11000

$$$$
