AV-unprocessed.smi:1686|AV-procd|sdf|6765|dock1
  -GOLD-   22720 7523D 1   1.00000     0.00000
 Structure written by MMmdl.
 41 43  0  0  0  0  0  0  0  0  1 V2000
  148.2880  138.4484  155.4987 C   0  0  0  0  0  0  0  0  0  0  0  0
  147.3639  139.6089  155.2663 C   0  0  0  0  0  0  0  0  0  0  0  0
  146.0651  139.4546  155.4883 N   0  0  0  0  0  0  0  0  0  0  0  0
  145.4638  140.6804  155.1805 O   0  0  0  0  0  0  0  0  0  0  0  0
  146.4504  141.5176  154.7863 C   0  0  0  0  0  0  0  0  0  0  0  0
  146.1438  143.1396  154.3057 Cl  0  0  0  0  0  0  0  0  0  0  0  0
  147.6797  140.9248  154.8157 C   0  0  0  0  0  0  0  0  0  0  0  0
  149.0289  141.5007  154.4582 C   0  0  0  0  0  0  0  0  0  0  0  0
  150.0318  141.3630  155.6100 C   0  0  0  0  0  0  0  0  0  0  0  0
  151.1232  140.8151  155.4450 O   0  0  0  0  0  0  0  0  0  0  0  0
  149.6298  141.8670  156.7872 N   0  0  0  0  0  0  0  0  0  0  0  0
  150.3852  141.8490  158.0394 C   0  0  1  0  0  0  0  0  0  0  0  0
  150.9408  140.4332  158.2565 C   0  0  0  0  0  0  0  0  0  0  0  0
  151.4998  142.9226  157.9908 C   0  0  1  0  0  0  0  0  0  0  0  0
  151.0648  144.3389  158.4354 C   0  0  0  0  0  0  0  0  0  0  0  0
  152.1633  144.7422  159.4361 C   0  0  1  0  0  0  0  0  0  0  0  0
  151.9563  143.9627  160.7475 C   0  0  0  0  0  0  0  0  0  0  0  0
  152.3892  142.5360  160.3636 C   0  0  0  0  0  0  0  0  0  0  0  0
  152.7514  142.6776  158.8707 C   0  0  2  0  0  0  0  0  0  0  0  0
  153.3965  144.0601  158.8552 C   0  0  0  0  0  0  0  0  0  0  0  0
  149.2923  138.6576  155.1307 H   0  0  0  0  0  0  0  0  0  0  0  0
  147.9323  137.5541  154.9866 H   0  0  0  0  0  0  0  0  0  0  0  0
  148.3646  138.2166  156.5611 H   0  0  0  0  0  0  0  0  0  0  0  0
  149.4447  141.0080  153.5786 H   0  0  0  0  0  0  0  0  0  0  0  0
  148.9450  142.5566  154.1992 H   0  0  0  0  0  0  0  0  0  0  0  0
  148.7167  142.2965  156.8218 H   0  0  0  0  0  0  0  0  0  0  0  0
  149.7130  142.0683  158.8690 H   0  0  0  0  0  0  0  0  0  0  0  0
  151.4565  140.3516  159.2133 H   0  0  0  0  0  0  0  0  0  0  0  0
  151.6467  140.1577  157.4723 H   0  0  0  0  0  0  0  0  0  0  0  0
  150.1387  139.6943  158.2584 H   0  0  0  0  0  0  0  0  0  0  0  0
  151.8434  142.9896  156.9565 H   0  0  0  0  0  0  0  0  0  0  0  0
  151.0416  145.0168  157.5815 H   0  0  0  0  0  0  0  0  0  0  0  0
  150.0780  144.3597  158.8990 H   0  0  0  0  0  0  0  0  0  0  0  0
  152.2528  145.8197  159.5777 H   0  0  0  0  0  0  0  0  0  0  0  0
  152.5928  144.3565  161.5408 H   0  0  0  0  0  0  0  0  0  0  0  0
  150.9237  144.0045  161.0959 H   0  0  0  0  0  0  0  0  0  0  0  0
  153.2676  142.2425  160.9398 H   0  0  0  0  0  0  0  0  0  0  0  0
  151.6171  141.7921  160.5555 H   0  0  0  0  0  0  0  0  0  0  0  0
  153.3959  141.8796  158.5010 H   0  0  0  0  0  0  0  0  0  0  0  0
  153.6536  144.4102  157.8538 H   0  0  0  0  0  0  0  0  0  0  0  0
  154.2760  144.1368  159.4971 H   0  0  0  0  0  0  0  0  0  0  0  0
  1  2  1  0  0  0  0
  1 21  1  0  0  0  0
  1 22  1  0  0  0  0
  1 23  1  0  0  0  0
  2  7  1  0  0  0  0
  2  3  2  0  0  0  0
  3  4  1  0  0  0  0
  4  5  1  0  0  0  0
  5  6  1  0  0  0  0
  5  7  2  0  0  0  0
  7  8  1  0  0  0  0
  8  9  1  0  0  0  0
  8 24  1  0  0  0  0
  8 25  1  0  0  0  0
  9 10  2  0  0  0  0
  9 11  1  0  0  0  0
 11 12  1  0  0  0  0
 11 26  1  0  0  0  0
 12 13  1  0  0  0  0
 12 14  1  0  0  0  0
 12 27  1  0  0  0  0
 13 28  1  0  0  0  0
 13 29  1  0  0  0  0
 13 30  1  0  0  0  0
 14 19  1  0  0  0  0
 14 15  1  0  0  0  0
 14 31  1  0  0  0  0
 15 16  1  0  0  0  0
 15 32  1  0  0  0  0
 15 33  1  0  0  0  0
 16 20  1  0  0  0  0
 16 17  1  0  0  0  0
 16 34  1  0  0  0  0
 17 18  1  0  0  0  0
 17 35  1  0  0  0  0
 17 36  1  0  0  0  0
 18 19  1  0  0  0  0
 18 37  1  0  0  0  0
 18 38  1  0  0  0  0
 19 20  1  0  0  0  0
 19 39  1  0  0  0  0
 20 40  1  0  0  0  0
 20 41  1  0  0  0  0
M  END
> <s_m_source_file>
AV-unprocessed.smi

> <i_m_source_file_index>
1686

> <i_lp_mmshare_version>
43012

> <i_f3d_flags>
0

> <s_epik_input>
W0NIM11jMW5vYyhDbCljMVtDSDJdQyg9TylbTkhdW0NASF0oW0NIM10pW0NASF0oW0NIMl1bQ0BIXTIzKVtDQEhdKFtDSDJdMylbQ0gyXVtDSDJdMg==

> <s_epik_cmdline>
J2VwaWtfcHl0aG9uJywgJy1waCcsICc3LjAnLCAnLXRuJywgJzgnLCAnLW1hJywgJzIwMCcsICctbWV0YWxfYmluZGluZycsICctaW1hZScsICc8aW5maWxlLm1hZT4nLCAnLW9tYWUnLCAnPG91dGZpbGUubWFlPic=

> <r_lp_tautomer_probability>
1

> <r_epik_Ionization_Penalty>
2.01576e-08

> <r_epik_Ionization_Penalty_Charging>
0

> <r_epik_Ionization_Penalty_Neutral>
2.01576e-08

> <r_epik_State_Penalty>
-0

> <r_epik_Charging_Adjusted_Penalty>
0

> <i_epik_Tot_Q>
0

> <i_epik_Tot_abs_Q>
0

> <r_epik_Metal_State_Penalty>
-0

> <b_epik_Metal_Only>
0

> <s_lp_Force_Field>
OPLS_2005

> <r_lp_Energy>
47.064

> <b_lp_Chiralities_Consistent>
1

> <s_lp_Variant>
AV-unprocessed.smi:1686-8

> <Gold.Version>
5.8.1

> <Gold.Id.Protein>
6NUR|6NUR_protein|mol2

> <Gold.PLP.Fitness>
41.1087

> <Gold.PLP.PLP>
-40.4396

> <Gold.PLP.part.hbond>
-1.4701

> <Gold.PLP.part.metal>
0.0000

> <Gold.PLP.part.buried>
-4.8631

> <Gold.PLP.part.nonpolar>
-33.7703

> <Gold.PLP.part.repulsive>
0.2303

> <Gold.PLP.ligand.clash>
0.0000

> <Gold.PLP.ligand.torsion>
0.8562

> <Gold.PLP.Chemscore.Hbond>
0.7840

> <Gold.PLP.Chemscore.CHOScore>
0.0000

> <Gold.PLP.Chemscore.Metal>
0.0000

> <Gold.Chemscore.Hbonds>
donor molecule, donor type, donor heavy atom, donor atom, acceptor molecule, acceptor atom, score
      P1  H  7989  7998       L1    10  0.77

> <Gold.PLP.Chemscore.Internal.Correction>
0.0295

> <Gold.Rescore>
     Score         DG    S(hbond)    S(metal)    S(lipo)     H(rot)  DE(clash)    DE(int)     intcor
     15.91     -17.96       0.72        0.00     118.22       1.46       0.06       1.99       ----

> <Gold.Chemscore.Fitness>
15.9052

> <Gold.Chemscore.DG>
-17.9617

> <Gold.Chemscore.ZeroCoef>
-5.4800

> <Gold.Chemscore.Hbond>
0.7187

> <Gold.Chemscore.Metal>
0.0000

> <Gold.Chemscore.Lipo>
118.2152

> <Gold.Chemscore.Internal_Hbond>
0.0000

> <Gold.Chemscore.DEClash>
0.0648

> <Gold.Chemscore.DEInternal>
1.9916

> <Gold.Chemscore.Rot>
1.4648

> <Gold.Chemscore.Internal.Correction>
   9.000000E+99

> <Gold.Chemscore.Hbonds>
donor molecule, donor type, donor heavy atom, donor atom, acceptor molecule, acceptor atom, score
      P1  H  7989  7998       L1    10  0.54

> <Gold.Chemscore.Hbond.Weighted>
-2.4005

> <Gold.Chemscore.Metal.Weighted>
-0.0000

> <Gold.Chemscore.Lipo.Weighted>
-13.8312

> <Gold.Chemscore.Internal_Hbond.Weighted>
0.0000

> <Gold.Chemscore.DEClash.Weighted>
0.0648

> <Gold.Chemscore.DEInternal.Weighted>
1.9916

> <Gold.Chemscore.Rot.Weighted>
3.7500

> <Gold.Chemscore.Internal.Correction.Weighted>
   9.000000E+99

> <Gold.Protein.RotatedTorsions>
[ 6907 6896 6895 6894 ] final  -27.20 input  -60.11 | X-H torsion
[ 7974 7965 7964 7962 ] final  -30.28 input  175.53 | X-H torsion
[ 8008 7997 7996 7995 ] final    5.38 input   59.86 | X-H torsion
[ 10167 10162 10161 10158 ] final   35.19 input  -65.29 | X-H torsion
[ 10718 10713 10712 10709 ] final   81.31 input   66.30 | X-H torsion
[ 10763 10752 10751 10750 ] final  -76.17 input  -60.55 | X-H torsion
[ 11005 11000 10999 10996 ] final  -41.74 input  -57.11 | X-H torsion

> <Gold.Protein.ActiveResidues>
 VAL166  LYS551  ARG553  GLY616  TRP617  ASP618  TYR619  PRO620  LYS621  CYS622 
 ASP623  PHE694  ASN695  SER759  ASP760  ASP761  ALA762  ILE779  LEU786  VAL792 
 PHE793  MET794  SER795  GLU796  ALA797  LYS798  CYS799  TRP800  GLU811  SER814 

> <Gold.Protein.RotatedAtoms>
  151.1503  135.0223  159.8664 H   0  0  0  0  0  0  0  0  0  0  0  0  # atno 6907 bound_to 6896
  152.5453  134.1397  159.8484 H   0  0  0  0  0  0  0  0  0  0  0  0  # atno 6908 bound_to 6896
  151.1481  133.4880  159.2628 H   0  0  0  0  0  0  0  0  0  0  0  0  # atno 6909 bound_to 6896
  146.1154  140.5520  142.8759 H   0  0  0  0  0  0  0  0  0  0  0  0  # atno 7974 bound_to 7965
  154.7276  140.2724  155.6485 H   0  0  0  0  0  0  0  0  0  0  0  0  # atno 8008 bound_to 7997
  156.2841  140.2722  156.1891 H   0  0  0  0  0  0  0  0  0  0  0  0  # atno 8009 bound_to 7997
  155.0424  140.0371  157.2504 H   0  0  0  0  0  0  0  0  0  0  0  0  # atno 8010 bound_to 7997
  140.4245  144.1412  150.6151 H   0  0  0  0  0  0  0  0  0  0  0  0  # atno 10167 bound_to 10162
  157.6829  130.9998  150.2207 H   0  0  0  0  0  0  0  0  0  0  0  0  # atno 10718 bound_to 10713
  154.4963  135.5806  153.6497 H   0  0  0  0  0  0  0  0  0  0  0  0  # atno 10763 bound_to 10752
  152.9871  135.6125  154.3060 H   0  0  0  0  0  0  0  0  0  0  0  0  # atno 10764 bound_to 10752
  154.2964  135.2847  155.2611 H   0  0  0  0  0  0  0  0  0  0  0  0  # atno 10765 bound_to 10752
  141.0267  133.6838  156.2499 H   0  0  0  0  0  0  0  0  0  0  0  0  # atno 11005 bound_to 11000
  144.7549  140.5282  143.6776 LP  0  0  0  0  0  0  0  0  0  0  0  0  # atno 17320 bound_to 7965
  145.5576  139.1478  143.3359 LP  0  0  0  0  0  0  0  0  0  0  0  0  # atno 17321 bound_to 7965
  140.4496  143.2492  151.9365 LP  0  0  0  0  0  0  0  0  0  0  0  0  # atno 17342 bound_to 10162
  139.4783  144.5575  151.8291 LP  0  0  0  0  0  0  0  0  0  0  0  0  # atno 17343 bound_to 10162
  156.2859  130.3739  149.7889 LP  0  0  0  0  0  0  0  0  0  0  0  0  # atno 17370 bound_to 10713
  156.5563  130.8364  151.3315 LP  0  0  0  0  0  0  0  0  0  0  0  0  # atno 17371 bound_to 10713
  140.6478  134.5098  157.5575 LP  0  0  0  0  0  0  0  0  0  0  0  0  # atno 17394 bound_to 11000
  139.9181  134.8205  156.1300 LP  0  0  0  0  0  0  0  0  0  0  0  0  # atno 17395 bound_to 11000

$$$$
