AV-unprocessed.smi:1554|AV-procd|sdf|6252|dock8
  -GOLD-   22720 6433D 1   1.00000     0.00000
 Structure written by MMmdl.
 48 50  0  0  0  0  0  0  0  0  2 V2000
  153.3074  142.5705  161.0250 C   0  0  0  0  0  0  0  0  0  0  0  0
  152.4825  142.3248  159.7729 C   0  0  0  0  0  0  0  0  0  0  0  0
  152.5296  141.0456  159.1743 C   0  0  0  0  0  0  0  0  0  0  0  0
  151.7667  140.8530  158.0286 C   0  0  0  0  0  0  0  0  0  0  0  0
  151.6059  139.7286  157.2163 N   0  3  0  0  0  0  0  0  0  0  0  0
  150.7505  140.0220  156.1984 C   0  0  0  0  0  0  0  0  0  0  0  0
  150.3604  141.3167  156.3496 N   0  0  0  0  0  0  0  0  0  0  0  0
  149.4445  142.1209  155.5277 C   0  0  0  0  0  0  0  0  0  0  0  0
  148.7094  141.2897  154.4581 C   0  0  2  0  0  0  0  0  0  0  0  0
  149.6410  140.8107  153.5087 O   0  0  0  0  0  0  0  0  0  0  0  0
  147.6517  142.1332  153.7187 C   0  0  0  0  0  0  0  0  0  0  0  0
  146.5772  142.6749  154.5531 N   0  0  0  0  0  0  0  0  0  0  0  0
  145.6116  143.4664  153.7921 C   0  0  0  0  0  0  0  0  0  0  0  0
  144.4737  143.9946  154.6825 C   0  0  0  0  0  0  0  0  0  0  0  0
  143.8359  142.9061  155.3418 O   0  0  0  0  0  0  0  0  0  0  0  0
  144.7324  142.1362  156.1379 C   0  0  1  0  0  0  0  0  0  0  0  0
  143.9378  141.0064  156.8015 C   0  0  0  0  0  0  0  0  0  0  0  0
  145.8670  141.6021  155.2421 C   0  0  0  0  0  0  0  0  0  0  0  0
  150.9719  141.8772  157.4777 C   0  0  0  0  0  0  0  0  0  0  0  0
  150.9151  143.1436  158.0553 C   0  0  0  0  0  0  0  0  0  0  0  0
  151.6868  143.3610  159.2191 C   0  0  0  0  0  0  0  0  0  0  0  0
  151.6490  144.7348  159.8668 C   0  0  0  0  0  0  0  0  0  0  0  0
  153.8407  141.6712  161.3345 H   0  0  0  0  0  0  0  0  0  0  0  0
  152.6669  142.8777  161.8521 H   0  0  0  0  0  0  0  0  0  0  0  0
  154.0461  143.3526  160.8488 H   0  0  0  0  0  0  0  0  0  0  0  0
  153.1349  140.2525  159.5886 H   0  0  0  0  0  0  0  0  0  0  0  0
  150.4367  139.3486  155.4138 H   0  0  0  0  0  0  0  0  0  0  0  0
  148.7192  142.5686  156.2082 H   0  0  0  0  0  0  0  0  0  0  0  0
  149.9931  142.9504  155.0808 H   0  0  0  0  0  0  0  0  0  0  0  0
  148.2481  140.4344  154.9498 H   0  0  0  0  0  0  0  0  0  0  0  0
  149.1865  140.2345  152.9125 H   0  0  0  0  0  0  0  0  0  0  0  0
  148.1478  142.9565  153.2023 H   0  0  0  0  0  0  0  0  0  0  0  0
  147.2182  141.5128  152.9325 H   0  0  0  0  0  0  0  0  0  0  0  0
  146.1005  144.3176  153.3208 H   0  0  0  0  0  0  0  0  0  0  0  0
  145.1884  142.8622  152.9880 H   0  0  0  0  0  0  0  0  0  0  0  0
  144.8568  144.7017  155.4197 H   0  0  0  0  0  0  0  0  0  0  0  0
  143.7374  144.5269  154.0801 H   0  0  0  0  0  0  0  0  0  0  0  0
  145.1521  142.7751  156.9171 H   0  0  0  0  0  0  0  0  0  0  0  0
  144.5816  140.3893  157.4287 H   0  0  0  0  0  0  0  0  0  0  0  0
  143.4764  140.3585  156.0555 H   0  0  0  0  0  0  0  0  0  0  0  0
  143.1437  141.4065  157.4323 H   0  0  0  0  0  0  0  0  0  0  0  0
  145.4538  140.9054  154.5107 H   0  0  0  0  0  0  0  0  0  0  0  0
  146.5672  141.0313  155.8533 H   0  0  0  0  0  0  0  0  0  0  0  0
  150.3148  143.9347  157.6308 H   0  0  0  0  0  0  0  0  0  0  0  0
  150.9984  145.4168  159.3182 H   0  0  0  0  0  0  0  0  0  0  0  0
  152.6467  145.1739  159.8911 H   0  0  0  0  0  0  0  0  0  0  0  0
  151.2745  144.6669  160.8886 H   0  0  0  0  0  0  0  0  0  0  0  0
  152.0468  138.8267  157.3445 H   0  0  0  0  0  0  0  0  0  0  0  0
  1  2  1  0  0  0  0
  1 23  1  0  0  0  0
  1 24  1  0  0  0  0
  1 25  1  0  0  0  0
  2 21  1  0  0  0  0
  2  3  2  0  0  0  0
  3  4  1  0  0  0  0
  3 26  1  0  0  0  0
  4 19  2  0  0  0  0
  4  5  1  0  0  0  0
  5  6  2  0  0  0  0
  5 48  1  0  0  0  0
  6  7  1  0  0  0  0
  6 27  1  0  0  0  0
  7  8  1  0  0  0  0
  7 19  1  0  0  0  0
  8  9  1  0  0  0  0
  8 28  1  0  0  0  0
  8 29  1  0  0  0  0
  9 10  1  0  0  0  0
  9 11  1  0  0  0  0
  9 30  1  0  0  0  0
 10 31  1  0  0  0  0
 11 12  1  0  0  0  0
 11 32  1  0  0  0  0
 11 33  1  0  0  0  0
 12 18  1  0  0  0  0
 12 13  1  0  0  0  0
 13 14  1  0  0  0  0
 13 34  1  0  0  0  0
 13 35  1  0  0  0  0
 14 15  1  0  0  0  0
 14 36  1  0  0  0  0
 14 37  1  0  0  0  0
 15 16  1  0  0  0  0
 16 17  1  0  0  0  0
 16 18  1  0  0  0  0
 16 38  1  0  0  0  0
 17 39  1  0  0  0  0
 17 40  1  0  0  0  0
 17 41  1  0  0  0  0
 18 42  1  0  0  0  0
 18 43  1  0  0  0  0
 19 20  1  0  0  0  0
 20 21  2  0  0  0  0
 20 44  1  0  0  0  0
 21 22  1  0  0  0  0
 22 45  1  0  0  0  0
 22 46  1  0  0  0  0
 22 47  1  0  0  0  0
M  CHG  1   5   1
M  END
> <s_m_source_file>
AV-unprocessed.smi

> <i_m_source_file_index>
1554

> <i_lp_mmshare_version>
43012

> <i_f3d_flags>
0

> <s_epik_input>
W0NIM11jKFtjSF0xKWMoW0NIM10pW2NIXWMoYzEyKW4oW2NIXW4yKVtDSDJdW0NASF0oW09IXSlbQ0gyXU4zW0NIMl1bQ0gyXU9bQ0BASF0oW0NIM10pW0NIMl0z

> <s_epik_cmdline>
J2VwaWtfcHl0aG9uJywgJy1waCcsICc3LjAnLCAnLXRuJywgJzgnLCAnLW1hJywgJzIwMCcsICctbWV0YWxfYmluZGluZycsICctaW1hZScsICc8aW5maWxlLm1hZT4nLCAnLW9tYWUnLCAnPG91dGZpbGUubWFlPic=

> <r_epik_Ionization_Penalty>
1.42504

> <r_epik_Ionization_Penalty_Charging>
1.21068

> <r_epik_Ionization_Penalty_Neutral>
0.214359

> <r_epik_State_Penalty>
1.46962

> <r_epik_Charging_Adjusted_Penalty>
2.6803

> <i_epik_Tot_Q>
1

> <i_epik_Tot_abs_Q>
1

> <r_epik_Metal_State_Penalty>
5.48754

> <b_epik_Metal_Only>
0

> <s_lp_Force_Field>
OPLS_2005

> <r_lp_Energy>
34.8696

> <b_lp_Chiralities_Consistent>
1

> <s_lp_Variant>
AV-unprocessed.smi:1554-13

> <Gold.Version>
5.8.1

> <Gold.Id.Protein>
6NUR|6NUR_protein|mol2

> <Gold.PLP.Fitness>
49.5204

> <Gold.PLP.PLP>
-44.2724

> <Gold.PLP.part.hbond>
-2.7663

> <Gold.PLP.part.metal>
0.0000

> <Gold.PLP.part.buried>
-3.4573

> <Gold.PLP.part.nonpolar>
-38.5025

> <Gold.PLP.part.repulsive>
0.4058

> <Gold.PLP.ligand.clash>
0.0000

> <Gold.PLP.ligand.torsion>
0.0901

> <Gold.PLP.Chemscore.Hbond>
1.8000

> <Gold.PLP.Chemscore.CHOScore>
0.0000

> <Gold.PLP.Chemscore.Metal>
0.0000

> <Gold.Chemscore.Hbonds>
donor molecule, donor type, donor heavy atom, donor atom, acceptor molecule, acceptor atom, score
      L1  H    10    31       P1  7957  0.48
      P1  H  7989  7998       L1    10  0.34
      P1  H  8011  8017       L1    10  0.95

> <Gold.PLP.Chemscore.Internal.Correction>
0.0283

> <Gold.Rescore>
     Score         DG    S(hbond)    S(metal)    S(lipo)     H(rot)  DE(clash)    DE(int)     intcor
     15.36     -17.41       0.97        0.00     119.04       2.04       1.97       0.08       ----

> <Gold.Chemscore.Fitness>
15.3635

> <Gold.Chemscore.DG>
-17.4072

> <Gold.Chemscore.ZeroCoef>
-5.4800

> <Gold.Chemscore.Hbond>
0.9667

> <Gold.Chemscore.Metal>
0.0000

> <Gold.Chemscore.Lipo>
119.0423

> <Gold.Chemscore.Internal_Hbond>
0.0000

> <Gold.Chemscore.DEClash>
1.9685

> <Gold.Chemscore.DEInternal>
0.0752

> <Gold.Chemscore.Rot>
2.0427

> <Gold.Chemscore.Internal.Correction>
   9.000000E+99

> <Gold.Chemscore.Hbonds>
donor molecule, donor type, donor heavy atom, donor atom, acceptor molecule, acceptor atom, score
      L1  H    10    31       P1  7957  0.48
      P1  H  7989  7998       L1    10  0.32
      P1  H  8011  8017       L1    10  0.06

> <Gold.Chemscore.Hbond.Weighted>
-3.2287

> <Gold.Chemscore.Metal.Weighted>
-0.0000

> <Gold.Chemscore.Lipo.Weighted>
-13.9279

> <Gold.Chemscore.Internal_Hbond.Weighted>
0.0000

> <Gold.Chemscore.DEClash.Weighted>
1.9685

> <Gold.Chemscore.DEInternal.Weighted>
0.0752

> <Gold.Chemscore.Rot.Weighted>
5.2294

> <Gold.Chemscore.Internal.Correction.Weighted>
   9.000000E+99

> <Gold.Protein.RotatedTorsions>
[ 6907 6896 6895 6894 ] final   32.26 input  -60.11 | X-H torsion
[ 7974 7965 7964 7962 ] final -175.50 input  175.53 | X-H torsion
[ 8008 7997 7996 7995 ] final  158.55 input   59.86 | X-H torsion
[ 10167 10162 10161 10158 ] final  -60.25 input  -65.29 | X-H torsion
[ 10718 10713 10712 10709 ] final   74.19 input   66.30 | X-H torsion
[ 10763 10752 10751 10750 ] final  102.88 input  -60.55 | X-H torsion
[ 11005 11000 10999 10996 ] final  -32.28 input  -57.11 | X-H torsion

> <Gold.Protein.ActiveResidues>
 VAL166  LYS551  ARG553  GLY616  TRP617  ASP618  TYR619  PRO620  LYS621  CYS622 
 ASP623  PHE694  ASN695  SER759  ASP760  ASP761  ALA762  ILE779  LEU786  VAL792 
 PHE793  MET794  SER795  GLU796  ALA797  LYS798  CYS799  TRP800  GLU811  SER814 

> <Gold.Protein.RotatedAtoms>
  152.0719  134.9528  160.0574 H   0  0  0  0  0  0  0  0  0  0  0  0  # atno 6907 bound_to 6896
  152.0850  133.4167  159.4526 H   0  0  0  0  0  0  0  0  0  0  0  0  # atno 6908 bound_to 6896
  150.6836  134.2857  159.4689 H   0  0  0  0  0  0  0  0  0  0  0  0  # atno 6909 bound_to 6896
  144.7128  140.1311  143.6398 H   0  0  0  0  0  0  0  0  0  0  0  0  # atno 7974 bound_to 7965
  156.2295  140.1855  156.7278 H   0  0  0  0  0  0  0  0  0  0  0  0  # atno 8008 bound_to 7997
  154.5998  140.0637  156.9381 H   0  0  0  0  0  0  0  0  0  0  0  0  # atno 8009 bound_to 7997
  155.2193  140.3306  155.4320 H   0  0  0  0  0  0  0  0  0  0  0  0  # atno 8010 bound_to 7997
  140.6083  143.2380  151.5769 H   0  0  0  0  0  0  0  0  0  0  0  0  # atno 10167 bound_to 10162
  157.6581  130.9666  150.1176 H   0  0  0  0  0  0  0  0  0  0  0  0  # atno 10718 bound_to 10713
  153.3454  135.3995  155.1604 H   0  0  0  0  0  0  0  0  0  0  0  0  # atno 10763 bound_to 10752
  154.8652  135.3643  154.5291 H   0  0  0  0  0  0  0  0  0  0  0  0  # atno 10764 bound_to 10752
  153.5739  135.7078  153.5552 H   0  0  0  0  0  0  0  0  0  0  0  0  # atno 10765 bound_to 10752
  140.9539  133.7204  156.1263 H   0  0  0  0  0  0  0  0  0  0  0  0  # atno 11005 bound_to 11000
  145.9286  139.2591  143.1339 LP  0  0  0  0  0  0  0  0  0  0  0  0  # atno 17320 bound_to 7965
  145.9547  140.8882  143.0241 LP  0  0  0  0  0  0  0  0  0  0  0  0  # atno 17321 bound_to 7965
  139.5341  144.2830  152.1214 LP  0  0  0  0  0  0  0  0  0  0  0  0  # atno 17342 bound_to 10162
  140.2024  144.4645  150.6425 LP  0  0  0  0  0  0  0  0  0  0  0  0  # atno 17343 bound_to 10162
  156.2056  130.3663  149.8734 LP  0  0  0  0  0  0  0  0  0  0  0  0  # atno 17370 bound_to 10713
  156.6626  130.8788  151.3550 LP  0  0  0  0  0  0  0  0  0  0  0  0  # atno 17371 bound_to 10713
  140.7563  134.3989  157.5533 LP  0  0  0  0  0  0  0  0  0  0  0  0  # atno 17394 bound_to 11000
  139.8856  134.8932  156.2633 LP  0  0  0  0  0  0  0  0  0  0  0  0  # atno 17395 bound_to 11000

$$$$
