AV-unprocessed.smi:438|AV-procd|sdf|2568|dock10
  -GOLD-   2262022543D 1   1.00000     0.00000
 Structure written by MMmdl.
 48 49  0  0  0  0  0  0  0  0  1 V2000
  146.0514  130.5843  151.9629 C   0  0  0  0  0  0  0  0  0  0  0  0
  146.1883  131.9970  152.5019 C   0  0  0  0  0  0  0  0  0  0  0  0
  146.9481  132.1006  153.6529 N   0  0  0  0  0  0  0  0  0  0  0  0
  147.1854  133.3560  154.1903 C   0  0  0  0  0  0  0  0  0  0  0  0
  148.2862  133.2133  155.6325 S   0  0  0  0  0  0  0  0  0  0  0  0
  147.2269  133.7701  157.0024 C   0  0  0  0  0  0  0  0  0  0  0  0
  148.0012  133.8982  158.3137 C   0  0  0  0  0  0  0  0  0  0  0  0
  149.2183  133.7176  158.3293 O   0  0  0  0  0  0  0  0  0  0  0  0
  147.2889  134.2369  159.3990 N   0  0  0  0  0  0  0  0  0  0  0  0
  147.8354  134.5218  160.7251 C   0  0  1  0  0  0  0  0  0  0  0  0
  147.3598  135.9044  161.2243 C   0  0  0  0  0  0  0  0  0  0  0  0
  145.8573  135.9175  161.5550 C   0  0  0  0  0  0  0  0  0  0  0  0
  145.5067  134.8198  162.5695 C   0  0  0  0  0  0  0  0  0  0  0  0
  145.9578  133.4360  162.0761 C   0  0  0  0  0  0  0  0  0  0  0  0
  147.4626  133.4092  161.7367 C   0  0  1  0  0  0  0  0  0  0  0  0
  147.9099  132.0110  161.2767 C   0  0  0  0  0  0  0  0  0  0  0  0
  146.6855  134.4526  153.7015 N   0  0  0  0  0  0  0  0  0  0  0  0
  145.8651  134.4066  152.5649 C   0  0  0  0  0  0  0  0  0  0  0  0
  145.3600  135.4354  152.1179 O   0  0  0  0  0  0  0  0  0  0  0  0
  145.6430  133.0941  151.9235 C   0  0  0  0  0  0  0  0  0  0  0  0
  144.8033  133.0405  150.6506 C   0  0  0  0  0  0  0  0  0  0  0  0
  143.5713  132.1376  150.8104 C   0  0  0  0  0  0  0  0  0  0  0  0
  142.8473  132.0970  149.6004 O   0  0  0  0  0  0  0  0  0  0  0  0
  146.4041  130.5356  150.9323 H   0  0  0  0  0  0  0  0  0  0  0  0
  145.0084  130.2675  151.9874 H   0  0  0  0  0  0  0  0  0  0  0  0
  146.6314  129.8711  152.5501 H   0  0  0  0  0  0  0  0  0  0  0  0
  146.4374  133.0305  157.1393 H   0  0  0  0  0  0  0  0  0  0  0  0
  146.7295  134.7074  156.7506 H   0  0  0  0  0  0  0  0  0  0  0  0
  146.2933  134.3632  159.2852 H   0  0  0  0  0  0  0  0  0  0  0  0
  148.9236  134.5447  160.6443 H   0  0  0  0  0  0  0  0  0  0  0  0
  147.9224  136.1722  162.1195 H   0  0  0  0  0  0  0  0  0  0  0  0
  147.5850  136.6762  160.4874 H   0  0  0  0  0  0  0  0  0  0  0  0
  145.5730  136.8924  161.9513 H   0  0  0  0  0  0  0  0  0  0  0  0
  145.2746  135.7765  160.6445 H   0  0  0  0  0  0  0  0  0  0  0  0
  145.9854  135.0399  163.5244 H   0  0  0  0  0  0  0  0  0  0  0  0
  144.4330  134.8166  162.7562 H   0  0  0  0  0  0  0  0  0  0  0  0
  145.7347  132.6890  162.8385 H   0  0  0  0  0  0  0  0  0  0  0  0
  145.3784  133.1560  161.1974 H   0  0  0  0  0  0  0  0  0  0  0  0
  148.0037  133.6237  162.6596 H   0  0  0  0  0  0  0  0  0  0  0  0
  147.3724  131.6874  160.3849 H   0  0  0  0  0  0  0  0  0  0  0  0
  147.7295  131.2688  162.0546 H   0  0  0  0  0  0  0  0  0  0  0  0
  148.9756  131.9949  161.0481 H   0  0  0  0  0  0  0  0  0  0  0  0
  147.3420  131.2552  154.0405 H   0  0  0  0  0  0  0  0  0  0  0  0
  145.4217  132.6913  149.8222 H   0  0  0  0  0  0  0  0  0  0  0  0
  144.4835  134.0430  150.3672 H   0  0  0  0  0  0  0  0  0  0  0  0
  143.8660  131.1224  151.0769 H   0  0  0  0  0  0  0  0  0  0  0  0
  142.9209  132.5083  151.6034 H   0  0  0  0  0  0  0  0  0  0  0  0
  142.2444  132.8247  149.5855 H   0  0  0  0  0  0  0  0  0  0  0  0
  1 24  1  0  0  0  0
  1 25  1  0  0  0  0
  1 26  1  0  0  0  0
  1  2  1  0  0  0  0
  2 20  2  0  0  0  0
  2  3  1  0  0  0  0
  3  4  1  0  0  0  0
  3 43  1  0  0  0  0
  4  5  1  0  0  0  0
  4 17  2  0  0  0  0
  5  6  1  0  0  0  0
  6  7  1  0  0  0  0
  6 27  1  0  0  0  0
  6 28  1  0  0  0  0
  7  8  2  0  0  0  0
  7  9  1  0  0  0  0
  9 10  1  0  0  0  0
  9 29  1  0  0  0  0
 10 15  1  0  0  0  0
 10 11  1  0  0  0  0
 10 30  1  0  0  0  0
 11 12  1  0  0  0  0
 11 31  1  0  0  0  0
 11 32  1  0  0  0  0
 12 13  1  0  0  0  0
 12 33  1  0  0  0  0
 12 34  1  0  0  0  0
 13 14  1  0  0  0  0
 13 35  1  0  0  0  0
 13 36  1  0  0  0  0
 14 15  1  0  0  0  0
 14 37  1  0  0  0  0
 14 38  1  0  0  0  0
 15 16  1  0  0  0  0
 15 39  1  0  0  0  0
 16 40  1  0  0  0  0
 16 41  1  0  0  0  0
 16 42  1  0  0  0  0
 17 18  1  0  0  0  0
 18 19  2  0  0  0  0
 18 20  1  0  0  0  0
 20 21  1  0  0  0  0
 21 22  1  0  0  0  0
 21 44  1  0  0  0  0
 21 45  1  0  0  0  0
 22 23  1  0  0  0  0
 22 46  1  0  0  0  0
 22 47  1  0  0  0  0
 23 48  1  0  0  0  0
M  END
> <s_m_source_file>
AV-unprocessed.smi

> <i_m_source_file_index>
438

> <i_lp_mmshare_version>
43012

> <i_f3d_flags>
0

> <s_epik_input>
W09IXVtDSDJdW0NIMl1jMWMoW09IXSluYyhuYzFbQ0gzXSlTW0NIMl1DKD1PKVtOSF1bQ0BASF0yW0NIMl1bQ0gyXVtDSDJdW0NIMl1bQ0BIXTJbQ0gzXQ==

> <s_epik_cmdline>
J2VwaWtfcHl0aG9uJywgJy1waCcsICc3LjAnLCAnLXRuJywgJzgnLCAnLW1hJywgJzIwMCcsICctbWV0YWxfYmluZGluZycsICctaW1hZScsICc8aW5maWxlLm1hZT4nLCAnLW9tYWUnLCAnPG91dGZpbGUubWFlPic=

> <r_lp_tautomer_probability>
0.273662

> <r_epik_Ionization_Penalty>
0.0875285

> <r_epik_Ionization_Penalty_Charging>
0.0875254

> <r_epik_Ionization_Penalty_Neutral>
3.01536e-06

> <r_epik_State_Penalty>
0.985796

> <r_epik_Charging_Adjusted_Penalty>
1.07332

> <i_epik_Tot_Q>
0

> <i_epik_Tot_abs_Q>
0

> <r_epik_Metal_State_Penalty>
1.58101

> <b_epik_Metal_Only>
0

> <s_lp_Force_Field>
OPLS_2005

> <r_lp_Energy>
13.0189

> <b_lp_Chiralities_Consistent>
1

> <s_lp_Variant>
AV-unprocessed.smi:438-6

> <Gold.Version>
5.8.1

> <Gold.Id.Protein>
6NUR|6NUR_protein|mol2

> <Gold.PLP.Fitness>
42.7635

> <Gold.PLP.PLP>
-34.8420

> <Gold.PLP.part.hbond>
-3.6716

> <Gold.PLP.part.metal>
0.0000

> <Gold.PLP.part.buried>
-6.8275

> <Gold.PLP.part.nonpolar>
-25.1179

> <Gold.PLP.part.repulsive>
0.2702

> <Gold.PLP.ligand.clash>
0.0000

> <Gold.PLP.ligand.torsion>
0.1147

> <Gold.PLP.Chemscore.Hbond>
2.7063

> <Gold.PLP.Chemscore.CHOScore>
0.0000

> <Gold.PLP.Chemscore.Metal>
0.0000

> <Gold.Chemscore.Hbonds>
donor molecule, donor type, donor heavy atom, donor atom, acceptor molecule, acceptor atom, score
      L1  H    23    48       P1 10186  1.00
      P1  H  6896  6909       L1     8  1.00
      P1  H 10785 10796       L1    23  0.67

> <Gold.PLP.Chemscore.Internal.Correction>
0.0320

> <Gold.Rescore>
     Score         DG    S(hbond)    S(metal)    S(lipo)     H(rot)  DE(clash)    DE(int)     intcor
     16.53     -16.65       2.53        0.00      85.95       2.86       0.00       0.12       ----

> <Gold.Chemscore.Fitness>
16.5250

> <Gold.Chemscore.DG>
-16.6455

> <Gold.Chemscore.ZeroCoef>
-5.4800

> <Gold.Chemscore.Hbond>
2.5278

> <Gold.Chemscore.Metal>
0.0000

> <Gold.Chemscore.Lipo>
85.9462

> <Gold.Chemscore.Internal_Hbond>
0.0000

> <Gold.Chemscore.DEClash>
0.0000

> <Gold.Chemscore.DEInternal>
0.1204

> <Gold.Chemscore.Rot>
2.8645

> <Gold.Chemscore.Internal.Correction>
   9.000000E+99

> <Gold.Chemscore.Hbonds>
donor molecule, donor type, donor heavy atom, donor atom, acceptor molecule, acceptor atom, score
      L1  H    23    48       P1 10186  0.95
      P1  H  6896  6909       L1     8  1.00
      P1  H 10785 10796       L1    23  0.40

> <Gold.Chemscore.Hbond.Weighted>
-8.4429

> <Gold.Chemscore.Metal.Weighted>
-0.0000

> <Gold.Chemscore.Lipo.Weighted>
-10.0557

> <Gold.Chemscore.Internal_Hbond.Weighted>
0.0000

> <Gold.Chemscore.DEClash.Weighted>
0.0000

> <Gold.Chemscore.DEInternal.Weighted>
0.1204

> <Gold.Chemscore.Rot.Weighted>
7.3331

> <Gold.Chemscore.Internal.Correction.Weighted>
   9.000000E+99

> <Gold.Protein.RotatedTorsions>
[ 6907 6896 6895 6894 ] final   22.87 input  -60.11 | X-H torsion
[ 7974 7965 7964 7962 ] final -168.30 input  175.53 | X-H torsion
[ 8008 7997 7996 7995 ] final  -48.80 input   59.86 | X-H torsion
[ 10167 10162 10161 10158 ] final  -77.09 input  -65.29 | X-H torsion
[ 10718 10713 10712 10709 ] final -146.66 input   66.30 | X-H torsion
[ 10763 10752 10751 10750 ] final  159.53 input  -60.55 | X-H torsion
[ 11005 11000 10999 10996 ] final -102.69 input  -57.11 | X-H torsion

> <Gold.Protein.ActiveResidues>
 VAL166  LYS551  ARG553  GLY616  TRP617  ASP618  TYR619  PRO620  LYS621  CYS622 
 ASP623  PHE694  ASN695  SER759  ASP760  ASP761  ALA762  ILE779  LEU786  VAL792 
 PHE793  MET794  SER795  GLU796  ALA797  LYS798  CYS799  TRP800  GLU811  SER814 

> <Gold.Protein.RotatedAtoms>
  151.9337  135.0245  160.0530 H   0  0  0  0  0  0  0  0  0  0  0  0  # atno 6907 bound_to 6896
  152.2097  133.4897  159.5111 H   0  0  0  0  0  0  0  0  0  0  0  0  # atno 6908 bound_to 6896
  150.6973  134.1400  159.4144 H   0  0  0  0  0  0  0  0  0  0  0  0  # atno 6909 bound_to 6896
  144.7206  140.2391  143.6294 H   0  0  0  0  0  0  0  0  0  0  0  0  # atno 7974 bound_to 7965
  154.4034  140.1312  156.4398 H   0  0  0  0  0  0  0  0  0  0  0  0  # atno 8008 bound_to 7997
  155.7470  140.3489  155.5112 H   0  0  0  0  0  0  0  0  0  0  0  0  # atno 8009 bound_to 7997
  155.8985  140.1015  157.1357 H   0  0  0  0  0  0  0  0  0  0  0  0  # atno 8010 bound_to 7997
  140.4801  143.2404  151.8072 H   0  0  0  0  0  0  0  0  0  0  0  0  # atno 10167 bound_to 10162
  156.3977  130.7918  151.2125 H   0  0  0  0  0  0  0  0  0  0  0  0  # atno 10718 bound_to 10713
  154.2333  135.2777  155.2882 H   0  0  0  0  0  0  0  0  0  0  0  0  # atno 10763 bound_to 10752
  154.5606  135.5648  153.7007 H   0  0  0  0  0  0  0  0  0  0  0  0  # atno 10764 bound_to 10752
  153.0015  135.6297  154.2475 H   0  0  0  0  0  0  0  0  0  0  0  0  # atno 10765 bound_to 10752
  141.1178  133.8579  157.1392 H   0  0  0  0  0  0  0  0  0  0  0  0  # atno 11005 bound_to 11000
  145.8337  139.2097  143.1868 LP  0  0  0  0  0  0  0  0  0  0  0  0  # atno 17320 bound_to 7965
  146.0408  140.8167  142.9829 LP  0  0  0  0  0  0  0  0  0  0  0  0  # atno 17321 bound_to 7965
  139.4832  144.4784  151.9338 LP  0  0  0  0  0  0  0  0  0  0  0  0  # atno 17342 bound_to 10162
  140.3869  144.2665  150.5903 LP  0  0  0  0  0  0  0  0  0  0  0  0  # atno 17343 bound_to 10162
  157.7502  131.0296  150.4102 LP  0  0  0  0  0  0  0  0  0  0  0  0  # atno 17370 bound_to 10713
  156.4375  130.3984  149.6719 LP  0  0  0  0  0  0  0  0  0  0  0  0  # atno 17371 bound_to 10713
  140.0113  134.9987  157.0400 LP  0  0  0  0  0  0  0  0  0  0  0  0  # atno 17394 bound_to 11000
  140.4595  134.1499  155.7190 LP  0  0  0  0  0  0  0  0  0  0  0  0  # atno 17395 bound_to 11000

$$$$
