AV-unprocessed.smi:37|AV-procd|sdf|324|dock1
  -GOLD-   2262016143D 1   1.00000     0.00000
 Structure written by MMmdl.
 43 44  0  0  0  0  0  0  0  0  2 V2000
  144.5274  133.9078  150.5514 C   0  0  0  0  0  0  0  0  0  0  0  0
  145.2820  134.2174  151.8529 C   0  0  0  0  0  0  0  0  0  0  0  0
  145.3179  135.7070  152.2021 C   0  0  0  0  0  0  0  0  0  0  0  0
  144.9366  136.5793  151.4192 O   0  0  0  0  0  0  0  0  0  0  0  0
  145.8057  135.9206  153.4329 O   0  0  0  0  0  0  0  0  0  0  0  0
  145.8781  137.2428  153.9391 C   0  0  0  0  0  0  0  0  0  0  0  0
  146.2294  137.1977  155.4332 C   0  0  1  0  0  0  0  0  0  0  0  0
  147.4960  136.5784  155.6588 O   0  0  0  0  0  0  0  0  0  0  0  0
  148.1764  137.2052  156.7097 C   0  0  1  0  0  0  0  0  0  0  0  0
  149.4324  137.8674  156.1734 N   0  0  0  0  0  0  0  0  0  0  0  0
  149.6436  139.2320  156.2966 C   0  0  0  0  0  0  0  0  0  0  0  0
  150.7721  139.8106  155.8390 C   0  0  0  0  0  0  0  0  0  0  0  0
  150.9514  141.1349  155.9844 F   0  0  0  0  0  0  0  0  0  0  0  0
  151.7939  138.9908  155.1917 C   0  0  0  0  0  0  0  0  0  0  0  0
  152.8233  139.5234  154.7799 O   0  0  0  0  0  0  0  0  0  0  0  0
  151.5558  137.6528  155.0719 N   0  5  0  0  0  0  0  0  0  0  0  0
  150.4160  137.0621  155.5363 C   0  0  0  0  0  0  0  0  0  0  0  0
  150.1949  135.8551  155.4360 O   0  0  0  0  0  0  0  0  0  0  0  0
  147.2249  138.2593  157.2964 C   0  0  2  0  0  0  0  0  0  0  0  0
  146.1558  137.4436  158.7664 Br  0  0  0  0  0  0  0  0  0  0  0  0
  146.3146  138.5653  156.1195 C   0  0  1  0  0  0  0  0  0  0  0  0
  146.9290  139.5126  155.2523 O   0  0  0  0  0  0  0  0  0  0  0  0
  147.1213  140.7838  155.6410 C   0  0  0  0  0  0  0  0  0  0  0  0
  147.0405  141.2067  156.7941 O   0  0  0  0  0  0  0  0  0  0  0  0
  147.5061  141.6995  154.4803 C   0  0  0  0  0  0  0  0  0  0  0  0
  146.5435  142.8843  154.3174 C   0  0  0  0  0  0  0  0  0  0  0  0
  144.5369  132.8367  150.3492 H   0  0  0  0  0  0  0  0  0  0  0  0
  144.9836  134.4084  149.6966 H   0  0  0  0  0  0  0  0  0  0  0  0
  143.4850  134.2227  150.6115 H   0  0  0  0  0  0  0  0  0  0  0  0
  144.8210  133.6787  152.6811 H   0  0  0  0  0  0  0  0  0  0  0  0
  146.3082  133.8577  151.7753 H   0  0  0  0  0  0  0  0  0  0  0  0
  146.6143  137.8245  153.3835 H   0  0  0  0  0  0  0  0  0  0  0  0
  144.9092  137.7258  153.8050 H   0  0  0  0  0  0  0  0  0  0  0  0
  145.4802  136.6052  155.9601 H   0  0  0  0  0  0  0  0  0  0  0  0
  148.5297  136.4675  157.4320 H   0  0  0  0  0  0  0  0  0  0  0  0
  148.9074  139.8592  156.7745 H   0  0  0  0  0  0  0  0  0  0  0  0
  147.7461  139.1262  157.7036 H   0  0  0  0  0  0  0  0  0  0  0  0
  145.3304  138.9185  156.4312 H   0  0  0  0  0  0  0  0  0  0  0  0
  148.5185  142.0683  154.6468 H   0  0  0  0  0  0  0  0  0  0  0  0
  147.5310  141.1103  153.5629 H   0  0  0  0  0  0  0  0  0  0  0  0
  146.8920  143.5545  153.5318 H   0  0  0  0  0  0  0  0  0  0  0  0
  146.4667  143.4645  155.2375 H   0  0  0  0  0  0  0  0  0  0  0  0
  145.5417  142.5510  154.0425 H   0  0  0  0  0  0  0  0  0  0  0  0
  1  2  1  0  0  0  0
  1 27  1  0  0  0  0
  1 28  1  0  0  0  0
  1 29  1  0  0  0  0
  2  3  1  0  0  0  0
  2 30  1  0  0  0  0
  2 31  1  0  0  0  0
  3  4  2  0  0  0  0
  3  5  1  0  0  0  0
  5  6  1  0  0  0  0
  6  7  1  0  0  0  0
  6 32  1  0  0  0  0
  6 33  1  0  0  0  0
  7 21  1  0  0  0  0
  7  8  1  0  0  0  0
  7 34  1  0  0  0  0
  8  9  1  0  0  0  0
  9 10  1  0  0  0  0
  9 19  1  0  0  0  0
  9 35  1  0  0  0  0
 10 17  1  0  0  0  0
 10 11  1  0  0  0  0
 11 12  2  0  0  0  0
 11 36  1  0  0  0  0
 12 13  1  0  0  0  0
 12 14  1  0  0  0  0
 14 15  2  0  0  0  0
 14 16  1  0  0  0  0
 16 17  1  0  0  0  0
 17 18  2  0  0  0  0
 19 20  1  0  0  0  0
 19 21  1  0  0  0  0
 19 37  1  0  0  0  0
 21 22  1  0  0  0  0
 21 38  1  0  0  0  0
 22 23  1  0  0  0  0
 23 24  2  0  0  0  0
 23 25  1  0  0  0  0
 25 26  1  0  0  0  0
 25 39  1  0  0  0  0
 25 40  1  0  0  0  0
 26 41  1  0  0  0  0
 26 42  1  0  0  0  0
 26 43  1  0  0  0  0
M  CHG  1  16  -1
M  END
> <s_m_source_file>
AV-unprocessed.smi

> <i_m_source_file_index>
37

> <i_lp_mmshare_version>
43012

> <i_f3d_flags>
0

> <s_epik_input>
W0NIM11bQ0gyXUMoPU8pT1tDSDJdW0NAQEhdMU9bQ0BASF0objJbY0hdYyhGKWMoPU8pW25IXWMyPU8pW0NAQEhdKEJyKVtDQEhdMU9DKD1PKVtDSDJdW0NIM10=

> <s_epik_cmdline>
J2VwaWtfcHl0aG9uJywgJy1waCcsICc3LjAnLCAnLXRuJywgJzgnLCAnLW1hJywgJzIwMCcsICctbWV0YWxfYmluZGluZycsICctaW1hZScsICc8aW5maWxlLm1hZT4nLCAnLW9tYWUnLCAnPG91dGZpbGUubWFlPic=

> <r_epik_Ionization_Penalty>
1.08158

> <r_epik_Ionization_Penalty_Charging>
9.05154e-09

> <r_epik_Ionization_Penalty_Neutral>
1.08158

> <r_epik_State_Penalty>
1.13706

> <r_epik_Charging_Adjusted_Penalty>
1.13706

> <i_epik_Tot_Q>
-1

> <i_epik_Tot_abs_Q>
1

> <r_epik_Metal_State_Penalty>
0.00343535

> <b_epik_Metal_Only>
0

> <s_epik_Chemistry_Notes>
This compound has an ester and may undergo hydrolysis at high or low pH. This compound contains an acetal/aminal-like group ( X-CH(R)-Y where X, Y are N, S, or O) that may be acid/base labile, releasing an aldehyde.

> <s_lp_Force_Field>
OPLS_2005

> <r_lp_Energy>
30.833

> <b_lp_Chiralities_Consistent>
1

> <s_lp_Variant>
AV-unprocessed.smi:37-22

> <Gold.Version>
5.8.1

> <Gold.Id.Protein>
6NUR|6NUR_protein|mol2

> <Gold.PLP.Fitness>
35.4930

> <Gold.PLP.PLP>
-26.9618

> <Gold.PLP.part.hbond>
-2.1149

> <Gold.PLP.part.metal>
0.0000

> <Gold.PLP.part.buried>
-7.0760

> <Gold.PLP.part.nonpolar>
-19.8619

> <Gold.PLP.part.repulsive>
0.6676

> <Gold.PLP.ligand.clash>
0.0000

> <Gold.PLP.ligand.torsion>
0.2929

> <Gold.PLP.Chemscore.Hbond>
2.9520

> <Gold.PLP.Chemscore.CHOScore>
0.0000

> <Gold.PLP.Chemscore.Metal>
0.0000

> <Gold.Chemscore.Hbonds>
donor molecule, donor type, donor heavy atom, donor atom, acceptor molecule, acceptor atom, score
      P1  H  7989  7998       L1    15  0.19
      P1  H  7997  8009       L1    15  0.88

> <Gold.PLP.Chemscore.Internal.Correction>
0.2609

> <Gold.Rescore>
     Score         DG    S(hbond)    S(metal)    S(lipo)     H(rot)  DE(clash)    DE(int)     intcor
      4.09      -7.14       1.69        0.00      37.39       3.27       0.04       3.01       ----

> <Gold.Chemscore.Fitness>
4.0949

> <Gold.Chemscore.DG>
-7.1360

> <Gold.Chemscore.ZeroCoef>
-5.4800

> <Gold.Chemscore.Hbond>
1.6901

> <Gold.Chemscore.Metal>
0.0000

> <Gold.Chemscore.Lipo>
37.3868

> <Gold.Chemscore.Internal_Hbond>
0.0000

> <Gold.Chemscore.DEClash>
0.0354

> <Gold.Chemscore.DEInternal>
3.0057

> <Gold.Chemscore.Rot>
3.2669

> <Gold.Chemscore.Internal.Correction>
   9.000000E+99

> <Gold.Chemscore.Hbonds>
donor molecule, donor type, donor heavy atom, donor atom, acceptor molecule, acceptor atom, score
      P1  H  7989  7998       L1    15  0.01
      P1  H  7997  8009       L1    15  0.86

> <Gold.Chemscore.Hbond.Weighted>
-5.6451

> <Gold.Chemscore.Metal.Weighted>
-0.0000

> <Gold.Chemscore.Lipo.Weighted>
-4.3743

> <Gold.Chemscore.Internal_Hbond.Weighted>
0.0000

> <Gold.Chemscore.DEClash.Weighted>
0.0354

> <Gold.Chemscore.DEInternal.Weighted>
3.0057

> <Gold.Chemscore.Rot.Weighted>
8.3634

> <Gold.Chemscore.Internal.Correction.Weighted>
   9.000000E+99

> <Gold.Protein.RotatedTorsions>
[ 6907 6896 6895 6894 ] final  -46.01 input  -60.11 | X-H torsion
[ 7974 7965 7964 7962 ] final -134.80 input  175.53 | X-H torsion
[ 8008 7997 7996 7995 ] final -136.82 input   59.86 | X-H torsion
[ 10167 10162 10161 10158 ] final  -21.07 input  -65.29 | X-H torsion
[ 10718 10713 10712 10709 ] final  169.75 input   66.30 | X-H torsion
[ 10763 10752 10751 10750 ] final -178.93 input  -60.55 | X-H torsion
[ 11005 11000 10999 10996 ] final  177.02 input  -57.11 | X-H torsion

> <Gold.Protein.ActiveResidues>
 VAL166  LYS551  ARG553  GLY616  TRP617  ASP618  TYR619  PRO620  LYS621  CYS622 
 ASP623  PHE694  ASN695  SER759  ASP760  ASP761  ALA762  ILE779  LEU786  VAL792 
 PHE793  MET794  SER795  GLU796  ALA797  LYS798  CYS799  TRP800  GLU811  SER814 

> <Gold.Protein.RotatedAtoms>
  150.9158  134.8575  159.7455 H   0  0  0  0  0  0  0  0  0  0  0  0  # atno 6907 bound_to 6896
  152.4968  134.4291  159.9516 H   0  0  0  0  0  0  0  0  0  0  0  0  # atno 6908 bound_to 6896
  151.4330  133.3625  159.2806 H   0  0  0  0  0  0  0  0  0  0  0  0  # atno 6909 bound_to 6896
  144.9071  140.6847  143.5048 H   0  0  0  0  0  0  0  0  0  0  0  0  # atno 7974 bound_to 7965
  155.4016  140.0506  157.3036 H   0  0  0  0  0  0  0  0  0  0  0  0  # atno 8008 bound_to 7997
  154.4988  140.2149  155.9350 H   0  0  0  0  0  0  0  0  0  0  0  0  # atno 8009 bound_to 7997
  156.1440  140.3149  155.8546 H   0  0  0  0  0  0  0  0  0  0  0  0  # atno 8010 bound_to 7997
  140.7280  143.4662  151.0310 H   0  0  0  0  0  0  0  0  0  0  0  0  # atno 10167 bound_to 10162
  157.0181  131.0224  151.2783 H   0  0  0  0  0  0  0  0  0  0  0  0  # atno 10718 bound_to 10713
  154.5414  135.2806  155.1092 H   0  0  0  0  0  0  0  0  0  0  0  0  # atno 10763 bound_to 10752
  154.2573  135.6328  153.5265 H   0  0  0  0  0  0  0  0  0  0  0  0  # atno 10764 bound_to 10752
  152.9980  135.5597  154.5955 H   0  0  0  0  0  0  0  0  0  0  0  0  # atno 10765 bound_to 10752
  140.3795  134.6959  157.4442 H   0  0  0  0  0  0  0  0  0  0  0  0  # atno 11005 bound_to 11000
  145.3517  139.1704  143.4431 LP  0  0  0  0  0  0  0  0  0  0  0  0  # atno 17320 bound_to 7965
  146.3139  140.3570  142.8661 LP  0  0  0  0  0  0  0  0  0  0  0  0  # atno 17321 bound_to 7965
  139.8351  143.7639  152.3180 LP  0  0  0  0  0  0  0  0  0  0  0  0  # atno 17342 bound_to 10162
  139.7768  144.7458  151.0145 LP  0  0  0  0  0  0  0  0  0  0  0  0  # atno 17343 bound_to 10162
  157.5270  130.8034  149.7873 LP  0  0  0  0  0  0  0  0  0  0  0  0  # atno 17370 bound_to 10713
  156.0112  130.3832  150.2259 LP  0  0  0  0  0  0  0  0  0  0  0  0  # atno 17371 bound_to 10713
  140.0489  134.6158  155.8886 LP  0  0  0  0  0  0  0  0  0  0  0  0  # atno 17394 bound_to 11000
  141.1928  133.6576  156.5519 LP  0  0  0  0  0  0  0  0  0  0  0  0  # atno 17395 bound_to 11000

$$$$
