AV-unprocessed.smi:578|AV-procd|sdf|2986|dock5
  -GOLD-   2262023493D 1   1.00000     0.00000
 Structure written by MMmdl.
 32 33  0  0  0  0  0  0  0  0  2 V2000
  151.5699  144.9645  158.6409 C   0  0  0  0  0  0  0  0  0  0  0  0
  150.7848  143.8720  159.3883 C   0  0  1  0  0  0  0  0  0  0  0  0
  150.6456  142.5599  158.5901 C   0  0  0  0  0  0  0  0  0  0  0  0
  151.9047  141.8272  158.5783 N   0  0  0  0  0  0  0  0  0  0  0  0
  151.8690  140.6836  157.7685 C   0  0  0  0  0  0  0  0  0  0  0  0
  151.5370  140.8111  156.4061 C   0  0  0  0  0  0  0  0  0  0  0  0
  151.5083  139.6501  155.6110 C   0  0  0  0  0  0  0  0  0  0  0  0
  151.7809  138.4181  156.0878 N   0  0  0  0  0  0  0  0  0  0  0  0
  152.0992  138.2845  157.3983 C   0  0  0  0  0  0  0  0  0  0  0  0
  152.3973  136.8992  157.9070 C   0  0  0  0  0  0  0  0  0  0  0  0
  152.5724  135.9768  157.0790 O   0  0  0  0  0  0  0  0  0  0  0  0
  152.4621  136.7076  159.1424 O   0  5  0  0  0  0  0  0  0  0  0  0
  152.1540  139.3956  158.2735 C   0  0  0  0  0  0  0  0  0  0  0  0
  152.4100  141.5752  159.9200 C   0  0  0  0  0  0  0  0  0  0  0  0
  152.5765  142.9052  160.6765 C   0  0  2  0  0  0  0  0  0  0  0  0
  153.0078  142.6872  162.1301 C   0  0  0  0  0  0  0  0  0  0  0  0
  151.3325  143.6071  160.6831 O   0  0  0  0  0  0  0  0  0  0  0  0
  151.0639  145.2364  157.7145 H   0  0  0  0  0  0  0  0  0  0  0  0
  152.5771  144.6434  158.3767 H   0  0  0  0  0  0  0  0  0  0  0  0
  151.6535  145.8669  159.2470 H   0  0  0  0  0  0  0  0  0  0  0  0
  149.7819  144.2649  159.5574 H   0  0  0  0  0  0  0  0  0  0  0  0
  149.8742  141.9384  159.0473 H   0  0  0  0  0  0  0  0  0  0  0  0
  150.3224  142.7683  157.5693 H   0  0  0  0  0  0  0  0  0  0  0  0
  151.3108  141.7761  155.9768 H   0  0  0  0  0  0  0  0  0  0  0  0
  151.2593  139.7129  154.5620 H   0  0  0  0  0  0  0  0  0  0  0  0
  152.4086  139.2645  159.3153 H   0  0  0  0  0  0  0  0  0  0  0  0
  151.7197  140.9247  160.4591 H   0  0  0  0  0  0  0  0  0  0  0  0
  153.3661  141.0534  159.8606 H   0  0  0  0  0  0  0  0  0  0  0  0
  153.3376  143.5122  160.1857 H   0  0  0  0  0  0  0  0  0  0  0  0
  153.9601  142.1584  162.1810 H   0  0  0  0  0  0  0  0  0  0  0  0
  152.2688  142.1013  162.6772 H   0  0  0  0  0  0  0  0  0  0  0  0
  153.1284  143.6393  162.6472 H   0  0  0  0  0  0  0  0  0  0  0  0
  1  2  1  0  0  0  0
  1 18  1  0  0  0  0
  1 19  1  0  0  0  0
  1 20  1  0  0  0  0
  2 17  1  0  0  0  0
  2  3  1  0  0  0  0
  2 21  1  0  0  0  0
  3  4  1  0  0  0  0
  3 22  1  0  0  0  0
  3 23  1  0  0  0  0
  4  5  1  0  0  0  0
  4 14  1  0  0  0  0
  5 13  1  0  0  0  0
  5  6  2  0  0  0  0
  6  7  1  0  0  0  0
  6 24  1  0  0  0  0
  7  8  2  0  0  0  0
  7 25  1  0  0  0  0
  8  9  1  0  0  0  0
  9 10  1  0  0  0  0
  9 13  2  0  0  0  0
 10 11  2  0  0  0  0
 10 12  1  0  0  0  0
 13 26  1  0  0  0  0
 14 15  1  0  0  0  0
 14 27  1  0  0  0  0
 14 28  1  0  0  0  0
 15 16  1  0  0  0  0
 15 17  1  0  0  0  0
 15 29  1  0  0  0  0
 16 30  1  0  0  0  0
 16 31  1  0  0  0  0
 16 32  1  0  0  0  0
M  CHG  1  12  -1
M  END
> <s_m_source_file>
AV-unprocessed.smi

> <i_m_source_file_index>
578

> <i_lp_mmshare_version>
43012

> <i_f3d_flags>
0

> <s_epik_input>
W0NIM11bQ0BASF0xW0NIMl1OKFtDSDJdW0NASF0oTzEpW0NIM10pYzJbY0hdW2NIXW5jKFtjSF0yKUMoPU8pW09IXQ==

> <s_epik_cmdline>
J2VwaWtfcHl0aG9uJywgJy1waCcsICc3LjAnLCAnLXRuJywgJzgnLCAnLW1hJywgJzIwMCcsICctbWV0YWxfYmluZGluZycsICctaW1hZScsICc8aW5maWxlLm1hZT4nLCAnLW9tYWUnLCAnPG91dGZpbGUubWFlPic=

> <r_epik_Ionization_Penalty>
2.00764

> <r_epik_Ionization_Penalty_Charging>
0.000210348

> <r_epik_Ionization_Penalty_Neutral>
2.00743

> <r_epik_State_Penalty>
2.13668

> <r_epik_Charging_Adjusted_Penalty>
2.13689

> <i_epik_Tot_Q>
-1

> <i_epik_Tot_abs_Q>
1

> <r_epik_Metal_State_Penalty>
0.0208571

> <b_epik_Metal_Only>
0

> <s_lp_Force_Field>
OPLS_2005

> <r_lp_Energy>
23.987

> <b_lp_Chiralities_Consistent>
1

> <s_lp_Variant>
AV-unprocessed.smi:578-6

> <Gold.Version>
5.8.1

> <Gold.Id.Protein>
6NUR|6NUR_protein|mol2

> <Gold.PLP.Fitness>
45.2104

> <Gold.PLP.PLP>
-33.6442

> <Gold.PLP.part.hbond>
-2.5580

> <Gold.PLP.part.metal>
0.0000

> <Gold.PLP.part.buried>
-5.9827

> <Gold.PLP.part.nonpolar>
-25.1798

> <Gold.PLP.part.repulsive>
0.1110

> <Gold.PLP.ligand.clash>
0.2345

> <Gold.PLP.ligand.torsion>
0.1220

> <Gold.PLP.Chemscore.Hbond>
3.9840

> <Gold.PLP.Chemscore.CHOScore>
0.0000

> <Gold.PLP.Chemscore.Metal>
0.0000

> <Gold.Chemscore.Hbonds>
donor molecule, donor type, donor heavy atom, donor atom, acceptor molecule, acceptor atom, score
      P1  H  6896  6908       L1    12  1.92
      P1  H 10752 10763       L1    11  1.82

> <Gold.PLP.Chemscore.Internal.Correction>
0.0928

> <Gold.Rescore>
     Score         DG    S(hbond)    S(metal)    S(lipo)     H(rot)  DE(clash)    DE(int)     intcor
     19.37     -19.59       1.90        0.00      88.15       1.00       0.01       0.20       ----

> <Gold.Chemscore.Fitness>
19.3713

> <Gold.Chemscore.DG>
-19.5898

> <Gold.Chemscore.ZeroCoef>
-5.4800

> <Gold.Chemscore.Hbond>
1.9032

> <Gold.Chemscore.Metal>
0.0000

> <Gold.Chemscore.Lipo>
88.1459

> <Gold.Chemscore.Internal_Hbond>
0.0000

> <Gold.Chemscore.DEClash>
0.0149

> <Gold.Chemscore.DEInternal>
0.2037

> <Gold.Chemscore.Rot>
1.0000

> <Gold.Chemscore.Internal.Correction>
   9.000000E+99

> <Gold.Chemscore.Hbonds>
donor molecule, donor type, donor heavy atom, donor atom, acceptor molecule, acceptor atom, score
      P1  H  6896  6908       L1    12  0.92
      P1  H 10752 10763       L1    11  0.87

> <Gold.Chemscore.Hbond.Weighted>
-6.3568

> <Gold.Chemscore.Metal.Weighted>
-0.0000

> <Gold.Chemscore.Lipo.Weighted>
-10.3131

> <Gold.Chemscore.Internal_Hbond.Weighted>
0.0000

> <Gold.Chemscore.DEClash.Weighted>
0.0149

> <Gold.Chemscore.DEInternal.Weighted>
0.2037

> <Gold.Chemscore.Rot.Weighted>
2.5600

> <Gold.Chemscore.Internal.Correction.Weighted>
   9.000000E+99

> <Gold.Protein.RotatedTorsions>
[ 6907 6896 6895 6894 ] final -103.94 input  -60.11 | X-H torsion
[ 7974 7965 7964 7962 ] final  149.56 input  175.53 | X-H torsion
[ 8008 7997 7996 7995 ] final -160.66 input   59.86 | X-H torsion
[ 10167 10162 10161 10158 ] final  -70.39 input  -65.29 | X-H torsion
[ 10718 10713 10712 10709 ] final   -0.38 input   66.30 | X-H torsion
[ 10763 10752 10751 10750 ] final  114.34 input  -60.55 | X-H torsion
[ 11005 11000 10999 10996 ] final -164.75 input  -57.11 | X-H torsion

> <Gold.Protein.ActiveResidues>
 VAL166  LYS551  ARG553  GLY616  TRP617  ASP618  TYR619  PRO620  LYS621  CYS622 
 ASP623  PHE694  ASN695  SER759  ASP760  ASP761  ALA762  ILE779  LEU786  VAL792 
 PHE793  MET794  SER795  GLU796  ALA797  LYS798  CYS799  TRP800  GLU811  SER814 

> <Gold.Protein.RotatedAtoms>
  150.7263  134.0353  159.3747 H   0  0  0  0  0  0  0  0  0  0  0  0  # atno 6907 bound_to 6896
  151.8324  135.0615  160.0448 H   0  0  0  0  0  0  0  0  0  0  0  0  # atno 6908 bound_to 6896
  152.2923  133.5537  159.5602 H   0  0  0  0  0  0  0  0  0  0  0  0  # atno 6909 bound_to 6896
  144.8429  139.6296  143.6008 H   0  0  0  0  0  0  0  0  0  0  0  0  # atno 7974 bound_to 7965
  155.7807  140.0864  157.2060 H   0  0  0  0  0  0  0  0  0  0  0  0  # atno 8008 bound_to 7997
  154.3990  140.1508  156.3107 H   0  0  0  0  0  0  0  0  0  0  0  0  # atno 8009 bound_to 7997
  155.8656  140.3428  155.5788 H   0  0  0  0  0  0  0  0  0  0  0  0  # atno 8010 bound_to 7997
  140.5356  143.2318  151.7183 H   0  0  0  0  0  0  0  0  0  0  0  0  # atno 10167 bound_to 10162
  156.8213  130.5457  149.5697 H   0  0  0  0  0  0  0  0  0  0  0  0  # atno 10718 bound_to 10713
  153.5058  135.3628  155.2562 H   0  0  0  0  0  0  0  0  0  0  0  0  # atno 10763 bound_to 10752
  154.8745  135.4011  154.3425 H   0  0  0  0  0  0  0  0  0  0  0  0  # atno 10764 bound_to 10752
  153.4069  135.7076  153.6452 H   0  0  0  0  0  0  0  0  0  0  0  0  # atno 10765 bound_to 10752
  140.5834  134.5118  157.5182 H   0  0  0  0  0  0  0  0  0  0  0  0  # atno 11005 bound_to 11000
  146.2718  139.6655  142.9290 LP  0  0  0  0  0  0  0  0  0  0  0  0  # atno 17320 bound_to 7965
  145.4657  141.0434  143.2727 LP  0  0  0  0  0  0  0  0  0  0  0  0  # atno 17321 bound_to 7965
  139.4970  144.4047  152.0144 LP  0  0  0  0  0  0  0  0  0  0  0  0  # atno 17342 bound_to 10162
  140.3153  144.3491  150.6023 LP  0  0  0  0  0  0  0  0  0  0  0  0  # atno 17343 bound_to 10162
  156.0987  130.5952  150.9858 LP  0  0  0  0  0  0  0  0  0  0  0  0  # atno 17370 bound_to 10713
  157.6455  131.0904  150.8162 LP  0  0  0  0  0  0  0  0  0  0  0  0  # atno 17371 bound_to 10713
  139.9306  134.7970  156.0941 LP  0  0  0  0  0  0  0  0  0  0  0  0  # atno 17394 bound_to 11000
  141.0981  133.6687  156.2692 LP  0  0  0  0  0  0  0  0  0  0  0  0  # atno 17395 bound_to 11000

$$$$
