AV-unprocessed.smi:1534|AV-procd|sdf|6168|dock7
  -GOLD-   22720 6313D 1   1.00000     0.00000
 Structure written by MMmdl.
 37 38  0  0  0  0  0  0  0  0  2 V2000
  148.8100  134.4578  155.9624 O   0  0  0  0  0  0  0  0  0  0  0  0
  148.8792  134.8274  154.7919 C   0  0  0  0  0  0  0  0  0  0  0  0
  148.1647  134.2709  153.7987 N   0  0  0  0  0  0  0  0  0  0  0  0
  147.2184  133.1741  153.9638 C   0  0  0  0  0  0  0  0  0  0  0  0
  147.3740  132.1199  152.8546 C   0  0  0  0  0  0  0  0  0  0  0  0
  146.3244  132.2683  151.7707 C   0  0  0  0  0  0  0  0  0  0  0  0
  145.0032  132.6752  152.0575 C   0  0  0  0  0  0  0  0  0  0  0  0
  144.0724  132.7871  151.0035 C   0  0  0  0  0  0  0  0  0  0  0  0
  144.4815  132.4892  149.6870 C   0  0  0  0  0  0  0  0  0  0  0  0
  145.8128  132.0852  149.4579 C   0  0  0  0  0  0  0  0  0  0  0  0
  146.6747  131.9891  150.4942 N   0  3  0  0  0  0  0  0  0  0  0  0
  149.6784  135.8406  154.4135 N   0  0  0  0  0  0  0  0  0  0  0  0
  150.5733  136.6458  155.2457 C   0  0  2  0  0  0  0  0  0  0  0  0
  149.7964  137.3289  156.3865 C   0  0  0  0  0  0  0  0  0  0  0  0
  150.6785  138.4227  157.0022 C   0  0  0  0  0  0  0  0  0  0  0  0
  151.7709  139.0182  155.6556 S   0  0  0  0  0  0  0  0  0  0  0  0
  151.3145  140.3368  155.1910 O   0  0  0  0  0  0  0  0  0  0  0  0
  153.1711  138.7948  156.0464 O   0  0  0  0  0  0  0  0  0  0  0  0
  151.2746  137.7475  154.4345 C   0  0  0  0  0  0  0  0  0  0  0  0
  148.2839  134.6361  152.8649 H   0  0  0  0  0  0  0  0  0  0  0  0
  147.3929  132.7202  154.9398 H   0  0  0  0  0  0  0  0  0  0  0  0
  146.1991  133.5642  153.9801 H   0  0  0  0  0  0  0  0  0  0  0  0
  148.3617  132.1931  152.3972 H   0  0  0  0  0  0  0  0  0  0  0  0
  147.3070  131.1173  153.2796 H   0  0  0  0  0  0  0  0  0  0  0  0
  144.7042  132.8967  153.0719 H   0  0  0  0  0  0  0  0  0  0  0  0
  143.0569  133.0965  151.2030 H   0  0  0  0  0  0  0  0  0  0  0  0
  143.7841  132.5684  148.8656 H   0  0  0  0  0  0  0  0  0  0  0  0
  146.2110  131.8379  148.4848 H   0  0  0  0  0  0  0  0  0  0  0  0
  149.6466  136.0934  153.4361 H   0  0  0  0  0  0  0  0  0  0  0  0
  151.3308  136.0067  155.7032 H   0  0  0  0  0  0  0  0  0  0  0  0
  148.8986  137.7967  155.9792 H   0  0  0  0  0  0  0  0  0  0  0  0
  149.4664  136.6121  157.1392 H   0  0  0  0  0  0  0  0  0  0  0  0
  150.1016  139.2508  157.4143 H   0  0  0  0  0  0  0  0  0  0  0  0
  151.3099  138.0130  157.7911 H   0  0  0  0  0  0  0  0  0  0  0  0
  152.1485  137.3945  153.8872 H   0  0  0  0  0  0  0  0  0  0  0  0
  150.5873  138.2158  153.7289 H   0  0  0  0  0  0  0  0  0  0  0  0
  147.6331  131.6940  150.3051 H   0  0  0  0  0  0  0  0  0  0  0  0
  1  2  2  0  0  0  0
  2  3  1  0  0  0  0
  2 12  1  0  0  0  0
  3  4  1  0  0  0  0
  3 20  1  0  0  0  0
  4  5  1  0  0  0  0
  4 21  1  0  0  0  0
  4 22  1  0  0  0  0
  5  6  1  0  0  0  0
  5 23  1  0  0  0  0
  5 24  1  0  0  0  0
  6 11  1  0  0  0  0
  6  7  2  0  0  0  0
  7  8  1  0  0  0  0
  7 25  1  0  0  0  0
  8  9  2  0  0  0  0
  8 26  1  0  0  0  0
  9 10  1  0  0  0  0
  9 27  1  0  0  0  0
 10 11  2  0  0  0  0
 10 28  1  0  0  0  0
 11 37  1  0  0  0  0
 12 13  1  0  0  0  0
 12 29  1  0  0  0  0
 13 19  1  0  0  0  0
 13 14  1  0  0  0  0
 13 30  1  0  0  0  0
 14 15  1  0  0  0  0
 14 31  1  0  0  0  0
 14 32  1  0  0  0  0
 15 16  1  0  0  0  0
 15 33  1  0  0  0  0
 15 34  1  0  0  0  0
 16 17  2  0  0  0  0
 16 18  2  0  0  0  0
 16 19  1  0  0  0  0
 19 35  1  0  0  0  0
 19 36  1  0  0  0  0
M  CHG  1  11   1
M  END
> <s_m_source_file>
AV-unprocessed.smi

> <i_m_source_file_index>
1534

> <i_lp_mmshare_version>
43012

> <i_f3d_flags>
0

> <s_epik_input>
Tz1TMSg9TylbQ0gyXVtDSDJdW0NASF0oW0NIMl0xKVtOSF1DKD1PKVtOSF1bQ0gyXVtDSDJdYzJbY0hdW2NIXVtjSF1bY0hdbjI=

> <s_epik_cmdline>
J2VwaWtfcHl0aG9uJywgJy1waCcsICc3LjAnLCAnLXRuJywgJzgnLCAnLW1hJywgJzIwMCcsICctbWV0YWxfYmluZGluZycsICctaW1hZScsICc8aW5maWxlLm1hZT4nLCAnLW9tYWUnLCAnPG91dGZpbGUubWFlPic=

> <r_epik_Ionization_Penalty>
1.58466

> <r_epik_Ionization_Penalty_Charging>
1.58462

> <r_epik_Ionization_Penalty_Neutral>
3.4911e-05

> <r_epik_State_Penalty>
1.6815

> <r_epik_Charging_Adjusted_Penalty>
3.26612

> <i_epik_Tot_Q>
1

> <i_epik_Tot_abs_Q>
1

> <r_epik_Metal_State_Penalty>
1.72144

> <b_epik_Metal_Only>
0

> <s_lp_Force_Field>
OPLS_2005

> <r_lp_Energy>
16.0644

> <b_lp_Chiralities_Consistent>
1

> <s_lp_Variant>
AV-unprocessed.smi:1534-3

> <Gold.Version>
5.8.1

> <Gold.Id.Protein>
6NUR|6NUR_protein|mol2

> <Gold.PLP.Fitness>
44.8868

> <Gold.PLP.PLP>
-32.8605

> <Gold.PLP.part.hbond>
-5.2060

> <Gold.PLP.part.metal>
0.0000

> <Gold.PLP.part.buried>
-5.1433

> <Gold.PLP.part.nonpolar>
-22.7917

> <Gold.PLP.part.repulsive>
0.1979

> <Gold.PLP.ligand.clash>
0.0000

> <Gold.PLP.ligand.torsion>
0.7472

> <Gold.PLP.Chemscore.Hbond>
4.5040

> <Gold.PLP.Chemscore.CHOScore>
0.0000

> <Gold.PLP.Chemscore.Metal>
0.0000

> <Gold.Chemscore.Hbonds>
donor molecule, donor type, donor heavy atom, donor atom, acceptor molecule, acceptor atom, score
      L1  H     3    20       P1  7948  0.86
      L1  H    11    37       P1 10747  1.00
      L1  H    12    29       P1  7948  1.00
      P1  H  7989  7998       L1    17  1.00
      P1  H  7997  8008       L1    18  0.61

> <Gold.PLP.Chemscore.Internal.Correction>
0.0087

> <Gold.Rescore>
     Score         DG    S(hbond)    S(metal)    S(lipo)     H(rot)  DE(clash)    DE(int)     intcor
     21.72     -22.42       4.15        0.00      66.08       1.82       0.00       0.70       ----

> <Gold.Chemscore.Fitness>
21.7174

> <Gold.Chemscore.DG>
-22.4158

> <Gold.Chemscore.ZeroCoef>
-5.4800

> <Gold.Chemscore.Hbond>
4.1523

> <Gold.Chemscore.Metal>
0.0000

> <Gold.Chemscore.Lipo>
66.0791

> <Gold.Chemscore.Internal_Hbond>
0.0000

> <Gold.Chemscore.DEClash>
0.0000

> <Gold.Chemscore.DEInternal>
0.6985

> <Gold.Chemscore.Rot>
1.8220

> <Gold.Chemscore.Internal.Correction>
   9.000000E+99

> <Gold.Chemscore.Hbonds>
donor molecule, donor type, donor heavy atom, donor atom, acceptor molecule, acceptor atom, score
      L1  H     3    20       P1  7948  0.43
      L1  H    11    37       P1 10747  0.97
      L1  H    12    29       P1  7948  0.25
      P1  H  7989  7998       L1    17  0.93
      P1  H  7997  8008       L1    18  0.59

> <Gold.Chemscore.Hbond.Weighted>
-13.8688

> <Gold.Chemscore.Metal.Weighted>
-0.0000

> <Gold.Chemscore.Lipo.Weighted>
-7.7313

> <Gold.Chemscore.Internal_Hbond.Weighted>
0.0000

> <Gold.Chemscore.DEClash.Weighted>
0.0000

> <Gold.Chemscore.DEInternal.Weighted>
0.6985

> <Gold.Chemscore.Rot.Weighted>
4.6642

> <Gold.Chemscore.Internal.Correction.Weighted>
   9.000000E+99

> <Gold.Protein.RotatedTorsions>
[ 6907 6896 6895 6894 ] final    9.62 input  -60.11 | X-H torsion
[ 7974 7965 7964 7962 ] final  -55.76 input  175.53 | X-H torsion
[ 8008 7997 7996 7995 ] final  -74.48 input   59.86 | X-H torsion
[ 10167 10162 10161 10158 ] final    1.63 input  -65.29 | X-H torsion
[ 10718 10713 10712 10709 ] final   44.48 input   66.30 | X-H torsion
[ 10763 10752 10751 10750 ] final   94.66 input  -60.55 | X-H torsion
[ 11005 11000 10999 10996 ] final  160.08 input  -57.11 | X-H torsion

> <Gold.Protein.ActiveResidues>
 VAL166  LYS551  ARG553  GLY616  TRP617  ASP618  TYR619  PRO620  LYS621  CYS622 
 ASP623  PHE694  ASN695  SER759  ASP760  ASP761  ALA762  ILE779  LEU786  VAL792 
 PHE793  MET794  SER795  GLU796  ALA797  LYS798  CYS799  TRP800  GLU811  SER814 

> <Gold.Protein.RotatedAtoms>
  151.7251  135.0886  160.0290 H   0  0  0  0  0  0  0  0  0  0  0  0  # atno 6907 bound_to 6896
  152.3577  133.6253  159.6000 H   0  0  0  0  0  0  0  0  0  0  0  0  # atno 6908 bound_to 6896
  150.7582  133.9390  159.3492 H   0  0  0  0  0  0  0  0  0  0  0  0  # atno 6909 bound_to 6896
  145.8704  140.8220  142.9891 H   0  0  0  0  0  0  0  0  0  0  0  0  # atno 7974 bound_to 7965
  154.5334  140.0761  156.8385 H   0  0  0  0  0  0  0  0  0  0  0  0  # atno 8008 bound_to 7997
  155.3328  140.3403  155.4221 H   0  0  0  0  0  0  0  0  0  0  0  0  # atno 8009 bound_to 7997
  156.1804  140.1650  156.8271 H   0  0  0  0  0  0  0  0  0  0  0  0  # atno 8010 bound_to 7997
  140.6674  143.7143  150.7853 H   0  0  0  0  0  0  0  0  0  0  0  0  # atno 10167 bound_to 10162
  157.4273  130.8004  149.7570 H   0  0  0  0  0  0  0  0  0  0  0  0  # atno 10718 bound_to 10713
  153.2442  135.4281  155.0730 H   0  0  0  0  0  0  0  0  0  0  0  0  # atno 10763 bound_to 10752
  154.8354  135.3410  154.6605 H   0  0  0  0  0  0  0  0  0  0  0  0  # atno 10764 bound_to 10752
  153.7028  135.7027  153.5115 H   0  0  0  0  0  0  0  0  0  0  0  0  # atno 10765 bound_to 10752
  140.2024  134.8328  157.3032 H   0  0  0  0  0  0  0  0  0  0  0  0  # atno 11005 bound_to 11000
  144.6726  140.1231  143.7448 LP  0  0  0  0  0  0  0  0  0  0  0  0  # atno 17320 bound_to 7965
  145.9143  139.2506  143.1419 LP  0  0  0  0  0  0  0  0  0  0  0  0  # atno 17321 bound_to 7965
  140.0823  143.4957  152.2524 LP  0  0  0  0  0  0  0  0  0  0  0  0  # atno 17342 bound_to 10162
  139.5928  144.7556  151.3360 LP  0  0  0  0  0  0  0  0  0  0  0  0  # atno 17343 bound_to 10162
  155.9901  130.3947  150.3044 LP  0  0  0  0  0  0  0  0  0  0  0  0  # atno 17370 bound_to 10713
  157.1197  131.0243  151.3014 LP  0  0  0  0  0  0  0  0  0  0  0  0  # atno 17371 bound_to 10713
  140.2040  134.4220  155.7648 LP  0  0  0  0  0  0  0  0  0  0  0  0  # atno 17394 bound_to 11000
  141.2227  133.7085  156.8229 LP  0  0  0  0  0  0  0  0  0  0  0  0  # atno 17395 bound_to 11000

$$$$
