AV-unprocessed.smi:1971|AV-procd|sdf|7973|dock3
  -GOLD-   2272010143D 1   1.00000     0.00000
 Structure written by MMmdl.
 42 43  0  0  0  0  0  0  0  0  2 V2000
  151.8276  145.2890  159.5107 C   0  0  0  0  0  0  0  0  0  0  0  0
  152.2853  143.8810  159.9172 C   0  0  0  0  0  0  0  0  0  0  0  0
  152.0515  142.8449  158.9133 N   0  0  0  0  0  0  0  0  0  0  0  0
  150.7057  142.9083  158.3451 C   0  0  0  0  0  0  0  0  0  0  0  0
  150.4791  141.8067  157.2927 C   0  0  0  0  0  0  0  0  0  0  0  0
  150.6670  140.4541  157.8403 N   0  0  0  0  0  0  0  0  0  0  0  0
  150.4583  139.3912  156.8280 C   0  0  1  0  0  0  0  0  0  0  0  0
  151.5610  139.3806  155.7386 C   0  0  0  0  0  0  0  0  0  0  0  0
  150.3385  137.9685  157.4460 C   0  0  0  0  0  0  0  0  0  0  0  0
  149.5470  137.9452  158.6752 N   0  0  0  0  0  0  0  0  0  0  0  0
  149.1308  136.8568  159.3394 C   0  0  0  0  0  0  0  0  0  0  0  0
  149.4198  135.7313  158.9268 O   0  0  0  0  0  0  0  0  0  0  0  0
  148.3935  137.1419  160.4370 N   0  5  0  0  0  0  0  0  0  0  0  0
  147.8278  136.1499  161.1437 C   0  0  0  0  0  0  0  0  0  0  0  0
  147.4592  134.9849  160.5989 N   0  0  0  0  0  0  0  0  0  0  0  0
  146.8999  134.0951  161.5178 C   0  0  0  0  0  0  0  0  0  0  0  0
  146.8496  134.5905  162.7938 C   0  0  0  0  0  0  0  0  0  0  0  0
  147.5089  136.1988  162.8803 S   0  0  0  0  0  0  0  0  0  0  0  0
  152.0119  140.4090  158.4355 C   0  0  0  0  0  0  0  0  0  0  0  0
  152.2287  141.5138  159.4853 C   0  0  0  0  0  0  0  0  0  0  0  0
  152.1319  146.0207  160.2593 H   0  0  0  0  0  0  0  0  0  0  0  0
  150.7439  145.3545  159.4169 H   0  0  0  0  0  0  0  0  0  0  0  0
  152.2690  145.5864  158.5593 H   0  0  0  0  0  0  0  0  0  0  0  0
  153.3550  143.9337  160.1241 H   0  0  0  0  0  0  0  0  0  0  0  0
  151.8115  143.6006  160.8590 H   0  0  0  0  0  0  0  0  0  0  0  0
  149.9593  142.8182  159.1358 H   0  0  0  0  0  0  0  0  0  0  0  0
  150.5426  143.8755  157.8709 H   0  0  0  0  0  0  0  0  0  0  0  0
  149.4635  141.9338  156.9241 H   0  0  0  0  0  0  0  0  0  0  0  0
  151.1472  141.9639  156.4444 H   0  0  0  0  0  0  0  0  0  0  0  0
  149.5145  139.5945  156.3196 H   0  0  0  0  0  0  0  0  0  0  0  0
  151.4138  138.5871  155.0075 H   0  0  0  0  0  0  0  0  0  0  0  0
  152.5489  139.2411  156.1787 H   0  0  0  0  0  0  0  0  0  0  0  0
  151.5774  140.2973  155.1519 H   0  0  0  0  0  0  0  0  0  0  0  0
  149.9541  137.2668  156.7040 H   0  0  0  0  0  0  0  0  0  0  0  0
  151.3119  137.5878  157.7483 H   0  0  0  0  0  0  0  0  0  0  0  0
  149.2812  138.8413  159.0561 H   0  0  0  0  0  0  0  0  0  0  0  0
  146.5638  133.1276  161.1758 H   0  0  0  0  0  0  0  0  0  0  0  0
  146.4693  134.1110  163.6829 H   0  0  0  0  0  0  0  0  0  0  0  0
  152.1762  139.4601  158.9420 H   0  0  0  0  0  0  0  0  0  0  0  0
  152.7703  140.4880  157.6550 H   0  0  0  0  0  0  0  0  0  0  0  0
  153.2350  141.4211  159.8956 H   0  0  0  0  0  0  0  0  0  0  0  0
  151.5388  141.3677  160.3183 H   0  0  0  0  0  0  0  0  0  0  0  0
  1  2  1  0  0  0  0
  1 21  1  0  0  0  0
  1 22  1  0  0  0  0
  1 23  1  0  0  0  0
  2  3  1  0  0  0  0
  2 24  1  0  0  0  0
  2 25  1  0  0  0  0
  3 20  1  0  0  0  0
  3  4  1  0  0  0  0
  4  5  1  0  0  0  0
  4 26  1  0  0  0  0
  4 27  1  0  0  0  0
  5  6  1  0  0  0  0
  5 28  1  0  0  0  0
  5 29  1  0  0  0  0
  6  7  1  0  0  0  0
  6 19  1  0  0  0  0
  7  8  1  0  0  0  0
  7  9  1  0  0  0  0
  7 30  1  0  0  0  0
  8 31  1  0  0  0  0
  8 32  1  0  0  0  0
  8 33  1  0  0  0  0
  9 10  1  0  0  0  0
  9 34  1  0  0  0  0
  9 35  1  0  0  0  0
 10 11  1  0  0  0  0
 10 36  1  0  0  0  0
 11 12  2  0  0  0  0
 11 13  1  0  0  0  0
 13 14  1  0  0  0  0
 14 18  1  0  0  0  0
 14 15  2  0  0  0  0
 15 16  1  0  0  0  0
 16 17  2  0  0  0  0
 16 37  1  0  0  0  0
 17 18  1  0  0  0  0
 17 38  1  0  0  0  0
 19 20  1  0  0  0  0
 19 39  1  0  0  0  0
 19 40  1  0  0  0  0
 20 41  1  0  0  0  0
 20 42  1  0  0  0  0
M  CHG  1  13  -1
M  END
> <s_m_source_file>
AV-unprocessed.smi

> <i_m_source_file_index>
1971

> <i_lp_mmshare_version>
43012

> <i_f3d_flags>
0

> <s_epik_input>
W0NIM11bQ0gyXU4xW0NIMl1bQ0gyXU4oW0NIMl1bQ0gyXTEpW0NASF0oW0NIM10pW0NIMl1bTkhdQyg9TylbTkhdYzJuW2NIXVtjSF1zMg==

> <s_epik_cmdline>
J2VwaWtfcHl0aG9uJywgJy1waCcsICc3LjAnLCAnLXRuJywgJzgnLCAnLW1hJywgJzIwMCcsICctbWV0YWxfYmluZGluZycsICctaW1hZScsICc8aW5maWxlLm1hZT4nLCAnLW9tYWUnLCAnPG91dGZpbGUubWFlPic=

> <r_lp_tautomer_probability>
0.999

> <r_epik_Ionization_Penalty>
9.52272

> <r_epik_Ionization_Penalty_Charging>
5.92713

> <r_epik_Ionization_Penalty_Neutral>
3.59559

> <r_epik_State_Penalty>
7.69531

> <r_epik_Charging_Adjusted_Penalty>
13.6224

> <i_epik_Tot_Q>
-1

> <i_epik_Tot_abs_Q>
1

> <r_epik_Metal_State_Penalty>
3.66212

> <b_epik_Metal_Only>
1

> <s_lp_Force_Field>
OPLS_2005

> <r_lp_Energy>
38.2579

> <b_lp_Chiralities_Consistent>
1

> <s_lp_Variant>
AV-unprocessed.smi:1971-12

> <Gold.Version>
5.8.1

> <Gold.Id.Protein>
6NUR|6NUR_protein|mol2

> <Gold.PLP.Fitness>
49.3435

> <Gold.PLP.PLP>
-40.6912

> <Gold.PLP.part.hbond>
-3.0000

> <Gold.PLP.part.metal>
0.0000

> <Gold.PLP.part.buried>
-6.1651

> <Gold.PLP.part.nonpolar>
-33.1905

> <Gold.PLP.part.repulsive>
0.1900

> <Gold.PLP.ligand.clash>
0.0000

> <Gold.PLP.ligand.torsion>
0.5464

> <Gold.PLP.Chemscore.Hbond>
3.2106

> <Gold.PLP.Chemscore.CHOScore>
0.0000

> <Gold.PLP.Chemscore.Metal>
0.0000

> <Gold.Chemscore.Hbonds>
donor molecule, donor type, donor heavy atom, donor atom, acceptor molecule, acceptor atom, score
      P1  H  6896  6908       L1    12  1.00
      P1  H  6931  6943       L1    13  1.47
      P1  H  6934  6947       L1    13  0.44

> <Gold.PLP.Chemscore.Internal.Correction>
0.1131

> <Gold.Rescore>
     Score         DG    S(hbond)    S(metal)    S(lipo)     H(rot)  DE(clash)    DE(int)     intcor
     15.81     -17.82       1.73        0.00      93.33       1.70       0.00       2.00       ----

> <Gold.Chemscore.Fitness>
15.8130

> <Gold.Chemscore.DG>
-17.8212

> <Gold.Chemscore.ZeroCoef>
-5.4800

> <Gold.Chemscore.Hbond>
1.7314

> <Gold.Chemscore.Metal>
0.0000

> <Gold.Chemscore.Lipo>
93.3300

> <Gold.Chemscore.Internal_Hbond>
0.0000

> <Gold.Chemscore.DEClash>
0.0048

> <Gold.Chemscore.DEInternal>
2.0034

> <Gold.Chemscore.Rot>
1.7037

> <Gold.Chemscore.Internal.Correction>
   9.000000E+99

> <Gold.Chemscore.Hbonds>
donor molecule, donor type, donor heavy atom, donor atom, acceptor molecule, acceptor atom, score
      P1  H  6896  6908       L1    12  0.98
      P1  H  6931  6943       L1    13  0.19
      P1  H  6934  6947       L1    13  0.13

> <Gold.Chemscore.Hbond.Weighted>
-5.7830

> <Gold.Chemscore.Metal.Weighted>
-0.0000

> <Gold.Chemscore.Lipo.Weighted>
-10.9196

> <Gold.Chemscore.Internal_Hbond.Weighted>
0.0000

> <Gold.Chemscore.DEClash.Weighted>
0.0048

> <Gold.Chemscore.DEInternal.Weighted>
2.0034

> <Gold.Chemscore.Rot.Weighted>
4.3614

> <Gold.Chemscore.Internal.Correction.Weighted>
   9.000000E+99

> <Gold.Protein.RotatedTorsions>
[ 6907 6896 6895 6894 ] final  159.79 input  -60.11 | X-H torsion
[ 7974 7965 7964 7962 ] final  135.82 input  175.53 | X-H torsion
[ 8008 7997 7996 7995 ] final  -62.92 input   59.86 | X-H torsion
[ 10167 10162 10161 10158 ] final  129.24 input  -65.29 | X-H torsion
[ 10718 10713 10712 10709 ] final   -8.11 input   66.30 | X-H torsion
[ 10763 10752 10751 10750 ] final -157.89 input  -60.55 | X-H torsion
[ 11005 11000 10999 10996 ] final  114.71 input  -57.11 | X-H torsion

> <Gold.Protein.ActiveResidues>
 VAL166  LYS551  ARG553  GLY616  TRP617  ASP618  TYR619  PRO620  LYS621  CYS622 
 ASP623  PHE694  ASN695  SER759  ASP760  ASP761  ALA762  ILE779  LEU786  VAL792 
 PHE793  MET794  SER795  GLU796  ALA797  LYS798  CYS799  TRP800  GLU811  SER814 

> <Gold.Protein.RotatedAtoms>
  151.9804  133.3756  159.4104 H   0  0  0  0  0  0  0  0  0  0  0  0  # atno 6907 bound_to 6896
  150.6935  134.4045  159.5143 H   0  0  0  0  0  0  0  0  0  0  0  0  # atno 6908 bound_to 6896
  152.1763  134.8792  160.0581 H   0  0  0  0  0  0  0  0  0  0  0  0  # atno 6909 bound_to 6896
  144.9625  139.4694  143.5472 H   0  0  0  0  0  0  0  0  0  0  0  0  # atno 7974 bound_to 7965
  154.4526  140.0986  156.6662 H   0  0  0  0  0  0  0  0  0  0  0  0  # atno 8008 bound_to 7997
  155.5238  140.3479  155.4394 H   0  0  0  0  0  0  0  0  0  0  0  0  # atno 8009 bound_to 7997
  156.0712  140.1350  156.9816 H   0  0  0  0  0  0  0  0  0  0  0  0  # atno 8010 bound_to 7997
  139.5487  144.6795  151.4390 H   0  0  0  0  0  0  0  0  0  0  0  0  # atno 10167 bound_to 10162
  156.7074  130.5112  149.5901 H   0  0  0  0  0  0  0  0  0  0  0  0  # atno 10718 bound_to 10713
  154.7601  135.3115  154.8395 H   0  0  0  0  0  0  0  0  0  0  0  0  # atno 10763 bound_to 10752
  153.9159  135.6801  153.4753 H   0  0  0  0  0  0  0  0  0  0  0  0  # atno 10764 bound_to 10752
  153.1201  135.4826  154.9111 H   0  0  0  0  0  0  0  0  0  0  0  0  # atno 10765 bound_to 10752
  139.8988  134.9572  156.6934 H   0  0  0  0  0  0  0  0  0  0  0  0  # atno 11005 bound_to 11000
  146.3357  139.8785  142.8828 LP  0  0  0  0  0  0  0  0  0  0  0  0  # atno 17320 bound_to 7965
  145.2678  141.0098  143.3789 LP  0  0  0  0  0  0  0  0  0  0  0  0  # atno 17321 bound_to 7965
  140.6744  143.8223  150.7039 LP  0  0  0  0  0  0  0  0  0  0  0  0  # atno 17342 bound_to 10162
  140.1657  143.4237  152.2036 LP  0  0  0  0  0  0  0  0  0  0  0  0  # atno 17343 bound_to 10162
  156.1685  130.6421  151.0808 LP  0  0  0  0  0  0  0  0  0  0  0  0  # atno 17370 bound_to 10713
  157.6949  131.0797  150.6998 LP  0  0  0  0  0  0  0  0  0  0  0  0  # atno 17371 bound_to 10713
  140.7207  133.9143  155.8145 LP  0  0  0  0  0  0  0  0  0  0  0  0  # atno 17394 bound_to 11000
  141.0229  134.0863  157.4100 LP  0  0  0  0  0  0  0  0  0  0  0  0  # atno 17395 bound_to 11000

$$$$
