AV-unprocessed.smi:1752|AV-procd|sdf|7058|dock4
  -GOLD-   22720 8273D 1   1.00000     0.00000
 Structure written by MMmdl.
 43 44  0  0  0  0  0  0  0  0  2 V2000
  147.6028  140.3499  153.7352 C   0  0  0  0  0  0  0  0  0  0  0  0
  148.1389  138.9229  153.9384 C   0  0  2  0  0  0  0  0  0  0  0  0
  149.4938  138.6696  153.2472 C   0  0  0  0  0  0  0  0  0  0  0  0
  150.6166  138.7362  154.1654 N   0  0  0  0  0  0  0  0  0  0  0  0
  151.5188  137.7439  154.4865 C   0  0  0  0  0  0  0  0  0  0  0  0
  152.3953  138.2691  155.3922 C   0  0  0  0  0  0  0  0  0  0  0  0
  151.9432  139.6076  155.5627 C   0  0  0  0  0  0  0  0  0  0  0  0
  150.8798  139.8849  154.8253 N   0  0  0  0  0  0  0  0  0  0  0  0
  147.1603  137.9639  153.4324 N   0  0  0  0  0  0  0  0  0  0  0  0
  146.6544  137.9203  152.1869 C   0  0  0  0  0  0  0  0  0  0  0  0
  147.0063  138.6976  151.2988 O   0  0  0  0  0  0  0  0  0  0  0  0
  145.7742  136.9091  151.9761 N   0  0  0  0  0  0  0  0  0  0  0  0
  145.5041  136.3148  150.6474 C   0  0  0  0  0  0  0  0  0  0  0  0
  145.1364  134.8126  150.6865 C   0  0  0  0  0  0  0  0  0  0  0  0
  146.1927  133.8944  151.3390 C   0  0  0  0  0  0  0  0  0  0  0  0
  146.8088  134.4263  152.5847 N   0  3  2  0  0  0  0  0  0  0  0  0
  147.7542  133.4591  153.1844 C   0  0  0  0  0  0  0  0  0  0  0  0
  145.8563  134.9761  153.5869 C   0  0  0  0  0  0  0  0  0  0  0  0
  145.1131  136.2488  153.1148 C   0  0  0  0  0  0  0  0  0  0  0  0
  148.2784  141.0958  154.1545 H   0  0  0  0  0  0  0  0  0  0  0  0
  146.6372  140.4786  154.2255 H   0  0  0  0  0  0  0  0  0  0  0  0
  147.4722  140.5774  152.6767 H   0  0  0  0  0  0  0  0  0  0  0  0
  148.2830  138.7790  155.0105 H   0  0  0  0  0  0  0  0  0  0  0  0
  149.4984  137.6831  152.7816 H   0  0  0  0  0  0  0  0  0  0  0  0
  149.6509  139.3923  152.4440 H   0  0  0  0  0  0  0  0  0  0  0  0
  151.4606  136.7574  154.0507 H   0  0  0  0  0  0  0  0  0  0  0  0
  153.2319  137.7732  155.8620 H   0  0  0  0  0  0  0  0  0  0  0  0
  152.3534  140.3803  156.1960 H   0  0  0  0  0  0  0  0  0  0  0  0
  146.8379  137.2681  154.0892 H   0  0  0  0  0  0  0  0  0  0  0  0
  144.6977  136.8773  150.1753 H   0  0  0  0  0  0  0  0  0  0  0  0
  146.3738  136.4117  149.9951 H   0  0  0  0  0  0  0  0  0  0  0  0
  144.1712  134.6637  151.1695 H   0  0  0  0  0  0  0  0  0  0  0  0
  144.9742  134.4709  149.6637 H   0  0  0  0  0  0  0  0  0  0  0  0
  145.7431  132.9209  151.5402 H   0  0  0  0  0  0  0  0  0  0  0  0
  146.9965  133.7209  150.6222 H   0  0  0  0  0  0  0  0  0  0  0  0
  147.2277  132.5799  153.5585 H   0  0  0  0  0  0  0  0  0  0  0  0
  148.2986  133.9114  154.0142 H   0  0  0  0  0  0  0  0  0  0  0  0
  148.4896  133.1309  152.4489 H   0  0  0  0  0  0  0  0  0  0  0  0
  145.1463  134.2074  153.8953 H   0  0  0  0  0  0  0  0  0  0  0  0
  146.4262  135.2410  154.4786 H   0  0  0  0  0  0  0  0  0  0  0  0
  144.9967  136.9333  153.9570 H   0  0  0  0  0  0  0  0  0  0  0  0
  144.0836  136.0120  152.8469 H   0  0  0  0  0  0  0  0  0  0  0  0
  147.3714  135.2142  152.2963 H   0  0  0  0  0  0  0  0  0  0  0  0
  1  2  1  0  0  0  0
  1 20  1  0  0  0  0
  1 21  1  0  0  0  0
  1 22  1  0  0  0  0
  2  3  1  0  0  0  0
  2  9  1  0  0  0  0
  2 23  1  0  0  0  0
  3  4  1  0  0  0  0
  3 24  1  0  0  0  0
  3 25  1  0  0  0  0
  4  8  1  0  0  0  0
  4  5  1  0  0  0  0
  5  6  2  0  0  0  0
  5 26  1  0  0  0  0
  6  7  1  0  0  0  0
  6 27  1  0  0  0  0
  7  8  2  0  0  0  0
  7 28  1  0  0  0  0
  9 10  1  0  0  0  0
  9 29  1  0  0  0  0
 10 11  2  0  0  0  0
 10 12  1  0  0  0  0
 12 19  1  0  0  0  0
 12 13  1  0  0  0  0
 13 14  1  0  0  0  0
 13 30  1  0  0  0  0
 13 31  1  0  0  0  0
 14 15  1  0  0  0  0
 14 32  1  0  0  0  0
 14 33  1  0  0  0  0
 15 16  1  0  0  0  0
 15 34  1  0  0  0  0
 15 35  1  0  0  0  0
 16 17  1  0  0  0  0
 16 18  1  0  0  0  0
 16 43  1  0  0  0  0
 17 36  1  0  0  0  0
 17 37  1  0  0  0  0
 17 38  1  0  0  0  0
 18 19  1  0  0  0  0
 18 39  1  0  0  0  0
 18 40  1  0  0  0  0
 19 41  1  0  0  0  0
 19 42  1  0  0  0  0
M  CHG  1  16   1
M  END
> <s_m_source_file>
AV-unprocessed.smi

> <i_m_source_file_index>
1752

> <i_lp_mmshare_version>
43012

> <i_f3d_flags>
0

> <s_epik_input>
bjFbY0hdW2NIXVtjSF1uMVtDSDJdW0NAQEhdKFtDSDNdKVtOSF1DKD1PKU4yW0NIMl1bQ0gyXVtDSDJdTihbQ0gzXSlbQ0gyXVtDSDJdMg==

> <s_epik_cmdline>
J2VwaWtfcHl0aG9uJywgJy1waCcsICc3LjAnLCAnLXRuJywgJzgnLCAnLW1hJywgJzIwMCcsICctbWV0YWxfYmluZGluZycsICctaW1hZScsICc8aW5maWxlLm1hZT4nLCAnLW9tYWUnLCAnPG91dGZpbGUubWFlPic=

> <r_lp_tautomer_probability>
1

> <r_epik_Ionization_Penalty>
0.00208423

> <r_epik_Ionization_Penalty_Charging>
0.00203643

> <r_epik_Ionization_Penalty_Neutral>
4.77939e-05

> <r_epik_State_Penalty>
0.00139278

> <r_epik_Charging_Adjusted_Penalty>
0.00342922

> <i_epik_Tot_Q>
1

> <i_epik_Tot_abs_Q>
1

> <r_epik_Metal_State_Penalty>
-0

> <b_epik_Metal_Only>
0

> <s_lp_Force_Field>
OPLS_2005

> <r_lp_Energy>
46.8375

> <b_lp_Chiralities_Consistent>
1

> <s_lp_Variant>
AV-unprocessed.smi:1752-1

> <Gold.Version>
5.8.1

> <Gold.Id.Protein>
6NUR|6NUR_protein|mol2

> <Gold.PLP.Fitness>
38.0978

> <Gold.PLP.PLP>
-27.6330

> <Gold.PLP.part.hbond>
-4.0000

> <Gold.PLP.part.metal>
0.0000

> <Gold.PLP.part.buried>
7.9627

> <Gold.PLP.part.nonpolar>
-32.8066

> <Gold.PLP.part.repulsive>
1.6802

> <Gold.PLP.ligand.clash>
2.1751

> <Gold.PLP.ligand.torsion>
0.8237

> <Gold.PLP.Chemscore.Hbond>
3.8600

> <Gold.PLP.Chemscore.CHOScore>
0.8645

> <Gold.PLP.Chemscore.Metal>
0.0000

> <Gold.Chemscore.Hbonds>
donor molecule, donor type, donor heavy atom, donor atom, acceptor molecule, acceptor atom, score
      L1  H    16    43       P1  7948  2.00
      P1  H  7954  7966       L1    11  1.00
      P1  H  7989  7998       L1     8  1.00
      L1  C     5    26       P1  7949  0.61

> <Gold.PLP.Chemscore.Internal.Correction>
0.1139

> <Gold.Rescore>
     Score         DG    S(hbond)    S(metal)    S(lipo)     H(rot)  DE(clash)    DE(int)     intcor
     11.11     -17.78       2.16        0.00      74.48       1.41       4.57       2.10       ----

> <Gold.Chemscore.Fitness>
11.1117

> <Gold.Chemscore.DG>
-17.7779

> <Gold.Chemscore.ZeroCoef>
-5.4800

> <Gold.Chemscore.Hbond>
2.1557

> <Gold.Chemscore.Metal>
0.0000

> <Gold.Chemscore.Lipo>
74.4759

> <Gold.Chemscore.Internal_Hbond>
0.0000

> <Gold.Chemscore.DEClash>
4.5650

> <Gold.Chemscore.DEInternal>
2.1011

> <Gold.Chemscore.Rot>
1.4125

> <Gold.Chemscore.Internal.Correction>
   9.000000E+99

> <Gold.Chemscore.Hbonds>
donor molecule, donor type, donor heavy atom, donor atom, acceptor molecule, acceptor atom, score
      L1  H    16    43       P1  7948  0.99
      P1  H  7954  7966       L1    11  0.84
      P1  H  7989  7998       L1     8  0.09

> <Gold.Chemscore.Hbond.Weighted>
-7.2001

> <Gold.Chemscore.Metal.Weighted>
-0.0000

> <Gold.Chemscore.Lipo.Weighted>
-8.7137

> <Gold.Chemscore.Internal_Hbond.Weighted>
0.0000

> <Gold.Chemscore.DEClash.Weighted>
4.5650

> <Gold.Chemscore.DEInternal.Weighted>
2.1011

> <Gold.Chemscore.Rot.Weighted>
3.6160

> <Gold.Chemscore.Internal.Correction.Weighted>
   9.000000E+99

> <Gold.Protein.RotatedTorsions>
[ 6907 6896 6895 6894 ] final  -62.64 input  -60.11 | X-H torsion
[ 7974 7965 7964 7962 ] final -136.03 input  175.53 | X-H torsion
[ 8008 7997 7996 7995 ] final  -51.93 input   59.86 | X-H torsion
[ 10167 10162 10161 10158 ] final  118.51 input  -65.29 | X-H torsion
[ 10718 10713 10712 10709 ] final  -53.73 input   66.30 | X-H torsion
[ 10763 10752 10751 10750 ] final   72.79 input  -60.55 | X-H torsion
[ 11005 11000 10999 10996 ] final -146.44 input  -57.11 | X-H torsion

> <Gold.Protein.ActiveResidues>
 VAL166  LYS551  ARG553  GLY616  TRP617  ASP618  TYR619  PRO620  LYS621  CYS622 
 ASP623  PHE694  ASN695  SER759  ASP760  ASP761  ALA762  ILE779  LEU786  VAL792 
 PHE793  MET794  SER795  GLU796  ALA797  LYS798  CYS799  TRP800  GLU811  SER814 

> <Gold.Protein.RotatedAtoms>
  150.7702  134.6543  159.6304 H   0  0  0  0  0  0  0  0  0  0  0  0  # atno 6907 bound_to 6896
  152.3751  134.6673  160.0171 H   0  0  0  0  0  0  0  0  0  0  0  0  # atno 6908 bound_to 6896
  151.7020  133.3275  159.3305 H   0  0  0  0  0  0  0  0  0  0  0  0  # atno 6909 bound_to 6896
  144.8963  140.6710  143.5113 H   0  0  0  0  0  0  0  0  0  0  0  0  # atno 7974 bound_to 7965
  154.4094  140.1236  156.4909 H   0  0  0  0  0  0  0  0  0  0  0  0  # atno 8008 bound_to 7997
  155.6991  140.3495  155.4906 H   0  0  0  0  0  0  0  0  0  0  0  0  # atno 8009 bound_to 7997
  155.9401  140.1085  157.1053 H   0  0  0  0  0  0  0  0  0  0  0  0  # atno 8010 bound_to 7997
  139.6106  144.7081  151.2852 H   0  0  0  0  0  0  0  0  0  0  0  0  # atno 10167 bound_to 10162
  156.1510  130.4151  149.9944 H   0  0  0  0  0  0  0  0  0  0  0  0  # atno 10718 bound_to 10713
  153.0480  135.5087  154.7796 H   0  0  0  0  0  0  0  0  0  0  0  0  # atno 10763 bound_to 10752
  154.6681  135.2948  154.9781 H   0  0  0  0  0  0  0  0  0  0  0  0  # atno 10764 bound_to 10752
  154.0609  135.6691  153.4864 H   0  0  0  0  0  0  0  0  0  0  0  0  # atno 10765 bound_to 10752
  140.7820  134.3068  157.5042 H   0  0  0  0  0  0  0  0  0  0  0  0  # atno 11005 bound_to 11000
  145.3695  139.1662  143.4340 LP  0  0  0  0  0  0  0  0  0  0  0  0  # atno 17320 bound_to 7965
  146.3083  140.3765  142.8679 LP  0  0  0  0  0  0  0  0  0  0  0  0  # atno 17321 bound_to 7965
  140.7316  143.6845  150.7973 LP  0  0  0  0  0  0  0  0  0  0  0  0  # atno 17342 bound_to 10162
  140.0439  143.5317  152.2705 LP  0  0  0  0  0  0  0  0  0  0  0  0  # atno 17343 bound_to 10162
  156.7802  130.9218  151.3646 LP  0  0  0  0  0  0  0  0  0  0  0  0  # atno 17370 bound_to 10713
  157.6657  130.9005  149.9927 LP  0  0  0  0  0  0  0  0  0  0  0  0  # atno 17371 bound_to 10713
  139.8741  134.9324  156.3553 LP  0  0  0  0  0  0  0  0  0  0  0  0  # atno 17394 bound_to 11000
  140.9473  133.7474  156.0225 LP  0  0  0  0  0  0  0  0  0  0  0  0  # atno 17395 bound_to 11000

$$$$
