AV-unprocessed.smi:2083|AV-procd|sdf|8508|dock3
  -GOLD-   2272011223D 1   1.00000     0.00000
 Structure written by MMmdl.
 44 45  0  0  0  0  0  0  0  0  3 V2000
  153.4617  142.0798  160.7246 C   0  0  0  0  0  0  0  0  0  0  0  0
  153.1567  141.1549  159.5967 C   0  0  0  0  0  0  0  0  0  0  0  0
  152.5438  141.3318  158.3885 C   0  0  0  0  0  0  0  0  0  0  0  0
  152.5909  140.0349  157.8113 C   0  0  0  0  0  0  0  0  0  0  0  0
  152.0460  139.7963  156.5217 N   0  0  0  0  0  0  0  0  0  0  0  0
  151.2315  140.5815  155.7928 C   0  0  0  0  0  0  0  0  0  0  0  0
  150.8849  141.6889  156.2211 O   0  0  0  0  0  0  0  0  0  0  0  0
  150.8828  140.0047  154.6100 N   0  5  0  0  0  0  0  0  0  0  0  0
  149.8345  138.9966  154.4528 C   0  0  0  0  0  0  0  0  0  0  0  0
  148.6791  139.5485  153.5768 C   0  0  2  0  0  0  0  0  0  0  0  0
  148.0556  140.8676  154.0994 C   0  0  0  0  0  0  0  0  0  0  0  0
  147.6592  138.4830  153.3233 N   0  3  2  0  0  0  0  0  0  0  0  0
  146.7331  138.8082  152.2059 C   0  0  0  0  0  0  0  0  0  0  0  0
  145.9098  137.5752  151.7994 C   0  0  0  0  0  0  0  0  0  0  0  0
  145.1508  136.9915  153.0001 C   0  0  0  0  0  0  0  0  0  0  0  0
  146.0980  136.7186  154.1839 C   0  0  1  0  0  0  0  0  0  0  0  0
  146.9951  135.4880  153.9629 C   0  0  0  0  0  0  0  0  0  0  0  0
  146.9164  137.9818  154.5186 C   0  0  0  0  0  0  0  0  0  0  0  0
  153.1809  139.1468  158.5979 N   0  0  0  0  0  0  0  0  0  0  0  0
  153.5459  139.8599  159.7459 O   0  0  0  0  0  0  0  0  0  0  0  0
  153.0099  143.0581  160.5593 H   0  0  0  0  0  0  0  0  0  0  0  0
  154.5378  142.2176  160.8301 H   0  0  0  0  0  0  0  0  0  0  0  0
  153.0765  141.6840  161.6642 H   0  0  0  0  0  0  0  0  0  0  0  0
  152.1296  142.2430  157.9836 H   0  0  0  0  0  0  0  0  0  0  0  0
  152.2929  138.9128  156.1014 H   0  0  0  0  0  0  0  0  0  0  0  0
  150.2164  138.0911  153.9779 H   0  0  0  0  0  0  0  0  0  0  0  0
  149.4348  138.6740  155.4146 H   0  0  0  0  0  0  0  0  0  0  0  0
  149.1326  139.7815  152.6117 H   0  0  0  0  0  0  0  0  0  0  0  0
  148.7870  141.6770  154.1322 H   0  0  0  0  0  0  0  0  0  0  0  0
  147.6375  140.7699  155.1028 H   0  0  0  0  0  0  0  0  0  0  0  0
  147.2536  141.2037  153.4422 H   0  0  0  0  0  0  0  0  0  0  0  0
  146.0743  139.6260  152.5015 H   0  0  0  0  0  0  0  0  0  0  0  0
  147.2959  139.1510  151.3370 H   0  0  0  0  0  0  0  0  0  0  0  0
  145.2059  137.8434  151.0109 H   0  0  0  0  0  0  0  0  0  0  0  0
  146.5694  136.8187  151.3731 H   0  0  0  0  0  0  0  0  0  0  0  0
  144.3822  137.6998  153.3121 H   0  0  0  0  0  0  0  0  0  0  0  0
  144.6259  136.0805  152.7105 H   0  0  0  0  0  0  0  0  0  0  0  0
  145.4758  136.4927  155.0510 H   0  0  0  0  0  0  0  0  0  0  0  0
  147.6773  135.6247  153.1237 H   0  0  0  0  0  0  0  0  0  0  0  0
  146.3971  134.5986  153.7630 H   0  0  0  0  0  0  0  0  0  0  0  0
  147.6005  135.2831  154.8462 H   0  0  0  0  0  0  0  0  0  0  0  0
  147.6014  137.7617  155.3382 H   0  0  0  0  0  0  0  0  0  0  0  0
  146.2409  138.7591  154.8791 H   0  0  0  0  0  0  0  0  0  0  0  0
  148.2029  137.6994  152.9900 H   0  0  0  0  0  0  0  0  0  0  0  0
  1  2  1  0  0  0  0
  1 21  1  0  0  0  0
  1 22  1  0  0  0  0
  1 23  1  0  0  0  0
  2 20  1  0  0  0  0
  2  3  2  0  0  0  0
  3  4  1  0  0  0  0
  3 24  1  0  0  0  0
  4  5  1  0  0  0  0
  4 19  2  0  0  0  0
  5  6  1  0  0  0  0
  5 25  1  0  0  0  0
  6  7  2  0  0  0  0
  6  8  1  0  0  0  0
  8  9  1  0  0  0  0
  9 10  1  0  0  0  0
  9 26  1  0  0  0  0
  9 27  1  0  0  0  0
 10 11  1  0  0  0  0
 10 12  1  0  0  0  0
 10 28  1  0  0  0  0
 11 29  1  0  0  0  0
 11 30  1  0  0  0  0
 11 31  1  0  0  0  0
 12 18  1  0  0  0  0
 12 13  1  0  0  0  0
 12 44  1  0  0  0  0
 13 14  1  0  0  0  0
 13 32  1  0  0  0  0
 13 33  1  0  0  0  0
 14 15  1  0  0  0  0
 14 34  1  0  0  0  0
 14 35  1  0  0  0  0
 15 16  1  0  0  0  0
 15 36  1  0  0  0  0
 15 37  1  0  0  0  0
 16 17  1  0  0  0  0
 16 18  1  0  0  0  0
 16 38  1  0  0  0  0
 17 39  1  0  0  0  0
 17 40  1  0  0  0  0
 17 41  1  0  0  0  0
 18 42  1  0  0  0  0
 18 43  1  0  0  0  0
 19 20  1  0  0  0  0
M  CHG  1   8  -1
M  CHG  1  12   1
M  END
> <s_m_source_file>
AV-unprocessed.smi

> <i_m_source_file_index>
2083

> <i_lp_mmshare_version>
43012

> <i_f3d_flags>
0

> <s_epik_input>
W0NIM11jMVtjSF1jKG5vMSlbTkhdQyg9TylbTkhdW0NIMl1bQ0BIXShbQ0gzXSlOMltDSDJdW0NIMl1bQ0gyXVtDQEBIXShbQ0gzXSlbQ0gyXTI=

> <s_epik_cmdline>
J2VwaWtfcHl0aG9uJywgJy1waCcsICc3LjAnLCAnLXRuJywgJzgnLCAnLW1hJywgJzIwMCcsICctbWV0YWxfYmluZGluZycsICctaW1hZScsICc8aW5maWxlLm1hZT4nLCAnLW9tYWUnLCAnPG91dGZpbGUubWFlPic=

> <r_epik_Ionization_Penalty>
6.76934

> <r_epik_Ionization_Penalty_Charging>
6.76934

> <r_epik_Ionization_Penalty_Neutral>
5.77849e-06

> <r_epik_State_Penalty>
6.79457

> <r_epik_Charging_Adjusted_Penalty>
13.5639

> <i_epik_Tot_Q>
0

> <i_epik_Tot_abs_Q>
2

> <r_epik_Metal_State_Penalty>
2.72837

> <b_epik_Metal_Only>
1

> <s_lp_Force_Field>
OPLS_2005

> <r_lp_Energy>
20.5905

> <b_lp_Chiralities_Consistent>
1

> <s_lp_Variant>
AV-unprocessed.smi:2083-19

> <Gold.Version>
5.8.1

> <Gold.Id.Protein>
6NUR|6NUR_protein|mol2

> <Gold.PLP.Fitness>
37.4389

> <Gold.PLP.PLP>
-30.0176

> <Gold.PLP.part.hbond>
-2.0677

> <Gold.PLP.part.metal>
0.0000

> <Gold.PLP.part.buried>
1.0960

> <Gold.PLP.part.nonpolar>
-29.4613

> <Gold.PLP.part.repulsive>
0.3158

> <Gold.PLP.ligand.clash>
0.0000

> <Gold.PLP.ligand.torsion>
0.8741

> <Gold.PLP.Chemscore.Hbond>
3.0000

> <Gold.PLP.Chemscore.CHOScore>
0.0000

> <Gold.PLP.Chemscore.Metal>
0.0000

> <Gold.Chemscore.Hbonds>
donor molecule, donor type, donor heavy atom, donor atom, acceptor molecule, acceptor atom, score
      L1  H    12    44       P1  7948  2.00
      P1  H  7989  7998       L1     8  1.00

> <Gold.PLP.Chemscore.Internal.Correction>
0.1694

> <Gold.Rescore>
     Score         DG    S(hbond)    S(metal)    S(lipo)     H(rot)  DE(clash)    DE(int)     intcor
     12.35     -14.94       1.54        0.00      70.31       1.52       0.30       2.30       ----

> <Gold.Chemscore.Fitness>
12.3508

> <Gold.Chemscore.DG>
-14.9444

> <Gold.Chemscore.ZeroCoef>
-5.4800

> <Gold.Chemscore.Hbond>
1.5350

> <Gold.Chemscore.Metal>
0.0000

> <Gold.Chemscore.Lipo>
70.3082

> <Gold.Chemscore.Internal_Hbond>
0.0000

> <Gold.Chemscore.DEClash>
0.2980

> <Gold.Chemscore.DEInternal>
2.2956

> <Gold.Chemscore.Rot>
1.5190

> <Gold.Chemscore.Internal.Correction>
   9.000000E+99

> <Gold.Chemscore.Hbonds>
donor molecule, donor type, donor heavy atom, donor atom, acceptor molecule, acceptor atom, score
      L1  H    12    44       P1  7948  0.97
      P1  H  7989  7998       L1     8  0.49

> <Gold.Chemscore.Hbond.Weighted>
-5.1270

> <Gold.Chemscore.Metal.Weighted>
-0.0000

> <Gold.Chemscore.Lipo.Weighted>
-8.2261

> <Gold.Chemscore.Internal_Hbond.Weighted>
0.0000

> <Gold.Chemscore.DEClash.Weighted>
0.2980

> <Gold.Chemscore.DEInternal.Weighted>
2.2956

> <Gold.Chemscore.Rot.Weighted>
3.8886

> <Gold.Chemscore.Internal.Correction.Weighted>
   9.000000E+99

> <Gold.Protein.RotatedTorsions>
[ 6907 6896 6895 6894 ] final   69.12 input  -60.11 | X-H torsion
[ 7974 7965 7964 7962 ] final  -97.73 input  175.53 | X-H torsion
[ 8008 7997 7996 7995 ] final   57.02 input   59.86 | X-H torsion
[ 10167 10162 10161 10158 ] final  -73.19 input  -65.29 | X-H torsion
[ 10718 10713 10712 10709 ] final   71.11 input   66.30 | X-H torsion
[ 10763 10752 10751 10750 ] final  114.26 input  -60.55 | X-H torsion
[ 11005 11000 10999 10996 ] final -100.15 input  -57.11 | X-H torsion

> <Gold.Protein.ActiveResidues>
 VAL166  LYS551  ARG553  GLY616  TRP617  ASP618  TYR619  PRO620  LYS621  CYS622 
 ASP623  PHE694  ASN695  SER759  ASP760  ASP761  ALA762  ILE779  LEU786  VAL792 
 PHE793  MET794  SER795  GLU796  ALA797  LYS798  CYS799  TRP800  GLU811  SER814 

> <Gold.Protein.RotatedAtoms>
  152.4665  134.5062  159.9739 H   0  0  0  0  0  0  0  0  0  0  0  0  # atno 6907 bound_to 6896
  151.5099  133.3481  159.2891 H   0  0  0  0  0  0  0  0  0  0  0  0  # atno 6908 bound_to 6896
  150.8652  134.8043  159.7175 H   0  0  0  0  0  0  0  0  0  0  0  0  # atno 6909 bound_to 6896
  145.3299  140.9439  143.2668 H   0  0  0  0  0  0  0  0  0  0  0  0  # atno 7974 bound_to 7965
  155.5270  140.3481  155.4418 H   0  0  0  0  0  0  0  0  0  0  0  0  # atno 8008 bound_to 7997
  156.0745  140.1371  156.9815 H   0  0  0  0  0  0  0  0  0  0  0  0  # atno 8009 bound_to 7997
  154.4545  140.0959  156.6693 H   0  0  0  0  0  0  0  0  0  0  0  0  # atno 8010 bound_to 7997
  140.5131  143.2342  151.7560 H   0  0  0  0  0  0  0  0  0  0  0  0  # atno 10167 bound_to 10162
  157.6434  130.9511  150.0743 H   0  0  0  0  0  0  0  0  0  0  0  0  # atno 10718 bound_to 10713
  153.5047  135.3630  155.2557 H   0  0  0  0  0  0  0  0  0  0  0  0  # atno 10763 bound_to 10752
  154.8746  135.4008  154.3438 H   0  0  0  0  0  0  0  0  0  0  0  0  # atno 10764 bound_to 10752
  153.4080  135.7077  153.6445 H   0  0  0  0  0  0  0  0  0  0  0  0  # atno 10765 bound_to 10752
  141.1281  133.8377  157.1065 H   0  0  0  0  0  0  0  0  0  0  0  0  # atno 11005 bound_to 11000
  144.8872  139.4823  143.6695 LP  0  0  0  0  0  0  0  0  0  0  0  0  # atno 17320 bound_to 7965
  146.3050  139.7549  142.9063 LP  0  0  0  0  0  0  0  0  0  0  0  0  # atno 17321 bound_to 7965
  139.4901  144.4363  151.9816 LP  0  0  0  0  0  0  0  0  0  0  0  0  # atno 17342 bound_to 10162
  140.3456  144.3151  150.5959 LP  0  0  0  0  0  0  0  0  0  0  0  0  # atno 17343 bound_to 10162
  156.1738  130.3647  149.9128 LP  0  0  0  0  0  0  0  0  0  0  0  0  # atno 17370 bound_to 10713
  156.7098  130.8965  151.3608 LP  0  0  0  0  0  0  0  0  0  0  0  0  # atno 17371 bound_to 10713
  140.0301  134.9905  157.0763 LP  0  0  0  0  0  0  0  0  0  0  0  0  # atno 17394 bound_to 11000
  140.4299  134.1791  155.7167 LP  0  0  0  0  0  0  0  0  0  0  0  0  # atno 17395 bound_to 11000

$$$$
