AV-unprocessed.smi:2822|AV-procd|sdf|10883|dock7
  -GOLD-   2272015323D 1   1.00000     0.00000
 Structure written by MMmdl.
 39 41  0  0  0  0  0  0  0  0  1 V2000
  151.7262  144.7156  158.7388 Cl  0  0  0  0  0  0  0  0  0  0  0  0
  152.1871  143.8529  160.1649 C   0  0  0  0  0  0  0  0  0  0  0  0
  152.1129  144.4895  161.4208 C   0  0  0  0  0  0  0  0  0  0  0  0
  152.4528  143.8897  162.5810 N   0  0  0  0  0  0  0  0  0  0  0  0
  152.8846  142.6127  162.5236 C   0  0  0  0  0  0  0  0  0  0  0  0
  152.9959  141.8838  161.3228 C   0  0  0  0  0  0  0  0  0  0  0  0
  152.6393  142.5142  160.1071 C   0  0  0  0  0  0  0  0  0  0  0  0
  152.7225  141.8636  158.8665 N   0  0  0  0  0  0  0  0  0  0  0  0
  152.8288  140.4149  158.7870 C   0  0  0  0  0  0  0  0  0  0  0  0
  151.8821  139.8357  157.7270 C   0  0  1  0  0  0  0  0  0  0  0  0
  150.5825  140.6553  157.6198 C   0  0  0  0  0  0  0  0  0  0  0  0
  149.7126  140.1636  156.5587 N   0  0  0  0  0  0  0  0  0  0  0  0
  148.4898  140.9596  156.4628 C   0  0  0  0  0  0  0  0  0  0  0  0
  147.5372  140.4416  155.3734 C   0  0  0  0  0  0  0  0  0  0  0  0
  148.2526  140.3999  154.0157 C   0  0  0  0  0  0  0  0  0  0  0  0
  149.5642  139.6086  154.1346 C   0  0  0  0  0  0  0  0  0  0  0  0
  150.4364  140.1549  155.2839 C   0  0  2  0  0  0  0  0  0  0  0  0
  151.7476  139.3519  155.4028 C   0  0  0  0  0  0  0  0  0  0  0  0
  152.5412  139.8743  156.4636 O   0  0  0  0  0  0  0  0  0  0  0  0
  151.7704  145.5111  161.4968 H   0  0  0  0  0  0  0  0  0  0  0  0
  153.1514  142.1559  163.4652 H   0  0  0  0  0  0  0  0  0  0  0  0
  153.3510  140.8649  161.3555 H   0  0  0  0  0  0  0  0  0  0  0  0
  152.4986  142.3759  158.0251 H   0  0  0  0  0  0  0  0  0  0  0  0
  153.8572  140.1592  158.5295 H   0  0  0  0  0  0  0  0  0  0  0  0
  152.6172  139.9727  159.7616 H   0  0  0  0  0  0  0  0  0  0  0  0
  151.6377  138.8023  157.9813 H   0  0  0  0  0  0  0  0  0  0  0  0
  150.0527  140.6209  158.5726 H   0  0  0  0  0  0  0  0  0  0  0  0
  150.8293  141.7027  157.4387 H   0  0  0  0  0  0  0  0  0  0  0  0
  147.9712  140.9506  157.4222 H   0  0  0  0  0  0  0  0  0  0  0  0
  148.7412  142.0014  156.2580 H   0  0  0  0  0  0  0  0  0  0  0  0
  147.1881  139.4424  155.6370 H   0  0  0  0  0  0  0  0  0  0  0  0
  146.6526  141.0762  155.3135 H   0  0  0  0  0  0  0  0  0  0  0  0
  147.6066  139.9533  153.2593 H   0  0  0  0  0  0  0  0  0  0  0  0
  148.4672  141.4165  153.6841 H   0  0  0  0  0  0  0  0  0  0  0  0
  149.3386  138.5559  154.3113 H   0  0  0  0  0  0  0  0  0  0  0  0
  150.1091  139.6554  153.1911 H   0  0  0  0  0  0  0  0  0  0  0  0
  150.7063  141.1825  155.0340 H   0  0  0  0  0  0  0  0  0  0  0  0
  151.5442  138.2947  155.5819 H   0  0  0  0  0  0  0  0  0  0  0  0
  152.3182  139.4146  154.4760 H   0  0  0  0  0  0  0  0  0  0  0  0
  1  2  1  0  0  0  0
  2  7  1  0  0  0  0
  2  3  2  0  0  0  0
  3  4  1  0  0  0  0
  3 20  1  0  0  0  0
  4  5  2  0  0  0  0
  5  6  1  0  0  0  0
  5 21  1  0  0  0  0
  6  7  2  0  0  0  0
  6 22  1  0  0  0  0
  7  8  1  0  0  0  0
  8  9  1  0  0  0  0
  8 23  1  0  0  0  0
  9 10  1  0  0  0  0
  9 24  1  0  0  0  0
  9 25  1  0  0  0  0
 10 19  1  0  0  0  0
 10 11  1  0  0  0  0
 10 26  1  0  0  0  0
 11 12  1  0  0  0  0
 11 27  1  0  0  0  0
 11 28  1  0  0  0  0
 12 17  1  0  0  0  0
 12 13  1  0  0  0  0
 13 14  1  0  0  0  0
 13 29  1  0  0  0  0
 13 30  1  0  0  0  0
 14 15  1  0  0  0  0
 14 31  1  0  0  0  0
 14 32  1  0  0  0  0
 15 16  1  0  0  0  0
 15 33  1  0  0  0  0
 15 34  1  0  0  0  0
 16 17  1  0  0  0  0
 16 35  1  0  0  0  0
 16 36  1  0  0  0  0
 17 18  1  0  0  0  0
 17 37  1  0  0  0  0
 18 19  1  0  0  0  0
 18 38  1  0  0  0  0
 18 39  1  0  0  0  0
M  END
> <s_m_source_file>
AV-unprocessed.smi

> <i_m_source_file_index>
2822

> <i_lp_mmshare_version>
43012

> <i_f3d_flags>
0

> <s_epik_input>
Q2xjMVtjSF1uW2NIXVtjSF1jMVtOSF1bQ0gyXVtDQEhdKFtDSDJdMilPW0NIMl1bQ0BASF0oTjIzKVtDSDJdW0NIMl1bQ0gyXVtDSDJdMw==

> <s_epik_cmdline>
J2VwaWtfcHl0aG9uJywgJy1waCcsICc3LjAnLCAnLXRuJywgJzgnLCAnLW1hJywgJzIwMCcsICctbWV0YWxfYmluZGluZycsICctaW1hZScsICc8aW5maWxlLm1hZT4nLCAnLW9tYWUnLCAnPG91dGZpbGUubWFlPic=

> <r_lp_tautomer_probability>
0.999999

> <r_epik_Ionization_Penalty>
2.10064

> <r_epik_Ionization_Penalty_Charging>
0

> <r_epik_Ionization_Penalty_Neutral>
2.10064

> <r_epik_State_Penalty>
2.1757

> <r_epik_Charging_Adjusted_Penalty>
2.1757

> <i_epik_Tot_Q>
0

> <i_epik_Tot_abs_Q>
0

> <r_epik_Metal_State_Penalty>
1.25425

> <b_epik_Metal_Only>
0

> <s_lp_Force_Field>
OPLS_2005

> <r_lp_Energy>
37.6932

> <b_lp_Chiralities_Consistent>
1

> <s_lp_Variant>
AV-unprocessed.smi:2822-24

> <Gold.Version>
5.8.1

> <Gold.Id.Protein>
6NUR|6NUR_protein|mol2

> <Gold.PLP.Fitness>
42.3111

> <Gold.PLP.PLP>
-40.2298

> <Gold.PLP.part.hbond>
-1.0000

> <Gold.PLP.part.metal>
0.0000

> <Gold.PLP.part.buried>
-1.7114

> <Gold.PLP.part.nonpolar>
-37.5346

> <Gold.PLP.part.repulsive>
0.2924

> <Gold.PLP.ligand.clash>
0.0000

> <Gold.PLP.ligand.torsion>
0.4597

> <Gold.PLP.Chemscore.Hbond>
1.0000

> <Gold.PLP.Chemscore.CHOScore>
0.0000

> <Gold.PLP.Chemscore.Metal>
0.0000

> <Gold.Chemscore.Hbonds>
donor molecule, donor type, donor heavy atom, donor atom, acceptor molecule, acceptor atom, score
      P1  H  7997  8008       L1    19  1.00

> <Gold.PLP.Chemscore.Internal.Correction>
0.0007

> <Gold.Rescore>
     Score         DG    S(hbond)    S(metal)    S(lipo)     H(rot)  DE(clash)    DE(int)     intcor
     19.28     -20.22       0.97        0.00     123.60       1.15       0.42       0.52       ----

> <Gold.Chemscore.Fitness>
19.2767

> <Gold.Chemscore.DG>
-20.2238

> <Gold.Chemscore.ZeroCoef>
-5.4800

> <Gold.Chemscore.Hbond>
0.9675

> <Gold.Chemscore.Metal>
0.0000

> <Gold.Chemscore.Lipo>
123.5994

> <Gold.Chemscore.Internal_Hbond>
0.0000

> <Gold.Chemscore.DEClash>
0.4244

> <Gold.Chemscore.DEInternal>
0.5227

> <Gold.Chemscore.Rot>
1.1519

> <Gold.Chemscore.Internal.Correction>
   9.000000E+99

> <Gold.Chemscore.Hbonds>
donor molecule, donor type, donor heavy atom, donor atom, acceptor molecule, acceptor atom, score
      P1  H  7997  8008       L1    19  0.98

> <Gold.Chemscore.Hbond.Weighted>
-3.2314

> <Gold.Chemscore.Metal.Weighted>
-0.0000

> <Gold.Chemscore.Lipo.Weighted>
-14.4611

> <Gold.Chemscore.Internal_Hbond.Weighted>
0.0000

> <Gold.Chemscore.DEClash.Weighted>
0.4244

> <Gold.Chemscore.DEInternal.Weighted>
0.5227

> <Gold.Chemscore.Rot.Weighted>
2.9487

> <Gold.Chemscore.Internal.Correction.Weighted>
   9.000000E+99

> <Gold.Protein.RotatedTorsions>
[ 6907 6896 6895 6894 ] final   19.85 input  -60.11 | X-H torsion
[ 7974 7965 7964 7962 ] final  145.01 input  175.53 | X-H torsion
[ 8008 7997 7996 7995 ] final  -41.33 input   59.86 | X-H torsion
[ 10167 10162 10161 10158 ] final  -37.75 input  -65.29 | X-H torsion
[ 10718 10713 10712 10709 ] final -156.48 input   66.30 | X-H torsion
[ 10763 10752 10751 10750 ] final  173.70 input  -60.55 | X-H torsion
[ 11005 11000 10999 10996 ] final   37.85 input  -57.11 | X-H torsion

> <Gold.Protein.ActiveResidues>
 VAL166  LYS551  ARG553  GLY616  TRP617  ASP618  TYR619  PRO620  LYS621  CYS622 
 ASP623  PHE694  ASN695  SER759  ASP760  ASP761  ALA762  ILE779  LEU786  VAL792 
 PHE793  MET794  SER795  GLU796  ALA797  LYS798  CYS799  TRP800  GLU811  SER814 

> <Gold.Protein.RotatedAtoms>
  151.8873  135.0430  160.0494 H   0  0  0  0  0  0  0  0  0  0  0  0  # atno 6907 bound_to 6896
  152.2465  133.5174  159.5308 H   0  0  0  0  0  0  0  0  0  0  0  0  # atno 6908 bound_to 6896
  150.7070  134.0935  159.3983 H   0  0  0  0  0  0  0  0  0  0  0  0  # atno 6909 bound_to 6896
  144.8788  139.5731  143.5852 H   0  0  0  0  0  0  0  0  0  0  0  0  # atno 7974 bound_to 7965
  154.4005  140.1502  156.3173 H   0  0  0  0  0  0  0  0  0  0  0  0  # atno 8008 bound_to 7997
  155.8561  140.3455  155.5704 H   0  0  0  0  0  0  0  0  0  0  0  0  # atno 8009 bound_to 7997
  155.7931  140.0859  157.1988 H   0  0  0  0  0  0  0  0  0  0  0  0  # atno 8010 bound_to 7997
  140.7110  143.3322  151.2544 H   0  0  0  0  0  0  0  0  0  0  0  0  # atno 10167 bound_to 10162
  156.5271  130.8504  151.2703 H   0  0  0  0  0  0  0  0  0  0  0  0  # atno 10718 bound_to 10713
  154.4437  135.2763  155.1829 H   0  0  0  0  0  0  0  0  0  0  0  0  # atno 10763 bound_to 10752
  154.3685  135.6114  153.5731 H   0  0  0  0  0  0  0  0  0  0  0  0  # atno 10764 bound_to 10752
  152.9842  135.5851  154.4770 H   0  0  0  0  0  0  0  0  0  0  0  0  # atno 10765 bound_to 10752
  140.2184  134.3670  155.8016 H   0  0  0  0  0  0  0  0  0  0  0  0  # atno 11005 bound_to 11000
  146.2980  139.7339  142.9112 LP  0  0  0  0  0  0  0  0  0  0  0  0  # atno 17320 bound_to 7965
  145.3993  141.0383  143.3079 LP  0  0  0  0  0  0  0  0  0  0  0  0  # atno 17321 bound_to 7965
  139.6807  143.9860  152.2807 LP  0  0  0  0  0  0  0  0  0  0  0  0  # atno 17342 bound_to 10162
  139.9489  144.6633  150.8192 LP  0  0  0  0  0  0  0  0  0  0  0  0  # atno 17343 bound_to 10162
  157.7428  130.9897  150.2542 LP  0  0  0  0  0  0  0  0  0  0  0  0  # atno 17370 bound_to 10713
  156.3095  130.3770  149.7675 LP  0  0  0  0  0  0  0  0  0  0  0  0  # atno 17371 bound_to 10713
  141.2224  133.7180  156.8535 LP  0  0  0  0  0  0  0  0  0  0  0  0  # atno 17394 bound_to 11000
  140.1876  134.8989  157.3022 LP  0  0  0  0  0  0  0  0  0  0  0  0  # atno 17395 bound_to 11000

$$$$
