AV-unprocessed.smi:2999|AV-procd|sdf|11427|dock9
  -GOLD-   2272016353D 1   1.00000     0.00000
 Structure written by MMmdl.
 37 39  0  0  0  0  0  0  0  0  3 V2000
  143.1619  136.5687  153.0813 O   0  0  0  0  0  0  0  0  0  0  0  0
  142.6739  135.5893  153.6498 C   0  0  0  0  0  0  0  0  0  0  0  0
  143.3969  134.4696  153.7955 N   0  0  0  0  0  0  0  0  0  0  0  0
  144.7585  134.2519  153.3133 C   0  0  0  0  0  0  0  0  0  0  0  0
  144.9067  132.9338  152.5285 C   0  0  2  0  0  0  0  0  0  0  0  0
  146.3716  132.5151  152.2604 C   0  0  0  0  0  0  0  0  0  0  0  0
  146.4439  131.2732  151.4568 N   0  3  1  0  0  0  0  0  0  0  0  0
  146.1644  130.0465  152.2386 C   0  0  0  0  0  0  0  0  0  0  0  0
  147.4013  129.4085  152.8266 C   0  0  0  0  0  0  0  0  0  0  0  0
  146.7335  128.7927  151.6172 C   0  0  0  0  0  0  0  0  0  0  0  0
  145.6233  131.3902  150.2282 C   0  0  0  0  0  0  0  0  0  0  0  0
  144.1874  131.8417  150.5540 C   0  0  0  0  0  0  0  0  0  0  0  0
  144.2188  133.0603  151.2871 O   0  0  0  0  0  0  0  0  0  0  0  0
  141.4245  135.4971  154.1567 N   0  5  0  0  0  0  0  0  0  0  0  0
  140.5766  136.5328  154.0467 C   0  0  0  0  0  0  0  0  0  0  0  0
  140.8482  137.6232  153.3205 N   0  0  0  0  0  0  0  0  0  0  0  0
  139.8236  138.5717  153.3391 C   0  0  0  0  0  0  0  0  0  0  0  0
  138.7439  138.1910  154.0912 C   0  0  0  0  0  0  0  0  0  0  0  0
  138.9836  136.6210  154.8033 S   0  0  0  0  0  0  0  0  0  0  0  0
  142.9541  133.6957  154.2691 H   0  0  0  0  0  0  0  0  0  0  0  0
  145.0915  135.0911  152.7007 H   0  0  0  0  0  0  0  0  0  0  0  0
  145.4199  134.2348  154.1798 H   0  0  0  0  0  0  0  0  0  0  0  0
  144.4131  132.1574  153.1149 H   0  0  0  0  0  0  0  0  0  0  0  0
  146.8894  133.2910  151.6965 H   0  0  0  0  0  0  0  0  0  0  0  0
  146.9184  132.3937  153.1961 H   0  0  0  0  0  0  0  0  0  0  0  0
  145.2208  130.0105  152.7794 H   0  0  0  0  0  0  0  0  0  0  0  0
  148.3585  129.9042  152.6748 H   0  0  0  0  0  0  0  0  0  0  0  0
  147.2936  128.8870  153.7755 H   0  0  0  0  0  0  0  0  0  0  0  0
  146.1866  127.8645  151.7688 H   0  0  0  0  0  0  0  0  0  0  0  0
  147.2485  128.8784  150.6619 H   0  0  0  0  0  0  0  0  0  0  0  0
  146.0916  132.1242  149.5713 H   0  0  0  0  0  0  0  0  0  0  0  0
  145.6183  130.4447  149.6847 H   0  0  0  0  0  0  0  0  0  0  0  0
  143.6296  132.0029  149.6314 H   0  0  0  0  0  0  0  0  0  0  0  0
  143.6491  131.0774  151.1161 H   0  0  0  0  0  0  0  0  0  0  0  0
  139.9473  139.4907  152.7859 H   0  0  0  0  0  0  0  0  0  0  0  0
  137.8276  138.7335  154.2687 H   0  0  0  0  0  0  0  0  0  0  0  0
  147.4038  131.1875  151.1538 H   0  0  0  0  0  0  0  0  0  0  0  0
  1  2  2  0  0  0  0
  2  3  1  0  0  0  0
  2 14  1  0  0  0  0
  3  4  1  0  0  0  0
  3 20  1  0  0  0  0
  4  5  1  0  0  0  0
  4 21  1  0  0  0  0
  4 22  1  0  0  0  0
  5 13  1  0  0  0  0
  5  6  1  0  0  0  0
  5 23  1  0  0  0  0
  6  7  1  0  0  0  0
  6 24  1  0  0  0  0
  6 25  1  0  0  0  0
  7  8  1  0  0  0  0
  7 11  1  0  0  0  0
  7 37  1  0  0  0  0
  8 10  1  0  0  0  0
  8  9  1  0  0  0  0
  8 26  1  0  0  0  0
  9 10  1  0  0  0  0
  9 27  1  0  0  0  0
  9 28  1  0  0  0  0
 10 29  1  0  0  0  0
 10 30  1  0  0  0  0
 11 12  1  0  0  0  0
 11 31  1  0  0  0  0
 11 32  1  0  0  0  0
 12 13  1  0  0  0  0
 12 33  1  0  0  0  0
 12 34  1  0  0  0  0
 14 15  1  0  0  0  0
 15 19  1  0  0  0  0
 15 16  2  0  0  0  0
 16 17  1  0  0  0  0
 17 18  2  0  0  0  0
 17 35  1  0  0  0  0
 18 19  1  0  0  0  0
 18 36  1  0  0  0  0
M  CHG  1   7   1
M  CHG  1  14  -1
M  END
> <s_m_source_file>
AV-unprocessed.smi

> <i_m_source_file_index>
2999

> <i_lp_mmshare_version>
43012

> <i_f3d_flags>
0

> <s_epik_input>
czFbY0hdW2NIXW5jMVtOSF1DKD1PKVtOSF1bQ0gyXVtDQEBIXTJbQ0gyXU4oW0NIMl1bQ0gyXU8yKVtDSF0zW0NIMl1bQ0gyXTM=

> <s_epik_cmdline>
J2VwaWtfcHl0aG9uJywgJy1waCcsICc3LjAnLCAnLXRuJywgJzgnLCAnLW1hJywgJzIwMCcsICctbWV0YWxfYmluZGluZycsICctaW1hZScsICc8aW5maWxlLm1hZT4nLCAnLW9tYWUnLCAnPG91dGZpbGUubWFlPic=

> <r_lp_tautomer_probability>
0.999

> <r_epik_Ionization_Penalty>
7.79196

> <r_epik_Ionization_Penalty_Charging>
6.93299

> <r_epik_Ionization_Penalty_Neutral>
0.858963

> <r_epik_State_Penalty>
7.05108

> <r_epik_Charging_Adjusted_Penalty>
13.9841

> <i_epik_Tot_Q>
0

> <i_epik_Tot_abs_Q>
2

> <r_epik_Metal_State_Penalty>
3.05936

> <b_epik_Metal_Only>
1

> <s_lp_Force_Field>
OPLS_2005

> <r_lp_Energy>
16.1762

> <b_lp_Chiralities_Consistent>
1

> <s_lp_Variant>
AV-unprocessed.smi:2999-11

> <Gold.Version>
5.8.1

> <Gold.Id.Protein>
6NUR|6NUR_protein|mol2

> <Gold.PLP.Fitness>
42.5359

> <Gold.PLP.PLP>
-32.8062

> <Gold.PLP.part.hbond>
-2.7951

> <Gold.PLP.part.metal>
0.0000

> <Gold.PLP.part.buried>
-5.7091

> <Gold.PLP.part.nonpolar>
-25.8896

> <Gold.PLP.part.repulsive>
0.6481

> <Gold.PLP.ligand.clash>
0.0000

> <Gold.PLP.ligand.torsion>
0.7693

> <Gold.PLP.Chemscore.Hbond>
2.3229

> <Gold.PLP.Chemscore.CHOScore>
1.0000

> <Gold.PLP.Chemscore.Metal>
0.0000

> <Gold.Chemscore.Hbonds>
donor molecule, donor type, donor heavy atom, donor atom, acceptor molecule, acceptor atom, score
      L1  H     3    20       P1 10957  1.00
      L1  H     7    37       P1 10747  1.00
      P1  H 11000 11005       L1    14  0.37
      L1  C    17    35       P1 10160  1.00

> <Gold.PLP.Chemscore.Internal.Correction>
1.2994

> <Gold.Rescore>
     Score         DG    S(hbond)    S(metal)    S(lipo)     H(rot)  DE(clash)    DE(int)     intcor
     15.41     -18.04       2.03        0.00      83.38       1.55       0.15       2.48       ----

> <Gold.Chemscore.Fitness>
15.4064

> <Gold.Chemscore.DG>
-18.0405

> <Gold.Chemscore.ZeroCoef>
-5.4800

> <Gold.Chemscore.Hbond>
2.0281

> <Gold.Chemscore.Metal>
0.0000

> <Gold.Chemscore.Lipo>
83.3808

> <Gold.Chemscore.Internal_Hbond>
0.0000

> <Gold.Chemscore.DEClash>
0.1519

> <Gold.Chemscore.DEInternal>
2.4822

> <Gold.Chemscore.Rot>
1.5504

> <Gold.Chemscore.Internal.Correction>
   9.000000E+99

> <Gold.Chemscore.Hbonds>
donor molecule, donor type, donor heavy atom, donor atom, acceptor molecule, acceptor atom, score
      L1  H     3    20       P1 10957  0.93
      L1  H     7    37       P1 10747  1.00
      P1  H 11000 11005       L1    14  0.10

> <Gold.Chemscore.Hbond.Weighted>
-6.7739

> <Gold.Chemscore.Metal.Weighted>
-0.0000

> <Gold.Chemscore.Lipo.Weighted>
-9.7556

> <Gold.Chemscore.Internal_Hbond.Weighted>
0.0000

> <Gold.Chemscore.DEClash.Weighted>
0.1519

> <Gold.Chemscore.DEInternal.Weighted>
2.4822

> <Gold.Chemscore.Rot.Weighted>
3.9690

> <Gold.Chemscore.Internal.Correction.Weighted>
   9.000000E+99

> <Gold.Protein.RotatedTorsions>
[ 6907 6896 6895 6894 ] final  -92.65 input  -60.11 | X-H torsion
[ 7974 7965 7964 7962 ] final -175.02 input  175.53 | X-H torsion
[ 8008 7997 7996 7995 ] final -143.40 input   59.86 | X-H torsion
[ 10167 10162 10161 10158 ] final  127.68 input  -65.29 | X-H torsion
[ 10718 10713 10712 10709 ] final  145.80 input   66.30 | X-H torsion
[ 10763 10752 10751 10750 ] final   25.72 input  -60.55 | X-H torsion
[ 11005 11000 10999 10996 ] final   27.93 input  -57.11 | X-H torsion

> <Gold.Protein.ActiveResidues>
 VAL166  LYS551  ARG553  GLY616  TRP617  ASP618  TYR619  PRO620  LYS621  CYS622 
 ASP623  PHE694  ASN695  SER759  ASP760  ASP761  ALA762  ILE779  LEU786  VAL792 
 PHE793  MET794  SER795  GLU796  ALA797  LYS798  CYS799  TRP800  GLU811  SER814 

> <Gold.Protein.RotatedAtoms>
  150.6909  134.2089  159.4351 H   0  0  0  0  0  0  0  0  0  0  0  0  # atno 6907 bound_to 6896
  152.0052  134.9904  160.0575 H   0  0  0  0  0  0  0  0  0  0  0  0  # atno 6908 bound_to 6896
  152.1541  133.4505  159.4865 H   0  0  0  0  0  0  0  0  0  0  0  0  # atno 6909 bound_to 6896
  144.7129  140.1384  143.6393 H   0  0  0  0  0  0  0  0  0  0  0  0  # atno 7974 bound_to 7965
  155.5100  140.0582  157.2925 H   0  0  0  0  0  0  0  0  0  0  0  0  # atno 8008 bound_to 7997
  154.4555  140.1970  156.0340 H   0  0  0  0  0  0  0  0  0  0  0  0  # atno 8009 bound_to 7997
  156.0790  140.3249  155.7674 H   0  0  0  0  0  0  0  0  0  0  0  0  # atno 8010 bound_to 7997
  139.5566  144.6853  151.4165 H   0  0  0  0  0  0  0  0  0  0  0  0  # atno 10167 bound_to 10162
  157.3410  131.0935  151.1083 H   0  0  0  0  0  0  0  0  0  0  0  0  # atno 10718 bound_to 10713
  153.0672  135.6576  154.0328 H   0  0  0  0  0  0  0  0  0  0  0  0  # atno 10763 bound_to 10752
  153.9982  135.2939  155.3407 H   0  0  0  0  0  0  0  0  0  0  0  0  # atno 10764 bound_to 10752
  154.7034  135.5235  153.8629 H   0  0  0  0  0  0  0  0  0  0  0  0  # atno 10765 bound_to 10752
  140.3210  134.2543  155.7717 H   0  0  0  0  0  0  0  0  0  0  0  0  # atno 11005 bound_to 11000
  145.9224  139.2554  143.1374 LP  0  0  0  0  0  0  0  0  0  0  0  0  # atno 17320 bound_to 7965
  145.9607  140.8838  143.0212 LP  0  0  0  0  0  0  0  0  0  0  0  0  # atno 17321 bound_to 7965
  140.6839  143.8018  150.7159 LP  0  0  0  0  0  0  0  0  0  0  0  0  # atno 17342 bound_to 10162
  140.1480  143.4383  152.2150 LP  0  0  0  0  0  0  0  0  0  0  0  0  # atno 17343 bound_to 10162
  157.2295  130.6518  149.5844 LP  0  0  0  0  0  0  0  0  0  0  0  0  # atno 17370 bound_to 10713
  155.9707  130.4603  150.6069 LP  0  0  0  0  0  0  0  0  0  0  0  0  # atno 17371 bound_to 10713
  141.2086  133.7772  157.0046 LP  0  0  0  0  0  0  0  0  0  0  0  0  # atno 17394 bound_to 11000
  140.0942  134.9574  157.1823 LP  0  0  0  0  0  0  0  0  0  0  0  0  # atno 17395 bound_to 11000

$$$$
