AV-unprocessed.smi:2414|AV-procd|sdf|9538|dock10
  -GOLD-   2272013173D 1   1.00000     0.00000
 Structure written by MMmdl.
 43 44  0  0  0  0  0  0  0  0  1 V2000
  152.7204  138.5216  155.6560 C   0  0  0  0  0  0  0  0  0  0  0  0
  151.4582  139.2212  155.2815 C   0  0  0  0  0  0  0  0  0  0  0  0
  151.0143  140.4451  155.7171 C   0  0  0  0  0  0  0  0  0  0  0  0
  149.7794  140.8205  155.1835 N   0  0  0  0  0  0  0  0  0  0  0  0
  149.2831  139.9024  154.3493 C   0  0  0  0  0  0  0  0  0  0  0  0
  147.9600  140.0307  153.6567 C   0  0  2  0  0  0  0  0  0  0  0  0
  147.3530  141.4309  153.8211 C   0  0  0  0  0  0  0  0  0  0  0  0
  146.9711  138.8991  154.0172 C   0  0  0  0  0  0  0  0  0  0  0  0
  146.9534  137.8248  153.0287 N   0  0  0  0  0  0  0  0  0  0  0  0
  145.8493  137.2365  152.5505 C   0  0  0  0  0  0  0  0  0  0  0  0
  144.7081  137.4974  152.9311 O   0  0  0  0  0  0  0  0  0  0  0  0
  146.1415  136.3511  151.5889 N   0  0  0  0  0  0  0  0  0  0  0  0
  145.1746  135.5673  150.8247 C   0  0  0  0  0  0  0  0  0  0  0  0
  145.1634  134.0751  151.2298 C   0  0  1  0  0  0  0  0  0  0  0  0
  145.1408  133.9434  152.7626 C   0  0  0  0  0  0  0  0  0  0  0  0
  144.0255  133.2515  150.5935 C   0  0  0  0  0  0  0  0  0  0  0  0
  144.6957  131.9341  150.2706 C   0  0  0  0  0  0  0  0  0  0  0  0
  146.0910  132.3987  149.8812 C   0  0  0  0  0  0  0  0  0  0  0  0
  146.3758  133.4592  150.7860 O   0  0  0  0  0  0  0  0  0  0  0  0
  150.3301  138.4998  154.1647 S   0  0  0  0  0  0  0  0  0  0  0  0
  153.3221  139.1308  156.3307 H   0  0  0  0  0  0  0  0  0  0  0  0
  153.3200  138.3060  154.7715 H   0  0  0  0  0  0  0  0  0  0  0  0
  152.5053  137.5782  156.1574 H   0  0  0  0  0  0  0  0  0  0  0  0
  151.5093  141.1122  156.4073 H   0  0  0  0  0  0  0  0  0  0  0  0
  148.1722  139.9249  152.5921 H   0  0  0  0  0  0  0  0  0  0  0  0
  148.0369  142.1995  153.4601 H   0  0  0  0  0  0  0  0  0  0  0  0
  147.1311  141.6460  154.8668 H   0  0  0  0  0  0  0  0  0  0  0  0
  146.4241  141.5241  153.2579 H   0  0  0  0  0  0  0  0  0  0  0  0
  147.2617  138.4525  154.9686 H   0  0  0  0  0  0  0  0  0  0  0  0
  145.9650  139.2972  154.1589 H   0  0  0  0  0  0  0  0  0  0  0  0
  147.8455  137.5395  152.6524 H   0  0  0  0  0  0  0  0  0  0  0  0
  147.1127  136.2220  151.3460 H   0  0  0  0  0  0  0  0  0  0  0  0
  144.1932  136.0039  151.0117 H   0  0  0  0  0  0  0  0  0  0  0  0
  145.3469  135.6639  149.7514 H   0  0  0  0  0  0  0  0  0  0  0  0
  144.2369  134.3850  153.1834 H   0  0  0  0  0  0  0  0  0  0  0  0
  145.9960  134.4472  153.2139 H   0  0  0  0  0  0  0  0  0  0  0  0
  145.1755  132.8990  153.0741 H   0  0  0  0  0  0  0  0  0  0  0  0
  143.1598  133.1348  151.2460 H   0  0  0  0  0  0  0  0  0  0  0  0
  143.6706  133.7015  149.6677 H   0  0  0  0  0  0  0  0  0  0  0  0
  144.7411  131.3025  151.1585 H   0  0  0  0  0  0  0  0  0  0  0  0
  144.1917  131.3780  149.4801 H   0  0  0  0  0  0  0  0  0  0  0  0
  146.8348  131.6046  149.9454 H   0  0  0  0  0  0  0  0  0  0  0  0
  146.0938  132.7892  148.8624 H   0  0  0  0  0  0  0  0  0  0  0  0
  1  2  1  0  0  0  0
  1 21  1  0  0  0  0
  1 22  1  0  0  0  0
  1 23  1  0  0  0  0
  2 20  1  0  0  0  0
  2  3  2  0  0  0  0
  3  4  1  0  0  0  0
  3 24  1  0  0  0  0
  4  5  2  0  0  0  0
  5  6  1  0  0  0  0
  5 20  1  0  0  0  0
  6  7  1  0  0  0  0
  6  8  1  0  0  0  0
  6 25  1  0  0  0  0
  7 26  1  0  0  0  0
  7 27  1  0  0  0  0
  7 28  1  0  0  0  0
  8  9  1  0  0  0  0
  8 29  1  0  0  0  0
  8 30  1  0  0  0  0
  9 10  1  0  0  0  0
  9 31  1  0  0  0  0
 10 11  2  0  0  0  0
 10 12  1  0  0  0  0
 12 13  1  0  0  0  0
 12 32  1  0  0  0  0
 13 14  1  0  0  0  0
 13 33  1  0  0  0  0
 13 34  1  0  0  0  0
 14 19  1  0  0  0  0
 14 15  1  0  0  0  0
 14 16  1  0  0  0  0
 15 35  1  0  0  0  0
 15 36  1  0  0  0  0
 15 37  1  0  0  0  0
 16 17  1  0  0  0  0
 16 38  1  0  0  0  0
 16 39  1  0  0  0  0
 17 18  1  0  0  0  0
 17 40  1  0  0  0  0
 17 41  1  0  0  0  0
 18 19  1  0  0  0  0
 18 42  1  0  0  0  0
 18 43  1  0  0  0  0
M  END
> <s_m_source_file>
AV-unprocessed.smi

> <i_m_source_file_index>
2414

> <i_lp_mmshare_version>
43012

> <i_f3d_flags>
0

> <s_epik_input>
W0NIM11jMVtjSF1uYyhzMSlbQ0BIXShbQ0gzXSlbQ0gyXVtOSF1DKD1PKVtOSF1bQ0gyXVtDQEBdMihbQ0gzXSlbQ0gyXVtDSDJdW0NIMl1PMg==

> <s_epik_cmdline>
J2VwaWtfcHl0aG9uJywgJy1waCcsICc3LjAnLCAnLXRuJywgJzgnLCAnLW1hJywgJzIwMCcsICctbWV0YWxfYmluZGluZycsICctaW1hZScsICc8aW5maWxlLm1hZT4nLCAnLW9tYWUnLCAnPG91dGZpbGUubWFlPic=

> <r_epik_Ionization_Penalty>
0.000646956

> <r_epik_Ionization_Penalty_Charging>
0

> <r_epik_Ionization_Penalty_Neutral>
0.000646956

> <r_epik_State_Penalty>
0.000375727

> <r_epik_Charging_Adjusted_Penalty>
0.000375727

> <i_epik_Tot_Q>
0

> <i_epik_Tot_abs_Q>
0

> <r_epik_Metal_State_Penalty>
-0

> <b_epik_Metal_Only>
0

> <s_lp_Force_Field>
OPLS_2005

> <r_lp_Energy>
5.80605

> <b_lp_Chiralities_Consistent>
1

> <s_lp_Variant>
AV-unprocessed.smi:2414-1

> <Gold.Version>
5.8.1

> <Gold.Id.Protein>
6NUR|6NUR_protein|mol2

> <Gold.PLP.Fitness>
43.3767

> <Gold.PLP.PLP>
-39.1106

> <Gold.PLP.part.hbond>
-2.3094

> <Gold.PLP.part.metal>
0.0000

> <Gold.PLP.part.buried>
-3.0350

> <Gold.PLP.part.nonpolar>
-34.5484

> <Gold.PLP.part.repulsive>
0.6187

> <Gold.PLP.ligand.clash>
0.0000

> <Gold.PLP.ligand.torsion>
0.9305

> <Gold.PLP.Chemscore.Hbond>
2.0000

> <Gold.PLP.Chemscore.CHOScore>
0.0000

> <Gold.PLP.Chemscore.Metal>
0.0000

> <Gold.Chemscore.Hbonds>
donor molecule, donor type, donor heavy atom, donor atom, acceptor molecule, acceptor atom, score
      L1  H     9    31       P1  7948  1.00
      L1  H    12    32       P1  7948  1.00

> <Gold.PLP.Chemscore.Internal.Correction>
0.1272

> <Gold.Rescore>
     Score         DG    S(hbond)    S(metal)    S(lipo)     H(rot)  DE(clash)    DE(int)     intcor
     17.63     -18.98       1.91        0.00      96.92       1.65       0.37       0.98       ----

> <Gold.Chemscore.Fitness>
17.6284

> <Gold.Chemscore.DG>
-18.9801

> <Gold.Chemscore.ZeroCoef>
-5.4800

> <Gold.Chemscore.Hbond>
1.9133

> <Gold.Chemscore.Metal>
0.0000

> <Gold.Chemscore.Lipo>
96.9163

> <Gold.Chemscore.Internal_Hbond>
0.0000

> <Gold.Chemscore.DEClash>
0.3708

> <Gold.Chemscore.DEInternal>
0.9810

> <Gold.Chemscore.Rot>
1.6522

> <Gold.Chemscore.Internal.Correction>
   9.000000E+99

> <Gold.Chemscore.Hbonds>
donor molecule, donor type, donor heavy atom, donor atom, acceptor molecule, acceptor atom, score
      L1  H     9    31       P1  7948  0.95
      L1  H    12    32       P1  7948  0.95

> <Gold.Chemscore.Hbond.Weighted>
-6.3905

> <Gold.Chemscore.Metal.Weighted>
-0.0000

> <Gold.Chemscore.Lipo.Weighted>
-11.3392

> <Gold.Chemscore.Internal_Hbond.Weighted>
0.0000

> <Gold.Chemscore.DEClash.Weighted>
0.3708

> <Gold.Chemscore.DEInternal.Weighted>
0.9810

> <Gold.Chemscore.Rot.Weighted>
4.2295

> <Gold.Chemscore.Internal.Correction.Weighted>
   9.000000E+99

> <Gold.Protein.RotatedTorsions>
[ 6907 6896 6895 6894 ] final -164.58 input  -60.11 | X-H torsion
[ 7974 7965 7964 7962 ] final  179.07 input  175.53 | X-H torsion
[ 8008 7997 7996 7995 ] final  146.81 input   59.86 | X-H torsion
[ 10167 10162 10161 10158 ] final   38.80 input  -65.29 | X-H torsion
[ 10718 10713 10712 10709 ] final -170.82 input   66.30 | X-H torsion
[ 10763 10752 10751 10750 ] final  -49.86 input  -60.55 | X-H torsion
[ 11005 11000 10999 10996 ] final  109.79 input  -57.11 | X-H torsion

> <Gold.Protein.ActiveResidues>
 VAL166  LYS551  ARG553  GLY616  TRP617  ASP618  TYR619  PRO620  LYS621  CYS622 
 ASP623  PHE694  ASN695  SER759  ASP760  ASP761  ALA762  ILE779  LEU786  VAL792 
 PHE793  MET794  SER795  GLU796  ALA797  LYS798  CYS799  TRP800  GLU811  SER814 

> <Gold.Protein.RotatedAtoms>
  151.4141  133.3718  159.2747 H   0  0  0  0  0  0  0  0  0  0  0  0  # atno 6907 bound_to 6896
  150.9342  134.8756  159.7581 H   0  0  0  0  0  0  0  0  0  0  0  0  # atno 6908 bound_to 6896
  152.5042  134.4087  159.9493 H   0  0  0  0  0  0  0  0  0  0  0  0  # atno 6909 bound_to 6896
  144.7149  140.0492  143.6435 H   0  0  0  0  0  0  0  0  0  0  0  0  # atno 7974 bound_to 7965
  156.2844  140.2172  156.5437 H   0  0  0  0  0  0  0  0  0  0  0  0  # atno 8008 bound_to 7997
  154.7349  140.0492  157.0782 H   0  0  0  0  0  0  0  0  0  0  0  0  # atno 8009 bound_to 7997
  155.0306  140.3134  155.4763 H   0  0  0  0  0  0  0  0  0  0  0  0  # atno 8010 bound_to 7997
  140.3901  144.1863  150.6131 H   0  0  0  0  0  0  0  0  0  0  0  0  # atno 10167 bound_to 10162
  156.7317  130.9309  151.3105 H   0  0  0  0  0  0  0  0  0  0  0  0  # atno 10718 bound_to 10713
  154.1010  135.6563  153.4868 H   0  0  0  0  0  0  0  0  0  0  0  0  # atno 10763 bound_to 10752
  153.0288  135.5225  154.7286 H   0  0  0  0  0  0  0  0  0  0  0  0  # atno 10764 bound_to 10752
  154.6438  135.2992  155.0040 H   0  0  0  0  0  0  0  0  0  0  0  0  # atno 10765 bound_to 10752
  139.8869  134.9467  156.6179 H   0  0  0  0  0  0  0  0  0  0  0  0  # atno 11005 bound_to 11000
  145.9958  139.3051  143.0957 LP  0  0  0  0  0  0  0  0  0  0  0  0  # atno 17320 bound_to 7965
  145.8850  140.9339  143.0581 LP  0  0  0  0  0  0  0  0  0  0  0  0  # atno 17321 bound_to 7965
  140.4848  143.2367  151.8903 LP  0  0  0  0  0  0  0  0  0  0  0  0  # atno 17342 bound_to 10162
  139.4789  144.5230  151.8774 LP  0  0  0  0  0  0  0  0  0  0  0  0  # atno 17343 bound_to 10162
  157.6856  130.9182  150.0377 LP  0  0  0  0  0  0  0  0  0  0  0  0  # atno 17370 bound_to 10713
  156.1524  130.3642  149.9418 LP  0  0  0  0  0  0  0  0  0  0  0  0  # atno 17371 bound_to 10713
  140.7761  133.8698  155.8530 LP  0  0  0  0  0  0  0  0  0  0  0  0  # atno 17394 bound_to 11000
  140.9800  134.1418  157.4503 LP  0  0  0  0  0  0  0  0  0  0  0  0  # atno 17395 bound_to 11000

$$$$
