AV-unprocessed.smi:2494|AV-procd|sdf|9822|dock1
  -GOLD-   2272013453D 1   1.00000     0.00000
 Structure written by MMmdl.
 30 31  0  0  0  0  0  0  0  0  1 V2000
  151.5349  144.1640  161.9759 O   0  0  0  0  0  0  0  0  0  0  0  0
  152.2058  144.5560  160.7976 C   0  0  0  0  0  0  0  0  0  0  0  0
  151.9990  143.4946  159.7045 C   0  0  0  0  0  0  0  0  0  0  0  0
  153.1096  142.4110  159.6541 C   0  0  1  0  0  0  0  0  0  0  0  0
  153.7344  142.2127  161.0579 C   0  0  0  0  0  0  0  0  0  0  0  0
  154.7049  141.1744  161.0455 O   0  0  0  0  0  0  0  0  0  0  0  0
  154.1279  139.9287  160.6869 C   0  0  0  0  0  0  0  0  0  0  0  0
  153.5801  140.0362  159.2593 C   0  0  0  0  0  0  0  0  0  0  0  0
  152.6101  141.1220  159.1484 N   0  0  0  0  0  0  0  0  0  0  0  0
  151.8845  141.0666  157.9651 C   0  0  0  0  0  0  0  0  0  0  0  0
  152.3352  140.2648  156.9904 N   0  0  0  0  0  0  0  0  0  0  0  0
  151.6015  140.1999  155.8581 C   0  0  0  0  0  0  0  0  0  0  0  0
  150.4086  140.9346  155.7097 C   0  0  0  0  0  0  0  0  0  0  0  0
  149.4667  140.8539  154.2668 Cl  0  0  0  0  0  0  0  0  0  0  0  0
  150.0240  141.7366  156.8025 C   0  0  0  0  0  0  0  0  0  0  0  0
  150.7635  141.7955  157.9313 N   0  0  0  0  0  0  0  0  0  0  0  0
  150.6415  144.4690  161.9291 H   0  0  0  0  0  0  0  0  0  0  0  0
  151.8178  145.5222  160.4739 H   0  0  0  0  0  0  0  0  0  0  0  0
  153.2613  144.6858  161.0341 H   0  0  0  0  0  0  0  0  0  0  0  0
  151.0277  143.0162  159.8382 H   0  0  0  0  0  0  0  0  0  0  0  0
  151.9404  144.0226  158.7534 H   0  0  0  0  0  0  0  0  0  0  0  0
  153.8937  142.7457  158.9733 H   0  0  0  0  0  0  0  0  0  0  0  0
  154.2369  143.1207  161.3884 H   0  0  0  0  0  0  0  0  0  0  0  0
  152.9658  141.9891  161.8000 H   0  0  0  0  0  0  0  0  0  0  0  0
  154.8931  139.1542  160.7387 H   0  0  0  0  0  0  0  0  0  0  0  0
  153.3424  139.6521  161.3920 H   0  0  0  0  0  0  0  0  0  0  0  0
  154.3972  140.2159  158.5591 H   0  0  0  0  0  0  0  0  0  0  0  0
  153.1204  139.0887  158.9751 H   0  0  0  0  0  0  0  0  0  0  0  0
  151.9674  139.5573  155.0710 H   0  0  0  0  0  0  0  0  0  0  0  0
  149.1219  142.3297  156.7739 H   0  0  0  0  0  0  0  0  0  0  0  0
  1  2  1  0  0  0  0
  1 17  1  0  0  0  0
  2  3  1  0  0  0  0
  2 18  1  0  0  0  0
  2 19  1  0  0  0  0
  3  4  1  0  0  0  0
  3 20  1  0  0  0  0
  3 21  1  0  0  0  0
  4  9  1  0  0  0  0
  4  5  1  0  0  0  0
  4 22  1  0  0  0  0
  5  6  1  0  0  0  0
  5 23  1  0  0  0  0
  5 24  1  0  0  0  0
  6  7  1  0  0  0  0
  7  8  1  0  0  0  0
  7 25  1  0  0  0  0
  7 26  1  0  0  0  0
  8  9  1  0  0  0  0
  8 27  1  0  0  0  0
  8 28  1  0  0  0  0
  9 10  1  0  0  0  0
 10 16  1  0  0  0  0
 10 11  2  0  0  0  0
 11 12  1  0  0  0  0
 12 13  2  0  0  0  0
 12 29  1  0  0  0  0
 13 14  1  0  0  0  0
 13 15  1  0  0  0  0
 15 16  2  0  0  0  0
 15 30  1  0  0  0  0
M  END
> <s_m_source_file>
AV-unprocessed.smi

> <i_m_source_file_index>
2494

> <i_lp_mmshare_version>
43012

> <i_f3d_flags>
0

> <s_epik_input>
W09IXVtDSDJdW0NIMl1bQ0BASF0xW0NIMl1PW0NIMl1bQ0gyXU4xYzJuW2NIXWMoQ2wpW2NIXW4y

> <s_epik_cmdline>
J2VwaWtfcHl0aG9uJywgJy1waCcsICc3LjAnLCAnLXRuJywgJzgnLCAnLW1hJywgJzIwMCcsICctbWV0YWxfYmluZGluZycsICctaW1hZScsICc8aW5maWxlLm1hZT4nLCAnLW9tYWUnLCAnPG91dGZpbGUubWFlPic=

> <r_lp_tautomer_probability>
1

> <r_epik_Ionization_Penalty>
3.66811e-07

> <r_epik_Ionization_Penalty_Charging>
0

> <r_epik_Ionization_Penalty_Neutral>
3.66811e-07

> <r_epik_State_Penalty>
-0

> <r_epik_Charging_Adjusted_Penalty>
0

> <i_epik_Tot_Q>
0

> <i_epik_Tot_abs_Q>
0

> <r_epik_Metal_State_Penalty>
-0

> <b_epik_Metal_Only>
0

> <s_lp_Force_Field>
OPLS_2005

> <r_lp_Energy>
15.3646

> <b_lp_Chiralities_Consistent>
1

> <s_lp_Variant>
AV-unprocessed.smi:2494-2

> <Gold.Version>
5.8.1

> <Gold.Id.Protein>
6NUR|6NUR_protein|mol2

> <Gold.PLP.Fitness>
38.4479

> <Gold.PLP.PLP>
-35.0416

> <Gold.PLP.part.hbond>
-3.9695

> <Gold.PLP.part.metal>
0.0000

> <Gold.PLP.part.buried>
-2.6590

> <Gold.PLP.part.nonpolar>
-27.4726

> <Gold.PLP.part.repulsive>
0.0426

> <Gold.PLP.ligand.clash>
0.0327

> <Gold.PLP.ligand.torsion>
0.7934

> <Gold.PLP.Chemscore.Hbond>
0.8775

> <Gold.PLP.Chemscore.CHOScore>
0.6843

> <Gold.PLP.Chemscore.Metal>
0.0000

> <Gold.Chemscore.Hbonds>
donor molecule, donor type, donor heavy atom, donor atom, acceptor molecule, acceptor atom, score
      P1  H  7997  8009       L1    11  0.91
      L1  C    15    30       P1  8028  0.66

> <Gold.PLP.Chemscore.Internal.Correction>
0.3402

> <Gold.Rescore>
     Score         DG    S(hbond)    S(metal)    S(lipo)     H(rot)  DE(clash)    DE(int)     intcor
     10.79     -13.14       0.87        0.00      85.19       2.04       0.12       2.24       ----

> <Gold.Chemscore.Fitness>
10.7858

> <Gold.Chemscore.DG>
-13.1407

> <Gold.Chemscore.ZeroCoef>
-5.4800

> <Gold.Chemscore.Hbond>
0.8750

> <Gold.Chemscore.Metal>
0.0000

> <Gold.Chemscore.Lipo>
85.1863

> <Gold.Chemscore.Internal_Hbond>
0.0000

> <Gold.Chemscore.DEClash>
0.1153

> <Gold.Chemscore.DEInternal>
2.2396

> <Gold.Chemscore.Rot>
2.0424

> <Gold.Chemscore.Internal.Correction>
   9.000000E+99

> <Gold.Chemscore.Hbonds>
donor molecule, donor type, donor heavy atom, donor atom, acceptor molecule, acceptor atom, score
      P1  H  7997  8009       L1    11  0.62

> <Gold.Chemscore.Hbond.Weighted>
-2.9223

> <Gold.Chemscore.Metal.Weighted>
-0.0000

> <Gold.Chemscore.Lipo.Weighted>
-9.9668

> <Gold.Chemscore.Internal_Hbond.Weighted>
0.0000

> <Gold.Chemscore.DEClash.Weighted>
0.1153

> <Gold.Chemscore.DEInternal.Weighted>
2.2396

> <Gold.Chemscore.Rot.Weighted>
5.2285

> <Gold.Chemscore.Internal.Correction.Weighted>
   9.000000E+99

> <Gold.Protein.RotatedTorsions>
[ 6907 6896 6895 6894 ] final  -12.77 input  -60.11 | X-H torsion
[ 7974 7965 7964 7962 ] final  -32.66 input  175.53 | X-H torsion
[ 8008 7997 7996 7995 ] final -173.42 input   59.86 | X-H torsion
[ 10167 10162 10161 10158 ] final   88.94 input  -65.29 | X-H torsion
[ 10718 10713 10712 10709 ] final  170.10 input   66.30 | X-H torsion
[ 10763 10752 10751 10750 ] final -101.27 input  -60.55 | X-H torsion
[ 11005 11000 10999 10996 ] final  -27.57 input  -57.11 | X-H torsion

> <Gold.Protein.ActiveResidues>
 VAL166  LYS551  ARG553  GLY616  TRP617  ASP618  TYR619  PRO620  LYS621  CYS622 
 ASP623  PHE694  ASN695  SER759  ASP760  ASP761  ALA762  ILE779  LEU786  VAL792 
 PHE793  MET794  SER795  GLU796  ALA797  LYS798  CYS799  TRP800  GLU811  SER814 

> <Gold.Protein.RotatedAtoms>
  151.3654  135.0912  159.9447 H   0  0  0  0  0  0  0  0  0  0  0  0  # atno 6907 bound_to 6896
  152.5150  133.9217  159.7548 H   0  0  0  0  0  0  0  0  0  0  0  0  # atno 6908 bound_to 6896
  150.9620  133.6380  159.2782 H   0  0  0  0  0  0  0  0  0  0  0  0  # atno 6909 bound_to 6896
  146.0972  140.5820  142.8837 H   0  0  0  0  0  0  0  0  0  0  0  0  # atno 7974 bound_to 7965
  155.9572  140.1137  157.0927 H   0  0  0  0  0  0  0  0  0  0  0  0  # atno 8008 bound_to 7997
  154.4123  140.1189  156.5197 H   0  0  0  0  0  0  0  0  0  0  0  0  # atno 8009 bound_to 7997
  155.6767  140.3473  155.4841 H   0  0  0  0  0  0  0  0  0  0  0  0  # atno 8010 bound_to 7997
  139.8622  144.6538  150.9045 H   0  0  0  0  0  0  0  0  0  0  0  0  # atno 10167 bound_to 10162
  157.0130  131.0209  151.2797 H   0  0  0  0  0  0  0  0  0  0  0  0  # atno 10718 bound_to 10713
  154.7645  135.4904  153.9527 H   0  0  0  0  0  0  0  0  0  0  0  0  # atno 10763 bound_to 10752
  153.1291  135.6749  153.9216 H   0  0  0  0  0  0  0  0  0  0  0  0  # atno 10764 bound_to 10752
  153.8925  135.3119  155.3426 H   0  0  0  0  0  0  0  0  0  0  0  0  # atno 10765 bound_to 10752
  140.9131  133.7447  156.0698 H   0  0  0  0  0  0  0  0  0  0  0  0  # atno 11005 bound_to 11000
  144.7405  140.4928  143.6873 LP  0  0  0  0  0  0  0  0  0  0  0  0  # atno 17320 bound_to 7965
  145.5924  139.1497  143.3174 LP  0  0  0  0  0  0  0  0  0  0  0  0  # atno 17321 bound_to 7965
  140.7773  143.3734  151.1607 LP  0  0  0  0  0  0  0  0  0  0  0  0  # atno 17342 bound_to 10162
  139.7362  143.8995  152.3036 LP  0  0  0  0  0  0  0  0  0  0  0  0  # atno 17343 bound_to 10162
  157.5306  130.8056  149.7913 LP  0  0  0  0  0  0  0  0  0  0  0  0  # atno 17370 bound_to 10713
  156.0129  130.3825  150.2204 LP  0  0  0  0  0  0  0  0  0  0  0  0  # atno 17371 bound_to 10713
  140.8084  134.3427  157.5419 LP  0  0  0  0  0  0  0  0  0  0  0  0  # atno 17394 bound_to 11000
  139.8761  134.9239  156.3338 LP  0  0  0  0  0  0  0  0  0  0  0  0  # atno 17395 bound_to 11000

$$$$
