AV-unprocessed.smi:2037|AV-procd|sdf|8276|dock2
  -GOLD-   2272010543D 1   1.00000     0.00000
 Structure written by MMmdl.
 39 40  0  0  0  0  0  0  0  0  2 V2000
  145.5952  129.9139  151.4787 C   0  0  0  0  0  0  0  0  0  0  0  0
  145.3414  131.4201  151.6315 C   0  0  2  0  0  0  0  0  0  0  0  0
  144.3106  131.9310  150.6114 C   0  0  0  0  0  0  0  0  0  0  0  0
  144.0870  133.4458  150.7546 C   0  0  0  0  0  0  0  0  0  0  0  0
  145.3631  134.1944  150.6165 N   0  3  1  0  0  0  0  0  0  0  0  0
  145.1536  135.6639  150.6249 C   0  0  0  0  0  0  0  0  0  0  0  0
  145.1789  136.2532  152.0490 C   0  0  0  0  0  0  0  0  0  0  0  0
  146.4549  136.8964  152.3404 N   0  0  0  0  0  0  0  0  0  0  0  0
  146.6179  137.9175  153.1944 C   0  0  0  0  0  0  0  0  0  0  0  0
  145.6888  138.4263  153.8224 O   0  0  0  0  0  0  0  0  0  0  0  0
  147.9058  138.2975  153.2640 N   0  0  0  0  0  0  0  0  0  0  0  0
  148.4700  139.3449  154.0390 C   0  0  0  0  0  0  0  0  0  0  0  0
  149.7649  139.4273  154.3668 N   0  0  0  0  0  0  0  0  0  0  0  0
  150.0394  140.5608  155.1365 C   0  0  0  0  0  0  0  0  0  0  0  0
  148.9336  141.3347  155.3879 C   0  0  0  0  0  0  0  0  0  0  0  0
  147.4950  140.6669  154.6639 S   0  0  0  0  0  0  0  0  0  0  0  0
  146.3683  133.7423  151.6156 C   0  0  0  0  0  0  0  0  0  0  0  0
  146.6385  132.2337  151.4884 C   0  0  0  0  0  0  0  0  0  0  0  0
  145.9954  129.6760  150.4926 H   0  0  0  0  0  0  0  0  0  0  0  0
  144.6739  129.3455  151.6098 H   0  0  0  0  0  0  0  0  0  0  0  0
  146.3095  129.5590  152.2221 H   0  0  0  0  0  0  0  0  0  0  0  0
  144.9417  131.5895  152.6326 H   0  0  0  0  0  0  0  0  0  0  0  0
  144.6486  131.7067  149.5984 H   0  0  0  0  0  0  0  0  0  0  0  0
  143.3633  131.4069  150.7433 H   0  0  0  0  0  0  0  0  0  0  0  0
  143.3812  133.7738  149.9904 H   0  0  0  0  0  0  0  0  0  0  0  0
  143.6345  133.6708  151.7220 H   0  0  0  0  0  0  0  0  0  0  0  0
  145.9460  136.1451  150.0499 H   0  0  0  0  0  0  0  0  0  0  0  0
  144.2186  135.8997  150.1142 H   0  0  0  0  0  0  0  0  0  0  0  0
  144.3759  136.9751  152.2001 H   0  0  0  0  0  0  0  0  0  0  0  0
  145.0244  135.4603  152.7813 H   0  0  0  0  0  0  0  0  0  0  0  0
  147.2699  136.5348  151.8663 H   0  0  0  0  0  0  0  0  0  0  0  0
  148.5601  137.7799  152.6957 H   0  0  0  0  0  0  0  0  0  0  0  0
  151.0528  140.7401  155.4641 H   0  0  0  0  0  0  0  0  0  0  0  0
  148.8784  142.2532  155.9530 H   0  0  0  0  0  0  0  0  0  0  0  0
  147.3068  134.2790  151.4823 H   0  0  0  0  0  0  0  0  0  0  0  0
  146.0141  133.9752  152.6212 H   0  0  0  0  0  0  0  0  0  0  0  0
  147.3580  131.9256  152.2479 H   0  0  0  0  0  0  0  0  0  0  0  0
  147.1024  132.0270  150.5227 H   0  0  0  0  0  0  0  0  0  0  0  0
  145.7277  133.9624  149.7036 H   0  0  0  0  0  0  0  0  0  0  0  0
  1  2  1  0  0  0  0
  1 19  1  0  0  0  0
  1 20  1  0  0  0  0
  1 21  1  0  0  0  0
  2 18  1  0  0  0  0
  2  3  1  0  0  0  0
  2 22  1  0  0  0  0
  3  4  1  0  0  0  0
  3 23  1  0  0  0  0
  3 24  1  0  0  0  0
  4  5  1  0  0  0  0
  4 25  1  0  0  0  0
  4 26  1  0  0  0  0
  5  6  1  0  0  0  0
  5 17  1  0  0  0  0
  5 39  1  0  0  0  0
  6  7  1  0  0  0  0
  6 27  1  0  0  0  0
  6 28  1  0  0  0  0
  7  8  1  0  0  0  0
  7 29  1  0  0  0  0
  7 30  1  0  0  0  0
  8  9  1  0  0  0  0
  8 31  1  0  0  0  0
  9 10  2  0  0  0  0
  9 11  1  0  0  0  0
 11 12  1  0  0  0  0
 11 32  1  0  0  0  0
 12 16  1  0  0  0  0
 12 13  2  0  0  0  0
 13 14  1  0  0  0  0
 14 15  2  0  0  0  0
 14 33  1  0  0  0  0
 15 16  1  0  0  0  0
 15 34  1  0  0  0  0
 17 18  1  0  0  0  0
 17 35  1  0  0  0  0
 17 36  1  0  0  0  0
 18 37  1  0  0  0  0
 18 38  1  0  0  0  0
M  CHG  1   5   1
M  END
> <s_m_source_file>
AV-unprocessed.smi

> <i_m_source_file_index>
2037

> <i_lp_mmshare_version>
43012

> <i_f3d_flags>
0

> <s_epik_input>
W0NIM11bQ0hdMVtDSDJdW0NIMl1OKFtDSDJdW0NIMl0xKVtDSDJdW0NIMl1bTkhdQyg9TylbTkhdYzJuW2NIXVtjSF1zMg==

> <s_epik_cmdline>
J2VwaWtfcHl0aG9uJywgJy1waCcsICc3LjAnLCAnLXRuJywgJzgnLCAnLW1hJywgJzIwMCcsICctbWV0YWxfYmluZGluZycsICctaW1hZScsICc8aW5maWxlLm1hZT4nLCAnLW9tYWUnLCAnPG91dGZpbGUubWFlPic=

> <r_lp_tautomer_probability>
0.999

> <r_epik_Ionization_Penalty>
0.00182893

> <r_epik_Ionization_Penalty_Charging>
0.00168873

> <r_epik_Ionization_Penalty_Neutral>
0.000140204

> <r_epik_State_Penalty>
0.00114045

> <r_epik_Charging_Adjusted_Penalty>
0.00282917

> <i_epik_Tot_Q>
1

> <i_epik_Tot_abs_Q>
1

> <r_epik_Metal_State_Penalty>
0.0569426

> <b_epik_Metal_Only>
0

> <s_lp_Force_Field>
OPLS_2005

> <r_lp_Energy>
13.393

> <b_lp_Chiralities_Consistent>
1

> <s_lp_Variant>
AV-unprocessed.smi:2037-1

> <Gold.Version>
5.8.1

> <Gold.Id.Protein>
6NUR|6NUR_protein|mol2

> <Gold.PLP.Fitness>
39.4670

> <Gold.PLP.PLP>
-30.5600

> <Gold.PLP.part.hbond>
-3.5504

> <Gold.PLP.part.metal>
0.0000

> <Gold.PLP.part.buried>
-1.7422

> <Gold.PLP.part.nonpolar>
-26.6595

> <Gold.PLP.part.repulsive>
1.2582

> <Gold.PLP.ligand.clash>
0.0000

> <Gold.PLP.ligand.torsion>
0.8519

> <Gold.PLP.Chemscore.Hbond>
2.5294

> <Gold.PLP.Chemscore.CHOScore>
1.0000

> <Gold.PLP.Chemscore.Metal>
0.0000

> <Gold.Chemscore.Hbonds>
donor molecule, donor type, donor heavy atom, donor atom, acceptor molecule, acceptor atom, score
      L1  H     5    39       P1  7921  0.36
      L1  H     8    31       P1  7948  1.00
      L1  H    11    32       P1  7948  0.98
      L1  C    15    34       P1  8028  1.00

> <Gold.PLP.Chemscore.Internal.Correction>
0.0225

> <Gold.Rescore>
     Score         DG    S(hbond)    S(metal)    S(lipo)     H(rot)  DE(clash)    DE(int)     intcor
     16.56     -19.67       2.82        0.00      75.89       1.60       1.34       1.76       ----

> <Gold.Chemscore.Fitness>
16.5630

> <Gold.Chemscore.DG>
-19.6687

> <Gold.Chemscore.ZeroCoef>
-5.4800

> <Gold.Chemscore.Hbond>
2.8162

> <Gold.Chemscore.Metal>
0.0000

> <Gold.Chemscore.Lipo>
75.8892

> <Gold.Chemscore.Internal_Hbond>
0.0000

> <Gold.Chemscore.DEClash>
1.3446

> <Gold.Chemscore.DEInternal>
1.7611

> <Gold.Chemscore.Rot>
1.6001

> <Gold.Chemscore.Internal.Correction>
   9.000000E+99

> <Gold.Chemscore.Hbonds>
donor molecule, donor type, donor heavy atom, donor atom, acceptor molecule, acceptor atom, score
      L1  H     5    39       P1  7921  0.16
      L1  H     8    31       P1  7948  0.95
      L1  H    11    32       P1  7948  0.93

> <Gold.Chemscore.Hbond.Weighted>
-9.4060

> <Gold.Chemscore.Metal.Weighted>
-0.0000

> <Gold.Chemscore.Lipo.Weighted>
-8.8790

> <Gold.Chemscore.Internal_Hbond.Weighted>
0.0000

> <Gold.Chemscore.DEClash.Weighted>
1.3446

> <Gold.Chemscore.DEInternal.Weighted>
1.7611

> <Gold.Chemscore.Rot.Weighted>
4.0963

> <Gold.Chemscore.Internal.Correction.Weighted>
   9.000000E+99

> <Gold.Protein.RotatedTorsions>
[ 6907 6896 6895 6894 ] final -165.35 input  -60.11 | X-H torsion
[ 7974 7965 7964 7962 ] final -179.49 input  175.53 | X-H torsion
[ 8008 7997 7996 7995 ] final -141.98 input   59.86 | X-H torsion
[ 10167 10162 10161 10158 ] final -136.82 input  -65.29 | X-H torsion
[ 10718 10713 10712 10709 ] final  -56.61 input   66.30 | X-H torsion
[ 10763 10752 10751 10750 ] final  -78.18 input  -60.55 | X-H torsion
[ 11005 11000 10999 10996 ] final  -27.30 input  -57.11 | X-H torsion

> <Gold.Protein.ActiveResidues>
 VAL166  LYS551  ARG553  GLY616  TRP617  ASP618  TYR619  PRO620  LYS621  CYS622 
 ASP623  PHE694  ASN695  SER759  ASP760  ASP761  ALA762  ILE779  LEU786  VAL792 
 PHE793  MET794  SER795  GLU796  ALA797  LYS798  CYS799  TRP800  GLU811  SER814 

> <Gold.Protein.RotatedAtoms>
  151.4262  133.3683  159.2762 H   0  0  0  0  0  0  0  0  0  0  0  0  # atno 6907 bound_to 6896
  150.9257  134.8675  159.7529 H   0  0  0  0  0  0  0  0  0  0  0  0  # atno 6908 bound_to 6896
  152.5004  134.4204  159.9530 H   0  0  0  0  0  0  0  0  0  0  0  0  # atno 6909 bound_to 6896
  144.7137  140.0709  143.6429 H   0  0  0  0  0  0  0  0  0  0  0  0  # atno 7974 bound_to 7965
  155.4867  140.0564  157.2959 H   0  0  0  0  0  0  0  0  0  0  0  0  # atno 8008 bound_to 7997
  154.4639  140.2009  156.0122 H   0  0  0  0  0  0  0  0  0  0  0  0  # atno 8009 bound_to 7997
  156.0940  140.3229  155.7857 H   0  0  0  0  0  0  0  0  0  0  0  0  # atno 8010 bound_to 7997
  139.8639  143.7042  152.2647 H   0  0  0  0  0  0  0  0  0  0  0  0  # atno 10167 bound_to 10162
  156.1275  130.4161  150.0329 H   0  0  0  0  0  0  0  0  0  0  0  0  # atno 10718 bound_to 10713
  154.5226  135.5738  153.6693 H   0  0  0  0  0  0  0  0  0  0  0  0  # atno 10763 bound_to 10752
  152.9920  135.6185  154.2735 H   0  0  0  0  0  0  0  0  0  0  0  0  # atno 10764 bound_to 10752
  154.2657  135.2855  155.2739 H   0  0  0  0  0  0  0  0  0  0  0  0  # atno 10765 bound_to 10752
  140.9107  133.7463  156.0667 H   0  0  0  0  0  0  0  0  0  0  0  0  # atno 11005 bound_to 11000
  145.9784  139.2922  143.1057 LP  0  0  0  0  0  0  0  0  0  0  0  0  # atno 17320 bound_to 7965
  145.9038  140.9225  143.0489 LP  0  0  0  0  0  0  0  0  0  0  0  0  # atno 17321 bound_to 7965
  139.7347  144.7574  151.0746 LP  0  0  0  0  0  0  0  0  0  0  0  0  # atno 17342 bound_to 10162
  140.7771  143.5045  150.9730 LP  0  0  0  0  0  0  0  0  0  0  0  0  # atno 17343 bound_to 10162
  156.8250  130.9372  151.3639 LP  0  0  0  0  0  0  0  0  0  0  0  0  # atno 17370 bound_to 10713
  157.6455  130.8841  149.9531 LP  0  0  0  0  0  0  0  0  0  0  0  0  # atno 17371 bound_to 10713
  140.8114  134.3395  157.5410 LP  0  0  0  0  0  0  0  0  0  0  0  0  # atno 17394 bound_to 11000
  139.8757  134.9256  156.3379 LP  0  0  0  0  0  0  0  0  0  0  0  0  # atno 17395 bound_to 11000

$$$$
