AV-unprocessed.smi:2445|AV-procd|sdf|9640|dock6
  -GOLD-   2272013273D 1   1.00000     0.00000
 Structure written by MMmdl.
 40 41  0  0  0  0  0  0  0  0  1 V2000
  144.4036  132.4389  149.7046 C   0  0  0  0  0  0  0  0  0  0  0  0
  145.2032  132.9194  150.8675 C   0  0  0  0  0  0  0  0  0  0  0  0
  145.9360  134.0763  150.9622 C   0  0  0  0  0  0  0  0  0  0  0  0
  146.5756  134.2400  152.1926 N   0  0  0  0  0  0  0  0  0  0  0  0
  146.3380  133.2287  153.0323 C   0  0  0  0  0  0  0  0  0  0  0  0
  146.9268  133.1443  154.4092 C   0  0  1  0  0  0  0  0  0  0  0  0
  146.4159  131.9173  155.1773 C   0  0  0  0  0  0  0  0  0  0  0  0
  148.4700  133.2351  154.4101 C   0  0  0  0  0  0  0  0  0  0  0  0
  148.9596  134.5744  154.0952 N   0  0  0  0  0  0  0  0  0  0  0  0
  149.5205  135.4128  154.9765 C   0  0  0  0  0  0  0  0  0  0  0  0
  149.7547  135.1245  156.1501 O   0  0  0  0  0  0  0  0  0  0  0  0
  149.7658  136.6119  154.4325 N   0  0  0  0  0  0  0  0  0  0  0  0
  150.2779  137.7686  155.1597 C   0  0  1  0  0  0  0  0  0  0  0  0
  151.7574  137.6358  155.4553 C   0  0  0  0  0  0  0  0  0  0  0  0
  152.1834  139.0910  155.6282 C   0  0  0  0  0  0  0  0  0  0  0  0
  151.2930  139.8653  154.8304 O   0  0  0  0  0  0  0  0  0  0  0  0
  150.2545  139.0431  154.3065 C   0  0  2  0  0  0  0  0  0  0  0  0
  148.9198  139.7985  154.3231 C   0  0  0  0  0  0  0  0  0  0  0  0
  145.2994  131.9870  152.3381 S   0  0  0  0  0  0  0  0  0  0  0  0
  144.3259  133.2083  148.9359 H   0  0  0  0  0  0  0  0  0  0  0  0
  143.3933  132.1705  150.0136 H   0  0  0  0  0  0  0  0  0  0  0  0
  144.8653  131.5591  149.2562 H   0  0  0  0  0  0  0  0  0  0  0  0
  146.0579  134.8368  150.2052 H   0  0  0  0  0  0  0  0  0  0  0  0
  146.5593  134.0144  154.9554 H   0  0  0  0  0  0  0  0  0  0  0  0
  145.3271  131.9185  155.2378 H   0  0  0  0  0  0  0  0  0  0  0  0
  146.8027  131.9040  156.1966 H   0  0  0  0  0  0  0  0  0  0  0  0
  146.7223  130.9887  154.6952 H   0  0  0  0  0  0  0  0  0  0  0  0
  148.8738  132.9046  155.3682 H   0  0  0  0  0  0  0  0  0  0  0  0
  148.8760  132.5601  153.6562 H   0  0  0  0  0  0  0  0  0  0  0  0
  148.8099  134.9043  153.1530 H   0  0  0  0  0  0  0  0  0  0  0  0
  149.5375  136.7501  153.4589 H   0  0  0  0  0  0  0  0  0  0  0  0
  149.7414  137.9254  156.0980 H   0  0  0  0  0  0  0  0  0  0  0  0
  151.9671  137.0235  156.3328 H   0  0  0  0  0  0  0  0  0  0  0  0
  152.2811  137.2000  154.6029 H   0  0  0  0  0  0  0  0  0  0  0  0
  152.0686  139.3994  156.6681 H   0  0  0  0  0  0  0  0  0  0  0  0
  153.2218  139.2555  155.3400 H   0  0  0  0  0  0  0  0  0  0  0  0
  150.5258  138.8028  153.2770 H   0  0  0  0  0  0  0  0  0  0  0  0
  148.1211  139.1960  153.8900 H   0  0  0  0  0  0  0  0  0  0  0  0
  148.9880  140.7199  153.7447 H   0  0  0  0  0  0  0  0  0  0  0  0
  148.6279  140.0634  155.3396 H   0  0  0  0  0  0  0  0  0  0  0  0
  1  2  1  0  0  0  0
  1 20  1  0  0  0  0
  1 21  1  0  0  0  0
  1 22  1  0  0  0  0
  2 19  1  0  0  0  0
  2  3  2  0  0  0  0
  3  4  1  0  0  0  0
  3 23  1  0  0  0  0
  4  5  2  0  0  0  0
  5  6  1  0  0  0  0
  5 19  1  0  0  0  0
  6  7  1  0  0  0  0
  6  8  1  0  0  0  0
  6 24  1  0  0  0  0
  7 25  1  0  0  0  0
  7 26  1  0  0  0  0
  7 27  1  0  0  0  0
  8  9  1  0  0  0  0
  8 28  1  0  0  0  0
  8 29  1  0  0  0  0
  9 10  1  0  0  0  0
  9 30  1  0  0  0  0
 10 11  2  0  0  0  0
 10 12  1  0  0  0  0
 12 13  1  0  0  0  0
 12 31  1  0  0  0  0
 13 17  1  0  0  0  0
 13 14  1  0  0  0  0
 13 32  1  0  0  0  0
 14 15  1  0  0  0  0
 14 33  1  0  0  0  0
 14 34  1  0  0  0  0
 15 16  1  0  0  0  0
 15 35  1  0  0  0  0
 15 36  1  0  0  0  0
 16 17  1  0  0  0  0
 17 18  1  0  0  0  0
 17 37  1  0  0  0  0
 18 38  1  0  0  0  0
 18 39  1  0  0  0  0
 18 40  1  0  0  0  0
M  END
> <s_m_source_file>
AV-unprocessed.smi

> <i_m_source_file_index>
2445

> <i_lp_mmshare_version>
43012

> <i_f3d_flags>
0

> <s_epik_input>
W0NIM11jMVtjSF1uYyhzMSlbQ0BIXShbQ0gzXSlbQ0gyXVtOSF1DKD1PKVtOSF1bQ0BASF0yW0NIMl1bQ0gyXU9bQ0BIXTJbQ0gzXQ==

> <s_epik_cmdline>
J2VwaWtfcHl0aG9uJywgJy1waCcsICc3LjAnLCAnLXRuJywgJzgnLCAnLW1hJywgJzIwMCcsICctbWV0YWxfYmluZGluZycsICctaW1hZScsICc8aW5maWxlLm1hZT4nLCAnLW9tYWUnLCAnPG91dGZpbGUubWFlPic=

> <r_epik_Ionization_Penalty>
0.000649483

> <r_epik_Ionization_Penalty_Charging>
0

> <r_epik_Ionization_Penalty_Neutral>
0.000649483

> <r_epik_State_Penalty>
0.000379895

> <r_epik_Charging_Adjusted_Penalty>
0.000379895

> <i_epik_Tot_Q>
0

> <i_epik_Tot_abs_Q>
0

> <r_epik_Metal_State_Penalty>
-0

> <b_epik_Metal_Only>
0

> <s_lp_Force_Field>
OPLS_2005

> <r_lp_Energy>
5.35471

> <b_lp_Chiralities_Consistent>
1

> <s_lp_Variant>
AV-unprocessed.smi:2445-8

> <Gold.Version>
5.8.1

> <Gold.Id.Protein>
6NUR|6NUR_protein|mol2

> <Gold.PLP.Fitness>
42.4913

> <Gold.PLP.PLP>
-31.0794

> <Gold.PLP.part.hbond>
-3.1766

> <Gold.PLP.part.metal>
0.0000

> <Gold.PLP.part.buried>
-5.3217

> <Gold.PLP.part.nonpolar>
-24.0454

> <Gold.PLP.part.repulsive>
0.7692

> <Gold.PLP.ligand.clash>
0.0000

> <Gold.PLP.ligand.torsion>
0.3513

> <Gold.PLP.Chemscore.Hbond>
3.0000

> <Gold.PLP.Chemscore.CHOScore>
1.0000

> <Gold.PLP.Chemscore.Metal>
0.0000

> <Gold.Chemscore.Hbonds>
donor molecule, donor type, donor heavy atom, donor atom, acceptor molecule, acceptor atom, score
      L1  H     9    30       P1  7948  1.00
      L1  H    12    31       P1  7948  1.00
      P1  H  7989  7998       L1    16  1.00
      L1  C     3    23       P1  7921  0.92

> <Gold.PLP.Chemscore.Internal.Correction>
0.1145

> <Gold.Rescore>
     Score         DG    S(hbond)    S(metal)    S(lipo)     H(rot)  DE(clash)    DE(int)     intcor
     17.69     -17.99       2.21        0.00      77.46       1.53       0.03       0.27       ----

> <Gold.Chemscore.Fitness>
17.6888

> <Gold.Chemscore.DG>
-17.9870

> <Gold.Chemscore.ZeroCoef>
-5.4800

> <Gold.Chemscore.Hbond>
2.2059

> <Gold.Chemscore.Metal>
0.0000

> <Gold.Chemscore.Lipo>
77.4582

> <Gold.Chemscore.Internal_Hbond>
0.0000

> <Gold.Chemscore.DEClash>
0.0263

> <Gold.Chemscore.DEInternal>
0.2719

> <Gold.Chemscore.Rot>
1.5325

> <Gold.Chemscore.Internal.Correction>
   9.000000E+99

> <Gold.Chemscore.Hbonds>
donor molecule, donor type, donor heavy atom, donor atom, acceptor molecule, acceptor atom, score
      L1  H     9    30       P1  7948  0.29
      L1  H    12    31       P1  7948  0.73
      P1  H  7989  7998       L1    16  0.35

> <Gold.Chemscore.Hbond.Weighted>
-7.3677

> <Gold.Chemscore.Metal.Weighted>
-0.0000

> <Gold.Chemscore.Lipo.Weighted>
-9.0626

> <Gold.Chemscore.Internal_Hbond.Weighted>
0.0000

> <Gold.Chemscore.DEClash.Weighted>
0.0263

> <Gold.Chemscore.DEInternal.Weighted>
0.2719

> <Gold.Chemscore.Rot.Weighted>
3.9233

> <Gold.Chemscore.Internal.Correction.Weighted>
   9.000000E+99

> <Gold.Protein.RotatedTorsions>
[ 6907 6896 6895 6894 ] final   66.66 input  -60.11 | X-H torsion
[ 7974 7965 7964 7962 ] final  171.70 input  175.53 | X-H torsion
[ 8008 7997 7996 7995 ] final -160.93 input   59.86 | X-H torsion
[ 10167 10162 10161 10158 ] final  -19.44 input  -65.29 | X-H torsion
[ 10718 10713 10712 10709 ] final -173.57 input   66.30 | X-H torsion
[ 10763 10752 10751 10750 ] final   -6.81 input  -60.55 | X-H torsion
[ 11005 11000 10999 10996 ] final  107.44 input  -57.11 | X-H torsion

> <Gold.Protein.ActiveResidues>
 VAL166  LYS551  ARG553  GLY616  TRP617  ASP618  TYR619  PRO620  LYS621  CYS622 
 ASP623  PHE694  ASN695  SER759  ASP760  ASP761  ALA762  ILE779  LEU786  VAL792 
 PHE793  MET794  SER795  GLU796  ALA797  LYS798  CYS799  TRP800  GLU811  SER814 

> <Gold.Protein.RotatedAtoms>
  152.4497  134.5420  159.9841 H   0  0  0  0  0  0  0  0  0  0  0  0  # atno 6907 bound_to 6896
  151.5495  133.3414  159.2958 H   0  0  0  0  0  0  0  0  0  0  0  0  # atno 6908 bound_to 6896
  150.8423  134.7751  159.7005 H   0  0  0  0  0  0  0  0  0  0  0  0  # atno 6909 bound_to 6896
  144.7287  139.9389  143.6428 H   0  0  0  0  0  0  0  0  0  0  0  0  # atno 7974 bound_to 7965
  155.7848  140.0870  157.2040 H   0  0  0  0  0  0  0  0  0  0  0  0  # atno 8008 bound_to 7997
  154.3988  140.1501  156.3151 H   0  0  0  0  0  0  0  0  0  0  0  0  # atno 8009 bound_to 7997
  155.8618  140.3430  155.5764 H   0  0  0  0  0  0  0  0  0  0  0  0  # atno 8010 bound_to 7997
  140.7268  143.4819  151.0107 H   0  0  0  0  0  0  0  0  0  0  0  0  # atno 10167 bound_to 10162
  156.7722  130.9453  151.3120 H   0  0  0  0  0  0  0  0  0  0  0  0  # atno 10718 bound_to 10713
  153.4175  135.7009  153.6316 H   0  0  0  0  0  0  0  0  0  0  0  0  # atno 10763 bound_to 10752
  153.4785  135.3699  155.2429 H   0  0  0  0  0  0  0  0  0  0  0  0  # atno 10764 bound_to 10752
  154.8720  135.4060  154.3538 H   0  0  0  0  0  0  0  0  0  0  0  0  # atno 10765 bound_to 10752
  139.8828  134.9401  156.5820 H   0  0  0  0  0  0  0  0  0  0  0  0  # atno 11005 bound_to 11000
  146.0800  139.3788  143.0470 LP  0  0  0  0  0  0  0  0  0  0  0  0  # atno 17320 bound_to 7965
  145.7854  140.9838  143.1077 LP  0  0  0  0  0  0  0  0  0  0  0  0  # atno 17321 bound_to 7965
  139.8517  143.7429  152.3177 LP  0  0  0  0  0  0  0  0  0  0  0  0  # atno 17342 bound_to 10162
  139.7613  144.7505  151.0359 LP  0  0  0  0  0  0  0  0  0  0  0  0  # atno 17343 bound_to 10162
  157.6685  130.9030  149.9987 LP  0  0  0  0  0  0  0  0  0  0  0  0  # atno 17370 bound_to 10713
  156.1271  130.3644  149.9792 LP  0  0  0  0  0  0  0  0  0  0  0  0  # atno 17371 bound_to 10713
  140.8020  133.8498  155.8735 LP  0  0  0  0  0  0  0  0  0  0  0  0  # atno 17394 bound_to 11000
  140.9584  134.1688  157.4673 LP  0  0  0  0  0  0  0  0  0  0  0  0  # atno 17395 bound_to 11000

$$$$
