AV-unprocessed.smi:243|AV-procd|sdf|1851|dock4
  -GOLD-   2262020473D 1   1.00000     0.00000
 Structure written by MMmdl.
 58 61  0  0  0  0  0  0  0  0  2 V2000
  152.5267  144.6775  158.2851 C   0  0  0  0  0  0  0  0  0  0  0  0
  151.8960  143.4410  158.9420 C   0  0  0  0  0  0  0  0  0  0  0  0
  151.8604  142.2674  158.0331 N   0  3  1  0  0  0  0  0  0  0  0  0
  151.7376  140.9891  158.7728 C   0  0  0  0  0  0  0  0  0  0  0  0
  151.9006  139.8072  157.8128 C   0  0  0  0  0  0  0  0  0  0  0  0
  150.8399  139.8373  156.6903 C   0  0  2  0  0  0  0  0  0  0  0  0
  150.9200  138.6647  155.8007 N   0  0  0  0  0  0  0  0  0  0  0  0
  151.8833  138.6655  154.7053 C   0  0  0  0  0  0  0  0  0  0  0  0
  150.5276  137.4417  156.2416 C   0  0  0  0  0  0  0  0  0  0  0  0
  151.1579  136.3502  155.7382 N   0  0  0  0  0  0  0  0  0  0  0  0
  150.8214  135.1238  156.1462 C   0  0  0  0  0  0  0  0  0  0  0  0
  149.8982  134.7676  157.0399 N   0  0  0  0  0  0  0  0  0  0  0  0
  149.2709  135.8586  157.5644 C   0  0  0  0  0  0  0  0  0  0  0  0
  149.5289  137.2204  157.2349 C   0  0  0  0  0  0  0  0  0  0  0  0
  148.7049  138.0466  157.9902 N   0  0  0  0  0  0  0  0  0  0  0  0
  147.9982  137.2244  158.7152 C   0  0  0  0  0  0  0  0  0  0  0  0
  148.2621  135.8896  158.5112 N   0  0  0  0  0  0  0  0  0  0  0  0
  147.6221  134.7642  159.1736 C   0  0  0  0  0  0  0  0  0  0  0  0
  146.4450  135.1671  160.0987 C   0  0  1  0  0  0  0  0  0  0  0  0
  145.4052  135.7448  159.3320 O   0  0  0  0  0  0  0  0  0  0  0  0
  145.9009  133.9827  160.8802 C   0  0  0  0  0  0  0  0  0  0  0  0
  146.8198  133.9253  162.0996 C   0  0  0  0  0  0  0  0  0  0  0  0
  147.3114  135.2495  162.2886 O   0  0  0  0  0  0  0  0  0  0  0  0
  146.8383  136.1004  161.2501 C   0  0  0  0  0  0  0  0  0  0  0  0
  150.8917  141.2097  155.9588 C   0  0  1  0  0  0  0  0  0  0  0  0
  149.7635  141.4048  154.9306 C   0  0  0  0  0  0  0  0  0  0  0  0
  150.8210  142.3718  156.9771 C   0  0  0  0  0  0  0  0  0  0  0  0
  152.6344  145.4831  159.0117 H   0  0  0  0  0  0  0  0  0  0  0  0
  151.9198  145.0634  157.4666 H   0  0  0  0  0  0  0  0  0  0  0  0
  153.5194  144.4531  157.8934 H   0  0  0  0  0  0  0  0  0  0  0  0
  152.4926  143.1948  159.8214 H   0  0  0  0  0  0  0  0  0  0  0  0
  150.8916  143.6661  159.3038 H   0  0  0  0  0  0  0  0  0  0  0  0
  152.5084  140.9295  159.5425 H   0  0  0  0  0  0  0  0  0  0  0  0
  150.7733  140.9417  159.2817 H   0  0  0  0  0  0  0  0  0  0  0  0
  152.9075  139.8594  157.4005 H   0  0  0  0  0  0  0  0  0  0  0  0
  151.8328  138.8700  158.3664 H   0  0  0  0  0  0  0  0  0  0  0  0
  149.8680  139.7742  157.1820 H   0  0  0  0  0  0  0  0  0  0  0  0
  151.6728  137.8569  154.0037 H   0  0  0  0  0  0  0  0  0  0  0  0
  152.9065  138.5495  155.0579 H   0  0  0  0  0  0  0  0  0  0  0  0
  151.8227  139.6029  154.1519 H   0  0  0  0  0  0  0  0  0  0  0  0
  151.3705  134.3118  155.6925 H   0  0  0  0  0  0  0  0  0  0  0  0
  147.2543  137.5707  159.4181 H   0  0  0  0  0  0  0  0  0  0  0  0
  147.2751  134.0713  158.4061 H   0  0  0  0  0  0  0  0  0  0  0  0
  148.3857  134.2300  159.7401 H   0  0  0  0  0  0  0  0  0  0  0  0
  144.9847  135.0614  158.8327 H   0  0  0  0  0  0  0  0  0  0  0  0
  144.8813  134.1826  161.2143 H   0  0  0  0  0  0  0  0  0  0  0  0
  145.8859  133.0526  160.3109 H   0  0  0  0  0  0  0  0  0  0  0  0
  146.2997  133.5668  162.9881 H   0  0  0  0  0  0  0  0  0  0  0  0
  147.6662  133.2629  161.9146 H   0  0  0  0  0  0  0  0  0  0  0  0
  147.5711  136.8597  160.9814 H   0  0  0  0  0  0  0  0  0  0  0  0
  145.9595  136.6220  161.6333 H   0  0  0  0  0  0  0  0  0  0  0  0
  151.8442  141.2859  155.4317 H   0  0  0  0  0  0  0  0  0  0  0  0
  148.7837  141.2392  155.3797 H   0  0  0  0  0  0  0  0  0  0  0  0
  149.8624  140.7331  154.0830 H   0  0  0  0  0  0  0  0  0  0  0  0
  149.7738  142.4165  154.5239 H   0  0  0  0  0  0  0  0  0  0  0  0
  149.8364  142.3992  157.4472 H   0  0  0  0  0  0  0  0  0  0  0  0
  150.9359  143.3137  156.4419 H   0  0  0  0  0  0  0  0  0  0  0  0
  152.7562  142.2391  157.5670 H   0  0  0  0  0  0  0  0  0  0  0  0
  1  2  1  0  0  0  0
  1 28  1  0  0  0  0
  1 29  1  0  0  0  0
  1 30  1  0  0  0  0
  2  3  1  0  0  0  0
  2 31  1  0  0  0  0
  2 32  1  0  0  0  0
  3 27  1  0  0  0  0
  3  4  1  0  0  0  0
  3 58  1  0  0  0  0
  4  5  1  0  0  0  0
  4 33  1  0  0  0  0
  4 34  1  0  0  0  0
  5  6  1  0  0  0  0
  5 35  1  0  0  0  0
  5 36  1  0  0  0  0
  6  7  1  0  0  0  0
  6 25  1  0  0  0  0
  6 37  1  0  0  0  0
  7  8  1  0  0  0  0
  7  9  1  0  0  0  0
  8 38  1  0  0  0  0
  8 39  1  0  0  0  0
  8 40  1  0  0  0  0
  9 14  1  0  0  0  0
  9 10  2  0  0  0  0
 10 11  1  0  0  0  0
 11 12  2  0  0  0  0
 11 41  1  0  0  0  0
 12 13  1  0  0  0  0
 13 17  1  0  0  0  0
 13 14  2  0  0  0  0
 14 15  1  0  0  0  0
 15 16  2  0  0  0  0
 16 17  1  0  0  0  0
 16 42  1  0  0  0  0
 17 18  1  0  0  0  0
 18 19  1  0  0  0  0
 18 43  1  0  0  0  0
 18 44  1  0  0  0  0
 19 24  1  0  0  0  0
 19 20  1  0  0  0  0
 19 21  1  0  0  0  0
 20 45  1  0  0  0  0
 21 22  1  0  0  0  0
 21 46  1  0  0  0  0
 21 47  1  0  0  0  0
 22 23  1  0  0  0  0
 22 48  1  0  0  0  0
 22 49  1  0  0  0  0
 23 24  1  0  0  0  0
 24 50  1  0  0  0  0
 24 51  1  0  0  0  0
 25 26  1  0  0  0  0
 25 27  1  0  0  0  0
 25 52  1  0  0  0  0
 26 53  1  0  0  0  0
 26 54  1  0  0  0  0
 26 55  1  0  0  0  0
 27 56  1  0  0  0  0
 27 57  1  0  0  0  0
M  CHG  1   3   1
M  END
> <s_m_source_file>
AV-unprocessed.smi

> <i_m_source_file_index>
243

> <i_lp_mmshare_version>
43012

> <i_f3d_flags>
0

> <s_epik_input>
W0NIM11bQ0gyXU4xW0NIMl1bQ0gyXVtDQEhdKFtDQEBIXShbQ0gzXSlbQ0gyXTEpTihbQ0gzXSljKG5bY0hdbjIpYyhjMjMpbltjSF1uM1tDSDJdW0NAQF00KFtPSF0pW0NIMl1bQ0gyXU9bQ0gyXTQ=

> <s_epik_cmdline>
J2VwaWtfcHl0aG9uJywgJy1waCcsICc3LjAnLCAnLXRuJywgJzgnLCAnLW1hJywgJzIwMCcsICctbWV0YWxfYmluZGluZycsICctaW1hZScsICc8aW5maWxlLm1hZT4nLCAnLW9tYWUnLCAnPG91dGZpbGUubWFlPic=

> <r_lp_tautomer_probability>
1

> <r_epik_Ionization_Penalty>
0.00253099

> <r_epik_Ionization_Penalty_Charging>
0.00137877

> <r_epik_Ionization_Penalty_Neutral>
0.00115221

> <r_epik_State_Penalty>
-0

> <r_epik_Charging_Adjusted_Penalty>
0.00137877

> <i_epik_Tot_Q>
1

> <i_epik_Tot_abs_Q>
1

> <r_epik_Metal_State_Penalty>
-0

> <b_epik_Metal_Only>
0

> <s_lp_Force_Field>
OPLS_2005

> <r_lp_Energy>
48.9209

> <b_lp_Chiralities_Consistent>
1

> <s_lp_Variant>
AV-unprocessed.smi:243-4

> <Gold.Version>
5.8.1

> <Gold.Id.Protein>
6NUR|6NUR_protein|mol2

> <Gold.PLP.Fitness>
45.1370

> <Gold.PLP.PLP>
-42.7068

> <Gold.PLP.part.hbond>
-1.6254

> <Gold.PLP.part.metal>
0.0000

> <Gold.PLP.part.buried>
-4.1482

> <Gold.PLP.part.nonpolar>
-37.7551

> <Gold.PLP.part.repulsive>
0.0860

> <Gold.PLP.ligand.clash>
0.0000

> <Gold.PLP.ligand.torsion>
0.8536

> <Gold.PLP.Chemscore.Hbond>
1.1215

> <Gold.PLP.Chemscore.CHOScore>
0.0000

> <Gold.PLP.Chemscore.Metal>
0.0000

> <Gold.Chemscore.Hbonds>
donor molecule, donor type, donor heavy atom, donor atom, acceptor molecule, acceptor atom, score
      P1  H 10752 10763       L1    10  0.23

> <Gold.PLP.Chemscore.Internal.Correction>
0.7728

> <Gold.Rescore>
     Score         DG    S(hbond)    S(metal)    S(lipo)     H(rot)  DE(clash)    DE(int)     intcor
     11.70     -14.30       0.43        0.00     111.94       2.24       0.41       2.19       ----

> <Gold.Chemscore.Fitness>
11.6984

> <Gold.Chemscore.DG>
-14.2965

> <Gold.Chemscore.ZeroCoef>
-5.4800

> <Gold.Chemscore.Hbond>
0.4339

> <Gold.Chemscore.Metal>
0.0000

> <Gold.Chemscore.Lipo>
111.9353

> <Gold.Chemscore.Internal_Hbond>
0.0000

> <Gold.Chemscore.DEClash>
0.4103

> <Gold.Chemscore.DEInternal>
2.1877

> <Gold.Chemscore.Rot>
2.2379

> <Gold.Chemscore.Internal.Correction>
   9.000000E+99

> <Gold.Chemscore.Hbonds>
donor molecule, donor type, donor heavy atom, donor atom, acceptor molecule, acceptor atom, score
      P1  H 10752 10763       L1    10  0.01

> <Gold.Chemscore.Hbond.Weighted>
-1.4491

> <Gold.Chemscore.Metal.Weighted>
-0.0000

> <Gold.Chemscore.Lipo.Weighted>
-13.0964

> <Gold.Chemscore.Internal_Hbond.Weighted>
0.0000

> <Gold.Chemscore.DEClash.Weighted>
0.4103

> <Gold.Chemscore.DEInternal.Weighted>
2.1877

> <Gold.Chemscore.Rot.Weighted>
5.7291

> <Gold.Chemscore.Internal.Correction.Weighted>
   9.000000E+99

> <Gold.Protein.RotatedTorsions>
[ 6907 6896 6895 6894 ] final -119.00 input  -60.11 | X-H torsion
[ 7974 7965 7964 7962 ] final  -48.52 input  175.53 | X-H torsion
[ 8008 7997 7996 7995 ] final -179.95 input   59.86 | X-H torsion
[ 10167 10162 10161 10158 ] final -116.76 input  -65.29 | X-H torsion
[ 10718 10713 10712 10709 ] final  116.22 input   66.30 | X-H torsion
[ 10763 10752 10751 10750 ] final   78.93 input  -60.55 | X-H torsion
[ 11005 11000 10999 10996 ] final  122.32 input  -57.11 | X-H torsion

> <Gold.Protein.ActiveResidues>
 VAL166  LYS551  ARG553  GLY616  TRP617  ASP618  TYR619  PRO620  LYS621  CYS622 
 ASP623  PHE694  ASN695  SER759  ASP760  ASP761  ALA762  ILE779  LEU786  VAL792 
 PHE793  MET794  SER795  GLU796  ALA797  LYS798  CYS799  TRP800  GLU811  SER814 

> <Gold.Protein.RotatedAtoms>
  150.8268  133.8159  159.3115 H   0  0  0  0  0  0  0  0  0  0  0  0  # atno 6907 bound_to 6896
  151.5900  135.1052  160.0046 H   0  0  0  0  0  0  0  0  0  0  0  0  # atno 6908 bound_to 6896
  152.4352  133.7307  159.6642 H   0  0  0  0  0  0  0  0  0  0  0  0  # atno 6909 bound_to 6896
  145.9503  140.7579  142.9508 H   0  0  0  0  0  0  0  0  0  0  0  0  # atno 7974 bound_to 7965
  156.0364  140.1293  157.0203 H   0  0  0  0  0  0  0  0  0  0  0  0  # atno 8008 bound_to 7997
  154.4372  140.1039  156.6243 H   0  0  0  0  0  0  0  0  0  0  0  0  # atno 8009 bound_to 7997
  155.5732  140.3467  155.4523 H   0  0  0  0  0  0  0  0  0  0  0  0  # atno 8010 bound_to 7997
  140.0757  143.4835  152.1955 H   0  0  0  0  0  0  0  0  0  0  0  0  # atno 10167 bound_to 10162
  157.6174  131.1022  150.7442 H   0  0  0  0  0  0  0  0  0  0  0  0  # atno 10718 bound_to 10713
  153.0913  135.4858  154.8695 H   0  0  0  0  0  0  0  0  0  0  0  0  # atno 10763 bound_to 10752
  154.7272  135.3052  154.8953 H   0  0  0  0  0  0  0  0  0  0  0  0  # atno 10764 bound_to 10752
  153.9600  135.6813  153.4798 H   0  0  0  0  0  0  0  0  0  0  0  0  # atno 10765 bound_to 10752
  139.9263  134.9641  156.8091 H   0  0  0  0  0  0  0  0  0  0  0  0  # atno 11005 bound_to 11000
  144.6794  140.2423  143.7342 LP  0  0  0  0  0  0  0  0  0  0  0  0  # atno 17320 bound_to 7965
  145.8180  139.2031  143.1954 LP  0  0  0  0  0  0  0  0  0  0  0  0  # atno 17321 bound_to 7965
  139.5809  144.7510  151.3641 LP  0  0  0  0  0  0  0  0  0  0  0  0  # atno 17342 bound_to 10162
  140.7103  143.7407  150.7555 LP  0  0  0  0  0  0  0  0  0  0  0  0  # atno 17343 bound_to 10162
  156.7806  130.4858  149.5402 LP  0  0  0  0  0  0  0  0  0  0  0  0  # atno 17370 bound_to 10713
  156.1302  130.6173  151.0323 LP  0  0  0  0  0  0  0  0  0  0  0  0  # atno 17371 bound_to 10713
  140.6327  133.9891  155.7669 LP  0  0  0  0  0  0  0  0  0  0  0  0  # atno 17394 bound_to 11000
  141.0823  134.0044  157.3367 LP  0  0  0  0  0  0  0  0  0  0  0  0  # atno 17395 bound_to 11000

$$$$
