AV-unprocessed.smi:1352|AV-procd|sdf|5531|dock9
  -GOLD-   22720 5123D 1   1.00000     0.00000
 Structure written by MMmdl.
 47 48  0  0  0  0  0  0  0  0  2 V2000
  146.0426  137.2413  151.9280 C   0  0  0  0  0  0  0  0  0  0  0  0
  145.1361  136.1013  152.4244 C   0  0  1  0  0  0  0  0  0  0  0  0
  144.9361  134.9927  151.3744 C   0  0  0  0  0  0  0  0  0  0  0  0
  146.1924  134.1161  151.2259 C   0  0  2  0  0  0  0  0  0  0  0  0
  145.9617  132.9743  150.2257 C   0  0  0  0  0  0  0  0  0  0  0  0
  146.6354  133.5792  152.6007 C   0  0  0  0  0  0  0  0  0  0  0  0
  146.8586  134.6843  153.5684 N   0  3  2  0  0  0  0  0  0  0  0  0
  147.4441  134.2043  154.8454 C   0  0  0  0  0  0  0  0  0  0  0  0
  148.4933  135.1804  155.4123 C   0  0  0  0  0  0  0  0  0  0  0  0
  148.0611  135.7579  156.6795 N   0  0  0  0  0  0  0  0  0  0  0  0
  148.6862  135.5878  157.8544 C   0  0  0  0  0  0  0  0  0  0  0  0
  149.6922  134.8889  157.9842 O   0  0  0  0  0  0  0  0  0  0  0  0
  148.0602  136.3019  159.0611 C   0  0  0  0  0  0  0  0  0  0  0  0
  147.6540  135.3815  160.1365 N   0  0  0  0  0  0  0  0  0  0  0  0
  147.5903  134.0103  159.8181 C   0  0  0  0  0  0  0  0  0  0  0  0
  147.2342  133.0866  160.7249 C   0  0  0  0  0  0  0  0  0  0  0  0
  146.9097  133.5304  162.0597 C   0  0  0  0  0  0  0  0  0  0  0  0
  146.9704  134.8392  162.3759 C   0  0  0  0  0  0  0  0  0  0  0  0
  147.3623  135.8518  161.3887 C   0  0  0  0  0  0  0  0  0  0  0  0
  147.4253  137.0492  161.6693 O   0  0  0  0  0  0  0  0  0  0  0  0
  145.6297  135.5016  153.7561 C   0  0  0  0  0  0  0  0  0  0  0  0
  147.0617  136.9026  151.7420 H   0  0  0  0  0  0  0  0  0  0  0  0
  146.0938  138.0459  152.6621 H   0  0  0  0  0  0  0  0  0  0  0  0
  145.6611  137.6698  151.0010 H   0  0  0  0  0  0  0  0  0  0  0  0
  144.1590  136.5487  152.6108 H   0  0  0  0  0  0  0  0  0  0  0  0
  144.0951  134.3668  151.6764 H   0  0  0  0  0  0  0  0  0  0  0  0
  144.6598  135.4285  150.4133 H   0  0  0  0  0  0  0  0  0  0  0  0
  146.9982  134.7336  150.8279 H   0  0  0  0  0  0  0  0  0  0  0  0
  145.1692  132.3051  150.5617 H   0  0  0  0  0  0  0  0  0  0  0  0
  146.8659  132.3796  150.0929 H   0  0  0  0  0  0  0  0  0  0  0  0
  145.6771  133.3620  149.2470 H   0  0  0  0  0  0  0  0  0  0  0  0
  145.8894  132.8904  153.0009 H   0  0  0  0  0  0  0  0  0  0  0  0
  147.5584  133.0105  152.4790 H   0  0  0  0  0  0  0  0  0  0  0  0
  146.6509  134.0201  155.5717 H   0  0  0  0  0  0  0  0  0  0  0  0
  147.9301  133.2432  154.6723 H   0  0  0  0  0  0  0  0  0  0  0  0
  149.4537  134.6778  155.5410 H   0  0  0  0  0  0  0  0  0  0  0  0
  148.6672  136.0078  154.7257 H   0  0  0  0  0  0  0  0  0  0  0  0
  147.2390  136.3444  156.6600 H   0  0  0  0  0  0  0  0  0  0  0  0
  148.7623  137.0422  159.4496 H   0  0  0  0  0  0  0  0  0  0  0  0
  147.2047  136.8786  158.7074 H   0  0  0  0  0  0  0  0  0  0  0  0
  147.8541  133.7602  158.8008 H   0  0  0  0  0  0  0  0  0  0  0  0
  147.1950  132.0393  160.4637 H   0  0  0  0  0  0  0  0  0  0  0  0
  146.6180  132.8089  162.8088 H   0  0  0  0  0  0  0  0  0  0  0  0
  146.7248  135.1527  163.3797 H   0  0  0  0  0  0  0  0  0  0  0  0
  145.8069  136.3078  154.4670 H   0  0  0  0  0  0  0  0  0  0  0  0
  144.8492  134.8742  154.1898 H   0  0  0  0  0  0  0  0  0  0  0  0
  147.5522  135.2863  153.1477 H   0  0  0  0  0  0  0  0  0  0  0  0
  1  2  1  0  0  0  0
  1 22  1  0  0  0  0
  1 23  1  0  0  0  0
  1 24  1  0  0  0  0
  2 21  1  0  0  0  0
  2  3  1  0  0  0  0
  2 25  1  0  0  0  0
  3  4  1  0  0  0  0
  3 26  1  0  0  0  0
  3 27  1  0  0  0  0
  4  5  1  0  0  0  0
  4  6  1  0  0  0  0
  4 28  1  0  0  0  0
  5 29  1  0  0  0  0
  5 30  1  0  0  0  0
  5 31  1  0  0  0  0
  6  7  1  0  0  0  0
  6 32  1  0  0  0  0
  6 33  1  0  0  0  0
  7  8  1  0  0  0  0
  7 21  1  0  0  0  0
  7 47  1  0  0  0  0
  8  9  1  0  0  0  0
  8 34  1  0  0  0  0
  8 35  1  0  0  0  0
  9 10  1  0  0  0  0
  9 36  1  0  0  0  0
  9 37  1  0  0  0  0
 10 11  1  0  0  0  0
 10 38  1  0  0  0  0
 11 12  2  0  0  0  0
 11 13  1  0  0  0  0
 13 14  1  0  0  0  0
 13 39  1  0  0  0  0
 13 40  1  0  0  0  0
 14 19  1  0  0  0  0
 14 15  1  0  0  0  0
 15 16  2  0  0  0  0
 15 41  1  0  0  0  0
 16 17  1  0  0  0  0
 16 42  1  0  0  0  0
 17 18  2  0  0  0  0
 17 43  1  0  0  0  0
 18 19  1  0  0  0  0
 18 44  1  0  0  0  0
 19 20  2  0  0  0  0
 21 45  1  0  0  0  0
 21 46  1  0  0  0  0
M  CHG  1   7   1
M  END
> <s_m_source_file>
AV-unprocessed.smi

> <i_m_source_file_index>
1352

> <i_lp_mmshare_version>
43012

> <i_f3d_flags>
0

> <s_epik_input>
W0NIM11bQ0BASF0xW0NIMl1bQ0BASF0oW0NIM10pW0NIMl1OKFtDSDJdMSlbQ0gyXVtDSDJdW05IXUMoPU8pW0NIMl1uMltjSF1bY0hdW2NIXVtjSF1jMj1P

> <s_epik_cmdline>
J2VwaWtfcHl0aG9uJywgJy1waCcsICc3LjAnLCAnLXRuJywgJzgnLCAnLW1hJywgJzIwMCcsICctbWV0YWxfYmluZGluZycsICctaW1hZScsICc8aW5maWxlLm1hZT4nLCAnLW9tYWUnLCAnPG91dGZpbGUubWFlPic=

> <r_lp_tautomer_probability>
1

> <r_epik_Ionization_Penalty>
0.00156146

> <r_epik_Ionization_Penalty_Charging>
0.00156138

> <r_epik_Ionization_Penalty_Neutral>
8.12891e-08

> <r_epik_State_Penalty>
0.00104868

> <r_epik_Charging_Adjusted_Penalty>
0.00261006

> <i_epik_Tot_Q>
1

> <i_epik_Tot_abs_Q>
1

> <r_epik_Metal_State_Penalty>
-0

> <b_epik_Metal_Only>
0

> <s_lp_Force_Field>
OPLS_2005

> <r_lp_Energy>
27.867

> <b_lp_Chiralities_Consistent>
1

> <s_lp_Variant>
AV-unprocessed.smi:1352-4

> <Gold.Version>
5.8.1

> <Gold.Id.Protein>
6NUR|6NUR_protein|mol2

> <Gold.PLP.Fitness>
46.9098

> <Gold.PLP.PLP>
-35.0587

> <Gold.PLP.part.hbond>
-4.0000

> <Gold.PLP.part.metal>
0.0000

> <Gold.PLP.part.buried>
-2.9981

> <Gold.PLP.part.nonpolar>
-27.4339

> <Gold.PLP.part.repulsive>
0.0000

> <Gold.PLP.ligand.clash>
0.1128

> <Gold.PLP.ligand.torsion>
1.0206

> <Gold.PLP.Chemscore.Hbond>
4.6560

> <Gold.PLP.Chemscore.CHOScore>
0.0000

> <Gold.PLP.Chemscore.Metal>
0.0000

> <Gold.Chemscore.Hbonds>
donor molecule, donor type, donor heavy atom, donor atom, acceptor molecule, acceptor atom, score
      L1  H     7    47       P1  7948  1.62
      P1  H  6896  6909       L1    12  0.91
      P1  H  6931  6943       L1    20  0.99
      P1  H  6934  6947       L1    20  0.68

> <Gold.PLP.Chemscore.Internal.Correction>
0.0371

> <Gold.Rescore>
     Score         DG    S(hbond)    S(metal)    S(lipo)     H(rot)  DE(clash)    DE(int)     intcor
     18.72     -20.88       3.49        0.00      72.15       1.83       0.03       2.14       ----

> <Gold.Chemscore.Fitness>
18.7153

> <Gold.Chemscore.DG>
-20.8833

> <Gold.Chemscore.ZeroCoef>
-5.4800

> <Gold.Chemscore.Hbond>
3.4891

> <Gold.Chemscore.Metal>
0.0000

> <Gold.Chemscore.Lipo>
72.1519

> <Gold.Chemscore.Internal_Hbond>
0.0000

> <Gold.Chemscore.DEClash>
0.0310

> <Gold.Chemscore.DEInternal>
2.1370

> <Gold.Chemscore.Rot>
1.8329

> <Gold.Chemscore.Internal.Correction>
   9.000000E+99

> <Gold.Chemscore.Hbonds>
donor molecule, donor type, donor heavy atom, donor atom, acceptor molecule, acceptor atom, score
      L1  H     7    47       P1  7948  0.79
      P1  H  6896  6909       L1    12  0.90
      P1  H  6931  6943       L1    20  0.89
      P1  H  6934  6947       L1    20  0.67

> <Gold.Chemscore.Hbond.Weighted>
-11.6537

> <Gold.Chemscore.Metal.Weighted>
-0.0000

> <Gold.Chemscore.Lipo.Weighted>
-8.4418

> <Gold.Chemscore.Internal_Hbond.Weighted>
0.0000

> <Gold.Chemscore.DEClash.Weighted>
0.0310

> <Gold.Chemscore.DEInternal.Weighted>
2.1370

> <Gold.Chemscore.Rot.Weighted>
4.6922

> <Gold.Chemscore.Internal.Correction.Weighted>
   9.000000E+99

> <Gold.Protein.RotatedTorsions>
[ 6907 6896 6895 6894 ] final   49.76 input  -60.11 | X-H torsion
[ 7974 7965 7964 7962 ] final  -43.48 input  175.53 | X-H torsion
[ 8008 7997 7996 7995 ] final   75.63 input   59.86 | X-H torsion
[ 10167 10162 10161 10158 ] final  139.66 input  -65.29 | X-H torsion
[ 10718 10713 10712 10709 ] final  -28.17 input   66.30 | X-H torsion
[ 10763 10752 10751 10750 ] final    2.45 input  -60.55 | X-H torsion
[ 11005 11000 10999 10996 ] final  -90.68 input  -57.11 | X-H torsion

> <Gold.Protein.ActiveResidues>
 VAL166  LYS551  ARG553  GLY616  TRP617  ASP618  TYR619  PRO620  LYS621  CYS622 
 ASP623  PHE694  ASN695  SER759  ASP760  ASP761  ALA762  ILE779  LEU786  VAL792 
 PHE793  MET794  SER795  GLU796  ALA797  LYS798  CYS799  TRP800  GLU811  SER814 

> <Gold.Protein.RotatedAtoms>
  152.2943  134.7685  160.0370 H   0  0  0  0  0  0  0  0  0  0  0  0  # atno 6907 bound_to 6896
  151.8220  133.3390  159.3595 H   0  0  0  0  0  0  0  0  0  0  0  0  # atno 6908 bound_to 6896
  150.7244  134.5494  159.5831 H   0  0  0  0  0  0  0  0  0  0  0  0  # atno 6909 bound_to 6896
  146.0014  140.7069  142.9268 H   0  0  0  0  0  0  0  0  0  0  0  0  # atno 7974 bound_to 7965
  155.8157  140.3471  155.5484 H   0  0  0  0  0  0  0  0  0  0  0  0  # atno 8008 bound_to 7997
  155.8395  140.0939  157.1763 H   0  0  0  0  0  0  0  0  0  0  0  0  # atno 8009 bound_to 7997
  154.4005  140.1397  156.3698 H   0  0  0  0  0  0  0  0  0  0  0  0  # atno 8010 bound_to 7997
  139.5072  144.6281  151.5886 H   0  0  0  0  0  0  0  0  0  0  0  0  # atno 10167 bound_to 10162
  156.4287  130.4441  149.7132 H   0  0  0  0  0  0  0  0  0  0  0  0  # atno 10718 bound_to 10713
  153.2954  135.6952  153.7253 H   0  0  0  0  0  0  0  0  0  0  0  0  # atno 10763 bound_to 10752
  153.6188  135.3431  155.3004 H   0  0  0  0  0  0  0  0  0  0  0  0  # atno 10764 bound_to 10752
  154.8536  135.4381  154.2049 H   0  0  0  0  0  0  0  0  0  0  0  0  # atno 10765 bound_to 10752
  141.1561  133.7707  156.9771 H   0  0  0  0  0  0  0  0  0  0  0  0  # atno 11005 bound_to 11000
  144.6921  140.3240  143.7227 LP  0  0  0  0  0  0  0  0  0  0  0  0  # atno 17320 bound_to 7965
  145.7481  139.1785  143.2337 LP  0  0  0  0  0  0  0  0  0  0  0  0  # atno 17321 bound_to 7965
  140.6005  143.9618  150.6383 LP  0  0  0  0  0  0  0  0  0  0  0  0  # atno 17342 bound_to 10162
  140.2828  143.3377  152.1135 LP  0  0  0  0  0  0  0  0  0  0  0  0  # atno 17343 bound_to 10162
  156.4044  130.7691  151.2700 LP  0  0  0  0  0  0  0  0  0  0  0  0  # atno 17370 bound_to 10713
  157.7508  131.0230  150.3816 LP  0  0  0  0  0  0  0  0  0  0  0  0  # atno 17371 bound_to 10713
  140.1090  134.9488  157.2037 LP  0  0  0  0  0  0  0  0  0  0  0  0  # atno 17394 bound_to 11000
  140.3218  134.2907  155.7245 LP  0  0  0  0  0  0  0  0  0  0  0  0  # atno 17395 bound_to 11000

$$$$
