AV-unprocessed.smi:1762|AV-procd|sdf|7107|dock4
  -GOLD-   22720 8333D 1   1.00000     0.00000
 Structure written by MMmdl.
 53 54  0  0  0  0  0  0  0  0  2 V2000
  150.1604  141.2348  156.8934 C   0  0  0  0  0  0  0  0  0  0  0  0
  150.0692  141.3302  155.3603 C   0  0  2  0  0  0  0  0  0  0  0  0
  148.6203  141.3723  154.8359 C   0  0  0  0  0  0  0  0  0  0  0  0
  147.9328  140.0758  154.9013 N   0  0  0  0  0  0  0  0  0  0  0  0
  146.5206  140.1520  154.4300 C   0  0  1  0  0  0  0  0  0  0  0  0
  145.8841  138.7690  154.1450 C   0  0  0  0  0  0  0  0  0  0  0  0
  145.9526  137.8634  154.9756 O   0  0  0  0  0  0  0  0  0  0  0  0
  145.2981  138.6119  152.9468 N   0  0  0  0  0  0  0  0  0  0  0  0
  144.7096  137.3682  152.4584 C   0  0  0  0  0  0  0  0  0  0  0  0
  145.4824  136.7487  151.2776 C   0  0  0  0  0  0  0  0  0  0  0  0
  145.2858  135.2491  151.1396 C   0  0  0  0  0  0  0  0  0  0  0  0
  144.0093  134.6767  150.9490 C   0  0  0  0  0  0  0  0  0  0  0  0
  143.8914  133.2752  150.8403 C   0  0  0  0  0  0  0  0  0  0  0  0
  145.0506  132.4762  150.9245 C   0  0  0  0  0  0  0  0  0  0  0  0
  146.3001  133.1002  151.1153 C   0  0  0  0  0  0  0  0  0  0  0  0
  146.3711  134.4456  151.2157 N   0  3  0  0  0  0  0  0  0  0  0  0
  145.5893  141.0418  155.3224 C   0  0  0  0  0  0  0  0  0  0  0  0
  145.5255  142.5194  154.8853 C   0  0  0  0  0  0  0  0  0  0  0  0
  145.8906  140.9394  156.8300 C   0  0  0  0  0  0  0  0  0  0  0  0
  148.7654  139.0715  154.2196 C   0  0  0  0  0  0  0  0  0  0  0  0
  150.1968  139.0040  154.7832 C   0  0  1  0  0  0  0  0  0  0  0  0
  151.0795  138.0254  154.0003 C   0  0  0  0  0  0  0  0  0  0  0  0
  150.8009  140.2909  154.7148 O   0  0  0  0  0  0  0  0  0  0  0  0
  149.7034  142.1060  157.3632 H   0  0  0  0  0  0  0  0  0  0  0  0
  151.1998  141.1921  157.2188 H   0  0  0  0  0  0  0  0  0  0  0  0
  149.6505  140.3534  157.2819 H   0  0  0  0  0  0  0  0  0  0  0  0
  150.5543  142.2639  155.0743 H   0  0  0  0  0  0  0  0  0  0  0  0
  148.0922  142.1296  155.4114 H   0  0  0  0  0  0  0  0  0  0  0  0
  148.6317  141.7247  153.8030 H   0  0  0  0  0  0  0  0  0  0  0  0
  146.5454  140.6506  153.4587 H   0  0  0  0  0  0  0  0  0  0  0  0
  145.2977  139.3986  152.3132 H   0  0  0  0  0  0  0  0  0  0  0  0
  144.6889  136.6626  153.2894 H   0  0  0  0  0  0  0  0  0  0  0  0
  143.6689  137.5369  152.1770 H   0  0  0  0  0  0  0  0  0  0  0  0
  145.1716  137.2291  150.3493 H   0  0  0  0  0  0  0  0  0  0  0  0
  146.5483  136.9589  151.3799 H   0  0  0  0  0  0  0  0  0  0  0  0
  143.1303  135.3020  150.8891 H   0  0  0  0  0  0  0  0  0  0  0  0
  142.9230  132.8185  150.6951 H   0  0  0  0  0  0  0  0  0  0  0  0
  144.9816  131.4011  150.8439 H   0  0  0  0  0  0  0  0  0  0  0  0
  147.2375  132.5687  151.1913 H   0  0  0  0  0  0  0  0  0  0  0  0
  144.5784  140.6475  155.2342 H   0  0  0  0  0  0  0  0  0  0  0  0
  146.4779  143.0303  155.0220 H   0  0  0  0  0  0  0  0  0  0  0  0
  144.7816  143.0634  155.4677 H   0  0  0  0  0  0  0  0  0  0  0  0
  145.2438  142.6168  153.8367 H   0  0  0  0  0  0  0  0  0  0  0  0
  146.8366  141.4138  157.0914 H   0  0  0  0  0  0  0  0  0  0  0  0
  145.9299  139.8987  157.1518 H   0  0  0  0  0  0  0  0  0  0  0  0
  145.1124  141.4308  157.4149 H   0  0  0  0  0  0  0  0  0  0  0  0
  148.3469  138.0711  154.3257 H   0  0  0  0  0  0  0  0  0  0  0  0
  148.8001  139.2867  153.1501 H   0  0  0  0  0  0  0  0  0  0  0  0
  150.1631  138.6742  155.8219 H   0  0  0  0  0  0  0  0  0  0  0  0
  150.6733  137.0143  154.0370 H   0  0  0  0  0  0  0  0  0  0  0  0
  152.0875  137.9933  154.4142 H   0  0  0  0  0  0  0  0  0  0  0  0
  151.1589  138.3166  152.9523 H   0  0  0  0  0  0  0  0  0  0  0  0
  147.2855  134.8762  151.3566 H   0  0  0  0  0  0  0  0  0  0  0  0
  1  2  1  0  0  0  0
  1 24  1  0  0  0  0
  1 25  1  0  0  0  0
  1 26  1  0  0  0  0
  2 23  1  0  0  0  0
  2  3  1  0  0  0  0
  2 27  1  0  0  0  0
  3  4  1  0  0  0  0
  3 28  1  0  0  0  0
  3 29  1  0  0  0  0
  4  5  1  0  0  0  0
  4 20  1  0  0  0  0
  5  6  1  0  0  0  0
  5 17  1  0  0  0  0
  5 30  1  0  0  0  0
  6  7  2  0  0  0  0
  6  8  1  0  0  0  0
  8  9  1  0  0  0  0
  8 31  1  0  0  0  0
  9 10  1  0  0  0  0
  9 32  1  0  0  0  0
  9 33  1  0  0  0  0
 10 11  1  0  0  0  0
 10 34  1  0  0  0  0
 10 35  1  0  0  0  0
 11 16  1  0  0  0  0
 11 12  2  0  0  0  0
 12 13  1  0  0  0  0
 12 36  1  0  0  0  0
 13 14  2  0  0  0  0
 13 37  1  0  0  0  0
 14 15  1  0  0  0  0
 14 38  1  0  0  0  0
 15 16  2  0  0  0  0
 15 39  1  0  0  0  0
 16 53  1  0  0  0  0
 17 18  1  0  0  0  0
 17 19  1  0  0  0  0
 17 40  1  0  0  0  0
 18 41  1  0  0  0  0
 18 42  1  0  0  0  0
 18 43  1  0  0  0  0
 19 44  1  0  0  0  0
 19 45  1  0  0  0  0
 19 46  1  0  0  0  0
 20 21  1  0  0  0  0
 20 47  1  0  0  0  0
 20 48  1  0  0  0  0
 21 22  1  0  0  0  0
 21 23  1  0  0  0  0
 21 49  1  0  0  0  0
 22 50  1  0  0  0  0
 22 51  1  0  0  0  0
 22 52  1  0  0  0  0
M  CHG  1  16   1
M  END
> <s_m_source_file>
AV-unprocessed.smi

> <i_m_source_file_index>
1762

> <i_lp_mmshare_version>
43012

> <i_f3d_flags>
0

> <s_epik_input>
W0NIM11bQ0BASF0xW0NIMl1OKFtDSDJdW0NASF0oTzEpW0NIM10pW0NAQEhdKFtDSF0oW0NIM10pW0NIM10pQyg9TylbTkhdW0NIMl1bQ0gyXWMyW2NIXVtjSF1bY0hdW2NIXW4y

> <s_epik_cmdline>
J2VwaWtfcHl0aG9uJywgJy1waCcsICc3LjAnLCAnLXRuJywgJzgnLCAnLW1hJywgJzIwMCcsICctbWV0YWxfYmluZGluZycsICctaW1hZScsICc8aW5maWxlLm1hZT4nLCAnLW9tYWUnLCAnPG91dGZpbGUubWFlPic=

> <r_epik_Ionization_Penalty>
1.86475

> <r_epik_Ionization_Penalty_Charging>
1.85347

> <r_epik_Ionization_Penalty_Neutral>
0.0112771

> <r_epik_State_Penalty>
1.99714

> <r_epik_Charging_Adjusted_Penalty>
3.85061

> <i_epik_Tot_Q>
1

> <i_epik_Tot_abs_Q>
1

> <r_epik_Metal_State_Penalty>
2.02271

> <b_epik_Metal_Only>
0

> <s_lp_Force_Field>
OPLS_2005

> <r_lp_Energy>
36.6316

> <b_lp_Chiralities_Consistent>
1

> <s_lp_Variant>
AV-unprocessed.smi:1762-9

> <Gold.Version>
5.8.1

> <Gold.Id.Protein>
6NUR|6NUR_protein|mol2

> <Gold.PLP.Fitness>
45.0335

> <Gold.PLP.PLP>
-37.8981

> <Gold.PLP.part.hbond>
-2.9607

> <Gold.PLP.part.metal>
0.0000

> <Gold.PLP.part.buried>
-4.5096

> <Gold.PLP.part.nonpolar>
-31.0889

> <Gold.PLP.part.repulsive>
0.2464

> <Gold.PLP.ligand.clash>
0.0000

> <Gold.PLP.ligand.torsion>
1.5384

> <Gold.PLP.Chemscore.Hbond>
3.2756

> <Gold.PLP.Chemscore.CHOScore>
0.0000

> <Gold.PLP.Chemscore.Metal>
0.0000

> <Gold.Chemscore.Hbonds>
donor molecule, donor type, donor heavy atom, donor atom, acceptor molecule, acceptor atom, score
      L1  H     8    31       P1 10175  0.26
      L1  H    16    53       P1  7948  1.40
      P1  H  7989  7998       L1    23  1.00

> <Gold.PLP.Chemscore.Internal.Correction>
0.3854

> <Gold.Rescore>
     Score         DG    S(hbond)    S(metal)    S(lipo)     H(rot)  DE(clash)    DE(int)     intcor
     15.64     -17.19       1.53        0.00      94.09       1.72       0.03       1.52       ----

> <Gold.Chemscore.Fitness>
15.6387

> <Gold.Chemscore.DG>
-17.1891

> <Gold.Chemscore.ZeroCoef>
-5.4800

> <Gold.Chemscore.Hbond>
1.5261

> <Gold.Chemscore.Metal>
0.0000

> <Gold.Chemscore.Lipo>
94.0891

> <Gold.Chemscore.Internal_Hbond>
0.0000

> <Gold.Chemscore.DEClash>
0.0301

> <Gold.Chemscore.DEInternal>
1.5203

> <Gold.Chemscore.Rot>
1.7174

> <Gold.Chemscore.Internal.Correction>
   9.000000E+99

> <Gold.Chemscore.Hbonds>
donor molecule, donor type, donor heavy atom, donor atom, acceptor molecule, acceptor atom, score
      L1  H     8    31       P1 10175  0.26
      L1  H    16    53       P1  7948  0.39
      P1  H  7989  7998       L1    23  0.72

> <Gold.Chemscore.Hbond.Weighted>
-5.0972

> <Gold.Chemscore.Metal.Weighted>
-0.0000

> <Gold.Chemscore.Lipo.Weighted>
-11.0084

> <Gold.Chemscore.Internal_Hbond.Weighted>
0.0000

> <Gold.Chemscore.DEClash.Weighted>
0.0301

> <Gold.Chemscore.DEInternal.Weighted>
1.5203

> <Gold.Chemscore.Rot.Weighted>
4.3966

> <Gold.Chemscore.Internal.Correction.Weighted>
   9.000000E+99

> <Gold.Protein.RotatedTorsions>
[ 6907 6896 6895 6894 ] final  119.05 input  -60.11 | X-H torsion
[ 7974 7965 7964 7962 ] final  -19.99 input  175.53 | X-H torsion
[ 8008 7997 7996 7995 ] final   40.07 input   59.86 | X-H torsion
[ 10167 10162 10161 10158 ] final  111.45 input  -65.29 | X-H torsion
[ 10718 10713 10712 10709 ] final -148.49 input   66.30 | X-H torsion
[ 10763 10752 10751 10750 ] final  -97.75 input  -60.55 | X-H torsion
[ 11005 11000 10999 10996 ] final  -94.80 input  -57.11 | X-H torsion

> <Gold.Protein.ActiveResidues>
 VAL166  LYS551  ARG553  GLY616  TRP617  ASP618  TYR619  PRO620  LYS621  CYS622 
 ASP623  PHE694  ASN695  SER759  ASP760  ASP761  ALA762  ILE779  LEU786  VAL792 
 PHE793  MET794  SER795  GLU796  ALA797  LYS798  CYS799  TRP800  GLU811  SER814 

> <Gold.Protein.RotatedAtoms>
  152.4500  133.7610  159.6746 H   0  0  0  0  0  0  0  0  0  0  0  0  # atno 6907 bound_to 6896
  150.8409  133.7928  159.3067 H   0  0  0  0  0  0  0  0  0  0  0  0  # atno 6908 bound_to 6896
  151.5553  135.1069  160.0011 H   0  0  0  0  0  0  0  0  0  0  0  0  # atno 6909 bound_to 6896
  146.1812  140.4140  142.8494 H   0  0  0  0  0  0  0  0  0  0  0  0  # atno 7974 bound_to 7965
  155.2470  140.3349  155.4286 H   0  0  0  0  0  0  0  0  0  0  0  0  # atno 8008 bound_to 7997
  156.2232  140.1818  156.7471 H   0  0  0  0  0  0  0  0  0  0  0  0  # atno 8009 bound_to 7997
  154.5857  140.0646  156.9153 H   0  0  0  0  0  0  0  0  0  0  0  0  # atno 8010 bound_to 7997
  139.6610  144.7128  151.1865 H   0  0  0  0  0  0  0  0  0  0  0  0  # atno 10167 bound_to 10162
  156.4209  130.8028  151.2251 H   0  0  0  0  0  0  0  0  0  0  0  0  # atno 10718 bound_to 10713
  154.7355  135.5035  153.9034 H   0  0  0  0  0  0  0  0  0  0  0  0  # atno 10763 bound_to 10752
  153.0991  135.6680  153.9715 H   0  0  0  0  0  0  0  0  0  0  0  0  # atno 10764 bound_to 10752
  153.9506  135.3058  155.3418 H   0  0  0  0  0  0  0  0  0  0  0  0  # atno 10765 bound_to 10752
  141.1460  133.7981  157.0348 H   0  0  0  0  0  0  0  0  0  0  0  0  # atno 11005 bound_to 11000
  144.8318  140.6719  143.6286 LP  0  0  0  0  0  0  0  0  0  0  0  0  # atno 17320 bound_to 7965
  145.4071  139.1587  143.4146 LP  0  0  0  0  0  0  0  0  0  0  0  0  # atno 17321 bound_to 7965
  140.7580  143.5994  150.8715 LP  0  0  0  0  0  0  0  0  0  0  0  0  # atno 17342 bound_to 10162
  139.9651  143.6119  152.2990 LP  0  0  0  0  0  0  0  0  0  0  0  0  # atno 17343 bound_to 10162
  157.7508  131.0228  150.3808 LP  0  0  0  0  0  0  0  0  0  0  0  0  # atno 17370 bound_to 10713
  156.4126  130.3937  149.6881 LP  0  0  0  0  0  0  0  0  0  0  0  0  # atno 17371 bound_to 10713
  140.0731  134.9691  157.1500 LP  0  0  0  0  0  0  0  0  0  0  0  0  # atno 17394 bound_to 11000
  140.3683  134.2418  155.7180 LP  0  0  0  0  0  0  0  0  0  0  0  0  # atno 17395 bound_to 11000

$$$$
