AV-unprocessed.smi:2439|AV-procd|sdf|9605|dock2
  -GOLD-   2272013233D 1   1.00000     0.00000
 Structure written by MMmdl.
 41 43  0  0  0  0  0  0  0  0  2 V2000
  152.4279  138.8085  159.2399 N   0  0  0  0  0  0  0  0  0  0  0  0
  152.2851  139.9428  159.0623 C   0  0  0  0  0  0  0  0  0  0  0  0
  152.1059  141.3723  158.8392 C   0  0  0  0  0  0  0  0  0  0  0  0
  152.6892  142.2826  159.7455 C   0  0  0  0  0  0  0  0  0  0  0  0
  152.5213  143.6633  159.5343 C   0  0  0  0  0  0  0  0  0  0  0  0
  151.7718  144.0802  158.4196 C   0  0  0  0  0  0  0  0  0  0  0  0
  151.2088  143.2203  157.5450 N   0  0  0  0  0  0  0  0  0  0  0  0
  151.3660  141.8878  157.7409 C   0  0  0  0  0  0  0  0  0  0  0  0
  150.7658  141.0151  156.8136 N   0  0  0  0  0  0  0  0  0  0  0  0
  150.3434  141.4605  155.4907 C   0  0  0  0  0  0  0  0  0  0  0  0
  149.1603  140.6430  154.9440 C   0  0  2  0  0  0  0  0  0  0  0  0
  149.6347  139.3083  154.3282 C   0  0  0  0  0  0  0  0  0  0  0  0
  148.5160  138.5730  153.6896 N   0  3  1  0  0  0  0  0  0  0  0  0
  147.6302  137.8793  154.6641 C   0  0  0  0  0  0  0  0  0  0  0  0
  146.5341  137.0767  153.9485 C   0  0  0  0  0  0  0  0  0  0  0  0
  145.7101  137.9866  153.0308 C   0  0  0  0  0  0  0  0  0  0  0  0
  146.6351  138.6944  152.0314 C   0  0  0  0  0  0  0  0  0  0  0  0
  147.7923  139.4459  152.7241 C   0  0  1  0  0  0  0  0  0  0  0  0
  147.3669  140.7677  153.3971 C   0  0  0  0  0  0  0  0  0  0  0  0
  148.5177  141.4124  153.9314 O   0  0  0  0  0  0  0  0  0  0  0  0
  153.2596  141.9323  160.5939 H   0  0  0  0  0  0  0  0  0  0  0  0
  152.9554  144.3844  160.2110 H   0  0  0  0  0  0  0  0  0  0  0  0
  151.6205  145.1314  158.2238 H   0  0  0  0  0  0  0  0  0  0  0  0
  150.7015  140.0305  157.0310 H   0  0  0  0  0  0  0  0  0  0  0  0
  150.0702  142.5143  155.5517 H   0  0  0  0  0  0  0  0  0  0  0  0
  151.1901  141.4084  154.8053 H   0  0  0  0  0  0  0  0  0  0  0  0
  148.4551  140.4447  155.7518 H   0  0  0  0  0  0  0  0  0  0  0  0
  150.3908  139.5064  153.5670 H   0  0  0  0  0  0  0  0  0  0  0  0
  150.1131  138.6821  155.0822 H   0  0  0  0  0  0  0  0  0  0  0  0
  148.2287  137.2060  155.2786 H   0  0  0  0  0  0  0  0  0  0  0  0
  147.1700  138.5959  155.3446 H   0  0  0  0  0  0  0  0  0  0  0  0
  146.9861  136.2735  153.3646 H   0  0  0  0  0  0  0  0  0  0  0  0
  145.8833  136.5988  154.6812 H   0  0  0  0  0  0  0  0  0  0  0  0
  144.9604  137.4013  152.4971 H   0  0  0  0  0  0  0  0  0  0  0  0
  145.1655  138.7210  153.6250 H   0  0  0  0  0  0  0  0  0  0  0  0
  147.0536  137.9485  151.3542 H   0  0  0  0  0  0  0  0  0  0  0  0
  146.0595  139.3787  151.4069 H   0  0  0  0  0  0  0  0  0  0  0  0
  148.5077  139.7090  151.9430 H   0  0  0  0  0  0  0  0  0  0  0  0
  146.9098  141.4318  152.6631 H   0  0  0  0  0  0  0  0  0  0  0  0
  146.6261  140.6083  154.1813 H   0  0  0  0  0  0  0  0  0  0  0  0
  148.9371  137.8354  153.1427 H   0  0  0  0  0  0  0  0  0  0  0  0
  1  2  3  0  0  0  0
  2  3  1  0  0  0  0
  3  8  1  0  0  0  0
  3  4  2  0  0  0  0
  4  5  1  0  0  0  0
  4 21  1  0  0  0  0
  5  6  2  0  0  0  0
  5 22  1  0  0  0  0
  6  7  1  0  0  0  0
  6 23  1  0  0  0  0
  7  8  2  0  0  0  0
  8  9  1  0  0  0  0
  9 10  1  0  0  0  0
  9 24  1  0  0  0  0
 10 11  1  0  0  0  0
 10 25  1  0  0  0  0
 10 26  1  0  0  0  0
 11 20  1  0  0  0  0
 11 12  1  0  0  0  0
 11 27  1  0  0  0  0
 12 13  1  0  0  0  0
 12 28  1  0  0  0  0
 12 29  1  0  0  0  0
 13 18  1  0  0  0  0
 13 14  1  0  0  0  0
 13 41  1  0  0  0  0
 14 15  1  0  0  0  0
 14 30  1  0  0  0  0
 14 31  1  0  0  0  0
 15 16  1  0  0  0  0
 15 32  1  0  0  0  0
 15 33  1  0  0  0  0
 16 17  1  0  0  0  0
 16 34  1  0  0  0  0
 16 35  1  0  0  0  0
 17 18  1  0  0  0  0
 17 36  1  0  0  0  0
 17 37  1  0  0  0  0
 18 19  1  0  0  0  0
 18 38  1  0  0  0  0
 19 20  1  0  0  0  0
 19 39  1  0  0  0  0
 19 40  1  0  0  0  0
M  CHG  1  13   1
M  END
> <s_m_source_file>
AV-unprocessed.smi

> <i_m_source_file_index>
2439

> <i_lp_mmshare_version>
43012

> <i_f3d_flags>
0

> <s_epik_input>
TiNDYzFbY0hdW2NIXVtjSF1uYzFbTkhdW0NIMl1bQ0BIXShbQ0gyXTIpT1tDSDJdW0NAQEhdKE4yMylbQ0gyXVtDSDJdW0NIMl1bQ0gyXTM=

> <s_epik_cmdline>
J2VwaWtfcHl0aG9uJywgJy1waCcsICc3LjAnLCAnLXRuJywgJzgnLCAnLW1hJywgJzIwMCcsICctbWV0YWxfYmluZGluZycsICctaW1hZScsICc8aW5maWxlLm1hZT4nLCAnLW9tYWUnLCAnPG91dGZpbGUubWFlPic=

> <r_epik_Ionization_Penalty>
0.0803594

> <r_epik_Ionization_Penalty_Charging>
0.0803403

> <r_epik_Ionization_Penalty_Neutral>
1.90988e-05

> <r_epik_State_Penalty>
0.0711481

> <r_epik_Charging_Adjusted_Penalty>
0.151488

> <i_epik_Tot_Q>
1

> <i_epik_Tot_abs_Q>
1

> <r_epik_Metal_State_Penalty>
0.0711482

> <b_epik_Metal_Only>
0

> <s_lp_Force_Field>
OPLS_2005

> <r_lp_Energy>
31.3603

> <b_lp_Chiralities_Consistent>
1

> <s_lp_Variant>
AV-unprocessed.smi:2439-3

> <Gold.Version>
5.8.1

> <Gold.Id.Protein>
6NUR|6NUR_protein|mol2

> <Gold.PLP.Fitness>
41.9756

> <Gold.PLP.PLP>
-35.3610

> <Gold.PLP.part.hbond>
-2.8233

> <Gold.PLP.part.metal>
0.0000

> <Gold.PLP.part.buried>
2.3495

> <Gold.PLP.part.nonpolar>
-35.1980

> <Gold.PLP.part.repulsive>
0.3932

> <Gold.PLP.ligand.clash>
0.0000

> <Gold.PLP.ligand.torsion>
0.4650

> <Gold.PLP.Chemscore.Hbond>
2.5148

> <Gold.PLP.Chemscore.CHOScore>
0.0000

> <Gold.PLP.Chemscore.Metal>
0.0000

> <Gold.Chemscore.Hbonds>
donor molecule, donor type, donor heavy atom, donor atom, acceptor molecule, acceptor atom, score
      L1  H    13    41       P1  7948  2.00
      P1  H  8011  8017       L1    20  0.27

> <Gold.PLP.Chemscore.Internal.Correction>
0.0003

> <Gold.Rescore>
     Score         DG    S(hbond)    S(metal)    S(lipo)     H(rot)  DE(clash)    DE(int)     intcor
     16.62     -19.96       1.57        0.00     106.63       1.27       2.90       0.44       ----

> <Gold.Chemscore.Fitness>
16.6203

> <Gold.Chemscore.DG>
-19.9564

> <Gold.Chemscore.ZeroCoef>
-5.4800

> <Gold.Chemscore.Hbond>
1.5692

> <Gold.Chemscore.Metal>
0.0000

> <Gold.Chemscore.Lipo>
106.6310

> <Gold.Chemscore.Internal_Hbond>
0.0000

> <Gold.Chemscore.DEClash>
2.8998

> <Gold.Chemscore.DEInternal>
0.4362

> <Gold.Chemscore.Rot>
1.2659

> <Gold.Chemscore.Internal.Correction>
   9.000000E+99

> <Gold.Chemscore.Hbonds>
donor molecule, donor type, donor heavy atom, donor atom, acceptor molecule, acceptor atom, score
      L1  H    13    41       P1  7948  0.92
      P1  H  8011  8017       L1    20  0.23

> <Gold.Chemscore.Hbond.Weighted>
-5.2413

> <Gold.Chemscore.Metal.Weighted>
-0.0000

> <Gold.Chemscore.Lipo.Weighted>
-12.4758

> <Gold.Chemscore.Internal_Hbond.Weighted>
0.0000

> <Gold.Chemscore.DEClash.Weighted>
2.8998

> <Gold.Chemscore.DEInternal.Weighted>
0.4362

> <Gold.Chemscore.Rot.Weighted>
3.2408

> <Gold.Chemscore.Internal.Correction.Weighted>
   9.000000E+99

> <Gold.Protein.RotatedTorsions>
[ 6907 6896 6895 6894 ] final  -91.90 input  -60.11 | X-H torsion
[ 7974 7965 7964 7962 ] final   50.24 input  175.53 | X-H torsion
[ 8008 7997 7996 7995 ] final  127.98 input   59.86 | X-H torsion
[ 10167 10162 10161 10158 ] final -163.08 input  -65.29 | X-H torsion
[ 10718 10713 10712 10709 ] final -112.55 input   66.30 | X-H torsion
[ 10763 10752 10751 10750 ] final -111.99 input  -60.55 | X-H torsion
[ 11005 11000 10999 10996 ] final   92.31 input  -57.11 | X-H torsion

> <Gold.Protein.ActiveResidues>
 VAL166  LYS551  ARG553  GLY616  TRP617  ASP618  TYR619  PRO620  LYS621  CYS622 
 ASP623  PHE694  ASN695  SER759  ASP760  ASP761  ALA762  ILE779  LEU786  VAL792 
 PHE793  MET794  SER795  GLU796  ALA797  LYS798  CYS799  TRP800  GLU811  SER814 

> <Gold.Protein.RotatedAtoms>
  150.6898  134.2206  159.4394 H   0  0  0  0  0  0  0  0  0  0  0  0  # atno 6907 bound_to 6896
  152.0162  134.9846  160.0579 H   0  0  0  0  0  0  0  0  0  0  0  0  # atno 6908 bound_to 6896
  152.1441  133.4447  159.4818 H   0  0  0  0  0  0  0  0  0  0  0  0  # atno 6909 bound_to 6896
  146.0031  139.4460  143.0003 H   0  0  0  0  0  0  0  0  0  0  0  0  # atno 7974 bound_to 7965
  156.2904  140.2656  156.2361 H   0  0  0  0  0  0  0  0  0  0  0  0  # atno 8008 bound_to 7997
  155.0024  140.0387  157.2383 H   0  0  0  0  0  0  0  0  0  0  0  0  # atno 8009 bound_to 7997
  154.7590  140.2757  155.6234 H   0  0  0  0  0  0  0  0  0  0  0  0  # atno 8010 bound_to 7997
  139.6346  144.0374  152.2044 H   0  0  0  0  0  0  0  0  0  0  0  0  # atno 10167 bound_to 10162
  156.0712  130.5926  150.8523 H   0  0  0  0  0  0  0  0  0  0  0  0  # atno 10718 bound_to 10713
  154.8328  135.4507  154.1125 H   0  0  0  0  0  0  0  0  0  0  0  0  # atno 10763 bound_to 10752
  153.2383  135.6913  153.7817 H   0  0  0  0  0  0  0  0  0  0  0  0  # atno 10764 bound_to 10752
  153.7174  135.3347  155.3235 H   0  0  0  0  0  0  0  0  0  0  0  0  # atno 10765 bound_to 10752
  139.8825  134.8725  156.3554 H   0  0  0  0  0  0  0  0  0  0  0  0  # atno 11005 bound_to 11000
  145.7458  140.9991  143.1277 LP  0  0  0  0  0  0  0  0  0  0  0  0  # atno 17320 bound_to 7965
  144.6926  139.9154  143.7465 LP  0  0  0  0  0  0  0  0  0  0  0  0  # atno 17321 bound_to 7965
  140.0048  144.6267  150.7698 LP  0  0  0  0  0  0  0  0  0  0  0  0  # atno 17342 bound_to 10162
  140.7458  143.2881  151.3406 LP  0  0  0  0  0  0  0  0  0  0  0  0  # atno 17343 bound_to 10162
  157.5784  131.0946  150.9309 LP  0  0  0  0  0  0  0  0  0  0  0  0  # atno 17370 bound_to 10713
  156.9510  130.5420  149.5282 LP  0  0  0  0  0  0  0  0  0  0  0  0  # atno 17371 bound_to 10713
  140.9565  133.7416  156.0343 LP  0  0  0  0  0  0  0  0  0  0  0  0  # atno 17394 bound_to 11000
  140.8041  134.3474  157.5431 LP  0  0  0  0  0  0  0  0  0  0  0  0  # atno 17395 bound_to 11000

$$$$
