AV-unprocessed.smi:1575|AV-procd|sdf|6339|dock10
  -GOLD-   22720 6553D 1   1.00000     0.00000
 Structure written by MMmdl.
 41 41  0  0  0  0  0  0  0  0  1 V2000
  145.3653  138.2664  158.7579 C   0  0  0  0  0  0  0  0  0  0  0  0
  145.9360  136.9286  158.7754 N   0  0  0  0  0  0  0  0  0  0  0  0
  147.1610  136.6368  159.2358 C   0  0  0  0  0  0  0  0  0  0  0  0
  147.9218  137.4853  159.7049 O   0  0  0  0  0  0  0  0  0  0  0  0
  147.5778  135.1576  159.1697 C   0  0  2  0  0  0  0  0  0  0  0  0
  147.9750  134.7117  160.5972 C   0  0  0  0  0  0  0  0  0  0  0  0
  146.8906  134.9275  161.6784 C   0  0  0  0  0  0  0  0  0  0  0  0
  147.2858  136.0034  162.7040 C   0  0  0  0  0  0  0  0  0  0  0  0
  146.5665  133.6049  162.3894 C   0  0  0  0  0  0  0  0  0  0  0  0
  148.7376  135.0057  158.2915 N   0  0  0  0  0  0  0  0  0  0  0  0
  148.7440  135.2233  156.9676 C   0  0  0  0  0  0  0  0  0  0  0  0
  147.7486  135.5853  156.3387 O   0  0  0  0  0  0  0  0  0  0  0  0
  150.0888  135.0212  156.2567 C   0  0  0  0  0  0  0  0  0  0  0  0
  150.7884  136.2864  155.9929 N   0  0  0  0  0  0  0  0  0  0  0  0
  150.4576  137.0531  154.8846 C   0  0  0  0  0  0  0  0  0  0  0  0
  151.0667  138.2235  154.5793 C   0  0  0  0  0  0  0  0  0  0  0  0
  152.1311  138.7461  155.4293 C   0  0  0  0  0  0  0  0  0  0  0  0
  152.7403  139.7961  155.2382 O   0  0  0  0  0  0  0  0  0  0  0  0
  152.4371  137.9446  156.5324 N   0  0  0  0  0  0  0  0  0  0  0  0
  151.8154  136.7362  156.8512 C   0  0  0  0  0  0  0  0  0  0  0  0
  152.1661  136.1041  157.8471 O   0  0  0  0  0  0  0  0  0  0  0  0
  153.1696  138.2651  157.1487 H   0  0  0  0  0  0  0  0  0  0  0  0
  144.3523  138.2334  158.3571 H   0  0  0  0  0  0  0  0  0  0  0  0
  145.9591  138.9322  158.1303 H   0  0  0  0  0  0  0  0  0  0  0  0
  145.3203  138.6837  159.7646 H   0  0  0  0  0  0  0  0  0  0  0  0
  145.3681  136.1782  158.4096 H   0  0  0  0  0  0  0  0  0  0  0  0
  146.7402  134.5614  158.8039 H   0  0  0  0  0  0  0  0  0  0  0  0
  148.2425  133.6534  160.5787 H   0  0  0  0  0  0  0  0  0  0  0  0
  148.8802  135.2387  160.9042 H   0  0  0  0  0  0  0  0  0  0  0  0
  145.9717  135.2556  161.1913 H   0  0  0  0  0  0  0  0  0  0  0  0
  148.2304  135.7594  163.1911 H   0  0  0  0  0  0  0  0  0  0  0  0
  146.5274  136.0993  163.4814 H   0  0  0  0  0  0  0  0  0  0  0  0
  147.3906  136.9838  162.2398 H   0  0  0  0  0  0  0  0  0  0  0  0
  147.4371  133.2145  162.9176 H   0  0  0  0  0  0  0  0  0  0  0  0
  146.2393  132.8450  161.6792 H   0  0  0  0  0  0  0  0  0  0  0  0
  145.7662  133.7363  163.1183 H   0  0  0  0  0  0  0  0  0  0  0  0
  149.6031  134.7251  158.7293 H   0  0  0  0  0  0  0  0  0  0  0  0
  150.7038  134.3696  156.8789 H   0  0  0  0  0  0  0  0  0  0  0  0
  149.9417  134.4726  155.3238 H   0  0  0  0  0  0  0  0  0  0  0  0
  149.6770  136.7028  154.2241 H   0  0  0  0  0  0  0  0  0  0  0  0
  150.7651  138.7755  153.7009 H   0  0  0  0  0  0  0  0  0  0  0  0
  1  2  1  0  0  0  0
  1 23  1  0  0  0  0
  1 24  1  0  0  0  0
  1 25  1  0  0  0  0
  2  3  1  0  0  0  0
  2 26  1  0  0  0  0
  3  4  2  0  0  0  0
  3  5  1  0  0  0  0
  5  6  1  0  0  0  0
  5 10  1  0  0  0  0
  5 27  1  0  0  0  0
  6  7  1  0  0  0  0
  6 28  1  0  0  0  0
  6 29  1  0  0  0  0
  7  8  1  0  0  0  0
  7  9  1  0  0  0  0
  7 30  1  0  0  0  0
  8 31  1  0  0  0  0
  8 32  1  0  0  0  0
  8 33  1  0  0  0  0
  9 34  1  0  0  0  0
  9 35  1  0  0  0  0
  9 36  1  0  0  0  0
 10 11  1  0  0  0  0
 10 37  1  0  0  0  0
 11 12  2  0  0  0  0
 11 13  1  0  0  0  0
 13 14  1  0  0  0  0
 13 38  1  0  0  0  0
 13 39  1  0  0  0  0
 14 20  1  0  0  0  0
 14 15  1  0  0  0  0
 15 16  2  0  0  0  0
 15 40  1  0  0  0  0
 16 17  1  0  0  0  0
 16 41  1  0  0  0  0
 17 18  2  0  0  0  0
 17 19  1  0  0  0  0
 19 22  1  0  0  0  0
 19 20  1  0  0  0  0
 20 21  2  0  0  0  0
M  END
> <s_m_source_file>
AV-unprocessed.smi

> <i_m_source_file_index>
1575

> <i_lp_mmshare_version>
43012

> <i_f3d_flags>
0

> <s_epik_input>
W0NIM11bTkhdQyg9TylbQ0BIXShbQ0gyXVtDSF0oW0NIM10pW0NIM10pW05IXUMoPU8pW0NIMl1uMVtjSF1bY0hdYyg9TylbbkhdYzE9Tw==

> <s_epik_cmdline>
J2VwaWtfcHl0aG9uJywgJy1waCcsICc3LjAnLCAnLXRuJywgJzgnLCAnLW1hJywgJzIwMCcsICctbWV0YWxfYmluZGluZycsICctaW1hZScsICc8aW5maWxlLm1hZT4nLCAnLW9tYWUnLCAnPG91dGZpbGUubWFlPic=

> <r_lp_tautomer_probability>
0.999537

> <r_epik_Ionization_Penalty>
0.00357166

> <r_epik_Ionization_Penalty_Charging>
0.00357161

> <r_epik_Ionization_Penalty_Neutral>
5.44484e-08

> <r_epik_State_Penalty>
0.00253761

> <r_epik_Charging_Adjusted_Penalty>
0.00610921

> <i_epik_Tot_Q>
0

> <i_epik_Tot_abs_Q>
0

> <r_epik_Metal_State_Penalty>
0.368734

> <b_epik_Metal_Only>
0

> <s_lp_Force_Field>
OPLS_2005

> <r_lp_Energy>
6.26633

> <b_lp_Chiralities_Consistent>
1

> <s_lp_Variant>
AV-unprocessed.smi:1575-1

> <Gold.Version>
5.8.1

> <Gold.Id.Protein>
6NUR|6NUR_protein|mol2

> <Gold.PLP.Fitness>
37.0244

> <Gold.PLP.PLP>
-30.8707

> <Gold.PLP.part.hbond>
-4.2649

> <Gold.PLP.part.metal>
0.0000

> <Gold.PLP.part.buried>
-4.3753

> <Gold.PLP.part.nonpolar>
-23.0666

> <Gold.PLP.part.repulsive>
0.3321

> <Gold.PLP.ligand.clash>
0.0000

> <Gold.PLP.ligand.torsion>
1.3751

> <Gold.PLP.Chemscore.Hbond>
1.9398

> <Gold.PLP.Chemscore.CHOScore>
1.0000

> <Gold.PLP.Chemscore.Metal>
0.0000

> <Gold.Chemscore.Hbonds>
donor molecule, donor type, donor heavy atom, donor atom, acceptor molecule, acceptor atom, score
      P1  H  6934  6947       L1     4  0.55
      P1  H  7989  7998       L1    18  0.19
      P1  H  7997  8009       L1    18  1.00
      L1  C    15    40       P1  7948  1.00

> <Gold.PLP.Chemscore.Internal.Correction>
0.0846

> <Gold.Rescore>
     Score         DG    S(hbond)    S(metal)    S(lipo)     H(rot)  DE(clash)    DE(int)     intcor
      9.14     -10.47       1.79        0.00      52.84       2.81       0.00       1.33       ----

> <Gold.Chemscore.Fitness>
9.1417

> <Gold.Chemscore.DG>
-10.4697

> <Gold.Chemscore.ZeroCoef>
-5.4800

> <Gold.Chemscore.Hbond>
1.7945

> <Gold.Chemscore.Metal>
0.0000

> <Gold.Chemscore.Lipo>
52.8408

> <Gold.Chemscore.Internal_Hbond>
0.0000

> <Gold.Chemscore.DEClash>
0.0000

> <Gold.Chemscore.DEInternal>
1.3280

> <Gold.Chemscore.Rot>
2.8072

> <Gold.Chemscore.Internal.Correction>
   9.000000E+99

> <Gold.Chemscore.Hbonds>
donor molecule, donor type, donor heavy atom, donor atom, acceptor molecule, acceptor atom, score
      P1  H  6934  6947       L1     4  0.53
      P1  H  7989  7998       L1    18  0.11
      P1  H  7997  8009       L1    18  0.98

> <Gold.Chemscore.Hbond.Weighted>
-5.9938

> <Gold.Chemscore.Metal.Weighted>
-0.0000

> <Gold.Chemscore.Lipo.Weighted>
-6.1824

> <Gold.Chemscore.Internal_Hbond.Weighted>
0.0000

> <Gold.Chemscore.DEClash.Weighted>
0.0000

> <Gold.Chemscore.DEInternal.Weighted>
1.3280

> <Gold.Chemscore.Rot.Weighted>
7.1864

> <Gold.Chemscore.Internal.Correction.Weighted>
   9.000000E+99

> <Gold.Protein.RotatedTorsions>
[ 6907 6896 6895 6894 ] final   68.36 input  -60.11 | X-H torsion
[ 7974 7965 7964 7962 ] final  -83.10 input  175.53 | X-H torsion
[ 8008 7997 7996 7995 ] final -124.62 input   59.86 | X-H torsion
[ 10167 10162 10161 10158 ] final  152.28 input  -65.29 | X-H torsion
[ 10718 10713 10712 10709 ] final  -87.84 input   66.30 | X-H torsion
[ 10763 10752 10751 10750 ] final   87.53 input  -60.55 | X-H torsion
[ 11005 11000 10999 10996 ] final -107.01 input  -57.11 | X-H torsion

> <Gold.Protein.ActiveResidues>
 VAL166  LYS551  ARG553  GLY616  TRP617  ASP618  TYR619  PRO620  LYS621  CYS622 
 ASP623  PHE694  ASN695  SER759  ASP760  ASP761  ALA762  ILE779  LEU786  VAL792 
 PHE793  MET794  SER795  GLU796  ALA797  LYS798  CYS799  TRP800  GLU811  SER814 

> <Gold.Protein.RotatedAtoms>
  152.4615  134.5174  159.9771 H   0  0  0  0  0  0  0  0  0  0  0  0  # atno 6907 bound_to 6896
  151.5222  133.3458  159.2911 H   0  0  0  0  0  0  0  0  0  0  0  0  # atno 6908 bound_to 6896
  150.8580  134.7953  159.7123 H   0  0  0  0  0  0  0  0  0  0  0  0  # atno 6909 bound_to 6896
  145.5244  140.9528  143.1637 H   0  0  0  0  0  0  0  0  0  0  0  0  # atno 7974 bound_to 7965
  155.1998  140.0415  157.2915 H   0  0  0  0  0  0  0  0  0  0  0  0  # atno 8008 bound_to 7997
  154.6082  140.2470  155.7675 H   0  0  0  0  0  0  0  0  0  0  0  0  # atno 8009 bound_to 7997
  156.2363  140.2920  156.0331 H   0  0  0  0  0  0  0  0  0  0  0  0  # atno 8010 bound_to 7997
  139.4834  144.5370  151.7628 H   0  0  0  0  0  0  0  0  0  0  0  0  # atno 10167 bound_to 10162
  155.9984  130.4814  150.4928 H   0  0  0  0  0  0  0  0  0  0  0  0  # atno 10718 bound_to 10713
  153.1677  135.4540  154.9860 H   0  0  0  0  0  0  0  0  0  0  0  0  # atno 10763 bound_to 10752
  154.7944  135.3232  154.7705 H   0  0  0  0  0  0  0  0  0  0  0  0  # atno 10764 bound_to 10752
  153.8185  135.6949  153.4885 H   0  0  0  0  0  0  0  0  0  0  0  0  # atno 10765 bound_to 10752
  141.0976  133.8943  157.1924 H   0  0  0  0  0  0  0  0  0  0  0  0  # atno 11005 bound_to 11000
  144.7659  139.6847  143.7215 LP  0  0  0  0  0  0  0  0  0  0  0  0  # atno 17320 bound_to 7965
  146.2085  139.5425  142.9697 LP  0  0  0  0  0  0  0  0  0  0  0  0  # atno 17321 bound_to 7965
  140.4905  144.1318  150.5949 LP  0  0  0  0  0  0  0  0  0  0  0  0  # atno 17342 bound_to 10162
  140.4177  143.2626  151.9754 LP  0  0  0  0  0  0  0  0  0  0  0  0  # atno 17343 bound_to 10162
  157.2921  131.0628  151.2127 LP  0  0  0  0  0  0  0  0  0  0  0  0  # atno 17370 bound_to 10713
  157.3136  130.6902  149.6229 LP  0  0  0  0  0  0  0  0  0  0  0  0  # atno 17371 bound_to 10713
  139.9817  135.0096  156.9765 LP  0  0  0  0  0  0  0  0  0  0  0  0  # atno 17394 bound_to 11000
  140.5102  134.1009  155.7269 LP  0  0  0  0  0  0  0  0  0  0  0  0  # atno 17395 bound_to 11000

$$$$
