AV-unprocessed.smi:1706|AV-procd|sdf|6886|dock2
  -GOLD-   22720 8 93D 1   1.00000     0.00000
 Structure written by MMmdl.
 35 36  0  0  0  0  0  0  0  0  1 V2000
  146.3977  142.8779  154.2451 C   0  0  0  0  0  0  0  0  0  0  0  0
  147.2683  141.7222  154.2302 N   0  0  0  0  0  0  0  0  0  0  0  0
  148.5715  141.6226  154.6666 C   0  0  0  0  0  0  0  0  0  0  0  0
  148.9847  140.3407  154.4349 C   0  0  0  0  0  0  0  0  0  0  0  0
  150.3302  139.7207  154.7068 C   0  0  0  0  0  0  0  0  0  0  0  0
  150.5811  139.5078  156.2090 C   0  0  0  0  0  0  0  0  0  0  0  0
  150.9709  140.7561  156.8566 N   0  0  0  0  0  0  0  0  0  0  0  0
  151.8077  140.8711  157.9004 C   0  0  0  0  0  0  0  0  0  0  0  0
  152.3022  139.8902  158.4574 O   0  0  0  0  0  0  0  0  0  0  0  0
  152.0944  142.1489  158.2533 N   0  0  0  0  0  0  0  0  0  0  0  0
  151.3314  143.3542  157.8946 C   0  0  0  0  0  0  0  0  0  0  0  0
  150.6807  143.9131  159.1728 C   0  0  0  0  0  0  0  0  0  0  0  0
  151.6886  144.1955  160.1405 O   0  0  0  0  0  0  0  0  0  0  0  0
  152.4670  143.0525  160.4874 C   0  0  0  0  0  0  0  0  0  0  0  0
  153.1390  142.4823  159.2255 C   0  0  0  0  0  0  0  0  0  0  0  0
  147.8407  139.7253  153.8510 C   0  0  0  0  0  0  0  0  0  0  0  0
  146.8167  140.5542  153.7290 N   0  0  0  0  0  0  0  0  0  0  0  0
  146.8195  143.6549  154.8831 H   0  0  0  0  0  0  0  0  0  0  0  0
  145.4151  142.6004  154.6282 H   0  0  0  0  0  0  0  0  0  0  0  0
  146.2909  143.2687  153.2328 H   0  0  0  0  0  0  0  0  0  0  0  0
  149.0960  142.4653  155.0927 H   0  0  0  0  0  0  0  0  0  0  0  0
  150.4172  138.7621  154.1941 H   0  0  0  0  0  0  0  0  0  0  0  0
  151.1279  140.3423  154.2994 H   0  0  0  0  0  0  0  0  0  0  0  0
  149.6825  139.1214  156.6909 H   0  0  0  0  0  0  0  0  0  0  0  0
  151.3586  138.7524  156.3365 H   0  0  0  0  0  0  0  0  0  0  0  0
  150.6127  141.6073  156.4493 H   0  0  0  0  0  0  0  0  0  0  0  0
  152.0106  144.0936  157.4680 H   0  0  0  0  0  0  0  0  0  0  0  0
  150.5632  143.1891  157.1393 H   0  0  0  0  0  0  0  0  0  0  0  0
  150.1385  144.8320  158.9498 H   0  0  0  0  0  0  0  0  0  0  0  0
  149.9574  143.2061  159.5824 H   0  0  0  0  0  0  0  0  0  0  0  0
  153.2215  143.3476  161.2166 H   0  0  0  0  0  0  0  0  0  0  0  0
  151.8356  142.3016  160.9650 H   0  0  0  0  0  0  0  0  0  0  0  0
  153.7613  141.6264  159.4906 H   0  0  0  0  0  0  0  0  0  0  0  0
  153.8145  143.2211  158.7919 H   0  0  0  0  0  0  0  0  0  0  0  0
  147.7282  138.7077  153.5069 H   0  0  0  0  0  0  0  0  0  0  0  0
  1  2  1  0  0  0  0
  1 18  1  0  0  0  0
  1 19  1  0  0  0  0
  1 20  1  0  0  0  0
  2 17  1  0  0  0  0
  2  3  1  0  0  0  0
  3  4  2  0  0  0  0
  3 21  1  0  0  0  0
  4  5  1  0  0  0  0
  4 16  1  0  0  0  0
  5  6  1  0  0  0  0
  5 22  1  0  0  0  0
  5 23  1  0  0  0  0
  6  7  1  0  0  0  0
  6 24  1  0  0  0  0
  6 25  1  0  0  0  0
  7  8  1  0  0  0  0
  7 26  1  0  0  0  0
  8  9  2  0  0  0  0
  8 10  1  0  0  0  0
 10 15  1  0  0  0  0
 10 11  1  0  0  0  0
 11 12  1  0  0  0  0
 11 27  1  0  0  0  0
 11 28  1  0  0  0  0
 12 13  1  0  0  0  0
 12 29  1  0  0  0  0
 12 30  1  0  0  0  0
 13 14  1  0  0  0  0
 14 15  1  0  0  0  0
 14 31  1  0  0  0  0
 14 32  1  0  0  0  0
 15 33  1  0  0  0  0
 15 34  1  0  0  0  0
 16 17  2  0  0  0  0
 16 35  1  0  0  0  0
M  END
> <s_m_source_file>
AV-unprocessed.smi

> <i_m_source_file_index>
1706

> <i_lp_mmshare_version>
43012

> <i_f3d_flags>
0

> <s_epik_input>
W0NIM11uMVtjSF1jKFtjSF1uMSlbQ0gyXVtDSDJdW05IXUMoPU8pTjJbQ0gyXVtDSDJdT1tDSDJdW0NIMl0y

> <s_epik_cmdline>
J2VwaWtfcHl0aG9uJywgJy1waCcsICc3LjAnLCAnLXRuJywgJzgnLCAnLW1hJywgJzIwMCcsICctbWV0YWxfYmluZGluZycsICctaW1hZScsICc8aW5maWxlLm1hZT4nLCAnLW9tYWUnLCAnPG91dGZpbGUubWFlPic=

> <r_lp_tautomer_probability>
1

> <r_epik_Ionization_Penalty>
0.000534981

> <r_epik_Ionization_Penalty_Charging>
0

> <r_epik_Ionization_Penalty_Neutral>
0.000534981

> <r_epik_State_Penalty>
-0

> <r_epik_Charging_Adjusted_Penalty>
0

> <i_epik_Tot_Q>
0

> <i_epik_Tot_abs_Q>
0

> <r_epik_Metal_State_Penalty>
-0

> <b_epik_Metal_Only>
0

> <s_lp_Force_Field>
OPLS_2005

> <r_lp_Energy>
25.9186

> <b_lp_Chiralities_Consistent>
1

> <s_lp_Variant>
AV-unprocessed.smi:1706-1

> <Gold.Version>
5.8.1

> <Gold.Id.Protein>
6NUR|6NUR_protein|mol2

> <Gold.PLP.Fitness>
37.0386

> <Gold.PLP.PLP>
-34.9504

> <Gold.PLP.part.hbond>
0.0000

> <Gold.PLP.part.metal>
0.0000

> <Gold.PLP.part.buried>
-4.4777

> <Gold.PLP.part.nonpolar>
-31.0536

> <Gold.PLP.part.repulsive>
0.2953

> <Gold.PLP.ligand.clash>
0.0000

> <Gold.PLP.ligand.torsion>
0.4717

> <Gold.PLP.Chemscore.Hbond>
0.0000

> <Gold.PLP.Chemscore.CHOScore>
1.0000

> <Gold.PLP.Chemscore.Metal>
0.0000

> <Gold.Chemscore.Hbonds>
donor molecule, donor type, donor heavy atom, donor atom, acceptor molecule, acceptor atom, score
      L1  C     3    21       P1  8028  1.00

> <Gold.PLP.Chemscore.Internal.Correction>
0.0316

> <Gold.Rescore>
     Score         DG    S(hbond)    S(metal)    S(lipo)     H(rot)  DE(clash)    DE(int)     intcor
     11.17     -11.49       0.00        0.00      82.79       1.44       0.02       0.31       ----

> <Gold.Chemscore.Fitness>
11.1662

> <Gold.Chemscore.DG>
-11.4869

> <Gold.Chemscore.ZeroCoef>
-5.4800

> <Gold.Chemscore.Hbond>
0.0000

> <Gold.Chemscore.Metal>
0.0000

> <Gold.Chemscore.Lipo>
82.7861

> <Gold.Chemscore.Internal_Hbond>
0.0000

> <Gold.Chemscore.DEClash>
0.0154

> <Gold.Chemscore.DEInternal>
0.3053

> <Gold.Chemscore.Rot>
1.4371

> <Gold.Chemscore.Internal.Correction>
   9.000000E+99

> <Gold.Chemscore.Hbond.Weighted>
-0.0000

> <Gold.Chemscore.Metal.Weighted>
-0.0000

> <Gold.Chemscore.Lipo.Weighted>
-9.6860

> <Gold.Chemscore.Internal_Hbond.Weighted>
0.0000

> <Gold.Chemscore.DEClash.Weighted>
0.0154

> <Gold.Chemscore.DEInternal.Weighted>
0.3053

> <Gold.Chemscore.Rot.Weighted>
3.6790

> <Gold.Chemscore.Internal.Correction.Weighted>
   9.000000E+99

> <Gold.Protein.RotatedTorsions>
[ 6907 6896 6895 6894 ] final -153.63 input  -60.11 | X-H torsion
[ 7974 7965 7964 7962 ] final  -49.27 input  175.53 | X-H torsion
[ 8008 7997 7996 7995 ] final  -12.46 input   59.86 | X-H torsion
[ 10167 10162 10161 10158 ] final -136.26 input  -65.29 | X-H torsion
[ 10718 10713 10712 10709 ] final  143.56 input   66.30 | X-H torsion
[ 10763 10752 10751 10750 ] final  -91.42 input  -60.55 | X-H torsion
[ 11005 11000 10999 10996 ] final  -16.73 input  -57.11 | X-H torsion

> <Gold.Protein.ActiveResidues>
 VAL166  LYS551  ARG553  GLY616  TRP617  ASP618  TYR619  PRO620  LYS621  CYS622 
 ASP623  PHE694  ASN695  SER759  ASP760  ASP761  ALA762  ILE779  LEU786  VAL792 
 PHE793  MET794  SER795  GLU796  ALA797  LYS798  CYS799  TRP800  GLU811  SER814 

> <Gold.Protein.RotatedAtoms>
  151.2455  133.4377  159.2608 H   0  0  0  0  0  0  0  0  0  0  0  0  # atno 6907 bound_to 6896
  151.0666  134.9771  159.8297 H   0  0  0  0  0  0  0  0  0  0  0  0  # atno 6908 bound_to 6896
  152.5406  134.2402  159.8912 H   0  0  0  0  0  0  0  0  0  0  0  0  # atno 6909 bound_to 6896
  145.9423  140.7650  142.9546 H   0  0  0  0  0  0  0  0  0  0  0  0  # atno 7974 bound_to 7965
  154.5375  140.2275  155.8697 H   0  0  0  0  0  0  0  0  0  0  0  0  # atno 8008 bound_to 7997
  156.1826  140.3096  155.9140 H   0  0  0  0  0  0  0  0  0  0  0  0  # atno 8009 bound_to 7997
  155.3325  140.0446  157.3033 H   0  0  0  0  0  0  0  0  0  0  0  0  # atno 8010 bound_to 7997
  139.8695  143.6975  152.2641 H   0  0  0  0  0  0  0  0  0  0  0  0  # atno 10167 bound_to 10162
  157.3674  131.0974  151.0859 H   0  0  0  0  0  0  0  0  0  0  0  0  # atno 10718 bound_to 10713
  154.6759  135.5268  153.8199 H   0  0  0  0  0  0  0  0  0  0  0  0  # atno 10763 bound_to 10752
  153.0532  135.6540  154.0652 H   0  0  0  0  0  0  0  0  0  0  0  0  # atno 10764 bound_to 10752
  154.0545  135.2966  155.3315 H   0  0  0  0  0  0  0  0  0  0  0  0  # atno 10765 bound_to 10752
  140.8097  133.8150  155.9551 H   0  0  0  0  0  0  0  0  0  0  0  0  # atno 11005 bound_to 11000
  144.6781  140.2301  143.7356 LP  0  0  0  0  0  0  0  0  0  0  0  0  # atno 17320 bound_to 7965
  145.8283  139.2074  143.1898 LP  0  0  0  0  0  0  0  0  0  0  0  0  # atno 17321 bound_to 7965
  139.7297  144.7585  151.0822 LP  0  0  0  0  0  0  0  0  0  0  0  0  # atno 17342 bound_to 10162
  140.7763  143.5104  150.9660 LP  0  0  0  0  0  0  0  0  0  0  0  0  # atno 17343 bound_to 10162
  157.1976  130.6380  149.5727 LP  0  0  0  0  0  0  0  0  0  0  0  0  # atno 17370 bound_to 10713
  155.9749  130.4701  150.6419 LP  0  0  0  0  0  0  0  0  0  0  0  0  # atno 17371 bound_to 10713
  140.9210  134.2141  157.4926 LP  0  0  0  0  0  0  0  0  0  0  0  0  # atno 17394 bound_to 11000
  139.8715  134.9792  156.5028 LP  0  0  0  0  0  0  0  0  0  0  0  0  # atno 17395 bound_to 11000

$$$$
