AV-unprocessed.smi:315|AV-procd|sdf|2323|dock1
  -GOLD-   2262022223D 1   1.00000     0.00000
 Structure written by MMmdl.
 47 49  0  0  0  0  0  0  0  0  2 V2000
  152.0918  139.1168  156.0449 C   0  0  0  0  0  0  0  0  0  0  0  0
  151.9068  138.5101  154.6519 C   0  0  0  0  0  0  0  0  0  0  0  0
  150.5204  138.2571  154.4500 O   0  0  0  0  0  0  0  0  0  0  0  0
  149.6494  139.3288  154.3929 C   0  0  0  0  0  0  0  0  0  0  0  0
  150.0867  140.5430  154.8109 N   0  0  0  0  0  0  0  0  0  0  0  0
  149.2336  141.5864  154.7541 C   0  0  0  0  0  0  0  0  0  0  0  0
  147.9096  141.4755  154.2901 C   0  0  0  0  0  0  0  0  0  0  0  0
  147.4538  140.2167  153.8569 C   0  0  0  0  0  0  0  0  0  0  0  0
  148.3430  139.1161  153.8964 C   0  0  0  0  0  0  0  0  0  0  0  0
  147.9872  137.7986  153.5023 N   0  0  0  0  0  0  0  0  0  0  0  0
  146.7838  137.3247  153.1273 C   0  0  0  0  0  0  0  0  0  0  0  0
  145.7491  137.9862  153.0902 O   0  0  0  0  0  0  0  0  0  0  0  0
  146.7967  136.0304  152.7618 N   0  0  0  0  0  0  0  0  0  0  0  0
  145.6683  135.2170  152.3051 C   0  0  1  0  0  0  0  0  0  0  0  0
  144.5795  136.0151  151.5687 C   0  0  0  0  0  0  0  0  0  0  0  0
  144.1295  135.1155  150.4008 C   0  0  0  0  0  0  0  0  0  0  0  0
  144.8464  133.8294  150.5555 N   0  3  2  0  0  0  0  0  0  0  0  0
  144.0132  132.8038  151.2417 C   0  0  0  0  0  0  0  0  0  0  0  0
  144.8243  131.5559  151.6134 C   0  0  0  0  0  0  0  0  0  0  0  0
  146.0029  131.9407  152.5111 C   0  0  0  0  0  0  0  0  0  0  0  0
  146.8876  132.9601  151.7846 C   0  0  0  0  0  0  0  0  0  0  0  0
  146.1019  134.1835  151.2610 C   0  0  2  0  0  0  0  0  0  0  0  0
  153.1431  139.3277  156.2412 H   0  0  0  0  0  0  0  0  0  0  0  0
  151.7372  138.4358  156.8190 H   0  0  0  0  0  0  0  0  0  0  0  0
  151.5393  140.0518  156.1409 H   0  0  0  0  0  0  0  0  0  0  0  0
  152.2824  139.2026  153.8970 H   0  0  0  0  0  0  0  0  0  0  0  0
  152.4781  137.5834  154.5773 H   0  0  0  0  0  0  0  0  0  0  0  0
  149.6158  142.5376  155.0944 H   0  0  0  0  0  0  0  0  0  0  0  0
  147.2574  142.3360  154.2707 H   0  0  0  0  0  0  0  0  0  0  0  0
  146.4342  140.1177  153.5178 H   0  0  0  0  0  0  0  0  0  0  0  0
  148.7612  137.1578  153.4081 H   0  0  0  0  0  0  0  0  0  0  0  0
  147.6916  135.5636  152.7979 H   0  0  0  0  0  0  0  0  0  0  0  0
  145.2210  134.6948  153.1527 H   0  0  0  0  0  0  0  0  0  0  0  0
  143.7513  136.2496  152.2383 H   0  0  0  0  0  0  0  0  0  0  0  0
  144.9648  136.9602  151.1826 H   0  0  0  0  0  0  0  0  0  0  0  0
  143.0463  134.9910  150.3624 H   0  0  0  0  0  0  0  0  0  0  0  0
  144.4359  135.5654  149.4556 H   0  0  0  0  0  0  0  0  0  0  0  0
  143.5693  133.2272  152.1442 H   0  0  0  0  0  0  0  0  0  0  0  0
  143.1848  132.5254  150.5894 H   0  0  0  0  0  0  0  0  0  0  0  0
  144.1853  130.8361  152.1262 H   0  0  0  0  0  0  0  0  0  0  0  0
  145.1868  131.0632  150.7102 H   0  0  0  0  0  0  0  0  0  0  0  0
  145.6386  132.3564  153.4513 H   0  0  0  0  0  0  0  0  0  0  0  0
  146.5856  131.0556  152.7677 H   0  0  0  0  0  0  0  0  0  0  0  0
  147.7004  133.2835  152.4356 H   0  0  0  0  0  0  0  0  0  0  0  0
  147.3623  132.4628  150.9376 H   0  0  0  0  0  0  0  0  0  0  0  0
  146.7351  134.6923  150.5308 H   0  0  0  0  0  0  0  0  0  0  0  0
  145.0796  133.4639  149.6431 H   0  0  0  0  0  0  0  0  0  0  0  0
  1  2  1  0  0  0  0
  1 23  1  0  0  0  0
  1 24  1  0  0  0  0
  1 25  1  0  0  0  0
  2  3  1  0  0  0  0
  2 26  1  0  0  0  0
  2 27  1  0  0  0  0
  3  4  1  0  0  0  0
  4  9  1  0  0  0  0
  4  5  2  0  0  0  0
  5  6  1  0  0  0  0
  6  7  2  0  0  0  0
  6 28  1  0  0  0  0
  7  8  1  0  0  0  0
  7 29  1  0  0  0  0
  8  9  2  0  0  0  0
  8 30  1  0  0  0  0
  9 10  1  0  0  0  0
 10 11  1  0  0  0  0
 10 31  1  0  0  0  0
 11 12  2  0  0  0  0
 11 13  1  0  0  0  0
 13 14  1  0  0  0  0
 13 32  1  0  0  0  0
 14 22  1  0  0  0  0
 14 15  1  0  0  0  0
 14 33  1  0  0  0  0
 15 16  1  0  0  0  0
 15 34  1  0  0  0  0
 15 35  1  0  0  0  0
 16 17  1  0  0  0  0
 16 36  1  0  0  0  0
 16 37  1  0  0  0  0
 17 22  1  0  0  0  0
 17 18  1  0  0  0  0
 17 47  1  0  0  0  0
 18 19  1  0  0  0  0
 18 38  1  0  0  0  0
 18 39  1  0  0  0  0
 19 20  1  0  0  0  0
 19 40  1  0  0  0  0
 19 41  1  0  0  0  0
 20 21  1  0  0  0  0
 20 42  1  0  0  0  0
 20 43  1  0  0  0  0
 21 22  1  0  0  0  0
 21 44  1  0  0  0  0
 21 45  1  0  0  0  0
 22 46  1  0  0  0  0
M  CHG  1  17   1
M  END
> <s_m_source_file>
AV-unprocessed.smi

> <i_m_source_file_index>
315

> <i_lp_mmshare_version>
43012

> <i_f3d_flags>
0

> <s_epik_input>
W0NIM11bQ0gyXU9jMW5bY0hdW2NIXVtjSF1jMVtOSF1DKD1PKVtOSF1bQ0BIXShbQ0gyXVtDSDJdMilbQ0BASF0oTjIzKVtDSDJdW0NIMl1bQ0gyXVtDSDJdMw==

> <s_epik_cmdline>
J2VwaWtfcHl0aG9uJywgJy1waCcsICc3LjAnLCAnLXRuJywgJzgnLCAnLW1hJywgJzIwMCcsICctbWV0YWxfYmluZGluZycsICctaW1hZScsICc8aW5maWxlLm1hZT4nLCAnLW9tYWUnLCAnPG91dGZpbGUubWFlPic=

> <r_lp_tautomer_probability>
1

> <r_epik_Ionization_Penalty>
0.00106455

> <r_epik_Ionization_Penalty_Charging>
0.000974069

> <r_epik_Ionization_Penalty_Neutral>
9.04821e-05

> <r_epik_State_Penalty>
0.000633842

> <r_epik_Charging_Adjusted_Penalty>
0.00160791

> <i_epik_Tot_Q>
1

> <i_epik_Tot_abs_Q>
1

> <r_epik_Metal_State_Penalty>
-0

> <b_epik_Metal_Only>
0

> <s_lp_Force_Field>
OPLS_2005

> <r_lp_Energy>
51.0433

> <b_lp_Chiralities_Consistent>
1

> <s_lp_Variant>
AV-unprocessed.smi:315-8

> <Gold.Version>
5.8.1

> <Gold.Id.Protein>
6NUR|6NUR_protein|mol2

> <Gold.PLP.Fitness>
44.1323

> <Gold.PLP.PLP>
-37.0652

> <Gold.PLP.part.hbond>
-2.0833

> <Gold.PLP.part.metal>
0.0000

> <Gold.PLP.part.buried>
-1.9576

> <Gold.PLP.part.nonpolar>
-33.7584

> <Gold.PLP.part.repulsive>
0.6053

> <Gold.PLP.ligand.clash>
0.0000

> <Gold.PLP.ligand.torsion>
0.5527

> <Gold.PLP.Chemscore.Hbond>
1.7120

> <Gold.PLP.Chemscore.CHOScore>
1.0000

> <Gold.PLP.Chemscore.Metal>
0.0000

> <Gold.Chemscore.Hbonds>
donor molecule, donor type, donor heavy atom, donor atom, acceptor molecule, acceptor atom, score
      L1  H    10    31       P1  7948  0.40
      L1  H    13    32       P1  7948  0.35
      P1  H  7989  7998       L1     5  0.87
      L1  C     6    28       P1  8028  1.00

> <Gold.PLP.Chemscore.Internal.Correction>
0.0365

> <Gold.Rescore>
     Score         DG    S(hbond)    S(metal)    S(lipo)     H(rot)  DE(clash)    DE(int)     intcor
     12.55     -18.77       1.79        0.00      92.76       1.38       1.80       4.42       ----

> <Gold.Chemscore.Fitness>
12.5523

> <Gold.Chemscore.DG>
-18.7746

> <Gold.Chemscore.ZeroCoef>
-5.4800

> <Gold.Chemscore.Hbond>
1.7866

> <Gold.Chemscore.Metal>
0.0000

> <Gold.Chemscore.Lipo>
92.7568

> <Gold.Chemscore.Internal_Hbond>
0.0000

> <Gold.Chemscore.DEClash>
1.8035

> <Gold.Chemscore.DEInternal>
4.4188

> <Gold.Chemscore.Rot>
1.3770

> <Gold.Chemscore.Internal.Correction>
   9.000000E+99

> <Gold.Chemscore.Hbonds>
donor molecule, donor type, donor heavy atom, donor atom, acceptor molecule, acceptor atom, score
      L1  H    10    31       P1  7948  0.40
      L1  H    13    32       P1  7948  0.36
      P1  H  7989  7998       L1     5  0.16

> <Gold.Chemscore.Hbond.Weighted>
-5.9672

> <Gold.Chemscore.Metal.Weighted>
-0.0000

> <Gold.Chemscore.Lipo.Weighted>
-10.8525

> <Gold.Chemscore.Internal_Hbond.Weighted>
0.0000

> <Gold.Chemscore.DEClash.Weighted>
1.8035

> <Gold.Chemscore.DEInternal.Weighted>
4.4188

> <Gold.Chemscore.Rot.Weighted>
3.5252

> <Gold.Chemscore.Internal.Correction.Weighted>
   9.000000E+99

> <Gold.Protein.RotatedTorsions>
[ 6907 6896 6895 6894 ] final   21.37 input  -60.11 | X-H torsion
[ 7974 7965 7964 7962 ] final -144.78 input  175.53 | X-H torsion
[ 8008 7997 7996 7995 ] final  137.77 input   59.86 | X-H torsion
[ 10167 10162 10161 10158 ] final   78.78 input  -65.29 | X-H torsion
[ 10718 10713 10712 10709 ] final  -86.84 input   66.30 | X-H torsion
[ 10763 10752 10751 10750 ] final  -56.11 input  -60.55 | X-H torsion
[ 11005 11000 10999 10996 ] final -114.40 input  -57.11 | X-H torsion

> <Gold.Protein.ActiveResidues>
 VAL166  LYS551  ARG553  GLY616  TRP617  ASP618  TYR619  PRO620  LYS621  CYS622 
 ASP623  PHE694  ASN695  SER759  ASP760  ASP761  ALA762  ILE779  LEU786  VAL792 
 PHE793  MET794  SER795  GLU796  ALA797  LYS798  CYS799  TRP800  GLU811  SER814 

> <Gold.Protein.RotatedAtoms>
  151.9107  135.0340  160.0513 H   0  0  0  0  0  0  0  0  0  0  0  0  # atno 6907 bound_to 6896
  152.2282  133.5032  159.5209 H   0  0  0  0  0  0  0  0  0  0  0  0  # atno 6908 bound_to 6896
  150.7018  134.1169  159.4063 H   0  0  0  0  0  0  0  0  0  0  0  0  # atno 6909 bound_to 6896
  144.8273  140.5666  143.5538 H   0  0  0  0  0  0  0  0  0  0  0  0  # atno 7974 bound_to 7965
  156.3001  140.2411  156.3965 H   0  0  0  0  0  0  0  0  0  0  0  0  # atno 8008 bound_to 7997
  154.8566  140.0421  157.1658 H   0  0  0  0  0  0  0  0  0  0  0  0  # atno 8009 bound_to 7997
  154.8941  140.2967  155.5358 H   0  0  0  0  0  0  0  0  0  0  0  0  # atno 8010 bound_to 7997
  139.9673  144.5919  150.8017 H   0  0  0  0  0  0  0  0  0  0  0  0  # atno 10167 bound_to 10162
  155.9988  130.4779  150.4775 H   0  0  0  0  0  0  0  0  0  0  0  0  # atno 10718 bound_to 10713
  154.2015  135.6410  153.5088 H   0  0  0  0  0  0  0  0  0  0  0  0  # atno 10763 bound_to 10752
  153.0011  135.5452  154.6310 H   0  0  0  0  0  0  0  0  0  0  0  0  # atno 10764 bound_to 10752
  154.5724  135.2918  155.0787 H   0  0  0  0  0  0  0  0  0  0  0  0  # atno 10765 bound_to 10752
  141.0554  133.9620  157.2762 H   0  0  0  0  0  0  0  0  0  0  0  0  # atno 11005 bound_to 11000
  145.4972  139.1485  143.3677 LP  0  0  0  0  0  0  0  0  0  0  0  0  # atno 17320 bound_to 7965
  146.2578  140.5111  142.8866 LP  0  0  0  0  0  0  0  0  0  0  0  0  # atno 17321 bound_to 7965
  140.7533  143.3007  151.3089 LP  0  0  0  0  0  0  0  0  0  0  0  0  # atno 17342 bound_to 10162
  139.6508  144.0367  152.2624 LP  0  0  0  0  0  0  0  0  0  0  0  0  # atno 17343 bound_to 10162
  157.2784  131.0602  151.2214 LP  0  0  0  0  0  0  0  0  0  0  0  0  # atno 17370 bound_to 10713
  157.3269  130.6965  149.6301 LP  0  0  0  0  0  0  0  0  0  0  0  0  # atno 17371 bound_to 10713
  139.9386  135.0194  156.8635 LP  0  0  0  0  0  0  0  0  0  0  0  0  # atno 17394 bound_to 11000
  140.5973  134.0204  155.7523 LP  0  0  0  0  0  0  0  0  0  0  0  0  # atno 17395 bound_to 11000

$$$$
