AV-unprocessed.smi:2477|AV-procd|sdf|9762|dock4
  -GOLD-   2272013403D 1   1.00000     0.00000
 Structure written by MMmdl.
 51 53  0  0  0  0  0  0  0  0  1 V2000
  150.5494  140.6318  155.6677 C   0  0  0  0  0  0  0  0  0  0  0  0
  149.3241  140.4898  154.8769 N   0  0  0  0  0  0  0  0  0  0  0  0
  148.4961  141.6181  154.7522 C   0  0  0  0  0  0  0  0  0  0  0  0
  147.3578  141.5802  154.0458 C   0  0  0  0  0  0  0  0  0  0  0  0
  146.9898  140.3417  153.4027 C   0  0  0  0  0  0  0  0  0  0  0  0
  147.7702  139.2375  153.5174 C   0  0  0  0  0  0  0  0  0  0  0  0
  147.4947  137.9950  152.9202 N   0  0  0  0  0  0  0  0  0  0  0  0
  146.3283  137.3319  152.8218 C   0  0  0  0  0  0  0  0  0  0  0  0
  145.2427  137.7121  153.2592 O   0  0  0  0  0  0  0  0  0  0  0  0
  146.5028  136.1538  152.2054 N   0  0  0  0  0  0  0  0  0  0  0  0
  145.4701  135.1399  152.0044 C   0  0  1  0  0  0  0  0  0  0  0  0
  144.9284  135.2561  150.5664 C   0  0  0  0  0  0  0  0  0  0  0  0
  143.8825  134.1717  150.2637 C   0  0  0  0  0  0  0  0  0  0  0  0
  144.4473  132.7676  150.5240 C   0  0  0  0  0  0  0  0  0  0  0  0
  144.9790  132.6462  151.9596 C   0  0  0  0  0  0  0  0  0  0  0  0
  146.0354  133.7230  152.2638 C   0  0  2  0  0  0  0  0  0  0  0  0
  146.3857  133.5886  153.6368 O   0  0  0  0  0  0  0  0  0  0  0  0
  147.1465  132.4277  153.9525 C   0  0  0  0  0  0  0  0  0  0  0  0
  147.7936  132.5712  155.3329 C   0  0  0  0  0  0  0  0  0  0  0  0
  149.0008  133.4843  155.1023 C   0  0  0  0  0  0  0  0  0  0  0  0
  149.4086  133.2880  153.6337 C   0  0  0  0  0  0  0  0  0  0  0  0
  148.3465  132.3751  153.0063 C   0  0  0  0  0  0  0  0  0  0  0  0
  149.0228  139.2901  154.2965 C   0  0  0  0  0  0  0  0  0  0  0  0
  149.7667  138.3145  154.4262 O   0  0  0  0  0  0  0  0  0  0  0  0
  150.6911  141.6439  156.0483 H   0  0  0  0  0  0  0  0  0  0  0  0
  151.4259  140.3875  155.0660 H   0  0  0  0  0  0  0  0  0  0  0  0
  150.5287  139.9604  156.5272 H   0  0  0  0  0  0  0  0  0  0  0  0
  148.8400  142.5064  155.2615 H   0  0  0  0  0  0  0  0  0  0  0  0
  146.7307  142.4552  153.9597 H   0  0  0  0  0  0  0  0  0  0  0  0
  146.0830  140.3431  152.8206 H   0  0  0  0  0  0  0  0  0  0  0  0
  148.3082  137.5192  152.5574 H   0  0  0  0  0  0  0  0  0  0  0  0
  147.4304  135.9230  151.8812 H   0  0  0  0  0  0  0  0  0  0  0  0
  144.6384  135.3179  152.6892 H   0  0  0  0  0  0  0  0  0  0  0  0
  144.4877  136.2418  150.4123 H   0  0  0  0  0  0  0  0  0  0  0  0
  145.7501  135.1713  149.8533 H   0  0  0  0  0  0  0  0  0  0  0  0
  143.0001  134.3323  150.8844 H   0  0  0  0  0  0  0  0  0  0  0  0
  143.5514  134.2531  149.2280 H   0  0  0  0  0  0  0  0  0  0  0  0
  143.6752  132.0179  150.3484 H   0  0  0  0  0  0  0  0  0  0  0  0
  145.2505  132.5574  149.8166 H   0  0  0  0  0  0  0  0  0  0  0  0
  144.1493  132.7382  152.6620 H   0  0  0  0  0  0  0  0  0  0  0  0
  145.4043  131.6541  152.1142 H   0  0  0  0  0  0  0  0  0  0  0  0
  146.8954  133.5503  151.6129 H   0  0  0  0  0  0  0  0  0  0  0  0
  146.5405  131.5247  153.8644 H   0  0  0  0  0  0  0  0  0  0  0  0
  147.1146  132.9561  156.0940 H   0  0  0  0  0  0  0  0  0  0  0  0
  148.1405  131.5935  155.6700 H   0  0  0  0  0  0  0  0  0  0  0  0
  148.7096  134.5230  155.2635 H   0  0  0  0  0  0  0  0  0  0  0  0
  149.8156  133.2625  155.7920 H   0  0  0  0  0  0  0  0  0  0  0  0
  149.4343  134.2515  153.1230 H   0  0  0  0  0  0  0  0  0  0  0  0
  150.4015  132.8458  153.5469 H   0  0  0  0  0  0  0  0  0  0  0  0
  148.7277  131.3538  152.9693 H   0  0  0  0  0  0  0  0  0  0  0  0
  148.0912  132.6628  151.9858 H   0  0  0  0  0  0  0  0  0  0  0  0
  1  2  1  0  0  0  0
  1 25  1  0  0  0  0
  1 26  1  0  0  0  0
  1 27  1  0  0  0  0
  2 23  1  0  0  0  0
  2  3  1  0  0  0  0
  3  4  2  0  0  0  0
  3 28  1  0  0  0  0
  4  5  1  0  0  0  0
  4 29  1  0  0  0  0
  5  6  2  0  0  0  0
  5 30  1  0  0  0  0
  6  7  1  0  0  0  0
  6 23  1  0  0  0  0
  7  8  1  0  0  0  0
  7 31  1  0  0  0  0
  8  9  2  0  0  0  0
  8 10  1  0  0  0  0
 10 11  1  0  0  0  0
 10 32  1  0  0  0  0
 11 16  1  0  0  0  0
 11 12  1  0  0  0  0
 11 33  1  0  0  0  0
 12 13  1  0  0  0  0
 12 34  1  0  0  0  0
 12 35  1  0  0  0  0
 13 14  1  0  0  0  0
 13 36  1  0  0  0  0
 13 37  1  0  0  0  0
 14 15  1  0  0  0  0
 14 38  1  0  0  0  0
 14 39  1  0  0  0  0
 15 16  1  0  0  0  0
 15 40  1  0  0  0  0
 15 41  1  0  0  0  0
 16 17  1  0  0  0  0
 16 42  1  0  0  0  0
 17 18  1  0  0  0  0
 18 22  1  0  0  0  0
 18 19  1  0  0  0  0
 18 43  1  0  0  0  0
 19 20  1  0  0  0  0
 19 44  1  0  0  0  0
 19 45  1  0  0  0  0
 20 21  1  0  0  0  0
 20 46  1  0  0  0  0
 20 47  1  0  0  0  0
 21 22  1  0  0  0  0
 21 48  1  0  0  0  0
 21 49  1  0  0  0  0
 22 50  1  0  0  0  0
 22 51  1  0  0  0  0
 23 24  2  0  0  0  0
M  END
> <s_m_source_file>
AV-unprocessed.smi

> <i_m_source_file_index>
2477

> <i_lp_mmshare_version>
43012

> <i_f3d_flags>
0

> <s_epik_input>
W0NIM11uMVtjSF1bY0hdW2NIXWMoYzE9TylbTkhdQyg9TylbTkhdW0NAQEhdMltDSDJdW0NIMl1bQ0gyXVtDSDJdW0NASF0yT1tDSF0zW0NIMl1bQ0gyXVtDSDJdW0NIMl0z

> <s_epik_cmdline>
J2VwaWtfcHl0aG9uJywgJy1waCcsICc3LjAnLCAnLXRuJywgJzgnLCAnLW1hJywgJzIwMCcsICctbWV0YWxfYmluZGluZycsICctaW1hZScsICc8aW5maWxlLm1hZT4nLCAnLW9tYWUnLCAnPG91dGZpbGUubWFlPic=

> <r_lp_tautomer_probability>
1

> <r_epik_Ionization_Penalty>
2.40753e-05

> <r_epik_Ionization_Penalty_Charging>
4.84018e-06

> <r_epik_Ionization_Penalty_Neutral>
1.92352e-05

> <r_epik_State_Penalty>
-0

> <r_epik_Charging_Adjusted_Penalty>
4.84018e-06

> <i_epik_Tot_Q>
0

> <i_epik_Tot_abs_Q>
0

> <r_epik_Metal_State_Penalty>
-0

> <b_epik_Metal_Only>
0

> <s_lp_Force_Field>
OPLS_2005

> <r_lp_Energy>
41.4138

> <b_lp_Chiralities_Consistent>
1

> <s_lp_Variant>
AV-unprocessed.smi:2477-4

> <Gold.Version>
5.8.1

> <Gold.Id.Protein>
6NUR|6NUR_protein|mol2

> <Gold.PLP.Fitness>
46.1323

> <Gold.PLP.PLP>
-38.5810

> <Gold.PLP.part.hbond>
-1.6709

> <Gold.PLP.part.metal>
0.0000

> <Gold.PLP.part.buried>
0.2683

> <Gold.PLP.part.nonpolar>
-37.9662

> <Gold.PLP.part.repulsive>
0.5979

> <Gold.PLP.ligand.clash>
0.0000

> <Gold.PLP.ligand.torsion>
0.7421

> <Gold.PLP.Chemscore.Hbond>
1.9913

> <Gold.PLP.Chemscore.CHOScore>
1.0000

> <Gold.PLP.Chemscore.Metal>
0.0000

> <Gold.Chemscore.Hbonds>
donor molecule, donor type, donor heavy atom, donor atom, acceptor molecule, acceptor atom, score
      L1  H     7    31       P1  7948  1.00
      L1  H    10    32       P1  7948  0.99
      L1  C     3    28       P1  8028  1.00

> <Gold.PLP.Chemscore.Internal.Correction>
0.0618

> <Gold.Rescore>
     Score         DG    S(hbond)    S(metal)    S(lipo)     H(rot)  DE(clash)    DE(int)     intcor
     18.14     -18.86       1.91        0.00      89.55       1.36       0.14       0.58       ----

> <Gold.Chemscore.Fitness>
18.1447

> <Gold.Chemscore.DG>
-18.8618

> <Gold.Chemscore.ZeroCoef>
-5.4800

> <Gold.Chemscore.Hbond>
1.9094

> <Gold.Chemscore.Metal>
0.0000

> <Gold.Chemscore.Lipo>
89.5453

> <Gold.Chemscore.Internal_Hbond>
0.0000

> <Gold.Chemscore.DEClash>
0.1355

> <Gold.Chemscore.DEInternal>
0.5815

> <Gold.Chemscore.Rot>
1.3564

> <Gold.Chemscore.Internal.Correction>
   9.000000E+99

> <Gold.Chemscore.Hbonds>
donor molecule, donor type, donor heavy atom, donor atom, acceptor molecule, acceptor atom, score
      L1  H     7    31       P1  7948  0.92
      L1  H    10    32       P1  7948  0.88

> <Gold.Chemscore.Hbond.Weighted>
-6.3773

> <Gold.Chemscore.Metal.Weighted>
-0.0000

> <Gold.Chemscore.Lipo.Weighted>
-10.4768

> <Gold.Chemscore.Internal_Hbond.Weighted>
0.0000

> <Gold.Chemscore.DEClash.Weighted>
0.1355

> <Gold.Chemscore.DEInternal.Weighted>
0.5815

> <Gold.Chemscore.Rot.Weighted>
3.4724

> <Gold.Chemscore.Internal.Correction.Weighted>
   9.000000E+99

> <Gold.Protein.RotatedTorsions>
[ 6907 6896 6895 6894 ] final  -51.61 input  -60.11 | X-H torsion
[ 7974 7965 7964 7962 ] final  121.08 input  175.53 | X-H torsion
[ 8008 7997 7996 7995 ] final  113.36 input   59.86 | X-H torsion
[ 10167 10162 10161 10158 ] final -156.07 input  -65.29 | X-H torsion
[ 10718 10713 10712 10709 ] final  158.32 input   66.30 | X-H torsion
[ 10763 10752 10751 10750 ] final -173.68 input  -60.55 | X-H torsion
[ 11005 11000 10999 10996 ] final  149.05 input  -57.11 | X-H torsion

> <Gold.Protein.ActiveResidues>
 VAL166  LYS551  ARG553  GLY616  TRP617  ASP618  TYR619  PRO620  LYS621  CYS622 
 ASP623  PHE694  ASN695  SER759  ASP760  ASP761  ALA762  ILE779  LEU786  VAL792 
 PHE793  MET794  SER795  GLU796  ALA797  LYS798  CYS799  TRP800  GLU811  SER814 

> <Gold.Protein.RotatedAtoms>
  150.8595  134.7943  159.7071 H   0  0  0  0  0  0  0  0  0  0  0  0  # atno 6907 bound_to 6896
  152.4637  134.5123  159.9767 H   0  0  0  0  0  0  0  0  0  0  0  0  # atno 6908 bound_to 6896
  151.5229  133.3425  159.2940 H   0  0  0  0  0  0  0  0  0  0  0  0  # atno 6909 bound_to 6896
  145.1236  139.3373  143.4701 H   0  0  0  0  0  0  0  0  0  0  0  0  # atno 7974 bound_to 7965
  156.2253  140.2981  156.0052 H   0  0  0  0  0  0  0  0  0  0  0  0  # atno 8008 bound_to 7997
  155.2373  140.0421  157.2987 H   0  0  0  0  0  0  0  0  0  0  0  0  # atno 8009 bound_to 7997
  154.5905  140.2400  155.7935 H   0  0  0  0  0  0  0  0  0  0  0  0  # atno 8010 bound_to 7997
  139.6880  143.9468  152.2371 H   0  0  0  0  0  0  0  0  0  0  0  0  # atno 10167 bound_to 10162
  157.1794  131.0629  151.2140 H   0  0  0  0  0  0  0  0  0  0  0  0  # atno 10718 bound_to 10713
  154.6051  135.2858  155.0494 H   0  0  0  0  0  0  0  0  0  0  0  0  # atno 10763 bound_to 10752
  154.1744  135.6467  153.5021 H   0  0  0  0  0  0  0  0  0  0  0  0  # atno 10764 bound_to 10752
  153.0172  135.5408  154.6784 H   0  0  0  0  0  0  0  0  0  0  0  0  # atno 10765 bound_to 10752
  140.1011  134.8982  157.1797 H   0  0  0  0  0  0  0  0  0  0  0  0  # atno 11005 bound_to 11000
  146.3519  140.1205  142.8600 LP  0  0  0  0  0  0  0  0  0  0  0  0  # atno 17320 bound_to 7965
  145.0713  140.9157  143.4880 LP  0  0  0  0  0  0  0  0  0  0  0  0  # atno 17321 bound_to 7965
  139.9277  144.6761  150.8395 LP  0  0  0  0  0  0  0  0  0  0  0  0  # atno 17342 bound_to 10162
  140.7674  143.3330  151.2368 LP  0  0  0  0  0  0  0  0  0  0  0  0  # atno 17343 bound_to 10162
  157.3967  130.7311  149.6736 LP  0  0  0  0  0  0  0  0  0  0  0  0  # atno 17370 bound_to 10713
  155.9726  130.4132  150.4069 LP  0  0  0  0  0  0  0  0  0  0  0  0  # atno 17371 bound_to 10713
  140.3218  134.2907  155.7244 LP  0  0  0  0  0  0  0  0  0  0  0  0  # atno 17394 bound_to 11000
  141.2106  133.7715  156.9922 LP  0  0  0  0  0  0  0  0  0  0  0  0  # atno 17395 bound_to 11000

$$$$
