AV-unprocessed.smi:1784|AV-procd|sdf|7198|dock4
  -GOLD-   22720 8443D 1   1.00000     0.00000
 Structure written by MMmdl.
 44 46  0  0  0  0  0  0  0  0  2 V2000
  146.2216  138.4278  154.8783 O   0  0  0  0  0  0  0  0  0  0  0  0
  146.8986  137.7241  154.1286 C   0  0  0  0  0  0  0  0  0  0  0  0
  148.1827  137.9700  153.8338 N   0  0  0  0  0  0  0  0  0  0  0  0
  148.9464  139.1166  154.3130 C   0  0  0  0  0  0  0  0  0  0  0  0
  150.4580  138.8883  154.1480 C   0  0  2  0  0  0  0  0  0  0  0  0
  150.9601  137.6067  154.8118 C   0  0  0  0  0  0  0  0  0  0  0  0
  152.4142  137.9380  155.0566 C   0  0  0  0  0  0  0  0  0  0  0  0
  152.3310  139.4075  155.4563 C   0  0  0  0  0  0  0  0  0  0  0  0
  151.2062  139.9373  154.7604 O   0  0  0  0  0  0  0  0  0  0  0  0
  146.4512  136.6339  153.4840 N   0  0  0  0  0  0  0  0  0  0  0  0
  145.1341  136.0951  153.4969 C   0  0  0  0  0  0  0  0  0  0  0  0
  143.9974  136.9435  153.4723 C   0  0  0  0  0  0  0  0  0  0  0  0
  142.7047  136.3871  153.4649 C   0  0  0  0  0  0  0  0  0  0  0  0
  142.5666  134.9891  153.4868 C   0  0  0  0  0  0  0  0  0  0  0  0
  143.6666  134.2093  153.5300 N   0  3  0  0  0  0  0  0  0  0  0  0
  144.9373  134.6843  153.5537 C   0  0  0  0  0  0  0  0  0  0  0  0
  145.9904  133.7425  153.6089 N   0  0  0  0  0  0  0  0  0  0  0  0
  146.9479  133.7674  154.7085 C   0  0  0  0  0  0  0  0  0  0  0  0
  148.0894  132.8596  154.2593 C   0  0  0  0  0  0  0  0  0  0  0  0
  148.1387  133.1133  152.7555 C   0  0  0  0  0  0  0  0  0  0  0  0
  146.6729  133.3549  152.3785 C   0  0  0  0  0  0  0  0  0  0  0  0
  148.6606  137.3374  153.2091 H   0  0  0  0  0  0  0  0  0  0  0  0
  148.6367  140.0332  153.8076 H   0  0  0  0  0  0  0  0  0  0  0  0
  148.7111  139.2533  155.3686 H   0  0  0  0  0  0  0  0  0  0  0  0
  150.7224  138.8651  153.0894 H   0  0  0  0  0  0  0  0  0  0  0  0
  150.4526  137.4394  155.7632 H   0  0  0  0  0  0  0  0  0  0  0  0
  150.8209  136.7222  154.1896 H   0  0  0  0  0  0  0  0  0  0  0  0
  152.8764  137.3131  155.8211 H   0  0  0  0  0  0  0  0  0  0  0  0
  152.9843  137.8294  154.1328 H   0  0  0  0  0  0  0  0  0  0  0  0
  152.1485  139.5012  156.5274 H   0  0  0  0  0  0  0  0  0  0  0  0
  153.2424  139.9565  155.2185 H   0  0  0  0  0  0  0  0  0  0  0  0
  147.0889  136.2166  152.8223 H   0  0  0  0  0  0  0  0  0  0  0  0
  144.0990  138.0183  153.4633 H   0  0  0  0  0  0  0  0  0  0  0  0
  141.8330  137.0249  153.4408 H   0  0  0  0  0  0  0  0  0  0  0  0
  141.6173  134.4733  153.4793 H   0  0  0  0  0  0  0  0  0  0  0  0
  147.3238  134.7798  154.8628 H   0  0  0  0  0  0  0  0  0  0  0  0
  146.4968  133.4208  155.6388 H   0  0  0  0  0  0  0  0  0  0  0  0
  149.0314  133.0803  154.7623 H   0  0  0  0  0  0  0  0  0  0  0  0
  147.8360  131.8162  154.4530 H   0  0  0  0  0  0  0  0  0  0  0  0
  148.7227  134.0129  152.5557 H   0  0  0  0  0  0  0  0  0  0  0  0
  148.5892  132.2908  152.1989 H   0  0  0  0  0  0  0  0  0  0  0  0
  146.2281  132.4316  152.0062 H   0  0  0  0  0  0  0  0  0  0  0  0
  146.5837  134.1150  151.6012 H   0  0  0  0  0  0  0  0  0  0  0  0
  143.5329  133.1983  153.5537 H   0  0  0  0  0  0  0  0  0  0  0  0
  1  2  2  0  0  0  0
  2  3  1  0  0  0  0
  2 10  1  0  0  0  0
  3  4  1  0  0  0  0
  3 22  1  0  0  0  0
  4  5  1  0  0  0  0
  4 23  1  0  0  0  0
  4 24  1  0  0  0  0
  5  9  1  0  0  0  0
  5  6  1  0  0  0  0
  5 25  1  0  0  0  0
  6  7  1  0  0  0  0
  6 26  1  0  0  0  0
  6 27  1  0  0  0  0
  7  8  1  0  0  0  0
  7 28  1  0  0  0  0
  7 29  1  0  0  0  0
  8  9  1  0  0  0  0
  8 30  1  0  0  0  0
  8 31  1  0  0  0  0
 10 11  1  0  0  0  0
 10 32  1  0  0  0  0
 11 16  1  0  0  0  0
 11 12  2  0  0  0  0
 12 13  1  0  0  0  0
 12 33  1  0  0  0  0
 13 14  2  0  0  0  0
 13 34  1  0  0  0  0
 14 15  1  0  0  0  0
 14 35  1  0  0  0  0
 15 16  2  0  0  0  0
 15 44  1  0  0  0  0
 16 17  1  0  0  0  0
 17 21  1  0  0  0  0
 17 18  1  0  0  0  0
 18 19  1  0  0  0  0
 18 36  1  0  0  0  0
 18 37  1  0  0  0  0
 19 20  1  0  0  0  0
 19 38  1  0  0  0  0
 19 39  1  0  0  0  0
 20 21  1  0  0  0  0
 20 40  1  0  0  0  0
 20 41  1  0  0  0  0
 21 42  1  0  0  0  0
 21 43  1  0  0  0  0
M  CHG  1  15   1
M  END
> <s_m_source_file>
AV-unprocessed.smi

> <i_m_source_file_index>
1784

> <i_lp_mmshare_version>
43012

> <i_f3d_flags>
0

> <s_epik_input>
TzFbQ0gyXVtDSDJdW0NIMl1bQ0BIXTFbQ0gyXVtOSF1DKD1PKVtOSF1jMltjSF1bY0hdW2NIXW5jMk4zW0NIMl1bQ0gyXVtDSDJdW0NIMl0z

> <s_epik_cmdline>
J2VwaWtfcHl0aG9uJywgJy1waCcsICc3LjAnLCAnLXRuJywgJzgnLCAnLW1hJywgJzIwMCcsICctbWV0YWxfYmluZGluZycsICctaW1hZScsICc8aW5maWxlLm1hZT4nLCAnLW9tYWUnLCAnPG91dGZpbGUubWFlPic=

> <r_lp_tautomer_probability>
0.999994

> <r_epik_Ionization_Penalty>
1.11624

> <r_epik_Ionization_Penalty_Charging>
1.11622

> <r_epik_Ionization_Penalty_Neutral>
1.90191e-05

> <r_epik_State_Penalty>
1.17466

> <r_epik_Charging_Adjusted_Penalty>
2.29088

> <i_epik_Tot_Q>
1

> <i_epik_Tot_abs_Q>
1

> <r_epik_Metal_State_Penalty>
1.25978

> <b_epik_Metal_Only>
0

> <s_lp_Force_Field>
OPLS_2005

> <r_lp_Energy>
50.7996

> <b_lp_Chiralities_Consistent>
1

> <s_lp_Variant>
AV-unprocessed.smi:1784-3

> <Gold.Version>
5.8.1

> <Gold.Id.Protein>
6NUR|6NUR_protein|mol2

> <Gold.PLP.Fitness>
42.0768

> <Gold.PLP.PLP>
-29.5026

> <Gold.PLP.part.hbond>
-4.0000

> <Gold.PLP.part.metal>
0.0000

> <Gold.PLP.part.buried>
-3.9173

> <Gold.PLP.part.nonpolar>
-23.2539

> <Gold.PLP.part.repulsive>
0.2439

> <Gold.PLP.ligand.clash>
0.0000

> <Gold.PLP.ligand.torsion>
0.7493

> <Gold.PLP.Chemscore.Hbond>
4.5504

> <Gold.PLP.Chemscore.CHOScore>
0.0000

> <Gold.PLP.Chemscore.Metal>
0.0000

> <Gold.Chemscore.Hbonds>
donor molecule, donor type, donor heavy atom, donor atom, acceptor molecule, acceptor atom, score
      L1  H     3    22       P1  7948  1.00
      L1  H    10    32       P1  7948  0.84
      L1  H    15    44       P1 10957  1.40
      P1  H  7989  7998       L1     9  1.00

> <Gold.PLP.Chemscore.Internal.Correction>
0.4217

> <Gold.Rescore>
     Score         DG    S(hbond)    S(metal)    S(lipo)     H(rot)  DE(clash)    DE(int)     intcor
     18.93     -20.59       3.23        0.00      67.67       1.40       0.06       1.60       ----

> <Gold.Chemscore.Fitness>
18.9290

> <Gold.Chemscore.DG>
-20.5878

> <Gold.Chemscore.ZeroCoef>
-5.4800

> <Gold.Chemscore.Hbond>
3.2275

> <Gold.Chemscore.Metal>
0.0000

> <Gold.Chemscore.Lipo>
67.6723

> <Gold.Chemscore.Internal_Hbond>
0.0000

> <Gold.Chemscore.DEClash>
0.0576

> <Gold.Chemscore.DEInternal>
1.6011

> <Gold.Chemscore.Rot>
1.4023

> <Gold.Chemscore.Internal.Correction>
   9.000000E+99

> <Gold.Chemscore.Hbonds>
donor molecule, donor type, donor heavy atom, donor atom, acceptor molecule, acceptor atom, score
      L1  H     3    22       P1  7948  1.00
      L1  H    10    32       P1  7948  0.79
      L1  H    15    44       P1 10957  0.64
      P1  H  7989  7998       L1     9  0.32

> <Gold.Chemscore.Hbond.Weighted>
-10.7799

> <Gold.Chemscore.Metal.Weighted>
-0.0000

> <Gold.Chemscore.Lipo.Weighted>
-7.9177

> <Gold.Chemscore.Internal_Hbond.Weighted>
0.0000

> <Gold.Chemscore.DEClash.Weighted>
0.0576

> <Gold.Chemscore.DEInternal.Weighted>
1.6011

> <Gold.Chemscore.Rot.Weighted>
3.5898

> <Gold.Chemscore.Internal.Correction.Weighted>
   9.000000E+99

> <Gold.Protein.RotatedTorsions>
[ 6907 6896 6895 6894 ] final -125.26 input  -60.11 | X-H torsion
[ 7974 7965 7964 7962 ] final -126.29 input  175.53 | X-H torsion
[ 8008 7997 7996 7995 ] final -122.35 input   59.86 | X-H torsion
[ 10167 10162 10161 10158 ] final  -78.21 input  -65.29 | X-H torsion
[ 10718 10713 10712 10709 ] final   18.58 input   66.30 | X-H torsion
[ 10763 10752 10751 10750 ] final  -29.91 input  -60.55 | X-H torsion
[ 11005 11000 10999 10996 ] final -103.80 input  -57.11 | X-H torsion

> <Gold.Protein.ActiveResidues>
 VAL166  LYS551  ARG553  GLY616  TRP617  ASP618  TYR619  PRO620  LYS621  CYS622 
 ASP623  PHE694  ASN695  SER759  ASP760  ASP761  ALA762  ILE779  LEU786  VAL792 
 PHE793  MET794  SER795  GLU796  ALA797  LYS798  CYS799  TRP800  GLU811  SER814 

> <Gold.Protein.RotatedAtoms>
  150.8849  133.7321  159.2920 H   0  0  0  0  0  0  0  0  0  0  0  0  # atno 6907 bound_to 6896
  151.4890  135.1055  159.9808 H   0  0  0  0  0  0  0  0  0  0  0  0  # atno 6908 bound_to 6896
  152.4784  133.8147  159.7077 H   0  0  0  0  0  0  0  0  0  0  0  0  # atno 6909 bound_to 6896
  144.9888  140.7712  143.4567 H   0  0  0  0  0  0  0  0  0  0  0  0  # atno 7974 bound_to 7965
  155.1627  140.0406  157.2846 H   0  0  0  0  0  0  0  0  0  0  0  0  # atno 8008 bound_to 7997
  154.6325  140.2527  155.7390 H   0  0  0  0  0  0  0  0  0  0  0  0  # atno 8009 bound_to 7997
  156.2492  140.2872  156.0682 H   0  0  0  0  0  0  0  0  0  0  0  0  # atno 8010 bound_to 7997
  140.4702  143.2429  151.8216 H   0  0  0  0  0  0  0  0  0  0  0  0  # atno 10167 bound_to 10162
  157.0983  130.6457  149.5866 H   0  0  0  0  0  0  0  0  0  0  0  0  # atno 10718 bound_to 10713
  153.7723  135.6911  153.4904 H   0  0  0  0  0  0  0  0  0  0  0  0  # atno 10763 bound_to 10752
  153.1866  135.4486  155.0095 H   0  0  0  0  0  0  0  0  0  0  0  0  # atno 10764 bound_to 10752
  154.8113  135.3379  154.7231 H   0  0  0  0  0  0  0  0  0  0  0  0  # atno 10765 bound_to 10752
  141.1129  133.8671  157.1532 H   0  0  0  0  0  0  0  0  0  0  0  0  # atno 11005 bound_to 11000
  145.2315  139.2113  143.5040 LP  0  0  0  0  0  0  0  0  0  0  0  0  # atno 17320 bound_to 7965
  146.3426  140.2193  142.8591 LP  0  0  0  0  0  0  0  0  0  0  0  0  # atno 17321 bound_to 7965
  139.4817  144.4901  151.9196 LP  0  0  0  0  0  0  0  0  0  0  0  0  # atno 17342 bound_to 10162
  140.3986  144.2522  150.5894 LP  0  0  0  0  0  0  0  0  0  0  0  0  # atno 17343 bound_to 10162
  155.9880  130.4922  150.7151 LP  0  0  0  0  0  0  0  0  0  0  0  0  # atno 17370 bound_to 10713
  157.4663  131.0888  151.0691 LP  0  0  0  0  0  0  0  0  0  0  0  0  # atno 17371 bound_to 10713
  140.0033  135.0018  157.0238 LP  0  0  0  0  0  0  0  0  0  0  0  0  # atno 17394 bound_to 11000
  140.4726  134.1371  155.7205 LP  0  0  0  0  0  0  0  0  0  0  0  0  # atno 17395 bound_to 11000

$$$$
