AV-unprocessed.smi:2886|AV-procd|sdf|11098|dock1
  -GOLD-   2272015563D 1   1.00000     0.00000
 Structure written by MMmdl.
 27 29  0  0  0  0  0  0  0  0  2 V2000
  151.7727  138.2114  154.6396 O   0  0  0  0  0  0  0  0  0  0  0  0
  151.3533  139.2822  155.0758 C   0  0  0  0  0  0  0  0  0  0  0  0
  150.4969  140.0737  154.3613 N   0  5  0  0  0  0  0  0  0  0  0  0
  150.0230  141.3200  154.9204 N   0  0  0  0  0  0  0  0  0  0  0  0
  150.3973  141.7063  156.0758 C   0  0  0  0  0  0  0  0  0  0  0  0
  151.3358  140.9181  156.9121 C   0  0  0  0  0  0  0  0  0  0  0  0
  151.7450  141.3379  158.1719 N   0  0  0  0  0  0  0  0  0  0  0  0
  151.3754  142.5462  158.8954 C   0  0  1  0  0  0  0  0  0  0  0  0
  152.1679  142.7178  160.1937 C   0  0  0  0  0  0  0  0  0  0  0  0
  152.7975  144.1026  159.9954 C   0  0  2  0  0  0  0  0  0  0  0  0
  151.7548  145.2283  160.0376 C   0  0  0  0  0  0  0  0  0  0  0  0
  151.0466  145.0489  158.6946 C   0  0  0  0  0  0  0  0  0  0  0  0
  151.7619  143.8176  158.1222 C   0  0  1  0  0  0  0  0  0  0  0  0
  153.0744  144.0535  158.6068 O   0  0  0  0  0  0  0  0  0  0  0  0
  151.7787  139.7397  156.4040 C   0  0  0  0  0  0  0  0  0  0  0  0
  152.8694  138.7411  157.3093 Cl  0  0  0  0  0  0  0  0  0  0  0  0
  150.0324  142.6429  156.5029 H   0  0  0  0  0  0  0  0  0  0  0  0
  152.4928  140.8087  158.5972 H   0  0  0  0  0  0  0  0  0  0  0  0
  150.3020  142.5565  159.0818 H   0  0  0  0  0  0  0  0  0  0  0  0
  151.5364  142.6686  161.0812 H   0  0  0  0  0  0  0  0  0  0  0  0
  152.9465  141.9597  160.2900 H   0  0  0  0  0  0  0  0  0  0  0  0
  153.6716  144.2840  160.6212 H   0  0  0  0  0  0  0  0  0  0  0  0
  151.0802  145.1342  160.8892 H   0  0  0  0  0  0  0  0  0  0  0  0
  152.2363  146.2054  160.0882 H   0  0  0  0  0  0  0  0  0  0  0  0
  149.9716  144.8984  158.7978 H   0  0  0  0  0  0  0  0  0  0  0  0
  151.2099  145.9194  158.0582 H   0  0  0  0  0  0  0  0  0  0  0  0
  151.6840  143.7306  157.0378 H   0  0  0  0  0  0  0  0  0  0  0  0
  1  2  2  0  0  0  0
  2 15  1  0  0  0  0
  2  3  1  0  0  0  0
  3  4  1  0  0  0  0
  4  5  2  0  0  0  0
  5  6  1  0  0  0  0
  5 17  1  0  0  0  0
  6  7  1  0  0  0  0
  6 15  2  0  0  0  0
  7  8  1  0  0  0  0
  7 18  1  0  0  0  0
  8 13  1  0  0  0  0
  8  9  1  0  0  0  0
  8 19  1  0  0  0  0
  9 10  1  0  0  0  0
  9 20  1  0  0  0  0
  9 21  1  0  0  0  0
 10 14  1  0  0  0  0
 10 11  1  0  0  0  0
 10 22  1  0  0  0  0
 11 12  1  0  0  0  0
 11 23  1  0  0  0  0
 11 24  1  0  0  0  0
 12 13  1  0  0  0  0
 12 25  1  0  0  0  0
 12 26  1  0  0  0  0
 13 14  1  0  0  0  0
 13 27  1  0  0  0  0
 15 16  1  0  0  0  0
M  CHG  1   3  -1
M  END
> <s_m_source_file>
AV-unprocessed.smi

> <i_m_source_file_index>
2886

> <i_lp_mmshare_version>
43012

> <i_f3d_flags>
0

> <s_epik_input>
Tz1jMVtuSF1uW2NIXWMoYzFDbClbTkhdW0NASF0oW0NIMl1bQ0BASF0yMylbQ0BASF0oTzMpW0NIMl1bQ0gyXTI=

> <s_epik_cmdline>
J2VwaWtfcHl0aG9uJywgJy1waCcsICc3LjAnLCAnLXRuJywgJzgnLCAnLW1hJywgJzIwMCcsICctbWV0YWxfYmluZGluZycsICctaW1hZScsICc8aW5maWxlLm1hZT4nLCAnLW9tYWUnLCAnPG91dGZpbGUubWFlPic=

> <r_lp_tautomer_probability>
0.986175

> <r_epik_Ionization_Penalty>
3.84253

> <r_epik_Ionization_Penalty_Charging>
0.0129711

> <r_epik_Ionization_Penalty_Neutral>
3.82956

> <r_epik_State_Penalty>
3.8249

> <r_epik_Charging_Adjusted_Penalty>
3.83787

> <i_epik_Tot_Q>
-1

> <i_epik_Tot_abs_Q>
1

> <r_epik_Metal_State_Penalty>
0.57612

> <b_epik_Metal_Only>
1

> <s_lp_Force_Field>
OPLS_2005

> <r_lp_Energy>
60.5374

> <b_lp_Chiralities_Consistent>
1

> <s_lp_Variant>
AV-unprocessed.smi:2886-12

> <Gold.Version>
5.8.1

> <Gold.Id.Protein>
6NUR|6NUR_protein|mol2

> <Gold.PLP.Fitness>
38.7735

> <Gold.PLP.PLP>
-34.3115

> <Gold.PLP.part.hbond>
-2.0000

> <Gold.PLP.part.metal>
0.0000

> <Gold.PLP.part.buried>
-4.2886

> <Gold.PLP.part.nonpolar>
-27.3344

> <Gold.PLP.part.repulsive>
0.4398

> <Gold.PLP.ligand.clash>
0.0000

> <Gold.PLP.ligand.torsion>
0.0213

> <Gold.PLP.Chemscore.Hbond>
0.4950

> <Gold.PLP.Chemscore.CHOScore>
1.0000

> <Gold.PLP.Chemscore.Metal>
0.0000

> <Gold.Chemscore.Hbonds>
donor molecule, donor type, donor heavy atom, donor atom, acceptor molecule, acceptor atom, score
      P1  H  7989  7998       L1     3  0.49
      L1  C     5    17       P1  8028  1.00

> <Gold.PLP.Chemscore.Internal.Correction>
0.0196

> <Gold.Rescore>
     Score         DG    S(hbond)    S(metal)    S(lipo)     H(rot)  DE(clash)    DE(int)     intcor
     13.66     -13.87       0.00        0.00      93.63       1.00       0.20       0.01       ----

> <Gold.Chemscore.Fitness>
13.6597

> <Gold.Chemscore.DG>
-13.8744

> <Gold.Chemscore.ZeroCoef>
-5.4800

> <Gold.Chemscore.Hbond>
0.0000

> <Gold.Chemscore.Metal>
0.0000

> <Gold.Chemscore.Lipo>
93.6270

> <Gold.Chemscore.Internal_Hbond>
0.0000

> <Gold.Chemscore.DEClash>
0.2047

> <Gold.Chemscore.DEInternal>
0.0100

> <Gold.Chemscore.Rot>
1.0000

> <Gold.Chemscore.Internal.Correction>
   9.000000E+99

> <Gold.Chemscore.Hbonds>
donor molecule, donor type, donor heavy atom, donor atom, acceptor molecule, acceptor atom, score
      P1  H  7989  7998       L1     3  0.01

> <Gold.Chemscore.Hbond.Weighted>
-0.0000

> <Gold.Chemscore.Metal.Weighted>
-0.0000

> <Gold.Chemscore.Lipo.Weighted>
-10.9544

> <Gold.Chemscore.Internal_Hbond.Weighted>
0.0000

> <Gold.Chemscore.DEClash.Weighted>
0.2047

> <Gold.Chemscore.DEInternal.Weighted>
0.0100

> <Gold.Chemscore.Rot.Weighted>
2.5600

> <Gold.Chemscore.Internal.Correction.Weighted>
   9.000000E+99

> <Gold.Protein.RotatedTorsions>
[ 6907 6896 6895 6894 ] final   33.46 input  -60.11 | X-H torsion
[ 7974 7965 7964 7962 ] final  108.82 input  175.53 | X-H torsion
[ 8008 7997 7996 7995 ] final  150.44 input   59.86 | X-H torsion
[ 10167 10162 10161 10158 ] final    6.05 input  -65.29 | X-H torsion
[ 10718 10713 10712 10709 ] final   99.00 input   66.30 | X-H torsion
[ 10763 10752 10751 10750 ] final -138.39 input  -60.55 | X-H torsion
[ 11005 11000 10999 10996 ] final  145.24 input  -57.11 | X-H torsion

> <Gold.Protein.ActiveResidues>
 VAL166  LYS551  ARG553  GLY616  TRP617  ASP618  TYR619  PRO620  LYS621  CYS622 
 ASP623  PHE694  ASN695  SER759  ASP760  ASP761  ALA762  ILE779  LEU786  VAL792 
 PHE793  MET794  SER795  GLU796  ALA797  LYS798  CYS799  TRP800  GLU811  SER814 

> <Gold.Protein.RotatedAtoms>
  152.0887  134.9422  160.0572 H   0  0  0  0  0  0  0  0  0  0  0  0  # atno 6907 bound_to 6896
  152.0681  133.4089  159.4455 H   0  0  0  0  0  0  0  0  0  0  0  0  # atno 6908 bound_to 6896
  150.6836  134.3043  159.4763 H   0  0  0  0  0  0  0  0  0  0  0  0  # atno 6909 bound_to 6896
  145.2758  139.2650  143.3942 H   0  0  0  0  0  0  0  0  0  0  0  0  # atno 7974 bound_to 7965
  156.2716  140.2075  156.6017 H   0  0  0  0  0  0  0  0  0  0  0  0  # atno 8008 bound_to 7997
  154.6901  140.0531  157.0378 H   0  0  0  0  0  0  0  0  0  0  0  0  # atno 8009 bound_to 7997
  155.0878  140.3193  155.4585 H   0  0  0  0  0  0  0  0  0  0  0  0  # atno 8010 bound_to 7997
  140.6449  143.7687  150.7483 H   0  0  0  0  0  0  0  0  0  0  0  0  # atno 10167 bound_to 10162
  157.6885  131.0657  150.4881 H   0  0  0  0  0  0  0  0  0  0  0  0  # atno 10718 bound_to 10713
  154.8638  135.3614  154.5376 H   0  0  0  0  0  0  0  0  0  0  0  0  # atno 10763 bound_to 10752
  153.5999  135.7013  153.5393 H   0  0  0  0  0  0  0  0  0  0  0  0  # atno 10764 bound_to 10752
  153.3299  135.4127  155.1448 H   0  0  0  0  0  0  0  0  0  0  0  0  # atno 10765 bound_to 10752
  140.0696  134.9159  157.1323 H   0  0  0  0  0  0  0  0  0  0  0  0  # atno 11005 bound_to 11000
  146.3232  140.3212  142.8633 LP  0  0  0  0  0  0  0  0  0  0  0  0  # atno 17320 bound_to 7965
  144.9296  140.7960  143.5698 LP  0  0  0  0  0  0  0  0  0  0  0  0  # atno 17321 bound_to 7965
  140.1325  143.4513  152.2245 LP  0  0  0  0  0  0  0  0  0  0  0  0  # atno 17342 bound_to 10162
  139.5659  144.7434  151.4024 LP  0  0  0  0  0  0  0  0  0  0  0  0  # atno 17343 bound_to 10162
  156.5210  130.4162  149.6251 LP  0  0  0  0  0  0  0  0  0  0  0  0  # atno 17370 bound_to 10713
  156.3155  130.7252  151.2153 LP  0  0  0  0  0  0  0  0  0  0  0  0  # atno 17371 bound_to 10713
  140.3647  134.2456  155.7183 LP  0  0  0  0  0  0  0  0  0  0  0  0  # atno 17394 bound_to 11000
  141.2006  133.7982  157.0478 LP  0  0  0  0  0  0  0  0  0  0  0  0  # atno 17395 bound_to 11000

$$$$
