AV-unprocessed.smi:3002|AV-procd|sdf|11436|dock1
  -GOLD-   2272016363D 1   1.00000     0.00000
 Structure written by MMmdl.
 34 35  0  0  0  0  0  0  0  0  1 V2000
  150.1280  135.6082  155.8666 C   0  0  0  0  0  0  0  0  0  0  0  0
  150.0736  134.0692  155.7826 C   0  0  1  0  0  0  0  0  0  0  0  0
  149.8736  133.4122  157.1567 C   0  0  0  0  0  0  0  0  0  0  0  0
  150.7407  132.6808  157.6361 O   0  0  0  0  0  0  0  0  0  0  0  0
  148.7160  133.6807  157.7808 N   0  0  0  0  0  0  0  0  0  0  0  0
  148.3195  133.1459  159.0789 C   0  0  0  0  0  0  0  0  0  0  0  0
  147.4735  134.1501  159.8864 C   0  0  1  0  0  0  0  0  0  0  0  0
  147.2036  133.6708  161.3256 C   0  0  0  0  0  0  0  0  0  0  0  0
  146.5984  134.8322  162.1205 C   0  0  0  0  0  0  0  0  0  0  0  0
  147.3865  136.3466  161.4573 S   0  0  0  0  0  0  0  0  0  0  0  0
  146.3380  137.2963  161.0554 O   0  0  0  0  0  0  0  0  0  0  0  0
  148.4831  136.7595  162.3462 O   0  0  0  0  0  0  0  0  0  0  0  0
  148.0992  135.5535  159.9667 C   0  0  0  0  0  0  0  0  0  0  0  0
  149.0584  133.5992  154.8483 N   0  0  0  0  0  0  0  0  0  0  0  0
  147.7414  133.8172  154.8330 C   0  0  0  0  0  0  0  0  0  0  0  0
  147.1163  133.2711  153.7994 N   0  0  0  0  0  0  0  0  0  0  0  0
  148.1827  132.7014  153.1636 C   0  0  0  0  0  0  0  0  0  0  0  0
  149.3701  132.8778  153.7425 N   0  0  0  0  0  0  0  0  0  0  0  0
  150.9262  135.9362  156.5334 H   0  0  0  0  0  0  0  0  0  0  0  0
  149.1944  136.0338  156.2364 H   0  0  0  0  0  0  0  0  0  0  0  0
  150.3232  136.0436  154.8861 H   0  0  0  0  0  0  0  0  0  0  0  0
  151.0390  133.7362  155.3974 H   0  0  0  0  0  0  0  0  0  0  0  0
  148.0576  134.2910  157.3188 H   0  0  0  0  0  0  0  0  0  0  0  0
  147.7726  132.2114  158.9425 H   0  0  0  0  0  0  0  0  0  0  0  0
  149.2266  132.8932  159.6287 H   0  0  0  0  0  0  0  0  0  0  0  0
  146.5015  134.2553  159.4023 H   0  0  0  0  0  0  0  0  0  0  0  0
  146.5544  132.7950  161.3450 H   0  0  0  0  0  0  0  0  0  0  0  0
  148.1464  133.3792  161.7906 H   0  0  0  0  0  0  0  0  0  0  0  0
  145.5252  134.9047  161.9420 H   0  0  0  0  0  0  0  0  0  0  0  0
  146.7703  134.7538  163.1941 H   0  0  0  0  0  0  0  0  0  0  0  0
  149.1791  135.4962  160.1048 H   0  0  0  0  0  0  0  0  0  0  0  0
  147.8934  136.1612  159.0853 H   0  0  0  0  0  0  0  0  0  0  0  0
  147.2296  134.3904  155.5921 H   0  0  0  0  0  0  0  0  0  0  0  0
  148.0820  132.1459  152.2428 H   0  0  0  0  0  0  0  0  0  0  0  0
  1  2  1  0  0  0  0
  1 19  1  0  0  0  0
  1 20  1  0  0  0  0
  1 21  1  0  0  0  0
  2  3  1  0  0  0  0
  2 14  1  0  0  0  0
  2 22  1  0  0  0  0
  3  4  2  0  0  0  0
  3  5  1  0  0  0  0
  5  6  1  0  0  0  0
  5 23  1  0  0  0  0
  6  7  1  0  0  0  0
  6 24  1  0  0  0  0
  6 25  1  0  0  0  0
  7 13  1  0  0  0  0
  7  8  1  0  0  0  0
  7 26  1  0  0  0  0
  8  9  1  0  0  0  0
  8 27  1  0  0  0  0
  8 28  1  0  0  0  0
  9 10  1  0  0  0  0
  9 29  1  0  0  0  0
  9 30  1  0  0  0  0
 10 11  2  0  0  0  0
 10 12  2  0  0  0  0
 10 13  1  0  0  0  0
 13 31  1  0  0  0  0
 13 32  1  0  0  0  0
 14 18  1  0  0  0  0
 14 15  1  0  0  0  0
 15 16  2  0  0  0  0
 15 33  1  0  0  0  0
 16 17  1  0  0  0  0
 17 18  2  0  0  0  0
 17 34  1  0  0  0  0
M  END
> <s_m_source_file>
AV-unprocessed.smi

> <i_m_source_file_index>
3002

> <i_lp_mmshare_version>
43012

> <i_f3d_flags>
0

> <s_epik_input>
bjFbY0hdbltjSF1uMVtDQEhdKFtDSDNdKUMoPU8pW05IXVtDSDJdW0NAQEhdKFtDSDJdMilbQ0gyXVtDSDJdUzIoPU8pPU8=

> <s_epik_cmdline>
J2VwaWtfcHl0aG9uJywgJy1waCcsICc3LjAnLCAnLXRuJywgJzgnLCAnLW1hJywgJzIwMCcsICctbWV0YWxfYmluZGluZycsICctaW1hZScsICc8aW5maWxlLm1hZT4nLCAnLW9tYWUnLCAnPG91dGZpbGUubWFlPic=

> <r_lp_tautomer_probability>
1

> <r_epik_Ionization_Penalty>
1.1748e-05

> <r_epik_Ionization_Penalty_Charging>
0

> <r_epik_Ionization_Penalty_Neutral>
1.1748e-05

> <r_epik_State_Penalty>
-0

> <r_epik_Charging_Adjusted_Penalty>
0

> <i_epik_Tot_Q>
0

> <i_epik_Tot_abs_Q>
0

> <r_epik_Metal_State_Penalty>
-0

> <b_epik_Metal_Only>
0

> <s_lp_Force_Field>
OPLS_2005

> <r_lp_Energy>
7.1985

> <b_lp_Chiralities_Consistent>
1

> <s_lp_Variant>
AV-unprocessed.smi:3002-4

> <Gold.Version>
5.8.1

> <Gold.Id.Protein>
6NUR|6NUR_protein|mol2

> <Gold.PLP.Fitness>
36.3069

> <Gold.PLP.PLP>
-24.7948

> <Gold.PLP.part.hbond>
-2.9427

> <Gold.PLP.part.metal>
0.0000

> <Gold.PLP.part.buried>
-4.1626

> <Gold.PLP.part.nonpolar>
-19.3464

> <Gold.PLP.part.repulsive>
0.3011

> <Gold.PLP.ligand.clash>
0.0000

> <Gold.PLP.ligand.torsion>
0.2839

> <Gold.PLP.Chemscore.Hbond>
2.9920

> <Gold.PLP.Chemscore.CHOScore>
1.0000

> <Gold.PLP.Chemscore.Metal>
0.0000

> <Gold.Chemscore.Hbonds>
donor molecule, donor type, donor heavy atom, donor atom, acceptor molecule, acceptor atom, score
      P1  H  6896  6907       L1     4  1.00
      P1  H  6931  6943       L1    12  1.00
      P1  H  6934  6947       L1    11  1.00
      L1  C    17    34       P1 10747  1.00

> <Gold.PLP.Chemscore.Internal.Correction>
0.1040

> <Gold.Rescore>
     Score         DG    S(hbond)    S(metal)    S(lipo)     H(rot)  DE(clash)    DE(int)     intcor
     11.41     -11.69       2.40        0.00      36.97       2.39       0.04       0.24       ----

> <Gold.Chemscore.Fitness>
11.4099

> <Gold.Chemscore.DG>
-11.6911

> <Gold.Chemscore.ZeroCoef>
-5.4800

> <Gold.Chemscore.Hbond>
2.3998

> <Gold.Chemscore.Metal>
0.0000

> <Gold.Chemscore.Lipo>
36.9739

> <Gold.Chemscore.Internal_Hbond>
0.0000

> <Gold.Chemscore.DEClash>
0.0407

> <Gold.Chemscore.DEInternal>
0.2405

> <Gold.Chemscore.Rot>
2.3946

> <Gold.Chemscore.Internal.Correction>
   9.000000E+99

> <Gold.Chemscore.Hbonds>
donor molecule, donor type, donor heavy atom, donor atom, acceptor molecule, acceptor atom, score
      P1  H  6896  6907       L1     4  0.81
      P1  H  6931  6943       L1    12  0.78
      P1  H  6934  6947       L1    11  0.60

> <Gold.Chemscore.Hbond.Weighted>
-8.0153

> <Gold.Chemscore.Metal.Weighted>
-0.0000

> <Gold.Chemscore.Lipo.Weighted>
-4.3259

> <Gold.Chemscore.Internal_Hbond.Weighted>
0.0000

> <Gold.Chemscore.DEClash.Weighted>
0.0407

> <Gold.Chemscore.DEInternal.Weighted>
0.2405

> <Gold.Chemscore.Rot.Weighted>
6.1301

> <Gold.Chemscore.Internal.Correction.Weighted>
   9.000000E+99

> <Gold.Protein.RotatedTorsions>
[ 6907 6896 6895 6894 ] final -167.43 input  -60.11 | X-H torsion
[ 7974 7965 7964 7962 ] final -127.78 input  175.53 | X-H torsion
[ 8008 7997 7996 7995 ] final   32.11 input   59.86 | X-H torsion
[ 10167 10162 10161 10158 ] final  -41.88 input  -65.29 | X-H torsion
[ 10718 10713 10712 10709 ] final -170.24 input   66.30 | X-H torsion
[ 10763 10752 10751 10750 ] final  161.05 input  -60.55 | X-H torsion
[ 11005 11000 10999 10996 ] final -152.52 input  -57.11 | X-H torsion

> <Gold.Protein.ActiveResidues>
 VAL166  LYS551  ARG553  GLY616  TRP617  ASP618  TYR619  PRO620  LYS621  CYS622 
 ASP623  PHE694  ASN695  SER759  ASP760  ASP761  ALA762  ILE779  LEU786  VAL792 
 PHE793  MET794  SER795  GLU796  ALA797  LYS798  CYS799  TRP800  GLU811  SER814 

> <Gold.Protein.RotatedAtoms>
  151.4595  133.3596  159.2806 H   0  0  0  0  0  0  0  0  0  0  0  0  # atno 6907 bound_to 6896
  150.9035  134.8450  159.7387 H   0  0  0  0  0  0  0  0  0  0  0  0  # atno 6908 bound_to 6896
  152.4893  134.4518  159.9629 H   0  0  0  0  0  0  0  0  0  0  0  0  # atno 6909 bound_to 6896
  144.9737  140.7571  143.4655 H   0  0  0  0  0  0  0  0  0  0  0  0  # atno 7974 bound_to 7965
  155.1173  140.3245  155.4506 H   0  0  0  0  0  0  0  0  0  0  0  0  # atno 8008 bound_to 7997
  156.2673  140.2033  156.6244 H   0  0  0  0  0  0  0  0  0  0  0  0  # atno 8009 bound_to 7997
  154.6710  140.0536  157.0153 H   0  0  0  0  0  0  0  0  0  0  0  0  # atno 8010 bound_to 7997
  140.6988  143.3069  151.3130 H   0  0  0  0  0  0  0  0  0  0  0  0  # atno 10167 bound_to 10162
  156.7232  130.9278  151.3099 H   0  0  0  0  0  0  0  0  0  0  0  0  # atno 10718 bound_to 10713
  154.2569  135.2769  155.2794 H   0  0  0  0  0  0  0  0  0  0  0  0  # atno 10763 bound_to 10752
  154.5417  135.5700  153.6848 H   0  0  0  0  0  0  0  0  0  0  0  0  # atno 10764 bound_to 10752
  152.9969  135.6252  154.2718 H   0  0  0  0  0  0  0  0  0  0  0  0  # atno 10765 bound_to 10752
  140.7180  134.3758  157.5188 H   0  0  0  0  0  0  0  0  0  0  0  0  # atno 11005 bound_to 11000
  145.2522  139.2027  143.4936 LP  0  0  0  0  0  0  0  0  0  0  0  0  # atno 17320 bound_to 7965
  146.3389  140.2437  142.8596 LP  0  0  0  0  0  0  0  0  0  0  0  0  # atno 17321 bound_to 7965
  139.6478  144.0419  152.2604 LP  0  0  0  0  0  0  0  0  0  0  0  0  # atno 17342 bound_to 10162
  139.9945  144.6338  150.7785 LP  0  0  0  0  0  0  0  0  0  0  0  0  # atno 17343 bound_to 10162
  157.6889  130.9213  150.0460 LP  0  0  0  0  0  0  0  0  0  0  0  0  # atno 17370 bound_to 10713
  156.1580  130.3643  149.9341 LP  0  0  0  0  0  0  0  0  0  0  0  0  # atno 17371 bound_to 10713
  139.8855  134.8936  156.2640 LP  0  0  0  0  0  0  0  0  0  0  0  0  # atno 17394 bound_to 11000
  141.0027  133.7141  156.0986 LP  0  0  0  0  0  0  0  0  0  0  0  0  # atno 17395 bound_to 11000

$$$$
