AV-unprocessed.smi:1459|AV-procd|sdf|5926|dock2
  -GOLD-   22720 6 13D 1   1.00000     0.00000
 Structure written by MMmdl.
 34 35  0  0  0  0  0  0  0  0  1 V2000
  147.0935  139.0559  152.9320 C   0  0  0  0  0  0  0  0  0  0  0  0
  148.1073  139.7792  153.7506 C   0  0  0  0  0  0  0  0  0  0  0  0
  148.0566  140.9223  154.4978 C   0  0  0  0  0  0  0  0  0  0  0  0
  149.3776  141.0296  155.0085 C   0  0  0  0  0  0  0  0  0  0  0  0
  149.7443  142.1050  155.8571 N   0  0  0  0  0  0  0  0  0  0  0  0
  150.0807  142.0454  157.1569 C   0  0  0  0  0  0  0  0  0  0  0  0
  150.1489  141.0127  157.8239 O   0  0  0  0  0  0  0  0  0  0  0  0
  150.3429  143.2666  157.6462 N   0  0  0  0  0  0  0  0  0  0  0  0
  150.7610  143.5637  159.0145 C   0  0  2  0  0  0  0  0  0  0  0  0
  150.7011  145.0844  159.2261 C   0  0  0  0  0  0  0  0  0  0  0  0
  152.1724  142.9938  159.2625 C   0  0  1  0  0  0  0  0  0  0  0  0
  152.7177  143.2230  160.6726 C   0  0  0  0  0  0  0  0  0  0  0  0
  153.7375  142.1086  160.8462 C   0  0  0  0  0  0  0  0  0  0  0  0
  153.3916  141.1106  159.7377 C   0  0  0  0  0  0  0  0  0  0  0  0
  152.1691  141.5764  159.1846 O   0  0  0  0  0  0  0  0  0  0  0  0
  150.1639  140.0420  154.6083 N   0  0  0  0  0  0  0  0  0  0  0  0
  149.3538  139.2358  153.7999 O   0  0  0  0  0  0  0  0  0  0  0  0
  146.1279  139.5600  152.9728 H   0  0  0  0  0  0  0  0  0  0  0  0
  146.9587  138.0372  153.2957 H   0  0  0  0  0  0  0  0  0  0  0  0
  147.4047  139.0051  151.8886 H   0  0  0  0  0  0  0  0  0  0  0  0
  147.2093  141.5737  154.6527 H   0  0  0  0  0  0  0  0  0  0  0  0
  149.7449  143.0193  155.4303 H   0  0  0  0  0  0  0  0  0  0  0  0
  150.2627  144.0539  157.0197 H   0  0  0  0  0  0  0  0  0  0  0  0
  150.0673  143.1055  159.7218 H   0  0  0  0  0  0  0  0  0  0  0  0
  150.9476  145.3527  160.2534 H   0  0  0  0  0  0  0  0  0  0  0  0
  149.7009  145.4688  159.0226 H   0  0  0  0  0  0  0  0  0  0  0  0
  151.3988  145.6052  158.5695 H   0  0  0  0  0  0  0  0  0  0  0  0
  152.8763  143.3847  158.5248 H   0  0  0  0  0  0  0  0  0  0  0  0
  153.1507  144.2152  160.8026 H   0  0  0  0  0  0  0  0  0  0  0  0
  151.9208  143.1041  161.4080 H   0  0  0  0  0  0  0  0  0  0  0  0
  154.7557  142.4791  160.7223 H   0  0  0  0  0  0  0  0  0  0  0  0
  153.6614  141.6588  161.8367 H   0  0  0  0  0  0  0  0  0  0  0  0
  154.1603  141.1152  158.9637 H   0  0  0  0  0  0  0  0  0  0  0  0
  153.2881  140.0911  160.1095 H   0  0  0  0  0  0  0  0  0  0  0  0
  1  2  1  0  0  0  0
  1 18  1  0  0  0  0
  1 19  1  0  0  0  0
  1 20  1  0  0  0  0
  2 17  1  0  0  0  0
  2  3  2  0  0  0  0
  3  4  1  0  0  0  0
  3 21  1  0  0  0  0
  4  5  1  0  0  0  0
  4 16  2  0  0  0  0
  5  6  1  0  0  0  0
  5 22  1  0  0  0  0
  6  7  2  0  0  0  0
  6  8  1  0  0  0  0
  8  9  1  0  0  0  0
  8 23  1  0  0  0  0
  9 10  1  0  0  0  0
  9 11  1  0  0  0  0
  9 24  1  0  0  0  0
 10 25  1  0  0  0  0
 10 26  1  0  0  0  0
 10 27  1  0  0  0  0
 11 15  1  0  0  0  0
 11 12  1  0  0  0  0
 11 28  1  0  0  0  0
 12 13  1  0  0  0  0
 12 29  1  0  0  0  0
 12 30  1  0  0  0  0
 13 14  1  0  0  0  0
 13 31  1  0  0  0  0
 13 32  1  0  0  0  0
 14 15  1  0  0  0  0
 14 33  1  0  0  0  0
 14 34  1  0  0  0  0
 16 17  1  0  0  0  0
M  END
> <s_m_source_file>
AV-unprocessed.smi

> <i_m_source_file_index>
1459

> <i_lp_mmshare_version>
43012

> <i_f3d_flags>
0

> <s_epik_input>
W0NIM11jMVtjSF1jKG5vMSlbTkhdQyg9TylbTkhdW0NASF0oW0NIM10pW0NAQEhdMltDSDJdW0NIMl1bQ0gyXU8y

> <s_epik_cmdline>
J2VwaWtfcHl0aG9uJywgJy1waCcsICc3LjAnLCAnLXRuJywgJzgnLCAnLW1hJywgJzIwMCcsICctbWV0YWxfYmluZGluZycsICctaW1hZScsICc8aW5maWxlLm1hZT4nLCAnLW9tYWUnLCAnPG91dGZpbGUubWFlPic=

> <r_lp_tautomer_probability>
1

> <r_epik_Ionization_Penalty>
2.20869e-05

> <r_epik_Ionization_Penalty_Charging>
0

> <r_epik_Ionization_Penalty_Neutral>
2.20869e-05

> <r_epik_State_Penalty>
-0

> <r_epik_Charging_Adjusted_Penalty>
0

> <i_epik_Tot_Q>
0

> <i_epik_Tot_abs_Q>
0

> <r_epik_Metal_State_Penalty>
-0

> <b_epik_Metal_Only>
0

> <s_lp_Force_Field>
OPLS_2005

> <r_lp_Energy>
16.1691

> <b_lp_Chiralities_Consistent>
1

> <s_lp_Variant>
AV-unprocessed.smi:1459-3

> <Gold.Version>
5.8.1

> <Gold.Id.Protein>
6NUR|6NUR_protein|mol2

> <Gold.PLP.Fitness>
38.6768

> <Gold.PLP.PLP>
-32.4658

> <Gold.PLP.part.hbond>
-3.0000

> <Gold.PLP.part.metal>
0.0000

> <Gold.PLP.part.buried>
-4.8735

> <Gold.PLP.part.nonpolar>
-27.4790

> <Gold.PLP.part.repulsive>
2.6738

> <Gold.PLP.ligand.clash>
0.0000

> <Gold.PLP.ligand.torsion>
0.7236

> <Gold.PLP.Chemscore.Hbond>
2.5454

> <Gold.PLP.Chemscore.CHOScore>
0.0000

> <Gold.PLP.Chemscore.Metal>
0.0000

> <Gold.Chemscore.Hbonds>
donor molecule, donor type, donor heavy atom, donor atom, acceptor molecule, acceptor atom, score
      L1  H     5    22       P1  8028  0.78
      L1  H     8    23       P1  8028  0.74
      P1  H  7989  7998       L1    16  1.00

> <Gold.PLP.Chemscore.Internal.Correction>
0.0220

> <Gold.Rescore>
     Score         DG    S(hbond)    S(metal)    S(lipo)     H(rot)  DE(clash)    DE(int)     intcor
     14.93     -20.14       2.59        0.00      79.31       1.28       1.40       3.82       ----

> <Gold.Chemscore.Fitness>
14.9262

> <Gold.Chemscore.DG>
-20.1439

> <Gold.Chemscore.ZeroCoef>
-5.4800

> <Gold.Chemscore.Hbond>
2.5915

> <Gold.Chemscore.Metal>
0.0000

> <Gold.Chemscore.Lipo>
79.3061

> <Gold.Chemscore.Internal_Hbond>
0.0000

> <Gold.Chemscore.DEClash>
1.4005

> <Gold.Chemscore.DEInternal>
3.8171

> <Gold.Chemscore.Rot>
1.2776

> <Gold.Chemscore.Internal.Correction>
   9.000000E+99

> <Gold.Chemscore.Hbonds>
donor molecule, donor type, donor heavy atom, donor atom, acceptor molecule, acceptor atom, score
      L1  H     5    22       P1  8028  0.77
      L1  H     8    23       P1  8028  0.66
      P1  H  7989  7998       L1    16  0.40

> <Gold.Chemscore.Hbond.Weighted>
-8.6558

> <Gold.Chemscore.Metal.Weighted>
-0.0000

> <Gold.Chemscore.Lipo.Weighted>
-9.2788

> <Gold.Chemscore.Internal_Hbond.Weighted>
0.0000

> <Gold.Chemscore.DEClash.Weighted>
1.4005

> <Gold.Chemscore.DEInternal.Weighted>
3.8171

> <Gold.Chemscore.Rot.Weighted>
3.2707

> <Gold.Chemscore.Internal.Correction.Weighted>
   9.000000E+99

> <Gold.Protein.RotatedTorsions>
[ 6907 6896 6895 6894 ] final   60.40 input  -60.11 | X-H torsion
[ 7974 7965 7964 7962 ] final   14.54 input  175.53 | X-H torsion
[ 8008 7997 7996 7995 ] final  -65.94 input   59.86 | X-H torsion
[ 10167 10162 10161 10158 ] final  -42.68 input  -65.29 | X-H torsion
[ 10718 10713 10712 10709 ] final  105.34 input   66.30 | X-H torsion
[ 10763 10752 10751 10750 ] final  -81.35 input  -60.55 | X-H torsion
[ 11005 11000 10999 10996 ] final  165.40 input  -57.11 | X-H torsion

> <Gold.Protein.ActiveResidues>
 VAL166  LYS551  ARG553  GLY616  TRP617  ASP618  TYR619  PRO620  LYS621  CYS622 
 ASP623  PHE694  ASN695  SER759  ASP760  ASP761  ALA762  ILE779  LEU786  VAL792 
 PHE793  MET794  SER795  GLU796  ALA797  LYS798  CYS799  TRP800  GLU811  SER814 

> <Gold.Protein.RotatedAtoms>
  152.3999  134.6303  160.0073 H   0  0  0  0  0  0  0  0  0  0  0  0  # atno 6907 bound_to 6896
  151.6511  133.3315  159.3160 H   0  0  0  0  0  0  0  0  0  0  0  0  # atno 6908 bound_to 6896
  150.7901  134.6961  159.6568 H   0  0  0  0  0  0  0  0  0  0  0  0  # atno 6909 bound_to 6896
  146.2302  139.9026  142.8537 H   0  0  0  0  0  0  0  0  0  0  0  0  # atno 7974 bound_to 7965
  154.4703  140.0923  156.7128 H   0  0  0  0  0  0  0  0  0  0  0  0  # atno 8008 bound_to 7997
  155.4742  140.3465  155.4312 H   0  0  0  0  0  0  0  0  0  0  0  0  # atno 8009 bound_to 7997
  156.1028  140.1426  156.9433 H   0  0  0  0  0  0  0  0  0  0  0  0  # atno 8010 bound_to 7997
  140.6961  143.3024  151.3244 H   0  0  0  0  0  0  0  0  0  0  0  0  # atno 10167 bound_to 10162
  157.6709  131.0825  150.5842 H   0  0  0  0  0  0  0  0  0  0  0  0  # atno 10718 bound_to 10713
  154.5624  135.5629  153.7020 H   0  0  0  0  0  0  0  0  0  0  0  0  # atno 10763 bound_to 10752
  153.0022  135.6277  154.2226 H   0  0  0  0  0  0  0  0  0  0  0  0  # atno 10764 bound_to 10752
  154.2164  135.2871  155.2920 H   0  0  0  0  0  0  0  0  0  0  0  0  # atno 10765 bound_to 10752
  140.2558  134.7941  157.3544 H   0  0  0  0  0  0  0  0  0  0  0  0  # atno 11005 bound_to 11000
  145.2309  140.9972  143.3991 LP  0  0  0  0  0  0  0  0  0  0  0  0  # atno 17320 bound_to 7965
  144.9531  139.4060  143.6392 LP  0  0  0  0  0  0  0  0  0  0  0  0  # atno 17321 bound_to 7965
  139.6417  144.0526  152.2560 LP  0  0  0  0  0  0  0  0  0  0  0  0  # atno 17342 bound_to 10162
  140.0034  144.6277  150.7710 LP  0  0  0  0  0  0  0  0  0  0  0  0  # atno 17343 bound_to 10162
  156.6143  130.4388  149.5847 LP  0  0  0  0  0  0  0  0  0  0  0  0  # atno 17370 bound_to 10713
  156.2406  130.6849  151.1552 LP  0  0  0  0  0  0  0  0  0  0  0  0  # atno 17371 bound_to 10713
  140.1513  134.4846  155.7959 LP  0  0  0  0  0  0  0  0  0  0  0  0  # atno 17394 bound_to 11000
  141.2196  133.6863  156.7383 LP  0  0  0  0  0  0  0  0  0  0  0  0  # atno 17395 bound_to 11000

$$$$
