AV-unprocessed.smi:2253|AV-procd|sdf|9122|dock3
  -GOLD-   2272012323D 1   1.00000     0.00000
 Structure written by MMmdl.
 51 53  0  0  0  0  0  0  0  0  2 V2000
  152.5114  139.3207  156.9060 C   0  0  0  0  0  0  0  0  0  0  0  0
  151.1085  139.5212  156.5709 N   0  0  0  0  0  0  0  0  0  0  0  0
  150.9731  139.6603  155.1240 C   0  0  0  0  0  0  0  0  0  0  0  0
  149.4893  139.7972  154.7434 C   0  0  0  0  0  0  0  0  0  0  0  0
  148.8187  141.0136  155.4269 C   0  0  0  0  0  0  0  0  0  0  0  0
  147.3410  141.0875  155.1681 N   0  3  2  0  0  0  0  0  0  0  0  0
  146.5252  139.9723  155.7290 C   0  0  0  0  0  0  0  0  0  0  0  0
  146.7457  138.6595  154.9547 C   0  0  0  0  0  0  0  0  0  0  0  0
  146.4002  138.8412  153.4667 C   0  0  2  0  0  0  0  0  0  0  0  0
  146.7012  137.6155  152.7322 N   0  0  0  0  0  0  0  0  0  0  0  0
  145.7950  136.6988  152.3610 C   0  0  0  0  0  0  0  0  0  0  0  0
  144.5904  136.8187  152.5795 O   0  0  0  0  0  0  0  0  0  0  0  0
  146.3821  135.6644  151.7339 N   0  0  0  0  0  0  0  0  0  0  0  0
  145.8095  134.4703  151.2107 C   0  0  0  0  0  0  0  0  0  0  0  0
  144.5651  134.3939  150.5371 C   0  0  0  0  0  0  0  0  0  0  0  0
  144.1218  133.1377  150.0764 C   0  0  0  0  0  0  0  0  0  0  0  0
  144.8198  131.9946  150.2414 N   0  0  0  0  0  0  0  0  0  0  0  0
  146.0041  132.0697  150.8835 C   0  0  0  0  0  0  0  0  0  0  0  0
  146.5384  133.2741  151.3835 C   0  0  0  0  0  0  0  0  0  0  0  0
  147.7343  133.2768  152.0211 F   0  0  0  0  0  0  0  0  0  0  0  0
  147.1706  140.0427  152.8837 C   0  0  0  0  0  0  0  0  0  0  0  0
  146.9645  141.3074  153.7415 C   0  0  0  0  0  0  0  0  0  0  0  0
  149.1254  140.9250  156.9411 C   0  0  0  0  0  0  0  0  0  0  0  0
  150.6256  140.7352  157.2223 C   0  0  0  0  0  0  0  0  0  0  0  0
  152.8926  138.4155  156.4323 H   0  0  0  0  0  0  0  0  0  0  0  0
  152.6348  139.2066  157.9834 H   0  0  0  0  0  0  0  0  0  0  0  0
  153.1245  140.1619  156.5789 H   0  0  0  0  0  0  0  0  0  0  0  0
  151.5385  140.5245  154.7707 H   0  0  0  0  0  0  0  0  0  0  0  0
  151.3927  138.7811  154.6333 H   0  0  0  0  0  0  0  0  0  0  0  0
  149.4449  139.8892  153.6587 H   0  0  0  0  0  0  0  0  0  0  0  0
  148.9599  138.8801  155.0064 H   0  0  0  0  0  0  0  0  0  0  0  0
  149.2933  141.9124  155.0328 H   0  0  0  0  0  0  0  0  0  0  0  0
  146.6920  139.8346  156.7956 H   0  0  0  0  0  0  0  0  0  0  0  0
  145.4734  140.2529  155.6528 H   0  0  0  0  0  0  0  0  0  0  0  0
  147.7791  138.3289  155.0669 H   0  0  0  0  0  0  0  0  0  0  0  0
  146.1250  137.8724  155.3846 H   0  0  0  0  0  0  0  0  0  0  0  0
  145.3294  139.0426  153.3939 H   0  0  0  0  0  0  0  0  0  0  0  0
  147.6707  137.4425  152.5096 H   0  0  0  0  0  0  0  0  0  0  0  0
  147.3838  135.7308  151.6253 H   0  0  0  0  0  0  0  0  0  0  0  0
  143.9400  135.2545  150.3621 H   0  0  0  0  0  0  0  0  0  0  0  0
  143.1773  133.0491  149.5602 H   0  0  0  0  0  0  0  0  0  0  0  0
  146.5419  131.1410  151.0040 H   0  0  0  0  0  0  0  0  0  0  0  0
  148.2330  139.8089  152.8098 H   0  0  0  0  0  0  0  0  0  0  0  0
  146.8355  140.2403  151.8647 H   0  0  0  0  0  0  0  0  0  0  0  0
  145.9097  141.5840  153.7111 H   0  0  0  0  0  0  0  0  0  0  0  0
  147.4867  142.1555  153.3045 H   0  0  0  0  0  0  0  0  0  0  0  0
  148.8131  141.8294  157.4600 H   0  0  0  0  0  0  0  0  0  0  0  0
  148.5654  140.1010  157.3863 H   0  0  0  0  0  0  0  0  0  0  0  0
  150.7846  140.6575  158.2987 H   0  0  0  0  0  0  0  0  0  0  0  0
  151.1908  141.6028  156.8771 H   0  0  0  0  0  0  0  0  0  0  0  0
  147.0370  141.9139  155.6634 H   0  0  0  0  0  0  0  0  0  0  0  0
  1  2  1  0  0  0  0
  1 25  1  0  0  0  0
  1 26  1  0  0  0  0
  1 27  1  0  0  0  0
  2 24  1  0  0  0  0
  2  3  1  0  0  0  0
  3  4  1  0  0  0  0
  3 28  1  0  0  0  0
  3 29  1  0  0  0  0
  4  5  1  0  0  0  0
  4 30  1  0  0  0  0
  4 31  1  0  0  0  0
  5  6  1  0  0  0  0
  5 23  1  0  0  0  0
  5 32  1  0  0  0  0
  6 22  1  0  0  0  0
  6  7  1  0  0  0  0
  6 51  1  0  0  0  0
  7  8  1  0  0  0  0
  7 33  1  0  0  0  0
  7 34  1  0  0  0  0
  8  9  1  0  0  0  0
  8 35  1  0  0  0  0
  8 36  1  0  0  0  0
  9 10  1  0  0  0  0
  9 21  1  0  0  0  0
  9 37  1  0  0  0  0
 10 11  1  0  0  0  0
 10 38  1  0  0  0  0
 11 12  2  0  0  0  0
 11 13  1  0  0  0  0
 13 14  1  0  0  0  0
 13 39  1  0  0  0  0
 14 19  1  0  0  0  0
 14 15  2  0  0  0  0
 15 16  1  0  0  0  0
 15 40  1  0  0  0  0
 16 17  2  0  0  0  0
 16 41  1  0  0  0  0
 17 18  1  0  0  0  0
 18 19  2  0  0  0  0
 18 42  1  0  0  0  0
 19 20  1  0  0  0  0
 21 22  1  0  0  0  0
 21 43  1  0  0  0  0
 21 44  1  0  0  0  0
 22 45  1  0  0  0  0
 22 46  1  0  0  0  0
 23 24  1  0  0  0  0
 23 47  1  0  0  0  0
 23 48  1  0  0  0  0
 24 49  1  0  0  0  0
 24 50  1  0  0  0  0
M  CHG  1   6   1
M  END
> <s_m_source_file>
AV-unprocessed.smi

> <i_m_source_file_index>
2253

> <i_lp_mmshare_version>
43012

> <i_f3d_flags>
0

> <s_epik_input>
W0NIM11OMVtDSDJdW0NIMl1bQ0hdKFtDSDJdW0NIMl0xKU4yW0NIMl1bQ0gyXVtDSF0oW0NIMl1bQ0gyXTIpW05IXUMoPU8pW05IXWMzW2NIXVtjSF1uW2NIXWMzRg==

> <s_epik_cmdline>
J2VwaWtfcHl0aG9uJywgJy1waCcsICc3LjAnLCAnLXRuJywgJzgnLCAnLW1hJywgJzIwMCcsICctbWV0YWxfYmluZGluZycsICctaW1hZScsICc8aW5maWxlLm1hZT4nLCAnLW9tYWUnLCAnPG91dGZpbGUubWFlPic=

> <r_epik_Ionization_Penalty>
1.37522

> <r_epik_Ionization_Penalty_Charging>
0.00081195

> <r_epik_Ionization_Penalty_Neutral>
1.3744

> <r_epik_State_Penalty>
1.55149

> <r_epik_Charging_Adjusted_Penalty>
1.5523

> <i_epik_Tot_Q>
1

> <i_epik_Tot_abs_Q>
1

> <r_epik_Metal_State_Penalty>
1.55158

> <b_epik_Metal_Only>
0

> <s_lp_Force_Field>
OPLS_2005

> <r_lp_Energy>
38.6229

> <b_lp_Chiralities_Consistent>
1

> <s_lp_Variant>
AV-unprocessed.smi:2253-8

> <Gold.Version>
5.8.1

> <Gold.Id.Protein>
6NUR|6NUR_protein|mol2

> <Gold.PLP.Fitness>
43.2762

> <Gold.PLP.PLP>
-34.7164

> <Gold.PLP.part.hbond>
-2.0000

> <Gold.PLP.part.metal>
0.0000

> <Gold.PLP.part.buried>
-1.8809

> <Gold.PLP.part.nonpolar>
-30.2092

> <Gold.PLP.part.repulsive>
0.4566

> <Gold.PLP.ligand.clash>
1.3282

> <Gold.PLP.ligand.torsion>
0.5709

> <Gold.PLP.Chemscore.Hbond>
1.9600

> <Gold.PLP.Chemscore.CHOScore>
1.6986

> <Gold.PLP.Chemscore.Metal>
0.0000

> <Gold.Chemscore.Hbonds>
donor molecule, donor type, donor heavy atom, donor atom, acceptor molecule, acceptor atom, score
      L1  H    10    38       P1  7948  0.96
      L1  H    13    39       P1  7948  1.00
      L1  C    16    41       P1 10186  0.91
      L1  C    18    42       P1 10747  0.81

> <Gold.PLP.Chemscore.Internal.Correction>
0.0539

> <Gold.Rescore>
     Score         DG    S(hbond)    S(metal)    S(lipo)     H(rot)  DE(clash)    DE(int)     intcor
     16.62     -19.74       1.93        0.00      93.88       1.24       0.35       2.77       ----

> <Gold.Chemscore.Fitness>
16.6224

> <Gold.Chemscore.DG>
-19.7449

> <Gold.Chemscore.ZeroCoef>
-5.4800

> <Gold.Chemscore.Hbond>
1.9310

> <Gold.Chemscore.Metal>
0.0000

> <Gold.Chemscore.Lipo>
93.8785

> <Gold.Chemscore.Internal_Hbond>
0.0000

> <Gold.Chemscore.DEClash>
0.3509

> <Gold.Chemscore.DEInternal>
2.7716

> <Gold.Chemscore.Rot>
1.2377

> <Gold.Chemscore.Internal.Correction>
   9.000000E+99

> <Gold.Chemscore.Hbonds>
donor molecule, donor type, donor heavy atom, donor atom, acceptor molecule, acceptor atom, score
      L1  H    10    38       P1  7948  0.92
      L1  H    13    39       P1  7948  0.99

> <Gold.Chemscore.Hbond.Weighted>
-6.4496

> <Gold.Chemscore.Metal.Weighted>
-0.0000

> <Gold.Chemscore.Lipo.Weighted>
-10.9838

> <Gold.Chemscore.Internal_Hbond.Weighted>
0.0000

> <Gold.Chemscore.DEClash.Weighted>
0.3509

> <Gold.Chemscore.DEInternal.Weighted>
2.7716

> <Gold.Chemscore.Rot.Weighted>
3.1685

> <Gold.Chemscore.Internal.Correction.Weighted>
   9.000000E+99

> <Gold.Protein.RotatedTorsions>
[ 6907 6896 6895 6894 ] final  147.66 input  -60.11 | X-H torsion
[ 7974 7965 7964 7962 ] final -141.76 input  175.53 | X-H torsion
[ 8008 7997 7996 7995 ] final -123.13 input   59.86 | X-H torsion
[ 10167 10162 10161 10158 ] final  -64.04 input  -65.29 | X-H torsion
[ 10718 10713 10712 10709 ] final  178.92 input   66.30 | X-H torsion
[ 10763 10752 10751 10750 ] final -137.66 input  -60.55 | X-H torsion
[ 11005 11000 10999 10996 ] final -167.56 input  -57.11 | X-H torsion

> <Gold.Protein.ActiveResidues>
 VAL166  LYS551  ARG553  GLY616  TRP617  ASP618  TYR619  PRO620  LYS621  CYS622 
 ASP623  PHE694  ASN695  SER759  ASP760  ASP761  ALA762  ILE779  LEU786  VAL792 
 PHE793  MET794  SER795  GLU796  ALA797  LYS798  CYS799  TRP800  GLU811  SER814 

> <Gold.Protein.RotatedAtoms>
  152.1518  133.4526  159.4817 H   0  0  0  0  0  0  0  0  0  0  0  0  # atno 6907 bound_to 6896
  150.6896  134.2179  159.4394 H   0  0  0  0  0  0  0  0  0  0  0  0  # atno 6908 bound_to 6896
  152.0077  134.9893  160.0618 H   0  0  0  0  0  0  0  0  0  0  0  0  # atno 6909 bound_to 6896
  144.8495  140.6041  143.5399 H   0  0  0  0  0  0  0  0  0  0  0  0  # atno 7974 bound_to 7965
  155.1755  140.0409  157.2871 H   0  0  0  0  0  0  0  0  0  0  0  0  # atno 8008 bound_to 7997
  154.6240  140.2508  155.7487 H   0  0  0  0  0  0  0  0  0  0  0  0  # atno 8009 bound_to 7997
  156.2449  140.2889  156.0561 H   0  0  0  0  0  0  0  0  0  0  0  0  # atno 8010 bound_to 7997
  140.5828  143.2329  151.6305 H   0  0  0  0  0  0  0  0  0  0  0  0  # atno 10167 bound_to 10162
  156.8834  130.9823  151.3059 H   0  0  0  0  0  0  0  0  0  0  0  0  # atno 10718 bound_to 10713
  154.8656  135.3635  154.5259 H   0  0  0  0  0  0  0  0  0  0  0  0  # atno 10763 bound_to 10752
  153.5887  135.7016  153.5437 H   0  0  0  0  0  0  0  0  0  0  0  0  # atno 10764 bound_to 10752
  153.3393  135.4102  155.1521 H   0  0  0  0  0  0  0  0  0  0  0  0  # atno 10765 bound_to 10752
  140.5519  134.5420  157.5124 H   0  0  0  0  0  0  0  0  0  0  0  0  # atno 11005 bound_to 11000
  145.4529  139.1521  143.3908 LP  0  0  0  0  0  0  0  0  0  0  0  0  # atno 17320 bound_to 7965
  146.2772  140.4656  142.8790 LP  0  0  0  0  0  0  0  0  0  0  0  0  # atno 17321 bound_to 7965
  139.5180  144.3298  152.0837 LP  0  0  0  0  0  0  0  0  0  0  0  0  # atno 17342 bound_to 10162
  140.2450  144.4229  150.6244 LP  0  0  0  0  0  0  0  0  0  0  0  0  # atno 17343 bound_to 10162
  157.6127  130.8595  149.8977 LP  0  0  0  0  0  0  0  0  0  0  0  0  # atno 17370 bound_to 10713
  156.0665  130.3691  150.0866 LP  0  0  0  0  0  0  0  0  0  0  0  0  # atno 17371 bound_to 10713
  139.9451  134.7717  156.0582 LP  0  0  0  0  0  0  0  0  0  0  0  0  # atno 17394 bound_to 11000
  141.1166  133.6625  156.3111 LP  0  0  0  0  0  0  0  0  0  0  0  0  # atno 17395 bound_to 11000

$$$$
