AV-unprocessed.smi:2202|AV-procd|sdf|8932|dock2
  -GOLD-   2272012143D 1   1.00000     0.00000
 Structure written by MMmdl.
 43 45  0  0  0  0  0  0  0  0  2 V2000
  150.4077  139.7508  154.3266 O   0  0  0  0  0  0  0  0  0  0  0  0
  151.1126  139.1324  155.1261 C   0  0  0  0  0  0  0  0  0  0  0  0
  152.2896  139.8134  155.8396 C   0  0  0  0  0  0  0  0  0  0  0  0
  151.8825  140.6322  156.9909 N   0  0  0  0  0  0  0  0  0  0  0  0
  150.8406  141.4737  156.9794 C   0  0  0  0  0  0  0  0  0  0  0  0
  150.0962  141.6846  156.0212 O   0  0  0  0  0  0  0  0  0  0  0  0
  150.6556  142.1561  158.3365 C   0  0  2  0  0  0  0  0  0  0  0  0
  150.6602  143.7019  158.2034 C   0  0  0  0  0  0  0  0  0  0  0  0
  152.0588  144.2816  158.1565 C   0  0  0  0  0  0  0  0  0  0  0  0
  153.0519  143.7557  158.8854 C   0  0  0  0  0  0  0  0  0  0  0  0
  152.8154  142.5605  159.7853 C   0  0  0  0  0  0  0  0  0  0  0  0
  151.8091  141.5455  159.1814 C   0  0  2  0  0  0  0  0  0  0  0  0
  152.4886  140.6033  158.1849 C   0  0  0  0  0  0  0  0  0  0  0  0
  153.4616  139.9097  158.4822 O   0  0  0  0  0  0  0  0  0  0  0  0
  150.9102  137.8420  155.4317 N   0  0  0  0  0  0  0  0  0  0  0  0
  149.8526  137.0102  154.8701 C   0  0  0  0  0  0  0  0  0  0  0  0
  149.5785  135.7754  155.7455 C   0  0  0  0  0  0  0  0  0  0  0  0
  149.3310  134.5295  154.9181 C   0  0  0  0  0  0  0  0  0  0  0  0
  150.1471  133.3819  155.0203 C   0  0  0  0  0  0  0  0  0  0  0  0
  149.8543  132.2558  154.2227 C   0  0  0  0  0  0  0  0  0  0  0  0
  148.7533  132.3005  153.3423 C   0  0  0  0  0  0  0  0  0  0  0  0
  147.9716  133.4723  153.2812 C   0  0  0  0  0  0  0  0  0  0  0  0
  148.2840  134.5303  154.0612 N   0  3  0  0  0  0  0  0  0  0  0  0
  152.9969  139.0444  156.1550 H   0  0  0  0  0  0  0  0  0  0  0  0
  152.8296  140.4307  155.1191 H   0  0  0  0  0  0  0  0  0  0  0  0
  149.6917  141.8343  158.7328 H   0  0  0  0  0  0  0  0  0  0  0  0
  150.1169  144.0197  157.3126 H   0  0  0  0  0  0  0  0  0  0  0  0
  150.1389  144.1505  159.0495 H   0  0  0  0  0  0  0  0  0  0  0  0
  152.2201  145.1665  157.5585 H   0  0  0  0  0  0  0  0  0  0  0  0
  154.0337  144.2059  158.8899 H   0  0  0  0  0  0  0  0  0  0  0  0
  153.7734  142.0833  159.9963 H   0  0  0  0  0  0  0  0  0  0  0  0
  152.4449  142.9287  160.7424 H   0  0  0  0  0  0  0  0  0  0  0  0
  151.3987  140.9292  159.9824 H   0  0  0  0  0  0  0  0  0  0  0  0
  151.5296  137.4087  156.1016 H   0  0  0  0  0  0  0  0  0  0  0  0
  148.9496  137.6155  154.7875 H   0  0  0  0  0  0  0  0  0  0  0  0
  150.1196  136.7109  153.8551 H   0  0  0  0  0  0  0  0  0  0  0  0
  150.4215  135.5859  156.4114 H   0  0  0  0  0  0  0  0  0  0  0  0
  148.7158  135.9578  156.3876 H   0  0  0  0  0  0  0  0  0  0  0  0
  150.9856  133.3617  155.7014 H   0  0  0  0  0  0  0  0  0  0  0  0
  150.4665  131.3679  154.2865 H   0  0  0  0  0  0  0  0  0  0  0  0
  148.5122  131.4487  152.7232 H   0  0  0  0  0  0  0  0  0  0  0  0
  147.1125  133.5945  152.6378 H   0  0  0  0  0  0  0  0  0  0  0  0
  147.7046  135.3682  154.0013 H   0  0  0  0  0  0  0  0  0  0  0  0
  1  2  2  0  0  0  0
  2  3  1  0  0  0  0
  2 15  1  0  0  0  0
  3  4  1  0  0  0  0
  3 24  1  0  0  0  0
  3 25  1  0  0  0  0
  4 13  1  0  0  0  0
  4  5  1  0  0  0  0
  5  6  2  0  0  0  0
  5  7  1  0  0  0  0
  7 12  1  0  0  0  0
  7  8  1  0  0  0  0
  7 26  1  0  0  0  0
  8  9  1  0  0  0  0
  8 27  1  0  0  0  0
  8 28  1  0  0  0  0
  9 10  2  0  0  0  0
  9 29  1  0  0  0  0
 10 11  1  0  0  0  0
 10 30  1  0  0  0  0
 11 12  1  0  0  0  0
 11 31  1  0  0  0  0
 11 32  1  0  0  0  0
 12 13  1  0  0  0  0
 12 33  1  0  0  0  0
 13 14  2  0  0  0  0
 15 16  1  0  0  0  0
 15 34  1  0  0  0  0
 16 17  1  0  0  0  0
 16 35  1  0  0  0  0
 16 36  1  0  0  0  0
 17 18  1  0  0  0  0
 17 37  1  0  0  0  0
 17 38  1  0  0  0  0
 18 23  1  0  0  0  0
 18 19  2  0  0  0  0
 19 20  1  0  0  0  0
 19 39  1  0  0  0  0
 20 21  2  0  0  0  0
 20 40  1  0  0  0  0
 21 22  1  0  0  0  0
 21 41  1  0  0  0  0
 22 23  2  0  0  0  0
 22 42  1  0  0  0  0
 23 43  1  0  0  0  0
M  CHG  1  23   1
M  END
> <s_m_source_file>
AV-unprocessed.smi

> <i_m_source_file_index>
2202

> <i_lp_mmshare_version>
43012

> <i_f3d_flags>
0

> <s_epik_input>
W0NIMl0xW0NIXT1bQ0hdW0NIMl1bQ0BIXShbQ0BIXTEyKUMoPU8pTihDMj1PKVtDSDJdQyg9TylbTkhdW0NIMl1bQ0gyXWMzW2NIXVtjSF1bY0hdW2NIXW4z

> <s_epik_cmdline>
J2VwaWtfcHl0aG9uJywgJy1waCcsICc3LjAnLCAnLXRuJywgJzgnLCAnLW1hJywgJzIwMCcsICctbWV0YWxfYmluZGluZycsICctaW1hZScsICc8aW5maWxlLm1hZT4nLCAnLW9tYWUnLCAnPG91dGZpbGUubWFlPic=

> <r_lp_tautomer_probability>
1

> <r_epik_Ionization_Penalty>
1.90039

> <r_epik_Ionization_Penalty_Charging>
1.90039

> <r_epik_Ionization_Penalty_Neutral>
1.50224e-07

> <r_epik_State_Penalty>
2.02162

> <r_epik_Charging_Adjusted_Penalty>
3.922

> <i_epik_Tot_Q>
1

> <i_epik_Tot_abs_Q>
1

> <r_epik_Metal_State_Penalty>
2.04542

> <b_epik_Metal_Only>
0

> <s_lp_Force_Field>
OPLS_2005

> <r_lp_Energy>
20.8283

> <b_lp_Chiralities_Consistent>
1

> <s_lp_Variant>
AV-unprocessed.smi:2202-4

> <Gold.Version>
5.8.1

> <Gold.Id.Protein>
6NUR|6NUR_protein|mol2

> <Gold.PLP.Fitness>
50.9334

> <Gold.PLP.PLP>
-46.6181

> <Gold.PLP.part.hbond>
-3.0000

> <Gold.PLP.part.metal>
0.0000

> <Gold.PLP.part.buried>
-3.3298

> <Gold.PLP.part.nonpolar>
-39.8931

> <Gold.PLP.part.repulsive>
0.2882

> <Gold.PLP.ligand.clash>
0.0000

> <Gold.PLP.ligand.torsion>
0.8859

> <Gold.PLP.Chemscore.Hbond>
2.0000

> <Gold.PLP.Chemscore.CHOScore>
0.0000

> <Gold.PLP.Chemscore.Metal>
0.0000

> <Gold.Chemscore.Hbonds>
donor molecule, donor type, donor heavy atom, donor atom, acceptor molecule, acceptor atom, score
      P1  H  7989  7998       L1     1  1.00
      P1  H  7997  8010       L1    14  1.00

> <Gold.PLP.Chemscore.Internal.Correction>
0.0871

> <Gold.Rescore>
     Score         DG    S(hbond)    S(metal)    S(lipo)     H(rot)  DE(clash)    DE(int)     intcor
     13.35     -17.73       1.50        0.00     104.88       1.96       0.21       4.17       ----

> <Gold.Chemscore.Fitness>
13.3523

> <Gold.Chemscore.DG>
-17.7307

> <Gold.Chemscore.ZeroCoef>
-5.4800

> <Gold.Chemscore.Hbond>
1.4982

> <Gold.Chemscore.Metal>
0.0000

> <Gold.Chemscore.Lipo>
104.8782

> <Gold.Chemscore.Internal_Hbond>
0.0000

> <Gold.Chemscore.DEClash>
0.2118

> <Gold.Chemscore.DEInternal>
4.1666

> <Gold.Chemscore.Rot>
1.9625

> <Gold.Chemscore.Internal.Correction>
   9.000000E+99

> <Gold.Chemscore.Hbonds>
donor molecule, donor type, donor heavy atom, donor atom, acceptor molecule, acceptor atom, score
      P1  H  7989  7998       L1     1  0.40
      P1  H  7997  8010       L1    14  0.54

> <Gold.Chemscore.Hbond.Weighted>
-5.0039

> <Gold.Chemscore.Metal.Weighted>
-0.0000

> <Gold.Chemscore.Lipo.Weighted>
-12.2707

> <Gold.Chemscore.Internal_Hbond.Weighted>
0.0000

> <Gold.Chemscore.DEClash.Weighted>
0.2118

> <Gold.Chemscore.DEInternal.Weighted>
4.1666

> <Gold.Chemscore.Rot.Weighted>
5.0240

> <Gold.Chemscore.Internal.Correction.Weighted>
   9.000000E+99

> <Gold.Protein.RotatedTorsions>
[ 6907 6896 6895 6894 ] final  -26.42 input  -60.11 | X-H torsion
[ 7974 7965 7964 7962 ] final   -5.84 input  175.53 | X-H torsion
[ 8008 7997 7996 7995 ] final   32.71 input   59.86 | X-H torsion
[ 10167 10162 10161 10158 ] final   72.14 input  -65.29 | X-H torsion
[ 10718 10713 10712 10709 ] final -113.35 input   66.30 | X-H torsion
[ 10763 10752 10751 10750 ] final  146.20 input  -60.55 | X-H torsion
[ 11005 11000 10999 10996 ] final   -6.45 input  -57.11 | X-H torsion

> <Gold.Protein.ActiveResidues>
 VAL166  LYS551  ARG553  GLY616  TRP617  ASP618  TYR619  PRO620  LYS621  CYS622 
 ASP623  PHE694  ASN695  SER759  ASP760  ASP761  ALA762  ILE779  LEU786  VAL792 
 PHE793  MET794  SER795  GLU796  ALA797  LYS798  CYS799  TRP800  GLU811  SER814 

> <Gold.Protein.RotatedAtoms>
  151.1613  135.0274  159.8710 H   0  0  0  0  0  0  0  0  0  0  0  0  # atno 6907 bound_to 6896
  152.5451  134.1276  159.8435 H   0  0  0  0  0  0  0  0  0  0  0  0  # atno 6908 bound_to 6896
  151.1372  133.4950  159.2630 H   0  0  0  0  0  0  0  0  0  0  0  0  # atno 6909 bound_to 6896
  146.2344  140.2081  142.8335 H   0  0  0  0  0  0  0  0  0  0  0  0  # atno 7974 bound_to 7965
  155.1269  140.3253  155.4483 H   0  0  0  0  0  0  0  0  0  0  0  0  # atno 8008 bound_to 7997
  156.2646  140.2017  156.6338 H   0  0  0  0  0  0  0  0  0  0  0  0  # atno 8009 bound_to 7997
  154.6642  140.0544  157.0082 H   0  0  0  0  0  0  0  0  0  0  0  0  # atno 8010 bound_to 7997
  140.0385  144.5408  150.7452 H   0  0  0  0  0  0  0  0  0  0  0  0  # atno 10167 bound_to 10162
  156.0761  130.5968  150.8631 H   0  0  0  0  0  0  0  0  0  0  0  0  # atno 10718 bound_to 10713
  154.0179  135.2908  155.3384 H   0  0  0  0  0  0  0  0  0  0  0  0  # atno 10763 bound_to 10752
  154.7064  135.5167  153.8604 H   0  0  0  0  0  0  0  0  0  0  0  0  # atno 10764 bound_to 10752
  153.0694  135.6642  154.0404 H   0  0  0  0  0  0  0  0  0  0  0  0  # atno 10765 bound_to 10752
  140.7021  133.8981  155.8691 H   0  0  0  0  0  0  0  0  0  0  0  0  # atno 11005 bound_to 11000
  144.9728  140.8385  143.5444 LP  0  0  0  0  0  0  0  0  0  0  0  0  # atno 17320 bound_to 7965
  145.2065  139.2226  143.5165 LP  0  0  0  0  0  0  0  0  0  0  0  0  # atno 17321 bound_to 7965
  140.7270  143.2647  151.4084 LP  0  0  0  0  0  0  0  0  0  0  0  0  # atno 17342 bound_to 10162
  139.6029  144.1258  152.2217 LP  0  0  0  0  0  0  0  0  0  0  0  0  # atno 17343 bound_to 10162
  157.5857  131.0945  150.9199 LP  0  0  0  0  0  0  0  0  0  0  0  0  # atno 17370 bound_to 10713
  156.9386  130.5376  149.5280 LP  0  0  0  0  0  0  0  0  0  0  0  0  # atno 17371 bound_to 10713
  141.0155  134.0962  157.4177 LP  0  0  0  0  0  0  0  0  0  0  0  0  # atno 17394 bound_to 11000
  139.8894  135.0104  156.6676 LP  0  0  0  0  0  0  0  0  0  0  0  0  # atno 17395 bound_to 11000

$$$$
