AV-unprocessed.smi:990|AV-procd|sdf|4327|dock8
  -GOLD-   22720 2233D 1   1.00000     0.00000
 Structure written by MMmdl.
 45 46  0  0  0  0  0  0  0  0  2 V2000
  146.8917  132.9179  152.3506 C   0  0  0  0  0  0  0  0  0  0  0  0
  147.8035  132.2693  153.0903 C   0  0  0  0  0  0  0  0  0  0  0  0
  148.4916  132.8519  154.3097 C   0  0  0  0  0  0  0  0  0  0  0  0
  148.9795  134.2026  154.0563 N   0  0  0  0  0  0  0  0  0  0  0  0
  149.3595  135.0747  155.0013 C   0  0  0  0  0  0  0  0  0  0  0  0
  149.3253  134.8265  156.2065 O   0  0  0  0  0  0  0  0  0  0  0  0
  149.7587  136.2391  154.4602 N   0  0  0  0  0  0  0  0  0  0  0  0
  150.2475  137.3982  155.1218 C   0  0  0  0  0  0  0  0  0  0  0  0
  151.2721  138.2316  154.6066 C   0  0  0  0  0  0  0  0  0  0  0  0
  151.6773  139.3669  155.3378 C   0  0  0  0  0  0  0  0  0  0  0  0
  151.0495  139.6616  156.5698 C   0  0  0  0  0  0  0  0  0  0  0  0
  151.3920  140.7611  157.3684 N   0  0  0  0  0  0  0  0  0  0  0  0
  151.5237  140.4246  158.7801 C   0  0  0  0  0  0  0  0  0  0  0  0
  152.0562  141.6254  159.5815 C   0  0  0  0  0  0  0  0  0  0  0  0
  151.2188  142.8219  159.3630 N   0  0  0  0  0  0  0  0  0  0  0  0
  151.4236  144.1549  160.4526 S   0  0  0  0  0  0  0  0  0  0  0  0
  152.4113  143.4287  161.8252 C   0  0  0  0  0  0  0  0  0  0  0  0
  152.2631  145.1582  159.7803 O   0  0  0  0  0  0  0  0  0  0  0  0
  150.0938  144.5284  160.9580 O   0  0  0  0  0  0  0  0  0  0  0  0
  151.0162  143.1321  157.9337 C   0  0  0  0  0  0  0  0  0  0  0  0
  150.5058  141.9000  157.1667 C   0  0  0  0  0  0  0  0  0  0  0  0
  150.0658  138.8512  157.0174 N   0  3  0  0  0  0  0  0  0  0  0  0
  149.6472  137.7553  156.3475 C   0  0  0  0  0  0  0  0  0  0  0  0
  146.5898  133.9273  152.5884 H   0  0  0  0  0  0  0  0  0  0  0  0
  146.4342  132.4443  151.4945 H   0  0  0  0  0  0  0  0  0  0  0  0
  148.0747  131.2583  152.8220 H   0  0  0  0  0  0  0  0  0  0  0  0
  147.7987  132.8819  155.1510 H   0  0  0  0  0  0  0  0  0  0  0  0
  149.3152  132.1989  154.6028 H   0  0  0  0  0  0  0  0  0  0  0  0
  149.0340  134.4905  153.0900 H   0  0  0  0  0  0  0  0  0  0  0  0
  149.6499  136.3231  153.4601 H   0  0  0  0  0  0  0  0  0  0  0  0
  151.7485  138.0314  153.6597 H   0  0  0  0  0  0  0  0  0  0  0  0
  152.4611  140.0010  154.9503 H   0  0  0  0  0  0  0  0  0  0  0  0
  150.5558  140.1185  159.1798 H   0  0  0  0  0  0  0  0  0  0  0  0
  152.1987  139.5755  158.8943 H   0  0  0  0  0  0  0  0  0  0  0  0
  152.0726  141.3708  160.6409 H   0  0  0  0  0  0  0  0  0  0  0  0
  153.0832  141.8536  159.2925 H   0  0  0  0  0  0  0  0  0  0  0  0
  152.6692  144.2139  162.5356 H   0  0  0  0  0  0  0  0  0  0  0  0
  153.3261  142.9921  161.4251 H   0  0  0  0  0  0  0  0  0  0  0  0
  151.8340  142.6622  162.3400 H   0  0  0  0  0  0  0  0  0  0  0  0
  150.3028  143.9480  157.8270 H   0  0  0  0  0  0  0  0  0  0  0  0
  151.9594  143.4790  157.5090 H   0  0  0  0  0  0  0  0  0  0  0  0
  150.4392  142.1294  156.1023 H   0  0  0  0  0  0  0  0  0  0  0  0
  149.4986  141.6488  157.5027 H   0  0  0  0  0  0  0  0  0  0  0  0
  148.8516  137.1949  156.8175 H   0  0  0  0  0  0  0  0  0  0  0  0
  149.6169  139.0772  157.9056 H   0  0  0  0  0  0  0  0  0  0  0  0
  1  2  2  0  0  0  0
  1 24  1  0  0  0  0
  1 25  1  0  0  0  0
  2  3  1  0  0  0  0
  2 26  1  0  0  0  0
  3  4  1  0  0  0  0
  3 27  1  0  0  0  0
  3 28  1  0  0  0  0
  4  5  1  0  0  0  0
  4 29  1  0  0  0  0
  5  6  2  0  0  0  0
  5  7  1  0  0  0  0
  7  8  1  0  0  0  0
  7 30  1  0  0  0  0
  8 23  1  0  0  0  0
  8  9  2  0  0  0  0
  9 10  1  0  0  0  0
  9 31  1  0  0  0  0
 10 11  2  0  0  0  0
 10 32  1  0  0  0  0
 11 12  1  0  0  0  0
 11 22  1  0  0  0  0
 12 21  1  0  0  0  0
 12 13  1  0  0  0  0
 13 14  1  0  0  0  0
 13 33  1  0  0  0  0
 13 34  1  0  0  0  0
 14 15  1  0  0  0  0
 14 35  1  0  0  0  0
 14 36  1  0  0  0  0
 15 16  1  0  0  0  0
 15 20  1  0  0  0  0
 16 17  1  0  0  0  0
 16 18  2  0  0  0  0
 16 19  2  0  0  0  0
 17 37  1  0  0  0  0
 17 38  1  0  0  0  0
 17 39  1  0  0  0  0
 20 21  1  0  0  0  0
 20 40  1  0  0  0  0
 20 41  1  0  0  0  0
 21 42  1  0  0  0  0
 21 43  1  0  0  0  0
 22 23  2  0  0  0  0
 22 45  1  0  0  0  0
 23 44  1  0  0  0  0
M  CHG  1  22   1
M  END
> <s_m_source_file>
AV-unprocessed.smi

> <i_m_source_file_index>
990

> <i_lp_mmshare_version>
43012

> <i_f3d_flags>
0

> <s_epik_input>
W0NIMl09W0NIXVtDSDJdW05IXUMoPU8pW05IXWMxW2NIXVtjSF1jKG5bY0hdMSlOMltDSDJdW0NIMl1OKFMoPU8pKD1PKVtDSDNdKVtDSDJdW0NIMl0y

> <s_epik_cmdline>
J2VwaWtfcHl0aG9uJywgJy1waCcsICc3LjAnLCAnLXRuJywgJzgnLCAnLW1hJywgJzIwMCcsICctbWV0YWxfYmluZGluZycsICctaW1hZScsICc8aW5maWxlLm1hZT4nLCAnLW9tYWUnLCAnPG91dGZpbGUubWFlPic=

> <r_lp_tautomer_probability>
0.999994

> <r_epik_Ionization_Penalty>
0.881759

> <r_epik_Ionization_Penalty_Charging>
0.881739

> <r_epik_Ionization_Penalty_Neutral>
2.00436e-05

> <r_epik_State_Penalty>
0.920006

> <r_epik_Charging_Adjusted_Penalty>
1.80175

> <i_epik_Tot_Q>
1

> <i_epik_Tot_abs_Q>
1

> <r_epik_Metal_State_Penalty>
1.04263

> <b_epik_Metal_Only>
0

> <s_lp_Force_Field>
OPLS_2005

> <r_lp_Energy>
28.5026

> <b_lp_Chiralities_Consistent>
1

> <s_lp_Variant>
AV-unprocessed.smi:990-2

> <Gold.Version>
5.8.1

> <Gold.Id.Protein>
6NUR|6NUR_protein|mol2

> <Gold.PLP.Fitness>
39.5073

> <Gold.PLP.PLP>
-38.4469

> <Gold.PLP.part.hbond>
-3.3693

> <Gold.PLP.part.metal>
0.0000

> <Gold.PLP.part.buried>
-5.2251

> <Gold.PLP.part.nonpolar>
-31.6897

> <Gold.PLP.part.repulsive>
0.5115

> <Gold.PLP.ligand.clash>
0.0000

> <Gold.PLP.ligand.torsion>
1.7114

> <Gold.PLP.Chemscore.Hbond>
1.2555

> <Gold.PLP.Chemscore.CHOScore>
0.0000

> <Gold.PLP.Chemscore.Metal>
0.0000

> <Gold.Chemscore.Hbonds>
donor molecule, donor type, donor heavy atom, donor atom, acceptor molecule, acceptor atom, score
      L1  H     4    29       P1  7948  0.38
      L1  H     7    30       P1  7948  1.00

> <Gold.PLP.Chemscore.Internal.Correction>
0.7165

> <Gold.Rescore>
     Score         DG    S(hbond)    S(metal)    S(lipo)     H(rot)  DE(clash)    DE(int)     intcor
     10.71     -13.65       1.13        0.00      76.39       1.77       0.01       2.94       ----

> <Gold.Chemscore.Fitness>
10.7069

> <Gold.Chemscore.DG>
-13.6539

> <Gold.Chemscore.ZeroCoef>
-5.4800

> <Gold.Chemscore.Hbond>
1.1299

> <Gold.Chemscore.Metal>
0.0000

> <Gold.Chemscore.Lipo>
76.3864

> <Gold.Chemscore.Internal_Hbond>
0.0000

> <Gold.Chemscore.DEClash>
0.0060

> <Gold.Chemscore.DEInternal>
2.9410

> <Gold.Chemscore.Rot>
1.7723

> <Gold.Chemscore.Internal.Correction>
   9.000000E+99

> <Gold.Chemscore.Hbonds>
donor molecule, donor type, donor heavy atom, donor atom, acceptor molecule, acceptor atom, score
      L1  H     4    29       P1  7948  0.02
      L1  H     7    30       P1  7948  0.40

> <Gold.Chemscore.Hbond.Weighted>
-3.7738

> <Gold.Chemscore.Metal.Weighted>
-0.0000

> <Gold.Chemscore.Lipo.Weighted>
-8.9372

> <Gold.Chemscore.Internal_Hbond.Weighted>
0.0000

> <Gold.Chemscore.DEClash.Weighted>
0.0060

> <Gold.Chemscore.DEInternal.Weighted>
2.9410

> <Gold.Chemscore.Rot.Weighted>
4.5371

> <Gold.Chemscore.Internal.Correction.Weighted>
   9.000000E+99

> <Gold.Protein.RotatedTorsions>
[ 6907 6896 6895 6894 ] final  179.85 input  -60.11 | X-H torsion
[ 7974 7965 7964 7962 ] final -167.74 input  175.53 | X-H torsion
[ 8008 7997 7996 7995 ] final  110.07 input   59.86 | X-H torsion
[ 10167 10162 10161 10158 ] final   30.67 input  -65.29 | X-H torsion
[ 10718 10713 10712 10709 ] final   -6.07 input   66.30 | X-H torsion
[ 10763 10752 10751 10750 ] final  -51.99 input  -60.55 | X-H torsion
[ 11005 11000 10999 10996 ] final -129.66 input  -57.11 | X-H torsion

> <Gold.Protein.ActiveResidues>
 VAL166  LYS551  ARG553  GLY616  TRP617  ASP618  TYR619  PRO620  LYS621  CYS622 
 ASP623  PHE694  ASN695  SER759  ASP760  ASP761  ALA762  ILE779  LEU786  VAL792 
 PHE793  MET794  SER795  GLU796  ALA797  LYS798  CYS799  TRP800  GLU811  SER814 

> <Gold.Protein.RotatedAtoms>
  151.6650  133.3315  159.3182 H   0  0  0  0  0  0  0  0  0  0  0  0  # atno 6907 bound_to 6896
  150.7895  134.6911  159.6507 H   0  0  0  0  0  0  0  0  0  0  0  0  # atno 6908 bound_to 6896
  152.3972  134.6350  160.0136 H   0  0  0  0  0  0  0  0  0  0  0  0  # atno 6909 bound_to 6896
  144.7217  140.2473  143.6283 H   0  0  0  0  0  0  0  0  0  0  0  0  # atno 7974 bound_to 7965
  156.2026  140.3046  155.9558 H   0  0  0  0  0  0  0  0  0  0  0  0  # atno 8008 bound_to 7997
  155.2918  140.0442  157.3040 H   0  0  0  0  0  0  0  0  0  0  0  0  # atno 8009 bound_to 7997
  154.5590  140.2314  155.8373 H   0  0  0  0  0  0  0  0  0  0  0  0  # atno 8010 bound_to 7997
  140.4657  144.0839  150.6224 H   0  0  0  0  0  0  0  0  0  0  0  0  # atno 10167 bound_to 10162
  156.7373  130.5198  149.5832 H   0  0  0  0  0  0  0  0  0  0  0  0  # atno 10718 bound_to 10713
  154.1355  135.6513  153.4931 H   0  0  0  0  0  0  0  0  0  0  0  0  # atno 10763 bound_to 10752
  153.0182  135.5303  154.6957 H   0  0  0  0  0  0  0  0  0  0  0  0  # atno 10764 bound_to 10752
  154.6204  135.2964  155.0303 H   0  0  0  0  0  0  0  0  0  0  0  0  # atno 10765 bound_to 10752
  140.9412  134.1190  157.4148 H   0  0  0  0  0  0  0  0  0  0  0  0  # atno 11005 bound_to 11000
  145.8262  139.2065  143.1909 LP  0  0  0  0  0  0  0  0  0  0  0  0  # atno 17320 bound_to 7965
  146.0471  140.8107  142.9800 LP  0  0  0  0  0  0  0  0  0  0  0  0  # atno 17321 bound_to 7965
  140.4039  143.2690  151.9915 LP  0  0  0  0  0  0  0  0  0  0  0  0  # atno 17342 bound_to 10162
  139.4812  144.5974  151.7666 LP  0  0  0  0  0  0  0  0  0  0  0  0  # atno 17343 bound_to 10162
  156.1488  130.6296  151.0568 LP  0  0  0  0  0  0  0  0  0  0  0  0  # atno 17370 bound_to 10713
  157.6834  131.0832  150.7310 LP  0  0  0  0  0  0  0  0  0  0  0  0  # atno 17371 bound_to 10713
  139.8821  135.0037  156.6204 LP  0  0  0  0  0  0  0  0  0  0  0  0  # atno 17394 bound_to 11000
  140.7731  133.8722  155.8507 LP  0  0  0  0  0  0  0  0  0  0  0  0  # atno 17395 bound_to 11000

$$$$
