AV-unprocessed.smi:1011|AV-procd|sdf|4421|dock10
  -GOLD-   22720 2373D 1   1.00000     0.00000
 Structure written by MMmdl.
 44 46  0  0  0  0  0  0  0  0  2 V2000
  144.4344  132.3919  149.5383 C   0  0  0  0  0  0  0  0  0  0  0  0
  144.2259  133.3716  150.6569 C   0  0  0  0  0  0  0  0  0  0  0  0
  143.7073  133.1156  151.9582 C   0  0  0  0  0  0  0  0  0  0  0  0
  143.6476  134.2021  152.7109 N   0  0  0  0  0  0  0  0  0  0  0  0
  144.1273  135.1863  151.9212 N   0  0  0  0  0  0  0  0  0  0  0  0
  144.2005  136.5438  152.4258 C   0  0  0  0  0  0  0  0  0  0  0  0
  145.6293  137.1015  152.3539 C   0  0  0  0  0  0  0  0  0  0  0  0
  145.7085  138.3344  153.1204 N   0  0  0  0  0  0  0  0  0  0  0  0
  146.6468  139.2469  152.4879 C   0  0  0  0  0  0  0  0  0  0  0  0
  147.9194  139.3671  153.2619 C   0  0  0  0  0  0  0  0  0  0  0  0
  148.9161  138.4374  153.2906 N   0  3  0  0  0  0  0  0  0  0  0  0
  149.9584  138.8839  154.1026 C   0  0  0  0  0  0  0  0  0  0  0  0
  151.1729  138.2919  154.4348 C   0  0  0  0  0  0  0  0  0  0  0  0
  152.0225  139.0236  155.2907 C   0  0  0  0  0  0  0  0  0  0  0  0
  153.5463  138.3540  155.7440 Cl  0  0  0  0  0  0  0  0  0  0  0  0
  151.6499  140.2925  155.7810 C   0  0  0  0  0  0  0  0  0  0  0  0
  150.4151  140.8822  155.4386 C   0  0  0  0  0  0  0  0  0  0  0  0
  149.5816  140.1503  154.5934 C   0  0  0  0  0  0  0  0  0  0  0  0
  148.3158  140.4064  154.0540 N   0  0  0  0  0  0  0  0  0  0  0  0
  147.6447  141.6750  154.3803 C   0  0  0  0  0  0  0  0  0  0  0  0
  146.3685  141.4707  155.2132 C   0  0  0  0  0  0  0  0  0  0  0  0
  145.2322  141.9309  154.5116 O   0  0  0  0  0  0  0  0  0  0  0  0
  144.4833  134.7132  150.6761 C   0  0  0  0  0  0  0  0  0  0  0  0
  143.8553  131.4800  149.6859 H   0  0  0  0  0  0  0  0  0  0  0  0
  145.4804  132.0982  149.4514 H   0  0  0  0  0  0  0  0  0  0  0  0
  144.1353  132.8086  148.5764 H   0  0  0  0  0  0  0  0  0  0  0  0
  143.3721  132.1773  152.3749 H   0  0  0  0  0  0  0  0  0  0  0  0
  143.5180  137.1659  151.8447 H   0  0  0  0  0  0  0  0  0  0  0  0
  143.8372  136.5492  153.4547 H   0  0  0  0  0  0  0  0  0  0  0  0
  146.3368  136.3742  152.7546 H   0  0  0  0  0  0  0  0  0  0  0  0
  145.9062  137.2932  151.3162 H   0  0  0  0  0  0  0  0  0  0  0  0
  144.7918  138.7588  153.1280 H   0  0  0  0  0  0  0  0  0  0  0  0
  146.8935  138.8862  151.4883 H   0  0  0  0  0  0  0  0  0  0  0  0
  146.1821  140.2254  152.3692 H   0  0  0  0  0  0  0  0  0  0  0  0
  151.4587  137.3206  154.0582 H   0  0  0  0  0  0  0  0  0  0  0  0
  152.3250  140.8265  156.4338 H   0  0  0  0  0  0  0  0  0  0  0  0
  150.1427  141.8550  155.8197 H   0  0  0  0  0  0  0  0  0  0  0  0
  148.3529  142.3048  154.9187 H   0  0  0  0  0  0  0  0  0  0  0  0
  147.4203  142.2028  153.4530 H   0  0  0  0  0  0  0  0  0  0  0  0
  146.2352  140.4140  155.4463 H   0  0  0  0  0  0  0  0  0  0  0  0
  146.4382  142.0031  156.1621 H   0  0  0  0  0  0  0  0  0  0  0  0
  144.8556  141.2043  154.0387 H   0  0  0  0  0  0  0  0  0  0  0  0
  144.8848  135.3639  149.9128 H   0  0  0  0  0  0  0  0  0  0  0  0
  148.8785  137.5604  152.7868 H   0  0  0  0  0  0  0  0  0  0  0  0
  1  2  1  0  0  0  0
  1 24  1  0  0  0  0
  1 25  1  0  0  0  0
  1 26  1  0  0  0  0
  2 23  2  0  0  0  0
  2  3  1  0  0  0  0
  3  4  2  0  0  0  0
  3 27  1  0  0  0  0
  4  5  1  0  0  0  0
  5  6  1  0  0  0  0
  5 23  1  0  0  0  0
  6  7  1  0  0  0  0
  6 28  1  0  0  0  0
  6 29  1  0  0  0  0
  7  8  1  0  0  0  0
  7 30  1  0  0  0  0
  7 31  1  0  0  0  0
  8  9  1  0  0  0  0
  8 32  1  0  0  0  0
  9 10  1  0  0  0  0
  9 33  1  0  0  0  0
  9 34  1  0  0  0  0
 10 19  1  0  0  0  0
 10 11  2  0  0  0  0
 11 12  1  0  0  0  0
 11 44  1  0  0  0  0
 12 18  2  0  0  0  0
 12 13  1  0  0  0  0
 13 14  2  0  0  0  0
 13 35  1  0  0  0  0
 14 15  1  0  0  0  0
 14 16  1  0  0  0  0
 16 17  2  0  0  0  0
 16 36  1  0  0  0  0
 17 18  1  0  0  0  0
 17 37  1  0  0  0  0
 18 19  1  0  0  0  0
 19 20  1  0  0  0  0
 20 21  1  0  0  0  0
 20 38  1  0  0  0  0
 20 39  1  0  0  0  0
 21 22  1  0  0  0  0
 21 40  1  0  0  0  0
 21 41  1  0  0  0  0
 22 42  1  0  0  0  0
 23 43  1  0  0  0  0
M  CHG  1  11   1
M  END
> <s_m_source_file>
AV-unprocessed.smi

> <i_m_source_file_index>
1011

> <i_lp_mmshare_version>
43012

> <i_f3d_flags>
0

> <s_epik_input>
W0NIM11jMVtjSF1ubihbY0hdMSlbQ0gyXVtDSDJdW05IXVtDSDJdYyhuMiluKFtDSDJdW0NIMl1bT0hdKWMoYzIzKVtjSF1bY0hdYyhDbClbY0hdMw==

> <s_epik_cmdline>
J2VwaWtfcHl0aG9uJywgJy1waCcsICc3LjAnLCAnLXRuJywgJzgnLCAnLW1hJywgJzIwMCcsICctbWV0YWxfYmluZGluZycsICctaW1hZScsICc8aW5maWxlLm1hZT4nLCAnLW9tYWUnLCAnPG91dGZpbGUubWFlPic=

> <r_epik_Ionization_Penalty>
1.62414

> <r_epik_Ionization_Penalty_Charging>
1.50824

> <r_epik_Ionization_Penalty_Neutral>
0.115896

> <r_epik_State_Penalty>
2.25317

> <r_epik_Charging_Adjusted_Penalty>
3.76141

> <i_epik_Tot_Q>
1

> <i_epik_Tot_abs_Q>
1

> <r_epik_Metal_State_Penalty>
2.26539

> <b_epik_Metal_Only>
0

> <s_lp_Force_Field>
OPLS_2005

> <r_lp_Energy>
12.3838

> <b_lp_Chiralities_Consistent>
1

> <s_lp_Variant>
AV-unprocessed.smi:1011-3

> <Gold.Version>
5.8.1

> <Gold.Id.Protein>
6NUR|6NUR_protein|mol2

> <Gold.PLP.Fitness>
60.8736

> <Gold.PLP.PLP>
-47.8306

> <Gold.PLP.part.hbond>
-4.0000

> <Gold.PLP.part.metal>
0.0000

> <Gold.PLP.part.buried>
1.1963

> <Gold.PLP.part.nonpolar>
-46.1066

> <Gold.PLP.part.repulsive>
0.2172

> <Gold.PLP.ligand.clash>
0.0000

> <Gold.PLP.ligand.torsion>
1.2183

> <Gold.PLP.Chemscore.Hbond>
4.0000

> <Gold.PLP.Chemscore.CHOScore>
1.1400

> <Gold.PLP.Chemscore.Metal>
0.0000

> <Gold.Chemscore.Hbonds>
donor molecule, donor type, donor heavy atom, donor atom, acceptor molecule, acceptor atom, score
      L1  H     8    32       P1 10175  0.64
      L1  H    11    44       P1  7948  2.00
      L1  H    22    42       P1 10175  0.89
      L1  C     3    27       P1 10957  0.10
      L1  C    23    43       P1  7921  0.70

> <Gold.PLP.Chemscore.Internal.Correction>
0.0596

> <Gold.Rescore>
     Score         DG    S(hbond)    S(metal)    S(lipo)     H(rot)  DE(clash)    DE(int)     intcor
     16.64     -19.55       2.56        0.00     111.35       2.93       1.71       1.20       ----

> <Gold.Chemscore.Fitness>
16.6398

> <Gold.Chemscore.DG>
-19.5488

> <Gold.Chemscore.ZeroCoef>
-5.4800

> <Gold.Chemscore.Hbond>
2.5603

> <Gold.Chemscore.Metal>
0.0000

> <Gold.Chemscore.Lipo>
111.3531

> <Gold.Chemscore.Internal_Hbond>
0.0000

> <Gold.Chemscore.DEClash>
1.7056

> <Gold.Chemscore.DEInternal>
1.2034

> <Gold.Chemscore.Rot>
2.9340

> <Gold.Chemscore.Internal.Correction>
   9.000000E+99

> <Gold.Chemscore.Hbonds>
donor molecule, donor type, donor heavy atom, donor atom, acceptor molecule, acceptor atom, score
      L1  H     8    32       P1 10175  0.63
      L1  H    11    44       P1  7948  0.98
      L1  H    22    42       P1 10175  0.53

> <Gold.Chemscore.Hbond.Weighted>
-8.5515

> <Gold.Chemscore.Metal.Weighted>
-0.0000

> <Gold.Chemscore.Lipo.Weighted>
-13.0283

> <Gold.Chemscore.Internal_Hbond.Weighted>
0.0000

> <Gold.Chemscore.DEClash.Weighted>
1.7056

> <Gold.Chemscore.DEInternal.Weighted>
1.2034

> <Gold.Chemscore.Rot.Weighted>
7.5111

> <Gold.Chemscore.Internal.Correction.Weighted>
   9.000000E+99

> <Gold.Protein.RotatedTorsions>
[ 6907 6896 6895 6894 ] final   21.63 input  -60.11 | X-H torsion
[ 7974 7965 7964 7962 ] final -168.22 input  175.53 | X-H torsion
[ 8008 7997 7996 7995 ] final  -24.67 input   59.86 | X-H torsion
[ 10167 10162 10161 10158 ] final -114.56 input  -65.29 | X-H torsion
[ 10718 10713 10712 10709 ] final   43.43 input   66.30 | X-H torsion
[ 10763 10752 10751 10750 ] final  -73.91 input  -60.55 | X-H torsion
[ 11005 11000 10999 10996 ] final  -48.84 input  -57.11 | X-H torsion

> <Gold.Protein.ActiveResidues>
 VAL166  LYS551  ARG553  GLY616  TRP617  ASP618  TYR619  PRO620  LYS621  CYS622 
 ASP623  PHE694  ASN695  SER759  ASP760  ASP761  ALA762  ILE779  LEU786  VAL792 
 PHE793  MET794  SER795  GLU796  ALA797  LYS798  CYS799  TRP800  GLU811  SER814 

> <Gold.Protein.RotatedAtoms>
  151.9147  135.0324  160.0517 H   0  0  0  0  0  0  0  0  0  0  0  0  # atno 6907 bound_to 6896
  152.2250  133.5008  159.5192 H   0  0  0  0  0  0  0  0  0  0  0  0  # atno 6908 bound_to 6896
  150.7010  134.1209  159.4077 H   0  0  0  0  0  0  0  0  0  0  0  0  # atno 6909 bound_to 6896
  144.7207  140.2403  143.6292 H   0  0  0  0  0  0  0  0  0  0  0  0  # atno 7974 bound_to 7965
  154.4517  140.1947  156.0500 H   0  0  0  0  0  0  0  0  0  0  0  0  # atno 8008 bound_to 7997
  156.0661  140.3290  155.7492 H   0  0  0  0  0  0  0  0  0  0  0  0  # atno 8009 bound_to 7997
  155.5336  140.0580  157.2875 H   0  0  0  0  0  0  0  0  0  0  0  0  # atno 8010 bound_to 7997
  140.0997  143.4624  152.1820 H   0  0  0  0  0  0  0  0  0  0  0  0  # atno 10167 bound_to 10162
  157.4158  130.7940  149.7470 H   0  0  0  0  0  0  0  0  0  0  0  0  # atno 10718 bound_to 10713
  154.4659  135.5882  153.6288 H   0  0  0  0  0  0  0  0  0  0  0  0  # atno 10763 bound_to 10752
  152.9828  135.6055  154.3428 H   0  0  0  0  0  0  0  0  0  0  0  0  # atno 10764 bound_to 10752
  154.3304  135.2842  155.2453 H   0  0  0  0  0  0  0  0  0  0  0  0  # atno 10765 bound_to 10752
  141.0724  133.6675  156.3499 H   0  0  0  0  0  0  0  0  0  0  0  0  # atno 11005 bound_to 11000
  145.8326  139.2093  143.1874 LP  0  0  0  0  0  0  0  0  0  0  0  0  # atno 17320 bound_to 7965
  146.0417  140.8158  142.9825 LP  0  0  0  0  0  0  0  0  0  0  0  0  # atno 17321 bound_to 7965
  139.5678  144.7445  151.3973 LP  0  0  0  0  0  0  0  0  0  0  0  0  # atno 17342 bound_to 10162
  140.6984  143.7691  150.7364 LP  0  0  0  0  0  0  0  0  0  0  0  0  # atno 17343 bound_to 10162
  155.9864  130.3974  150.3212 LP  0  0  0  0  0  0  0  0  0  0  0  0  # atno 17370 bound_to 10713
  157.1355  131.0283  151.2951 LP  0  0  0  0  0  0  0  0  0  0  0  0  # atno 17371 bound_to 10713
  140.5645  134.5902  157.5442 LP  0  0  0  0  0  0  0  0  0  0  0  0  # atno 17394 bound_to 11000
  139.9537  134.7572  156.0390 LP  0  0  0  0  0  0  0  0  0  0  0  0  # atno 17395 bound_to 11000

$$$$
