AV-unprocessed.smi:3314|AV-procd|sdf|12740|dock3
  -GOLD-   2272019 83D 1   1.00000     0.00000
 Structure written by MMmdl.
 38 39  0  0  0  0  0  0  0  0  2 V2000
  151.8377  145.7255  159.8876 C   0  0  0  0  0  0  0  0  0  0  0  0
  151.8653  144.3126  159.3415 C   0  0  0  0  0  0  0  0  0  0  0  0
  152.5914  143.2674  160.0427 C   0  0  0  0  0  0  0  0  0  0  0  0
  152.6028  142.0203  159.5421 C   0  0  0  0  0  0  0  0  0  0  0  0
  153.3272  140.8598  160.1912 C   0  0  0  0  0  0  0  0  0  0  0  0
  151.9295  141.7180  158.3652 N   0  0  0  0  0  0  0  0  0  0  0  0
  151.2060  142.6720  157.6280 C   0  0  0  0  0  0  0  0  0  0  0  0
  150.5605  142.4412  156.5217 N   0  0  0  0  0  0  0  0  0  0  0  0
  150.5064  141.1811  155.9320 C   0  0  0  0  0  0  0  0  0  0  0  0
  151.1362  140.1574  156.2133 O   0  0  0  0  0  0  0  0  0  0  0  0
  149.5055  141.1354  154.7712 C   0  0  1  0  0  0  0  0  0  0  0  0
  149.0737  139.6845  154.4687 C   0  0  0  0  0  0  0  0  0  0  0  0
  148.0344  139.6629  153.4139 N   0  3  1  0  0  0  0  0  0  0  0  0
  147.6127  138.2917  153.0565 C   0  0  0  0  0  0  0  0  0  0  0  0
  146.8950  140.5360  153.7758 C   0  0  0  0  0  0  0  0  0  0  0  0
  147.3921  141.9560  154.0907 C   0  0  0  0  0  0  0  0  0  0  0  0
  148.3581  141.9003  155.1329 O   0  0  0  0  0  0  0  0  0  0  0  0
  151.2126  144.0126  158.1938 C   0  0  0  0  0  0  0  0  0  0  0  0
  152.4111  145.8030  160.8118 H   0  0  0  0  0  0  0  0  0  0  0  0
  150.8122  146.0313  160.0967 H   0  0  0  0  0  0  0  0  0  0  0  0
  152.2641  146.4203  159.1635 H   0  0  0  0  0  0  0  0  0  0  0  0
  153.1177  143.4918  160.9590 H   0  0  0  0  0  0  0  0  0  0  0  0
  153.8190  141.1679  161.1144 H   0  0  0  0  0  0  0  0  0  0  0  0
  154.0868  140.4623  159.5176 H   0  0  0  0  0  0  0  0  0  0  0  0
  152.6261  140.0596  160.4301 H   0  0  0  0  0  0  0  0  0  0  0  0
  149.9598  141.5827  153.8841 H   0  0  0  0  0  0  0  0  0  0  0  0
  149.9335  139.0983  154.1400 H   0  0  0  0  0  0  0  0  0  0  0  0
  148.6851  139.2055  155.3698 H   0  0  0  0  0  0  0  0  0  0  0  0
  147.1502  137.7892  153.9071 H   0  0  0  0  0  0  0  0  0  0  0  0
  148.4690  137.6989  152.7331 H   0  0  0  0  0  0  0  0  0  0  0  0
  146.8927  138.3115  152.2377 H   0  0  0  0  0  0  0  0  0  0  0  0
  146.1778  140.5668  152.9547 H   0  0  0  0  0  0  0  0  0  0  0  0
  146.3752  140.1225  154.6417 H   0  0  0  0  0  0  0  0  0  0  0  0
  147.8210  142.4262  153.2044 H   0  0  0  0  0  0  0  0  0  0  0  0
  146.5604  142.5828  154.4129 H   0  0  0  0  0  0  0  0  0  0  0  0
  150.6838  144.8159  157.7005 H   0  0  0  0  0  0  0  0  0  0  0  0
  151.9856  140.7577  158.0574 H   0  0  0  0  0  0  0  0  0  0  0  0
  148.4538  140.0621  152.5862 H   0  0  0  0  0  0  0  0  0  0  0  0
  1  2  1  0  0  0  0
  1 19  1  0  0  0  0
  1 20  1  0  0  0  0
  1 21  1  0  0  0  0
  2 18  2  0  0  0  0
  2  3  1  0  0  0  0
  3  4  2  0  0  0  0
  3 22  1  0  0  0  0
  4  5  1  0  0  0  0
  4  6  1  0  0  0  0
  5 23  1  0  0  0  0
  5 24  1  0  0  0  0
  5 25  1  0  0  0  0
  6  7  1  0  0  0  0
  6 37  1  0  0  0  0
  7  8  2  0  0  0  0
  7 18  1  0  0  0  0
  8  9  1  0  0  0  0
  9 10  2  0  0  0  0
  9 11  1  0  0  0  0
 11 17  1  0  0  0  0
 11 12  1  0  0  0  0
 11 26  1  0  0  0  0
 12 13  1  0  0  0  0
 12 27  1  0  0  0  0
 12 28  1  0  0  0  0
 13 14  1  0  0  0  0
 13 15  1  0  0  0  0
 13 38  1  0  0  0  0
 14 29  1  0  0  0  0
 14 30  1  0  0  0  0
 14 31  1  0  0  0  0
 15 16  1  0  0  0  0
 15 32  1  0  0  0  0
 15 33  1  0  0  0  0
 16 17  1  0  0  0  0
 16 34  1  0  0  0  0
 16 35  1  0  0  0  0
 18 36  1  0  0  0  0
M  CHG  1  13   1
M  END
> <s_m_source_file>
AV-unprocessed.smi

> <i_m_source_file_index>
3314

> <i_lp_mmshare_version>
43012

> <i_f3d_flags>
0

> <s_epik_input>
W0NIM11jMVtjSF1jKFtDSDNdKW5jKFtjSF0xKVtOSF1DKD1PKVtDQEBIXTJbQ0gyXU4oW0NIM10pW0NIMl1bQ0gyXU8y

> <s_epik_cmdline>
J2VwaWtfcHl0aG9uJywgJy1waCcsICc3LjAnLCAnLXRuJywgJzgnLCAnLW1hJywgJzIwMCcsICctbWV0YWxfYmluZGluZycsICctaW1hZScsICc8aW5maWxlLm1hZT4nLCAnLW9tYWUnLCAnPG91dGZpbGUubWFlPic=

> <r_epik_Ionization_Penalty>
0.519783

> <r_epik_Ionization_Penalty_Charging>
0.519783

> <r_epik_Ionization_Penalty_Neutral>
1.74183e-13

> <r_epik_State_Penalty>
2.39351

> <r_epik_Charging_Adjusted_Penalty>
2.91329

> <i_epik_Tot_Q>
1

> <i_epik_Tot_abs_Q>
1

> <r_epik_Metal_State_Penalty>
2.41924

> <b_epik_Metal_Only>
0

> <s_lp_Force_Field>
OPLS_2005

> <r_lp_Energy>
34.3137

> <b_lp_Chiralities_Consistent>
1

> <s_lp_Variant>
AV-unprocessed.smi:3314-10

> <Gold.Version>
5.8.1

> <Gold.Id.Protein>
6NUR|6NUR_protein|mol2

> <Gold.PLP.Fitness>
40.4122

> <Gold.PLP.PLP>
-38.6242

> <Gold.PLP.part.hbond>
-1.0000

> <Gold.PLP.part.metal>
0.0000

> <Gold.PLP.part.buried>
-2.5783

> <Gold.PLP.part.nonpolar>
-38.3289

> <Gold.PLP.part.repulsive>
3.4290

> <Gold.PLP.ligand.clash>
0.0000

> <Gold.PLP.ligand.torsion>
0.6061

> <Gold.PLP.Chemscore.Hbond>
1.0000

> <Gold.PLP.Chemscore.CHOScore>
0.0000

> <Gold.PLP.Chemscore.Metal>
0.0000

> <Gold.Chemscore.Hbonds>
donor molecule, donor type, donor heavy atom, donor atom, acceptor molecule, acceptor atom, score
      L1  H    13    38       P1  7957  1.00

> <Gold.PLP.Chemscore.Internal.Correction>
0.0002

> <Gold.Rescore>
     Score         DG    S(hbond)    S(metal)    S(lipo)     H(rot)  DE(clash)    DE(int)     intcor
     14.21     -17.98       0.99        0.00     100.41       1.00       1.69       2.08       ----

> <Gold.Chemscore.Fitness>
14.2089

> <Gold.Chemscore.DG>
-17.9800

> <Gold.Chemscore.ZeroCoef>
-5.4800

> <Gold.Chemscore.Hbond>
0.9914

> <Gold.Chemscore.Metal>
0.0000

> <Gold.Chemscore.Lipo>
100.4148

> <Gold.Chemscore.Internal_Hbond>
0.0000

> <Gold.Chemscore.DEClash>
1.6877

> <Gold.Chemscore.DEInternal>
2.0834

> <Gold.Chemscore.Rot>
1.0000

> <Gold.Chemscore.Internal.Correction>
   9.000000E+99

> <Gold.Chemscore.Hbonds>
donor molecule, donor type, donor heavy atom, donor atom, acceptor molecule, acceptor atom, score
      L1  H    13    38       P1  7957  0.98

> <Gold.Chemscore.Hbond.Weighted>
-3.3114

> <Gold.Chemscore.Metal.Weighted>
-0.0000

> <Gold.Chemscore.Lipo.Weighted>
-11.7485

> <Gold.Chemscore.Internal_Hbond.Weighted>
0.0000

> <Gold.Chemscore.DEClash.Weighted>
1.6877

> <Gold.Chemscore.DEInternal.Weighted>
2.0834

> <Gold.Chemscore.Rot.Weighted>
2.5600

> <Gold.Chemscore.Internal.Correction.Weighted>
   9.000000E+99

> <Gold.Protein.RotatedTorsions>
[ 6907 6896 6895 6894 ] final   20.50 input  -60.11 | X-H torsion
[ 7974 7965 7964 7962 ] final  -47.71 input  175.53 | X-H torsion
[ 8008 7997 7996 7995 ] final   11.11 input   59.86 | X-H torsion
[ 10167 10162 10161 10158 ] final  -27.70 input  -65.29 | X-H torsion
[ 10718 10713 10712 10709 ] final   96.53 input   66.30 | X-H torsion
[ 10763 10752 10751 10750 ] final   44.05 input  -60.55 | X-H torsion
[ 11005 11000 10999 10996 ] final  148.79 input  -57.11 | X-H torsion

> <Gold.Protein.ActiveResidues>
 VAL166  LYS551  ARG553  GLY616  TRP617  ASP618  TYR619  PRO620  LYS621  CYS622 
 ASP623  PHE694  ASN695  SER759  ASP760  ASP761  ALA762  ILE779  LEU786  VAL792 
 PHE793  MET794  SER795  GLU796  ALA797  LYS798  CYS799  TRP800  GLU811  SER814 

> <Gold.Protein.RotatedAtoms>
  151.8974  135.0392  160.0503 H   0  0  0  0  0  0  0  0  0  0  0  0  # atno 6907 bound_to 6896
  152.2386  133.5112  159.5265 H   0  0  0  0  0  0  0  0  0  0  0  0  # atno 6908 bound_to 6896
  150.7047  134.1035  159.4017 H   0  0  0  0  0  0  0  0  0  0  0  0  # atno 6909 bound_to 6896
  145.9588  140.7500  142.9468 H   0  0  0  0  0  0  0  0  0  0  0  0  # atno 7974 bound_to 7965
  154.8025  140.2854  155.5911 H   0  0  0  0  0  0  0  0  0  0  0  0  # atno 8008 bound_to 7997
  156.2979  140.2583  156.2826 H   0  0  0  0  0  0  0  0  0  0  0  0  # atno 8009 bound_to 7997
  154.9541  140.0379  157.2148 H   0  0  0  0  0  0  0  0  0  0  0  0  # atno 8010 bound_to 7997
  140.7275  143.4071  151.1166 H   0  0  0  0  0  0  0  0  0  0  0  0  # atno 10167 bound_to 10162
  157.6925  131.0581  150.4505 H   0  0  0  0  0  0  0  0  0  0  0  0  # atno 10718 bound_to 10713
  152.9848  135.6082  154.3211 H   0  0  0  0  0  0  0  0  0  0  0  0  # atno 10763 bound_to 10752
  154.2921  135.2774  155.2652 H   0  0  0  0  0  0  0  0  0  0  0  0  # atno 10764 bound_to 10752
  154.4943  135.5884  153.6539 H   0  0  0  0  0  0  0  0  0  0  0  0  # atno 10765 bound_to 10752
  140.0990  134.8995  157.1767 H   0  0  0  0  0  0  0  0  0  0  0  0  # atno 11005 bound_to 11000
  144.6810  140.2556  143.7326 LP  0  0  0  0  0  0  0  0  0  0  0  0  # atno 17320 bound_to 7965
  145.8069  139.1987  143.2015 LP  0  0  0  0  0  0  0  0  0  0  0  0  # atno 17321 bound_to 7965
  139.7700  143.8509  152.3118 LP  0  0  0  0  0  0  0  0  0  0  0  0  # atno 17342 bound_to 10162
  139.8424  144.7203  150.9315 LP  0  0  0  0  0  0  0  0  0  0  0  0  # atno 17343 bound_to 10162
  156.4857  130.4084  149.6435 LP  0  0  0  0  0  0  0  0  0  0  0  0  # atno 17370 bound_to 10713
  156.3465  130.7409  151.2362 LP  0  0  0  0  0  0  0  0  0  0  0  0  # atno 17371 bound_to 10713
  140.3246  134.2878  155.7239 LP  0  0  0  0  0  0  0  0  0  0  0  0  # atno 17394 bound_to 11000
  141.2100  133.7732  156.9959 LP  0  0  0  0  0  0  0  0  0  0  0  0  # atno 17395 bound_to 11000

$$$$
