AV-unprocessed.smi:72|AV-procd|sdf|696|dock9
  -GOLD-   2262017 13D 1   1.00000     0.00000
 Structure written by MMmdl.
 30 31  0  0  0  0  0  0  0  0  2 V2000
  152.0879  144.6354  158.2951 N   0  0  0  0  0  0  0  0  0  0  0  0
  151.6804  143.3681  157.9342 C   0  0  0  0  0  0  0  0  0  0  0  0
  150.6163  143.2598  157.0567 N   0  3  0  0  0  0  0  0  0  0  0  0
  150.0984  142.1067  156.6121 C   0  0  0  0  0  0  0  0  0  0  0  0
  150.6198  140.9697  157.0257 N   0  0  0  0  0  0  0  0  0  0  0  0
  150.0927  139.6384  156.5489 C   0  0  1  0  0  0  0  0  0  0  0  0
  148.8847  139.8557  155.8819 O   0  0  0  0  0  0  0  0  0  0  0  0
  149.0448  139.6372  154.4820 C   0  0  2  0  0  0  0  0  0  0  0  0
  147.6942  139.2519  153.8603 C   0  0  0  0  0  0  0  0  0  0  0  0
  147.8948  138.7318  152.5635 O   0  0  0  0  0  0  0  0  0  0  0  0
  150.0783  138.5122  154.4593 C   0  0  1  0  0  0  0  0  0  0  0  0
  150.6991  138.3462  153.1982 O   0  0  0  0  0  0  0  0  0  0  0  0
  151.0473  138.9363  155.5572 C   0  0  1  0  0  0  0  0  0  0  0  0
  152.0704  139.7886  155.0616 O   0  0  0  0  0  0  0  0  0  0  0  0
  151.7238  140.9794  157.9160 C   0  0  0  0  0  0  0  0  0  0  0  0
  152.2334  139.9228  158.2880 O   0  0  0  0  0  0  0  0  0  0  0  0
  152.1913  142.2351  158.3302 N   0  0  0  0  0  0  0  0  0  0  0  0
  149.8789  139.0522  157.4441 H   0  0  0  0  0  0  0  0  0  0  0  0
  149.4614  140.5252  154.0030 H   0  0  0  0  0  0  0  0  0  0  0  0
  149.5998  137.5736  154.7443 H   0  0  0  0  0  0  0  0  0  0  0  0
  151.5126  138.0756  156.0390 H   0  0  0  0  0  0  0  0  0  0  0  0
  152.8554  144.8092  158.9288 H   0  0  0  0  0  0  0  0  0  0  0  0
  151.6609  145.4845  157.9536 H   0  0  0  0  0  0  0  0  0  0  0  0
  149.2654  142.1319  155.9230 H   0  0  0  0  0  0  0  0  0  0  0  0
  147.2145  138.4739  154.4548 H   0  0  0  0  0  0  0  0  0  0  0  0
  147.0129  140.1026  153.8287 H   0  0  0  0  0  0  0  0  0  0  0  0
  148.7059  139.0781  152.2232 H   0  0  0  0  0  0  0  0  0  0  0  0
  150.3399  138.9830  152.5992 H   0  0  0  0  0  0  0  0  0  0  0  0
  152.9082  139.4147  155.2906 H   0  0  0  0  0  0  0  0  0  0  0  0
  150.2002  144.1185  156.7258 H   0  0  0  0  0  0  0  0  0  0  0  0
  1  2  1  0  0  0  0
  1 22  1  0  0  0  0
  1 23  1  0  0  0  0
  2 17  2  0  0  0  0
  2  3  1  0  0  0  0
  3  4  2  0  0  0  0
  3 30  1  0  0  0  0
  4  5  1  0  0  0  0
  4 24  1  0  0  0  0
  5  6  1  0  0  0  0
  5 15  1  0  0  0  0
  6 18  1  0  0  0  0
  6 13  1  0  0  0  0
  6  7  1  0  0  0  0
  7  8  1  0  0  0  0
  8 19  1  0  0  0  0
  8  9  1  0  0  0  0
  8 11  1  0  0  0  0
  9 10  1  0  0  0  0
  9 25  1  0  0  0  0
  9 26  1  0  0  0  0
 10 27  1  0  0  0  0
 11 20  1  0  0  0  0
 11 12  1  0  0  0  0
 11 13  1  0  0  0  0
 12 28  1  0  0  0  0
 13 21  1  0  0  0  0
 13 14  1  0  0  0  0
 14 29  1  0  0  0  0
 15 16  2  0  0  0  0
 15 17  1  0  0  0  0
M  CHG  1   3   1
M  END
> <s_m_source_file>
AV-unprocessed.smi

> <i_m_source_file_index>
72

> <i_lp_mmshare_version>
43012

> <i_f3d_flags>
0

> <s_epik_input>
W05IMl1jMW5bY0hdbihjKD1PKW4xKVtDQEBIXTJPW0NASF0oW0NIMl1bT0hdKVtDQEBIXShbT0hdKVtDQEhdMltPSF0=

> <s_epik_cmdline>
J2VwaWtfcHl0aG9uJywgJy1waCcsICc3LjAnLCAnLXRuJywgJzgnLCAnLW1hJywgJzIwMCcsICctbWV0YWxfYmluZGluZycsICctaW1hZScsICc8aW5maWxlLm1hZT4nLCAnLW9tYWUnLCAnPG91dGZpbGUubWFlPic=

> <r_lp_tautomer_probability>
4.77166e-05

> <r_epik_Ionization_Penalty>
0.104979

> <r_epik_Ionization_Penalty_Charging>
0.0999619

> <r_epik_Ionization_Penalty_Neutral>
0.00501745

> <r_epik_State_Penalty>
2.51541

> <r_epik_Charging_Adjusted_Penalty>
2.61537

> <i_epik_Tot_Q>
1

> <i_epik_Tot_abs_Q>
1

> <r_epik_Metal_State_Penalty>
3.53763

> <b_epik_Metal_Only>
0

> <s_epik_Chemistry_Notes>
This compound contains an acetal/aminal-like group ( X-CH(R)-Y where X, Y are N, S, or O) that may be acid/base labile, releasing an aldehyde.

> <s_lp_Force_Field>
OPLS_2005

> <r_lp_Energy>
36.6563

> <b_lp_Chiralities_Consistent>
1

> <s_lp_Variant>
AV-unprocessed.smi:72-34

> <Gold.Version>
5.8.1

> <Gold.Id.Protein>
6NUR|6NUR_protein|mol2

> <Gold.PLP.Fitness>
37.7952

> <Gold.PLP.PLP>
-23.5417

> <Gold.PLP.part.hbond>
-7.0000

> <Gold.PLP.part.metal>
0.0000

> <Gold.PLP.part.buried>
-0.2442

> <Gold.PLP.part.nonpolar>
-15.5152

> <Gold.PLP.part.repulsive>
0.0819

> <Gold.PLP.ligand.clash>
0.0000

> <Gold.PLP.ligand.torsion>
0.2950

> <Gold.PLP.Chemscore.Hbond>
4.5760

> <Gold.PLP.Chemscore.CHOScore>
0.3328

> <Gold.PLP.Chemscore.Metal>
0.0000

> <Gold.Chemscore.Hbonds>
donor molecule, donor type, donor heavy atom, donor atom, acceptor molecule, acceptor atom, score
      L1  H     3    30       P1  8028  1.73
      L1  H    10    27       P1  7957  1.00
      L1  H    12    28       P1  7957  1.00
      P1  H  7989  7998       L1    14  0.85
      L1  C     4    24       P1  8028  0.33

> <Gold.PLP.Chemscore.Internal.Correction>
0.1170

> <Gold.Rescore>
     Score         DG    S(hbond)    S(metal)    S(lipo)     H(rot)  DE(clash)    DE(int)     intcor
      7.99      -9.21       3.45        0.00      22.77       4.08       0.91       0.31       ----

> <Gold.Chemscore.Fitness>
7.9935

> <Gold.Chemscore.DG>
-9.2134

> <Gold.Chemscore.ZeroCoef>
-5.4800

> <Gold.Chemscore.Hbond>
3.4459

> <Gold.Chemscore.Metal>
0.0000

> <Gold.Chemscore.Lipo>
22.7737

> <Gold.Chemscore.Internal_Hbond>
0.0000

> <Gold.Chemscore.DEClash>
0.9104

> <Gold.Chemscore.DEInternal>
0.3095

> <Gold.Chemscore.Rot>
4.0783

> <Gold.Chemscore.Internal.Correction>
   9.000000E+99

> <Gold.Chemscore.Hbonds>
donor molecule, donor type, donor heavy atom, donor atom, acceptor molecule, acceptor atom, score
      L1  H     3    30       P1  8028  0.84
      L1  H    10    27       P1  7957  0.95
      L1  H    12    28       P1  7957  0.35
      P1  H  7989  7998       L1    14  0.81

> <Gold.Chemscore.Hbond.Weighted>
-11.5093

> <Gold.Chemscore.Metal.Weighted>
-0.0000

> <Gold.Chemscore.Lipo.Weighted>
-2.6645

> <Gold.Chemscore.Internal_Hbond.Weighted>
0.0000

> <Gold.Chemscore.DEClash.Weighted>
0.9104

> <Gold.Chemscore.DEInternal.Weighted>
0.3095

> <Gold.Chemscore.Rot.Weighted>
10.4404

> <Gold.Chemscore.Internal.Correction.Weighted>
   9.000000E+99

> <Gold.Protein.RotatedTorsions>
[ 6907 6896 6895 6894 ] final  -80.00 input  -60.11 | X-H torsion
[ 7974 7965 7964 7962 ] final  123.51 input  175.53 | X-H torsion
[ 8008 7997 7996 7995 ] final  -39.77 input   59.86 | X-H torsion
[ 10167 10162 10161 10158 ] final  -19.46 input  -65.29 | X-H torsion
[ 10718 10713 10712 10709 ] final  159.70 input   66.30 | X-H torsion
[ 10763 10752 10751 10750 ] final  -22.12 input  -60.55 | X-H torsion
[ 11005 11000 10999 10996 ] final   -3.31 input  -57.11 | X-H torsion

> <Gold.Protein.ActiveResidues>
 VAL166  LYS551  ARG553  GLY616  TRP617  ASP618  TYR619  PRO620  LYS621  CYS622 
 ASP623  PHE694  ASN695  SER759  ASP760  ASP761  ALA762  ILE779  LEU786  VAL792 
 PHE793  MET794  SER795  GLU796  ALA797  LYS798  CYS799  TRP800  GLU811  SER814 

> <Gold.Protein.RotatedAtoms>
  150.6938  134.4036  159.5129 H   0  0  0  0  0  0  0  0  0  0  0  0  # atno 6907 bound_to 6896
  152.1806  134.8755  160.0536 H   0  0  0  0  0  0  0  0  0  0  0  0  # atno 6908 bound_to 6896
  151.9747  133.3702  159.4121 H   0  0  0  0  0  0  0  0  0  0  0  0  # atno 6909 bound_to 6896
  145.0951  139.3559  143.4841 H   0  0  0  0  0  0  0  0  0  0  0  0  # atno 7974 bound_to 7965
  154.4019  140.1543  156.2917 H   0  0  0  0  0  0  0  0  0  0  0  0  # atno 8008 bound_to 7997
  155.8779  140.3445  155.5845 H   0  0  0  0  0  0  0  0  0  0  0  0  # atno 8009 bound_to 7997
  155.7700  140.0829  157.2103 H   0  0  0  0  0  0  0  0  0  0  0  0  # atno 8010 bound_to 7997
  140.7268  143.4817  151.0109 H   0  0  0  0  0  0  0  0  0  0  0  0  # atno 10167 bound_to 10162
  157.1606  131.0586  151.2234 H   0  0  0  0  0  0  0  0  0  0  0  0  # atno 10718 bound_to 10713
  153.6469  135.6982  153.5222 H   0  0  0  0  0  0  0  0  0  0  0  0  # atno 10763 bound_to 10752
  153.2738  135.4207  155.1012 H   0  0  0  0  0  0  0  0  0  0  0  0  # atno 10764 bound_to 10752
  154.8486  135.3585  154.6013 H   0  0  0  0  0  0  0  0  0  0  0  0  # atno 10765 bound_to 10752
  140.6679  133.9262  155.8476 H   0  0  0  0  0  0  0  0  0  0  0  0  # atno 11005 bound_to 11000
  146.3531  140.0803  142.8618 LP  0  0  0  0  0  0  0  0  0  0  0  0  # atno 17320 bound_to 7965
  145.1021  140.9352  143.4707 LP  0  0  0  0  0  0  0  0  0  0  0  0  # atno 17321 bound_to 7965
  139.8516  143.7431  152.3178 LP  0  0  0  0  0  0  0  0  0  0  0  0  # atno 17342 bound_to 10162
  139.7615  144.7505  151.0356 LP  0  0  0  0  0  0  0  0  0  0  0  0  # atno 17343 bound_to 10162
  157.4136  130.7399  149.6858 LP  0  0  0  0  0  0  0  0  0  0  0  0  # atno 17370 bound_to 10713
  155.9754  130.4089  150.3849 LP  0  0  0  0  0  0  0  0  0  0  0  0  # atno 17371 bound_to 10713
  141.0415  134.0615  157.3896 LP  0  0  0  0  0  0  0  0  0  0  0  0  # atno 17394 bound_to 11000
  139.8991  135.0157  156.7180 LP  0  0  0  0  0  0  0  0  0  0  0  0  # atno 17395 bound_to 11000

$$$$
