AV-unprocessed.smi:2147|AV-procd|sdf|8744|dock6
  -GOLD-   2272011523D 1   1.00000     0.00000
 Structure written by MMmdl.
 42 44  0  0  0  0  0  0  0  0  2 V2000
  152.1895  130.6118  155.5490 C   0  0  0  0  0  0  0  0  0  0  0  0
  150.8207  131.2903  155.5416 C   0  0  0  0  0  0  0  0  0  0  0  0
  149.8120  130.5860  155.5043 O   0  0  0  0  0  0  0  0  0  0  0  0
  150.7828  132.7800  155.5811 C   0  0  0  0  0  0  0  0  0  0  0  0
  151.8373  133.5385  156.1399 C   0  0  0  0  0  0  0  0  0  0  0  0
  151.7722  134.9448  156.1599 C   0  0  0  0  0  0  0  0  0  0  0  0
  150.6614  135.6269  155.6259 C   0  0  0  0  0  0  0  0  0  0  0  0
  150.6833  137.0038  155.6855 O   0  0  0  0  0  0  0  0  0  0  0  0
  151.9437  137.6596  155.6428 C   0  0  0  0  0  0  0  0  0  0  0  0
  151.7153  139.1783  155.6518 C   0  0  2  0  0  0  0  0  0  0  0  0
  152.6696  139.7781  154.7983 O   0  0  0  0  0  0  0  0  0  0  0  0
  151.8173  139.7777  157.0691 C   0  0  0  0  0  0  0  0  0  0  0  0
  151.2633  141.1363  157.1579 N   0  0  0  0  0  0  0  0  0  0  0  0
  150.3776  141.7668  156.3398 C   0  0  0  0  0  0  0  0  0  0  0  0
  150.1685  143.0149  156.8428 N   0  3  0  0  0  0  0  0  0  0  0  0
  150.9328  143.1861  157.9989 C   0  0  0  0  0  0  0  0  0  0  0  0
  151.0561  144.2753  158.8560 C   0  0  0  0  0  0  0  0  0  0  0  0
  151.9308  144.1227  159.9518 C   0  0  0  0  0  0  0  0  0  0  0  0
  152.6420  142.9235  160.1623 C   0  0  0  0  0  0  0  0  0  0  0  0
  152.5079  141.8250  159.2879 C   0  0  0  0  0  0  0  0  0  0  0  0
  151.6404  141.9830  158.2072 C   0  0  0  0  0  0  0  0  0  0  0  0
  149.6035  134.8686  155.0675 C   0  0  0  0  0  0  0  0  0  0  0  0
  149.6668  133.4619  155.0461 C   0  0  0  0  0  0  0  0  0  0  0  0
  152.7704  130.9133  154.6772 H   0  0  0  0  0  0  0  0  0  0  0  0
  152.0786  129.5276  155.5261 H   0  0  0  0  0  0  0  0  0  0  0  0
  152.7428  130.8785  156.4496 H   0  0  0  0  0  0  0  0  0  0  0  0
  152.7103  133.0621  156.5602 H   0  0  0  0  0  0  0  0  0  0  0  0
  152.5878  135.5072  156.5903 H   0  0  0  0  0  0  0  0  0  0  0  0
  152.5617  137.3703  156.4947 H   0  0  0  0  0  0  0  0  0  0  0  0
  152.4683  137.3711  154.7301 H   0  0  0  0  0  0  0  0  0  0  0  0
  150.7290  139.3919  155.2379 H   0  0  0  0  0  0  0  0  0  0  0  0
  152.9816  139.1248  154.1906 H   0  0  0  0  0  0  0  0  0  0  0  0
  151.2576  139.1611  157.7734 H   0  0  0  0  0  0  0  0  0  0  0  0
  152.8476  139.7846  157.4253 H   0  0  0  0  0  0  0  0  0  0  0  0
  149.9215  141.3508  155.4530 H   0  0  0  0  0  0  0  0  0  0  0  0
  150.5133  145.1954  158.6967 H   0  0  0  0  0  0  0  0  0  0  0  0
  152.0601  144.9423  160.6437 H   0  0  0  0  0  0  0  0  0  0  0  0
  153.3057  142.8442  161.0110 H   0  0  0  0  0  0  0  0  0  0  0  0
  153.0621  140.9134  159.4554 H   0  0  0  0  0  0  0  0  0  0  0  0
  148.7292  135.3417  154.6474 H   0  0  0  0  0  0  0  0  0  0  0  0
  148.8437  132.9126  154.6119 H   0  0  0  0  0  0  0  0  0  0  0  0
  149.5491  143.6980  156.4258 H   0  0  0  0  0  0  0  0  0  0  0  0
  1  2  1  0  0  0  0
  1 24  1  0  0  0  0
  1 25  1  0  0  0  0
  1 26  1  0  0  0  0
  2  3  2  0  0  0  0
  2  4  1  0  0  0  0
  4 23  1  0  0  0  0
  4  5  2  0  0  0  0
  5  6  1  0  0  0  0
  5 27  1  0  0  0  0
  6  7  2  0  0  0  0
  6 28  1  0  0  0  0
  7  8  1  0  0  0  0
  7 22  1  0  0  0  0
  8  9  1  0  0  0  0
  9 10  1  0  0  0  0
  9 29  1  0  0  0  0
  9 30  1  0  0  0  0
 10 11  1  0  0  0  0
 10 12  1  0  0  0  0
 10 31  1  0  0  0  0
 11 32  1  0  0  0  0
 12 13  1  0  0  0  0
 12 33  1  0  0  0  0
 12 34  1  0  0  0  0
 13 21  1  0  0  0  0
 13 14  1  0  0  0  0
 14 15  2  0  0  0  0
 14 35  1  0  0  0  0
 15 16  1  0  0  0  0
 15 42  1  0  0  0  0
 16 21  2  0  0  0  0
 16 17  1  0  0  0  0
 17 18  2  0  0  0  0
 17 36  1  0  0  0  0
 18 19  1  0  0  0  0
 18 37  1  0  0  0  0
 19 20  2  0  0  0  0
 19 38  1  0  0  0  0
 20 21  1  0  0  0  0
 20 39  1  0  0  0  0
 22 23  2  0  0  0  0
 22 40  1  0  0  0  0
 23 41  1  0  0  0  0
M  CHG  1  15   1
M  END
> <s_m_source_file>
AV-unprocessed.smi

> <i_m_source_file_index>
2147

> <i_lp_mmshare_version>
43012

> <i_f3d_flags>
0

> <s_epik_input>
W0NIM11DKD1PKWMxW2NIXVtjSF1jKFtjSF1bY0hdMSlPW0NIMl1bQ0BIXShbT0hdKVtDSDJdbihbY0hdbjIpYyhjMjMpW2NIXVtjSF1bY0hdW2NIXTM=

> <s_epik_cmdline>
J2VwaWtfcHl0aG9uJywgJy1waCcsICc3LjAnLCAnLXRuJywgJzgnLCAnLW1hJywgJzIwMCcsICctbWV0YWxfYmluZGluZycsICctaW1hZScsICc8aW5maWxlLm1hZT4nLCAnLW9tYWUnLCAnPG91dGZpbGUubWFlPic=

> <r_lp_tautomer_probability>
0.99995

> <r_epik_Ionization_Penalty>
1.40272

> <r_epik_Ionization_Penalty_Charging>
1.40272

> <r_epik_Ionization_Penalty_Neutral>
2.3993e-06

> <r_epik_State_Penalty>
1.48501

> <r_epik_Charging_Adjusted_Penalty>
2.88772

> <i_epik_Tot_Q>
1

> <i_epik_Tot_abs_Q>
1

> <r_epik_Metal_State_Penalty>
5.5274

> <b_epik_Metal_Only>
0

> <s_lp_Force_Field>
OPLS_2005

> <r_lp_Energy>
26.2273

> <b_lp_Chiralities_Consistent>
1

> <s_lp_Variant>
AV-unprocessed.smi:2147-3

> <Gold.Version>
5.8.1

> <Gold.Id.Protein>
6NUR|6NUR_protein|mol2

> <Gold.PLP.Fitness>
53.1557

> <Gold.PLP.PLP>
-46.3608

> <Gold.PLP.part.hbond>
-2.9148

> <Gold.PLP.part.metal>
0.0000

> <Gold.PLP.part.buried>
-5.2583

> <Gold.PLP.part.nonpolar>
-38.6036

> <Gold.PLP.part.repulsive>
0.1303

> <Gold.PLP.ligand.clash>
0.0000

> <Gold.PLP.ligand.torsion>
1.5533

> <Gold.PLP.Chemscore.Hbond>
3.2692

> <Gold.PLP.Chemscore.CHOScore>
0.0000

> <Gold.PLP.Chemscore.Metal>
0.0000

> <Gold.Chemscore.Hbonds>
donor molecule, donor type, donor heavy atom, donor atom, acceptor molecule, acceptor atom, score
      L1  H    15    42       P1  8028  1.53
      P1  H  7989  7998       L1    11  0.44
      P1  H  7997  8008       L1    11  0.46

> <Gold.PLP.Chemscore.Internal.Correction>
0.0938

> <Gold.Rescore>
     Score         DG    S(hbond)    S(metal)    S(lipo)     H(rot)  DE(clash)    DE(int)     intcor
     17.54     -19.56       1.94        0.00     119.41       2.48       0.25       1.76       ----

> <Gold.Chemscore.Fitness>
17.5413

> <Gold.Chemscore.DG>
-19.5560

> <Gold.Chemscore.ZeroCoef>
-5.4800

> <Gold.Chemscore.Hbond>
1.9354

> <Gold.Chemscore.Metal>
0.0000

> <Gold.Chemscore.Lipo>
119.4120

> <Gold.Chemscore.Internal_Hbond>
0.0000

> <Gold.Chemscore.DEClash>
0.2530

> <Gold.Chemscore.DEInternal>
1.7617

> <Gold.Chemscore.Rot>
2.4842

> <Gold.Chemscore.Internal.Correction>
   9.000000E+99

> <Gold.Chemscore.Hbonds>
donor molecule, donor type, donor heavy atom, donor atom, acceptor molecule, acceptor atom, score
      L1  H    15    42       P1  8028  0.75
      P1  H  7989  7998       L1    11  0.05
      P1  H  7997  8008       L1    11  0.06

> <Gold.Chemscore.Hbond.Weighted>
-6.4642

> <Gold.Chemscore.Metal.Weighted>
-0.0000

> <Gold.Chemscore.Lipo.Weighted>
-13.9712

> <Gold.Chemscore.Internal_Hbond.Weighted>
0.0000

> <Gold.Chemscore.DEClash.Weighted>
0.2530

> <Gold.Chemscore.DEInternal.Weighted>
1.7617

> <Gold.Chemscore.Rot.Weighted>
6.3594

> <Gold.Chemscore.Internal.Correction.Weighted>
   9.000000E+99

> <Gold.Protein.RotatedTorsions>
[ 6907 6896 6895 6894 ] final  128.46 input  -60.11 | X-H torsion
[ 7974 7965 7964 7962 ] final -176.99 input  175.53 | X-H torsion
[ 8008 7997 7996 7995 ] final    4.26 input   59.86 | X-H torsion
[ 10167 10162 10161 10158 ] final  -77.44 input  -65.29 | X-H torsion
[ 10718 10713 10712 10709 ] final  161.72 input   66.30 | X-H torsion
[ 10763 10752 10751 10750 ] final   12.02 input  -60.55 | X-H torsion
[ 11005 11000 10999 10996 ] final  -61.50 input  -57.11 | X-H torsion

> <Gold.Protein.ActiveResidues>
 VAL166  LYS551  ARG553  GLY616  TRP617  ASP618  TYR619  PRO620  LYS621  CYS622 
 ASP623  PHE694  ASN695  SER759  ASP760  ASP761  ALA762  ILE779  LEU786  VAL792 
 PHE793  MET794  SER795  GLU796  ALA797  LYS798  CYS799  TRP800  GLU811  SER814 

> <Gold.Protein.RotatedAtoms>
  152.3717  133.6428  159.6092 H   0  0  0  0  0  0  0  0  0  0  0  0  # atno 6907 bound_to 6896
  150.7674  133.9259  159.3421 H   0  0  0  0  0  0  0  0  0  0  0  0  # atno 6908 bound_to 6896
  151.7081  135.0919  160.0314 H   0  0  0  0  0  0  0  0  0  0  0  0  # atno 6909 bound_to 6896
  144.7127  140.1086  143.6412 H   0  0  0  0  0  0  0  0  0  0  0  0  # atno 7974 bound_to 7965
  154.7137  140.2698  155.6605 H   0  0  0  0  0  0  0  0  0  0  0  0  # atno 8008 bound_to 7997
  156.2803  140.2748  156.1712 H   0  0  0  0  0  0  0  0  0  0  0  0  # atno 8009 bound_to 7997
  155.0599  140.0371  157.2563 H   0  0  0  0  0  0  0  0  0  0  0  0  # atno 8010 bound_to 7997
  140.4770  143.2412  151.8117 H   0  0  0  0  0  0  0  0  0  0  0  0  # atno 10167 bound_to 10162
  157.1325  131.0520  151.2365 H   0  0  0  0  0  0  0  0  0  0  0  0  # atno 10718 bound_to 10713
  153.1865  135.6836  153.8408 H   0  0  0  0  0  0  0  0  0  0  0  0  # atno 10763 bound_to 10752
  153.7722  135.3194  155.3354 H   0  0  0  0  0  0  0  0  0  0  0  0  # atno 10764 bound_to 10752
  154.8092  135.4728  154.0568 H   0  0  0  0  0  0  0  0  0  0  0  0  # atno 10765 bound_to 10752
  141.1327  133.6631  156.5385 H   0  0  0  0  0  0  0  0  0  0  0  0  # atno 11005 bound_to 11000
  145.9474  139.2710  143.1232 LP  0  0  0  0  0  0  0  0  0  0  0  0  # atno 17320 bound_to 7965
  145.9359  140.9015  143.0332 LP  0  0  0  0  0  0  0  0  0  0  0  0  # atno 17321 bound_to 7965
  139.4827  144.4821  151.9294 LP  0  0  0  0  0  0  0  0  0  0  0  0  # atno 17342 bound_to 10162
  140.3906  144.2620  150.5900 LP  0  0  0  0  0  0  0  0  0  0  0  0  # atno 17343 bound_to 10162
  157.4379  130.7528  149.7045 LP  0  0  0  0  0  0  0  0  0  0  0  0  # atno 17370 bound_to 10713
  155.9805  130.4029  150.3525 LP  0  0  0  0  0  0  0  0  0  0  0  0  # atno 17371 bound_to 10713
  140.4158  134.7231  157.4862 LP  0  0  0  0  0  0  0  0  0  0  0  0  # atno 17394 bound_to 11000
  140.0394  134.6289  155.9000 LP  0  0  0  0  0  0  0  0  0  0  0  0  # atno 17395 bound_to 11000

$$$$
