AV-unprocessed.smi:287|AV-procd|sdf|2183|dock6
  -GOLD-   2262021563D 1   1.00000     0.00000
 Structure written by MMmdl.
 55 58  0  0  0  0  0  0  0  0  1 V2000
  151.0338  143.3372  158.2693 C   0  0  0  0  0  0  0  0  0  0  0  0
  151.0721  142.0638  157.4962 C   0  0  0  0  0  0  0  0  0  0  0  0
  151.8389  140.9378  157.5690 C   0  0  0  0  0  0  0  0  0  0  0  0
  151.4012  140.0556  156.5360 C   0  0  0  0  0  0  0  0  0  0  0  0
  151.9672  138.6748  156.2328 C   0  0  1  0  0  0  0  0  0  0  0  0
  152.2910  138.5647  154.7341 C   0  0  0  0  0  0  0  0  0  0  0  0
  153.1888  138.4258  156.9014 O   0  0  0  0  0  0  0  0  0  0  0  0
  151.0123  137.5347  156.6563 C   0  0  0  0  0  0  0  0  0  0  0  0
  151.3554  136.2542  156.0508 N   0  0  0  0  0  0  0  0  0  0  0  0
  150.3957  135.4175  155.6049 C   0  0  0  0  0  0  0  0  0  0  0  0
  150.7561  134.1152  155.5102 N   0  0  0  0  0  0  0  0  0  0  0  0
  149.8789  133.2040  155.0804 C   0  0  0  0  0  0  0  0  0  0  0  0
  148.6125  133.3800  154.6996 N   0  0  0  0  0  0  0  0  0  0  0  0
  148.2430  134.6903  154.7902 C   0  0  0  0  0  0  0  0  0  0  0  0
  149.0648  135.7677  155.2284 C   0  0  0  0  0  0  0  0  0  0  0  0
  148.3336  136.9501  155.1743 N   0  0  0  0  0  0  0  0  0  0  0  0
  147.1600  136.5873  154.7327 C   0  0  0  0  0  0  0  0  0  0  0  0
  147.0216  135.2417  154.4728 N   0  0  0  0  0  0  0  0  0  0  0  0
  145.8288  134.4933  153.9627 C   0  0  1  0  0  0  0  0  0  0  0  0
  144.7290  135.3509  154.0412 O   0  0  0  0  0  0  0  0  0  0  0  0
  144.1357  135.5421  152.7568 C   0  0  1  0  0  0  0  0  0  0  0  0
  143.5297  136.9511  152.6308 C   0  0  0  0  0  0  0  0  0  0  0  0
  144.5424  137.9260  152.7584 O   0  0  0  0  0  0  0  0  0  0  0  0
  145.2496  135.2060  151.7553 C   0  0  1  0  0  0  0  0  0  0  0  0
  146.0733  136.3315  151.4992 O   0  0  0  0  0  0  0  0  0  0  0  0
  145.9897  134.0934  152.4841 C   0  0  1  0  0  0  0  0  0  0  0  0
  147.3221  133.9211  152.0305 O   0  0  0  0  0  0  0  0  0  0  0  0
  150.3689  140.7225  155.9208 C   0  0  0  0  0  0  0  0  0  0  0  0
  149.4477  140.3930  154.7930 C   0  0  0  0  0  0  0  0  0  0  0  0
  150.1679  141.9428  156.4923 O   0  0  0  0  0  0  0  0  0  0  0  0
  145.7222  133.6454  154.6402 H   0  0  0  0  0  0  0  0  0  0  0  0
  143.3534  134.7898  152.6400 H   0  0  0  0  0  0  0  0  0  0  0  0
  144.8449  134.8614  150.8031 H   0  0  0  0  0  0  0  0  0  0  0  0
  145.4487  133.1566  152.3450 H   0  0  0  0  0  0  0  0  0  0  0  0
  151.8924  143.4128  158.9368 H   0  0  0  0  0  0  0  0  0  0  0  0
  150.1286  143.3946  158.8737 H   0  0  0  0  0  0  0  0  0  0  0  0
  151.0504  144.1977  157.6001 H   0  0  0  0  0  0  0  0  0  0  0  0
  152.6335  140.7672  158.2803 H   0  0  0  0  0  0  0  0  0  0  0  0
  151.3974  138.7064  154.1251 H   0  0  0  0  0  0  0  0  0  0  0  0
  152.7047  137.5867  154.4845 H   0  0  0  0  0  0  0  0  0  0  0  0
  153.0179  139.3189  154.4295 H   0  0  0  0  0  0  0  0  0  0  0  0
  153.2579  137.4971  157.0623 H   0  0  0  0  0  0  0  0  0  0  0  0
  151.0815  137.4097  157.7378 H   0  0  0  0  0  0  0  0  0  0  0  0
  149.9766  137.7944  156.4328 H   0  0  0  0  0  0  0  0  0  0  0  0
  152.3349  136.0091  156.0768 H   0  0  0  0  0  0  0  0  0  0  0  0
  150.2451  132.1890  155.0342 H   0  0  0  0  0  0  0  0  0  0  0  0
  146.3609  137.2986  154.5825 H   0  0  0  0  0  0  0  0  0  0  0  0
  143.0026  137.0752  151.6844 H   0  0  0  0  0  0  0  0  0  0  0  0
  142.8090  137.1239  153.4308 H   0  0  0  0  0  0  0  0  0  0  0  0
  144.1987  138.7558  152.4648 H   0  0  0  0  0  0  0  0  0  0  0  0
  145.6201  137.1044  151.8011 H   0  0  0  0  0  0  0  0  0  0  0  0
  147.7888  134.7332  152.1592 H   0  0  0  0  0  0  0  0  0  0  0  0
  149.0053  139.4063  154.9308 H   0  0  0  0  0  0  0  0  0  0  0  0
  149.9834  140.3954  153.8437 H   0  0  0  0  0  0  0  0  0  0  0  0
  148.6351  141.1164  154.7228 H   0  0  0  0  0  0  0  0  0  0  0  0
  1  2  1  0  0  0  0
  1 35  1  0  0  0  0
  1 36  1  0  0  0  0
  1 37  1  0  0  0  0
  2 30  1  0  0  0  0
  2  3  2  0  0  0  0
  3  4  1  0  0  0  0
  3 38  1  0  0  0  0
  4  5  1  0  0  0  0
  4 28  2  0  0  0  0
  5  6  1  0  0  0  0
  5  7  1  0  0  0  0
  5  8  1  0  0  0  0
  6 39  1  0  0  0  0
  6 40  1  0  0  0  0
  6 41  1  0  0  0  0
  7 42  1  0  0  0  0
  8  9  1  0  0  0  0
  8 43  1  0  0  0  0
  8 44  1  0  0  0  0
  9 10  1  0  0  0  0
  9 45  1  0  0  0  0
 10 15  1  0  0  0  0
 10 11  2  0  0  0  0
 11 12  1  0  0  0  0
 12 13  2  0  0  0  0
 12 46  1  0  0  0  0
 13 14  1  0  0  0  0
 14 18  1  0  0  0  0
 14 15  2  0  0  0  0
 15 16  1  0  0  0  0
 16 17  2  0  0  0  0
 17 18  1  0  0  0  0
 17 47  1  0  0  0  0
 18 19  1  0  0  0  0
 19 31  1  0  0  0  0
 19 26  1  0  0  0  0
 19 20  1  0  0  0  0
 20 21  1  0  0  0  0
 21 32  1  0  0  0  0
 21 22  1  0  0  0  0
 21 24  1  0  0  0  0
 22 23  1  0  0  0  0
 22 48  1  0  0  0  0
 22 49  1  0  0  0  0
 23 50  1  0  0  0  0
 24 33  1  0  0  0  0
 24 25  1  0  0  0  0
 24 26  1  0  0  0  0
 25 51  1  0  0  0  0
 26 34  1  0  0  0  0
 26 27  1  0  0  0  0
 27 52  1  0  0  0  0
 28 29  1  0  0  0  0
 28 30  1  0  0  0  0
 29 53  1  0  0  0  0
 29 54  1  0  0  0  0
 29 55  1  0  0  0  0
M  END
> <s_m_source_file>
AV-unprocessed.smi

> <i_m_source_file_index>
287

> <i_lp_mmshare_version>
43012

> <i_f3d_flags>
0

> <s_epik_input>
W0NIM11jMVtjSF1jKGMobzEpW0NIM10pW0NAQF0oW0NIM10pKFtPSF0pW0NIMl1bTkhdYyhuW2NIXW4yKWMoYzIzKW5bY0hdbjNbQ0BASF00T1tDQEhdKFtDSDJdW09IXSlbQ0BASF0oW09IXSlbQ0BIXTRbT0hd

> <s_epik_cmdline>
J2VwaWtfcHl0aG9uJywgJy1waCcsICc3LjAnLCAnLXRuJywgJzgnLCAnLW1hJywgJzIwMCcsICctbWV0YWxfYmluZGluZycsICctaW1hZScsICc8aW5maWxlLm1hZT4nLCAnLW9tYWUnLCAnPG91dGZpbGUubWFlPic=

> <r_lp_tautomer_probability>
1

> <r_epik_Ionization_Penalty>
0.000992612

> <r_epik_Ionization_Penalty_Charging>
0

> <r_epik_Ionization_Penalty_Neutral>
0.000992612

> <r_epik_State_Penalty>
-0

> <r_epik_Charging_Adjusted_Penalty>
0

> <i_epik_Tot_Q>
0

> <i_epik_Tot_abs_Q>
0

> <r_epik_Metal_State_Penalty>
-0

> <b_epik_Metal_Only>
0

> <s_epik_Chemistry_Notes>
This compound contains an acetal/aminal-like group ( X-CH(R)-Y where X, Y are N, S, or O) that may be acid/base labile, releasing an aldehyde.

> <s_lp_Force_Field>
OPLS_2005

> <r_lp_Energy>
47.3874

> <b_lp_Chiralities_Consistent>
1

> <s_lp_Variant>
AV-unprocessed.smi:287-7

> <Gold.Version>
5.8.1

> <Gold.Id.Protein>
6NUR|6NUR_protein|mol2

> <Gold.PLP.Fitness>
47.3711

> <Gold.PLP.PLP>
-39.8453

> <Gold.PLP.part.hbond>
-5.0000

> <Gold.PLP.part.metal>
0.0000

> <Gold.PLP.part.buried>
-6.0875

> <Gold.PLP.part.nonpolar>
-29.9046

> <Gold.PLP.part.repulsive>
0.7548

> <Gold.PLP.ligand.clash>
0.0000

> <Gold.PLP.ligand.torsion>
1.1070

> <Gold.PLP.Chemscore.Hbond>
3.0000

> <Gold.PLP.Chemscore.CHOScore>
0.0000

> <Gold.PLP.Chemscore.Metal>
0.0000

> <Gold.Chemscore.Hbonds>
donor molecule, donor type, donor heavy atom, donor atom, acceptor molecule, acceptor atom, score
      L1  H    23    50       P1 10175  1.00
      L1  H    27    52       P1  7948  1.00
      P1  H  7997  8009       L1     7  0.96

> <Gold.PLP.Chemscore.Internal.Correction>
0.7398

> <Gold.Rescore>
     Score         DG    S(hbond)    S(metal)    S(lipo)     H(rot)  DE(clash)    DE(int)     intcor
      8.43     -10.58       2.88        0.00      76.66       5.27       0.06       2.09       ----

> <Gold.Chemscore.Fitness>
8.4279

> <Gold.Chemscore.DG>
-10.5804

> <Gold.Chemscore.ZeroCoef>
-5.4800

> <Gold.Chemscore.Hbond>
2.8786

> <Gold.Chemscore.Metal>
0.0000

> <Gold.Chemscore.Lipo>
76.6637

> <Gold.Chemscore.Internal_Hbond>
0.0000

> <Gold.Chemscore.DEClash>
0.0588

> <Gold.Chemscore.DEInternal>
2.0936

> <Gold.Chemscore.Rot>
5.2672

> <Gold.Chemscore.Internal.Correction>
   9.000000E+99

> <Gold.Chemscore.Hbonds>
donor molecule, donor type, donor heavy atom, donor atom, acceptor molecule, acceptor atom, score
      L1  H    23    50       P1 10175  1.00
      L1  H    27    52       P1  7948  0.60
      P1  H  7997  8009       L1     7  0.52

> <Gold.Chemscore.Hbond.Weighted>
-9.6147

> <Gold.Chemscore.Metal.Weighted>
-0.0000

> <Gold.Chemscore.Lipo.Weighted>
-8.9697

> <Gold.Chemscore.Internal_Hbond.Weighted>
0.0000

> <Gold.Chemscore.DEClash.Weighted>
0.0588

> <Gold.Chemscore.DEInternal.Weighted>
2.0936

> <Gold.Chemscore.Rot.Weighted>
13.4839

> <Gold.Chemscore.Internal.Correction.Weighted>
   9.000000E+99

> <Gold.Protein.RotatedTorsions>
[ 6907 6896 6895 6894 ] final   69.35 input  -60.11 | X-H torsion
[ 7974 7965 7964 7962 ] final  -41.46 input  175.53 | X-H torsion
[ 8008 7997 7996 7995 ] final -175.65 input   59.86 | X-H torsion
[ 10167 10162 10161 10158 ] final  178.38 input  -65.29 | X-H torsion
[ 10718 10713 10712 10709 ] final -135.80 input   66.30 | X-H torsion
[ 10763 10752 10751 10750 ] final   19.35 input  -60.55 | X-H torsion
[ 11005 11000 10999 10996 ] final  109.60 input  -57.11 | X-H torsion

> <Gold.Protein.ActiveResidues>
 VAL166  LYS551  ARG553  GLY616  TRP617  ASP618  TYR619  PRO620  LYS621  CYS622 
 ASP623  PHE694  ASN695  SER759  ASP760  ASP761  ALA762  ILE779  LEU786  VAL792 
 PHE793  MET794  SER795  GLU796  ALA797  LYS798  CYS799  TRP800  GLU811  SER814 

> <Gold.Protein.RotatedAtoms>
  152.4680  134.5029  159.9729 H   0  0  0  0  0  0  0  0  0  0  0  0  # atno 6907 bound_to 6896
  151.5062  133.3488  159.2885 H   0  0  0  0  0  0  0  0  0  0  0  0  # atno 6908 bound_to 6896
  150.8674  134.8069  159.7191 H   0  0  0  0  0  0  0  0  0  0  0  0  # atno 6909 bound_to 6896
  146.0209  140.6851  142.9179 H   0  0  0  0  0  0  0  0  0  0  0  0  # atno 7974 bound_to 7965
  155.9852  140.1190  157.0689 H   0  0  0  0  0  0  0  0  0  0  0  0  # atno 8008 bound_to 7997
  154.4195  140.1136  156.5558 H   0  0  0  0  0  0  0  0  0  0  0  0  # atno 8009 bound_to 7997
  155.6417  140.3473  155.4719 H   0  0  0  0  0  0  0  0  0  0  0  0  # atno 8010 bound_to 7997
  139.5291  144.2687  152.0646 H   0  0  0  0  0  0  0  0  0  0  0  0  # atno 10167 bound_to 10162
  156.2701  130.7260  151.1224 H   0  0  0  0  0  0  0  0  0  0  0  0  # atno 10718 bound_to 10713
  153.1170  135.6710  153.9401 H   0  0  0  0  0  0  0  0  0  0  0  0  # atno 10763 bound_to 10752
  153.8928  135.3045  155.3449 H   0  0  0  0  0  0  0  0  0  0  0  0  # atno 10764 bound_to 10752
  154.7585  135.5000  153.9498 H   0  0  0  0  0  0  0  0  0  0  0  0  # atno 10765 bound_to 10752
  139.8865  134.9462  156.6150 H   0  0  0  0  0  0  0  0  0  0  0  0  # atno 11005 bound_to 11000
  144.6989  140.3564  143.7172 LP  0  0  0  0  0  0  0  0  0  0  0  0  # atno 17320 bound_to 7965
  145.7195  139.1706  143.2493 LP  0  0  0  0  0  0  0  0  0  0  0  0  # atno 17321 bound_to 7965
  140.2148  144.4526  150.6369 LP  0  0  0  0  0  0  0  0  0  0  0  0  # atno 17342 bound_to 10162
  140.6457  143.2213  151.6191 LP  0  0  0  0  0  0  0  0  0  0  0  0  # atno 17343 bound_to 10162
  157.7281  131.0634  150.5836 LP  0  0  0  0  0  0  0  0  0  0  0  0  # atno 17370 bound_to 10713
  156.5932  130.4335  149.5928 LP  0  0  0  0  0  0  0  0  0  0  0  0  # atno 17371 bound_to 10713
  140.7782  133.8681  155.8546 LP  0  0  0  0  0  0  0  0  0  0  0  0  # atno 17394 bound_to 11000
  140.9783  134.1440  157.4517 LP  0  0  0  0  0  0  0  0  0  0  0  0  # atno 17395 bound_to 11000

$$$$
