AV-unprocessed.smi:2812|AV-procd|sdf|10835|dock3
  -GOLD-   2272015273D 1   1.00000     0.00000
 Structure written by MMmdl.
 55 56  0  0  0  0  0  0  0  0  2 V2000
  146.9516  140.4096  153.1959 C   0  0  0  0  0  0  0  0  0  0  0  0
  148.1740  140.3248  154.0965 C   0  0  0  0  0  0  0  0  0  0  0  0
  148.7068  141.5386  154.6795 C   0  0  0  0  0  0  0  0  0  0  0  0
  149.7929  141.4728  155.4610 C   0  0  0  0  0  0  0  0  0  0  0  0
  150.4241  140.2529  155.7439 N   0  0  0  0  0  0  0  0  0  0  0  0
  151.5953  140.2845  156.6241 C   0  0  0  0  0  0  0  0  0  0  0  0
  149.9644  139.0639  155.2580 C   0  0  0  0  0  0  0  0  0  0  0  0
  150.4971  138.0000  155.5822 O   0  0  0  0  0  0  0  0  0  0  0  0
  148.7946  139.1427  154.3499 C   0  0  0  0  0  0  0  0  0  0  0  0
  148.2668  137.9669  153.7944 N   0  0  0  0  0  0  0  0  0  0  0  0
  147.1148  137.3726  154.1509 C   0  0  0  0  0  0  0  0  0  0  0  0
  146.3288  137.8060  154.9945 O   0  0  0  0  0  0  0  0  0  0  0  0
  146.9389  136.2141  153.4996 N   0  0  0  0  0  0  0  0  0  0  0  0
  145.8143  135.3035  153.6989 C   0  0  0  0  0  0  0  0  0  0  0  0
  145.5069  134.4203  152.4537 C   0  0  2  0  0  0  0  0  0  0  0  0
  143.9769  134.1929  152.3307 C   0  0  0  0  0  0  0  0  0  0  0  0
  143.6091  133.3431  151.1135 C   0  0  0  0  0  0  0  0  0  0  0  0
  144.3670  132.0203  151.1751 C   0  0  0  0  0  0  0  0  0  0  0  0
  145.8758  132.2746  151.2715 C   0  0  0  0  0  0  0  0  0  0  0  0
  146.2336  133.1031  152.4609 N   0  3  1  0  0  0  0  0  0  0  0  0
  147.7154  133.2091  152.6294 C   0  0  0  0  0  0  0  0  0  0  0  0
  148.2635  132.5429  153.9148 C   0  0  0  0  0  0  0  0  0  0  0  0
  149.5786  133.1881  154.3842 C   0  0  0  0  0  0  0  0  0  0  0  0
  148.4593  131.0353  153.6937 C   0  0  0  0  0  0  0  0  0  0  0  0
  146.6019  141.4378  153.1010 H   0  0  0  0  0  0  0  0  0  0  0  0
  146.1339  139.8129  153.6011 H   0  0  0  0  0  0  0  0  0  0  0  0
  147.1875  140.0416  152.1969 H   0  0  0  0  0  0  0  0  0  0  0  0
  148.2406  142.4933  154.4843 H   0  0  0  0  0  0  0  0  0  0  0  0
  150.2362  142.3435  155.9218 H   0  0  0  0  0  0  0  0  0  0  0  0
  152.4379  139.7619  156.1686 H   0  0  0  0  0  0  0  0  0  0  0  0
  151.3680  139.8010  157.5752 H   0  0  0  0  0  0  0  0  0  0  0  0
  151.9293  141.2994  156.8425 H   0  0  0  0  0  0  0  0  0  0  0  0
  148.8824  137.4578  153.1773 H   0  0  0  0  0  0  0  0  0  0  0  0
  147.6383  135.9357  152.8266 H   0  0  0  0  0  0  0  0  0  0  0  0
  146.0645  134.7068  154.5748 H   0  0  0  0  0  0  0  0  0  0  0  0
  144.9393  135.8986  153.9617 H   0  0  0  0  0  0  0  0  0  0  0  0
  145.8403  134.9594  151.5654 H   0  0  0  0  0  0  0  0  0  0  0  0
  143.6045  133.7113  153.2360 H   0  0  0  0  0  0  0  0  0  0  0  0
  143.4461  135.1414  152.2493 H   0  0  0  0  0  0  0  0  0  0  0  0
  142.5340  133.1625  151.0886 H   0  0  0  0  0  0  0  0  0  0  0  0
  143.8611  133.8766  150.1960 H   0  0  0  0  0  0  0  0  0  0  0  0
  144.0329  131.4379  152.0351 H   0  0  0  0  0  0  0  0  0  0  0  0
  144.1449  131.4233  150.2900 H   0  0  0  0  0  0  0  0  0  0  0  0
  146.3612  131.3022  151.3095 H   0  0  0  0  0  0  0  0  0  0  0  0
  146.2313  132.7675  150.3650 H   0  0  0  0  0  0  0  0  0  0  0  0
  148.2043  132.7934  151.7468 H   0  0  0  0  0  0  0  0  0  0  0  0
  148.0278  134.2471  152.6894 H   0  0  0  0  0  0  0  0  0  0  0  0
  147.5357  132.6327  154.7195 H   0  0  0  0  0  0  0  0  0  0  0  0
  150.3490  133.1238  153.6149 H   0  0  0  0  0  0  0  0  0  0  0  0
  149.9607  132.6934  155.2777 H   0  0  0  0  0  0  0  0  0  0  0  0
  149.4424  134.2408  154.6325 H   0  0  0  0  0  0  0  0  0  0  0  0
  149.1953  130.8393  152.9130 H   0  0  0  0  0  0  0  0  0  0  0  0
  147.5254  130.5561  153.3983 H   0  0  0  0  0  0  0  0  0  0  0  0
  148.8046  130.5449  154.6045 H   0  0  0  0  0  0  0  0  0  0  0  0
  145.8957  132.6050  153.2717 H   0  0  0  0  0  0  0  0  0  0  0  0
  1  2  1  0  0  0  0
  1 25  1  0  0  0  0
  1 26  1  0  0  0  0
  1 27  1  0  0  0  0
  2  9  2  0  0  0  0
  2  3  1  0  0  0  0
  3  4  2  0  0  0  0
  3 28  1  0  0  0  0
  4  5  1  0  0  0  0
  4 29  1  0  0  0  0
  5  6  1  0  0  0  0
  5  7  1  0  0  0  0
  6 30  1  0  0  0  0
  6 31  1  0  0  0  0
  6 32  1  0  0  0  0
  7  8  2  0  0  0  0
  7  9  1  0  0  0  0
  9 10  1  0  0  0  0
 10 11  1  0  0  0  0
 10 33  1  0  0  0  0
 11 12  2  0  0  0  0
 11 13  1  0  0  0  0
 13 14  1  0  0  0  0
 13 34  1  0  0  0  0
 14 15  1  0  0  0  0
 14 35  1  0  0  0  0
 14 36  1  0  0  0  0
 15 20  1  0  0  0  0
 15 16  1  0  0  0  0
 15 37  1  0  0  0  0
 16 17  1  0  0  0  0
 16 38  1  0  0  0  0
 16 39  1  0  0  0  0
 17 18  1  0  0  0  0
 17 40  1  0  0  0  0
 17 41  1  0  0  0  0
 18 19  1  0  0  0  0
 18 42  1  0  0  0  0
 18 43  1  0  0  0  0
 19 20  1  0  0  0  0
 19 44  1  0  0  0  0
 19 45  1  0  0  0  0
 20 21  1  0  0  0  0
 20 55  1  0  0  0  0
 21 22  1  0  0  0  0
 21 46  1  0  0  0  0
 21 47  1  0  0  0  0
 22 23  1  0  0  0  0
 22 24  1  0  0  0  0
 22 48  1  0  0  0  0
 23 49  1  0  0  0  0
 23 50  1  0  0  0  0
 23 51  1  0  0  0  0
 24 52  1  0  0  0  0
 24 53  1  0  0  0  0
 24 54  1  0  0  0  0
M  CHG  1  20   1
M  END
> <s_m_source_file>
AV-unprocessed.smi

> <i_m_source_file_index>
2812

> <i_lp_mmshare_version>
43012

> <i_f3d_flags>
0

> <s_epik_input>
W0NIM11jMVtjSF1bY0hdbihbQ0gzXSljKD1PKWMxW05IXUMoPU8pW05IXVtDSDJdW0NAQEhdMltDSDJdW0NIMl1bQ0gyXVtDSDJdTjJbQ0gyXVtDSF0oW0NIM10pW0NIM10=

> <s_epik_cmdline>
J2VwaWtfcHl0aG9uJywgJy1waCcsICc3LjAnLCAnLXRuJywgJzgnLCAnLW1hJywgJzIwMCcsICctbWV0YWxfYmluZGluZycsICctaW1hZScsICc8aW5maWxlLm1hZT4nLCAnLW9tYWUnLCAnPG91dGZpbGUubWFlPic=

> <r_lp_tautomer_probability>
1

> <r_epik_Ionization_Penalty>
0.0010902

> <r_epik_Ionization_Penalty_Charging>
0.00107091

> <r_epik_Ionization_Penalty_Neutral>
1.92854e-05

> <r_epik_State_Penalty>
0.000697184

> <r_epik_Charging_Adjusted_Penalty>
0.0017681

> <i_epik_Tot_Q>
1

> <i_epik_Tot_abs_Q>
1

> <r_epik_Metal_State_Penalty>
-0

> <b_epik_Metal_Only>
0

> <s_lp_Force_Field>
OPLS_2005

> <r_lp_Energy>
39.8559

> <b_lp_Chiralities_Consistent>
1

> <s_lp_Variant>
AV-unprocessed.smi:2812-3

> <Gold.Version>
5.8.1

> <Gold.Id.Protein>
6NUR|6NUR_protein|mol2

> <Gold.PLP.Fitness>
45.7840

> <Gold.PLP.PLP>
-41.3009

> <Gold.PLP.part.hbond>
-1.9296

> <Gold.PLP.part.metal>
0.0000

> <Gold.PLP.part.buried>
1.4257

> <Gold.PLP.part.nonpolar>
-38.7581

> <Gold.PLP.part.repulsive>
0.1733

> <Gold.PLP.ligand.clash>
0.0000

> <Gold.PLP.ligand.torsion>
2.3035

> <Gold.PLP.Chemscore.Hbond>
1.9280

> <Gold.PLP.Chemscore.CHOScore>
0.8379

> <Gold.PLP.Chemscore.Metal>
0.0000

> <Gold.Chemscore.Hbonds>
donor molecule, donor type, donor heavy atom, donor atom, acceptor molecule, acceptor atom, score
      L1  H    10    33       P1  7948  0.91
      L1  H    13    34       P1  7948  1.00
      L1  C     4    29       P1  8028  0.35

> <Gold.PLP.Chemscore.Internal.Correction>
0.7925

> <Gold.Rescore>
     Score         DG    S(hbond)    S(metal)    S(lipo)     H(rot)  DE(clash)    DE(int)     intcor
     17.21     -19.65       1.86        0.00     101.10       1.52       0.28       2.16       ----

> <Gold.Chemscore.Fitness>
17.2132

> <Gold.Chemscore.DG>
-19.6500

> <Gold.Chemscore.ZeroCoef>
-5.4800

> <Gold.Chemscore.Hbond>
1.8628

> <Gold.Chemscore.Metal>
0.0000

> <Gold.Chemscore.Lipo>
101.0996

> <Gold.Chemscore.Internal_Hbond>
0.0000

> <Gold.Chemscore.DEClash>
0.2753

> <Gold.Chemscore.DEInternal>
2.1615

> <Gold.Chemscore.Rot>
1.5157

> <Gold.Chemscore.Internal.Correction>
   9.000000E+99

> <Gold.Chemscore.Hbonds>
donor molecule, donor type, donor heavy atom, donor atom, acceptor molecule, acceptor atom, score
      L1  H    10    33       P1  7948  0.90
      L1  H    13    34       P1  7948  0.97

> <Gold.Chemscore.Hbond.Weighted>
-6.2216

> <Gold.Chemscore.Metal.Weighted>
-0.0000

> <Gold.Chemscore.Lipo.Weighted>
-11.8286

> <Gold.Chemscore.Internal_Hbond.Weighted>
0.0000

> <Gold.Chemscore.DEClash.Weighted>
0.2753

> <Gold.Chemscore.DEInternal.Weighted>
2.1615

> <Gold.Chemscore.Rot.Weighted>
3.8803

> <Gold.Chemscore.Internal.Correction.Weighted>
   9.000000E+99

> <Gold.Protein.RotatedTorsions>
[ 6907 6896 6895 6894 ] final  105.78 input  -60.11 | X-H torsion
[ 7974 7965 7964 7962 ] final   71.65 input  175.53 | X-H torsion
[ 8008 7997 7996 7995 ] final -148.38 input   59.86 | X-H torsion
[ 10167 10162 10161 10158 ] final  -56.94 input  -65.29 | X-H torsion
[ 10718 10713 10712 10709 ] final -135.42 input   66.30 | X-H torsion
[ 10763 10752 10751 10750 ] final  -55.87 input  -60.55 | X-H torsion
[ 11005 11000 10999 10996 ] final -104.87 input  -57.11 | X-H torsion

> <Gold.Protein.ActiveResidues>
 VAL166  LYS551  ARG553  GLY616  TRP617  ASP618  TYR619  PRO620  LYS621  CYS622 
 ASP623  PHE694  ASN695  SER759  ASP760  ASP761  ALA762  ILE779  LEU786  VAL792 
 PHE793  MET794  SER795  GLU796  ALA797  LYS798  CYS799  TRP800  GLU811  SER814 

> <Gold.Protein.RotatedAtoms>
  152.5218  133.9477  159.7656 H   0  0  0  0  0  0  0  0  0  0  0  0  # atno 6907 bound_to 6896
  150.9794  133.6253  159.2732 H   0  0  0  0  0  0  0  0  0  0  0  0  # atno 6908 bound_to 6896
  151.3436  135.0875  159.9432 H   0  0  0  0  0  0  0  0  0  0  0  0  # atno 6909 bound_to 6896
  145.7632  139.2810  143.1364 H   0  0  0  0  0  0  0  0  0  0  0  0  # atno 7974 bound_to 7965
  155.5907  140.0652  157.2759 H   0  0  0  0  0  0  0  0  0  0  0  0  # atno 8008 bound_to 7997
  154.4306  140.1835  156.1119 H   0  0  0  0  0  0  0  0  0  0  0  0  # atno 8009 bound_to 7997
  156.0234  140.3314  155.7067 H   0  0  0  0  0  0  0  0  0  0  0  0  # atno 8010 bound_to 7997
  140.6288  143.2450  151.5296 H   0  0  0  0  0  0  0  0  0  0  0  0  # atno 10167 bound_to 10162
  156.2660  130.7237  151.1188 H   0  0  0  0  0  0  0  0  0  0  0  0  # atno 10718 bound_to 10713
  154.1976  135.6416  153.5078 H   0  0  0  0  0  0  0  0  0  0  0  0  # atno 10763 bound_to 10752
  153.0020  135.5443  154.6349 H   0  0  0  0  0  0  0  0  0  0  0  0  # atno 10764 bound_to 10752
  154.5754  135.2920  155.0759 H   0  0  0  0  0  0  0  0  0  0  0  0  # atno 10765 bound_to 10752
  141.1080  133.8760  157.1664 H   0  0  0  0  0  0  0  0  0  0  0  0  # atno 11005 bound_to 11000
  146.0243  140.8318  142.9907 LP  0  0  0  0  0  0  0  0  0  0  0  0  # atno 17320 bound_to 7965
  144.6826  140.2675  143.7310 LP  0  0  0  0  0  0  0  0  0  0  0  0  # atno 17321 bound_to 7965
  139.5504  144.2410  152.1520 LP  0  0  0  0  0  0  0  0  0  0  0  0  # atno 17342 bound_to 10162
  140.1648  144.4992  150.6612 LP  0  0  0  0  0  0  0  0  0  0  0  0  # atno 17343 bound_to 10162
  157.7267  131.0644  150.5896 LP  0  0  0  0  0  0  0  0  0  0  0  0  # atno 17370 bound_to 10713
  156.5988  130.4349  149.5906 LP  0  0  0  0  0  0  0  0  0  0  0  0  # atno 17371 bound_to 10713
  139.9960  135.0046  157.0082 LP  0  0  0  0  0  0  0  0  0  0  0  0  # atno 17394 bound_to 11000
  140.4851  134.1250  155.7223 LP  0  0  0  0  0  0  0  0  0  0  0  0  # atno 17395 bound_to 11000

$$$$
