AV-unprocessed.smi:38|AV-procd|sdf|344|dock4
  -GOLD-   2262016183D 1   1.00000     0.00000
 Structure written by MMmdl.
 27 28  0  0  0  0  0  0  0  0  2 V2000
  152.5690  141.2078  158.9407 O   0  0  0  0  0  0  0  0  0  0  0  0
  151.9430  141.0730  157.8904 C   0  0  0  0  0  0  0  0  0  0  0  0
  152.3419  140.2272  156.8968 N   0  5  0  0  0  0  0  0  0  0  0  0
  151.6474  140.0808  155.7304 C   0  0  0  0  0  0  0  0  0  0  0  0
  152.0021  139.3231  154.8268 O   0  0  0  0  0  0  0  0  0  0  0  0
  150.4584  140.8364  155.5368 N   0  0  0  0  0  0  0  0  0  0  0  0
  149.6941  140.6705  154.2391 C   0  0  2  0  0  0  0  0  0  0  0  0
  148.5007  141.6369  154.1883 C   0  0  0  0  0  0  0  0  0  0  0  0
  147.3647  140.7270  153.7635 C   0  0  2  0  0  0  0  0  0  0  0  0
  146.1256  141.2021  154.2490 O   0  0  0  0  0  0  0  0  0  0  0  0
  147.7691  139.3943  154.3931 C   0  0  1  0  0  0  0  0  0  0  0  0
  147.1079  138.1754  153.7321 C   0  0  0  0  0  0  0  0  0  0  0  0
  147.2881  138.2228  152.3327 O   0  0  0  0  0  0  0  0  0  0  0  0
  149.1736  139.3742  154.1540 O   0  0  0  0  0  0  0  0  0  0  0  0
  150.0285  141.7018  156.5303 C   0  0  0  0  0  0  0  0  0  0  0  0
  150.7188  141.8437  157.6806 C   0  0  0  0  0  0  0  0  0  0  0  0
  150.2774  142.6917  158.6257 F   0  0  0  0  0  0  0  0  0  0  0  0
  150.4235  140.8153  153.4403 H   0  0  0  0  0  0  0  0  0  0  0  0
  147.3378  140.6451  152.6759 H   0  0  0  0  0  0  0  0  0  0  0  0
  147.5744  139.4196  155.4673 H   0  0  0  0  0  0  0  0  0  0  0  0
  148.3192  142.0504  155.1826 H   0  0  0  0  0  0  0  0  0  0  0  0
  148.6860  142.4561  153.4930 H   0  0  0  0  0  0  0  0  0  0  0  0
  145.4398  140.8813  153.6834 H   0  0  0  0  0  0  0  0  0  0  0  0
  147.5742  137.2570  154.0896 H   0  0  0  0  0  0  0  0  0  0  0  0
  146.0473  138.1171  153.9778 H   0  0  0  0  0  0  0  0  0  0  0  0
  147.9840  137.6277  152.0992 H   0  0  0  0  0  0  0  0  0  0  0  0
  149.1278  142.2818  156.4006 H   0  0  0  0  0  0  0  0  0  0  0  0
  1  2  2  0  0  0  0
  2 16  1  0  0  0  0
  2  3  1  0  0  0  0
  3  4  1  0  0  0  0
  4  5  2  0  0  0  0
  4  6  1  0  0  0  0
  6  7  1  0  0  0  0
  6 15  1  0  0  0  0
  7 18  1  0  0  0  0
  7 14  1  0  0  0  0
  7  8  1  0  0  0  0
  8  9  1  0  0  0  0
  8 21  1  0  0  0  0
  8 22  1  0  0  0  0
  9 19  1  0  0  0  0
  9 10  1  0  0  0  0
  9 11  1  0  0  0  0
 10 23  1  0  0  0  0
 11 20  1  0  0  0  0
 11 12  1  0  0  0  0
 11 14  1  0  0  0  0
 12 13  1  0  0  0  0
 12 24  1  0  0  0  0
 12 25  1  0  0  0  0
 13 26  1  0  0  0  0
 15 16  2  0  0  0  0
 15 27  1  0  0  0  0
 16 17  1  0  0  0  0
M  CHG  1   3  -1
M  END
> <s_m_source_file>
AV-unprocessed.smi

> <i_m_source_file_index>
38

> <i_lp_mmshare_version>
43012

> <i_f3d_flags>
0

> <s_epik_input>
Tz1jMVtuSF1jKD1PKW4oW2NIXWMxRilbQ0BIXTJbQ0gyXVtDQEhdKFtPSF0pW0NASF0oTzIpW0NIMl1bT0hd

> <s_epik_cmdline>
J2VwaWtfcHl0aG9uJywgJy1waCcsICc3LjAnLCAnLXRuJywgJzgnLCAnLW1hJywgJzIwMCcsICctbWV0YWxfYmluZGluZycsICctaW1hZScsICc8aW5maWxlLm1hZT4nLCAnLW9tYWUnLCAnPG91dGZpbGUubWFlPic=

> <r_epik_Ionization_Penalty>
1.68146

> <r_epik_Ionization_Penalty_Charging>
3.4211e-08

> <r_epik_Ionization_Penalty_Neutral>
1.68146

> <r_epik_State_Penalty>
1.78593

> <r_epik_Charging_Adjusted_Penalty>
1.78593

> <i_epik_Tot_Q>
-1

> <i_epik_Tot_abs_Q>
1

> <r_epik_Metal_State_Penalty>
0.0113696

> <b_epik_Metal_Only>
0

> <s_epik_Chemistry_Notes>
This compound contains an acetal/aminal-like group ( X-CH(R)-Y where X, Y are N, S, or O) that may be acid/base labile, releasing an aldehyde.

> <s_lp_Force_Field>
OPLS_2005

> <r_lp_Energy>
37.5177

> <b_lp_Chiralities_Consistent>
1

> <s_lp_Variant>
AV-unprocessed.smi:38-10

> <Gold.Version>
5.8.1

> <Gold.Id.Protein>
6NUR|6NUR_protein|mol2

> <Gold.PLP.Fitness>
40.7850

> <Gold.PLP.PLP>
-26.0494

> <Gold.PLP.part.hbond>
-4.2865

> <Gold.PLP.part.metal>
0.0000

> <Gold.PLP.part.buried>
0.9647

> <Gold.PLP.part.nonpolar>
-22.1221

> <Gold.PLP.part.repulsive>
0.3830

> <Gold.PLP.ligand.clash>
0.0000

> <Gold.PLP.ligand.torsion>
0.0725

> <Gold.PLP.Chemscore.Hbond>
3.9549

> <Gold.PLP.Chemscore.CHOScore>
0.9998

> <Gold.PLP.Chemscore.Metal>
0.0000

> <Gold.Chemscore.Hbonds>
donor molecule, donor type, donor heavy atom, donor atom, acceptor molecule, acceptor atom, score
      L1  H    10    23       P1 10175  0.67
      L1  H    13    26       P1  7948  1.00
      P1  H  7989  7998       L1     5  0.35
      P1  H  7997  8010       L1     3  1.95
      L1  C    15    27       P1  8028  0.91

> <Gold.PLP.Chemscore.Internal.Correction>
0.0164

> <Gold.Rescore>
     Score         DG    S(hbond)    S(metal)    S(lipo)     H(rot)  DE(clash)    DE(int)     intcor
      8.37     -10.34       2.47        0.00      34.03       2.88       0.67       1.31       ----

> <Gold.Chemscore.Fitness>
8.3678

> <Gold.Chemscore.DG>
-10.3438

> <Gold.Chemscore.ZeroCoef>
-5.4800

> <Gold.Chemscore.Hbond>
2.4726

> <Gold.Chemscore.Metal>
0.0000

> <Gold.Chemscore.Lipo>
34.0334

> <Gold.Chemscore.Internal_Hbond>
0.0000

> <Gold.Chemscore.DEClash>
0.6659

> <Gold.Chemscore.DEInternal>
1.3100

> <Gold.Chemscore.Rot>
2.8815

> <Gold.Chemscore.Internal.Correction>
   9.000000E+99

> <Gold.Chemscore.Hbonds>
donor molecule, donor type, donor heavy atom, donor atom, acceptor molecule, acceptor atom, score
      L1  H    10    23       P1 10175  0.57
      L1  H    13    26       P1  7948  1.00
      P1  H  7989  7998       L1     5  0.01
      P1  H  7997  8010       L1     3  0.59

> <Gold.Chemscore.Hbond.Weighted>
-8.2584

> <Gold.Chemscore.Metal.Weighted>
-0.0000

> <Gold.Chemscore.Lipo.Weighted>
-3.9819

> <Gold.Chemscore.Internal_Hbond.Weighted>
0.0000

> <Gold.Chemscore.DEClash.Weighted>
0.6659

> <Gold.Chemscore.DEInternal.Weighted>
1.3100

> <Gold.Chemscore.Rot.Weighted>
7.3765

> <Gold.Chemscore.Internal.Correction.Weighted>
   9.000000E+99

> <Gold.Protein.RotatedTorsions>
[ 6907 6896 6895 6894 ] final -101.64 input  -60.11 | X-H torsion
[ 7974 7965 7964 7962 ] final   80.12 input  175.53 | X-H torsion
[ 8008 7997 7996 7995 ] final   69.57 input   59.86 | X-H torsion
[ 10167 10162 10161 10158 ] final   71.26 input  -65.29 | X-H torsion
[ 10718 10713 10712 10709 ] final   -8.19 input   66.30 | X-H torsion
[ 10763 10752 10751 10750 ] final  114.88 input  -60.55 | X-H torsion
[ 11005 11000 10999 10996 ] final   50.32 input  -57.11 | X-H torsion

> <Gold.Protein.ActiveResidues>
 VAL166  LYS551  ARG553  GLY616  TRP617  ASP618  TYR619  PRO620  LYS621  CYS622 
 ASP623  PHE694  ASN695  SER759  ASP760  ASP761  ALA762  ILE779  LEU786  VAL792 
 PHE793  MET794  SER795  GLU796  ALA797  LYS798  CYS799  TRP800  GLU811  SER814 

> <Gold.Protein.RotatedAtoms>
  150.7163  134.0704  159.3862 H   0  0  0  0  0  0  0  0  0  0  0  0  # atno 6907 bound_to 6896
  151.8686  135.0496  160.0486 H   0  0  0  0  0  0  0  0  0  0  0  0  # atno 6908 bound_to 6896
  152.2661  133.5305  159.5447 H   0  0  0  0  0  0  0  0  0  0  0  0  # atno 6909 bound_to 6896
  145.6553  139.2458  143.1953 H   0  0  0  0  0  0  0  0  0  0  0  0  # atno 7974 bound_to 7965
  155.7257  140.3492  155.5036 H   0  0  0  0  0  0  0  0  0  0  0  0  # atno 8008 bound_to 7997
  155.9229  140.1070  157.1214 H   0  0  0  0  0  0  0  0  0  0  0  0  # atno 8009 bound_to 7997
  154.4072  140.1246  156.4689 H   0  0  0  0  0  0  0  0  0  0  0  0  # atno 8010 bound_to 7997
  140.0480  144.5335  150.7384 H   0  0  0  0  0  0  0  0  0  0  0  0  # atno 10167 bound_to 10162
  156.7062  130.5108  149.5904 H   0  0  0  0  0  0  0  0  0  0  0  0  # atno 10718 bound_to 10713
  153.5138  135.3612  155.2599 H   0  0  0  0  0  0  0  0  0  0  0  0  # atno 10763 bound_to 10752
  154.8740  135.4029  154.3338 H   0  0  0  0  0  0  0  0  0  0  0  0  # atno 10764 bound_to 10752
  153.3996  135.7074  153.6502 H   0  0  0  0  0  0  0  0  0  0  0  0  # atno 10765 bound_to 10752
  140.1027  134.5059  155.8748 H   0  0  0  0  0  0  0  0  0  0  0  0  # atno 11005 bound_to 11000
  146.1170  140.7357  142.9476 LP  0  0  0  0  0  0  0  0  0  0  0  0  # atno 17320 bound_to 7965
  144.7108  140.4030  143.7082 LP  0  0  0  0  0  0  0  0  0  0  0  0  # atno 17321 bound_to 7965
  140.7230  143.2607  151.4216 LP  0  0  0  0  0  0  0  0  0  0  0  0  # atno 17342 bound_to 10162
  139.5971  144.1374  152.2156 LP  0  0  0  0  0  0  0  0  0  0  0  0  # atno 17343 bound_to 10162
  156.1693  130.6426  151.0818 LP  0  0  0  0  0  0  0  0  0  0  0  0  # atno 17370 bound_to 10713
  157.6954  131.0796  150.6985 LP  0  0  0  0  0  0  0  0  0  0  0  0  # atno 17371 bound_to 10713
  141.2110  133.6701  156.6550 LP  0  0  0  0  0  0  0  0  0  0  0  0  # atno 17394 bound_to 11000
  140.3198  134.8017  157.4243 LP  0  0  0  0  0  0  0  0  0  0  0  0  # atno 17395 bound_to 11000

$$$$
