AV-unprocessed.smi:3204|AV-procd|sdf|12253|dock6
  -GOLD-   2272018 83D 1   1.00000     0.00000
 Structure written by MMmdl.
 30 31  0  0  0  0  0  0  0  0  1 V2000
  153.1857  141.8670  159.6472 C   0  0  0  0  0  0  0  0  0  0  0  0
  152.7410  140.4677  159.2068 C   0  0  0  0  0  0  0  0  0  0  0  0
  152.1598  140.4634  157.8051 C   0  0  0  0  0  0  0  0  0  0  0  0
  152.7236  139.6149  156.9163 N   0  0  0  0  0  0  0  0  0  0  0  0
  152.2047  139.6006  155.6864 C   0  0  0  0  0  0  0  0  0  0  0  0
  151.1821  140.3360  155.2421 N   0  0  0  0  0  0  0  0  0  0  0  0
  150.6033  141.1883  156.1219 C   0  0  0  0  0  0  0  0  0  0  0  0
  149.5194  141.9776  155.7114 N   0  0  0  0  0  0  0  0  0  0  0  0
  148.2767  141.3823  155.2330 C   0  0  1  0  0  0  0  0  0  0  0  0
  147.0628  142.0022  155.9268 C   0  0  0  0  0  0  0  0  0  0  0  0
  146.0222  141.8498  154.9791 O   0  0  0  0  0  0  0  0  0  0  0  0
  146.5664  142.1805  153.7108 C   0  0  0  0  0  0  0  0  0  0  0  0
  148.0058  141.6509  153.7488 C   0  0  2  0  0  0  0  0  0  0  0  0
  148.0821  140.4499  153.0079 O   0  0  0  0  0  0  0  0  0  0  0  0
  151.0706  141.2890  157.4499 C   0  0  0  0  0  0  0  0  0  0  0  0
  150.4963  142.1331  158.3418 F   0  0  0  0  0  0  0  0  0  0  0  0
  153.5969  141.8441  160.6565 H   0  0  0  0  0  0  0  0  0  0  0  0
  152.3492  142.5666  159.6442 H   0  0  0  0  0  0  0  0  0  0  0  0
  153.9553  142.2609  158.9827 H   0  0  0  0  0  0  0  0  0  0  0  0
  153.5844  139.7783  159.2549 H   0  0  0  0  0  0  0  0  0  0  0  0
  151.9940  140.0838  159.9028 H   0  0  0  0  0  0  0  0  0  0  0  0
  152.6581  138.9241  154.9773 H   0  0  0  0  0  0  0  0  0  0  0  0
  149.6118  142.9834  155.7062 H   0  0  0  0  0  0  0  0  0  0  0  0
  148.2740  140.3093  155.4326 H   0  0  0  0  0  0  0  0  0  0  0  0
  146.8239  141.5130  156.8714 H   0  0  0  0  0  0  0  0  0  0  0  0
  147.2096  143.0667  156.1204 H   0  0  0  0  0  0  0  0  0  0  0  0
  145.9669  141.7696  152.8974 H   0  0  0  0  0  0  0  0  0  0  0  0
  146.5682  143.2665  153.6065 H   0  0  0  0  0  0  0  0  0  0  0  0
  148.6926  142.3815  153.3187 H   0  0  0  0  0  0  0  0  0  0  0  0
  148.5967  140.6130  152.2318 H   0  0  0  0  0  0  0  0  0  0  0  0
  1  2  1  0  0  0  0
  1 17  1  0  0  0  0
  1 18  1  0  0  0  0
  1 19  1  0  0  0  0
  2  3  1  0  0  0  0
  2 20  1  0  0  0  0
  2 21  1  0  0  0  0
  3 15  1  0  0  0  0
  3  4  2  0  0  0  0
  4  5  1  0  0  0  0
  5  6  2  0  0  0  0
  5 22  1  0  0  0  0
  6  7  1  0  0  0  0
  7  8  1  0  0  0  0
  7 15  2  0  0  0  0
  8  9  1  0  0  0  0
  8 23  1  0  0  0  0
  9 13  1  0  0  0  0
  9 10  1  0  0  0  0
  9 24  1  0  0  0  0
 10 11  1  0  0  0  0
 10 25  1  0  0  0  0
 10 26  1  0  0  0  0
 11 12  1  0  0  0  0
 12 13  1  0  0  0  0
 12 27  1  0  0  0  0
 12 28  1  0  0  0  0
 13 14  1  0  0  0  0
 13 29  1  0  0  0  0
 14 30  1  0  0  0  0
 15 16  1  0  0  0  0
M  END
> <s_m_source_file>
AV-unprocessed.smi

> <i_m_source_file_index>
3204

> <i_lp_mmshare_version>
43012

> <i_f3d_flags>
0

> <s_epik_input>
W0NIM11bQ0gyXWMxbltjSF1uYyhjMUYpW05IXVtDQEBIXTJbQ0gyXU9bQ0gyXVtDQEhdMltPSF0=

> <s_epik_cmdline>
J2VwaWtfcHl0aG9uJywgJy1waCcsICc3LjAnLCAnLXRuJywgJzgnLCAnLW1hJywgJzIwMCcsICctbWV0YWxfYmluZGluZycsICctaW1hZScsICc8aW5maWxlLm1hZT4nLCAnLW9tYWUnLCAnPG91dGZpbGUubWFlPic=

> <r_lp_tautomer_probability>
1

> <r_epik_Ionization_Penalty>
0.000484964

> <r_epik_Ionization_Penalty_Charging>
0

> <r_epik_Ionization_Penalty_Neutral>
0.000484964

> <r_epik_State_Penalty>
-0

> <r_epik_Charging_Adjusted_Penalty>
0

> <i_epik_Tot_Q>
0

> <i_epik_Tot_abs_Q>
0

> <r_epik_Metal_State_Penalty>
-0

> <b_epik_Metal_Only>
0

> <s_lp_Force_Field>
OPLS_2005

> <r_lp_Energy>
13.9367

> <b_lp_Chiralities_Consistent>
1

> <s_lp_Variant>
AV-unprocessed.smi:3204-4

> <Gold.Version>
5.8.1

> <Gold.Id.Protein>
6NUR|6NUR_protein|mol2

> <Gold.PLP.Fitness>
43.3753

> <Gold.PLP.PLP>
-32.7157

> <Gold.PLP.part.hbond>
-4.0000

> <Gold.PLP.part.metal>
0.0000

> <Gold.PLP.part.buried>
-5.2926

> <Gold.PLP.part.nonpolar>
-22.8625

> <Gold.PLP.part.repulsive>
0.3131

> <Gold.PLP.ligand.clash>
0.0000

> <Gold.PLP.ligand.torsion>
0.6636

> <Gold.PLP.Chemscore.Hbond>
3.9920

> <Gold.PLP.Chemscore.CHOScore>
0.0000

> <Gold.PLP.Chemscore.Metal>
0.0000

> <Gold.Chemscore.Hbonds>
donor molecule, donor type, donor heavy atom, donor atom, acceptor molecule, acceptor atom, score
      L1  H     8    23       P1  8028  1.00
      L1  H    14    30       P1  7957  0.98
      P1  H  7989  7998       L1     6  1.00
      P1  H  7997  8008       L1     4  1.00

> <Gold.PLP.Chemscore.Internal.Correction>
0.0108

> <Gold.Rescore>
     Score         DG    S(hbond)    S(metal)    S(lipo)     H(rot)  DE(clash)    DE(int)     intcor
     17.09     -17.90       3.16        0.00      56.08       1.83       0.08       0.73       ----

> <Gold.Chemscore.Fitness>
17.0934

> <Gold.Chemscore.DG>
-17.8976

> <Gold.Chemscore.ZeroCoef>
-5.4800

> <Gold.Chemscore.Hbond>
3.1589

> <Gold.Chemscore.Metal>
0.0000

> <Gold.Chemscore.Lipo>
56.0765

> <Gold.Chemscore.Internal_Hbond>
0.0000

> <Gold.Chemscore.DEClash>
0.0770

> <Gold.Chemscore.DEInternal>
0.7271

> <Gold.Chemscore.Rot>
1.8337

> <Gold.Chemscore.Internal.Correction>
   9.000000E+99

> <Gold.Chemscore.Hbonds>
donor molecule, donor type, donor heavy atom, donor atom, acceptor molecule, acceptor atom, score
      L1  H     8    23       P1  8028  0.96
      L1  H    14    30       P1  7957  0.90
      P1  H  7989  7998       L1     6  0.52
      P1  H  7997  8008       L1     4  0.30

> <Gold.Chemscore.Hbond.Weighted>
-10.5508

> <Gold.Chemscore.Metal.Weighted>
-0.0000

> <Gold.Chemscore.Lipo.Weighted>
-6.5610

> <Gold.Chemscore.Internal_Hbond.Weighted>
0.0000

> <Gold.Chemscore.DEClash.Weighted>
0.0770

> <Gold.Chemscore.DEInternal.Weighted>
0.7271

> <Gold.Chemscore.Rot.Weighted>
4.6942

> <Gold.Chemscore.Internal.Correction.Weighted>
   9.000000E+99

> <Gold.Protein.RotatedTorsions>
[ 6907 6896 6895 6894 ] final -127.22 input  -60.11 | X-H torsion
[ 7974 7965 7964 7962 ] final   26.62 input  175.53 | X-H torsion
[ 8008 7997 7996 7995 ] final  -59.72 input   59.86 | X-H torsion
[ 10167 10162 10161 10158 ] final   90.73 input  -65.29 | X-H torsion
[ 10718 10713 10712 10709 ] final  -34.51 input   66.30 | X-H torsion
[ 10763 10752 10751 10750 ] final   60.77 input  -60.55 | X-H torsion
[ 11005 11000 10999 10996 ] final  -77.43 input  -57.11 | X-H torsion

> <Gold.Protein.ActiveResidues>
 VAL166  LYS551  ARG553  GLY616  TRP617  ASP618  TYR619  PRO620  LYS621  CYS622 
 ASP623  PHE694  ASN695  SER759  ASP760  ASP761  ALA762  ILE779  LEU786  VAL792 
 PHE793  MET794  SER795  GLU796  ALA797  LYS798  CYS799  TRP800  GLU811  SER814 

> <Gold.Protein.RotatedAtoms>
  150.9050  133.7069  159.2868 H   0  0  0  0  0  0  0  0  0  0  0  0  # atno 6907 bound_to 6896
  151.4575  135.1034  159.9725 H   0  0  0  0  0  0  0  0  0  0  0  0  # atno 6908 bound_to 6896
  152.4898  133.8421  159.7213 H   0  0  0  0  0  0  0  0  0  0  0  0  # atno 6909 bound_to 6896
  146.1828  139.7303  142.8888 H   0  0  0  0  0  0  0  0  0  0  0  0  # atno 7974 bound_to 7965
  154.4365  140.1055  156.6160 H   0  0  0  0  0  0  0  0  0  0  0  0  # atno 8008 bound_to 7997
  155.5758  140.3490  155.4508 H   0  0  0  0  0  0  0  0  0  0  0  0  # atno 8009 bound_to 7997
  156.0355  140.1270  157.0201 H   0  0  0  0  0  0  0  0  0  0  0  0  # atno 8010 bound_to 7997
  139.8444  144.6625  150.9244 H   0  0  0  0  0  0  0  0  0  0  0  0  # atno 10167 bound_to 10162
  156.3497  130.4306  149.7715 H   0  0  0  0  0  0  0  0  0  0  0  0  # atno 10718 bound_to 10713
  152.9931  135.5524  154.5927 H   0  0  0  0  0  0  0  0  0  0  0  0  # atno 10763 bound_to 10752
  154.5285  135.2812  155.1203 H   0  0  0  0  0  0  0  0  0  0  0  0  # atno 10764 bound_to 10752
  154.2527  135.6396  153.5299 H   0  0  0  0  0  0  0  0  0  0  0  0  # atno 10765 bound_to 10752
  141.1660  133.7022  156.7820 H   0  0  0  0  0  0  0  0  0  0  0  0  # atno 11005 bound_to 11000
  145.4028  141.0387  143.3061 LP  0  0  0  0  0  0  0  0  0  0  0  0  # atno 17320 bound_to 7965
  144.8344  139.5575  143.6929 LP  0  0  0  0  0  0  0  0  0  0  0  0  # atno 17321 bound_to 7965
  140.7794  143.3883  151.1354 LP  0  0  0  0  0  0  0  0  0  0  0  0  # atno 17342 bound_to 10162
  139.7527  143.8755  152.3081 LP  0  0  0  0  0  0  0  0  0  0  0  0  # atno 17343 bound_to 10162
  156.4921  130.8089  151.3099 LP  0  0  0  0  0  0  0  0  0  0  0  0  # atno 17370 bound_to 10713
  157.7459  130.9972  150.2807 LP  0  0  0  0  0  0  0  0  0  0  0  0  # atno 17371 bound_to 10713
  140.2388  134.8630  157.3552 LP  0  0  0  0  0  0  0  0  0  0  0  0  # atno 17394 bound_to 11000
  140.1817  134.4481  155.7768 LP  0  0  0  0  0  0  0  0  0  0  0  0  # atno 17395 bound_to 11000

$$$$
