AV-unprocessed.smi:2655|AV-procd|sdf|10304|dock3
  -GOLD-   2272014323D 1   1.00000     0.00000
 Structure written by MMmdl.
 33 34  0  0  0  0  0  0  0  0  2 V2000
  152.0704  140.7280  158.2933 C   0  0  0  0  0  0  0  0  0  0  0  0
  151.1813  141.1311  157.1520 C   0  0  0  0  0  0  0  0  0  0  0  0
  150.6028  142.3281  157.1781 N   0  0  0  0  0  0  0  0  0  0  0  0
  149.8855  142.3782  156.0400 N   0  0  0  0  0  0  0  0  0  0  0  0
  150.0162  141.2251  155.3090 C   0  0  0  0  0  0  0  0  0  0  0  0
  149.3685  141.0688  154.1230 O   0  0  0  0  0  0  0  0  0  0  0  0
  150.8507  140.3802  155.9807 C   0  0  0  0  0  0  0  0  0  0  0  0
  151.3090  138.9995  155.5938 C   0  0  0  0  0  0  0  0  0  0  0  0
  151.5677  138.1244  156.8272 C   0  0  0  0  0  0  0  0  0  0  0  0
  150.3944  138.0952  157.6907 N   0  0  0  0  0  0  0  0  0  0  0  0
  150.3377  137.5158  158.8974 C   0  0  0  0  0  0  0  0  0  0  0  0
  151.3359  136.9551  159.3558 O   0  0  0  0  0  0  0  0  0  0  0  0
  149.1293  137.6221  159.4976 N   0  5  0  0  0  0  0  0  0  0  0  0
  148.8873  136.9772  160.6493 C   0  0  0  0  0  0  0  0  0  0  0  0
  148.8880  135.5677  160.8360 C   0  0  0  0  0  0  0  0  0  0  0  0
  148.6079  135.4285  162.1657 C   0  0  0  0  0  0  0  0  0  0  0  0
  148.4494  134.2368  163.0471 C   0  0  0  0  0  0  0  0  0  0  0  0
  148.4574  136.6491  162.7465 O   0  0  0  0  0  0  0  0  0  0  0  0
  148.6439  137.6352  161.7704 N   0  0  0  0  0  0  0  0  0  0  0  0
  152.1944  139.6459  158.3375 H   0  0  0  0  0  0  0  0  0  0  0  0
  151.6573  141.0487  159.2501 H   0  0  0  0  0  0  0  0  0  0  0  0
  153.0609  141.1715  158.1914 H   0  0  0  0  0  0  0  0  0  0  0  0
  149.3315  143.1850  155.7900 H   0  0  0  0  0  0  0  0  0  0  0  0
  152.2180  139.0544  154.9936 H   0  0  0  0  0  0  0  0  0  0  0  0
  150.5666  138.5144  154.9590 H   0  0  0  0  0  0  0  0  0  0  0  0
  151.8170  137.1077  156.5188 H   0  0  0  0  0  0  0  0  0  0  0  0
  152.4187  138.5101  157.3908 H   0  0  0  0  0  0  0  0  0  0  0  0
  149.5582  138.5454  157.3482 H   0  0  0  0  0  0  0  0  0  0  0  0
  149.0621  134.7874  160.1103 H   0  0  0  0  0  0  0  0  0  0  0  0
  149.3647  133.6452  163.0629 H   0  0  0  0  0  0  0  0  0  0  0  0
  147.6398  133.5997  162.6909 H   0  0  0  0  0  0  0  0  0  0  0  0
  148.2208  134.5320  164.0714 H   0  0  0  0  0  0  0  0  0  0  0  0
  149.0007  140.1991  154.1050 H   0  0  0  0  0  0  0  0  0  0  0  0
  1 20  1  0  0  0  0
  1 21  1  0  0  0  0
  1 22  1  0  0  0  0
  1  2  1  0  0  0  0
  2  7  1  0  0  0  0
  2  3  2  0  0  0  0
  3  4  1  0  0  0  0
  4 23  1  0  0  0  0
  4  5  1  0  0  0  0
  5  7  2  0  0  0  0
  5  6  1  0  0  0  0
  6 33  1  0  0  0  0
  7  8  1  0  0  0  0
  8  9  1  0  0  0  0
  8 24  1  0  0  0  0
  8 25  1  0  0  0  0
  9 10  1  0  0  0  0
  9 26  1  0  0  0  0
  9 27  1  0  0  0  0
 10 11  1  0  0  0  0
 10 28  1  0  0  0  0
 11 12  2  0  0  0  0
 11 13  1  0  0  0  0
 13 14  1  0  0  0  0
 14 19  2  0  0  0  0
 14 15  1  0  0  0  0
 15 16  2  0  0  0  0
 15 29  1  0  0  0  0
 16 17  1  0  0  0  0
 16 18  1  0  0  0  0
 17 30  1  0  0  0  0
 17 31  1  0  0  0  0
 17 32  1  0  0  0  0
 18 19  1  0  0  0  0
M  CHG  1  13  -1
M  END
> <s_m_source_file>
AV-unprocessed.smi

> <i_m_source_file_index>
2655

> <i_lp_mmshare_version>
43012

> <i_f3d_flags>
0

> <s_epik_input>
W0NIM11DMT1OW05IXUMoPU8pW0NASF0xW0NIMl1bQ0gyXVtOSF1DKD1PKVtOSF1jMltjSF1jKFtDSDNdKW9uMg==

> <s_epik_cmdline>
J2VwaWtfcHl0aG9uJywgJy1waCcsICc3LjAnLCAnLXRuJywgJzgnLCAnLW1hJywgJzIwMCcsICctbWV0YWxfYmluZGluZycsICctaW1hZScsICc8aW5maWxlLm1hZT4nLCAnLW9tYWUnLCAnPG91dGZpbGUubWFlPic=

> <r_lp_tautomer_probability>
0.0227396

> <r_epik_Ionization_Penalty>
10.1454

> <r_epik_Ionization_Penalty_Charging>
6.5559

> <r_epik_Ionization_Penalty_Neutral>
3.58948

> <r_epik_State_Penalty>
8.16616

> <r_epik_Charging_Adjusted_Penalty>
14.7221

> <i_epik_Tot_Q>
-1

> <i_epik_Tot_abs_Q>
1

> <r_epik_Metal_State_Penalty>
5.48631

> <b_epik_Metal_Only>
1

> <s_lp_Force_Field>
OPLS_2005

> <r_lp_Energy>
-4.29972

> <b_lp_Chiralities_Consistent>
1

> <s_lp_Variant>
AV-unprocessed.smi:2655-7

> <Gold.Version>
5.8.1

> <Gold.Id.Protein>
6NUR|6NUR_protein|mol2

> <Gold.PLP.Fitness>
43.9304

> <Gold.PLP.PLP>
-31.6526

> <Gold.PLP.part.hbond>
-7.0000

> <Gold.PLP.part.metal>
0.0000

> <Gold.PLP.part.buried>
-4.1033

> <Gold.PLP.part.nonpolar>
-19.7309

> <Gold.PLP.part.repulsive>
0.2800

> <Gold.PLP.ligand.clash>
0.0000

> <Gold.PLP.ligand.torsion>
1.0145

> <Gold.PLP.Chemscore.Hbond>
4.7506

> <Gold.PLP.Chemscore.CHOScore>
0.0000

> <Gold.PLP.Chemscore.Metal>
0.0000

> <Gold.Chemscore.Hbonds>
donor molecule, donor type, donor heavy atom, donor atom, acceptor molecule, acceptor atom, score
      L1  H     4    23       P1  8028  1.00
      P1  H  6896  6909       L1    12  0.69
      P1  H  6934  6947       L1    19  0.12
      P1  H  8011  8017       L1     6  0.31

> <Gold.PLP.Chemscore.Internal.Correction>
0.0551

> <Gold.Rescore>
     Score         DG    S(hbond)    S(metal)    S(lipo)     H(rot)  DE(clash)    DE(int)     intcor
     14.58     -16.46       3.36        0.00      52.31       2.49       0.04       1.84       ----

> <Gold.Chemscore.Fitness>
14.5772

> <Gold.Chemscore.DG>
-16.4564

> <Gold.Chemscore.ZeroCoef>
-5.4800

> <Gold.Chemscore.Hbond>
3.3641

> <Gold.Chemscore.Metal>
0.0000

> <Gold.Chemscore.Lipo>
52.3105

> <Gold.Chemscore.Internal_Hbond>
0.0000

> <Gold.Chemscore.DEClash>
0.0411

> <Gold.Chemscore.DEInternal>
1.8380

> <Gold.Chemscore.Rot>
2.4922

> <Gold.Chemscore.Internal.Correction>
   9.000000E+99

> <Gold.Chemscore.Hbonds>
donor molecule, donor type, donor heavy atom, donor atom, acceptor molecule, acceptor atom, score
      L1  H     4    23       P1  8028  0.98
      P1  H  6896  6909       L1    12  0.54
      P1  H  6934  6947       L1    19  0.02
      P1  H  8011  8017       L1     6  0.31

> <Gold.Chemscore.Hbond.Weighted>
-11.2360

> <Gold.Chemscore.Metal.Weighted>
-0.0000

> <Gold.Chemscore.Lipo.Weighted>
-6.1203

> <Gold.Chemscore.Internal_Hbond.Weighted>
0.0000

> <Gold.Chemscore.DEClash.Weighted>
0.0411

> <Gold.Chemscore.DEInternal.Weighted>
1.8380

> <Gold.Chemscore.Rot.Weighted>
6.3800

> <Gold.Chemscore.Internal.Correction.Weighted>
   9.000000E+99

> <Gold.Protein.RotatedTorsions>
[ 6907 6896 6895 6894 ] final   79.63 input  -60.11 | X-H torsion
[ 7974 7965 7964 7962 ] final  117.35 input  175.53 | X-H torsion
[ 8008 7997 7996 7995 ] final -163.34 input   59.86 | X-H torsion
[ 10167 10162 10161 10158 ] final   99.08 input  -65.29 | X-H torsion
[ 10718 10713 10712 10709 ] final -158.86 input   66.30 | X-H torsion
[ 10763 10752 10751 10750 ] final -159.09 input  -60.55 | X-H torsion
[ 11005 11000 10999 10996 ] final   89.01 input  -57.11 | X-H torsion

> <Gold.Protein.ActiveResidues>
 VAL166  LYS551  ARG553  GLY616  TRP617  ASP618  TYR619  PRO620  LYS621  CYS622 
 ASP623  PHE694  ASN695  SER759  ASP760  ASP761  ALA762  ILE779  LEU786  VAL792 
 PHE793  MET794  SER795  GLU796  ALA797  LYS798  CYS799  TRP800  GLU811  SER814 

> <Gold.Protein.RotatedAtoms>
  152.5206  134.3481  159.9241 H   0  0  0  0  0  0  0  0  0  0  0  0  # atno 6907 bound_to 6896
  151.3432  133.3948  159.2681 H   0  0  0  0  0  0  0  0  0  0  0  0  # atno 6908 bound_to 6896
  150.9787  134.9164  159.7889 H   0  0  0  0  0  0  0  0  0  0  0  0  # atno 6909 bound_to 6896
  145.1684  139.3115  143.4480 H   0  0  0  0  0  0  0  0  0  0  0  0  # atno 7974 bound_to 7965
  155.8198  140.0918  157.1855 H   0  0  0  0  0  0  0  0  0  0  0  0  # atno 8008 bound_to 7997
  154.3979  140.1439  156.3546 H   0  0  0  0  0  0  0  0  0  0  0  0  # atno 8009 bound_to 7997
  155.8278  140.3444  155.5556 H   0  0  0  0  0  0  0  0  0  0  0  0  # atno 8010 bound_to 7997
  139.7650  144.6942  151.0237 H   0  0  0  0  0  0  0  0  0  0  0  0  # atno 10167 bound_to 10162
  156.5600  130.8643  151.2806 H   0  0  0  0  0  0  0  0  0  0  0  0  # atno 10718 bound_to 10713
  154.7503  135.3090  154.8570 H   0  0  0  0  0  0  0  0  0  0  0  0  # atno 10763 bound_to 10752
  153.9359  135.6780  153.4749 H   0  0  0  0  0  0  0  0  0  0  0  0  # atno 10764 bound_to 10752
  153.1099  135.4871  154.8944 H   0  0  0  0  0  0  0  0  0  0  0  0  # atno 10765 bound_to 10752
  139.8884  134.8524  156.3081 H   0  0  0  0  0  0  0  0  0  0  0  0  # atno 11005 bound_to 11000
  146.3472  140.1821  142.8589 LP  0  0  0  0  0  0  0  0  0  0  0  0  # atno 17320 bound_to 7965
  145.0258  140.8831  143.5139 LP  0  0  0  0  0  0  0  0  0  0  0  0  # atno 17321 bound_to 7965
  140.7810  143.4653  151.0221 LP  0  0  0  0  0  0  0  0  0  0  0  0  # atno 17342 bound_to 10162
  139.8338  143.7655  152.3180 LP  0  0  0  0  0  0  0  0  0  0  0  0  # atno 17343 bound_to 10162
  157.7370  130.9789  150.2170 LP  0  0  0  0  0  0  0  0  0  0  0  0  # atno 17370 bound_to 10713
  156.2808  130.3733  149.7938 LP  0  0  0  0  0  0  0  0  0  0  0  0  # atno 17371 bound_to 10713
  140.9868  133.7233  156.0754 LP  0  0  0  0  0  0  0  0  0  0  0  0  # atno 17394 bound_to 11000
  140.7677  134.3868  157.5514 LP  0  0  0  0  0  0  0  0  0  0  0  0  # atno 17395 bound_to 11000

$$$$
