AV-unprocessed.smi:2676|AV-procd|sdf|10364|dock3
  -GOLD-   2272014393D 1   1.00000     0.00000
 Structure written by MMmdl.
 40 41  0  0  0  0  0  0  0  0  1 V2000
  152.7225  138.7240  154.7008 C   0  0  0  0  0  0  0  0  0  0  0  0
  151.5157  139.2721  154.9062 C   0  0  0  0  0  0  0  0  0  0  0  0
  150.6839  139.0730  156.1606 C   0  0  0  0  0  0  0  0  0  0  0  0
  150.2845  140.3671  156.7582 N   0  0  0  0  0  0  0  0  0  0  0  0
  151.2512  141.1513  157.3228 C   0  0  0  0  0  0  0  0  0  0  0  0
  152.4345  140.8000  157.3518 O   0  0  0  0  0  0  0  0  0  0  0  0
  150.8423  142.3371  157.8659 N   0  0  0  0  0  0  0  0  0  0  0  0
  151.8554  143.2128  158.4969 C   0  0  0  0  0  0  0  0  0  0  0  0
  151.9074  144.5740  157.8265 C   0  0  0  0  0  0  0  0  0  0  0  0
  151.5500  145.7242  158.4163 C   0  0  0  0  0  0  0  0  0  0  0  0
  149.5355  142.7353  157.8967 C   0  0  0  0  0  0  0  0  0  0  0  0
  149.1936  143.7950  158.4305 O   0  0  0  0  0  0  0  0  0  0  0  0
  148.6220  141.8967  157.3208 N   0  0  0  0  0  0  0  0  0  0  0  0
  147.1884  142.2806  157.3584 C   0  0  0  0  0  0  0  0  0  0  0  0
  146.6969  142.6888  158.7571 C   0  0  0  0  0  0  0  0  0  0  0  0
  146.4723  141.8416  159.6232 O   0  0  0  0  0  0  0  0  0  0  0  0
  146.5393  144.0051  158.9567 N   0  0  0  0  0  0  0  0  0  0  0  0
  146.1050  144.6132  160.1725 C   0  0  0  0  0  0  0  0  0  0  0  0
  147.0115  145.6462  160.8058 C   0  0  0  0  0  0  0  0  0  0  0  0
  146.8751  144.2865  161.4338 C   0  0  0  0  0  0  0  0  0  0  0  0
  148.9587  140.6984  156.7556 C   0  0  0  0  0  0  0  0  0  0  0  0
  148.1041  139.9471  156.2762 O   0  0  0  0  0  0  0  0  0  0  0  0
  153.1857  138.0921  155.4442 H   0  0  0  0  0  0  0  0  0  0  0  0
  153.2635  138.9023  153.7833 H   0  0  0  0  0  0  0  0  0  0  0  0
  151.0838  139.8972  154.1380 H   0  0  0  0  0  0  0  0  0  0  0  0
  149.8169  138.4637  155.9005 H   0  0  0  0  0  0  0  0  0  0  0  0
  151.2321  138.4518  156.8713 H   0  0  0  0  0  0  0  0  0  0  0  0
  151.6548  143.3638  159.5588 H   0  0  0  0  0  0  0  0  0  0  0  0
  152.8475  142.7575  158.4838 H   0  0  0  0  0  0  0  0  0  0  0  0
  152.2545  144.5923  156.8034 H   0  0  0  0  0  0  0  0  0  0  0  0
  151.1972  145.7453  159.4370 H   0  0  0  0  0  0  0  0  0  0  0  0
  151.6073  146.6620  157.8836 H   0  0  0  0  0  0  0  0  0  0  0  0
  146.9783  143.1008  156.6697 H   0  0  0  0  0  0  0  0  0  0  0  0
  146.5533  141.4727  156.9905 H   0  0  0  0  0  0  0  0  0  0  0  0
  146.7468  144.6266  158.1883 H   0  0  0  0  0  0  0  0  0  0  0  0
  145.0349  144.7739  160.2972 H   0  0  0  0  0  0  0  0  0  0  0  0
  147.9498  145.8767  160.3044 H   0  0  0  0  0  0  0  0  0  0  0  0
  146.5376  146.4839  161.3134 H   0  0  0  0  0  0  0  0  0  0  0  0
  146.3111  144.2167  162.3618 H   0  0  0  0  0  0  0  0  0  0  0  0
  147.7233  143.6091  161.3528 H   0  0  0  0  0  0  0  0  0  0  0  0
  1  2  2  0  0  0  0
  1 23  1  0  0  0  0
  1 24  1  0  0  0  0
  2  3  1  0  0  0  0
  2 25  1  0  0  0  0
  3  4  1  0  0  0  0
  3 26  1  0  0  0  0
  3 27  1  0  0  0  0
  4 21  1  0  0  0  0
  4  5  1  0  0  0  0
  5  6  2  0  0  0  0
  5  7  1  0  0  0  0
  7  8  1  0  0  0  0
  7 11  1  0  0  0  0
  8  9  1  0  0  0  0
  8 28  1  0  0  0  0
  8 29  1  0  0  0  0
  9 10  2  0  0  0  0
  9 30  1  0  0  0  0
 10 31  1  0  0  0  0
 10 32  1  0  0  0  0
 11 12  2  0  0  0  0
 11 13  1  0  0  0  0
 13 14  1  0  0  0  0
 13 21  1  0  0  0  0
 14 15  1  0  0  0  0
 14 33  1  0  0  0  0
 14 34  1  0  0  0  0
 15 16  2  0  0  0  0
 15 17  1  0  0  0  0
 17 18  1  0  0  0  0
 17 35  1  0  0  0  0
 18 20  1  0  0  0  0
 18 19  1  0  0  0  0
 18 36  1  0  0  0  0
 19 20  1  0  0  0  0
 19 37  1  0  0  0  0
 19 38  1  0  0  0  0
 20 39  1  0  0  0  0
 20 40  1  0  0  0  0
 21 22  2  0  0  0  0
M  END
> <s_m_source_file>
AV-unprocessed.smi

> <i_m_source_file_index>
2676

> <i_lp_mmshare_version>
43012

> <i_f3d_flags>
0

> <s_epik_input>
W0NIMl09W0NIXVtDSDJdbjFjKD1PKW4oW0NIMl1bQ0hdPVtDSDJdKWMoPU8pbihjMT1PKVtDSDJdQyg9TylbTkhdW0NIXTJbQ0gyXVtDSDJdMg==

> <s_epik_cmdline>
J2VwaWtfcHl0aG9uJywgJy1waCcsICc3LjAnLCAnLXRuJywgJzgnLCAnLW1hJywgJzIwMCcsICctbWV0YWxfYmluZGluZycsICctaW1hZScsICc8aW5maWxlLm1hZT4nLCAnLW9tYWUnLCAnPG91dGZpbGUubWFlPic=

> <r_lp_tautomer_probability>
1

> <r_epik_Ionization_Penalty>
2.07961e-08

> <r_epik_Ionization_Penalty_Charging>
1.25795e-10

> <r_epik_Ionization_Penalty_Neutral>
2.06703e-08

> <r_epik_State_Penalty>
-0

> <r_epik_Charging_Adjusted_Penalty>
1.25795e-10

> <i_epik_Tot_Q>
0

> <i_epik_Tot_abs_Q>
0

> <r_epik_Metal_State_Penalty>
-0

> <b_epik_Metal_Only>
0

> <s_lp_Force_Field>
OPLS_2005

> <r_lp_Energy>
27.3169

> <b_lp_Chiralities_Consistent>
1

> <s_lp_Variant>
AV-unprocessed.smi:2676-1

> <Gold.Version>
5.8.1

> <Gold.Id.Protein>
6NUR|6NUR_protein|mol2

> <Gold.PLP.Fitness>
49.1294

> <Gold.PLP.PLP>
-41.5349

> <Gold.PLP.part.hbond>
-3.0000

> <Gold.PLP.part.metal>
0.0000

> <Gold.PLP.part.buried>
-4.5287

> <Gold.PLP.part.nonpolar>
-34.5067

> <Gold.PLP.part.repulsive>
0.2739

> <Gold.PLP.ligand.clash>
0.0000

> <Gold.PLP.ligand.torsion>
0.4090

> <Gold.PLP.Chemscore.Hbond>
2.7670

> <Gold.PLP.Chemscore.CHOScore>
0.0000

> <Gold.PLP.Chemscore.Metal>
0.0000

> <Gold.Chemscore.Hbonds>
donor molecule, donor type, donor heavy atom, donor atom, acceptor molecule, acceptor atom, score
      L1  H    17    35       P1  8029  1.00
      P1  H  6934  6946       L1    16  0.99
      P1  H  7997  8008       L1     6  0.41

> <Gold.PLP.Chemscore.Internal.Correction>
0.1116

> <Gold.Rescore>
     Score         DG    S(hbond)    S(metal)    S(lipo)     H(rot)  DE(clash)    DE(int)     intcor
     15.40     -17.53       2.63        0.00      80.16       2.39       0.07       2.06       ----

> <Gold.Chemscore.Fitness>
15.4040

> <Gold.Chemscore.DG>
-17.5346

> <Gold.Chemscore.ZeroCoef>
-5.4800

> <Gold.Chemscore.Hbond>
2.6330

> <Gold.Chemscore.Metal>
0.0000

> <Gold.Chemscore.Lipo>
80.1565

> <Gold.Chemscore.Internal_Hbond>
0.0000

> <Gold.Chemscore.DEClash>
0.0713

> <Gold.Chemscore.DEInternal>
2.0593

> <Gold.Chemscore.Rot>
2.3899

> <Gold.Chemscore.Internal.Correction>
   9.000000E+99

> <Gold.Chemscore.Hbonds>
donor molecule, donor type, donor heavy atom, donor atom, acceptor molecule, acceptor atom, score
      L1  H    17    35       P1  8029  0.76
      P1  H  6934  6946       L1    16  0.89
      P1  H  7997  8008       L1     6  0.42

> <Gold.Chemscore.Hbond.Weighted>
-8.7944

> <Gold.Chemscore.Metal.Weighted>
-0.0000

> <Gold.Chemscore.Lipo.Weighted>
-9.3783

> <Gold.Chemscore.Internal_Hbond.Weighted>
0.0000

> <Gold.Chemscore.DEClash.Weighted>
0.0713

> <Gold.Chemscore.DEInternal.Weighted>
2.0593

> <Gold.Chemscore.Rot.Weighted>
6.1181

> <Gold.Chemscore.Internal.Correction.Weighted>
   9.000000E+99

> <Gold.Protein.RotatedTorsions>
[ 6907 6896 6895 6894 ] final -174.50 input  -60.11 | X-H torsion
[ 7974 7965 7964 7962 ] final -134.30 input  175.53 | X-H torsion
[ 8008 7997 7996 7995 ] final  -70.47 input   59.86 | X-H torsion
[ 10167 10162 10161 10158 ] final  -19.13 input  -65.29 | X-H torsion
[ 10718 10713 10712 10709 ] final  -11.18 input   66.30 | X-H torsion
[ 10763 10752 10751 10750 ] final -149.67 input  -60.55 | X-H torsion
[ 11005 11000 10999 10996 ] final   -2.55 input  -57.11 | X-H torsion

> <Gold.Protein.ActiveResidues>
 VAL166  LYS551  ARG553  GLY616  TRP617  ASP618  TYR619  PRO620  LYS621  CYS622 
 ASP623  PHE694  ASN695  SER759  ASP760  ASP761  ALA762  ILE779  LEU786  VAL792 
 PHE793  MET794  SER795  GLU796  ALA797  LYS798  CYS799  TRP800  GLU811  SER814 

> <Gold.Protein.RotatedAtoms>
  151.5734  133.3387  159.2993 H   0  0  0  0  0  0  0  0  0  0  0  0  # atno 6907 bound_to 6896
  150.8354  134.7628  159.6900 H   0  0  0  0  0  0  0  0  0  0  0  0  # atno 6908 bound_to 6896
  152.4431  134.5556  159.9931 H   0  0  0  0  0  0  0  0  0  0  0  0  # atno 6909 bound_to 6896
  144.9116  140.6901  143.5022 H   0  0  0  0  0  0  0  0  0  0  0  0  # atno 7974 bound_to 7965
  154.5014  140.0834  156.7805 H   0  0  0  0  0  0  0  0  0  0  0  0  # atno 8008 bound_to 7997
  155.3994  140.3436  155.4238 H   0  0  0  0  0  0  0  0  0  0  0  0  # atno 8009 bound_to 7997
  156.1461  140.1544  156.8832 H   0  0  0  0  0  0  0  0  0  0  0  0  # atno 8010 bound_to 7997
  140.7265  143.4848  151.0069 H   0  0  0  0  0  0  0  0  0  0  0  0  # atno 10167 bound_to 10162
  156.6627  130.4986  149.6025 H   0  0  0  0  0  0  0  0  0  0  0  0  # atno 10718 bound_to 10713
  154.8164  135.3303  154.7165 H   0  0  0  0  0  0  0  0  0  0  0  0  # atno 10763 bound_to 10752
  153.7805  135.6919  153.4894 H   0  0  0  0  0  0  0  0  0  0  0  0  # atno 10764 bound_to 10752
  153.1983  135.4525  155.0183 H   0  0  0  0  0  0  0  0  0  0  0  0  # atno 10765 bound_to 10752
  140.6595  133.9332  155.8428 H   0  0  0  0  0  0  0  0  0  0  0  0  # atno 11005 bound_to 11000
  145.3446  139.1723  143.4467 LP  0  0  0  0  0  0  0  0  0  0  0  0  # atno 17320 bound_to 7965
  146.3161  140.3490  142.8654 LP  0  0  0  0  0  0  0  0  0  0  0  0  # atno 17321 bound_to 7965
  139.8549  143.7390  152.3176 LP  0  0  0  0  0  0  0  0  0  0  0  0  # atno 17342 bound_to 10162
  139.7585  144.7513  151.0399 LP  0  0  0  0  0  0  0  0  0  0  0  0  # atno 17343 bound_to 10162
  156.1998  130.6613  151.1155 LP  0  0  0  0  0  0  0  0  0  0  0  0  # atno 17370 bound_to 10713
  157.7104  131.0737  150.6521 LP  0  0  0  0  0  0  0  0  0  0  0  0  # atno 17371 bound_to 10713
  141.0476  134.0532  157.3825 LP  0  0  0  0  0  0  0  0  0  0  0  0  # atno 17394 bound_to 11000
  139.9018  135.0167  156.7302 LP  0  0  0  0  0  0  0  0  0  0  0  0  # atno 17395 bound_to 11000

$$$$
