AV-unprocessed.smi:233|AV-procd|sdf|1784|dock9
  -GOLD-   2262020333D 1   1.00000     0.00000
 Structure written by MMmdl.
 59 62  0  0  0  0  0  0  0  0  1 V2000
  154.3080  126.8682  158.8357 C   0  0  0  0  0  0  0  0  0  0  0  0
  154.2015  126.8368  157.3150 C   0  0  0  0  0  0  0  0  0  0  0  0
  154.3061  125.7697  156.7109 O   0  0  0  0  0  0  0  0  0  0  0  0
  153.9926  128.0164  156.7110 N   0  0  0  0  0  0  0  0  0  0  0  0
  153.8604  128.2220  155.2693 C   0  0  2  0  0  0  0  0  0  0  0  0
  153.6871  129.7131  154.9220 C   0  0  0  0  0  0  0  0  0  0  0  0
  152.3286  130.2662  155.3854 C   0  0  0  0  0  0  0  0  0  0  0  0
  151.1413  129.4585  154.8093 C   0  0  2  0  0  0  0  0  0  0  0  0
  149.8527  130.0031  155.2654 N   0  0  0  0  0  0  0  0  0  0  0  0
  149.7937  130.5522  156.6168 C   0  0  0  0  0  0  0  0  0  0  0  0
  149.2284  130.8322  154.3989 C   0  0  0  0  0  0  0  0  0  0  0  0
  149.6963  132.1011  154.3044 N   0  0  0  0  0  0  0  0  0  0  0  0
  149.1181  132.9637  153.4628 C   0  0  0  0  0  0  0  0  0  0  0  0
  148.0821  132.7653  152.6441 N   0  0  0  0  0  0  0  0  0  0  0  0
  147.6139  131.4872  152.7357 C   0  0  0  0  0  0  0  0  0  0  0  0
  148.1291  130.4604  153.5750 C   0  0  0  0  0  0  0  0  0  0  0  0
  147.4138  129.2852  153.3819 N   0  0  0  0  0  0  0  0  0  0  0  0
  146.5259  129.5996  152.4786 C   0  0  0  0  0  0  0  0  0  0  0  0
  146.5564  130.9100  152.0561 N   0  0  0  0  0  0  0  0  0  0  0  0
  145.7246  131.5162  151.0588 C   0  0  0  0  0  0  0  0  0  0  0  0
  146.1812  132.7747  150.3182 C   0  0  0  0  0  0  0  0  0  0  0  0
  144.7114  133.2424  150.2209 C   0  0  0  0  0  0  0  0  0  0  0  0
  144.4722  134.7387  150.4817 C   0  0  0  0  0  0  0  0  0  0  0  0
  144.8985  135.5226  149.3861 O   0  0  0  0  0  0  0  0  0  0  0  0
  143.9742  132.8282  148.9313 C   0  0  0  0  0  0  0  0  0  0  0  0
  142.6541  132.4035  149.2044 O   0  0  0  0  0  0  0  0  0  0  0  0
  144.4775  132.3191  151.4372 C   0  0  0  0  0  0  0  0  0  0  0  0
  151.3180  127.9613  155.1769 C   0  0  0  0  0  0  0  0  0  0  0  0
  152.6780  127.4053  154.7197 C   0  0  0  0  0  0  0  0  0  0  0  0
  154.9400  127.6952  159.1618 H   0  0  0  0  0  0  0  0  0  0  0  0
  154.7410  125.9407  159.2119 H   0  0  0  0  0  0  0  0  0  0  0  0
  153.3204  126.9912  159.2810 H   0  0  0  0  0  0  0  0  0  0  0  0
  153.9210  128.8382  157.2932 H   0  0  0  0  0  0  0  0  0  0  0  0
  154.7708  127.8556  154.7917 H   0  0  0  0  0  0  0  0  0  0  0  0
  154.4958  130.3034  155.3540 H   0  0  0  0  0  0  0  0  0  0  0  0
  153.7696  129.8386  153.8417 H   0  0  0  0  0  0  0  0  0  0  0  0
  152.2833  130.2640  156.4753 H   0  0  0  0  0  0  0  0  0  0  0  0
  152.2677  131.3101  155.0784 H   0  0  0  0  0  0  0  0  0  0  0  0
  151.1767  129.5498  153.7232 H   0  0  0  0  0  0  0  0  0  0  0  0
  148.9107  131.1756  156.7690 H   0  0  0  0  0  0  0  0  0  0  0  0
  150.6763  131.1576  156.8270 H   0  0  0  0  0  0  0  0  0  0  0  0
  149.7486  129.7456  157.3485 H   0  0  0  0  0  0  0  0  0  0  0  0
  149.5457  133.9552  153.4435 H   0  0  0  0  0  0  0  0  0  0  0  0
  145.8163  128.8785  152.0996 H   0  0  0  0  0  0  0  0  0  0  0  0
  145.4735  130.7227  150.3528 H   0  0  0  0  0  0  0  0  0  0  0  0
  146.7966  133.4237  150.9443 H   0  0  0  0  0  0  0  0  0  0  0  0
  146.6709  132.5803  149.3634 H   0  0  0  0  0  0  0  0  0  0  0  0
  143.4122  134.9390  150.6403 H   0  0  0  0  0  0  0  0  0  0  0  0
  144.9839  135.0779  151.3824 H   0  0  0  0  0  0  0  0  0  0  0  0
  145.3256  134.9570  148.7609 H   0  0  0  0  0  0  0  0  0  0  0  0
  143.9158  133.6582  148.2272 H   0  0  0  0  0  0  0  0  0  0  0  0
  144.5001  132.0277  148.4105 H   0  0  0  0  0  0  0  0  0  0  0  0
  142.1478  133.1541  149.4750 H   0  0  0  0  0  0  0  0  0  0  0  0
  143.5477  131.7504  151.4085 H   0  0  0  0  0  0  0  0  0  0  0  0
  144.5870  132.8409  152.3899 H   0  0  0  0  0  0  0  0  0  0  0  0
  151.2116  127.8327  156.2549 H   0  0  0  0  0  0  0  0  0  0  0  0
  150.5373  127.3532  154.7196 H   0  0  0  0  0  0  0  0  0  0  0  0
  152.7140  127.4141  153.6295 H   0  0  0  0  0  0  0  0  0  0  0  0
  152.7722  126.3598  155.0162 H   0  0  0  0  0  0  0  0  0  0  0  0
  1  2  1  0  0  0  0
  1 30  1  0  0  0  0
  1 31  1  0  0  0  0
  1 32  1  0  0  0  0
  2  3  2  0  0  0  0
  2  4  1  0  0  0  0
  4  5  1  0  0  0  0
  4 33  1  0  0  0  0
  5 29  1  0  0  0  0
  5  6  1  0  0  0  0
  5 34  1  0  0  0  0
  6  7  1  0  0  0  0
  6 35  1  0  0  0  0
  6 36  1  0  0  0  0
  7  8  1  0  0  0  0
  7 37  1  0  0  0  0
  7 38  1  0  0  0  0
  8  9  1  0  0  0  0
  8 28  1  0  0  0  0
  8 39  1  0  0  0  0
  9 10  1  0  0  0  0
  9 11  1  0  0  0  0
 10 40  1  0  0  0  0
 10 41  1  0  0  0  0
 10 42  1  0  0  0  0
 11 16  1  0  0  0  0
 11 12  2  0  0  0  0
 12 13  1  0  0  0  0
 13 14  2  0  0  0  0
 13 43  1  0  0  0  0
 14 15  1  0  0  0  0
 15 19  1  0  0  0  0
 15 16  2  0  0  0  0
 16 17  1  0  0  0  0
 17 18  2  0  0  0  0
 18 19  1  0  0  0  0
 18 44  1  0  0  0  0
 19 20  1  0  0  0  0
 20 27  1  0  0  0  0
 20 21  1  0  0  0  0
 20 45  1  0  0  0  0
 21 22  1  0  0  0  0
 21 46  1  0  0  0  0
 21 47  1  0  0  0  0
 22 23  1  0  0  0  0
 22 25  1  0  0  0  0
 22 27  1  0  0  0  0
 23 24  1  0  0  0  0
 23 48  1  0  0  0  0
 23 49  1  0  0  0  0
 24 50  1  0  0  0  0
 25 26  1  0  0  0  0
 25 51  1  0  0  0  0
 25 52  1  0  0  0  0
 26 53  1  0  0  0  0
 27 54  1  0  0  0  0
 27 55  1  0  0  0  0
 28 29  1  0  0  0  0
 28 56  1  0  0  0  0
 28 57  1  0  0  0  0
 29 58  1  0  0  0  0
 29 59  1  0  0  0  0
M  END
> <s_m_source_file>
AV-unprocessed.smi

> <i_m_source_file_index>
233

> <i_lp_mmshare_version>
43012

> <i_f3d_flags>
0

> <s_epik_input>
W0NIM11DKD1PKVtOSF1bQ0BASF0xW0NIMl1bQ0gyXVtDQEhdKFtDSDJdW0NIMl0xKU4oW0NIM10pYyhuW2NIXW4yKWMoYzIzKW5bY0hdbjNbQ0hdKFtDSDJdNClbQ0gyXUM0KFtDSDJdW09IXSlbQ0gyXVtPSF0=

> <s_epik_cmdline>
J2VwaWtfcHl0aG9uJywgJy1waCcsICc3LjAnLCAnLXRuJywgJzgnLCAnLW1hJywgJzIwMCcsICctbWV0YWxfYmluZGluZycsICctaW1hZScsICc8aW5maWxlLm1hZT4nLCAnLW9tYWUnLCAnPG91dGZpbGUubWFlPic=

> <r_lp_tautomer_probability>
1

> <r_epik_Ionization_Penalty>
0.0029036

> <r_epik_Ionization_Penalty_Charging>
0

> <r_epik_Ionization_Penalty_Neutral>
0.0029036

> <r_epik_State_Penalty>
0.00183591

> <r_epik_Charging_Adjusted_Penalty>
0.00183591

> <i_epik_Tot_Q>
0

> <i_epik_Tot_abs_Q>
0

> <r_epik_Metal_State_Penalty>
-0

> <b_epik_Metal_Only>
0

> <s_lp_Force_Field>
OPLS_2005

> <r_lp_Energy>
38.4195

> <b_lp_Chiralities_Consistent>
1

> <s_lp_Variant>
AV-unprocessed.smi:233-2

> <Gold.Version>
5.8.1

> <Gold.Id.Protein>
6NUR|6NUR_protein|mol2

> <Gold.PLP.Fitness>
50.6723

> <Gold.PLP.PLP>
-44.3799

> <Gold.PLP.part.hbond>
-4.5304

> <Gold.PLP.part.metal>
0.0000

> <Gold.PLP.part.buried>
-4.9372

> <Gold.PLP.part.nonpolar>
-35.7400

> <Gold.PLP.part.repulsive>
0.2971

> <Gold.PLP.ligand.clash>
0.0000

> <Gold.PLP.ligand.torsion>
2.3718

> <Gold.PLP.Chemscore.Hbond>
2.9913

> <Gold.PLP.Chemscore.CHOScore>
0.3860

> <Gold.PLP.Chemscore.Metal>
0.0000

> <Gold.Chemscore.Hbonds>
donor molecule, donor type, donor heavy atom, donor atom, acceptor molecule, acceptor atom, score
      L1  H    24    50       P1  7921  0.63
      L1  H    26    53       P1 10186  1.00
      P1  H 10785 10796       L1    26  0.10
      L1  C    13    43       P1  7948  0.04

> <Gold.PLP.Chemscore.Internal.Correction>
0.9041

> <Gold.Rescore>
     Score         DG    S(hbond)    S(metal)    S(lipo)     H(rot)  DE(clash)    DE(int)     intcor
      9.52     -12.71       1.98        0.00      90.57       3.91       0.45       2.74       ----

> <Gold.Chemscore.Fitness>
9.5191

> <Gold.Chemscore.DG>
-12.7071

> <Gold.Chemscore.ZeroCoef>
-5.4800

> <Gold.Chemscore.Hbond>
1.9844

> <Gold.Chemscore.Metal>
0.0000

> <Gold.Chemscore.Lipo>
90.5658

> <Gold.Chemscore.Internal_Hbond>
0.0000

> <Gold.Chemscore.DEClash>
0.4460

> <Gold.Chemscore.DEInternal>
2.7420

> <Gold.Chemscore.Rot>
3.9050

> <Gold.Chemscore.Internal.Correction>
   9.000000E+99

> <Gold.Chemscore.Hbonds>
donor molecule, donor type, donor heavy atom, donor atom, acceptor molecule, acceptor atom, score
      L1  H    24    50       P1  7921  0.60
      L1  H    26    53       P1 10186  1.00
      P1  H 10785 10796       L1    26  0.01

> <Gold.Chemscore.Hbond.Weighted>
-6.6278

> <Gold.Chemscore.Metal.Weighted>
-0.0000

> <Gold.Chemscore.Lipo.Weighted>
-10.5962

> <Gold.Chemscore.Internal_Hbond.Weighted>
0.0000

> <Gold.Chemscore.DEClash.Weighted>
0.4460

> <Gold.Chemscore.DEInternal.Weighted>
2.7420

> <Gold.Chemscore.Rot.Weighted>
9.9969

> <Gold.Chemscore.Internal.Correction.Weighted>
   9.000000E+99

> <Gold.Protein.RotatedTorsions>
[ 6907 6896 6895 6894 ] final   58.52 input  -60.11 | X-H torsion
[ 7974 7965 7964 7962 ] final -133.14 input  175.53 | X-H torsion
[ 8008 7997 7996 7995 ] final  113.81 input   59.86 | X-H torsion
[ 10167 10162 10161 10158 ] final   59.29 input  -65.29 | X-H torsion
[ 10718 10713 10712 10709 ] final -128.48 input   66.30 | X-H torsion
[ 10763 10752 10751 10750 ] final  -52.39 input  -60.55 | X-H torsion
[ 11005 11000 10999 10996 ] final  159.34 input  -57.11 | X-H torsion

> <Gold.Protein.ActiveResidues>
 VAL166  LYS551  ARG553  GLY616  TRP617  ASP618  TYR619  PRO620  LYS621  CYS622 
 ASP623  PHE694  ASN695  SER759  ASP760  ASP761  ALA762  ILE779  LEU786  VAL792 
 PHE793  MET794  SER795  GLU796  ALA797  LYS798  CYS799  TRP800  GLU811  SER814 

> <Gold.Protein.RotatedAtoms>
  152.3831  134.6559  160.0135 H   0  0  0  0  0  0  0  0  0  0  0  0  # atno 6907 bound_to 6896
  151.6816  133.3306  159.3229 H   0  0  0  0  0  0  0  0  0  0  0  0  # atno 6908 bound_to 6896
  150.7764  134.6712  159.6437 H   0  0  0  0  0  0  0  0  0  0  0  0  # atno 6909 bound_to 6896
  144.9220  140.7026  143.4959 H   0  0  0  0  0  0  0  0  0  0  0  0  # atno 7974 bound_to 7965
  156.2281  140.2972  156.0119 H   0  0  0  0  0  0  0  0  0  0  0  0  # atno 8008 bound_to 7997
  155.2300  140.0418  157.2978 H   0  0  0  0  0  0  0  0  0  0  0  0  # atno 8009 bound_to 7997
  154.5950  140.2411  155.7877 H   0  0  0  0  0  0  0  0  0  0  0  0  # atno 8010 bound_to 7997
  140.1781  144.4210  150.6629 H   0  0  0  0  0  0  0  0  0  0  0  0  # atno 10167 bound_to 10162
  156.1955  130.6823  151.0476 H   0  0  0  0  0  0  0  0  0  0  0  0  # atno 10718 bound_to 10713
  154.1420  135.6503  153.4944 H   0  0  0  0  0  0  0  0  0  0  0  0  # atno 10763 bound_to 10752
  153.0163  135.5318  154.6895 H   0  0  0  0  0  0  0  0  0  0  0  0  # atno 10764 bound_to 10752
  154.6159  135.2959  155.0351 H   0  0  0  0  0  0  0  0  0  0  0  0  # atno 10765 bound_to 10752
  140.1952  134.8378  157.2957 H   0  0  0  0  0  0  0  0  0  0  0  0  # atno 11005 bound_to 11000
  145.3280  139.1768  143.4552 LP  0  0  0  0  0  0  0  0  0  0  0  0  # atno 17320 bound_to 7965
  146.3209  140.3306  142.8640 LP  0  0  0  0  0  0  0  0  0  0  0  0  # atno 17321 bound_to 7965
  140.6538  143.2232  151.6016 LP  0  0  0  0  0  0  0  0  0  0  0  0  # atno 17342 bound_to 10162
  139.5308  144.2921  152.1143 LP  0  0  0  0  0  0  0  0  0  0  0  0  # atno 17343 bound_to 10162
  157.6955  131.0795  150.6982 LP  0  0  0  0  0  0  0  0  0  0  0  0  # atno 17370 bound_to 10713
  156.7039  130.4631  149.5565 LP  0  0  0  0  0  0  0  0  0  0  0  0  # atno 17371 bound_to 10713
  140.2115  134.4133  155.7610 LP  0  0  0  0  0  0  0  0  0  0  0  0  # atno 17394 bound_to 11000
  141.2227  133.7120  156.8345 LP  0  0  0  0  0  0  0  0  0  0  0  0  # atno 17395 bound_to 11000

$$$$
