AV-unprocessed.smi:467|AV-procd|sdf|2649|dock4
  -GOLD-   2262023 63D 1   1.00000     0.00000
 Structure written by MMmdl.
 46 48  0  0  0  0  0  0  0  0  3 V2000
  152.4992  143.0211  160.9586 C   0  0  0  0  0  0  0  0  0  0  0  0
  152.1443  142.3115  159.6628 C   0  0  0  0  0  0  0  0  0  0  0  0
  151.2288  142.9320  158.7833 C   0  0  0  0  0  0  0  0  0  0  0  0
  150.9249  142.2594  157.6059 C   0  0  0  0  0  0  0  0  0  0  0  0
  150.0738  142.6018  156.5534 N   0  3  0  0  0  0  0  0  0  0  0  0
  150.1010  141.6213  155.6094 C   0  0  0  0  0  0  0  0  0  0  0  0
  150.9620  140.6591  156.0401 N   0  0  0  0  0  0  0  0  0  0  0  0
  151.3441  139.3939  155.3965 C   0  0  0  0  0  0  0  0  0  0  0  0
  150.1311  138.5205  155.0176 C   0  0  2  0  0  0  0  0  0  0  0  0
  150.6326  137.3657  154.3757 O   0  0  0  0  0  0  0  0  0  0  0  0
  149.1298  139.2291  154.0774 C   0  0  0  0  0  0  0  0  0  0  0  0
  148.0394  138.3375  153.6053 N   0  3  0  0  0  0  0  0  0  0  0  0
  147.3355  137.6241  154.7006 C   0  0  0  0  0  0  0  0  0  0  0  0
  146.2423  136.7036  154.1304 C   0  0  0  0  0  0  0  0  0  0  0  0
  145.3378  137.4653  153.3406 O   0  0  0  0  0  0  0  0  0  0  0  0
  145.9856  138.0792  152.2339 C   0  0  0  0  0  0  0  0  0  0  0  0
  147.0646  139.0493  152.7441 C   0  0  0  0  0  0  0  0  0  0  0  0
  151.4956  141.0113  157.2871 C   0  0  0  0  0  0  0  0  0  0  0  0
  152.3996  140.3862  158.1441 C   0  0  0  0  0  0  0  0  0  0  0  0
  152.7215  141.0544  159.3473 C   0  0  0  0  0  0  0  0  0  0  0  0
  153.7022  140.3953  160.3025 C   0  0  0  0  0  0  0  0  0  0  0  0
  151.9655  143.9671  161.0541 H   0  0  0  0  0  0  0  0  0  0  0  0
  153.5674  143.2367  160.9970 H   0  0  0  0  0  0  0  0  0  0  0  0
  152.2382  142.4036  161.8184 H   0  0  0  0  0  0  0  0  0  0  0  0
  150.7841  143.8883  159.0182 H   0  0  0  0  0  0  0  0  0  0  0  0
  149.5397  141.6095  154.6860 H   0  0  0  0  0  0  0  0  0  0  0  0
  151.9706  139.6001  154.5289 H   0  0  0  0  0  0  0  0  0  0  0  0
  151.9779  138.8588  156.1054 H   0  0  0  0  0  0  0  0  0  0  0  0
  149.6385  138.2077  155.9376 H   0  0  0  0  0  0  0  0  0  0  0  0
  150.2305  136.6010  154.7580 H   0  0  0  0  0  0  0  0  0  0  0  0
  148.6797  140.0934  154.5666 H   0  0  0  0  0  0  0  0  0  0  0  0
  149.6807  139.6185  153.2195 H   0  0  0  0  0  0  0  0  0  0  0  0
  148.0360  137.0276  155.2835 H   0  0  0  0  0  0  0  0  0  0  0  0
  146.8888  138.3493  155.3829 H   0  0  0  0  0  0  0  0  0  0  0  0
  146.6798  135.9016  153.5335 H   0  0  0  0  0  0  0  0  0  0  0  0
  145.6893  136.2309  154.9424 H   0  0  0  0  0  0  0  0  0  0  0  0
  146.4200  137.3195  151.5818 H   0  0  0  0  0  0  0  0  0  0  0  0
  145.2434  138.6181  151.6445 H   0  0  0  0  0  0  0  0  0  0  0  0
  146.6011  139.8602  153.3082 H   0  0  0  0  0  0  0  0  0  0  0  0
  147.5793  139.5013  151.8952 H   0  0  0  0  0  0  0  0  0  0  0  0
  152.8426  139.4300  157.9092 H   0  0  0  0  0  0  0  0  0  0  0  0
  154.0707  139.4481  159.9075 H   0  0  0  0  0  0  0  0  0  0  0  0
  153.2239  140.1925  161.2612 H   0  0  0  0  0  0  0  0  0  0  0  0
  154.5638  141.0406  160.4749 H   0  0  0  0  0  0  0  0  0  0  0  0
  148.4710  137.6367  153.0195 H   0  0  0  0  0  0  0  0  0  0  0  0
  149.5112  143.4404  156.4841 H   0  0  0  0  0  0  0  0  0  0  0  0
  1  2  1  0  0  0  0
  1 22  1  0  0  0  0
  1 23  1  0  0  0  0
  1 24  1  0  0  0  0
  2 20  1  0  0  0  0
  2  3  2  0  0  0  0
  3  4  1  0  0  0  0
  3 25  1  0  0  0  0
  4 18  2  0  0  0  0
  4  5  1  0  0  0  0
  5  6  2  0  0  0  0
  5 46  1  0  0  0  0
  6  7  1  0  0  0  0
  6 26  1  0  0  0  0
  7  8  1  0  0  0  0
  7 18  1  0  0  0  0
  8  9  1  0  0  0  0
  8 27  1  0  0  0  0
  8 28  1  0  0  0  0
  9 10  1  0  0  0  0
  9 11  1  0  0  0  0
  9 29  1  0  0  0  0
 10 30  1  0  0  0  0
 11 12  1  0  0  0  0
 11 31  1  0  0  0  0
 11 32  1  0  0  0  0
 12 17  1  0  0  0  0
 12 13  1  0  0  0  0
 12 45  1  0  0  0  0
 13 14  1  0  0  0  0
 13 33  1  0  0  0  0
 13 34  1  0  0  0  0
 14 15  1  0  0  0  0
 14 35  1  0  0  0  0
 14 36  1  0  0  0  0
 15 16  1  0  0  0  0
 16 17  1  0  0  0  0
 16 37  1  0  0  0  0
 16 38  1  0  0  0  0
 17 39  1  0  0  0  0
 17 40  1  0  0  0  0
 18 19  1  0  0  0  0
 19 20  2  0  0  0  0
 19 41  1  0  0  0  0
 20 21  1  0  0  0  0
 21 42  1  0  0  0  0
 21 43  1  0  0  0  0
 21 44  1  0  0  0  0
M  CHG  1   5   1
M  CHG  1  12   1
M  END
> <s_m_source_file>
AV-unprocessed.smi

> <i_m_source_file_index>
467

> <i_lp_mmshare_version>
43012

> <i_f3d_flags>
0

> <s_epik_input>
W0NIM11jKFtjSF0xKWMoW0NIM10pW2NIXWMoYzEyKW4oW2NIXW4yKVtDSDJdW0NASF0oW09IXSlbQ0gyXU4zW0NIMl1bQ0gyXU9bQ0gyXVtDSDJdMw==

> <s_epik_cmdline>
J2VwaWtfcHl0aG9uJywgJy1waCcsICc3LjAnLCAnLXRuJywgJzgnLCAnLW1hJywgJzIwMCcsICctbWV0YWxfYmluZGluZycsICctaW1hZScsICc8aW5maWxlLm1hZT4nLCAnLW9tYWUnLCAnPG91dGZpbGUubWFlPic=

> <r_epik_Ionization_Penalty>
1.88533

> <r_epik_Ionization_Penalty_Charging>
1.88531

> <r_epik_Ionization_Penalty_Neutral>
1.42224e-05

> <r_epik_State_Penalty>
1.94609

> <r_epik_Charging_Adjusted_Penalty>
3.8314

> <i_epik_Tot_Q>
2

> <i_epik_Tot_abs_Q>
2

> <r_epik_Metal_State_Penalty>
5.95915

> <b_epik_Metal_Only>
0

> <s_lp_Force_Field>
OPLS_2005

> <r_lp_Energy>
33.5699

> <b_lp_Chiralities_Consistent>
1

> <s_lp_Variant>
AV-unprocessed.smi:467-7

> <Gold.Version>
5.8.1

> <Gold.Id.Protein>
6NUR|6NUR_protein|mol2

> <Gold.PLP.Fitness>
53.0063

> <Gold.PLP.PLP>
-41.1297

> <Gold.PLP.part.hbond>
-2.8645

> <Gold.PLP.part.metal>
0.0000

> <Gold.PLP.part.buried>
-2.8729

> <Gold.PLP.part.nonpolar>
-35.9732

> <Gold.PLP.part.repulsive>
0.2556

> <Gold.PLP.ligand.clash>
0.0000

> <Gold.PLP.ligand.torsion>
0.0740

> <Gold.PLP.Chemscore.Hbond>
4.0000

> <Gold.PLP.Chemscore.CHOScore>
0.0000

> <Gold.PLP.Chemscore.Metal>
0.0000

> <Gold.Chemscore.Hbonds>
donor molecule, donor type, donor heavy atom, donor atom, acceptor molecule, acceptor atom, score
      L1  H     5    46       P1  8028  2.00
      L1  H    12    45       P1  7948  2.00

> <Gold.PLP.Chemscore.Internal.Correction>
0.0245

> <Gold.Rescore>
     Score         DG    S(hbond)    S(metal)    S(lipo)     H(rot)  DE(clash)    DE(int)     intcor
     18.43     -18.47       1.98        0.00     101.81       2.16       0.01       0.03       ----

> <Gold.Chemscore.Fitness>
18.4271

> <Gold.Chemscore.DG>
-18.4738

> <Gold.Chemscore.ZeroCoef>
-5.4800

> <Gold.Chemscore.Hbond>
1.9790

> <Gold.Chemscore.Metal>
0.0000

> <Gold.Chemscore.Lipo>
101.8084

> <Gold.Chemscore.Internal_Hbond>
0.0000

> <Gold.Chemscore.DEClash>
0.0149

> <Gold.Chemscore.DEInternal>
0.0319

> <Gold.Chemscore.Rot>
2.1592

> <Gold.Chemscore.Internal.Correction>
   9.000000E+99

> <Gold.Chemscore.Hbonds>
donor molecule, donor type, donor heavy atom, donor atom, acceptor molecule, acceptor atom, score
      L1  H     5    46       P1  8028  0.97
      L1  H    12    45       P1  7948  1.00

> <Gold.Chemscore.Hbond.Weighted>
-6.6097

> <Gold.Chemscore.Metal.Weighted>
-0.0000

> <Gold.Chemscore.Lipo.Weighted>
-11.9116

> <Gold.Chemscore.Internal_Hbond.Weighted>
0.0000

> <Gold.Chemscore.DEClash.Weighted>
0.0149

> <Gold.Chemscore.DEInternal.Weighted>
0.0319

> <Gold.Chemscore.Rot.Weighted>
5.5275

> <Gold.Chemscore.Internal.Correction.Weighted>
   9.000000E+99

> <Gold.Protein.RotatedTorsions>
[ 6907 6896 6895 6894 ] final  148.55 input  -60.11 | X-H torsion
[ 7974 7965 7964 7962 ] final   -6.50 input  175.53 | X-H torsion
[ 8008 7997 7996 7995 ] final   77.62 input   59.86 | X-H torsion
[ 10167 10162 10161 10158 ] final -140.81 input  -65.29 | X-H torsion
[ 10718 10713 10712 10709 ] final -125.68 input   66.30 | X-H torsion
[ 10763 10752 10751 10750 ] final    5.18 input  -60.55 | X-H torsion
[ 11005 11000 10999 10996 ] final -161.24 input  -57.11 | X-H torsion

> <Gold.Protein.ActiveResidues>
 VAL166  LYS551  ARG553  GLY616  TRP617  ASP618  TYR619  PRO620  LYS621  CYS622 
 ASP623  PHE694  ASN695  SER759  ASP760  ASP761  ALA762  ILE779  LEU786  VAL792 
 PHE793  MET794  SER795  GLU796  ALA797  LYS798  CYS799  TRP800  GLU811  SER814 

> <Gold.Protein.RotatedAtoms>
  152.1399  133.4458  159.4761 H   0  0  0  0  0  0  0  0  0  0  0  0  # atno 6907 bound_to 6896
  150.6885  134.2318  159.4446 H   0  0  0  0  0  0  0  0  0  0  0  0  # atno 6908 bound_to 6896
  152.0208  134.9823  160.0621 H   0  0  0  0  0  0  0  0  0  0  0  0  # atno 6909 bound_to 6896
  146.2329  140.2180  142.8337 H   0  0  0  0  0  0  0  0  0  0  0  0  # atno 7974 bound_to 7965
  155.8442  140.3461  155.5651 H   0  0  0  0  0  0  0  0  0  0  0  0  # atno 8008 bound_to 7997
  155.8108  140.0898  157.1925 H   0  0  0  0  0  0  0  0  0  0  0  0  # atno 8009 bound_to 7997
  154.4006  140.1448  156.3371 H   0  0  0  0  0  0  0  0  0  0  0  0  # atno 8010 bound_to 7997
  139.8245  143.7529  152.2666 H   0  0  0  0  0  0  0  0  0  0  0  0  # atno 10167 bound_to 10162
  156.1697  130.6659  151.0163 H   0  0  0  0  0  0  0  0  0  0  0  0  # atno 10718 bound_to 10713
  153.2625  135.6924  153.7564 H   0  0  0  0  0  0  0  0  0  0  0  0  # atno 10763 bound_to 10752
  153.6618  135.3359  155.3130 H   0  0  0  0  0  0  0  0  0  0  0  0  # atno 10764 bound_to 10752
  154.8435  135.4479  154.1620 H   0  0  0  0  0  0  0  0  0  0  0  0  # atno 10765 bound_to 10752
  140.6226  134.4735  157.5224 H   0  0  0  0  0  0  0  0  0  0  0  0  # atno 11005 bound_to 11000
  144.9655  140.8317  143.5487 LP  0  0  0  0  0  0  0  0  0  0  0  0  # atno 17320 bound_to 7965
  145.2155  139.2184  143.5120 LP  0  0  0  0  0  0  0  0  0  0  0  0  # atno 17321 bound_to 7965
  139.7718  144.7474  151.0214 LP  0  0  0  0  0  0  0  0  0  0  0  0  # atno 17342 bound_to 10162
  140.7811  143.4637  151.0242 LP  0  0  0  0  0  0  0  0  0  0  0  0  # atno 17343 bound_to 10162
  157.6794  131.0842  150.7410 LP  0  0  0  0  0  0  0  0  0  0  0  0  # atno 17370 bound_to 10713
  156.7470  130.4757  149.5465 LP  0  0  0  0  0  0  0  0  0  0  0  0  # atno 17371 bound_to 10713
  139.9147  134.8270  156.1405 LP  0  0  0  0  0  0  0  0  0  0  0  0  # atno 17394 bound_to 11000
  141.0732  133.6787  156.2183 LP  0  0  0  0  0  0  0  0  0  0  0  0  # atno 17395 bound_to 11000

$$$$
