AV-unprocessed.smi:667|AV-procd|sdf|3258|dock5
  -GOLD-   22720 0213D 1   1.00000     0.00000
 Structure written by MMmdl.
 48 49  0  0  0  0  0  0  0  0  1 V2000
  150.7155  145.2605  160.2641 C   0  0  0  0  0  0  0  0  0  0  0  0
  151.7529  144.2102  160.5431 C   0  0  0  0  0  0  0  0  0  0  0  0
  152.0946  143.9484  161.7937 N   0  0  0  0  0  0  0  0  0  0  0  0
  153.0233  142.9754  161.7004 N   0  0  0  0  0  0  0  0  0  0  0  0
  153.6197  142.4427  162.9099 C   0  0  0  0  0  0  0  0  0  0  0  0
  153.2671  142.6200  160.3881 C   0  0  0  0  0  0  0  0  0  0  0  0
  154.2518  141.5581  160.0184 C   0  0  0  0  0  0  0  0  0  0  0  0
  152.4605  143.4020  159.6053 C   0  0  0  0  0  0  0  0  0  0  0  0
  152.3315  143.4181  158.1008 C   0  0  0  0  0  0  0  0  0  0  0  0
  151.3833  142.3200  157.6062 C   0  0  0  0  0  0  0  0  0  0  0  0
  150.1781  142.5511  157.5158 O   0  0  0  0  0  0  0  0  0  0  0  0
  151.9239  141.1234  157.3244 N   0  0  0  0  0  0  0  0  0  0  0  0
  151.1803  139.9312  156.9366 C   0  0  0  0  0  0  0  0  0  0  0  0
  151.1412  139.7534  155.4045 C   0  0  1  0  0  0  0  0  0  0  0  0
  152.1794  138.7530  154.9008 C   0  0  0  0  0  0  0  0  0  0  0  0
  151.3525  137.5913  154.3617 C   0  0  0  0  0  0  0  0  0  0  0  0
  150.1725  138.2227  153.9001 O   0  0  0  0  0  0  0  0  0  0  0  0
  149.8035  139.1833  154.8802 C   0  0  2  0  0  0  0  0  0  0  0  0
  148.8055  140.2101  154.2955 C   0  0  0  0  0  0  0  0  0  0  0  0
  148.4450  141.2789  155.3388 C   0  0  0  0  0  0  0  0  0  0  0  0
  147.5313  139.5648  153.7200 C   0  0  0  0  0  0  0  0  0  0  0  0
  149.9417  144.8761  159.5998 H   0  0  0  0  0  0  0  0  0  0  0  0
  151.1625  146.1304  159.7834 H   0  0  0  0  0  0  0  0  0  0  0  0
  150.2256  145.6000  161.1773 H   0  0  0  0  0  0  0  0  0  0  0  0
  154.7063  142.4893  162.8359 H   0  0  0  0  0  0  0  0  0  0  0  0
  153.3154  141.4041  163.0408 H   0  0  0  0  0  0  0  0  0  0  0  0
  153.3023  143.0175  163.7811 H   0  0  0  0  0  0  0  0  0  0  0  0
  154.2391  141.3641  158.9459 H   0  0  0  0  0  0  0  0  0  0  0  0
  154.0233  140.6218  160.5280 H   0  0  0  0  0  0  0  0  0  0  0  0
  155.2637  141.8565  160.2930 H   0  0  0  0  0  0  0  0  0  0  0  0
  151.9513  144.3766  157.7465 H   0  0  0  0  0  0  0  0  0  0  0  0
  153.3037  143.2882  157.6240 H   0  0  0  0  0  0  0  0  0  0  0  0
  152.9246  141.0253  157.4185 H   0  0  0  0  0  0  0  0  0  0  0  0
  151.6156  139.0501  157.4111 H   0  0  0  0  0  0  0  0  0  0  0  0
  150.1672  140.0216  157.3300 H   0  0  0  0  0  0  0  0  0  0  0  0
  151.3590  140.7157  154.9424 H   0  0  0  0  0  0  0  0  0  0  0  0
  152.7528  139.2013  154.0882 H   0  0  0  0  0  0  0  0  0  0  0  0
  152.8881  138.4335  155.6657 H   0  0  0  0  0  0  0  0  0  0  0  0
  151.8586  137.0470  153.5641 H   0  0  0  0  0  0  0  0  0  0  0  0
  151.1038  136.8868  155.1572 H   0  0  0  0  0  0  0  0  0  0  0  0
  149.3174  138.6366  155.6907 H   0  0  0  0  0  0  0  0  0  0  0  0
  149.3038  140.7297  153.4771 H   0  0  0  0  0  0  0  0  0  0  0  0
  147.9315  140.8396  156.1946 H   0  0  0  0  0  0  0  0  0  0  0  0
  147.7909  142.0401  154.9128 H   0  0  0  0  0  0  0  0  0  0  0  0
  149.3363  141.7854  155.7103 H   0  0  0  0  0  0  0  0  0  0  0  0
  146.9787  139.0206  154.4864 H   0  0  0  0  0  0  0  0  0  0  0  0
  147.7526  138.8682  152.9125 H   0  0  0  0  0  0  0  0  0  0  0  0
  146.8633  140.3234  153.3115 H   0  0  0  0  0  0  0  0  0  0  0  0
  1  2  1  0  0  0  0
  1 22  1  0  0  0  0
  1 23  1  0  0  0  0
  1 24  1  0  0  0  0
  2  8  1  0  0  0  0
  2  3  2  0  0  0  0
  3  4  1  0  0  0  0
  4  5  1  0  0  0  0
  4  6  1  0  0  0  0
  5 25  1  0  0  0  0
  5 26  1  0  0  0  0
  5 27  1  0  0  0  0
  6  7  1  0  0  0  0
  6  8  2  0  0  0  0
  7 28  1  0  0  0  0
  7 29  1  0  0  0  0
  7 30  1  0  0  0  0
  8  9  1  0  0  0  0
  9 10  1  0  0  0  0
  9 31  1  0  0  0  0
  9 32  1  0  0  0  0
 10 11  2  0  0  0  0
 10 12  1  0  0  0  0
 12 13  1  0  0  0  0
 12 33  1  0  0  0  0
 13 14  1  0  0  0  0
 13 34  1  0  0  0  0
 13 35  1  0  0  0  0
 14 18  1  0  0  0  0
 14 15  1  0  0  0  0
 14 36  1  0  0  0  0
 15 16  1  0  0  0  0
 15 37  1  0  0  0  0
 15 38  1  0  0  0  0
 16 17  1  0  0  0  0
 16 39  1  0  0  0  0
 16 40  1  0  0  0  0
 17 18  1  0  0  0  0
 18 19  1  0  0  0  0
 18 41  1  0  0  0  0
 19 20  1  0  0  0  0
 19 21  1  0  0  0  0
 19 42  1  0  0  0  0
 20 43  1  0  0  0  0
 20 44  1  0  0  0  0
 20 45  1  0  0  0  0
 21 46  1  0  0  0  0
 21 47  1  0  0  0  0
 21 48  1  0  0  0  0
M  END
> <s_m_source_file>
AV-unprocessed.smi

> <i_m_source_file_index>
667

> <i_lp_mmshare_version>
43012

> <i_f3d_flags>
0

> <s_epik_input>
W0NIM11jMW5uKFtDSDNdKWMoW0NIM10pYzFbQ0gyXUMoPU8pW05IXVtDSDJdW0NAQEhdMltDSDJdW0NIMl1PW0NASF0yW0NIXShbQ0gzXSlbQ0gzXQ==

> <s_epik_cmdline>
J2VwaWtfcHl0aG9uJywgJy1waCcsICc3LjAnLCAnLXRuJywgJzgnLCAnLW1hJywgJzIwMCcsICctbWV0YWxfYmluZGluZycsICctaW1hZScsICc8aW5maWxlLm1hZT4nLCAnLW9tYWUnLCAnPG91dGZpbGUubWFlPic=

> <r_lp_tautomer_probability>
1

> <r_epik_Ionization_Penalty>
0.00315488

> <r_epik_Ionization_Penalty_Charging>
0

> <r_epik_Ionization_Penalty_Neutral>
0.00315488

> <r_epik_State_Penalty>
0.00222269

> <r_epik_Charging_Adjusted_Penalty>
0.00222269

> <i_epik_Tot_Q>
0

> <i_epik_Tot_abs_Q>
0

> <r_epik_Metal_State_Penalty>
-0

> <b_epik_Metal_Only>
0

> <s_lp_Force_Field>
OPLS_2005

> <r_lp_Energy>
15.0171

> <b_lp_Chiralities_Consistent>
1

> <s_lp_Variant>
AV-unprocessed.smi:667-4

> <Gold.Version>
5.8.1

> <Gold.Id.Protein>
6NUR|6NUR_protein|mol2

> <Gold.PLP.Fitness>
46.0298

> <Gold.PLP.PLP>
-48.7911

> <Gold.PLP.part.hbond>
0.0000

> <Gold.PLP.part.metal>
0.0000

> <Gold.PLP.part.buried>
-3.8262

> <Gold.PLP.part.nonpolar>
-47.5971

> <Gold.PLP.part.repulsive>
2.1860

> <Gold.PLP.ligand.clash>
0.0000

> <Gold.PLP.ligand.torsion>
1.3957

> <Gold.PLP.Chemscore.Hbond>
0.0000

> <Gold.PLP.Chemscore.CHOScore>
0.0000

> <Gold.PLP.Chemscore.Metal>
0.0000

> <Gold.PLP.Chemscore.Internal.Correction>
0.0301

> <Gold.Rescore>
     Score         DG    S(hbond)    S(metal)    S(lipo)     H(rot)  DE(clash)    DE(int)     intcor
     15.67     -17.22       0.00        0.00     133.59       1.52       0.25       1.29       ----

> <Gold.Chemscore.Fitness>
15.6707

> <Gold.Chemscore.DG>
-17.2152

> <Gold.Chemscore.ZeroCoef>
-5.4800

> <Gold.Chemscore.Hbond>
0.0000

> <Gold.Chemscore.Metal>
0.0000

> <Gold.Chemscore.Lipo>
133.5870

> <Gold.Chemscore.Internal_Hbond>
0.0000

> <Gold.Chemscore.DEClash>
0.2516

> <Gold.Chemscore.DEInternal>
1.2929

> <Gold.Chemscore.Rot>
1.5213

> <Gold.Chemscore.Internal.Correction>
   9.000000E+99

> <Gold.Chemscore.Hbond.Weighted>
-0.0000

> <Gold.Chemscore.Metal.Weighted>
-0.0000

> <Gold.Chemscore.Lipo.Weighted>
-15.6297

> <Gold.Chemscore.Internal_Hbond.Weighted>
0.0000

> <Gold.Chemscore.DEClash.Weighted>
0.2516

> <Gold.Chemscore.DEInternal.Weighted>
1.2929

> <Gold.Chemscore.Rot.Weighted>
3.8945

> <Gold.Chemscore.Internal.Correction.Weighted>
   9.000000E+99

> <Gold.Protein.RotatedTorsions>
[ 6907 6896 6895 6894 ] final   58.20 input  -60.11 | X-H torsion
[ 7974 7965 7964 7962 ] final  -19.70 input  175.53 | X-H torsion
[ 8008 7997 7996 7995 ] final  171.51 input   59.86 | X-H torsion
[ 10167 10162 10161 10158 ] final  104.35 input  -65.29 | X-H torsion
[ 10718 10713 10712 10709 ] final   70.39 input   66.30 | X-H torsion
[ 10763 10752 10751 10750 ] final -152.85 input  -60.55 | X-H torsion
[ 11005 11000 10999 10996 ] final -168.09 input  -57.11 | X-H torsion

> <Gold.Protein.ActiveResidues>
 VAL166  LYS551  ARG553  GLY616  TRP617  ASP618  TYR619  PRO620  LYS621  CYS622 
 ASP623  PHE694  ASN695  SER759  ASP760  ASP761  ALA762  ILE779  LEU786  VAL792 
 PHE793  MET794  SER795  GLU796  ALA797  LYS798  CYS799  TRP800  GLU811  SER814 

> <Gold.Protein.RotatedAtoms>
  152.3802  134.6602  160.0145 H   0  0  0  0  0  0  0  0  0  0  0  0  # atno 6907 bound_to 6896
  151.6867  133.3306  159.3241 H   0  0  0  0  0  0  0  0  0  0  0  0  # atno 6908 bound_to 6896
  150.7741  134.6669  159.6415 H   0  0  0  0  0  0  0  0  0  0  0  0  # atno 6909 bound_to 6896
  146.1827  140.4099  142.8488 H   0  0  0  0  0  0  0  0  0  0  0  0  # atno 7974 bound_to 7965
  156.1264  140.1510  156.9130 H   0  0  0  0  0  0  0  0  0  0  0  0  # atno 8008 bound_to 7997
  154.4875  140.0861  156.7559 H   0  0  0  0  0  0  0  0  0  0  0  0  # atno 8009 bound_to 7997
  155.4336  140.3428  155.4285 H   0  0  0  0  0  0  0  0  0  0  0  0  # atno 8010 bound_to 7997
  139.7184  144.7063  151.0912 H   0  0  0  0  0  0  0  0  0  0  0  0  # atno 10167 bound_to 10162
  157.6397  130.9475  150.0645 H   0  0  0  0  0  0  0  0  0  0  0  0  # atno 10718 bound_to 10713
  154.7967  135.3226  154.7650 H   0  0  0  0  0  0  0  0  0  0  0  0  # atno 10763 bound_to 10752
  153.8326  135.6878  153.4817 H   0  0  0  0  0  0  0  0  0  0  0  0  # atno 10764 bound_to 10752
  153.1662  135.4641  154.9782 H   0  0  0  0  0  0  0  0  0  0  0  0  # atno 10765 bound_to 10752
  140.5459  134.5476  157.5111 H   0  0  0  0  0  0  0  0  0  0  0  0  # atno 11005 bound_to 11000
  144.8343  140.6757  143.6270 LP  0  0  0  0  0  0  0  0  0  0  0  0  # atno 17320 bound_to 7965
  145.4029  139.1594  143.4168 LP  0  0  0  0  0  0  0  0  0  0  0  0  # atno 17321 bound_to 7965
  140.7748  143.5198  150.9550 LP  0  0  0  0  0  0  0  0  0  0  0  0  # atno 17342 bound_to 10162
  139.8885  143.6983  152.3148 LP  0  0  0  0  0  0  0  0  0  0  0  0  # atno 17343 bound_to 10162
  156.1667  130.3645  149.9222 LP  0  0  0  0  0  0  0  0  0  0  0  0  # atno 17370 bound_to 10713
  156.7207  130.9005  151.3618 LP  0  0  0  0  0  0  0  0  0  0  0  0  # atno 17371 bound_to 10713
  139.9480  134.7668  156.0516 LP  0  0  0  0  0  0  0  0  0  0  0  0  # atno 17394 bound_to 11000
  141.1200  133.6616  156.3191 LP  0  0  0  0  0  0  0  0  0  0  0  0  # atno 17395 bound_to 11000

$$$$
