AV-unprocessed.smi:1965|AV-procd|sdf|7945|dock10
  -GOLD-   2272010113D 1   1.00000     0.00000
 Structure written by MMmdl.
 36 38  0  0  0  0  0  0  0  0  3 V2000
  148.8066  143.9600  160.4692 O   0  0  0  0  0  0  0  0  0  0  0  0
  148.3631  143.7932  159.3337 C   0  0  0  0  0  0  0  0  0  0  0  0
  147.0413  143.6385  159.0608 N   0  5  0  0  0  0  0  0  0  0  0  0
  146.1057  143.5703  160.0260 C   0  0  0  0  0  0  0  0  0  0  0  0
  144.9647  142.8838  159.8944 N   0  0  0  0  0  0  0  0  0  0  0  0
  144.1410  142.9557  161.0194 C   0  0  0  0  0  0  0  0  0  0  0  0
  144.6682  143.7128  162.0318 C   0  0  0  0  0  0  0  0  0  0  0  0
  146.2264  144.3578  161.6018 S   0  0  0  0  0  0  0  0  0  0  0  0
  149.2232  143.7593  158.2991 N   0  0  0  0  0  0  0  0  0  0  0  0
  150.6674  143.9358  158.3788 C   0  0  1  0  0  0  0  0  0  0  0  0
  151.1120  145.1988  159.1415 C   0  0  0  0  0  0  0  0  0  0  0  0
  152.3664  144.7759  159.9315 C   0  0  0  0  0  0  0  0  0  0  0  0
  152.6241  143.3775  159.5363 N   0  3  1  0  0  0  0  0  0  0  0  0
  153.3756  142.5325  160.4899 C   0  0  0  0  0  0  0  0  0  0  0  0
  153.6019  141.1392  159.8679 C   0  0  0  0  0  0  0  0  0  0  0  0
  152.2807  140.5030  159.3885 C   0  0  0  0  0  0  0  0  0  0  0  0
  151.5026  141.4650  158.4700 C   0  0  0  0  0  0  0  0  0  0  0  0
  151.3138  142.8124  159.1844 C   0  0  2  0  0  0  0  0  0  0  0  0
  143.1946  142.4356  161.0135 H   0  0  0  0  0  0  0  0  0  0  0  0
  144.2407  143.9264  162.9999 H   0  0  0  0  0  0  0  0  0  0  0  0
  148.8315  143.6115  157.3803 H   0  0  0  0  0  0  0  0  0  0  0  0
  151.0935  143.9493  157.3734 H   0  0  0  0  0  0  0  0  0  0  0  0
  151.3200  146.0195  158.4541 H   0  0  0  0  0  0  0  0  0  0  0  0
  150.3382  145.5384  159.8320 H   0  0  0  0  0  0  0  0  0  0  0  0
  153.2292  145.4045  159.7096 H   0  0  0  0  0  0  0  0  0  0  0  0
  152.1701  144.8347  161.0032 H   0  0  0  0  0  0  0  0  0  0  0  0
  154.3320  143.0025  160.7206 H   0  0  0  0  0  0  0  0  0  0  0  0
  152.8225  142.4474  161.4264 H   0  0  0  0  0  0  0  0  0  0  0  0
  154.2834  141.2296  159.0209 H   0  0  0  0  0  0  0  0  0  0  0  0
  154.0924  140.4837  160.5881 H   0  0  0  0  0  0  0  0  0  0  0  0
  152.4812  139.5661  158.8678 H   0  0  0  0  0  0  0  0  0  0  0  0
  151.6654  140.2500  160.2531 H   0  0  0  0  0  0  0  0  0  0  0  0
  152.0461  141.6072  157.5350 H   0  0  0  0  0  0  0  0  0  0  0  0
  150.5344  141.0361  158.2090 H   0  0  0  0  0  0  0  0  0  0  0  0
  150.7442  142.6580  160.1044 H   0  0  0  0  0  0  0  0  0  0  0  0
  153.1561  143.4153  158.6786 H   0  0  0  0  0  0  0  0  0  0  0  0
  1  2  2  0  0  0  0
  2  3  1  0  0  0  0
  2  9  1  0  0  0  0
  3  4  1  0  0  0  0
  4  8  1  0  0  0  0
  4  5  2  0  0  0  0
  5  6  1  0  0  0  0
  6  7  2  0  0  0  0
  6 19  1  0  0  0  0
  7  8  1  0  0  0  0
  7 20  1  0  0  0  0
  9 10  1  0  0  0  0
  9 21  1  0  0  0  0
 10 18  1  0  0  0  0
 10 11  1  0  0  0  0
 10 22  1  0  0  0  0
 11 12  1  0  0  0  0
 11 23  1  0  0  0  0
 11 24  1  0  0  0  0
 12 13  1  0  0  0  0
 12 25  1  0  0  0  0
 12 26  1  0  0  0  0
 13 18  1  0  0  0  0
 13 14  1  0  0  0  0
 13 36  1  0  0  0  0
 14 15  1  0  0  0  0
 14 27  1  0  0  0  0
 14 28  1  0  0  0  0
 15 16  1  0  0  0  0
 15 29  1  0  0  0  0
 15 30  1  0  0  0  0
 16 17  1  0  0  0  0
 16 31  1  0  0  0  0
 16 32  1  0  0  0  0
 17 18  1  0  0  0  0
 17 33  1  0  0  0  0
 17 34  1  0  0  0  0
 18 35  1  0  0  0  0
M  CHG  1   3  -1
M  CHG  1  13   1
M  END
> <s_m_source_file>
AV-unprocessed.smi

> <i_m_source_file_index>
1965

> <i_lp_mmshare_version>
43012

> <i_f3d_flags>
0

> <s_epik_input>
czFbY0hdW2NIXW5jMVtOSF1DKD1PKVtOSF1bQ0BIXShbQ0gyXVtDSDJdMilbQ0BASF0oTjIzKVtDSDJdW0NIMl1bQ0gyXVtDSDJdMw==

> <s_epik_cmdline>
J2VwaWtfcHl0aG9uJywgJy1waCcsICc3LjAnLCAnLXRuJywgJzgnLCAnLW1hJywgJzIwMCcsICctbWV0YWxfYmluZGluZycsICctaW1hZScsICc8aW5maWxlLm1hZT4nLCAnLW9tYWUnLCAnPG91dGZpbGUubWFlPic=

> <r_lp_tautomer_probability>
1

> <r_epik_Ionization_Penalty>
7.4116

> <r_epik_Ionization_Penalty_Charging>
6.13869

> <r_epik_Ionization_Penalty_Neutral>
1.27291

> <r_epik_State_Penalty>
6.13761

> <r_epik_Charging_Adjusted_Penalty>
12.2763

> <i_epik_Tot_Q>
0

> <i_epik_Tot_abs_Q>
2

> <r_epik_Metal_State_Penalty>
2.08142

> <b_epik_Metal_Only>
1

> <s_lp_Force_Field>
OPLS_2005

> <r_lp_Energy>
26.2693

> <b_lp_Chiralities_Consistent>
1

> <s_lp_Variant>
AV-unprocessed.smi:1965-14

> <Gold.Version>
5.8.1

> <Gold.Id.Protein>
6NUR|6NUR_protein|mol2

> <Gold.PLP.Fitness>
38.9971

> <Gold.PLP.PLP>
-35.5076

> <Gold.PLP.part.hbond>
-3.0000

> <Gold.PLP.part.metal>
0.0000

> <Gold.PLP.part.buried>
-4.3949

> <Gold.PLP.part.nonpolar>
-28.1150

> <Gold.PLP.part.repulsive>
0.7803

> <Gold.PLP.ligand.clash>
0.0000

> <Gold.PLP.ligand.torsion>
0.2311

> <Gold.PLP.Chemscore.Hbond>
1.3120

> <Gold.PLP.Chemscore.CHOScore>
0.0000

> <Gold.PLP.Chemscore.Metal>
0.0000

> <Gold.Chemscore.Hbonds>
donor molecule, donor type, donor heavy atom, donor atom, acceptor molecule, acceptor atom, score
      L1  H     9    21       P1  8028  0.54
      P1  H  6933  6944       L1     1  0.74

> <Gold.PLP.Chemscore.Internal.Correction>
0.0157

> <Gold.Rescore>
     Score         DG    S(hbond)    S(metal)    S(lipo)     H(rot)  DE(clash)    DE(int)     intcor
     14.03     -17.68       1.33        0.00      88.21       1.00       0.13       3.52       ----

> <Gold.Chemscore.Fitness>
14.0288

> <Gold.Chemscore.DG>
-17.6832

> <Gold.Chemscore.ZeroCoef>
-5.4800

> <Gold.Chemscore.Hbond>
1.3301

> <Gold.Chemscore.Metal>
0.0000

> <Gold.Chemscore.Lipo>
88.2108

> <Gold.Chemscore.Internal_Hbond>
0.0000

> <Gold.Chemscore.DEClash>
0.1301

> <Gold.Chemscore.DEInternal>
3.5242

> <Gold.Chemscore.Rot>
1.0000

> <Gold.Chemscore.Internal.Correction>
   9.000000E+99

> <Gold.Chemscore.Hbonds>
donor molecule, donor type, donor heavy atom, donor atom, acceptor molecule, acceptor atom, score
      L1  H     9    21       P1  8028  0.09
      P1  H  6933  6944       L1     1  0.48

> <Gold.Chemscore.Hbond.Weighted>
-4.4425

> <Gold.Chemscore.Metal.Weighted>
-0.0000

> <Gold.Chemscore.Lipo.Weighted>
-10.3207

> <Gold.Chemscore.Internal_Hbond.Weighted>
0.0000

> <Gold.Chemscore.DEClash.Weighted>
0.1301

> <Gold.Chemscore.DEInternal.Weighted>
3.5242

> <Gold.Chemscore.Rot.Weighted>
2.5600

> <Gold.Chemscore.Internal.Correction.Weighted>
   9.000000E+99

> <Gold.Protein.RotatedTorsions>
[ 6907 6896 6895 6894 ] final  116.22 input  -60.11 | X-H torsion
[ 7974 7965 7964 7962 ] final  -96.16 input  175.53 | X-H torsion
[ 8008 7997 7996 7995 ] final -155.61 input   59.86 | X-H torsion
[ 10167 10162 10161 10158 ] final -115.59 input  -65.29 | X-H torsion
[ 10718 10713 10712 10709 ] final  131.21 input   66.30 | X-H torsion
[ 10763 10752 10751 10750 ] final  -90.89 input  -60.55 | X-H torsion
[ 11005 11000 10999 10996 ] final -173.43 input  -57.11 | X-H torsion

> <Gold.Protein.ActiveResidues>
 VAL166  LYS551  ARG553  GLY616  TRP617  ASP618  TYR619  PRO620  LYS621  CYS622 
 ASP623  PHE694  ASN695  SER759  ASP760  ASP761  ALA762  ILE779  LEU786  VAL792 
 PHE793  MET794  SER795  GLU796  ALA797  LYS798  CYS799  TRP800  GLU811  SER814 

> <Gold.Protein.RotatedAtoms>
  152.4692  133.7991  159.6942 H   0  0  0  0  0  0  0  0  0  0  0  0  # atno 6907 bound_to 6896
  150.8672  133.7548  159.2979 H   0  0  0  0  0  0  0  0  0  0  0  0  # atno 6908 bound_to 6896
  151.5094  135.1068  159.9902 H   0  0  0  0  0  0  0  0  0  0  0  0  # atno 6909 bound_to 6896
  145.3506  140.9476  143.2556 H   0  0  0  0  0  0  0  0  0  0  0  0  # atno 7974 bound_to 7965
  155.7044  140.0770  157.2397 H   0  0  0  0  0  0  0  0  0  0  0  0  # atno 8008 bound_to 7997
  154.4068  140.1641  156.2280 H   0  0  0  0  0  0  0  0  0  0  0  0  # atno 8009 bound_to 7997
  155.9339  140.3389  155.6274 H   0  0  0  0  0  0  0  0  0  0  0  0  # atno 8010 bound_to 7997
  140.0884  143.4722  152.1884 H   0  0  0  0  0  0  0  0  0  0  0  0  # atno 10167 bound_to 10162
  157.4989  131.1093  150.9454 H   0  0  0  0  0  0  0  0  0  0  0  0  # atno 10718 bound_to 10713
  154.6705  135.5288  153.8132 H   0  0  0  0  0  0  0  0  0  0  0  0  # atno 10763 bound_to 10752
  153.0498  135.6528  154.0733 H   0  0  0  0  0  0  0  0  0  0  0  0  # atno 10764 bound_to 10752
  154.0632  135.2960  155.3301 H   0  0  0  0  0  0  0  0  0  0  0  0  # atno 10765 bound_to 10752
  140.4859  134.6031  157.4937 H   0  0  0  0  0  0  0  0  0  0  0  0  # atno 11005 bound_to 11000
  144.8721  139.5024  143.6763 LP  0  0  0  0  0  0  0  0  0  0  0  0  # atno 17320 bound_to 7965
  146.2970  139.7307  142.9119 LP  0  0  0  0  0  0  0  0  0  0  0  0  # atno 17321 bound_to 7965
  139.5739  144.7477  151.3818 LP  0  0  0  0  0  0  0  0  0  0  0  0  # atno 17342 bound_to 10162
  140.7041  143.7557  150.7452 LP  0  0  0  0  0  0  0  0  0  0  0  0  # atno 17343 bound_to 10162
  157.0132  130.5645  149.5323 LP  0  0  0  0  0  0  0  0  0  0  0  0  # atno 17370 bound_to 10713
  156.0217  130.5312  150.8294 LP  0  0  0  0  0  0  0  0  0  0  0  0  # atno 17371 bound_to 10713
  139.9798  134.7155  155.9880 LP  0  0  0  0  0  0  0  0  0  0  0  0  # atno 17394 bound_to 11000
  141.1508  133.6549  156.4008 LP  0  0  0  0  0  0  0  0  0  0  0  0  # atno 17395 bound_to 11000

$$$$
