AV-unprocessed.smi:672|AV-procd|sdf|3296|dock4
  -GOLD-   22720 0253D 1   1.00000     0.00000
 Structure written by MMmdl.
 35 36  0  0  0  0  0  0  0  0  2 V2000
  148.1717  141.1544  153.7742 C   0  0  0  0  0  0  0  0  0  0  0  0
  148.9941  140.9992  155.0579 C   0  0  0  0  0  0  0  0  0  0  0  0
  149.8936  139.8092  155.0214 C   0  0  0  0  0  0  0  0  0  0  0  0
  151.2256  139.9072  155.0133 N   0  0  0  0  0  0  0  0  0  0  0  0
  151.8410  138.6658  154.9476 N   0  0  0  0  0  0  0  0  0  0  0  0
  150.9686  137.6499  154.8818 C   0  0  0  0  0  0  0  0  0  0  0  0
  151.3590  136.3669  154.8093 N   0  5  0  0  0  0  0  0  0  0  0  0
  150.5567  135.3900  155.2899 C   0  0  0  0  0  0  0  0  0  0  0  0
  150.7104  134.7711  156.3455 O   0  0  0  0  0  0  0  0  0  0  0  0
  149.5157  135.1061  154.4942 N   0  0  0  0  0  0  0  0  0  0  0  0
  148.4931  134.0930  154.7475 C   0  0  1  0  0  0  0  0  0  0  0  0
  147.5196  133.9906  153.5569 C   0  0  0  0  0  0  0  0  0  0  0  0
  147.4544  132.5074  153.1840 C   0  0  0  0  0  0  0  0  0  0  0  0
  148.8105  131.9489  153.6076 C   0  0  2  0  0  0  0  0  0  0  0  0
  148.7947  130.1429  153.7964 S   0  0  0  0  0  0  0  0  0  0  0  0
  150.4270  129.8854  154.5414 C   0  0  0  0  0  0  0  0  0  0  0  0
  149.1127  132.6909  154.9115 C   0  0  0  0  0  0  0  0  0  0  0  0
  149.2831  138.1664  154.9194 S   0  0  0  0  0  0  0  0  0  0  0  0
  147.5229  142.0285  153.8314 H   0  0  0  0  0  0  0  0  0  0  0  0
  147.5410  140.2813  153.6048 H   0  0  0  0  0  0  0  0  0  0  0  0
  148.8181  141.2742  152.9043 H   0  0  0  0  0  0  0  0  0  0  0  0
  149.5971  141.8925  155.2244 H   0  0  0  0  0  0  0  0  0  0  0  0
  148.3282  140.9074  155.9163 H   0  0  0  0  0  0  0  0  0  0  0  0
  149.4289  135.6380  153.6406 H   0  0  0  0  0  0  0  0  0  0  0  0
  147.9403  134.3582  155.6508 H   0  0  0  0  0  0  0  0  0  0  0  0
  146.5341  134.3899  153.7981 H   0  0  0  0  0  0  0  0  0  0  0  0
  147.8933  134.5571  152.7022 H   0  0  0  0  0  0  0  0  0  0  0  0
  146.6584  132.0247  153.7531 H   0  0  0  0  0  0  0  0  0  0  0  0
  147.2480  132.3511  152.1248 H   0  0  0  0  0  0  0  0  0  0  0  0
  149.5539  132.2207  152.8567 H   0  0  0  0  0  0  0  0  0  0  0  0
  150.6051  128.8210  154.6942 H   0  0  0  0  0  0  0  0  0  0  0  0
  150.4927  130.3861  155.5074 H   0  0  0  0  0  0  0  0  0  0  0  0
  151.2094  130.2772  153.8913 H   0  0  0  0  0  0  0  0  0  0  0  0
  150.1802  132.7116  155.1344 H   0  0  0  0  0  0  0  0  0  0  0  0
  148.6230  132.1840  155.7441 H   0  0  0  0  0  0  0  0  0  0  0  0
  1  2  1  0  0  0  0
  1 19  1  0  0  0  0
  1 20  1  0  0  0  0
  1 21  1  0  0  0  0
  2  3  1  0  0  0  0
  2 22  1  0  0  0  0
  2 23  1  0  0  0  0
  3 18  1  0  0  0  0
  3  4  2  0  0  0  0
  4  5  1  0  0  0  0
  5  6  2  0  0  0  0
  6  7  1  0  0  0  0
  6 18  1  0  0  0  0
  7  8  1  0  0  0  0
  8  9  2  0  0  0  0
  8 10  1  0  0  0  0
 10 11  1  0  0  0  0
 10 24  1  0  0  0  0
 11 17  1  0  0  0  0
 11 12  1  0  0  0  0
 11 25  1  0  0  0  0
 12 13  1  0  0  0  0
 12 26  1  0  0  0  0
 12 27  1  0  0  0  0
 13 14  1  0  0  0  0
 13 28  1  0  0  0  0
 13 29  1  0  0  0  0
 14 15  1  0  0  0  0
 14 17  1  0  0  0  0
 14 30  1  0  0  0  0
 15 16  1  0  0  0  0
 16 31  1  0  0  0  0
 16 32  1  0  0  0  0
 16 33  1  0  0  0  0
 17 34  1  0  0  0  0
 17 35  1  0  0  0  0
M  CHG  1   7  -1
M  END
> <s_m_source_file>
AV-unprocessed.smi

> <i_m_source_file_index>
672

> <i_lp_mmshare_version>
43012

> <i_f3d_flags>
0

> <s_epik_input>
W0NIM11bQ0gyXWMxbm5jKHMxKVtOSF1DKD1PKVtOSF1bQ0BASF0yW0NIMl1bQ0gyXVtDQEhdKFtDSDJdMilTW0NIM10=

> <s_epik_cmdline>
J2VwaWtfcHl0aG9uJywgJy1waCcsICc3LjAnLCAnLXRuJywgJzgnLCAnLW1hJywgJzIwMCcsICctbWV0YWxfYmluZGluZycsICctaW1hZScsICc8aW5maWxlLm1hZT4nLCAnLW9tYWUnLCAnPG91dGZpbGUubWFlPic=

> <r_lp_tautomer_probability>
1

> <r_epik_Ionization_Penalty>
4.49964

> <r_epik_Ionization_Penalty_Charging>
4.32991

> <r_epik_Ionization_Penalty_Neutral>
0.169727

> <r_epik_State_Penalty>
4.32952

> <r_epik_Charging_Adjusted_Penalty>
8.65943

> <i_epik_Tot_Q>
-1

> <i_epik_Tot_abs_Q>
1

> <r_epik_Metal_State_Penalty>
0.740482

> <b_epik_Metal_Only>
1

> <s_lp_Force_Field>
OPLS_2005

> <r_lp_Energy>
9.75318

> <b_lp_Chiralities_Consistent>
1

> <s_lp_Variant>
AV-unprocessed.smi:672-8

> <Gold.Version>
5.8.1

> <Gold.Id.Protein>
6NUR|6NUR_protein|mol2

> <Gold.PLP.Fitness>
42.5113

> <Gold.PLP.PLP>
-32.2772

> <Gold.PLP.part.hbond>
-3.0000

> <Gold.PLP.part.metal>
0.0000

> <Gold.PLP.part.buried>
-3.8008

> <Gold.PLP.part.nonpolar>
-26.0715

> <Gold.PLP.part.repulsive>
0.3624

> <Gold.PLP.ligand.clash>
0.0000

> <Gold.PLP.ligand.torsion>
0.9235

> <Gold.PLP.Chemscore.Hbond>
4.0000

> <Gold.PLP.Chemscore.CHOScore>
0.0000

> <Gold.PLP.Chemscore.Metal>
0.0000

> <Gold.Chemscore.Hbonds>
donor molecule, donor type, donor heavy atom, donor atom, acceptor molecule, acceptor atom, score
      L1  H    10    24       P1  7948  1.00
      P1  H  7989  7998       L1     4  1.00
      P1  H 10752 10765       L1     7  2.00

> <Gold.PLP.Chemscore.Internal.Correction>
0.0812

> <Gold.Rescore>
     Score         DG    S(hbond)    S(metal)    S(lipo)     H(rot)  DE(clash)    DE(int)     intcor
     14.90     -16.90       2.54        0.00      54.43       1.34       0.11       1.89       ----

> <Gold.Chemscore.Fitness>
14.8964

> <Gold.Chemscore.DG>
-16.8964

> <Gold.Chemscore.ZeroCoef>
-5.4800

> <Gold.Chemscore.Hbond>
2.5394

> <Gold.Chemscore.Metal>
0.0000

> <Gold.Chemscore.Lipo>
54.4263

> <Gold.Chemscore.Internal_Hbond>
0.0000

> <Gold.Chemscore.DEClash>
0.1103

> <Gold.Chemscore.DEInternal>
1.8897

> <Gold.Chemscore.Rot>
1.3410

> <Gold.Chemscore.Internal.Correction>
   9.000000E+99

> <Gold.Chemscore.Hbonds>
donor molecule, donor type, donor heavy atom, donor atom, acceptor molecule, acceptor atom, score
      L1  H    10    24       P1  7948  0.35
      P1  H  7989  7998       L1     4  0.39
      P1  H 10752 10765       L1     7  0.55

> <Gold.Chemscore.Hbond.Weighted>
-8.4814

> <Gold.Chemscore.Metal.Weighted>
-0.0000

> <Gold.Chemscore.Lipo.Weighted>
-6.3679

> <Gold.Chemscore.Internal_Hbond.Weighted>
0.0000

> <Gold.Chemscore.DEClash.Weighted>
0.1103

> <Gold.Chemscore.DEInternal.Weighted>
1.8897

> <Gold.Chemscore.Rot.Weighted>
3.4329

> <Gold.Chemscore.Internal.Correction.Weighted>
   9.000000E+99

> <Gold.Protein.RotatedTorsions>
[ 6907 6896 6895 6894 ] final  -58.26 input  -60.11 | X-H torsion
[ 7974 7965 7964 7962 ] final   83.98 input  175.53 | X-H torsion
[ 8008 7997 7996 7995 ] final  -95.29 input   59.86 | X-H torsion
[ 10167 10162 10161 10158 ] final  132.62 input  -65.29 | X-H torsion
[ 10718 10713 10712 10709 ] final -146.76 input   66.30 | X-H torsion
[ 10763 10752 10751 10750 ] final  174.03 input  -60.55 | X-H torsion
[ 11005 11000 10999 10996 ] final  121.92 input  -57.11 | X-H torsion

> <Gold.Protein.ActiveResidues>
 VAL166  LYS551  ARG553  GLY616  TRP617  ASP618  TYR619  PRO620  LYS621  CYS622 
 ASP623  PHE694  ASN695  SER759  ASP760  ASP761  ALA762  ILE779  LEU786  VAL792 
 PHE793  MET794  SER795  GLU796  ALA797  LYS798  CYS799  TRP800  GLU811  SER814 

> <Gold.Protein.RotatedAtoms>
  150.8021  134.7121  159.6609 H   0  0  0  0  0  0  0  0  0  0  0  0  # atno 6907 bound_to 6896
  152.4138  134.6074  160.0026 H   0  0  0  0  0  0  0  0  0  0  0  0  # atno 6908 bound_to 6896
  151.6309  133.3295  159.3145 H   0  0  0  0  0  0  0  0  0  0  0  0  # atno 6909 bound_to 6896
  145.6047  139.2358  143.2226 H   0  0  0  0  0  0  0  0  0  0  0  0  # atno 7974 bound_to 7965
  154.7595  140.0481  157.0961 H   0  0  0  0  0  0  0  0  0  0  0  0  # atno 8008 bound_to 7997
  154.9956  140.3118  155.4869 H   0  0  0  0  0  0  0  0  0  0  0  0  # atno 8009 bound_to 7997
  156.2901  140.2211  156.5063 H   0  0  0  0  0  0  0  0  0  0  0  0  # atno 8010 bound_to 7997
  139.5332  144.6653  151.4878 H   0  0  0  0  0  0  0  0  0  0  0  0  # atno 10167 bound_to 10162
  156.3989  130.7924  151.2133 H   0  0  0  0  0  0  0  0  0  0  0  0  # atno 10718 bound_to 10713
  154.4482  135.2764  155.1799 H   0  0  0  0  0  0  0  0  0  0  0  0  # atno 10763 bound_to 10752
  154.3637  135.6124  153.5707 H   0  0  0  0  0  0  0  0  0  0  0  0  # atno 10764 bound_to 10752
  152.9845  135.5840  154.4822 H   0  0  0  0  0  0  0  0  0  0  0  0  # atno 10765 bound_to 10752
  139.9246  134.9640  156.8030 H   0  0  0  0  0  0  0  0  0  0  0  0  # atno 11005 bound_to 11000
  146.1549  140.6872  142.9304 LP  0  0  0  0  0  0  0  0  0  0  0  0  # atno 17320 bound_to 7965
  144.7295  140.4627  143.6948 LP  0  0  0  0  0  0  0  0  0  0  0  0  # atno 17321 bound_to 7965
  140.6523  143.8672  150.6798 LP  0  0  0  0  0  0  0  0  0  0  0  0  # atno 17342 bound_to 10162
  140.2040  143.3936  152.1769 LP  0  0  0  0  0  0  0  0  0  0  0  0  # atno 17343 bound_to 10162
  157.7503  131.0293  150.4085 LP  0  0  0  0  0  0  0  0  0  0  0  0  # atno 17370 bound_to 10713
  156.4361  130.3982  149.6728 LP  0  0  0  0  0  0  0  0  0  0  0  0  # atno 17371 bound_to 10713
  140.6374  133.9850  155.7691 LP  0  0  0  0  0  0  0  0  0  0  0  0  # atno 17394 bound_to 11000
  141.0794  134.0086  157.3409 LP  0  0  0  0  0  0  0  0  0  0  0  0  # atno 17395 bound_to 11000

$$$$
