AV-unprocessed.smi:2074|AV-procd|sdf|8452|dock2
  -GOLD-   2272011143D 1   1.00000     0.00000
 Structure written by MMmdl.
 43 44  0  0  0  0  0  0  0  0  1 V2000
  149.2739  137.8839  154.4818 C   0  0  0  0  0  0  0  0  0  0  0  0
  148.4097  139.1107  154.4316 C   0  0  0  0  0  0  0  0  0  0  0  0
  147.6080  139.2995  153.3971 N   0  0  0  0  0  0  0  0  0  0  0  0
  146.9585  140.5148  153.6331 O   0  0  0  0  0  0  0  0  0  0  0  0
  147.4023  141.0170  154.8134 C   0  0  0  0  0  0  0  0  0  0  0  0
  146.8296  142.3253  155.2414 C   0  0  0  0  0  0  0  0  0  0  0  0
  148.3214  140.1746  155.3758 C   0  0  0  0  0  0  0  0  0  0  0  0
  149.0698  140.3328  156.6762 C   0  0  0  0  0  0  0  0  0  0  0  0
  150.0522  141.5033  156.5837 C   0  0  0  0  0  0  0  0  0  0  0  0
  150.8122  141.6014  155.6198 O   0  0  0  0  0  0  0  0  0  0  0  0
  150.0376  142.3776  157.6017 N   0  0  0  0  0  0  0  0  0  0  0  0
  150.9471  143.5112  157.7445 C   0  0  0  0  0  0  0  0  0  0  0  0
  151.2183  143.8813  159.2317 C   0  0  2  0  0  0  0  0  0  0  0  0
  152.0346  145.1983  159.2726 C   0  0  0  0  0  0  0  0  0  0  0  0
  151.8572  142.7924  160.0066 N   0  0  0  0  0  0  0  0  0  0  0  0
  152.0625  143.1436  161.4169 C   0  0  0  0  0  0  0  0  0  0  0  0
  152.7573  142.0267  162.2150 C   0  0  0  0  0  0  0  0  0  0  0  0
  154.0010  141.7053  161.6079 O   0  0  0  0  0  0  0  0  0  0  0  0
  153.8428  141.2844  160.2603 C   0  0  0  0  0  0  0  0  0  0  0  0
  153.1555  142.3957  159.4483 C   0  0  0  0  0  0  0  0  0  0  0  0
  149.3848  137.5235  155.5045 H   0  0  0  0  0  0  0  0  0  0  0  0
  150.2703  138.0970  154.0942 H   0  0  0  0  0  0  0  0  0  0  0  0
  148.8531  137.0705  153.8898 H   0  0  0  0  0  0  0  0  0  0  0  0
  147.6004  142.9596  155.6791 H   0  0  0  0  0  0  0  0  0  0  0  0
  146.0480  142.1783  155.9867 H   0  0  0  0  0  0  0  0  0  0  0  0
  146.3956  142.8591  154.3956 H   0  0  0  0  0  0  0  0  0  0  0  0
  148.3902  140.5229  157.5073 H   0  0  0  0  0  0  0  0  0  0  0  0
  149.6055  139.4165  156.9283 H   0  0  0  0  0  0  0  0  0  0  0  0
  149.3762  142.2268  158.3494 H   0  0  0  0  0  0  0  0  0  0  0  0
  151.8587  143.2559  157.2066 H   0  0  0  0  0  0  0  0  0  0  0  0
  150.5143  144.3651  157.2224 H   0  0  0  0  0  0  0  0  0  0  0  0
  150.2506  144.0920  159.6901 H   0  0  0  0  0  0  0  0  0  0  0  0
  151.6153  145.9720  158.6313 H   0  0  0  0  0  0  0  0  0  0  0  0
  153.0638  145.0339  158.9517 H   0  0  0  0  0  0  0  0  0  0  0  0
  152.0571  145.6361  160.2699 H   0  0  0  0  0  0  0  0  0  0  0  0
  152.6509  144.0597  161.4885 H   0  0  0  0  0  0  0  0  0  0  0  0
  151.1128  143.3363  161.9109 H   0  0  0  0  0  0  0  0  0  0  0  0
  152.9357  142.3496  163.2408 H   0  0  0  0  0  0  0  0  0  0  0  0
  152.1263  141.1380  162.2644 H   0  0  0  0  0  0  0  0  0  0  0  0
  154.8240  141.0614  159.8408 H   0  0  0  0  0  0  0  0  0  0  0  0
  153.2616  140.3616  160.2232 H   0  0  0  0  0  0  0  0  0  0  0  0
  153.0388  142.0219  158.4326 H   0  0  0  0  0  0  0  0  0  0  0  0
  153.8147  143.2634  159.3929 H   0  0  0  0  0  0  0  0  0  0  0  0
  1  2  1  0  0  0  0
  1 21  1  0  0  0  0
  1 22  1  0  0  0  0
  1 23  1  0  0  0  0
  2  7  1  0  0  0  0
  2  3  2  0  0  0  0
  3  4  1  0  0  0  0
  4  5  1  0  0  0  0
  5  6  1  0  0  0  0
  5  7  2  0  0  0  0
  6 24  1  0  0  0  0
  6 25  1  0  0  0  0
  6 26  1  0  0  0  0
  7  8  1  0  0  0  0
  8  9  1  0  0  0  0
  8 27  1  0  0  0  0
  8 28  1  0  0  0  0
  9 10  2  0  0  0  0
  9 11  1  0  0  0  0
 11 12  1  0  0  0  0
 11 29  1  0  0  0  0
 12 13  1  0  0  0  0
 12 30  1  0  0  0  0
 12 31  1  0  0  0  0
 13 14  1  0  0  0  0
 13 15  1  0  0  0  0
 13 32  1  0  0  0  0
 14 33  1  0  0  0  0
 14 34  1  0  0  0  0
 14 35  1  0  0  0  0
 15 20  1  0  0  0  0
 15 16  1  0  0  0  0
 16 17  1  0  0  0  0
 16 36  1  0  0  0  0
 16 37  1  0  0  0  0
 17 18  1  0  0  0  0
 17 38  1  0  0  0  0
 17 39  1  0  0  0  0
 18 19  1  0  0  0  0
 19 20  1  0  0  0  0
 19 40  1  0  0  0  0
 19 41  1  0  0  0  0
 20 42  1  0  0  0  0
 20 43  1  0  0  0  0
M  END
> <s_m_source_file>
AV-unprocessed.smi

> <i_m_source_file_index>
2074

> <i_lp_mmshare_version>
43012

> <i_f3d_flags>
0

> <s_epik_input>
W0NIM11jMW5vYyhbQ0gzXSljMVtDSDJdQyg9TylbTkhdW0NIMl1bQ0BIXShbQ0gzXSlOMltDSDJdW0NIMl1PW0NIMl1bQ0gyXTI=

> <s_epik_cmdline>
J2VwaWtfcHl0aG9uJywgJy1waCcsICc3LjAnLCAnLXRuJywgJzgnLCAnLW1hJywgJzIwMCcsICctbWV0YWxfYmluZGluZycsICctaW1hZScsICc8aW5maWxlLm1hZT4nLCAnLW9tYWUnLCAnPG91dGZpbGUubWFlPic=

> <r_epik_Ionization_Penalty>
0.234179

> <r_epik_Ionization_Penalty_Charging>
0

> <r_epik_Ionization_Penalty_Neutral>
0.234179

> <r_epik_State_Penalty>
0.224936

> <r_epik_Charging_Adjusted_Penalty>
0.224936

> <i_epik_Tot_Q>
0

> <i_epik_Tot_abs_Q>
0

> <r_epik_Metal_State_Penalty>
0.224936

> <b_epik_Metal_Only>
0

> <s_lp_Force_Field>
OPLS_2005

> <r_lp_Energy>
22.7236

> <b_lp_Chiralities_Consistent>
1

> <s_lp_Variant>
AV-unprocessed.smi:2074-1

> <Gold.Version>
5.8.1

> <Gold.Id.Protein>
6NUR|6NUR_protein|mol2

> <Gold.PLP.Fitness>
37.8290

> <Gold.PLP.PLP>
-37.1997

> <Gold.PLP.part.hbond>
-2.0000

> <Gold.PLP.part.metal>
0.0000

> <Gold.PLP.part.buried>
-4.2830

> <Gold.PLP.part.nonpolar>
-30.3876

> <Gold.PLP.part.repulsive>
1.2046

> <Gold.PLP.ligand.clash>
0.0000

> <Gold.PLP.ligand.torsion>
0.3897

> <Gold.PLP.Chemscore.Hbond>
0.4521

> <Gold.PLP.Chemscore.CHOScore>
0.0000

> <Gold.PLP.Chemscore.Metal>
0.0000

> <Gold.Chemscore.Hbonds>
donor molecule, donor type, donor heavy atom, donor atom, acceptor molecule, acceptor atom, score
      P1  H  7989  7998       L1    10  0.07

> <Gold.PLP.Chemscore.Internal.Correction>
0.0523

> <Gold.Rescore>
     Score         DG    S(hbond)    S(metal)    S(lipo)     H(rot)  DE(clash)    DE(int)     intcor
     11.79     -14.31       0.41        0.00     101.37       1.72       2.15       0.36       ----

> <Gold.Chemscore.Fitness>
11.7933

> <Gold.Chemscore.DG>
-14.3112

> <Gold.Chemscore.ZeroCoef>
-5.4800

> <Gold.Chemscore.Hbond>
0.4111

> <Gold.Chemscore.Metal>
0.0000

> <Gold.Chemscore.Lipo>
101.3671

> <Gold.Chemscore.Internal_Hbond>
0.0000

> <Gold.Chemscore.DEClash>
2.1540

> <Gold.Chemscore.DEInternal>
0.3639

> <Gold.Chemscore.Rot>
1.7195

> <Gold.Chemscore.Internal.Correction>
   9.000000E+99

> <Gold.Chemscore.Hbonds>
donor molecule, donor type, donor heavy atom, donor atom, acceptor molecule, acceptor atom, score
      P1  H  7989  7998       L1    10  0.07

> <Gold.Chemscore.Hbond.Weighted>
-1.3730

> <Gold.Chemscore.Metal.Weighted>
-0.0000

> <Gold.Chemscore.Lipo.Weighted>
-11.8600

> <Gold.Chemscore.Internal_Hbond.Weighted>
0.0000

> <Gold.Chemscore.DEClash.Weighted>
2.1540

> <Gold.Chemscore.DEInternal.Weighted>
0.3639

> <Gold.Chemscore.Rot.Weighted>
4.4018

> <Gold.Chemscore.Internal.Correction.Weighted>
   9.000000E+99

> <Gold.Protein.RotatedTorsions>
[ 6907 6896 6895 6894 ] final  -43.75 input  -60.11 | X-H torsion
[ 7974 7965 7964 7962 ] final  -47.69 input  175.53 | X-H torsion
[ 8008 7997 7996 7995 ] final   72.79 input   59.86 | X-H torsion
[ 10167 10162 10161 10158 ] final -147.50 input  -65.29 | X-H torsion
[ 10718 10713 10712 10709 ] final  101.56 input   66.30 | X-H torsion
[ 10763 10752 10751 10750 ] final -111.44 input  -60.55 | X-H torsion
[ 11005 11000 10999 10996 ] final -115.55 input  -57.11 | X-H torsion

> <Gold.Protein.ActiveResidues>
 VAL166  LYS551  ARG553  GLY616  TRP617  ASP618  TYR619  PRO620  LYS621  CYS622 
 ASP623  PHE694  ASN695  SER759  ASP760  ASP761  ALA762  ILE779  LEU786  VAL792 
 PHE793  MET794  SER795  GLU796  ALA797  LYS798  CYS799  TRP800  GLU811  SER814 

> <Gold.Protein.RotatedAtoms>
  150.9405  134.8814  159.7608 H   0  0  0  0  0  0  0  0  0  0  0  0  # atno 6907 bound_to 6896
  152.5078  134.3949  159.9406 H   0  0  0  0  0  0  0  0  0  0  0  0  # atno 6908 bound_to 6896
  151.3970  133.3730  159.2762 H   0  0  0  0  0  0  0  0  0  0  0  0  # atno 6909 bound_to 6896
  145.9589  140.7499  142.9467 H   0  0  0  0  0  0  0  0  0  0  0  0  # atno 7974 bound_to 7965
  155.7740  140.3483  155.5262 H   0  0  0  0  0  0  0  0  0  0  0  0  # atno 8008 bound_to 7997
  155.8794  140.0999  157.1517 H   0  0  0  0  0  0  0  0  0  0  0  0  # atno 8009 bound_to 7997
  154.4023  140.1325  156.4164 H   0  0  0  0  0  0  0  0  0  0  0  0  # atno 8010 bound_to 7997
  139.7616  143.8369  152.2608 H   0  0  0  0  0  0  0  0  0  0  0  0  # atno 10167 bound_to 10162
  157.6826  131.0729  150.5271 H   0  0  0  0  0  0  0  0  0  0  0  0  # atno 10718 bound_to 10713
  154.8300  135.4527  154.1040 H   0  0  0  0  0  0  0  0  0  0  0  0  # atno 10763 bound_to 10752
  153.2321  135.6906  153.7885 H   0  0  0  0  0  0  0  0  0  0  0  0  # atno 10764 bound_to 10752
  153.7263  135.3334  155.3253 H   0  0  0  0  0  0  0  0  0  0  0  0  # atno 10765 bound_to 10752
  141.0480  133.9732  157.2885 H   0  0  0  0  0  0  0  0  0  0  0  0  # atno 11005 bound_to 11000
  144.6811  140.2558  143.7325 LP  0  0  0  0  0  0  0  0  0  0  0  0  # atno 17320 bound_to 7965
  145.8067  139.1986  143.2016 LP  0  0  0  0  0  0  0  0  0  0  0  0  # atno 17321 bound_to 7965
  139.8376  144.7225  150.9371 LP  0  0  0  0  0  0  0  0  0  0  0  0  # atno 17342 bound_to 10162
  140.7807  143.4012  151.1146 LP  0  0  0  0  0  0  0  0  0  0  0  0  # atno 17343 bound_to 10162
  156.5582  130.4249  149.6075 LP  0  0  0  0  0  0  0  0  0  0  0  0  # atno 17370 bound_to 10713
  156.2844  130.7089  151.1921 LP  0  0  0  0  0  0  0  0  0  0  0  0  # atno 17371 bound_to 10713
  139.9327  135.0199  156.8455 LP  0  0  0  0  0  0  0  0  0  0  0  0  # atno 17394 bound_to 11000
  140.6110  134.0083  155.7576 LP  0  0  0  0  0  0  0  0  0  0  0  0  # atno 17395 bound_to 11000

$$$$
