AV-unprocessed.smi:618|AV-procd|sdf|3074|dock2
  -GOLD-   2262023593D 1   1.00000     0.00000
 Structure written by MMmdl.
 41 43  0  0  0  0  0  0  0  0  2 V2000
  150.2336  135.1491  156.1246 O   0  0  0  0  0  0  0  0  0  0  0  0
  149.8820  135.4163  154.9756 C   0  0  0  0  0  0  0  0  0  0  0  0
  149.3462  134.5144  154.1417 N   0  0  0  0  0  0  0  0  0  0  0  0
  149.1176  133.1097  154.4631 C   0  0  0  0  0  0  0  0  0  0  0  0
  148.4395  132.3564  153.3050 C   0  0  2  0  0  0  0  0  0  0  0  0
  147.5391  133.2890  152.4610 C   0  0  0  0  0  0  0  0  0  0  0  0
  146.8420  132.4699  151.4527 N   0  3  2  0  0  0  0  0  0  0  0  0
  145.9320  133.1433  150.5102 C   0  0  0  0  0  0  0  0  0  0  0  0
  144.9512  132.0435  150.0554 C   0  0  0  0  0  0  0  0  0  0  0  0
  145.2820  130.8077  150.9124 C   0  0  0  0  0  0  0  0  0  0  0  0
  146.0616  131.4016  152.0809 C   0  0  1  0  0  0  0  0  0  0  0  0
  147.0087  130.4850  152.8659 C   0  0  0  0  0  0  0  0  0  0  0  0
  147.6590  131.2872  153.8530 O   0  0  0  0  0  0  0  0  0  0  0  0
  149.9552  136.6279  154.3992 N   0  0  0  0  0  0  0  0  0  0  0  0
  150.4781  137.8351  154.9365 C   0  0  0  0  0  0  0  0  0  0  0  0
  151.3658  137.9006  156.0379 C   0  0  0  0  0  0  0  0  0  0  0  0
  151.8297  139.1603  156.4628 C   0  0  0  0  0  0  0  0  0  0  0  0
  151.3967  140.3064  155.7684 C   0  0  0  0  0  0  0  0  0  0  0  0
  150.5614  140.2581  154.7095 N   0  0  0  0  0  0  0  0  0  0  0  0
  150.1210  139.0468  154.3074 C   0  0  0  0  0  0  0  0  0  0  0  0
  149.0779  134.8196  153.2174 H   0  0  0  0  0  0  0  0  0  0  0  0
  150.0790  132.6509  154.6954 H   0  0  0  0  0  0  0  0  0  0  0  0
  148.5135  133.0369  155.3691 H   0  0  0  0  0  0  0  0  0  0  0  0
  149.2052  131.9291  152.6550 H   0  0  0  0  0  0  0  0  0  0  0  0
  146.8118  133.8018  153.0926 H   0  0  0  0  0  0  0  0  0  0  0  0
  148.1370  134.0534  151.9631 H   0  0  0  0  0  0  0  0  0  0  0  0
  145.3907  133.9425  151.0189 H   0  0  0  0  0  0  0  0  0  0  0  0
  146.4853  133.5810  149.6789 H   0  0  0  0  0  0  0  0  0  0  0  0
  143.9230  132.3667  150.2234 H   0  0  0  0  0  0  0  0  0  0  0  0
  145.0558  131.8219  148.9929 H   0  0  0  0  0  0  0  0  0  0  0  0
  144.3931  130.2622  151.2309 H   0  0  0  0  0  0  0  0  0  0  0  0
  145.9145  130.1218  150.3467 H   0  0  0  0  0  0  0  0  0  0  0  0
  145.3479  131.8512  152.7751 H   0  0  0  0  0  0  0  0  0  0  0  0
  146.4509  129.6893  153.3598 H   0  0  0  0  0  0  0  0  0  0  0  0
  147.7444  130.0130  152.2127 H   0  0  0  0  0  0  0  0  0  0  0  0
  149.5478  136.7073  153.4789 H   0  0  0  0  0  0  0  0  0  0  0  0
  151.7101  137.0179  156.5534 H   0  0  0  0  0  0  0  0  0  0  0  0
  152.5069  139.2451  157.2997 H   0  0  0  0  0  0  0  0  0  0  0  0
  151.7355  141.2871  156.0680 H   0  0  0  0  0  0  0  0  0  0  0  0
  149.4567  139.0466  153.4554 H   0  0  0  0  0  0  0  0  0  0  0  0
  147.5489  132.0154  150.8923 H   0  0  0  0  0  0  0  0  0  0  0  0
  1  2  2  0  0  0  0
  2  3  1  0  0  0  0
  2 14  1  0  0  0  0
  3  4  1  0  0  0  0
  3 21  1  0  0  0  0
  4  5  1  0  0  0  0
  4 22  1  0  0  0  0
  4 23  1  0  0  0  0
  5 13  1  0  0  0  0
  5  6  1  0  0  0  0
  5 24  1  0  0  0  0
  6  7  1  0  0  0  0
  6 25  1  0  0  0  0
  6 26  1  0  0  0  0
  7 11  1  0  0  0  0
  7  8  1  0  0  0  0
  7 41  1  0  0  0  0
  8  9  1  0  0  0  0
  8 27  1  0  0  0  0
  8 28  1  0  0  0  0
  9 10  1  0  0  0  0
  9 29  1  0  0  0  0
  9 30  1  0  0  0  0
 10 11  1  0  0  0  0
 10 31  1  0  0  0  0
 10 32  1  0  0  0  0
 11 12  1  0  0  0  0
 11 33  1  0  0  0  0
 12 13  1  0  0  0  0
 12 34  1  0  0  0  0
 12 35  1  0  0  0  0
 14 15  1  0  0  0  0
 14 36  1  0  0  0  0
 15 20  1  0  0  0  0
 15 16  2  0  0  0  0
 16 17  1  0  0  0  0
 16 37  1  0  0  0  0
 17 18  2  0  0  0  0
 17 38  1  0  0  0  0
 18 19  1  0  0  0  0
 18 39  1  0  0  0  0
 19 20  2  0  0  0  0
 20 40  1  0  0  0  0
M  CHG  1   7   1
M  END
> <s_m_source_file>
AV-unprocessed.smi

> <i_m_source_file_index>
618

> <i_lp_mmshare_version>
43012

> <i_f3d_flags>
0

> <s_epik_input>
W2NIXTFuW2NIXVtjSF1bY0hdYzFbTkhdQyg9TylbTkhdW0NIMl1bQ0BIXShbQ0gyXTIpT1tDSDJdW0NAQEhdKE4yMylbQ0gyXVtDSDJdW0NIMl0z

> <s_epik_cmdline>
J2VwaWtfcHl0aG9uJywgJy1waCcsICc3LjAnLCAnLXRuJywgJzgnLCAnLW1hJywgJzIwMCcsICctbWV0YWxfYmluZGluZycsICctaW1hZScsICc8aW5maWxlLm1hZT4nLCAnLW9tYWUnLCAnPG91dGZpbGUubWFlPic=

> <r_epik_Ionization_Penalty>
0.111044

> <r_epik_Ionization_Penalty_Charging>
0.10673

> <r_epik_Ionization_Penalty_Neutral>
0.00431361

> <r_epik_State_Penalty>
0.0978747

> <r_epik_Charging_Adjusted_Penalty>
0.204605

> <i_epik_Tot_Q>
1

> <i_epik_Tot_abs_Q>
1

> <r_epik_Metal_State_Penalty>
0.0947591

> <b_epik_Metal_Only>
0

> <s_lp_Force_Field>
OPLS_2005

> <r_lp_Energy>
37.7541

> <b_lp_Chiralities_Consistent>
1

> <s_lp_Variant>
AV-unprocessed.smi:618-1

> <Gold.Version>
5.8.1

> <Gold.Id.Protein>
6NUR|6NUR_protein|mol2

> <Gold.PLP.Fitness>
51.6651

> <Gold.PLP.PLP>
-38.9114

> <Gold.PLP.part.hbond>
-4.9490

> <Gold.PLP.part.metal>
0.0000

> <Gold.PLP.part.buried>
-4.0322

> <Gold.PLP.part.nonpolar>
-29.9442

> <Gold.PLP.part.repulsive>
0.3012

> <Gold.PLP.ligand.clash>
0.0000

> <Gold.PLP.ligand.torsion>
0.4445

> <Gold.PLP.Chemscore.Hbond>
3.5500

> <Gold.PLP.Chemscore.CHOScore>
0.9971

> <Gold.PLP.Chemscore.Metal>
0.0000

> <Gold.Chemscore.Hbonds>
donor molecule, donor type, donor heavy atom, donor atom, acceptor molecule, acceptor atom, score
      L1  H     3    21       P1  7948  0.75
      L1  H     7    41       P1 10747  1.00
      L1  H    14    36       P1  7948  1.00
      P1  H  7989  7998       L1    19  0.95
      L1  C    20    40       P1  7957  1.00

> <Gold.PLP.Chemscore.Internal.Correction>
0.0016

> <Gold.Rescore>
     Score         DG    S(hbond)    S(metal)    S(lipo)     H(rot)  DE(clash)    DE(int)     intcor
     20.17     -21.77       2.87        0.00      85.08       1.27       0.02       1.59       ----

> <Gold.Chemscore.Fitness>
20.1702

> <Gold.Chemscore.DG>
-21.7720

> <Gold.Chemscore.ZeroCoef>
-5.4800

> <Gold.Chemscore.Hbond>
2.8674

> <Gold.Chemscore.Metal>
0.0000

> <Gold.Chemscore.Lipo>
85.0820

> <Gold.Chemscore.Internal_Hbond>
0.0000

> <Gold.Chemscore.DEClash>
0.0156

> <Gold.Chemscore.DEInternal>
1.5862

> <Gold.Chemscore.Rot>
1.2656

> <Gold.Chemscore.Internal.Correction>
   9.000000E+99

> <Gold.Chemscore.Hbonds>
donor molecule, donor type, donor heavy atom, donor atom, acceptor molecule, acceptor atom, score
      L1  H     3    21       P1  7948  0.09
      L1  H     7    41       P1 10747  0.99
      L1  H    14    36       P1  7948  0.74
      P1  H  7989  7998       L1    19  0.14

> <Gold.Chemscore.Hbond.Weighted>
-9.5772

> <Gold.Chemscore.Metal.Weighted>
-0.0000

> <Gold.Chemscore.Lipo.Weighted>
-9.9546

> <Gold.Chemscore.Internal_Hbond.Weighted>
0.0000

> <Gold.Chemscore.DEClash.Weighted>
0.0156

> <Gold.Chemscore.DEInternal.Weighted>
1.5862

> <Gold.Chemscore.Rot.Weighted>
3.2399

> <Gold.Chemscore.Internal.Correction.Weighted>
   9.000000E+99

> <Gold.Protein.RotatedTorsions>
[ 6907 6896 6895 6894 ] final -166.10 input  -60.11 | X-H torsion
[ 7974 7965 7964 7962 ] final  -95.40 input  175.53 | X-H torsion
[ 8008 7997 7996 7995 ] final   61.55 input   59.86 | X-H torsion
[ 10167 10162 10161 10158 ] final -101.57 input  -65.29 | X-H torsion
[ 10718 10713 10712 10709 ] final  113.10 input   66.30 | X-H torsion
[ 10763 10752 10751 10750 ] final -131.80 input  -60.55 | X-H torsion
[ 11005 11000 10999 10996 ] final  111.95 input  -57.11 | X-H torsion

> <Gold.Protein.ActiveResidues>
 VAL166  LYS551  ARG553  GLY616  TRP617  ASP618  TYR619  PRO620  LYS621  CYS622 
 ASP623  PHE694  ASN695  SER759  ASP760  ASP761  ALA762  ILE779  LEU786  VAL792 
 PHE793  MET794  SER795  GLU796  ALA797  LYS798  CYS799  TRP800  GLU811  SER814 

> <Gold.Protein.RotatedAtoms>
  151.4383  133.3650  159.2777 H   0  0  0  0  0  0  0  0  0  0  0  0  # atno 6907 bound_to 6896
  150.9176  134.8595  159.7478 H   0  0  0  0  0  0  0  0  0  0  0  0  # atno 6908 bound_to 6896
  152.4965  134.4318  159.9566 H   0  0  0  0  0  0  0  0  0  0  0  0  # atno 6909 bound_to 6896
  145.3606  140.9491  143.2503 H   0  0  0  0  0  0  0  0  0  0  0  0  # atno 7974 bound_to 7965
  155.6001  140.3494  155.4591 H   0  0  0  0  0  0  0  0  0  0  0  0  # atno 8008 bound_to 7997
  156.0235  140.1259  157.0357 H   0  0  0  0  0  0  0  0  0  0  0  0  # atno 8009 bound_to 7997
  154.4324  140.1058  156.5983 H   0  0  0  0  0  0  0  0  0  0  0  0  # atno 8010 bound_to 7997
  140.2399  143.3546  152.0811 H   0  0  0  0  0  0  0  0  0  0  0  0  # atno 10167 bound_to 10162
  157.6357  131.0978  150.6991 H   0  0  0  0  0  0  0  0  0  0  0  0  # atno 10718 bound_to 10713
  154.8748  135.3818  154.4306 H   0  0  0  0  0  0  0  0  0  0  0  0  # atno 10763 bound_to 10752
  153.5000  135.7030  153.5842 H   0  0  0  0  0  0  0  0  0  0  0  0  # atno 10764 bound_to 10752
  153.4178  135.3909  155.2058 H   0  0  0  0  0  0  0  0  0  0  0  0  # atno 10765 bound_to 10752
  139.8915  134.9519  156.6511 H   0  0  0  0  0  0  0  0  0  0  0  0  # atno 11005 bound_to 11000
  144.8649  139.5122  143.6795 LP  0  0  0  0  0  0  0  0  0  0  0  0  # atno 17320 bound_to 7965
  146.2929  139.7192  142.9148 LP  0  0  0  0  0  0  0  0  0  0  0  0  # atno 17321 bound_to 7965
  139.5081  144.6843  151.5927 LP  0  0  0  0  0  0  0  0  0  0  0  0  # atno 17342 bound_to 10162
  140.6121  143.9416  150.6461 LP  0  0  0  0  0  0  0  0  0  0  0  0  # atno 17343 bound_to 10162
  156.7323  130.4713  149.5497 LP  0  0  0  0  0  0  0  0  0  0  0  0  # atno 17370 bound_to 10713
  156.1594  130.6364  151.0699 LP  0  0  0  0  0  0  0  0  0  0  0  0  # atno 17371 bound_to 10713
  140.7520  133.8889  155.8354 LP  0  0  0  0  0  0  0  0  0  0  0  0  # atno 17394 bound_to 11000
  140.9993  134.1172  157.4333 LP  0  0  0  0  0  0  0  0  0  0  0  0  # atno 17395 bound_to 11000

$$$$
