AV-unprocessed.smi:92|AV-procd|sdf|841|dock5
  -GOLD-   2262017273D 1   1.00000     0.00000
 Structure written by MMmdl.
 61 64  0  0  0  0  0  0  0  0  2 V2000
  151.6755  141.5895  158.0732 C   0  0  0  0  0  0  0  0  0  0  0  0
  150.9921  142.5381  157.0779 C   0  0  0  0  0  0  0  0  0  0  0  0
  149.6746  142.0302  156.6188 N   0  3  2  0  0  0  0  0  0  0  0  0
  148.9522  141.2504  157.6561 C   0  0  0  0  0  0  0  0  0  0  0  0
  147.5477  140.8484  157.1788 C   0  0  0  0  0  0  0  0  0  0  0  0
  147.6032  140.0568  155.8469 C   0  0  1  0  0  0  0  0  0  0  0  0
  146.2851  139.6278  155.3502 N   0  0  0  0  0  0  0  0  0  0  0  0
  145.2043  140.6099  155.3916 C   0  0  0  0  0  0  0  0  0  0  0  0
  146.3111  138.9769  154.1650 C   0  0  0  0  0  0  0  0  0  0  0  0
  146.6817  139.6383  153.0374 N   0  0  0  0  0  0  0  0  0  0  0  0
  146.7392  138.9848  151.8729 C   0  0  0  0  0  0  0  0  0  0  0  0
  146.4811  137.6985  151.6235 N   0  0  0  0  0  0  0  0  0  0  0  0
  146.1108  137.0349  152.7572 C   0  0  0  0  0  0  0  0  0  0  0  0
  145.9995  137.5968  154.0587 C   0  0  0  0  0  0  0  0  0  0  0  0
  145.6127  136.6245  154.9708 N   0  0  0  0  0  0  0  0  0  0  0  0
  145.5060  135.5425  154.2485 C   0  0  0  0  0  0  0  0  0  0  0  0
  145.7808  135.6985  152.9069 N   0  0  0  0  0  0  0  0  0  0  0  0
  145.7727  134.6753  151.9005 C   0  0  0  0  0  0  0  0  0  0  0  0
  144.6310  134.5476  150.8886 C   0  0  0  0  0  0  0  0  0  0  0  0
  144.8186  133.0124  150.8882 C   0  0  0  0  0  0  0  0  0  0  0  0
  143.5049  132.2111  150.8717 C   0  0  0  0  0  0  0  0  0  0  0  0
  142.8070  132.3658  149.6532 O   0  0  0  0  0  0  0  0  0  0  0  0
  145.7440  132.4972  149.7655 C   0  0  0  0  0  0  0  0  0  0  0  0
  145.0750  132.3919  148.5255 O   0  0  0  0  0  0  0  0  0  0  0  0
  145.4723  133.2244  152.2734 C   0  0  0  0  0  0  0  0  0  0  0  0
  148.3893  140.8871  154.7964 C   0  0  1  0  0  0  0  0  0  0  0  0
  147.6314  142.1289  154.2803 C   0  0  0  0  0  0  0  0  0  0  0  0
  149.7779  141.2711  155.3461 C   0  0  0  0  0  0  0  0  0  0  0  0
  152.5910  142.0375  158.4601 H   0  0  0  0  0  0  0  0  0  0  0  0
  151.9518  140.6406  157.6143 H   0  0  0  0  0  0  0  0  0  0  0  0
  151.0276  141.3772  158.9241 H   0  0  0  0  0  0  0  0  0  0  0  0
  150.8513  143.4963  157.5799 H   0  0  0  0  0  0  0  0  0  0  0  0
  151.6395  142.7315  156.2213 H   0  0  0  0  0  0  0  0  0  0  0  0
  149.5287  140.3593  157.9096 H   0  0  0  0  0  0  0  0  0  0  0  0
  148.8561  141.8334  158.5713 H   0  0  0  0  0  0  0  0  0  0  0  0
  147.0882  140.2530  157.9683 H   0  0  0  0  0  0  0  0  0  0  0  0
  146.9250  141.7366  157.0682 H   0  0  0  0  0  0  0  0  0  0  0  0
  148.1727  139.1451  156.0359 H   0  0  0  0  0  0  0  0  0  0  0  0
  144.3363  140.2775  154.8197 H   0  0  0  0  0  0  0  0  0  0  0  0
  145.5337  141.5673  154.9859 H   0  0  0  0  0  0  0  0  0  0  0  0
  144.8712  140.7697  156.4168 H   0  0  0  0  0  0  0  0  0  0  0  0
  147.0382  139.5756  151.0197 H   0  0  0  0  0  0  0  0  0  0  0  0
  145.2304  134.5924  154.6828 H   0  0  0  0  0  0  0  0  0  0  0  0
  146.7275  134.7403  151.3761 H   0  0  0  0  0  0  0  0  0  0  0  0
  143.6668  134.8610  151.2916 H   0  0  0  0  0  0  0  0  0  0  0  0
  144.8239  135.0330  149.9314 H   0  0  0  0  0  0  0  0  0  0  0  0
  143.6992  131.1457  150.9996 H   0  0  0  0  0  0  0  0  0  0  0  0
  142.8508  132.5032  151.6939 H   0  0  0  0  0  0  0  0  0  0  0  0
  142.0621  131.7843  149.6567 H   0  0  0  0  0  0  0  0  0  0  0  0
  146.6101  133.1478  149.6409 H   0  0  0  0  0  0  0  0  0  0  0  0
  146.1412  131.5107  150.0055 H   0  0  0  0  0  0  0  0  0  0  0  0
  145.1312  133.2238  148.0808 H   0  0  0  0  0  0  0  0  0  0  0  0
  146.3578  132.6179  152.4660 H   0  0  0  0  0  0  0  0  0  0  0  0
  144.7587  133.1415  153.0953 H   0  0  0  0  0  0  0  0  0  0  0  0
  148.5721  140.2505  153.9303 H   0  0  0  0  0  0  0  0  0  0  0  0
  147.4373  142.8508  155.0732 H   0  0  0  0  0  0  0  0  0  0  0  0
  146.6718  141.8609  153.8382 H   0  0  0  0  0  0  0  0  0  0  0  0
  148.2064  142.6410  153.5085 H   0  0  0  0  0  0  0  0  0  0  0  0
  150.3107  141.8636  154.6010 H   0  0  0  0  0  0  0  0  0  0  0  0
  150.3746  140.3725  155.5126 H   0  0  0  0  0  0  0  0  0  0  0  0
  149.1110  142.8432  156.4143 H   0  0  0  0  0  0  0  0  0  0  0  0
  1  2  1  0  0  0  0
  1 29  1  0  0  0  0
  1 30  1  0  0  0  0
  1 31  1  0  0  0  0
  2  3  1  0  0  0  0
  2 32  1  0  0  0  0
  2 33  1  0  0  0  0
  3 28  1  0  0  0  0
  3  4  1  0  0  0  0
  3 61  1  0  0  0  0
  4  5  1  0  0  0  0
  4 34  1  0  0  0  0
  4 35  1  0  0  0  0
  5  6  1  0  0  0  0
  5 36  1  0  0  0  0
  5 37  1  0  0  0  0
  6  7  1  0  0  0  0
  6 26  1  0  0  0  0
  6 38  1  0  0  0  0
  7  8  1  0  0  0  0
  7  9  1  0  0  0  0
  8 39  1  0  0  0  0
  8 40  1  0  0  0  0
  8 41  1  0  0  0  0
  9 14  1  0  0  0  0
  9 10  2  0  0  0  0
 10 11  1  0  0  0  0
 11 12  2  0  0  0  0
 11 42  1  0  0  0  0
 12 13  1  0  0  0  0
 13 17  1  0  0  0  0
 13 14  2  0  0  0  0
 14 15  1  0  0  0  0
 15 16  2  0  0  0  0
 16 17  1  0  0  0  0
 16 43  1  0  0  0  0
 17 18  1  0  0  0  0
 18 25  1  0  0  0  0
 18 19  1  0  0  0  0
 18 44  1  0  0  0  0
 19 20  1  0  0  0  0
 19 45  1  0  0  0  0
 19 46  1  0  0  0  0
 20 21  1  0  0  0  0
 20 23  1  0  0  0  0
 20 25  1  0  0  0  0
 21 22  1  0  0  0  0
 21 47  1  0  0  0  0
 21 48  1  0  0  0  0
 22 49  1  0  0  0  0
 23 24  1  0  0  0  0
 23 50  1  0  0  0  0
 23 51  1  0  0  0  0
 24 52  1  0  0  0  0
 25 53  1  0  0  0  0
 25 54  1  0  0  0  0
 26 27  1  0  0  0  0
 26 28  1  0  0  0  0
 26 55  1  0  0  0  0
 27 56  1  0  0  0  0
 27 57  1  0  0  0  0
 27 58  1  0  0  0  0
 28 59  1  0  0  0  0
 28 60  1  0  0  0  0
M  CHG  1   3   1
M  END
> <s_m_source_file>
AV-unprocessed.smi

> <i_m_source_file_index>
92

> <i_lp_mmshare_version>
43012

> <i_f3d_flags>
0

> <s_epik_input>
W0NIM11bQ0gyXU4xW0NIMl1bQ0gyXVtDQEhdKFtDQEBIXShbQ0gzXSlbQ0gyXTEpTihbQ0gzXSljKG5bY0hdbjIpYyhjMjMpbltjSF1uM1tDSF0oW0NIMl00KVtDSDJdQzQoW0NIMl1bT0hdKVtDSDJdW09IXQ==

> <s_epik_cmdline>
J2VwaWtfcHl0aG9uJywgJy1waCcsICc3LjAnLCAnLXRuJywgJzgnLCAnLW1hJywgJzIwMCcsICctbWV0YWxfYmluZGluZycsICctaW1hZScsICc8aW5maWxlLm1hZT4nLCAnLW9tYWUnLCAnPG91dGZpbGUubWFlPic=

> <r_lp_tautomer_probability>
1

> <r_epik_Ionization_Penalty>
0.00235514

> <r_epik_Ionization_Penalty_Charging>
0.00137877

> <r_epik_Ionization_Penalty_Neutral>
0.000976366

> <r_epik_State_Penalty>
-0

> <r_epik_Charging_Adjusted_Penalty>
0.00137877

> <i_epik_Tot_Q>
1

> <i_epik_Tot_abs_Q>
1

> <r_epik_Metal_State_Penalty>
-0

> <b_epik_Metal_Only>
0

> <s_lp_Force_Field>
OPLS_2005

> <r_lp_Energy>
54.7459

> <b_lp_Chiralities_Consistent>
1

> <s_lp_Variant>
AV-unprocessed.smi:92-1

> <Gold.Version>
5.8.1

> <Gold.Id.Protein>
6NUR|6NUR_protein|mol2

> <Gold.PLP.Fitness>
53.2852

> <Gold.PLP.PLP>
-40.6710

> <Gold.PLP.part.hbond>
-5.0000

> <Gold.PLP.part.metal>
0.0000

> <Gold.PLP.part.buried>
-3.2455

> <Gold.PLP.part.nonpolar>
-33.8705

> <Gold.PLP.part.repulsive>
2.4303

> <Gold.PLP.ligand.clash>
0.0000

> <Gold.PLP.ligand.torsion>
1.1269

> <Gold.PLP.Chemscore.Hbond>
4.0634

> <Gold.PLP.Chemscore.CHOScore>
0.5901

> <Gold.PLP.Chemscore.Metal>
0.0000

> <Gold.Chemscore.Hbonds>
donor molecule, donor type, donor heavy atom, donor atom, acceptor molecule, acceptor atom, score
      L1  H     3    61       P1  8028  1.98
      L1  H    22    49       P1 10952  1.00
      L1  H    24    52       P1  7921  0.99
      P1  H  7954  7966       L1    12  0.01
      L1  C    11    42       P1  7957  0.57

> <Gold.PLP.Chemscore.Internal.Correction>
0.9074

> <Gold.Rescore>
     Score         DG    S(hbond)    S(metal)    S(lipo)     H(rot)  DE(clash)    DE(int)     intcor
     10.50     -15.47       2.60        0.00      88.00       3.51       1.07       3.89       ----

> <Gold.Chemscore.Fitness>
10.5041

> <Gold.Chemscore.DG>
-15.4670

> <Gold.Chemscore.ZeroCoef>
-5.4800

> <Gold.Chemscore.Hbond>
2.6015

> <Gold.Chemscore.Metal>
0.0000

> <Gold.Chemscore.Lipo>
87.9968

> <Gold.Chemscore.Internal_Hbond>
0.0000

> <Gold.Chemscore.DEClash>
1.0686

> <Gold.Chemscore.DEInternal>
3.8942

> <Gold.Chemscore.Rot>
3.5147

> <Gold.Chemscore.Internal.Correction>
   9.000000E+99

> <Gold.Chemscore.Hbonds>
donor molecule, donor type, donor heavy atom, donor atom, acceptor molecule, acceptor atom, score
      L1  H     3    61       P1  8028  0.89
      L1  H    22    49       P1 10952  1.00
      L1  H    24    52       P1  7921  0.24

> <Gold.Chemscore.Hbond.Weighted>
-8.6891

> <Gold.Chemscore.Metal.Weighted>
-0.0000

> <Gold.Chemscore.Lipo.Weighted>
-10.2956

> <Gold.Chemscore.Internal_Hbond.Weighted>
0.0000

> <Gold.Chemscore.DEClash.Weighted>
1.0686

> <Gold.Chemscore.DEInternal.Weighted>
3.8942

> <Gold.Chemscore.Rot.Weighted>
8.9977

> <Gold.Chemscore.Internal.Correction.Weighted>
   9.000000E+99

> <Gold.Protein.RotatedTorsions>
[ 6907 6896 6895 6894 ] final  -90.67 input  -60.11 | X-H torsion
[ 7974 7965 7964 7962 ] final  163.86 input  175.53 | X-H torsion
[ 8008 7997 7996 7995 ] final  151.50 input   59.86 | X-H torsion
[ 10167 10162 10161 10158 ] final   46.62 input  -65.29 | X-H torsion
[ 10718 10713 10712 10709 ] final -130.95 input   66.30 | X-H torsion
[ 10763 10752 10751 10750 ] final   14.05 input  -60.55 | X-H torsion
[ 11005 11000 10999 10996 ] final  134.06 input  -57.11 | X-H torsion

> <Gold.Protein.ActiveResidues>
 VAL166  LYS551  ARG553  GLY616  TRP617  ASP618  TYR619  PRO620  LYS621  CYS622 
 ASP623  PHE694  ASN695  SER759  ASP760  ASP761  ALA762  ILE779  LEU786  VAL792 
 PHE793  MET794  SER795  GLU796  ALA797  LYS798  CYS799  TRP800  GLU811  SER814 

> <Gold.Protein.RotatedAtoms>
  150.6884  134.2396  159.4466 H   0  0  0  0  0  0  0  0  0  0  0  0  # atno 6907 bound_to 6896
  152.0342  134.9747  160.0582 H   0  0  0  0  0  0  0  0  0  0  0  0  # atno 6908 bound_to 6896
  152.1275  133.4354  159.4742 H   0  0  0  0  0  0  0  0  0  0  0  0  # atno 6909 bound_to 6896
  144.7570  139.8243  143.6346 H   0  0  0  0  0  0  0  0  0  0  0  0  # atno 7974 bound_to 7965
  156.2671  140.2046  156.6185 H   0  0  0  0  0  0  0  0  0  0  0  0  # atno 8008 bound_to 7997
  154.6775  140.0543  157.0255 H   0  0  0  0  0  0  0  0  0  0  0  0  # atno 8009 bound_to 7997
  155.1047  140.3209  155.4540 H   0  0  0  0  0  0  0  0  0  0  0  0  # atno 8010 bound_to 7997
  140.3121  144.2808  150.6198 H   0  0  0  0  0  0  0  0  0  0  0  0  # atno 10167 bound_to 10162
  156.2195  130.6969  151.0740 H   0  0  0  0  0  0  0  0  0  0  0  0  # atno 10718 bound_to 10713
  153.1660  135.6804  153.8674 H   0  0  0  0  0  0  0  0  0  0  0  0  # atno 10763 bound_to 10752
  153.8054  135.3150  155.3396 H   0  0  0  0  0  0  0  0  0  0  0  0  # atno 10764 bound_to 10752
  154.7966  135.4803  154.0265 H   0  0  0  0  0  0  0  0  0  0  0  0  # atno 10765 bound_to 10752
  139.9891  134.9521  156.9813 H   0  0  0  0  0  0  0  0  0  0  0  0  # atno 11005 bound_to 11000
  146.1592  139.4701  142.9999 LP  0  0  0  0  0  0  0  0  0  0  0  0  # atno 17320 bound_to 7965
  145.6744  141.0208  143.1640 LP  0  0  0  0  0  0  0  0  0  0  0  0  # atno 17321 bound_to 7965
  140.5559  143.2199  151.7848 LP  0  0  0  0  0  0  0  0  0  0  0  0  # atno 17342 bound_to 10162
  139.4891  144.4414  151.9760 LP  0  0  0  0  0  0  0  0  0  0  0  0  # atno 17343 bound_to 10162
  157.7080  131.0747  150.6600 LP  0  0  0  0  0  0  0  0  0  0  0  0  # atno 17370 bound_to 10713
  156.6662  130.4526  149.5671 LP  0  0  0  0  0  0  0  0  0  0  0  0  # atno 17371 bound_to 10713
  140.4944  134.1160  155.7238 LP  0  0  0  0  0  0  0  0  0  0  0  0  # atno 17394 bound_to 11000
  141.1550  133.8899  157.2000 LP  0  0  0  0  0  0  0  0  0  0  0  0  # atno 17395 bound_to 11000

$$$$
