AV-unprocessed.smi:767|AV-procd|sdf|3666|dock5
  -GOLD-   22720 1 73D 1   1.00000     0.00000
 Structure written by MMmdl.
 48 50  0  0  0  0  0  0  0  0  2 V2000
  151.3805  144.4795  158.1247 C   0  0  0  0  0  0  0  0  0  0  0  0
  151.2339  143.0723  157.5857 C   0  0  0  0  0  0  0  0  0  0  0  0
  151.8940  141.9686  158.1674 C   0  0  0  0  0  0  0  0  0  0  0  0
  151.7139  140.6858  157.6091 C   0  0  0  0  0  0  0  0  0  0  0  0
  150.8774  140.5325  156.4817 C   0  0  0  0  0  0  0  0  0  0  0  0
  150.6741  139.1685  155.8526 C   0  0  0  0  0  0  0  0  0  0  0  0
  149.7285  139.2291  154.6422 C   0  0  0  0  0  0  0  0  0  0  0  0
  149.3277  137.8973  154.2055 N   0  0  0  0  0  0  0  0  0  0  0  0
  148.7730  136.9690  154.9966 C   0  0  0  0  0  0  0  0  0  0  0  0
  148.5209  137.1415  156.1893 O   0  0  0  0  0  0  0  0  0  0  0  0
  148.5344  135.8284  154.3365 N   0  0  0  0  0  0  0  0  0  0  0  0
  147.9498  134.6280  154.9430 C   0  0  1  0  0  0  0  0  0  0  0  0
  147.0767  133.8360  153.9658 C   0  0  1  0  0  0  0  0  0  0  0  0
  146.4067  134.1142  152.6691 C   0  0  0  0  0  0  0  0  0  0  0  0
  146.7517  132.7658  151.9798 C   0  0  0  0  0  0  0  0  0  0  0  0
  147.7106  132.1075  152.8472 O   0  0  0  0  0  0  0  0  0  0  0  0
  148.3603  133.1754  153.5078 C   0  0  2  0  0  0  0  0  0  0  0  0
  148.8789  133.3494  154.9529 C   0  0  0  0  0  0  0  0  0  0  0  0
  150.3885  133.5812  155.0849 C   0  0  0  0  0  0  0  0  0  0  0  0
  148.5359  132.2397  155.9631 C   0  0  0  0  0  0  0  0  0  0  0  0
  150.2420  141.6719  155.9436 C   0  0  0  0  0  0  0  0  0  0  0  0
  150.4407  142.8836  156.5070 N   0  3  0  0  0  0  0  0  0  0  0  0
  152.0225  144.4979  159.0059 H   0  0  0  0  0  0  0  0  0  0  0  0
  150.4070  144.8830  158.4047 H   0  0  0  0  0  0  0  0  0  0  0  0
  151.8205  145.1319  157.3697 H   0  0  0  0  0  0  0  0  0  0  0  0
  152.5324  142.0997  159.0290 H   0  0  0  0  0  0  0  0  0  0  0  0
  152.2155  139.8319  158.0409 H   0  0  0  0  0  0  0  0  0  0  0  0
  151.6451  138.7690  155.5566 H   0  0  0  0  0  0  0  0  0  0  0  0
  150.2777  138.4851  156.6049 H   0  0  0  0  0  0  0  0  0  0  0  0
  148.8273  139.7859  154.9004 H   0  0  0  0  0  0  0  0  0  0  0  0
  150.1986  139.7657  153.8158 H   0  0  0  0  0  0  0  0  0  0  0  0
  149.4971  137.6614  153.2384 H   0  0  0  0  0  0  0  0  0  0  0  0
  148.7761  135.7778  153.3578 H   0  0  0  0  0  0  0  0  0  0  0  0
  147.4541  134.8106  155.8980 H   0  0  0  0  0  0  0  0  0  0  0  0
  146.4396  133.1640  154.5460 H   0  0  0  0  0  0  0  0  0  0  0  0
  145.3326  134.2709  152.7706 H   0  0  0  0  0  0  0  0  0  0  0  0
  146.8476  134.9654  152.1484 H   0  0  0  0  0  0  0  0  0  0  0  0
  145.8725  132.1321  151.8610 H   0  0  0  0  0  0  0  0  0  0  0  0
  147.1839  132.9332  150.9925 H   0  0  0  0  0  0  0  0  0  0  0  0
  148.9370  133.7696  152.7914 H   0  0  0  0  0  0  0  0  0  0  0  0
  150.9480  132.6502  154.9878 H   0  0  0  0  0  0  0  0  0  0  0  0
  150.6408  134.0190  156.0512 H   0  0  0  0  0  0  0  0  0  0  0  0
  150.7680  134.2551  154.3168 H   0  0  0  0  0  0  0  0  0  0  0  0
  149.0194  131.2999  155.6954 H   0  0  0  0  0  0  0  0  0  0  0  0
  147.4696  132.0333  156.0382 H   0  0  0  0  0  0  0  0  0  0  0  0
  148.8705  132.5033  156.9669 H   0  0  0  0  0  0  0  0  0  0  0  0
  149.5891  141.6525  155.0830 H   0  0  0  0  0  0  0  0  0  0  0  0
  149.9724  143.6929  156.0987 H   0  0  0  0  0  0  0  0  0  0  0  0
  1  2  1  0  0  0  0
  1 23  1  0  0  0  0
  1 24  1  0  0  0  0
  1 25  1  0  0  0  0
  2 22  1  0  0  0  0
  2  3  2  0  0  0  0
  3  4  1  0  0  0  0
  3 26  1  0  0  0  0
  4  5  2  0  0  0  0
  4 27  1  0  0  0  0
  5  6  1  0  0  0  0
  5 21  1  0  0  0  0
  6  7  1  0  0  0  0
  6 28  1  0  0  0  0
  6 29  1  0  0  0  0
  7  8  1  0  0  0  0
  7 30  1  0  0  0  0
  7 31  1  0  0  0  0
  8  9  1  0  0  0  0
  8 32  1  0  0  0  0
  9 10  2  0  0  0  0
  9 11  1  0  0  0  0
 11 12  1  0  0  0  0
 11 33  1  0  0  0  0
 12 18  1  0  0  0  0
 12 13  1  0  0  0  0
 12 34  1  0  0  0  0
 13 17  1  0  0  0  0
 13 14  1  0  0  0  0
 13 35  1  0  0  0  0
 14 15  1  0  0  0  0
 14 36  1  0  0  0  0
 14 37  1  0  0  0  0
 15 16  1  0  0  0  0
 15 38  1  0  0  0  0
 15 39  1  0  0  0  0
 16 17  1  0  0  0  0
 17 18  1  0  0  0  0
 17 40  1  0  0  0  0
 18 19  1  0  0  0  0
 18 20  1  0  0  0  0
 19 41  1  0  0  0  0
 19 42  1  0  0  0  0
 19 43  1  0  0  0  0
 20 44  1  0  0  0  0
 20 45  1  0  0  0  0
 20 46  1  0  0  0  0
 21 22  2  0  0  0  0
 21 47  1  0  0  0  0
 22 48  1  0  0  0  0
M  CHG  1  22   1
M  END
> <s_m_source_file>
AV-unprocessed.smi

> <i_m_source_file_index>
767

> <i_lp_mmshare_version>
43012

> <i_f3d_flags>
0

> <s_epik_input>
W0NIM11jMVtjSF1bY0hdYyhbY0hdbjEpW0NIMl1bQ0gyXVtOSF1DKD1PKVtOSF1bQ0BIXTJDKFtDSDNdKShbQ0gzXSlbQ0BIXShbQ0BASF0yMylPW0NIMl1bQ0gyXTM=

> <s_epik_cmdline>
J2VwaWtfcHl0aG9uJywgJy1waCcsICc3LjAnLCAnLXRuJywgJzgnLCAnLW1hJywgJzIwMCcsICctbWV0YWxfYmluZGluZycsICctaW1hZScsICc8aW5maWxlLm1hZT4nLCAnLW9tYWUnLCAnPG91dGZpbGUubWFlPic=

> <r_epik_Ionization_Penalty>
1.41853

> <r_epik_Ionization_Penalty_Charging>
1.41848

> <r_epik_Ionization_Penalty_Neutral>
5.17407e-05

> <r_epik_State_Penalty>
1.50205

> <r_epik_Charging_Adjusted_Penalty>
2.92053

> <i_epik_Tot_Q>
1

> <i_epik_Tot_abs_Q>
1

> <r_epik_Metal_State_Penalty>
1.5544

> <b_epik_Metal_Only>
0

> <s_lp_Force_Field>
OPLS_2005

> <r_lp_Energy>
64.9812

> <b_lp_Chiralities_Consistent>
1

> <s_lp_Variant>
AV-unprocessed.smi:767-10

> <Gold.Version>
5.8.1

> <Gold.Id.Protein>
6NUR|6NUR_protein|mol2

> <Gold.PLP.Fitness>
45.8487

> <Gold.PLP.PLP>
-34.6549

> <Gold.PLP.part.hbond>
-2.9957

> <Gold.PLP.part.metal>
0.0000

> <Gold.PLP.part.buried>
-5.6747

> <Gold.PLP.part.nonpolar>
-27.4594

> <Gold.PLP.part.repulsive>
0.2561

> <Gold.PLP.ligand.clash>
0.0000

> <Gold.PLP.ligand.torsion>
0.2362

> <Gold.PLP.Chemscore.Hbond>
3.8000

> <Gold.PLP.Chemscore.CHOScore>
0.0000

> <Gold.PLP.Chemscore.Metal>
0.0000

> <Gold.Chemscore.Hbonds>
donor molecule, donor type, donor heavy atom, donor atom, acceptor molecule, acceptor atom, score
      L1  H     8    32       P1  7948  0.82
      L1  H    11    33       P1  7948  1.00
      L1  H    22    48       P1  8028  2.00

> <Gold.PLP.Chemscore.Internal.Correction>
0.2662

> <Gold.Rescore>
     Score         DG    S(hbond)    S(metal)    S(lipo)     H(rot)  DE(clash)    DE(int)     intcor
     20.73     -22.13       2.83        0.00      94.79       1.52       0.07       1.33       ----

> <Gold.Chemscore.Fitness>
20.7272

> <Gold.Chemscore.DG>
-22.1257

> <Gold.Chemscore.ZeroCoef>
-5.4800

> <Gold.Chemscore.Hbond>
2.8309

> <Gold.Chemscore.Metal>
0.0000

> <Gold.Chemscore.Lipo>
94.7876

> <Gold.Chemscore.Internal_Hbond>
0.0000

> <Gold.Chemscore.DEClash>
0.0662

> <Gold.Chemscore.DEInternal>
1.3323

> <Gold.Chemscore.Rot>
1.5233

> <Gold.Chemscore.Internal.Correction>
   9.000000E+99

> <Gold.Chemscore.Hbonds>
donor molecule, donor type, donor heavy atom, donor atom, acceptor molecule, acceptor atom, score
      L1  H     8    32       P1  7948  0.69
      L1  H    11    33       P1  7948  0.93
      L1  H    22    48       P1  8028  0.95

> <Gold.Chemscore.Hbond.Weighted>
-9.4551

> <Gold.Chemscore.Metal.Weighted>
-0.0000

> <Gold.Chemscore.Lipo.Weighted>
-11.0902

> <Gold.Chemscore.Internal_Hbond.Weighted>
0.0000

> <Gold.Chemscore.DEClash.Weighted>
0.0662

> <Gold.Chemscore.DEInternal.Weighted>
1.3323

> <Gold.Chemscore.Rot.Weighted>
3.8995

> <Gold.Chemscore.Internal.Correction.Weighted>
   9.000000E+99

> <Gold.Protein.RotatedTorsions>
[ 6907 6896 6895 6894 ] final  -44.52 input  -60.11 | X-H torsion
[ 7974 7965 7964 7962 ] final   91.69 input  175.53 | X-H torsion
[ 8008 7997 7996 7995 ] final  -14.78 input   59.86 | X-H torsion
[ 10167 10162 10161 10158 ] final  116.62 input  -65.29 | X-H torsion
[ 10718 10713 10712 10709 ] final   10.48 input   66.30 | X-H torsion
[ 10763 10752 10751 10750 ] final -176.90 input  -60.55 | X-H torsion
[ 11005 11000 10999 10996 ] final  174.96 input  -57.11 | X-H torsion

> <Gold.Protein.ActiveResidues>
 VAL166  LYS551  ARG553  GLY616  TRP617  ASP618  TYR619  PRO620  LYS621  CYS622 
 ASP623  PHE694  ASN695  SER759  ASP760  ASP761  ALA762  ILE779  LEU786  VAL792 
 PHE793  MET794  SER795  GLU796  ALA797  LYS798  CYS799  TRP800  GLU811  SER814 

> <Gold.Protein.RotatedAtoms>
  150.9319  134.8733  159.7556 H   0  0  0  0  0  0  0  0  0  0  0  0  # atno 6907 bound_to 6896
  152.5041  134.4067  159.9445 H   0  0  0  0  0  0  0  0  0  0  0  0  # atno 6908 bound_to 6896
  151.4093  133.3692  159.2777 H   0  0  0  0  0  0  0  0  0  0  0  0  # atno 6909 bound_to 6896
  145.5022  139.2276  143.2771 H   0  0  0  0  0  0  0  0  0  0  0  0  # atno 7974 bound_to 7965
  154.5183  140.2214  155.9024 H   0  0  0  0  0  0  0  0  0  0  0  0  # atno 8008 bound_to 7997
  156.1633  140.3137  155.8809 H   0  0  0  0  0  0  0  0  0  0  0  0  # atno 8009 bound_to 7997
  155.3708  140.0466  157.3036 H   0  0  0  0  0  0  0  0  0  0  0  0  # atno 8010 bound_to 7997
  139.6234  144.7105  151.2585 H   0  0  0  0  0  0  0  0  0  0  0  0  # atno 10167 bound_to 10162
  156.9817  130.6008  149.5677 H   0  0  0  0  0  0  0  0  0  0  0  0  # atno 10718 bound_to 10713
  154.5667  135.2824  155.0867 H   0  0  0  0  0  0  0  0  0  0  0  0  # atno 10763 bound_to 10752
  154.2256  135.6383  153.5162 H   0  0  0  0  0  0  0  0  0  0  0  0  # atno 10764 bound_to 10752
  153.0045  135.5525  154.6277 H   0  0  0  0  0  0  0  0  0  0  0  0  # atno 10765 bound_to 10752
  140.3570  134.7146  157.4306 H   0  0  0  0  0  0  0  0  0  0  0  0  # atno 11005 bound_to 11000
  146.2219  140.5824  142.9013 LP  0  0  0  0  0  0  0  0  0  0  0  0  # atno 17320 bound_to 7965
  144.7773  140.5767  143.6629 LP  0  0  0  0  0  0  0  0  0  0  0  0  # atno 17321 bound_to 7965
  140.7396  143.6612  150.8162 LP  0  0  0  0  0  0  0  0  0  0  0  0  # atno 17342 bound_to 10162
  140.0227  143.5526  152.2794 LP  0  0  0  0  0  0  0  0  0  0  0  0  # atno 17343 bound_to 10162
  156.0242  130.5336  150.8360 LP  0  0  0  0  0  0  0  0  0  0  0  0  # atno 17370 bound_to 10713
  157.5522  131.0944  150.9680 LP  0  0  0  0  0  0  0  0  0  0  0  0  # atno 17371 bound_to 10713
  140.0657  134.5933  155.8698 LP  0  0  0  0  0  0  0  0  0  0  0  0  # atno 17394 bound_to 11000
  141.1995  133.6607  156.5849 LP  0  0  0  0  0  0  0  0  0  0  0  0  # atno 17395 bound_to 11000

$$$$
