AV-unprocessed.smi:2607|AV-procd|sdf|10200|dock4
  -GOLD-   2272014213D 1   1.00000     0.00000
 Structure written by MMmdl.
 21 22  0  0  0  0  0  0  0  0  2 V2000
  150.6156  139.7429  158.3658 C   0  0  0  0  0  0  0  0  0  0  0  0
  151.2973  140.6949  157.3622 C   0  0  1  0  0  0  0  0  0  0  0  0
  151.6356  142.0533  158.0020 C   0  0  0  0  0  0  0  0  0  0  0  0
  151.1731  143.2842  157.4694 C   0  0  0  0  0  0  0  0  0  0  0  0
  151.4730  144.4728  158.0390 N   0  0  0  0  0  0  0  0  0  0  0  0
  152.2400  144.4362  159.1497 C   0  0  0  0  0  0  0  0  0  0  0  0
  152.7079  143.2196  159.6866 C   0  0  0  0  0  0  0  0  0  0  0  0
  152.4106  142.0322  159.1161 N   0  0  0  0  0  0  0  0  0  0  0  0
  152.4567  140.0297  156.7982 N   0  0  0  0  0  0  0  0  0  0  0  0
  152.3560  139.8948  155.4776 C   0  0  0  0  0  0  0  0  0  0  0  0
  153.2496  139.3777  154.8112 O   0  0  0  0  0  0  0  0  0  0  0  0
  151.1799  140.3905  155.0498 N   0  5  0  0  0  0  0  0  0  0  0  0
  150.4573  140.8724  156.0849 C   0  0  0  0  0  0  0  0  0  0  0  0
  149.3263  141.3578  156.0946 O   0  0  0  0  0  0  0  0  0  0  0  0
  149.6975  140.1731  158.7672 H   0  0  0  0  0  0  0  0  0  0  0  0
  151.2729  139.5269  159.2085 H   0  0  0  0  0  0  0  0  0  0  0  0
  150.3525  138.7913  157.9016 H   0  0  0  0  0  0  0  0  0  0  0  0
  150.5584  143.3328  156.5833 H   0  0  0  0  0  0  0  0  0  0  0  0
  152.4827  145.3811  159.6126 H   0  0  0  0  0  0  0  0  0  0  0  0
  153.3224  143.1994  160.5744 H   0  0  0  0  0  0  0  0  0  0  0  0
  153.2483  139.7320  157.3487 H   0  0  0  0  0  0  0  0  0  0  0  0
  1  2  1  0  0  0  0
  1 15  1  0  0  0  0
  1 16  1  0  0  0  0
  1 17  1  0  0  0  0
  2 13  1  0  0  0  0
  2  3  1  0  0  0  0
  2  9  1  0  0  0  0
  3  8  1  0  0  0  0
  3  4  2  0  0  0  0
  4  5  1  0  0  0  0
  4 18  1  0  0  0  0
  5  6  2  0  0  0  0
  6  7  1  0  0  0  0
  6 19  1  0  0  0  0
  7  8  2  0  0  0  0
  7 20  1  0  0  0  0
  9 10  1  0  0  0  0
  9 21  1  0  0  0  0
 10 11  2  0  0  0  0
 10 12  1  0  0  0  0
 12 13  1  0  0  0  0
 13 14  2  0  0  0  0
M  CHG  1  12  -1
M  END
> <s_m_source_file>
AV-unprocessed.smi

> <i_m_source_file_index>
2607

> <i_lp_mmshare_version>
43012

> <i_f3d_flags>
0

> <s_epik_input>
Tz1DMVtOSF1DKD1PKVtOSF1bQ0BAXTEoW0NIM10pYzJbY0hdbltjSF1bY0hdbjI=

> <s_epik_cmdline>
J2VwaWtfcHl0aG9uJywgJy1waCcsICc3LjAnLCAnLXRuJywgJzgnLCAnLW1hJywgJzIwMCcsICctbWV0YWxfYmluZGluZycsICctaW1hZScsICc8aW5maWxlLm1hZT4nLCAnLW9tYWUnLCAnPG91dGZpbGUubWFlPic=

> <r_lp_tautomer_probability>
1

> <r_epik_Ionization_Penalty>
1.72482

> <r_epik_Ionization_Penalty_Charging>
1.72482

> <r_epik_Ionization_Penalty_Neutral>
2.42073e-06

> <r_epik_State_Penalty>
1.83265

> <r_epik_Charging_Adjusted_Penalty>
3.55747

> <i_epik_Tot_Q>
-1

> <i_epik_Tot_abs_Q>
1

> <r_epik_Metal_State_Penalty>
0.535818

> <b_epik_Metal_Only>
0

> <s_lp_Force_Field>
OPLS_2005

> <r_lp_Energy>
15.5794

> <b_lp_Chiralities_Consistent>
1

> <s_lp_Variant>
AV-unprocessed.smi:2607-3

> <Gold.Version>
5.8.1

> <Gold.Id.Protein>
6NUR|6NUR_protein|mol2

> <Gold.PLP.Fitness>
34.2108

> <Gold.PLP.PLP>
-26.1625

> <Gold.PLP.part.hbond>
-2.0000

> <Gold.PLP.part.metal>
0.0000

> <Gold.PLP.part.buried>
-3.3442

> <Gold.PLP.part.nonpolar>
-20.5205

> <Gold.PLP.part.repulsive>
0.8636

> <Gold.PLP.ligand.clash>
0.0000

> <Gold.PLP.ligand.torsion>
0.0672

> <Gold.PLP.Chemscore.Hbond>
1.7000

> <Gold.PLP.Chemscore.CHOScore>
1.0000

> <Gold.PLP.Chemscore.Metal>
0.0000

> <Gold.Chemscore.Hbonds>
donor molecule, donor type, donor heavy atom, donor atom, acceptor molecule, acceptor atom, score
      P1  H  7989  7998       L1    12  0.95
      P1  H  7997  8010       L1    11  0.40
      L1  C     4    18       P1  8028  1.00

> <Gold.PLP.Chemscore.Internal.Correction>
0.0826

> <Gold.Rescore>
     Score         DG    S(hbond)    S(metal)    S(lipo)     H(rot)  DE(clash)    DE(int)     intcor
     11.40     -12.60       1.02        0.00      53.58       1.00       0.09       1.11       ----

> <Gold.Chemscore.Fitness>
11.3969

> <Gold.Chemscore.DG>
-12.5964

> <Gold.Chemscore.ZeroCoef>
-5.4800

> <Gold.Chemscore.Hbond>
1.0202

> <Gold.Chemscore.Metal>
0.0000

> <Gold.Chemscore.Lipo>
53.5816

> <Gold.Chemscore.Internal_Hbond>
0.0000

> <Gold.Chemscore.DEClash>
0.0931

> <Gold.Chemscore.DEInternal>
1.1064

> <Gold.Chemscore.Rot>
1.0000

> <Gold.Chemscore.Internal.Correction>
   9.000000E+99

> <Gold.Chemscore.Hbonds>
donor molecule, donor type, donor heavy atom, donor atom, acceptor molecule, acceptor atom, score
      P1  H  7989  7998       L1    12  0.21
      P1  H  7997  8010       L1    11  0.01

> <Gold.Chemscore.Hbond.Weighted>
-3.4074

> <Gold.Chemscore.Metal.Weighted>
-0.0000

> <Gold.Chemscore.Lipo.Weighted>
-6.2690

> <Gold.Chemscore.Internal_Hbond.Weighted>
0.0000

> <Gold.Chemscore.DEClash.Weighted>
0.0931

> <Gold.Chemscore.DEInternal.Weighted>
1.1064

> <Gold.Chemscore.Rot.Weighted>
2.5600

> <Gold.Chemscore.Internal.Correction.Weighted>
   9.000000E+99

> <Gold.Protein.RotatedTorsions>
[ 6907 6896 6895 6894 ] final  -24.89 input  -60.11 | X-H torsion
[ 7974 7965 7964 7962 ] final  112.92 input  175.53 | X-H torsion
[ 8008 7997 7996 7995 ] final  102.34 input   59.86 | X-H torsion
[ 10167 10162 10161 10158 ] final  165.22 input  -65.29 | X-H torsion
[ 10718 10713 10712 10709 ] final -144.89 input   66.30 | X-H torsion
[ 10763 10752 10751 10750 ] final   88.78 input  -60.55 | X-H torsion
[ 11005 11000 10999 10996 ] final  -48.45 input  -57.11 | X-H torsion

> <Gold.Protein.ActiveResidues>
 VAL166  LYS551  ARG553  GLY616  TRP617  ASP618  TYR619  PRO620  LYS621  CYS622 
 ASP623  PHE694  ASN695  SER759  ASP760  ASP761  ALA762  ILE779  LEU786  VAL792 
 PHE793  MET794  SER795  GLU796  ALA797  LYS798  CYS799  TRP800  GLU811  SER814 

> <Gold.Protein.RotatedAtoms>
  151.1830  135.0369  159.8800 H   0  0  0  0  0  0  0  0  0  0  0  0  # atno 6907 bound_to 6896
  152.5444  134.1041  159.8340 H   0  0  0  0  0  0  0  0  0  0  0  0  # atno 6908 bound_to 6896
  151.1160  133.5091  159.2636 H   0  0  0  0  0  0  0  0  0  0  0  0  # atno 6909 bound_to 6896
  145.2234  139.2851  143.4206 H   0  0  0  0  0  0  0  0  0  0  0  0  # atno 7974 bound_to 7965
  156.1383  140.3183  155.8456 H   0  0  0  0  0  0  0  0  0  0  0  0  # atno 8008 bound_to 7997
  155.4202  140.0511  157.3043 H   0  0  0  0  0  0  0  0  0  0  0  0  # atno 8009 bound_to 7997
  154.4955  140.2109  155.9468 H   0  0  0  0  0  0  0  0  0  0  0  0  # atno 8010 bound_to 7997
  139.4902  144.4154  151.9249 H   0  0  0  0  0  0  0  0  0  0  0  0  # atno 10167 bound_to 10162
  156.3756  130.7811  151.1997 H   0  0  0  0  0  0  0  0  0  0  0  0  # atno 10718 bound_to 10713
  153.1803  135.4494  155.0019 H   0  0  0  0  0  0  0  0  0  0  0  0  # atno 10763 bound_to 10752
  154.8025  135.3261  154.7516 H   0  0  0  0  0  0  0  0  0  0  0  0  # atno 10764 bound_to 10752
  153.7981  135.6965  153.4915 H   0  0  0  0  0  0  0  0  0  0  0  0  # atno 10765 bound_to 10752
  141.0701  133.6681  156.3442 H   0  0  0  0  0  0  0  0  0  0  0  0  # atno 11005 bound_to 11000
  146.3370  140.2547  142.8600 LP  0  0  0  0  0  0  0  0  0  0  0  0  # atno 17320 bound_to 7965
  144.9744  140.8399  143.5436 LP  0  0  0  0  0  0  0  0  0  0  0  0  # atno 17321 bound_to 7965
  140.3597  144.2988  150.5935 LP  0  0  0  0  0  0  0  0  0  0  0  0  # atno 17342 bound_to 10162
  140.5414  143.2223  151.8079 LP  0  0  0  0  0  0  0  0  0  0  0  0  # atno 17343 bound_to 10162
  157.7488  131.0359  150.4385 LP  0  0  0  0  0  0  0  0  0  0  0  0  # atno 17370 bound_to 10713
  156.4620  130.4034  149.6570 LP  0  0  0  0  0  0  0  0  0  0  0  0  # atno 17371 bound_to 10713
  140.5691  134.5858  157.5453 LP  0  0  0  0  0  0  0  0  0  0  0  0  # atno 17394 bound_to 11000
  139.9515  134.7609  156.0438 LP  0  0  0  0  0  0  0  0  0  0  0  0  # atno 17395 bound_to 11000

$$$$
