AV-unprocessed.smi:3150|AV-procd|sdf|12011|dock2
  -GOLD-   2272017423D 1   1.00000     0.00000
 Structure written by MMmdl.
 32 33  0  0  0  0  0  0  0  0  2 V2000
  151.3187  138.0902  154.3710 C   0  0  0  0  0  0  0  0  0  0  0  0
  150.7485  139.1922  155.2741 C   0  0  2  0  0  0  0  0  0  0  0  0
  150.2429  140.2251  154.4325 O   0  0  0  0  0  0  0  0  0  0  0  0
  149.2298  141.0387  155.0165 C   0  0  0  0  0  0  0  0  0  0  0  0
  148.4560  141.7972  153.9540 C   0  0  0  0  0  0  0  0  0  0  0  0
  147.1195  142.4384  154.2664 C   0  0  0  0  0  0  0  0  0  0  0  0
  147.1780  141.2307  153.3708 C   0  0  0  0  0  0  0  0  0  0  0  0
  151.8358  139.7459  156.2098 C   0  0  0  0  0  0  0  0  0  0  0  0
  152.9290  139.1741  156.2463 O   0  0  0  0  0  0  0  0  0  0  0  0
  151.3985  140.8678  156.9089 N   0  0  0  0  0  0  0  0  0  0  0  0
  151.8902  141.2378  158.0600 C   0  0  0  0  0  0  0  0  0  0  0  0
  152.9184  140.5425  158.7203 N   0  0  0  0  0  0  0  0  0  0  0  0
  153.4343  140.9385  159.9360 C   0  0  0  0  0  0  0  0  0  0  0  0
  152.9803  142.0226  160.5667 C   0  0  0  0  0  0  0  0  0  0  0  0
  151.9207  142.7966  159.9531 C   0  0  0  0  0  0  0  0  0  0  0  0
  151.3582  142.4433  158.7210 C   0  0  0  0  0  0  0  0  0  0  0  0
  150.4435  143.1430  158.2273 O   0  5  0  0  0  0  0  0  0  0  0  0
  151.7112  137.2600  154.9595 H   0  0  0  0  0  0  0  0  0  0  0  0
  152.1254  138.4667  153.7406 H   0  0  0  0  0  0  0  0  0  0  0  0
  150.5454  137.6911  153.7144 H   0  0  0  0  0  0  0  0  0  0  0  0
  149.9250  138.7697  155.8541 H   0  0  0  0  0  0  0  0  0  0  0  0
  148.5316  140.4170  155.5780 H   0  0  0  0  0  0  0  0  0  0  0  0
  149.6566  141.7628  155.7109 H   0  0  0  0  0  0  0  0  0  0  0  0
  149.0924  142.3416  153.2591 H   0  0  0  0  0  0  0  0  0  0  0  0
  146.7065  142.3042  155.2641 H   0  0  0  0  0  0  0  0  0  0  0  0
  146.9046  143.3980  153.8010 H   0  0  0  0  0  0  0  0  0  0  0  0
  147.0009  141.3850  152.3085 H   0  0  0  0  0  0  0  0  0  0  0  0
  146.8063  140.2895  153.7712 H   0  0  0  0  0  0  0  0  0  0  0  0
  154.2199  140.3068  160.3228 H   0  0  0  0  0  0  0  0  0  0  0  0
  153.3952  142.3184  161.5187 H   0  0  0  0  0  0  0  0  0  0  0  0
  151.5613  143.6731  160.4729 H   0  0  0  0  0  0  0  0  0  0  0  0
  153.3209  139.7106  158.3146 H   0  0  0  0  0  0  0  0  0  0  0  0
  1  2  1  0  0  0  0
  1 18  1  0  0  0  0
  1 19  1  0  0  0  0
  1 20  1  0  0  0  0
  2  3  1  0  0  0  0
  2  8  1  0  0  0  0
  2 21  1  0  0  0  0
  3  4  1  0  0  0  0
  4  5  1  0  0  0  0
  4 22  1  0  0  0  0
  4 23  1  0  0  0  0
  5  7  1  0  0  0  0
  5  6  1  0  0  0  0
  5 24  1  0  0  0  0
  6  7  1  0  0  0  0
  6 25  1  0  0  0  0
  6 26  1  0  0  0  0
  7 27  1  0  0  0  0
  7 28  1  0  0  0  0
  8  9  2  0  0  0  0
  8 10  1  0  0  0  0
 10 11  2  0  0  0  0
 11 16  1  0  0  0  0
 11 12  1  0  0  0  0
 12 32  1  0  0  0  0
 12 13  1  0  0  0  0
 13 29  1  0  0  0  0
 13 14  2  0  0  0  0
 14 30  1  0  0  0  0
 14 15  1  0  0  0  0
 15 16  2  0  0  0  0
 15 31  1  0  0  0  0
 16 17  1  0  0  0  0
M  CHG  1  17  -1
M  END
> <s_m_source_file>
AV-unprocessed.smi

> <i_m_source_file_index>
3150

> <i_lp_mmshare_version>
43012

> <i_f3d_flags>
0

> <s_epik_input>
W0NIMl0xW0NIMl1bQ0hdMVtDSDJdT1tDQEBIXShbQ0gzXSlDKD1PKVtOSF1jMm5bY0hdW2NIXVtjSF1jMltPSF0=

> <s_epik_cmdline>
J2VwaWtfcHl0aG9uJywgJy1waCcsICc3LjAnLCAnLXRuJywgJzgnLCAnLW1hJywgJzIwMCcsICctbWV0YWxfYmluZGluZycsICctaW1hZScsICc8aW5maWxlLm1hZT4nLCAnLW9tYWUnLCAnPG91dGZpbGUubWFlPic=

> <r_epik_Ionization_Penalty>
0.784632

> <r_epik_Ionization_Penalty_Charging>
0.784632

> <r_epik_Ionization_Penalty_Neutral>
7.02258e-13

> <r_epik_State_Penalty>
1.43154

> <r_epik_Charging_Adjusted_Penalty>
2.21617

> <i_epik_Tot_Q>
-1

> <i_epik_Tot_abs_Q>
1

> <r_epik_Metal_State_Penalty>
1.39244

> <b_epik_Metal_Only>
0

> <s_lp_Force_Field>
OPLS_2005

> <r_lp_Energy>
43.7392

> <b_lp_Chiralities_Consistent>
1

> <s_lp_Variant>
AV-unprocessed.smi:3150-5

> <Gold.Version>
5.8.1

> <Gold.Id.Protein>
6NUR|6NUR_protein|mol2

> <Gold.PLP.Fitness>
42.1230

> <Gold.PLP.PLP>
-37.3216

> <Gold.PLP.part.hbond>
-2.0000

> <Gold.PLP.part.metal>
0.0000

> <Gold.PLP.part.buried>
-4.0068

> <Gold.PLP.part.nonpolar>
-31.2926

> <Gold.PLP.part.repulsive>
0.3817

> <Gold.PLP.ligand.clash>
0.0000

> <Gold.PLP.ligand.torsion>
0.8732

> <Gold.PLP.Chemscore.Hbond>
2.0000

> <Gold.PLP.Chemscore.CHOScore>
0.0000

> <Gold.PLP.Chemscore.Metal>
0.0000

> <Gold.Chemscore.Hbonds>
donor molecule, donor type, donor heavy atom, donor atom, acceptor molecule, acceptor atom, score
      P1  H  7989  7998       L1     3  1.00
      P1  H  7997  8008       L1     9  1.00

> <Gold.PLP.Chemscore.Internal.Correction>
0.5479

> <Gold.Rescore>
     Score         DG    S(hbond)    S(metal)    S(lipo)     H(rot)  DE(clash)    DE(int)     intcor
     16.08     -17.30       1.86        0.00      83.87       1.64       0.19       1.03       ----

> <Gold.Chemscore.Fitness>
16.0807

> <Gold.Chemscore.DG>
-17.3043

> <Gold.Chemscore.ZeroCoef>
-5.4800

> <Gold.Chemscore.Hbond>
1.8583

> <Gold.Chemscore.Metal>
0.0000

> <Gold.Chemscore.Lipo>
83.8695

> <Gold.Chemscore.Internal_Hbond>
0.0000

> <Gold.Chemscore.DEClash>
0.1909

> <Gold.Chemscore.DEInternal>
1.0328

> <Gold.Chemscore.Rot>
1.6387

> <Gold.Chemscore.Internal.Correction>
   9.000000E+99

> <Gold.Chemscore.Hbonds>
donor molecule, donor type, donor heavy atom, donor atom, acceptor molecule, acceptor atom, score
      P1  H  7989  7998       L1     3  0.63
      P1  H  7997  8008       L1     9  0.95

> <Gold.Chemscore.Hbond.Weighted>
-6.2066

> <Gold.Chemscore.Metal.Weighted>
-0.0000

> <Gold.Chemscore.Lipo.Weighted>
-9.8127

> <Gold.Chemscore.Internal_Hbond.Weighted>
0.0000

> <Gold.Chemscore.DEClash.Weighted>
0.1909

> <Gold.Chemscore.DEInternal.Weighted>
1.0328

> <Gold.Chemscore.Rot.Weighted>
4.1950

> <Gold.Chemscore.Internal.Correction.Weighted>
   9.000000E+99

> <Gold.Protein.RotatedTorsions>
[ 6907 6896 6895 6894 ] final   30.18 input  -60.11 | X-H torsion
[ 7974 7965 7964 7962 ] final  169.16 input  175.53 | X-H torsion
[ 8008 7997 7996 7995 ] final  -61.87 input   59.86 | X-H torsion
[ 10167 10162 10161 10158 ] final  -43.02 input  -65.29 | X-H torsion
[ 10718 10713 10712 10709 ] final  143.94 input   66.30 | X-H torsion
[ 10763 10752 10751 10750 ] final    8.59 input  -60.55 | X-H torsion
[ 11005 11000 10999 10996 ] final    0.72 input  -57.11 | X-H torsion

> <Gold.Protein.ActiveResidues>
 VAL166  LYS551  ARG553  GLY616  TRP617  ASP618  TYR619  PRO620  LYS621  CYS622 
 ASP623  PHE694  ASN695  SER759  ASP760  ASP761  ALA762  ILE779  LEU786  VAL792 
 PHE793  MET794  SER795  GLU796  ALA797  LYS798  CYS799  TRP800  GLU811  SER814 

> <Gold.Protein.RotatedAtoms>
  152.0422  134.9704  160.0573 H   0  0  0  0  0  0  0  0  0  0  0  0  # atno 6907 bound_to 6896
  152.1139  133.4311  159.4652 H   0  0  0  0  0  0  0  0  0  0  0  0  # atno 6908 bound_to 6896
  150.6845  134.2534  159.4563 H   0  0  0  0  0  0  0  0  0  0  0  0  # atno 6909 bound_to 6896
  144.7364  139.9013  143.6409 H   0  0  0  0  0  0  0  0  0  0  0  0  # atno 7974 bound_to 7965
  154.4470  140.1008  156.6498 H   0  0  0  0  0  0  0  0  0  0  0  0  # atno 8008 bound_to 7997
  155.5410  140.3483  155.4428 H   0  0  0  0  0  0  0  0  0  0  0  0  # atno 8009 bound_to 7997
  156.0597  140.1323  156.9945 H   0  0  0  0  0  0  0  0  0  0  0  0  # atno 8010 bound_to 7997
  140.6948  143.3005  151.3293 H   0  0  0  0  0  0  0  0  0  0  0  0  # atno 10167 bound_to 10162
  157.3631  131.0968  151.0897 H   0  0  0  0  0  0  0  0  0  0  0  0  # atno 10718 bound_to 10713
  153.2233  135.6884  153.7974 H   0  0  0  0  0  0  0  0  0  0  0  0  # atno 10763 bound_to 10752
  153.7165  135.3274  155.3258 H   0  0  0  0  0  0  0  0  0  0  0  0  # atno 10764 bound_to 10752
  154.8280  135.4603  154.1090 H   0  0  0  0  0  0  0  0  0  0  0  0  # atno 10765 bound_to 10752
  140.6234  133.9641  155.8236 H   0  0  0  0  0  0  0  0  0  0  0  0  # atno 11005 bound_to 11000
  146.1069  139.4070  143.0312 LP  0  0  0  0  0  0  0  0  0  0  0  0  # atno 17320 bound_to 7965
  145.7498  140.9977  143.1256 LP  0  0  0  0  0  0  0  0  0  0  0  0  # atno 17321 bound_to 7965
  139.6391  144.0573  152.2540 LP  0  0  0  0  0  0  0  0  0  0  0  0  # atno 17342 bound_to 10162
  140.0072  144.6250  150.7678 LP  0  0  0  0  0  0  0  0  0  0  0  0  # atno 17343 bound_to 10162
  157.2030  130.6403  149.5745 LP  0  0  0  0  0  0  0  0  0  0  0  0  # atno 17370 bound_to 10713
  155.9741  130.4685  150.6361 LP  0  0  0  0  0  0  0  0  0  0  0  0  # atno 17371 bound_to 10713
  141.0726  134.0182  157.3504 LP  0  0  0  0  0  0  0  0  0  0  0  0  # atno 17394 bound_to 11000
  139.9144  135.0195  156.7823 LP  0  0  0  0  0  0  0  0  0  0  0  0  # atno 17395 bound_to 11000

$$$$
