AV-unprocessed.smi:51|AV-procd|sdf|499|dock2
  -GOLD-   2262016373D 1   1.00000     0.00000
 Structure written by MMmdl.
 25 26  0  0  0  0  0  0  0  0  2 V2000
  153.0741  139.5724  157.2969 O   0  0  0  0  0  0  0  0  0  0  0  0
  152.3788  139.6122  158.3352 C   0  0  0  0  0  0  0  0  0  0  0  0
  152.4864  138.8339  159.3094 O   0  5  0  0  0  0  0  0  0  0  0  0
  151.3008  140.7018  158.4045 C   0  0  2  0  0  0  0  0  0  0  0  0
  150.2940  140.6315  157.2394 C   0  0  0  0  0  0  0  0  0  0  0  0
  150.7502  141.7435  156.2972 C   0  0  1  0  0  0  0  0  0  0  0  0
  149.7007  142.2371  155.4914 O   0  0  0  0  0  0  0  0  0  0  0  0
  151.2847  142.7924  157.2692 C   0  0  0  0  0  0  0  0  0  0  0  0
  151.9288  142.0213  158.3234 N   0  0  0  0  0  0  0  0  0  0  0  0
  152.1120  142.6881  159.5428 C   0  0  0  0  0  0  0  0  0  0  0  0
  152.7280  142.0163  160.6191 C   0  0  0  0  0  0  0  0  0  0  0  0
  152.8758  142.7472  161.8147 C   0  0  0  0  0  0  0  0  0  0  0  0
  152.4549  144.0260  161.9241 N   0  0  0  0  0  0  0  0  0  0  0  0
  151.8866  144.5644  160.8421 C   0  0  0  0  0  0  0  0  0  0  0  0
  151.6939  143.9715  159.6616 N   0  0  0  0  0  0  0  0  0  0  0  0
  150.7616  140.5804  159.3455 H   0  0  0  0  0  0  0  0  0  0  0  0
  150.2494  139.6578  156.7492 H   0  0  0  0  0  0  0  0  0  0  0  0
  149.2955  140.8496  157.6219 H   0  0  0  0  0  0  0  0  0  0  0  0
  151.5587  141.3807  155.6606 H   0  0  0  0  0  0  0  0  0  0  0  0
  149.6096  143.1629  155.6564 H   0  0  0  0  0  0  0  0  0  0  0  0
  151.9928  143.4652  156.7843 H   0  0  0  0  0  0  0  0  0  0  0  0
  150.4690  143.3945  157.6735 H   0  0  0  0  0  0  0  0  0  0  0  0
  153.0631  140.9930  160.5344 H   0  0  0  0  0  0  0  0  0  0  0  0
  153.3350  142.3044  162.6860 H   0  0  0  0  0  0  0  0  0  0  0  0
  151.5508  145.5869  160.9301 H   0  0  0  0  0  0  0  0  0  0  0  0
  1  2  2  0  0  0  0
  2  3  1  0  0  0  0
  2  4  1  0  0  0  0
  4  9  1  0  0  0  0
  4  5  1  0  0  0  0
  4 16  1  0  0  0  0
  5  6  1  0  0  0  0
  5 17  1  0  0  0  0
  5 18  1  0  0  0  0
  6  7  1  0  0  0  0
  6  8  1  0  0  0  0
  6 19  1  0  0  0  0
  7 20  1  0  0  0  0
  8  9  1  0  0  0  0
  8 21  1  0  0  0  0
  8 22  1  0  0  0  0
  9 10  1  0  0  0  0
 10 15  1  0  0  0  0
 10 11  2  0  0  0  0
 11 12  1  0  0  0  0
 11 23  1  0  0  0  0
 12 13  2  0  0  0  0
 12 24  1  0  0  0  0
 13 14  1  0  0  0  0
 14 15  2  0  0  0  0
 14 25  1  0  0  0  0
M  CHG  1   3  -1
M  END
> <s_m_source_file>
AV-unprocessed.smi

> <i_m_source_file_index>
51

> <i_lp_mmshare_version>
43012

> <i_f3d_flags>
0

> <s_epik_input>
Tz1DKFtPSF0pW0NAQEhdMVtDSDJdW0NAQEhdKFtPSF0pW0NIMl1OMWMyW2NIXVtjSF1uW2NIXW4y

> <s_epik_cmdline>
J2VwaWtfcHl0aG9uJywgJy1waCcsICc3LjAnLCAnLXRuJywgJzgnLCAnLW1hJywgJzIwMCcsICctbWV0YWxfYmluZGluZycsICctaW1hZScsICc8aW5maWxlLm1hZT4nLCAnLW9tYWUnLCAnPG91dGZpbGUubWFlPic=

> <r_lp_tautomer_probability>
1

> <r_epik_Ionization_Penalty>
0.225251

> <r_epik_Ionization_Penalty_Charging>
0.000248217

> <r_epik_Ionization_Penalty_Neutral>
0.225002

> <r_epik_State_Penalty>
0.21284

> <r_epik_Charging_Adjusted_Penalty>
0.213088

> <i_epik_Tot_Q>
-1

> <i_epik_Tot_abs_Q>
1

> <r_epik_Metal_State_Penalty>
0.154111

> <b_epik_Metal_Only>
0

> <s_lp_Force_Field>
OPLS_2005

> <r_lp_Energy>
17.878

> <b_lp_Chiralities_Consistent>
1

> <s_lp_Variant>
AV-unprocessed.smi:51-1

> <Gold.Version>
5.8.1

> <Gold.Id.Protein>
6NUR|6NUR_protein|mol2

> <Gold.PLP.Fitness>
38.8979

> <Gold.PLP.PLP>
-29.9962

> <Gold.PLP.part.hbond>
-2.0000

> <Gold.PLP.part.metal>
0.0000

> <Gold.PLP.part.buried>
-5.0003

> <Gold.PLP.part.nonpolar>
-22.4780

> <Gold.PLP.part.repulsive>
0.1910

> <Gold.PLP.ligand.clash>
0.0000

> <Gold.PLP.ligand.torsion>
0.0987

> <Gold.PLP.Chemscore.Hbond>
3.0000

> <Gold.PLP.Chemscore.CHOScore>
0.0000

> <Gold.PLP.Chemscore.Metal>
0.0000

> <Gold.Chemscore.Hbonds>
donor molecule, donor type, donor heavy atom, donor atom, acceptor molecule, acceptor atom, score
      L1  H     7    20       P1  8028  1.00
      P1  H  7997  8008       L1     1  2.00

> <Gold.PLP.Chemscore.Internal.Correction>
0.0992

> <Gold.Rescore>
     Score         DG    S(hbond)    S(metal)    S(lipo)     H(rot)  DE(clash)    DE(int)     intcor
     12.09     -12.17       2.00        0.00      48.99       2.23       0.01       0.06       ----

> <Gold.Chemscore.Fitness>
12.0942

> <Gold.Chemscore.DG>
-12.1703

> <Gold.Chemscore.ZeroCoef>
-5.4800

> <Gold.Chemscore.Hbond>
1.9951

> <Gold.Chemscore.Metal>
0.0000

> <Gold.Chemscore.Lipo>
48.9884

> <Gold.Chemscore.Internal_Hbond>
0.0000

> <Gold.Chemscore.DEClash>
0.0149

> <Gold.Chemscore.DEInternal>
0.0612

> <Gold.Chemscore.Rot>
2.2285

> <Gold.Chemscore.Internal.Correction>
   9.000000E+99

> <Gold.Chemscore.Hbonds>
donor molecule, donor type, donor heavy atom, donor atom, acceptor molecule, acceptor atom, score
      L1  H     7    20       P1  8028  0.99
      P1  H  7997  8008       L1     1  0.96

> <Gold.Chemscore.Hbond.Weighted>
-6.6636

> <Gold.Chemscore.Metal.Weighted>
-0.0000

> <Gold.Chemscore.Lipo.Weighted>
-5.7316

> <Gold.Chemscore.Internal_Hbond.Weighted>
0.0000

> <Gold.Chemscore.DEClash.Weighted>
0.0149

> <Gold.Chemscore.DEInternal.Weighted>
0.0612

> <Gold.Chemscore.Rot.Weighted>
5.7050

> <Gold.Chemscore.Internal.Correction.Weighted>
   9.000000E+99

> <Gold.Protein.RotatedTorsions>
[ 6907 6896 6895 6894 ] final  -54.82 input  -60.11 | X-H torsion
[ 7974 7965 7964 7962 ] final  104.08 input  175.53 | X-H torsion
[ 8008 7997 7996 7995 ] final  -81.81 input   59.86 | X-H torsion
[ 10167 10162 10161 10158 ] final -150.93 input  -65.29 | X-H torsion
[ 10718 10713 10712 10709 ] final  -23.59 input   66.30 | X-H torsion
[ 10763 10752 10751 10750 ] final  165.09 input  -60.55 | X-H torsion
[ 11005 11000 10999 10996 ] final   29.86 input  -57.11 | X-H torsion

> <Gold.Protein.ActiveResidues>
 VAL166  LYS551  ARG553  GLY616  TRP617  ASP618  TYR619  PRO620  LYS621  CYS622 
 ASP623  PHE694  ASN695  SER759  ASP760  ASP761  ALA762  ILE779  LEU786  VAL792 
 PHE793  MET794  SER795  GLU796  ALA797  LYS798  CYS799  TRP800  GLU811  SER814 

> <Gold.Protein.RotatedAtoms>
  150.8305  134.7555  159.6848 H   0  0  0  0  0  0  0  0  0  0  0  0  # atno 6907 bound_to 6896
  152.4410  134.5588  159.9898 H   0  0  0  0  0  0  0  0  0  0  0  0  # atno 6908 bound_to 6896
  151.5750  133.3347  159.3033 H   0  0  0  0  0  0  0  0  0  0  0  0  # atno 6909 bound_to 6896
  145.3375  139.2470  143.3627 H   0  0  0  0  0  0  0  0  0  0  0  0  # atno 7974 bound_to 7965
  154.6021  140.0642  156.9383 H   0  0  0  0  0  0  0  0  0  0  0  0  # atno 8008 bound_to 7997
  155.2114  140.3323  155.4310 H   0  0  0  0  0  0  0  0  0  0  0  0  # atno 8009 bound_to 7997
  156.2325  140.1847  156.7190 H   0  0  0  0  0  0  0  0  0  0  0  0  # atno 8010 bound_to 7997
  139.7311  143.8807  152.2535 H   0  0  0  0  0  0  0  0  0  0  0  0  # atno 10167 bound_to 10162
  156.4890  130.4562  149.6767 H   0  0  0  0  0  0  0  0  0  0  0  0  # atno 10718 bound_to 10713
  154.3187  135.2756  155.2530 H   0  0  0  0  0  0  0  0  0  0  0  0  # atno 10763 bound_to 10752
  154.4893  135.5838  153.6451 H   0  0  0  0  0  0  0  0  0  0  0  0  # atno 10764 bound_to 10752
  152.9879  135.6130  154.3370 H   0  0  0  0  0  0  0  0  0  0  0  0  # atno 10765 bound_to 10752
  140.3005  134.2762  155.7755 H   0  0  0  0  0  0  0  0  0  0  0  0  # atno 11005 bound_to 11000
  146.3021  140.3965  142.8700 LP  0  0  0  0  0  0  0  0  0  0  0  0  # atno 17320 bound_to 7965
  144.8816  140.7408  143.5983 LP  0  0  0  0  0  0  0  0  0  0  0  0  # atno 17321 bound_to 7965
  139.8730  144.7058  150.8965 LP  0  0  0  0  0  0  0  0  0  0  0  0  # atno 17342 bound_to 10162
  140.7771  143.3722  151.1628 LP  0  0  0  0  0  0  0  0  0  0  0  0  # atno 17343 bound_to 10162
  156.3446  130.7400  151.2350 LP  0  0  0  0  0  0  0  0  0  0  0  0  # atno 17370 bound_to 10713
  157.7476  131.0394  150.4549 LP  0  0  0  0  0  0  0  0  0  0  0  0  # atno 17371 bound_to 10713
  141.2129  133.7643  156.9759 LP  0  0  0  0  0  0  0  0  0  0  0  0  # atno 17394 bound_to 11000
  140.1114  134.9474  157.2071 LP  0  0  0  0  0  0  0  0  0  0  0  0  # atno 17395 bound_to 11000

$$$$
