AV-unprocessed.smi:3330|AV-procd|sdf|12808|dock3
  -GOLD-   2272019173D 1   1.00000     0.00000
 Structure written by MMmdl.
 38 39  0  0  0  0  0  0  0  0  1 V2000
  150.6881  138.8808  155.2388 C   0  0  0  0  0  0  0  0  0  0  0  0
  149.4412  138.5828  156.0938 C   0  0  1  0  0  0  0  0  0  0  0  0
  149.8579  137.8987  157.3144 N   0  0  0  0  0  0  0  0  0  0  0  0
  148.7241  137.4154  158.0884 C   0  0  0  0  0  0  0  0  0  0  0  0
  149.1799  137.0864  159.5204 C   0  0  0  0  0  0  0  0  0  0  0  0
  148.3049  136.0951  160.1588 N   0  0  0  0  0  0  0  0  0  0  0  0
  147.5256  136.3415  161.2206 C   0  0  0  0  0  0  0  0  0  0  0  0
  147.3978  137.4045  161.8272 O   0  0  0  0  0  0  0  0  0  0  0  0
  146.7821  135.0722  161.5753 C   0  0  0  0  0  0  0  0  0  0  0  0
  147.2882  134.2051  160.5341 N   0  0  0  0  0  0  0  0  0  0  0  0
  148.1657  134.8253  159.7346 C   0  0  0  0  0  0  0  0  0  0  0  0
  148.7375  134.3082  158.7760 O   0  0  0  0  0  0  0  0  0  0  0  0
  148.6566  139.8623  156.4944 C   0  0  1  0  0  0  0  0  0  0  0  0
  149.5392  140.9179  157.1861 C   0  0  0  0  0  0  0  0  0  0  0  0
  147.9824  140.4654  155.3479 N   0  0  0  0  0  0  0  0  0  0  0  0
  148.1318  141.7431  154.8495 C   0  0  0  0  0  0  0  0  0  0  0  0
  147.3050  141.8604  153.7693 C   0  0  0  0  0  0  0  0  0  0  0  0
  146.6832  140.5841  153.6796 C   0  0  0  0  0  0  0  0  0  0  0  0
  147.0902  139.7515  154.6231 N   0  0  0  0  0  0  0  0  0  0  0  0
  150.4207  139.3480  154.2918 H   0  0  0  0  0  0  0  0  0  0  0  0
  151.2351  137.9716  154.9905 H   0  0  0  0  0  0  0  0  0  0  0  0
  151.3750  139.5497  155.7583 H   0  0  0  0  0  0  0  0  0  0  0  0
  148.7676  137.9358  155.5298 H   0  0  0  0  0  0  0  0  0  0  0  0
  150.3667  138.5595  157.8846 H   0  0  0  0  0  0  0  0  0  0  0  0
  147.9258  138.1584  158.1150 H   0  0  0  0  0  0  0  0  0  0  0  0
  148.3185  136.5218  157.6141 H   0  0  0  0  0  0  0  0  0  0  0  0
  150.1953  136.6882  159.4870 H   0  0  0  0  0  0  0  0  0  0  0  0
  149.2465  137.9954  160.1211 H   0  0  0  0  0  0  0  0  0  0  0  0
  147.0540  134.7110  162.5674 H   0  0  0  0  0  0  0  0  0  0  0  0
  145.7020  135.1990  161.5036 H   0  0  0  0  0  0  0  0  0  0  0  0
  147.0040  133.2415  160.4328 H   0  0  0  0  0  0  0  0  0  0  0  0
  147.8774  139.5748  157.2026 H   0  0  0  0  0  0  0  0  0  0  0  0
  149.9157  140.5629  158.1448 H   0  0  0  0  0  0  0  0  0  0  0  0
  148.9746  141.8294  157.3848 H   0  0  0  0  0  0  0  0  0  0  0  0
  150.3967  141.1875  156.5687 H   0  0  0  0  0  0  0  0  0  0  0  0
  148.8046  142.4565  155.3023 H   0  0  0  0  0  0  0  0  0  0  0  0
  147.1644  142.7268  153.1403 H   0  0  0  0  0  0  0  0  0  0  0  0
  145.9508  140.2415  152.9639 H   0  0  0  0  0  0  0  0  0  0  0  0
  1  2  1  0  0  0  0
  1 20  1  0  0  0  0
  1 21  1  0  0  0  0
  1 22  1  0  0  0  0
  2  3  1  0  0  0  0
  2 13  1  0  0  0  0
  2 23  1  0  0  0  0
  3  4  1  0  0  0  0
  3 24  1  0  0  0  0
  4  5  1  0  0  0  0
  4 25  1  0  0  0  0
  4 26  1  0  0  0  0
  5  6  1  0  0  0  0
  5 27  1  0  0  0  0
  5 28  1  0  0  0  0
  6 11  1  0  0  0  0
  6  7  1  0  0  0  0
  7  8  2  0  0  0  0
  7  9  1  0  0  0  0
  9 10  1  0  0  0  0
  9 29  1  0  0  0  0
  9 30  1  0  0  0  0
 10 11  1  0  0  0  0
 10 31  1  0  0  0  0
 11 12  2  0  0  0  0
 13 14  1  0  0  0  0
 13 15  1  0  0  0  0
 13 32  1  0  0  0  0
 14 33  1  0  0  0  0
 14 34  1  0  0  0  0
 14 35  1  0  0  0  0
 15 19  1  0  0  0  0
 15 16  1  0  0  0  0
 16 17  2  0  0  0  0
 16 36  1  0  0  0  0
 17 18  1  0  0  0  0
 17 37  1  0  0  0  0
 18 19  2  0  0  0  0
 18 38  1  0  0  0  0
M  END
> <s_m_source_file>
AV-unprocessed.smi

> <i_m_source_file_index>
3330

> <i_lp_mmshare_version>
43012

> <i_f3d_flags>
0

> <s_epik_input>
bjFbY0hdW2NIXVtjSF1uMVtDQEBIXShbQ0gzXSlbQ0BIXShbQ0gzXSlbTkhdW0NIMl1bQ0gyXU4yQyg9TylbQ0gyXVtOSF1DMj1P

> <s_epik_cmdline>
J2VwaWtfcHl0aG9uJywgJy1waCcsICc3LjAnLCAnLXRuJywgJzgnLCAnLW1hJywgJzIwMCcsICctbWV0YWxfYmluZGluZycsICctaW1hZScsICc8aW5maWxlLm1hZT4nLCAnLW9tYWUnLCAnPG91dGZpbGUubWFlPic=

> <r_lp_tautomer_probability>
1

> <r_epik_Ionization_Penalty>
2.2997

> <r_epik_Ionization_Penalty_Charging>
0

> <r_epik_Ionization_Penalty_Neutral>
2.2997

> <r_epik_State_Penalty>
2.44917

> <r_epik_Charging_Adjusted_Penalty>
2.44917

> <i_epik_Tot_Q>
0

> <i_epik_Tot_abs_Q>
0

> <r_epik_Metal_State_Penalty>
2.52438

> <b_epik_Metal_Only>
0

> <s_lp_Force_Field>
OPLS_2005

> <r_lp_Energy>
27.2157

> <b_lp_Chiralities_Consistent>
1

> <s_lp_Variant>
AV-unprocessed.smi:3330-8

> <Gold.Version>
5.8.1

> <Gold.Id.Protein>
6NUR|6NUR_protein|mol2

> <Gold.PLP.Fitness>
39.4208

> <Gold.PLP.PLP>
-25.9191

> <Gold.PLP.part.hbond>
-3.0000

> <Gold.PLP.part.metal>
0.0000

> <Gold.PLP.part.buried>
-3.1527

> <Gold.PLP.part.nonpolar>
-19.1955

> <Gold.PLP.part.repulsive>
0.1351

> <Gold.PLP.ligand.clash>
0.0000

> <Gold.PLP.ligand.torsion>
0.3468

> <Gold.PLP.Chemscore.Hbond>
2.6897

> <Gold.PLP.Chemscore.CHOScore>
2.0000

> <Gold.PLP.Chemscore.Metal>
0.0000

> <Gold.Chemscore.Hbonds>
donor molecule, donor type, donor heavy atom, donor atom, acceptor molecule, acceptor atom, score
      P1  H  6896  6908       L1    12  0.81
      P1  H  6931  6943       L1     8  0.80
      P1  H  6934  6947       L1     8  0.72
      L1  C    16    36       P1  8028  1.00
      L1  C    18    38       P1 10175  1.00

> <Gold.PLP.Chemscore.Internal.Correction>
0.1261

> <Gold.Rescore>
     Score         DG    S(hbond)    S(metal)    S(lipo)     H(rot)  DE(clash)    DE(int)     intcor
     11.67     -12.19       2.31        0.00      48.19       2.60       0.04       0.49       ----

> <Gold.Chemscore.Fitness>
11.6679

> <Gold.Chemscore.DG>
-12.1890

> <Gold.Chemscore.ZeroCoef>
-5.4800

> <Gold.Chemscore.Hbond>
2.3096

> <Gold.Chemscore.Metal>
0.0000

> <Gold.Chemscore.Lipo>
48.1927

> <Gold.Chemscore.Internal_Hbond>
0.0000

> <Gold.Chemscore.DEClash>
0.0354

> <Gold.Chemscore.DEInternal>
0.4857

> <Gold.Chemscore.Rot>
2.5952

> <Gold.Chemscore.Internal.Correction>
   9.000000E+99

> <Gold.Chemscore.Hbonds>
donor molecule, donor type, donor heavy atom, donor atom, acceptor molecule, acceptor atom, score
      P1  H  6896  6908       L1    12  0.51
      P1  H  6931  6943       L1     8  0.59
      P1  H  6934  6947       L1     8  0.71

> <Gold.Chemscore.Hbond.Weighted>
-7.7142

> <Gold.Chemscore.Metal.Weighted>
-0.0000

> <Gold.Chemscore.Lipo.Weighted>
-5.6385

> <Gold.Chemscore.Internal_Hbond.Weighted>
0.0000

> <Gold.Chemscore.DEClash.Weighted>
0.0354

> <Gold.Chemscore.DEInternal.Weighted>
0.4857

> <Gold.Chemscore.Rot.Weighted>
6.6437

> <Gold.Chemscore.Internal.Correction.Weighted>
   9.000000E+99

> <Gold.Protein.RotatedTorsions>
[ 6907 6896 6895 6894 ] final  126.96 input  -60.11 | X-H torsion
[ 7974 7965 7964 7962 ] final -177.76 input  175.53 | X-H torsion
[ 8008 7997 7996 7995 ] final  -90.67 input   59.86 | X-H torsion
[ 10167 10162 10161 10158 ] final -135.25 input  -65.29 | X-H torsion
[ 10718 10713 10712 10709 ] final  146.99 input   66.30 | X-H torsion
[ 10763 10752 10751 10750 ] final  104.32 input  -60.55 | X-H torsion
[ 11005 11000 10999 10996 ] final   51.79 input  -57.11 | X-H torsion

> <Gold.Protein.ActiveResidues>
 VAL166  LYS551  ARG553  GLY616  TRP617  ASP618  TYR619  PRO620  LYS621  CYS622 
 ASP623  PHE694  ASN695  SER759  ASP760  ASP761  ALA762  ILE779  LEU786  VAL792 
 PHE793  MET794  SER795  GLU796  ALA797  LYS798  CYS799  TRP800  GLU811  SER814 

> <Gold.Protein.RotatedAtoms>
  152.3856  133.6606  159.6195 H   0  0  0  0  0  0  0  0  0  0  0  0  # atno 6907 bound_to 6896
  150.7776  133.9041  159.3359 H   0  0  0  0  0  0  0  0  0  0  0  0  # atno 6908 bound_to 6896
  151.6838  135.0959  160.0272 H   0  0  0  0  0  0  0  0  0  0  0  0  # atno 6909 bound_to 6896
  144.7128  140.0971  143.6418 H   0  0  0  0  0  0  0  0  0  0  0  0  # atno 7974 bound_to 7965
  154.7014  140.0528  157.0462 H   0  0  0  0  0  0  0  0  0  0  0  0  # atno 8008 bound_to 7997
  155.0679  140.3196  155.4621 H   0  0  0  0  0  0  0  0  0  0  0  0  # atno 8009 bound_to 7997
  156.2761  140.2087  156.5807 H   0  0  0  0  0  0  0  0  0  0  0  0  # atno 8010 bound_to 7997
  139.8798  143.6853  152.2629 H   0  0  0  0  0  0  0  0  0  0  0  0  # atno 10167 bound_to 10162
  157.3264  131.0913  151.1199 H   0  0  0  0  0  0  0  0  0  0  0  0  # atno 10718 bound_to 10713
  153.3644  135.3947  155.1742 H   0  0  0  0  0  0  0  0  0  0  0  0  # atno 10763 bound_to 10752
  154.8684  135.3687  154.5058 H   0  0  0  0  0  0  0  0  0  0  0  0  # atno 10764 bound_to 10752
  153.5520  135.7082  153.5647 H   0  0  0  0  0  0  0  0  0  0  0  0  # atno 10765 bound_to 10752
  140.0903  134.5218  155.8858 H   0  0  0  0  0  0  0  0  0  0  0  0  # atno 11005 bound_to 11000
  145.9570  139.2773  143.1178 LP  0  0  0  0  0  0  0  0  0  0  0  0  # atno 17320 bound_to 7965
  145.9262  140.9081  143.0380 LP  0  0  0  0  0  0  0  0  0  0  0  0  # atno 17321 bound_to 7965
  139.7206  144.7603  151.0961 LP  0  0  0  0  0  0  0  0  0  0  0  0  # atno 17342 bound_to 10162
  140.7746  143.5212  150.9534 LP  0  0  0  0  0  0  0  0  0  0  0  0  # atno 17343 bound_to 10162
  157.2464  130.6593  149.5912 LP  0  0  0  0  0  0  0  0  0  0  0  0  # atno 17370 bound_to 10713
  155.9691  130.4552  150.5879 LP  0  0  0  0  0  0  0  0  0  0  0  0  # atno 17371 bound_to 10713
  141.2076  133.6665  156.6315 LP  0  0  0  0  0  0  0  0  0  0  0  0  # atno 17394 bound_to 11000
  140.3361  134.7888  157.4363 LP  0  0  0  0  0  0  0  0  0  0  0  0  # atno 17395 bound_to 11000

$$$$
