AV-unprocessed.smi:19|AV-procd|sdf|112|dock9
  -GOLD-   2262015273D 1   1.00000     0.00000
 Structure written by MMmdl.
 57 60  0  0  0  0  0  0  0  0  1 V2000
  147.4317  127.7498  153.1662 C   0  0  0  0  0  0  0  0  0  0  0  0
  146.5741  128.8755  153.0980 O   0  0  0  0  0  0  0  0  0  0  0  0
  146.2368  129.2223  151.7641 C   0  0  0  0  0  0  0  0  0  0  0  0
  145.6304  130.6320  151.7219 C   0  0  1  0  0  0  0  0  0  0  0  0
  146.5189  131.6905  152.4012 C   0  0  0  0  0  0  0  0  0  0  0  0
  145.9322  133.0156  152.2400 N   0  0  0  0  0  0  0  0  0  0  0  0
  146.4559  133.9754  153.0451 C   0  0  0  0  0  0  0  0  0  0  0  0
  147.5240  133.6898  153.8375 N   0  0  0  0  0  0  0  0  0  0  0  0
  148.0372  134.6238  154.6431 C   0  0  0  0  0  0  0  0  0  0  0  0
  147.6477  135.8888  154.8071 N   0  0  0  0  0  0  0  0  0  0  0  0
  146.5870  136.1894  154.0049 C   0  0  0  0  0  0  0  0  0  0  0  0
  145.9341  135.2991  153.1051 C   0  0  0  0  0  0  0  0  0  0  0  0
  144.8972  135.9604  152.4580 N   0  0  0  0  0  0  0  0  0  0  0  0
  144.9266  137.1656  152.9564 C   0  0  0  0  0  0  0  0  0  0  0  0
  145.9206  137.3972  153.8811 N   0  0  0  0  0  0  0  0  0  0  0  0
  146.1766  138.6441  154.5905 C   0  0  0  0  0  0  0  0  0  0  0  0
  147.4311  139.4324  154.1078 C   0  0  0  0  0  0  0  0  0  0  0  0
  147.3735  139.6678  152.5711 C   0  0  0  0  0  0  0  0  0  0  0  0
  147.4447  138.4595  151.8412 O   0  0  0  0  0  0  0  0  0  0  0  0
  147.5124  140.7979  154.8375 C   0  0  0  0  0  0  0  0  0  0  0  0
  148.8764  141.4942  154.6707 C   0  0  0  0  0  0  0  0  0  0  0  0
  149.9241  140.6332  155.0965 O   0  0  0  0  0  0  0  0  0  0  0  0
  149.9952  139.4353  154.3345 C   0  0  0  0  0  0  0  0  0  0  0  0
  148.6954  138.6306  154.5093 C   0  0  0  0  0  0  0  0  0  0  0  0
  145.6735  133.3568  150.8432 C   0  0  0  0  0  0  0  0  0  0  0  0
  144.8122  132.2745  150.1635 C   0  0  2  0  0  0  0  0  0  0  0  0
  143.3337  132.3138  150.5882 C   0  0  0  0  0  0  0  0  0  0  0  0
  145.3939  130.9835  150.3587 O   0  0  0  0  0  0  0  0  0  0  0  0
  147.6555  127.5217  154.2082 H   0  0  0  0  0  0  0  0  0  0  0  0
  148.3753  127.9413  152.6537 H   0  0  0  0  0  0  0  0  0  0  0  0
  146.9639  126.8699  152.7223 H   0  0  0  0  0  0  0  0  0  0  0  0
  147.1210  129.1792  151.1262 H   0  0  0  0  0  0  0  0  0  0  0  0
  145.5175  128.5020  151.3711 H   0  0  0  0  0  0  0  0  0  0  0  0
  144.6740  130.5860  152.2429 H   0  0  0  0  0  0  0  0  0  0  0  0
  146.6493  131.4337  153.4515 H   0  0  0  0  0  0  0  0  0  0  0  0
  147.5131  131.6963  151.9526 H   0  0  0  0  0  0  0  0  0  0  0  0
  148.8802  134.3131  155.2425 H   0  0  0  0  0  0  0  0  0  0  0  0
  144.2217  137.9269  152.6555 H   0  0  0  0  0  0  0  0  0  0  0  0
  145.2853  139.2647  154.4887 H   0  0  0  0  0  0  0  0  0  0  0  0
  146.2547  138.4210  155.6553 H   0  0  0  0  0  0  0  0  0  0  0  0
  146.4573  140.1879  152.2915 H   0  0  0  0  0  0  0  0  0  0  0  0
  148.1907  140.3003  152.2290 H   0  0  0  0  0  0  0  0  0  0  0  0
  148.0930  137.9024  152.2441 H   0  0  0  0  0  0  0  0  0  0  0  0
  146.7249  141.4674  154.4901 H   0  0  0  0  0  0  0  0  0  0  0  0
  147.3374  140.6492  155.9040 H   0  0  0  0  0  0  0  0  0  0  0  0
  149.0441  141.8099  153.6407 H   0  0  0  0  0  0  0  0  0  0  0  0
  148.9050  142.3989  155.2781 H   0  0  0  0  0  0  0  0  0  0  0  0
  150.1908  139.6619  153.2859 H   0  0  0  0  0  0  0  0  0  0  0  0
  150.8430  138.8489  154.6887 H   0  0  0  0  0  0  0  0  0  0  0  0
  148.6225  138.3384  155.5578 H   0  0  0  0  0  0  0  0  0  0  0  0
  148.7588  137.6977  153.9485 H   0  0  0  0  0  0  0  0  0  0  0  0
  145.1752  134.3247  150.7727 H   0  0  0  0  0  0  0  0  0  0  0  0
  146.6264  133.4461  150.3197 H   0  0  0  0  0  0  0  0  0  0  0  0
  144.8360  132.4581  149.0890 H   0  0  0  0  0  0  0  0  0  0  0  0
  142.8757  133.2610  150.3021 H   0  0  0  0  0  0  0  0  0  0  0  0
  143.2100  132.2086  151.6656 H   0  0  0  0  0  0  0  0  0  0  0  0
  142.7692  131.5159  150.1057 H   0  0  0  0  0  0  0  0  0  0  0  0
  1  2  1  0  0  0  0
  1 29  1  0  0  0  0
  1 30  1  0  0  0  0
  1 31  1  0  0  0  0
  2  3  1  0  0  0  0
  3  4  1  0  0  0  0
  3 32  1  0  0  0  0
  3 33  1  0  0  0  0
  4 28  1  0  0  0  0
  4  5  1  0  0  0  0
  4 34  1  0  0  0  0
  5  6  1  0  0  0  0
  5 35  1  0  0  0  0
  5 36  1  0  0  0  0
  6  7  1  0  0  0  0
  6 25  1  0  0  0  0
  7 12  1  0  0  0  0
  7  8  2  0  0  0  0
  8  9  1  0  0  0  0
  9 10  2  0  0  0  0
  9 37  1  0  0  0  0
 10 11  1  0  0  0  0
 11 15  1  0  0  0  0
 11 12  2  0  0  0  0
 12 13  1  0  0  0  0
 13 14  2  0  0  0  0
 14 15  1  0  0  0  0
 14 38  1  0  0  0  0
 15 16  1  0  0  0  0
 16 17  1  0  0  0  0
 16 39  1  0  0  0  0
 16 40  1  0  0  0  0
 17 24  1  0  0  0  0
 17 18  1  0  0  0  0
 17 20  1  0  0  0  0
 18 19  1  0  0  0  0
 18 41  1  0  0  0  0
 18 42  1  0  0  0  0
 19 43  1  0  0  0  0
 20 21  1  0  0  0  0
 20 44  1  0  0  0  0
 20 45  1  0  0  0  0
 21 22  1  0  0  0  0
 21 46  1  0  0  0  0
 21 47  1  0  0  0  0
 22 23  1  0  0  0  0
 23 24  1  0  0  0  0
 23 48  1  0  0  0  0
 23 49  1  0  0  0  0
 24 50  1  0  0  0  0
 24 51  1  0  0  0  0
 25 26  1  0  0  0  0
 25 52  1  0  0  0  0
 25 53  1  0  0  0  0
 26 27  1  0  0  0  0
 26 28  1  0  0  0  0
 26 54  1  0  0  0  0
 27 55  1  0  0  0  0
 27 56  1  0  0  0  0
 27 57  1  0  0  0  0
M  END
> <s_m_source_file>
AV-unprocessed.smi

> <i_m_source_file_index>
19

> <i_lp_mmshare_version>
43012

> <i_f3d_flags>
0

> <s_epik_input>
W0NIM11PW0NIMl1bQ0BASF0xW0NIMl1OKFtDSDJdW0NASF0oTzEpW0NIM10pYyhuW2NIXW4yKWMoYzIzKW5bY0hdbjNbQ0gyXUM0KFtDSDJdW09IXSlbQ0gyXVtDSDJdT1tDSDJdW0NIMl00

> <s_epik_cmdline>
J2VwaWtfcHl0aG9uJywgJy1waCcsICc3LjAnLCAnLXRuJywgJzgnLCAnLW1hJywgJzIwMCcsICctbWV0YWxfYmluZGluZycsICctaW1hZScsICc8aW5maWxlLm1hZT4nLCAnLW9tYWUnLCAnPG91dGZpbGUubWFlPic=

> <r_lp_tautomer_probability>
1

> <r_epik_Ionization_Penalty>
6.20357e-05

> <r_epik_Ionization_Penalty_Charging>
0

> <r_epik_Ionization_Penalty_Neutral>
6.20357e-05

> <r_epik_State_Penalty>
-0

> <r_epik_Charging_Adjusted_Penalty>
0

> <i_epik_Tot_Q>
0

> <i_epik_Tot_abs_Q>
0

> <r_epik_Metal_State_Penalty>
-0

> <b_epik_Metal_Only>
0

> <s_lp_Force_Field>
OPLS_2005

> <r_lp_Energy>
39.077

> <b_lp_Chiralities_Consistent>
1

> <s_lp_Variant>
AV-unprocessed.smi:19-4

> <Gold.Version>
5.8.1

> <Gold.Id.Protein>
6NUR|6NUR_protein|mol2

> <Gold.PLP.Fitness>
45.5629

> <Gold.PLP.PLP>
-35.2960

> <Gold.PLP.part.hbond>
-3.3863

> <Gold.PLP.part.metal>
0.0000

> <Gold.PLP.part.buried>
1.1395

> <Gold.PLP.part.nonpolar>
-33.6238

> <Gold.PLP.part.repulsive>
0.7400

> <Gold.PLP.ligand.clash>
0.0000

> <Gold.PLP.ligand.torsion>
0.4656

> <Gold.PLP.Chemscore.Hbond>
1.6240

> <Gold.PLP.Chemscore.CHOScore>
2.0000

> <Gold.PLP.Chemscore.Metal>
0.0000

> <Gold.Chemscore.Hbonds>
donor molecule, donor type, donor heavy atom, donor atom, acceptor molecule, acceptor atom, score
      L1  H    19    43       P1  7948  0.74
      P1  H  7954  7966       L1    19  0.31
      L1  C    14    38       P1 10175  0.87

> <Gold.PLP.Chemscore.Internal.Correction>
0.3261

> <Gold.Rescore>
     Score         DG    S(hbond)    S(metal)    S(lipo)     H(rot)  DE(clash)    DE(int)     intcor
      6.82     -13.48       0.90        0.00     105.47       2.87       2.48       4.17       ----

> <Gold.Chemscore.Fitness>
6.8241

> <Gold.Chemscore.DG>
-13.4780

> <Gold.Chemscore.ZeroCoef>
-5.4800

> <Gold.Chemscore.Hbond>
0.9019

> <Gold.Chemscore.Metal>
0.0000

> <Gold.Chemscore.Lipo>
105.4733

> <Gold.Chemscore.Internal_Hbond>
0.0000

> <Gold.Chemscore.DEClash>
2.4799

> <Gold.Chemscore.DEInternal>
4.1740

> <Gold.Chemscore.Rot>
2.8729

> <Gold.Chemscore.Internal.Correction>
   9.000000E+99

> <Gold.Chemscore.Hbonds>
donor molecule, donor type, donor heavy atom, donor atom, acceptor molecule, acceptor atom, score
      L1  H    19    43       P1  7948  0.74
      P1  H  7954  7966       L1    19  0.01

> <Gold.Chemscore.Hbond.Weighted>
-3.0122

> <Gold.Chemscore.Metal.Weighted>
-0.0000

> <Gold.Chemscore.Lipo.Weighted>
-12.3404

> <Gold.Chemscore.Internal_Hbond.Weighted>
0.0000

> <Gold.Chemscore.DEClash.Weighted>
2.4799

> <Gold.Chemscore.DEInternal.Weighted>
4.1740

> <Gold.Chemscore.Rot.Weighted>
7.3546

> <Gold.Chemscore.Internal.Correction.Weighted>
   9.000000E+99

> <Gold.Protein.RotatedTorsions>
[ 6907 6896 6895 6894 ] final  -43.56 input  -60.11 | X-H torsion
[ 7974 7965 7964 7962 ] final   22.52 input  175.53 | X-H torsion
[ 8008 7997 7996 7995 ] final -157.48 input   59.86 | X-H torsion
[ 10167 10162 10161 10158 ] final   -0.33 input  -65.29 | X-H torsion
[ 10718 10713 10712 10709 ] final  -93.43 input   66.30 | X-H torsion
[ 10763 10752 10751 10750 ] final   57.95 input  -60.55 | X-H torsion
[ 11005 11000 10999 10996 ] final   17.34 input  -57.11 | X-H torsion

> <Gold.Protein.ActiveResidues>
 VAL166  LYS551  ARG553  GLY616  TRP617  ASP618  TYR619  PRO620  LYS621  CYS622 
 ASP623  PHE694  ASN695  SER759  ASP760  ASP761  ALA762  ILE779  LEU786  VAL792 
 PHE793  MET794  SER795  GLU796  ALA797  LYS798  CYS799  TRP800  GLU811  SER814 

> <Gold.Protein.RotatedAtoms>
  150.9425  134.8833  159.7620 H   0  0  0  0  0  0  0  0  0  0  0  0  # atno 6907 bound_to 6896
  152.5086  134.3921  159.9397 H   0  0  0  0  0  0  0  0  0  0  0  0  # atno 6908 bound_to 6896
  151.3941  133.3739  159.2759 H   0  0  0  0  0  0  0  0  0  0  0  0  # atno 6909 bound_to 6896
  146.2025  139.7873  142.8751 H   0  0  0  0  0  0  0  0  0  0  0  0  # atno 7974 bound_to 7965
  155.7331  140.0804  157.2280 H   0  0  0  0  0  0  0  0  0  0  0  0  # atno 8008 bound_to 7997
  154.4030  140.1591  156.2586 H   0  0  0  0  0  0  0  0  0  0  0  0  # atno 8009 bound_to 7997
  155.9090  140.3405  155.6087 H   0  0  0  0  0  0  0  0  0  0  0  0  # atno 8010 bound_to 7997
  140.6762  143.6908  150.8029 H   0  0  0  0  0  0  0  0  0  0  0  0  # atno 10167 bound_to 10162
  156.0013  130.5026  150.5775 H   0  0  0  0  0  0  0  0  0  0  0  0  # atno 10718 bound_to 10713
  152.9860  135.5623  154.5474 H   0  0  0  0  0  0  0  0  0  0  0  0  # atno 10763 bound_to 10752
  154.4917  135.2793  155.1493 H   0  0  0  0  0  0  0  0  0  0  0  0  # atno 10764 bound_to 10752
  154.2960  135.6317  153.5458 H   0  0  0  0  0  0  0  0  0  0  0  0  # atno 10765 bound_to 10752
  140.4371  134.1360  155.7686 H   0  0  0  0  0  0  0  0  0  0  0  0  # atno 11005 bound_to 11000
  145.3435  141.0293  143.3379 LP  0  0  0  0  0  0  0  0  0  0  0  0  # atno 17320 bound_to 7965
  144.8715  139.5031  143.6765 LP  0  0  0  0  0  0  0  0  0  0  0  0  # atno 17321 bound_to 7965
  140.0601  143.5163  152.2632 LP  0  0  0  0  0  0  0  0  0  0  0  0  # atno 17342 bound_to 10162
  139.6057  144.7595  151.3068 LP  0  0  0  0  0  0  0  0  0  0  0  0  # atno 17343 bound_to 10162
  157.3660  131.0758  151.1597 LP  0  0  0  0  0  0  0  0  0  0  0  0  # atno 17370 bound_to 10713
  157.2366  130.6550  149.5872 LP  0  0  0  0  0  0  0  0  0  0  0  0  # atno 17371 bound_to 10713
  141.1721  133.8587  157.1537 LP  0  0  0  0  0  0  0  0  0  0  0  0  # atno 17394 bound_to 11000
  140.0095  134.9994  157.0364 LP  0  0  0  0  0  0  0  0  0  0  0  0  # atno 17395 bound_to 11000

$$$$
