AV-unprocessed.smi:653|AV-procd|sdf|3206|dock7
  -GOLD-   22720 0143D 1   1.00000     0.00000
 Structure written by MMmdl.
 44 45  0  0  0  0  0  0  0  0  1 V2000
  153.6109  142.8284  163.3091 C   0  0  0  0  0  0  0  0  0  0  0  0
  153.1284  143.0765  161.8949 C   0  0  0  0  0  0  0  0  0  0  0  0
  152.3118  144.1881  161.6001 C   0  0  0  0  0  0  0  0  0  0  0  0
  151.8872  144.3749  160.2707 C   0  0  0  0  0  0  0  0  0  0  0  0
  152.2914  143.4453  159.2902 C   0  0  0  0  0  0  0  0  0  0  0  0
  151.8606  143.6013  157.8423 C   0  0  0  0  0  0  0  0  0  0  0  0
  151.2155  142.3139  157.3227 C   0  0  0  0  0  0  0  0  0  0  0  0
  151.7886  141.2328  157.4606 O   0  0  0  0  0  0  0  0  0  0  0  0
  150.0223  142.4442  156.7233 N   0  0  0  0  0  0  0  0  0  0  0  0
  149.2405  141.3470  156.1629 C   0  0  0  0  0  0  0  0  0  0  0  0
  149.4893  141.1570  154.6451 C   0  0  2  0  0  0  0  0  0  0  0  0
  148.2373  141.4023  153.8133 C   0  0  0  0  0  0  0  0  0  0  0  0
  147.5497  140.0346  153.7878 C   0  0  0  0  0  0  0  0  0  0  0  0
  148.5238  139.0946  154.2327 O   0  0  0  0  0  0  0  0  0  0  0  0
  149.8049  139.7105  154.2275 C   0  0  2  0  0  0  0  0  0  0  0  0
  150.8197  138.9248  155.0894 C   0  0  0  0  0  0  0  0  0  0  0  0
  152.1566  139.6749  155.2220 C   0  0  0  0  0  0  0  0  0  0  0  0
  151.0628  137.5211  154.5120 C   0  0  0  0  0  0  0  0  0  0  0  0
  153.1075  142.3658  159.6907 C   0  0  0  0  0  0  0  0  0  0  0  0
  153.5198  142.1791  160.9630 N   0  0  0  0  0  0  0  0  0  0  0  0
  153.7239  143.7683  163.8501 H   0  0  0  0  0  0  0  0  0  0  0  0
  154.5762  142.3207  163.3111 H   0  0  0  0  0  0  0  0  0  0  0  0
  152.8946  142.2072  163.8469 H   0  0  0  0  0  0  0  0  0  0  0  0
  152.0172  144.8826  162.3730 H   0  0  0  0  0  0  0  0  0  0  0  0
  151.2637  145.2175  160.0102 H   0  0  0  0  0  0  0  0  0  0  0  0
  151.1663  144.4392  157.7613 H   0  0  0  0  0  0  0  0  0  0  0  0
  152.7223  143.8438  157.2193 H   0  0  0  0  0  0  0  0  0  0  0  0
  149.6247  143.3696  156.6526 H   0  0  0  0  0  0  0  0  0  0  0  0
  149.4768  140.4376  156.7157 H   0  0  0  0  0  0  0  0  0  0  0  0
  148.1865  141.5525  156.3514 H   0  0  0  0  0  0  0  0  0  0  0  0
  150.2929  141.8222  154.3270 H   0  0  0  0  0  0  0  0  0  0  0  0
  147.5924  142.1927  154.1980 H   0  0  0  0  0  0  0  0  0  0  0  0
  148.5245  141.6836  152.7993 H   0  0  0  0  0  0  0  0  0  0  0  0
  146.6934  140.0056  154.4620 H   0  0  0  0  0  0  0  0  0  0  0  0
  147.2013  139.7843  152.7854 H   0  0  0  0  0  0  0  0  0  0  0  0
  150.1572  139.7175  153.1938 H   0  0  0  0  0  0  0  0  0  0  0  0
  150.4048  138.7901  156.0884 H   0  0  0  0  0  0  0  0  0  0  0  0
  152.6225  139.8259  154.2478 H   0  0  0  0  0  0  0  0  0  0  0  0
  152.8589  139.1172  155.8423 H   0  0  0  0  0  0  0  0  0  0  0  0
  152.0284  140.6544  155.6824 H   0  0  0  0  0  0  0  0  0  0  0  0
  151.4711  137.5722  153.5021 H   0  0  0  0  0  0  0  0  0  0  0  0
  150.1387  136.9442  154.4681 H   0  0  0  0  0  0  0  0  0  0  0  0
  151.7671  136.9598  155.1266 H   0  0  0  0  0  0  0  0  0  0  0  0
  153.4397  141.6324  158.9705 H   0  0  0  0  0  0  0  0  0  0  0  0
  1  2  1  0  0  0  0
  1 21  1  0  0  0  0
  1 22  1  0  0  0  0
  1 23  1  0  0  0  0
  2 20  1  0  0  0  0
  2  3  2  0  0  0  0
  3  4  1  0  0  0  0
  3 24  1  0  0  0  0
  4  5  2  0  0  0  0
  4 25  1  0  0  0  0
  5  6  1  0  0  0  0
  5 19  1  0  0  0  0
  6  7  1  0  0  0  0
  6 26  1  0  0  0  0
  6 27  1  0  0  0  0
  7  8  2  0  0  0  0
  7  9  1  0  0  0  0
  9 10  1  0  0  0  0
  9 28  1  0  0  0  0
 10 11  1  0  0  0  0
 10 29  1  0  0  0  0
 10 30  1  0  0  0  0
 11 15  1  0  0  0  0
 11 12  1  0  0  0  0
 11 31  1  0  0  0  0
 12 13  1  0  0  0  0
 12 32  1  0  0  0  0
 12 33  1  0  0  0  0
 13 14  1  0  0  0  0
 13 34  1  0  0  0  0
 13 35  1  0  0  0  0
 14 15  1  0  0  0  0
 15 16  1  0  0  0  0
 15 36  1  0  0  0  0
 16 17  1  0  0  0  0
 16 18  1  0  0  0  0
 16 37  1  0  0  0  0
 17 38  1  0  0  0  0
 17 39  1  0  0  0  0
 17 40  1  0  0  0  0
 18 41  1  0  0  0  0
 18 42  1  0  0  0  0
 18 43  1  0  0  0  0
 19 20  2  0  0  0  0
 19 44  1  0  0  0  0
M  END
> <s_m_source_file>
AV-unprocessed.smi

> <i_m_source_file_index>
653

> <i_lp_mmshare_version>
43012

> <i_f3d_flags>
0

> <s_epik_input>
W0NIM11jMVtjSF1bY0hdYyhbY0hdbjEpW0NIMl1DKD1PKVtOSF1bQ0gyXVtDQEBIXTJbQ0gyXVtDSDJdT1tDQEhdMltDSF0oW0NIM10pW0NIM10=

> <s_epik_cmdline>
J2VwaWtfcHl0aG9uJywgJy1waCcsICc3LjAnLCAnLXRuJywgJzgnLCAnLW1hJywgJzIwMCcsICctbWV0YWxfYmluZGluZycsICctaW1hZScsICc8aW5maWxlLm1hZT4nLCAnLW9tYWUnLCAnPG91dGZpbGUubWFlPic=

> <r_epik_Ionization_Penalty>
0.0166429

> <r_epik_Ionization_Penalty_Charging>
0

> <r_epik_Ionization_Penalty_Neutral>
0.0166429

> <r_epik_State_Penalty>
0.0131478

> <r_epik_Charging_Adjusted_Penalty>
0.0131478

> <i_epik_Tot_Q>
0

> <i_epik_Tot_abs_Q>
0

> <r_epik_Metal_State_Penalty>
0.012786

> <b_epik_Metal_Only>
0

> <s_lp_Force_Field>
OPLS_2005

> <r_lp_Energy>
20.8525

> <b_lp_Chiralities_Consistent>
1

> <s_lp_Variant>
AV-unprocessed.smi:653-3

> <Gold.Version>
5.8.1

> <Gold.Id.Protein>
6NUR|6NUR_protein|mol2

> <Gold.PLP.Fitness>
51.8140

> <Gold.PLP.PLP>
-50.8698

> <Gold.PLP.part.hbond>
-1.0000

> <Gold.PLP.part.metal>
0.0000

> <Gold.PLP.part.buried>
-2.4831

> <Gold.PLP.part.nonpolar>
-45.1629

> <Gold.PLP.part.repulsive>
0.1947

> <Gold.PLP.ligand.clash>
0.0000

> <Gold.PLP.ligand.torsion>
1.0533

> <Gold.PLP.Chemscore.Hbond>
1.0000

> <Gold.PLP.Chemscore.CHOScore>
0.0000

> <Gold.PLP.Chemscore.Metal>
0.0000

> <Gold.Chemscore.Hbonds>
donor molecule, donor type, donor heavy atom, donor atom, acceptor molecule, acceptor atom, score
      L1  H     9    28       P1  8028  1.00

> <Gold.PLP.Chemscore.Internal.Correction>
0.0508

> <Gold.Rescore>
     Score         DG    S(hbond)    S(metal)    S(lipo)     H(rot)  DE(clash)    DE(int)     intcor
     18.46     -21.02       1.00        0.00     136.76       1.48       0.15       2.41       ----

> <Gold.Chemscore.Fitness>
18.4590

> <Gold.Chemscore.DG>
-21.0155

> <Gold.Chemscore.ZeroCoef>
-5.4800

> <Gold.Chemscore.Hbond>
0.9989

> <Gold.Chemscore.Metal>
0.0000

> <Gold.Chemscore.Lipo>
136.7594

> <Gold.Chemscore.Internal_Hbond>
0.0000

> <Gold.Chemscore.DEClash>
0.1459

> <Gold.Chemscore.DEInternal>
2.4106

> <Gold.Chemscore.Rot>
1.4850

> <Gold.Chemscore.Internal.Correction>
   9.000000E+99

> <Gold.Chemscore.Hbonds>
donor molecule, donor type, donor heavy atom, donor atom, acceptor molecule, acceptor atom, score
      L1  H     9    28       P1  8028  0.95

> <Gold.Chemscore.Hbond.Weighted>
-3.3362

> <Gold.Chemscore.Metal.Weighted>
-0.0000

> <Gold.Chemscore.Lipo.Weighted>
-16.0009

> <Gold.Chemscore.Internal_Hbond.Weighted>
0.0000

> <Gold.Chemscore.DEClash.Weighted>
0.1459

> <Gold.Chemscore.DEInternal.Weighted>
2.4106

> <Gold.Chemscore.Rot.Weighted>
3.8015

> <Gold.Chemscore.Internal.Correction.Weighted>
   9.000000E+99

> <Gold.Protein.RotatedTorsions>
[ 6907 6896 6895 6894 ] final  -85.76 input  -60.11 | X-H torsion
[ 7974 7965 7964 7962 ] final  -93.08 input  175.53 | X-H torsion
[ 8008 7997 7996 7995 ] final   59.21 input   59.86 | X-H torsion
[ 10167 10162 10161 10158 ] final  130.30 input  -65.29 | X-H torsion
[ 10718 10713 10712 10709 ] final -155.47 input   66.30 | X-H torsion
[ 10763 10752 10751 10750 ] final  102.81 input  -60.55 | X-H torsion
[ 11005 11000 10999 10996 ] final  107.95 input  -57.11 | X-H torsion

> <Gold.Protein.ActiveResidues>
 VAL166  LYS551  ARG553  GLY616  TRP617  ASP618  TYR619  PRO620  LYS621  CYS622 
 ASP623  PHE694  ASN695  SER759  ASP760  ASP761  ALA762  ILE779  LEU786  VAL792 
 PHE793  MET794  SER795  GLU796  ALA797  LYS798  CYS799  TRP800  GLU811  SER814 

> <Gold.Protein.RotatedAtoms>
  150.6869  134.3155  159.4764 H   0  0  0  0  0  0  0  0  0  0  0  0  # atno 6907 bound_to 6896
  152.1036  134.9321  160.0578 H   0  0  0  0  0  0  0  0  0  0  0  0  # atno 6908 bound_to 6896
  152.0591  133.4019  159.4447 H   0  0  0  0  0  0  0  0  0  0  0  0  # atno 6909 bound_to 6896
  145.3913  140.9528  143.2339 H   0  0  0  0  0  0  0  0  0  0  0  0  # atno 7974 bound_to 7965
  155.5624  140.3488  155.4495 H   0  0  0  0  0  0  0  0  0  0  0  0  # atno 8008 bound_to 7997
  156.0504  140.1316  157.0082 H   0  0  0  0  0  0  0  0  0  0  0  0  # atno 8009 bound_to 7997
  154.4432  140.1006  156.6353 H   0  0  0  0  0  0  0  0  0  0  0  0  # atno 8010 bound_to 7997
  139.5437  144.6754  151.4543 H   0  0  0  0  0  0  0  0  0  0  0  0  # atno 10167 bound_to 10162
  156.5133  130.8445  151.2655 H   0  0  0  0  0  0  0  0  0  0  0  0  # atno 10718 bound_to 10713
  153.3445  135.3998  155.1598 H   0  0  0  0  0  0  0  0  0  0  0  0  # atno 10763 bound_to 10752
  154.8650  135.3641  154.5302 H   0  0  0  0  0  0  0  0  0  0  0  0  # atno 10764 bound_to 10752
  153.5750  135.7078  153.5548 H   0  0  0  0  0  0  0  0  0  0  0  0  # atno 10765 bound_to 10752
  139.8836  134.9416  156.5898 H   0  0  0  0  0  0  0  0  0  0  0  0  # atno 11005 bound_to 11000
  144.8438  139.5429  143.6888 LP  0  0  0  0  0  0  0  0  0  0  0  0  # atno 17320 bound_to 7965
  146.2796  139.6843  142.9238 LP  0  0  0  0  0  0  0  0  0  0  0  0  # atno 17321 bound_to 7965
  140.6677  143.8363  150.6961 LP  0  0  0  0  0  0  0  0  0  0  0  0  # atno 17342 bound_to 10162
  140.1777  143.4141  152.1955 LP  0  0  0  0  0  0  0  0  0  0  0  0  # atno 17343 bound_to 10162
  157.7447  130.9942  150.2699 LP  0  0  0  0  0  0  0  0  0  0  0  0  # atno 17370 bound_to 10713
  156.3219  130.3787  149.7567 LP  0  0  0  0  0  0  0  0  0  0  0  0  # atno 17371 bound_to 10713
  140.7964  133.8541  155.8689 LP  0  0  0  0  0  0  0  0  0  0  0  0  # atno 17394 bound_to 11000
  140.9632  134.1629  157.4637 LP  0  0  0  0  0  0  0  0  0  0  0  0  # atno 17395 bound_to 11000

$$$$
