AV-unprocessed.smi:175|AV-procd|sdf|1429|dock10
  -GOLD-   2262019203D 1   1.00000     0.00000
 Structure written by MMmdl.
 47 50  0  0  0  0  0  0  0  0  1 V2000
  153.2941  128.0447  157.5852 C   0  0  0  0  0  0  0  0  0  0  0  0
  153.4898  127.8999  156.0679 C   0  0  2  0  0  0  0  0  0  0  0  0
  154.6852  128.5960  155.7222 O   0  0  0  0  0  0  0  0  0  0  0  0
  154.5516  129.1257  154.4151 C   0  0  0  0  0  0  0  0  0  0  0  0
  153.1057  129.5965  154.3970 C   0  0  0  0  0  0  0  0  0  0  0  0
  152.3765  128.4935  155.1589 C   0  0  1  0  0  0  0  0  0  0  0  0
  152.0065  127.4926  154.2247 O   0  0  0  0  0  0  0  0  0  0  0  0
  151.0868  128.9772  155.8724 C   0  0  0  0  0  0  0  0  0  0  0  0
  150.1173  129.5786  154.9688 N   0  0  0  0  0  0  0  0  0  0  0  0
  150.1336  130.8650  154.4820 C   0  0  0  0  0  0  0  0  0  0  0  0
  149.1479  131.1684  153.6831 N   0  0  0  0  0  0  0  0  0  0  0  0
  148.3938  130.0022  153.6032 C   0  0  0  0  0  0  0  0  0  0  0  0
  147.2006  129.6240  152.9178 C   0  0  0  0  0  0  0  0  0  0  0  0
  146.4829  130.4410  152.1039 N   0  0  0  0  0  0  0  0  0  0  0  0
  145.2008  130.0843  151.5142 C   0  0  0  0  0  0  0  0  0  0  0  0
  144.8113  131.3835  150.8326 C   0  0  0  0  0  0  0  0  0  0  0  0
  143.7798  131.5138  150.1756 O   0  0  0  0  0  0  0  0  0  0  0  0
  145.7384  132.3229  151.0506 N   0  0  0  0  0  0  0  0  0  0  0  0
  145.7248  133.6976  150.5549 C   0  0  0  0  0  0  0  0  0  0  0  0
  145.3630  134.7143  151.6527 C   0  0  0  0  0  0  0  0  0  0  0  0
  144.1480  134.4324  152.1209 F   0  0  0  0  0  0  0  0  0  0  0  0
  146.2281  134.6601  152.6648 F   0  0  0  0  0  0  0  0  0  0  0  0
  145.3492  135.9504  151.1539 F   0  0  0  0  0  0  0  0  0  0  0  0
  146.8501  131.8287  151.8457 C   0  0  0  0  0  0  0  0  0  0  0  0
  146.7561  128.3524  153.1010 N   0  0  0  0  0  0  0  0  0  0  0  0
  147.4246  127.5043  153.8868 C   0  0  0  0  0  0  0  0  0  0  0  0
  148.5445  127.7166  154.5782 N   0  0  0  0  0  0  0  0  0  0  0  0
  148.9963  128.9916  154.4079 C   0  0  0  0  0  0  0  0  0  0  0  0
  152.3977  127.5246  157.9237 H   0  0  0  0  0  0  0  0  0  0  0  0
  153.2154  129.0912  157.8809 H   0  0  0  0  0  0  0  0  0  0  0  0
  154.1402  127.6172  158.1233 H   0  0  0  0  0  0  0  0  0  0  0  0
  153.6438  126.8431  155.8411 H   0  0  0  0  0  0  0  0  0  0  0  0
  155.2611  129.9328  154.2324 H   0  0  0  0  0  0  0  0  0  0  0  0
  154.7208  128.3396  153.6774 H   0  0  0  0  0  0  0  0  0  0  0  0
  153.0406  130.5375  154.9444 H   0  0  0  0  0  0  0  0  0  0  0  0
  152.7203  129.7692  153.3910 H   0  0  0  0  0  0  0  0  0  0  0  0
  152.0668  127.8584  153.3554 H   0  0  0  0  0  0  0  0  0  0  0  0
  150.6013  128.1461  156.3859 H   0  0  0  0  0  0  0  0  0  0  0  0
  151.3262  129.7151  156.6382 H   0  0  0  0  0  0  0  0  0  0  0  0
  150.9024  131.5774  154.7445 H   0  0  0  0  0  0  0  0  0  0  0  0
  145.3021  129.2791  150.7857 H   0  0  0  0  0  0  0  0  0  0  0  0
  144.4658  129.8147  152.2736 H   0  0  0  0  0  0  0  0  0  0  0  0
  146.7074  133.9356  150.1459 H   0  0  0  0  0  0  0  0  0  0  0  0
  145.0227  133.7786  149.7236 H   0  0  0  0  0  0  0  0  0  0  0  0
  146.9413  132.3967  152.7727 H   0  0  0  0  0  0  0  0  0  0  0  0
  147.7859  131.8902  151.2882 H   0  0  0  0  0  0  0  0  0  0  0  0
  147.0014  126.5146  153.9737 H   0  0  0  0  0  0  0  0  0  0  0  0
  1  2  1  0  0  0  0
  1 29  1  0  0  0  0
  1 30  1  0  0  0  0
  1 31  1  0  0  0  0
  2  6  1  0  0  0  0
  2  3  1  0  0  0  0
  2 32  1  0  0  0  0
  3  4  1  0  0  0  0
  4  5  1  0  0  0  0
  4 33  1  0  0  0  0
  4 34  1  0  0  0  0
  5  6  1  0  0  0  0
  5 35  1  0  0  0  0
  5 36  1  0  0  0  0
  6  7  1  0  0  0  0
  6  8  1  0  0  0  0
  7 37  1  0  0  0  0
  8  9  1  0  0  0  0
  8 38  1  0  0  0  0
  8 39  1  0  0  0  0
  9 28  1  0  0  0  0
  9 10  1  0  0  0  0
 10 11  2  0  0  0  0
 10 40  1  0  0  0  0
 11 12  1  0  0  0  0
 12 28  2  0  0  0  0
 12 13  1  0  0  0  0
 13 14  1  0  0  0  0
 13 25  2  0  0  0  0
 14 24  1  0  0  0  0
 14 15  1  0  0  0  0
 15 16  1  0  0  0  0
 15 41  1  0  0  0  0
 15 42  1  0  0  0  0
 16 17  2  0  0  0  0
 16 18  1  0  0  0  0
 18 19  1  0  0  0  0
 18 24  1  0  0  0  0
 19 20  1  0  0  0  0
 19 43  1  0  0  0  0
 19 44  1  0  0  0  0
 20 21  1  0  0  0  0
 20 22  1  0  0  0  0
 20 23  1  0  0  0  0
 24 45  1  0  0  0  0
 24 46  1  0  0  0  0
 25 26  1  0  0  0  0
 26 27  2  0  0  0  0
 26 47  1  0  0  0  0
 27 28  1  0  0  0  0
M  END
> <s_m_source_file>
AV-unprocessed.smi

> <i_m_source_file_index>
175

> <i_lp_mmshare_version>
43012

> <i_f3d_flags>
0

> <s_epik_input>
W0NIMl0xW0NIMl1PW0NAQEhdKFtDSDNdKVtDQEBdMShbT0hdKVtDSDJdbihbY0hdbjIpYyhjMjMpbltjSF1uYzNONFtDSDJdQyg9TylOKFtDSDJdNClbQ0gyXUMoRikoRilG

> <s_epik_cmdline>
J2VwaWtfcHl0aG9uJywgJy1waCcsICc3LjAnLCAnLXRuJywgJzgnLCAnLW1hJywgJzIwMCcsICctbWV0YWxfYmluZGluZycsICctaW1hZScsICc8aW5maWxlLm1hZT4nLCAnLW9tYWUnLCAnPG91dGZpbGUubWFlPic=

> <r_lp_tautomer_probability>
1

> <r_epik_Ionization_Penalty>
0.000307802

> <r_epik_Ionization_Penalty_Charging>
0

> <r_epik_Ionization_Penalty_Neutral>
0.000307802

> <r_epik_State_Penalty>
-0

> <r_epik_Charging_Adjusted_Penalty>
0

> <i_epik_Tot_Q>
0

> <i_epik_Tot_abs_Q>
0

> <r_epik_Metal_State_Penalty>
-0

> <b_epik_Metal_Only>
0

> <s_epik_Chemistry_Notes>
This compound contains an acetal/aminal-like group ( X-CH(R)-Y where X, Y are N, S, or O) that may be acid/base labile, releasing an aldehyde.

> <s_lp_Force_Field>
OPLS_2005

> <r_lp_Energy>
32.9701

> <b_lp_Chiralities_Consistent>
1

> <s_lp_Variant>
AV-unprocessed.smi:175-1

> <Gold.Version>
5.8.1

> <Gold.Id.Protein>
6NUR|6NUR_protein|mol2

> <Gold.PLP.Fitness>
43.3571

> <Gold.PLP.PLP>
-38.9272

> <Gold.PLP.part.hbond>
-1.9725

> <Gold.PLP.part.metal>
0.0000

> <Gold.PLP.part.buried>
-2.7371

> <Gold.PLP.part.nonpolar>
-33.9841

> <Gold.PLP.part.repulsive>
0.3540

> <Gold.PLP.ligand.clash>
0.0000

> <Gold.PLP.ligand.torsion>
0.5171

> <Gold.PLP.Chemscore.Hbond>
1.7800

> <Gold.PLP.Chemscore.CHOScore>
0.0000

> <Gold.PLP.Chemscore.Metal>
0.0000

> <Gold.Chemscore.Hbonds>
donor molecule, donor type, donor heavy atom, donor atom, acceptor molecule, acceptor atom, score
      L1  H     7    37       P1 10737  1.00
      P1  H 10785 10796       L1    17  0.74

> <Gold.PLP.Chemscore.Internal.Correction>
0.1242

> <Gold.Rescore>
     Score         DG    S(hbond)    S(metal)    S(lipo)     H(rot)  DE(clash)    DE(int)     intcor
      8.87     -10.90       1.82        0.00      49.76       2.54       0.42       1.62       ----

> <Gold.Chemscore.Fitness>
8.8667

> <Gold.Chemscore.DG>
-10.9005

> <Gold.Chemscore.ZeroCoef>
-5.4800

> <Gold.Chemscore.Hbond>
1.8246

> <Gold.Chemscore.Metal>
0.0000

> <Gold.Chemscore.Lipo>
49.7634

> <Gold.Chemscore.Internal_Hbond>
0.0000

> <Gold.Chemscore.DEClash>
0.4160

> <Gold.Chemscore.DEInternal>
1.6179

> <Gold.Chemscore.Rot>
2.5375

> <Gold.Chemscore.Internal.Correction>
   9.000000E+99

> <Gold.Chemscore.Hbonds>
donor molecule, donor type, donor heavy atom, donor atom, acceptor molecule, acceptor atom, score
      L1  H     7    37       P1 10737  0.95
      P1  H 10785 10796       L1    17  0.70

> <Gold.Chemscore.Hbond.Weighted>
-6.0943

> <Gold.Chemscore.Metal.Weighted>
-0.0000

> <Gold.Chemscore.Lipo.Weighted>
-5.8223

> <Gold.Chemscore.Internal_Hbond.Weighted>
0.0000

> <Gold.Chemscore.DEClash.Weighted>
0.4160

> <Gold.Chemscore.DEInternal.Weighted>
1.6179

> <Gold.Chemscore.Rot.Weighted>
6.4961

> <Gold.Chemscore.Internal.Correction.Weighted>
   9.000000E+99

> <Gold.Protein.RotatedTorsions>
[ 6907 6896 6895 6894 ] final   85.60 input  -60.11 | X-H torsion
[ 7974 7965 7964 7962 ] final   41.74 input  175.53 | X-H torsion
[ 8008 7997 7996 7995 ] final  -70.96 input   59.86 | X-H torsion
[ 10167 10162 10161 10158 ] final -174.16 input  -65.29 | X-H torsion
[ 10718 10713 10712 10709 ] final  161.07 input   66.30 | X-H torsion
[ 10763 10752 10751 10750 ] final -102.28 input  -60.55 | X-H torsion
[ 11005 11000 10999 10996 ] final -111.11 input  -57.11 | X-H torsion

> <Gold.Protein.ActiveResidues>
 VAL166  LYS551  ARG553  GLY616  TRP617  ASP618  TYR619  PRO620  LYS621  CYS622 
 ASP623  PHE694  ASN695  SER759  ASP760  ASP761  ALA762  ILE779  LEU786  VAL792 
 PHE793  MET794  SER795  GLU796  ALA797  LYS798  CYS799  TRP800  GLU811  SER814 

> <Gold.Protein.RotatedAtoms>
  152.5378  134.2561  159.8917 H   0  0  0  0  0  0  0  0  0  0  0  0  # atno 6907 bound_to 6896
  151.2522  133.4337  159.2619 H   0  0  0  0  0  0  0  0  0  0  0  0  # atno 6908 bound_to 6896
  151.0528  134.9699  159.8277 H   0  0  0  0  0  0  0  0  0  0  0  0  # atno 6909 bound_to 6896
  146.0798  139.5381  142.9544 H   0  0  0  0  0  0  0  0  0  0  0  0  # atno 7974 bound_to 7965
  154.5051  140.0824  156.7878 H   0  0  0  0  0  0  0  0  0  0  0  0  # atno 8008 bound_to 7997
  155.3912  140.3432  155.4233 H   0  0  0  0  0  0  0  0  0  0  0  0  # atno 8009 bound_to 7997
  156.1505  140.1557  156.8764 H   0  0  0  0  0  0  0  0  0  0  0  0  # atno 8010 bound_to 7997
  139.5649  144.1780  152.1296 H   0  0  0  0  0  0  0  0  0  0  0  0  # atno 10167 bound_to 10162
  157.1416  131.0542  151.2324 H   0  0  0  0  0  0  0  0  0  0  0  0  # atno 10718 bound_to 10713
  154.7721  135.4866  153.9671 H   0  0  0  0  0  0  0  0  0  0  0  0  # atno 10763 bound_to 10752
  153.1382  135.6767  153.9077 H   0  0  0  0  0  0  0  0  0  0  0  0  # atno 10764 bound_to 10752
  153.8760  135.3138  155.3422 H   0  0  0  0  0  0  0  0  0  0  0  0  # atno 10765 bound_to 10752
  141.0753  133.9311  157.2402 H   0  0  0  0  0  0  0  0  0  0  0  0  # atno 11005 bound_to 11000
  145.6238  141.0317  143.1900 LP  0  0  0  0  0  0  0  0  0  0  0  0  # atno 17320 bound_to 7965
  144.7286  139.7797  143.7355 LP  0  0  0  0  0  0  0  0  0  0  0  0  # atno 17321 bound_to 7965
  140.1301  144.5296  150.6808 LP  0  0  0  0  0  0  0  0  0  0  0  0  # atno 17342 bound_to 10162
  140.6932  143.2388  151.5074 LP  0  0  0  0  0  0  0  0  0  0  0  0  # atno 17343 bound_to 10162
  157.4302  130.7486  149.6984 LP  0  0  0  0  0  0  0  0  0  0  0  0  # atno 17370 bound_to 10713
  155.9787  130.4048  150.3629 LP  0  0  0  0  0  0  0  0  0  0  0  0  # atno 17371 bound_to 10713
  139.9565  135.0164  156.9143 LP  0  0  0  0  0  0  0  0  0  0  0  0  # atno 17394 bound_to 11000
  140.5586  134.0557  155.7391 LP  0  0  0  0  0  0  0  0  0  0  0  0  # atno 17395 bound_to 11000

$$$$
