AV-unprocessed.smi:1326|AV-procd|sdf|5474|dock5
  -GOLD-   22720 5 43D 1   1.00000     0.00000
 Structure written by MMmdl.
 39 39  0  0  0  0  0  0  0  0  1 V2000
  147.1697  141.6045  152.8601 C   0  0  0  0  0  0  0  0  0  0  0  0
  147.8430  141.1250  154.1288 C   0  0  0  0  0  0  0  0  0  0  0  0
  147.3392  141.2663  155.3106 N   0  0  0  0  0  0  0  0  0  0  0  0
  148.0576  140.7830  156.4131 C   0  0  0  0  0  0  0  0  0  0  0  0
  147.3914  140.9843  157.7638 C   0  0  0  0  0  0  0  0  0  0  0  0
  149.2696  140.1706  156.2640 C   0  0  0  0  0  0  0  0  0  0  0  0
  150.0941  139.6391  157.4368 C   0  0  0  0  0  0  0  0  0  0  0  0
  151.4586  140.2988  157.6592 C   0  0  0  0  0  0  0  0  0  0  0  0
  152.3456  140.1691  156.8162 O   0  0  0  0  0  0  0  0  0  0  0  0
  151.6231  140.9928  158.7949 N   0  0  0  0  0  0  0  0  0  0  0  0
  152.8483  141.6799  159.1759 C   0  0  0  0  0  0  0  0  0  0  0  0
  152.5205  142.9856  159.9182 C   0  0  0  0  0  0  0  0  0  0  0  0
  152.5406  144.2418  159.0233 C   0  0  0  0  0  0  0  0  0  0  0  0
  151.9790  145.4831  159.7374 C   0  0  0  0  0  0  0  0  0  0  0  0
  151.7771  143.9881  157.7144 C   0  0  0  0  0  0  0  0  0  0  0  0
  149.8345  140.0142  154.9097 C   0  0  0  0  0  0  0  0  0  0  0  0
  150.9163  139.4833  154.6642 O   0  0  0  0  0  0  0  0  0  0  0  0
  149.0732  140.5087  153.9083 N   0  0  0  0  0  0  0  0  0  0  0  0
  149.4173  140.4254  152.9627 H   0  0  0  0  0  0  0  0  0  0  0  0
  147.7725  141.3878  151.9771 H   0  0  0  0  0  0  0  0  0  0  0  0
  147.0071  142.6818  152.9059 H   0  0  0  0  0  0  0  0  0  0  0  0
  146.2024  141.1159  152.7414 H   0  0  0  0  0  0  0  0  0  0  0  0
  147.1397  140.0222  158.2103 H   0  0  0  0  0  0  0  0  0  0  0  0
  146.4691  141.5589  157.6688 H   0  0  0  0  0  0  0  0  0  0  0  0
  148.0470  141.5228  158.4472 H   0  0  0  0  0  0  0  0  0  0  0  0
  149.5281  139.7409  158.3621 H   0  0  0  0  0  0  0  0  0  0  0  0
  150.2356  138.5635  157.3195 H   0  0  0  0  0  0  0  0  0  0  0  0
  150.8458  141.0488  159.4371 H   0  0  0  0  0  0  0  0  0  0  0  0
  153.4446  141.0192  159.8060 H   0  0  0  0  0  0  0  0  0  0  0  0
  153.4335  141.8914  158.2798 H   0  0  0  0  0  0  0  0  0  0  0  0
  151.5290  142.8864  160.3627 H   0  0  0  0  0  0  0  0  0  0  0  0
  153.2116  143.1182  160.7521 H   0  0  0  0  0  0  0  0  0  0  0  0
  153.5777  144.4494  158.7563 H   0  0  0  0  0  0  0  0  0  0  0  0
  150.9547  145.3182  160.0734 H   0  0  0  0  0  0  0  0  0  0  0  0
  151.9737  146.3474  159.0725 H   0  0  0  0  0  0  0  0  0  0  0  0
  152.5772  145.7537  160.6071 H   0  0  0  0  0  0  0  0  0  0  0  0
  150.7262  143.7676  157.9052 H   0  0  0  0  0  0  0  0  0  0  0  0
  152.2001  143.1451  157.1672 H   0  0  0  0  0  0  0  0  0  0  0  0
  151.8206  144.8576  157.0578 H   0  0  0  0  0  0  0  0  0  0  0  0
  1  2  1  0  0  0  0
  1 20  1  0  0  0  0
  1 21  1  0  0  0  0
  1 22  1  0  0  0  0
  2 18  1  0  0  0  0
  2  3  2  0  0  0  0
  3  4  1  0  0  0  0
  4  5  1  0  0  0  0
  4  6  2  0  0  0  0
  5 23  1  0  0  0  0
  5 24  1  0  0  0  0
  5 25  1  0  0  0  0
  6  7  1  0  0  0  0
  6 16  1  0  0  0  0
  7  8  1  0  0  0  0
  7 26  1  0  0  0  0
  7 27  1  0  0  0  0
  8  9  2  0  0  0  0
  8 10  1  0  0  0  0
 10 11  1  0  0  0  0
 10 28  1  0  0  0  0
 11 12  1  0  0  0  0
 11 29  1  0  0  0  0
 11 30  1  0  0  0  0
 12 13  1  0  0  0  0
 12 31  1  0  0  0  0
 12 32  1  0  0  0  0
 13 14  1  0  0  0  0
 13 15  1  0  0  0  0
 13 33  1  0  0  0  0
 14 34  1  0  0  0  0
 14 35  1  0  0  0  0
 14 36  1  0  0  0  0
 15 37  1  0  0  0  0
 15 38  1  0  0  0  0
 15 39  1  0  0  0  0
 16 17  2  0  0  0  0
 16 18  1  0  0  0  0
 18 19  1  0  0  0  0
M  END
> <s_m_source_file>
AV-unprocessed.smi

> <i_m_source_file_index>
1326

> <i_lp_mmshare_version>
43012

> <i_f3d_flags>
0

> <s_epik_input>
W0NIM11jMW5jKFtDSDNdKWMoYyg9TylbbkhdMSlbQ0gyXUMoPU8pW05IXVtDSDJdW0NIMl1bQ0hdKFtDSDNdKVtDSDNd

> <s_epik_cmdline>
J2VwaWtfcHl0aG9uJywgJy1waCcsICc3LjAnLCAnLXRuJywgJzgnLCAnLW1hJywgJzIwMCcsICctbWV0YWxfYmluZGluZycsICctaW1hZScsICc8aW5maWxlLm1hZT4nLCAnLW9tYWUnLCAnPG91dGZpbGUubWFlPic=

> <r_lp_tautomer_probability>
0.839158

> <r_epik_Ionization_Penalty>
0.000369141

> <r_epik_Ionization_Penalty_Charging>
0.00033405

> <r_epik_Ionization_Penalty_Neutral>
3.5091e-05

> <r_epik_State_Penalty>
0.09125

> <r_epik_Charging_Adjusted_Penalty>
0.0915841

> <i_epik_Tot_Q>
0

> <i_epik_Tot_abs_Q>
0

> <r_epik_Metal_State_Penalty>
0.250923

> <b_epik_Metal_Only>
0

> <s_lp_Force_Field>
OPLS_2005

> <r_lp_Energy>
6.99246

> <b_lp_Chiralities_Consistent>
1

> <s_lp_Variant>
AV-unprocessed.smi:1326-1

> <Gold.Version>
5.8.1

> <Gold.Id.Protein>
6NUR|6NUR_protein|mol2

> <Gold.PLP.Fitness>
41.7029

> <Gold.PLP.PLP>
-33.7580

> <Gold.PLP.part.hbond>
-3.0000

> <Gold.PLP.part.metal>
0.0000

> <Gold.PLP.part.buried>
-4.9375

> <Gold.PLP.part.nonpolar>
-26.0725

> <Gold.PLP.part.repulsive>
0.4907

> <Gold.PLP.ligand.clash>
0.0000

> <Gold.PLP.ligand.torsion>
0.5339

> <Gold.PLP.Chemscore.Hbond>
3.0000

> <Gold.PLP.Chemscore.CHOScore>
0.0000

> <Gold.PLP.Chemscore.Metal>
0.0000

> <Gold.Chemscore.Hbonds>
donor molecule, donor type, donor heavy atom, donor atom, acceptor molecule, acceptor atom, score
      L1  H    18    19       P1  7957  1.00
      P1  H  7989  7998       L1    17  0.90
      P1  H  7997  8010       L1     9  1.00

> <Gold.PLP.Chemscore.Internal.Correction>
0.0128

> <Gold.Rescore>
     Score         DG    S(hbond)    S(metal)    S(lipo)     H(rot)  DE(clash)    DE(int)     intcor
     15.39     -19.09       2.74        0.00      79.43       1.89       1.71       1.99       ----

> <Gold.Chemscore.Fitness>
15.3860

> <Gold.Chemscore.DG>
-19.0872

> <Gold.Chemscore.ZeroCoef>
-5.4800

> <Gold.Chemscore.Hbond>
2.7413

> <Gold.Chemscore.Metal>
0.0000

> <Gold.Chemscore.Lipo>
79.4335

> <Gold.Chemscore.Internal_Hbond>
0.0000

> <Gold.Chemscore.DEClash>
1.7101

> <Gold.Chemscore.DEInternal>
1.9911

> <Gold.Chemscore.Rot>
1.8916

> <Gold.Chemscore.Internal.Correction>
   9.000000E+99

> <Gold.Chemscore.Hbonds>
donor molecule, donor type, donor heavy atom, donor atom, acceptor molecule, acceptor atom, score
      L1  H    18    19       P1  7957  1.00
      P1  H  7989  7998       L1    17  0.18
      P1  H  7997  8010       L1     9  0.93

> <Gold.Chemscore.Hbond.Weighted>
-9.1559

> <Gold.Chemscore.Metal.Weighted>
-0.0000

> <Gold.Chemscore.Lipo.Weighted>
-9.2937

> <Gold.Chemscore.Internal_Hbond.Weighted>
0.0000

> <Gold.Chemscore.DEClash.Weighted>
1.7101

> <Gold.Chemscore.DEInternal.Weighted>
1.9911

> <Gold.Chemscore.Rot.Weighted>
4.8424

> <Gold.Chemscore.Internal.Correction.Weighted>
   9.000000E+99

> <Gold.Protein.RotatedTorsions>
[ 6907 6896 6895 6894 ] final -106.74 input  -60.11 | X-H torsion
[ 7974 7965 7964 7962 ] final  -74.59 input  175.53 | X-H torsion
[ 8008 7997 7996 7995 ] final   68.90 input   59.86 | X-H torsion
[ 10167 10162 10161 10158 ] final   10.05 input  -65.29 | X-H torsion
[ 10718 10713 10712 10709 ] final   19.94 input   66.30 | X-H torsion
[ 10763 10752 10751 10750 ] final  100.08 input  -60.55 | X-H torsion
[ 11005 11000 10999 10996 ] final -140.86 input  -57.11 | X-H torsion

> <Gold.Protein.ActiveResidues>
 VAL166  LYS551  ARG553  GLY616  TRP617  ASP618  TYR619  PRO620  LYS621  CYS622 
 ASP623  PHE694  ASN695  SER759  ASP760  ASP761  ALA762  ILE779  LEU786  VAL792 
 PHE793  MET794  SER795  GLU796  ALA797  LYS798  CYS799  TRP800  GLU811  SER814 

> <Gold.Protein.RotatedAtoms>
  150.7406  133.9931  159.3613 H   0  0  0  0  0  0  0  0  0  0  0  0  # atno 6907 bound_to 6896
  151.7880  135.0741  160.0392 H   0  0  0  0  0  0  0  0  0  0  0  0  # atno 6908 bound_to 6896
  152.3228  133.5835  159.5792 H   0  0  0  0  0  0  0  0  0  0  0  0  # atno 6909 bound_to 6896
  145.6371  140.9321  143.1056 H   0  0  0  0  0  0  0  0  0  0  0  0  # atno 7974 bound_to 7965
  155.7153  140.3494  155.4992 H   0  0  0  0  0  0  0  0  0  0  0  0  # atno 8008 bound_to 7997
  155.9318  140.1085  157.1148 H   0  0  0  0  0  0  0  0  0  0  0  0  # atno 8009 bound_to 7997
  154.4087  140.1229  156.4800 H   0  0  0  0  0  0  0  0  0  0  0  0  # atno 8010 bound_to 7997
  140.6218  143.8188  150.7184 H   0  0  0  0  0  0  0  0  0  0  0  0  # atno 10167 bound_to 10162
  157.1175  130.6535  149.5914 H   0  0  0  0  0  0  0  0  0  0  0  0  # atno 10718 bound_to 10713
  153.3094  135.4091  155.1323 H   0  0  0  0  0  0  0  0  0  0  0  0  # atno 10763 bound_to 10752
  154.8572  135.3561  154.5744 H   0  0  0  0  0  0  0  0  0  0  0  0  # atno 10764 bound_to 10752
  153.6172  135.7066  153.5383 H   0  0  0  0  0  0  0  0  0  0  0  0  # atno 10765 bound_to 10752
  140.8381  134.2435  157.4824 H   0  0  0  0  0  0  0  0  0  0  0  0  # atno 11005 bound_to 11000
  144.7171  139.8157  143.7395 LP  0  0  0  0  0  0  0  0  0  0  0  0  # atno 17320 bound_to 7965
  146.1311  139.4346  143.0168 LP  0  0  0  0  0  0  0  0  0  0  0  0  # atno 17321 bound_to 7965
  140.1780  143.4138  152.1953 LP  0  0  0  0  0  0  0  0  0  0  0  0  # atno 17342 bound_to 10162
  139.5445  144.7286  151.4627 LP  0  0  0  0  0  0  0  0  0  0  0  0  # atno 17343 bound_to 10162
  155.9836  130.4856  150.6941 LP  0  0  0  0  0  0  0  0  0  0  0  0  # atno 17370 bound_to 10713
  157.4505  131.0872  151.0850 LP  0  0  0  0  0  0  0  0  0  0  0  0  # atno 17371 bound_to 10713
  139.8703  134.9621  156.4419 LP  0  0  0  0  0  0  0  0  0  0  0  0  # atno 17394 bound_to 11000
  140.8925  133.7838  155.9588 LP  0  0  0  0  0  0  0  0  0  0  0  0  # atno 17395 bound_to 11000

$$$$
