AV-unprocessed.smi:2568|AV-procd|sdf|10092|dock6
  -GOLD-   2272014113D 1   1.00000     0.00000
 Structure written by MMmdl.
 25 26  0  0  0  0  0  0  0  0  2 V2000
  145.9567  133.3461  155.9865 C   0  0  0  0  0  0  0  0  0  0  0  0
  146.2642  133.6827  154.5674 C   0  0  0  0  0  0  0  0  0  0  0  0
  147.3418  134.3945  154.2415 N   0  0  0  0  0  0  0  0  0  0  0  0
  147.2381  134.4615  152.8975 N   0  0  0  0  0  0  0  0  0  0  0  0
  146.1434  133.8055  152.5050 C   0  0  0  0  0  0  0  0  0  0  0  0
  145.7450  133.7085  151.0661 C   0  0  2  0  0  0  0  0  0  0  0  0
  144.3491  134.3051  150.8007 C   0  0  0  0  0  0  0  0  0  0  0  0
  143.9695  134.0916  149.3905 N   0  3  0  0  0  0  0  0  0  0  0  0
  144.0505  132.6648  149.0192 C   0  0  0  0  0  0  0  0  0  0  0  0
  145.4487  132.1105  149.3445 C   0  0  0  0  0  0  0  0  0  0  0  0
  145.7427  132.3253  150.7213 O   0  0  0  0  0  0  0  0  0  0  0  0
  145.4710  133.2851  153.5276 N   0  0  0  0  0  0  0  0  0  0  0  0
  147.9108  134.9424  152.3174 H   0  0  0  0  0  0  0  0  0  0  0  0
  146.6086  133.8947  156.6673 H   0  0  0  0  0  0  0  0  0  0  0  0
  146.0975  132.2788  156.1582 H   0  0  0  0  0  0  0  0  0  0  0  0
  144.9228  133.6016  156.2201 H   0  0  0  0  0  0  0  0  0  0  0  0
  146.4943  134.2264  150.4640 H   0  0  0  0  0  0  0  0  0  0  0  0
  143.6037  133.8341  151.4432 H   0  0  0  0  0  0  0  0  0  0  0  0
  144.3369  135.3727  151.0218 H   0  0  0  0  0  0  0  0  0  0  0  0
  143.0274  134.4246  149.2422 H   0  0  0  0  0  0  0  0  0  0  0  0
  143.2884  132.1084  149.5666 H   0  0  0  0  0  0  0  0  0  0  0  0
  143.8296  132.5533  147.9575 H   0  0  0  0  0  0  0  0  0  0  0  0
  145.4866  131.0409  149.1373 H   0  0  0  0  0  0  0  0  0  0  0  0
  146.2097  132.5827  148.7212 H   0  0  0  0  0  0  0  0  0  0  0  0
  144.6006  134.6158  148.8013 H   0  0  0  0  0  0  0  0  0  0  0  0
  1  2  1  0  0  0  0
  1 14  1  0  0  0  0
  1 15  1  0  0  0  0
  1 16  1  0  0  0  0
  2 12  1  0  0  0  0
  2  3  2  0  0  0  0
  3  4  1  0  0  0  0
  4 13  1  0  0  0  0
  4  5  1  0  0  0  0
  5  6  1  0  0  0  0
  5 12  2  0  0  0  0
  6 11  1  0  0  0  0
  6  7  1  0  0  0  0
  6 17  1  0  0  0  0
  7  8  1  0  0  0  0
  7 18  1  0  0  0  0
  7 19  1  0  0  0  0
  8  9  1  0  0  0  0
  8 20  1  0  0  0  0
  8 25  1  0  0  0  0
  9 10  1  0  0  0  0
  9 21  1  0  0  0  0
  9 22  1  0  0  0  0
 10 11  1  0  0  0  0
 10 23  1  0  0  0  0
 10 24  1  0  0  0  0
M  CHG  1   8   1
M  END
> <s_m_source_file>
AV-unprocessed.smi

> <i_m_source_file_index>
2568

> <i_lp_mmshare_version>
43012

> <i_f3d_flags>
0

> <s_epik_input>
W0NIM11jMW5bbkhdYyhuMSlbQ0BASF0yW0NIMl1bTkhdW0NIMl1bQ0gyXU8y

> <s_epik_cmdline>
J2VwaWtfcHl0aG9uJywgJy1waCcsICc3LjAnLCAnLXRuJywgJzgnLCAnLW1hJywgJzIwMCcsICctbWV0YWxfYmluZGluZycsICctaW1hZScsICc8aW5maWxlLm1hZT4nLCAnLW9tYWUnLCAnPG91dGZpbGUubWFlPic=

> <r_epik_Ionization_Penalty>
0.166663

> <r_epik_Ionization_Penalty_Charging>
0.125708

> <r_epik_Ionization_Penalty_Neutral>
0.0409555

> <r_epik_State_Penalty>
1.3004

> <r_epik_Charging_Adjusted_Penalty>
1.42611

> <i_epik_Tot_Q>
1

> <i_epik_Tot_abs_Q>
1

> <r_epik_Metal_State_Penalty>
1.60166

> <b_epik_Metal_Only>
0

> <s_lp_Force_Field>
OPLS_2005

> <r_lp_Energy>
12.4533

> <b_lp_Chiralities_Consistent>
1

> <s_lp_Variant>
AV-unprocessed.smi:2568-5

> <Gold.Version>
5.8.1

> <Gold.Id.Protein>
6NUR|6NUR_protein|mol2

> <Gold.PLP.Fitness>
30.8576

> <Gold.PLP.PLP>
-18.8647

> <Gold.PLP.part.hbond>
-3.0000

> <Gold.PLP.part.metal>
0.0000

> <Gold.PLP.part.buried>
-4.0012

> <Gold.PLP.part.nonpolar>
-12.2758

> <Gold.PLP.part.repulsive>
0.4271

> <Gold.PLP.ligand.clash>
0.0000

> <Gold.PLP.ligand.torsion>
0.0040

> <Gold.PLP.Chemscore.Hbond>
4.0000

> <Gold.PLP.Chemscore.CHOScore>
0.0000

> <Gold.PLP.Chemscore.Metal>
0.0000

> <Gold.Chemscore.Hbonds>
donor molecule, donor type, donor heavy atom, donor atom, acceptor molecule, acceptor atom, score
      L1  H     4    13       P1  7948  1.00
      L1  H     8    20       P1 10186  1.98
      L1  H     8    25       P1  7921  1.00

> <Gold.PLP.Chemscore.Internal.Correction>
0.0010

> <Gold.Rescore>
     Score         DG    S(hbond)    S(metal)    S(lipo)     H(rot)  DE(clash)    DE(int)     intcor
     17.21     -17.26       2.88        0.00      40.26       1.00       0.04       0.01       ----

> <Gold.Chemscore.Fitness>
17.2108

> <Gold.Chemscore.DG>
-17.2560

> <Gold.Chemscore.ZeroCoef>
-5.4800

> <Gold.Chemscore.Hbond>
2.8819

> <Gold.Chemscore.Metal>
0.0000

> <Gold.Chemscore.Lipo>
40.2613

> <Gold.Chemscore.Internal_Hbond>
0.0000

> <Gold.Chemscore.DEClash>
0.0359

> <Gold.Chemscore.DEInternal>
0.0094

> <Gold.Chemscore.Rot>
1.0000

> <Gold.Chemscore.Internal.Correction>
   9.000000E+99

> <Gold.Chemscore.Hbonds>
donor molecule, donor type, donor heavy atom, donor atom, acceptor molecule, acceptor atom, score
      L1  H     4    13       P1  7948  0.78
      L1  H     8    20       P1 10186  0.90
      L1  H     8    25       P1  7921  0.97

> <Gold.Chemscore.Hbond.Weighted>
-9.6255

> <Gold.Chemscore.Metal.Weighted>
-0.0000

> <Gold.Chemscore.Lipo.Weighted>
-4.7106

> <Gold.Chemscore.Internal_Hbond.Weighted>
0.0000

> <Gold.Chemscore.DEClash.Weighted>
0.0359

> <Gold.Chemscore.DEInternal.Weighted>
0.0094

> <Gold.Chemscore.Rot.Weighted>
2.5600

> <Gold.Chemscore.Internal.Correction.Weighted>
   9.000000E+99

> <Gold.Protein.RotatedTorsions>
[ 6907 6896 6895 6894 ] final  -40.54 input  -60.11 | X-H torsion
[ 7974 7965 7964 7962 ] final  105.03 input  175.53 | X-H torsion
[ 8008 7997 7996 7995 ] final   -0.82 input   59.86 | X-H torsion
[ 10167 10162 10161 10158 ] final   42.03 input  -65.29 | X-H torsion
[ 10718 10713 10712 10709 ] final  144.94 input   66.30 | X-H torsion
[ 10763 10752 10751 10750 ] final   24.39 input  -60.55 | X-H torsion
[ 11005 11000 10999 10996 ] final  116.54 input  -57.11 | X-H torsion

> <Gold.Protein.ActiveResidues>
 VAL166  LYS551  ARG553  GLY616  TRP617  ASP618  TYR619  PRO620  LYS621  CYS622 
 ASP623  PHE694  ASN695  SER759  ASP760  ASP761  ALA762  ILE779  LEU786  VAL792 
 PHE793  MET794  SER795  GLU796  ALA797  LYS798  CYS799  TRP800  GLU811  SER814 

> <Gold.Protein.RotatedAtoms>
  150.9773  134.9135  159.7822 H   0  0  0  0  0  0  0  0  0  0  0  0  # atno 6907 bound_to 6896
  152.5210  134.3459  159.9244 H   0  0  0  0  0  0  0  0  0  0  0  0  # atno 6908 bound_to 6896
  151.3467  133.3900  159.2711 H   0  0  0  0  0  0  0  0  0  0  0  0  # atno 6909 bound_to 6896
  145.3251  139.2502  143.3691 H   0  0  0  0  0  0  0  0  0  0  0  0  # atno 7974 bound_to 7965
  154.6537  140.2575  155.7185 H   0  0  0  0  0  0  0  0  0  0  0  0  # atno 8008 bound_to 7997
  156.2587  140.2862  156.0903 H   0  0  0  0  0  0  0  0  0  0  0  0  # atno 8009 bound_to 7997
  155.1412  140.0380  157.2789 H   0  0  0  0  0  0  0  0  0  0  0  0  # atno 8010 bound_to 7997
  140.3584  144.2260  150.6140 H   0  0  0  0  0  0  0  0  0  0  0  0  # atno 10167 bound_to 10162
  157.3513  131.0951  151.0998 H   0  0  0  0  0  0  0  0  0  0  0  0  # atno 10718 bound_to 10713
  153.0768  135.6606  154.0130 H   0  0  0  0  0  0  0  0  0  0  0  0  # atno 10763 bound_to 10752
  153.9762  135.2959  155.3425 H   0  0  0  0  0  0  0  0  0  0  0  0  # atno 10764 bound_to 10752
  154.7157  135.5186  153.8805 H   0  0  0  0  0  0  0  0  0  0  0  0  # atno 10765 bound_to 10752
  139.9044  134.9599  156.7213 H   0  0  0  0  0  0  0  0  0  0  0  0  # atno 11005 bound_to 11000
  146.3067  140.3816  142.8684 LP  0  0  0  0  0  0  0  0  0  0  0  0  # atno 17320 bound_to 7965
  144.8908  140.7522  143.5927 LP  0  0  0  0  0  0  0  0  0  0  0  0  # atno 17321 bound_to 7965
  140.5151  143.2280  151.8476 LP  0  0  0  0  0  0  0  0  0  0  0  0  # atno 17342 bound_to 10162
  139.4817  144.4904  151.9192 LP  0  0  0  0  0  0  0  0  0  0  0  0  # atno 17343 bound_to 10162
  157.2172  130.6465  149.5797 LP  0  0  0  0  0  0  0  0  0  0  0  0  # atno 17370 bound_to 10713
  155.9722  130.4641  150.6204 LP  0  0  0  0  0  0  0  0  0  0  0  0  # atno 17371 bound_to 10713
  140.6998  133.9316  155.8017 LP  0  0  0  0  0  0  0  0  0  0  0  0  # atno 17394 bound_to 11000
  141.0380  134.0662  157.3936 LP  0  0  0  0  0  0  0  0  0  0  0  0  # atno 17395 bound_to 11000

$$$$
