AV-unprocessed.smi:1665|AV-procd|sdf|6669|dock4
  -GOLD-   22720 7383D 1   1.00000     0.00000
 Structure written by MMmdl.
 37 38  0  0  0  0  0  0  0  0  1 V2000
  146.6230  143.0777  153.8806 C   0  0  0  0  0  0  0  0  0  0  0  0
  147.6130  141.9171  154.0673 C   0  0  2  0  0  0  0  0  0  0  0  0
  146.9087  140.6603  154.6131 C   0  0  0  0  0  0  0  0  0  0  0  0
  146.1417  139.9666  153.5931 N   0  0  0  0  0  0  0  0  0  0  0  0
  146.2804  140.0342  152.2229 C   0  0  0  0  0  0  0  0  0  0  0  0
  145.3380  139.2096  151.6788 C   0  0  0  0  0  0  0  0  0  0  0  0
  144.6627  138.6742  152.8112 C   0  0  0  0  0  0  0  0  0  0  0  0
  145.1480  139.1267  153.9554 N   0  0  0  0  0  0  0  0  0  0  0  0
  148.6940  142.3149  154.9663 N   0  0  0  0  0  0  0  0  0  0  0  0
  149.7785  141.5792  155.2507 C   0  0  0  0  0  0  0  0  0  0  0  0
  150.0191  140.4936  154.7224 O   0  0  0  0  0  0  0  0  0  0  0  0
  150.7311  142.1509  156.3052 C   0  0  0  0  0  0  0  0  0  0  0  0
  151.0262  141.1680  157.4593 C   0  0  0  0  0  0  0  0  0  0  0  0
  151.8793  141.7427  158.5026 N   0  0  0  0  0  0  0  0  0  0  0  0
  151.5480  143.0415  159.0725 C   0  0  0  0  0  0  0  0  0  0  0  0
  152.7758  143.5294  159.8429 C   0  0  0  0  0  0  0  0  0  0  0  0
  153.7166  142.0711  160.3355 S   0  0  0  0  0  0  0  0  0  0  0  0
  152.9403  141.0540  159.0747 C   0  0  0  0  0  0  0  0  0  0  0  0
  153.3353  139.9203  158.8092 O   0  0  0  0  0  0  0  0  0  0  0  0
  145.8236  142.8021  153.1925 H   0  0  0  0  0  0  0  0  0  0  0  0
  147.1164  143.9594  153.4706 H   0  0  0  0  0  0  0  0  0  0  0  0
  146.1635  143.3635  154.8275 H   0  0  0  0  0  0  0  0  0  0  0  0
  148.0362  141.6691  153.0918 H   0  0  0  0  0  0  0  0  0  0  0  0
  147.6343  139.9700  155.0471 H   0  0  0  0  0  0  0  0  0  0  0  0
  146.2236  140.9347  155.4162 H   0  0  0  0  0  0  0  0  0  0  0  0
  147.0300  140.6555  151.7556 H   0  0  0  0  0  0  0  0  0  0  0  0
  145.1595  139.0150  150.6317 H   0  0  0  0  0  0  0  0  0  0  0  0
  143.8444  137.9698  152.8355 H   0  0  0  0  0  0  0  0  0  0  0  0
  148.5789  143.1932  155.4517 H   0  0  0  0  0  0  0  0  0  0  0  0
  151.6646  142.4180  155.8090 H   0  0  0  0  0  0  0  0  0  0  0  0
  150.3243  143.0810  156.7046 H   0  0  0  0  0  0  0  0  0  0  0  0
  150.0895  140.8258  157.9021 H   0  0  0  0  0  0  0  0  0  0  0  0
  151.5077  140.2734  157.0618 H   0  0  0  0  0  0  0  0  0  0  0  0
  151.2554  143.7567  158.3031 H   0  0  0  0  0  0  0  0  0  0  0  0
  150.7012  142.9153  159.7482 H   0  0  0  0  0  0  0  0  0  0  0  0
  153.4083  144.1309  159.1894 H   0  0  0  0  0  0  0  0  0  0  0  0
  152.5093  144.1406  160.7053 H   0  0  0  0  0  0  0  0  0  0  0  0
  1  2  1  0  0  0  0
  1 20  1  0  0  0  0
  1 21  1  0  0  0  0
  1 22  1  0  0  0  0
  2  3  1  0  0  0  0
  2  9  1  0  0  0  0
  2 23  1  0  0  0  0
  3  4  1  0  0  0  0
  3 24  1  0  0  0  0
  3 25  1  0  0  0  0
  4  8  1  0  0  0  0
  4  5  1  0  0  0  0
  5  6  2  0  0  0  0
  5 26  1  0  0  0  0
  6  7  1  0  0  0  0
  6 27  1  0  0  0  0
  7  8  2  0  0  0  0
  7 28  1  0  0  0  0
  9 10  1  0  0  0  0
  9 29  1  0  0  0  0
 10 11  2  0  0  0  0
 10 12  1  0  0  0  0
 12 13  1  0  0  0  0
 12 30  1  0  0  0  0
 12 31  1  0  0  0  0
 13 14  1  0  0  0  0
 13 32  1  0  0  0  0
 13 33  1  0  0  0  0
 14 18  1  0  0  0  0
 14 15  1  0  0  0  0
 15 16  1  0  0  0  0
 15 34  1  0  0  0  0
 15 35  1  0  0  0  0
 16 17  1  0  0  0  0
 16 36  1  0  0  0  0
 16 37  1  0  0  0  0
 17 18  1  0  0  0  0
 18 19  2  0  0  0  0
M  END
> <s_m_source_file>
AV-unprocessed.smi

> <i_m_source_file_index>
1665

> <i_lp_mmshare_version>
43012

> <i_f3d_flags>
0

> <s_epik_input>
bjFbY0hdW2NIXVtjSF1uMVtDSDJdW0NAQEhdKFtDSDNdKVtOSF1DKD1PKVtDSDJdW0NIMl1OMltDSDJdW0NIMl1TQzI9Tw==

> <s_epik_cmdline>
J2VwaWtfcHl0aG9uJywgJy1waCcsICc3LjAnLCAnLXRuJywgJzgnLCAnLW1hJywgJzIwMCcsICctbWV0YWxfYmluZGluZycsICctaW1hZScsICc8aW5maWxlLm1hZT4nLCAnLW9tYWUnLCAnPG91dGZpbGUubWFlPic=

> <r_lp_tautomer_probability>
1

> <r_epik_Ionization_Penalty>
0.000300775

> <r_epik_Ionization_Penalty_Charging>
0

> <r_epik_Ionization_Penalty_Neutral>
0.000300775

> <r_epik_State_Penalty>
-0

> <r_epik_Charging_Adjusted_Penalty>
0

> <i_epik_Tot_Q>
0

> <i_epik_Tot_abs_Q>
0

> <r_epik_Metal_State_Penalty>
-0

> <b_epik_Metal_Only>
0

> <s_lp_Force_Field>
OPLS_2005

> <r_lp_Energy>
0.465271

> <b_lp_Chiralities_Consistent>
1

> <s_lp_Variant>
AV-unprocessed.smi:1665-1

> <Gold.Version>
5.8.1

> <Gold.Id.Protein>
6NUR|6NUR_protein|mol2

> <Gold.PLP.Fitness>
49.8770

> <Gold.PLP.PLP>
-39.9586

> <Gold.PLP.part.hbond>
-3.0000

> <Gold.PLP.part.metal>
0.0000

> <Gold.PLP.part.buried>
0.0413

> <Gold.PLP.part.nonpolar>
-36.8420

> <Gold.PLP.part.repulsive>
0.4391

> <Gold.PLP.ligand.clash>
0.0000

> <Gold.PLP.ligand.torsion>
0.6621

> <Gold.PLP.Chemscore.Hbond>
2.7396

> <Gold.PLP.Chemscore.CHOScore>
0.9791

> <Gold.PLP.Chemscore.Metal>
0.0000

> <Gold.Chemscore.Hbonds>
donor molecule, donor type, donor heavy atom, donor atom, acceptor molecule, acceptor atom, score
      L1  H     9    29       P1  8028  1.00
      P1  H  7989  7998       L1    11  0.86
      P1  H  7997  8010       L1    19  0.67
      L1  C     5    26       P1  7957  0.62

> <Gold.PLP.Chemscore.Internal.Correction>
0.0866

> <Gold.Rescore>
     Score         DG    S(hbond)    S(metal)    S(lipo)     H(rot)  DE(clash)    DE(int)     intcor
     14.57     -16.55       1.88        0.00      89.15       2.20       1.51       0.47       ----

> <Gold.Chemscore.Fitness>
14.5725

> <Gold.Chemscore.DG>
-16.5480

> <Gold.Chemscore.ZeroCoef>
-5.4800

> <Gold.Chemscore.Hbond>
1.8791

> <Gold.Chemscore.Metal>
0.0000

> <Gold.Chemscore.Lipo>
89.1488

> <Gold.Chemscore.Internal_Hbond>
0.0000

> <Gold.Chemscore.DEClash>
1.5092

> <Gold.Chemscore.DEInternal>
0.4663

> <Gold.Chemscore.Rot>
2.2026

> <Gold.Chemscore.Internal.Correction>
   9.000000E+99

> <Gold.Chemscore.Hbonds>
donor molecule, donor type, donor heavy atom, donor atom, acceptor molecule, acceptor atom, score
      L1  H     9    29       P1  8028  0.92
      P1  H  7989  7998       L1    11  0.35
      P1  H  7997  8010       L1    19  0.46

> <Gold.Chemscore.Hbond.Weighted>
-6.2763

> <Gold.Chemscore.Metal.Weighted>
-0.0000

> <Gold.Chemscore.Lipo.Weighted>
-10.4304

> <Gold.Chemscore.Internal_Hbond.Weighted>
0.0000

> <Gold.Chemscore.DEClash.Weighted>
1.5092

> <Gold.Chemscore.DEInternal.Weighted>
0.4663

> <Gold.Chemscore.Rot.Weighted>
5.6387

> <Gold.Chemscore.Internal.Correction.Weighted>
   9.000000E+99

> <Gold.Protein.RotatedTorsions>
[ 6907 6896 6895 6894 ] final   18.87 input  -60.11 | X-H torsion
[ 7974 7965 7964 7962 ] final   10.80 input  175.53 | X-H torsion
[ 8008 7997 7996 7995 ] final   21.77 input   59.86 | X-H torsion
[ 10167 10162 10161 10158 ] final  -54.46 input  -65.29 | X-H torsion
[ 10718 10713 10712 10709 ] final  113.22 input   66.30 | X-H torsion
[ 10763 10752 10751 10750 ] final   52.41 input  -60.55 | X-H torsion
[ 11005 11000 10999 10996 ] final -139.95 input  -57.11 | X-H torsion

> <Gold.Protein.ActiveResidues>
 VAL166  LYS551  ARG553  GLY616  TRP617  ASP618  TYR619  PRO620  LYS621  CYS622 
 ASP623  PHE694  ASN695  SER759  ASP760  ASP761  ALA762  ILE779  LEU786  VAL792 
 PHE793  MET794  SER795  GLU796  ALA797  LYS798  CYS799  TRP800  GLU811  SER814 

> <Gold.Protein.RotatedAtoms>
  151.8721  135.0485  160.0480 H   0  0  0  0  0  0  0  0  0  0  0  0  # atno 6907 bound_to 6896
  152.2580  133.5268  159.5373 H   0  0  0  0  0  0  0  0  0  0  0  0  # atno 6908 bound_to 6896
  150.7106  134.0785  159.3932 H   0  0  0  0  0  0  0  0  0  0  0  0  # atno 6909 bound_to 6896
  146.2382  139.9581  142.8462 H   0  0  0  0  0  0  0  0  0  0  0  0  # atno 7974 bound_to 7965
  154.9556  140.3071  155.5054 H   0  0  0  0  0  0  0  0  0  0  0  0  # atno 8008 bound_to 7997
  156.2982  140.2310  156.4576 H   0  0  0  0  0  0  0  0  0  0  0  0  # atno 8009 bound_to 7997
  154.8013  140.0434  157.1263 H   0  0  0  0  0  0  0  0  0  0  0  0  # atno 8010 bound_to 7997
  140.6429  143.2518  151.4939 H   0  0  0  0  0  0  0  0  0  0  0  0  # atno 10167 bound_to 10162
  157.6350  131.0980  150.7008 H   0  0  0  0  0  0  0  0  0  0  0  0  # atno 10718 bound_to 10713
  152.9789  135.5813  154.4574 H   0  0  0  0  0  0  0  0  0  0  0  0  # atno 10763 bound_to 10752
  154.4155  135.2770  155.2011 H   0  0  0  0  0  0  0  0  0  0  0  0  # atno 10764 bound_to 10752
  154.3783  135.6152  153.5831 H   0  0  0  0  0  0  0  0  0  0  0  0  # atno 10765 bound_to 10752
  140.8469  134.2333  157.4781 H   0  0  0  0  0  0  0  0  0  0  0  0  # atno 11005 bound_to 11000
  145.1797  140.9761  143.4273 LP  0  0  0  0  0  0  0  0  0  0  0  0  # atno 17320 bound_to 7965
  144.9953  139.3650  143.6194 LP  0  0  0  0  0  0  0  0  0  0  0  0  # atno 17321 bound_to 7965
  139.5639  144.2090  152.1734 LP  0  0  0  0  0  0  0  0  0  0  0  0  # atno 17342 bound_to 10162
  140.1366  144.5240  150.6769 LP  0  0  0  0  0  0  0  0  0  0  0  0  # atno 17343 bound_to 10162
  156.7341  130.4719  149.5492 LP  0  0  0  0  0  0  0  0  0  0  0  0  # atno 17370 bound_to 10713
  156.1582  130.6356  151.0685 LP  0  0  0  0  0  0  0  0  0  0  0  0  # atno 17371 bound_to 10713
  139.8703  134.9664  156.4561 LP  0  0  0  0  0  0  0  0  0  0  0  0  # atno 17394 bound_to 11000
  140.8833  133.7902  155.9490 LP  0  0  0  0  0  0  0  0  0  0  0  0  # atno 17395 bound_to 11000

$$$$
