AV-unprocessed.smi:2967|AV-procd|sdf|11326|dock1
  -GOLD-   2272016233D 1   1.00000     0.00000
 Structure written by MMmdl.
 38 39  0  0  0  0  0  0  0  0  1 V2000
  151.4485  140.5617  155.0598 O   0  0  0  0  0  0  0  0  0  0  0  0
  150.4039  140.6896  155.7004 C   0  0  0  0  0  0  0  0  0  0  0  0
  149.0859  140.0907  155.1880 C   0  0  0  0  0  0  0  0  0  0  0  0
  148.0114  141.0846  155.0459 N   0  0  0  0  0  0  0  0  0  0  0  0
  147.5667  141.4582  153.7855 C   0  0  0  0  0  0  0  0  0  0  0  0
  146.5874  142.3705  153.5805 C   0  0  0  0  0  0  0  0  0  0  0  0
  145.9363  143.0222  154.7118 C   0  0  0  0  0  0  0  0  0  0  0  0
  145.0387  143.8574  154.6285 O   0  0  0  0  0  0  0  0  0  0  0  0
  146.4141  142.6230  155.9629 N   0  0  0  0  0  0  0  0  0  0  0  0
  147.4244  141.6850  156.1813 C   0  0  0  0  0  0  0  0  0  0  0  0
  147.7741  141.4085  157.3283 O   0  0  0  0  0  0  0  0  0  0  0  0
  150.3357  141.3343  156.8756 N   0  0  0  0  0  0  0  0  0  0  0  0
  151.4529  141.9829  157.5584 C   0  0  0  0  0  0  0  0  0  0  0  0
  151.5145  141.4631  159.0099 C   0  0  0  0  0  0  0  0  0  0  0  0
  152.8334  141.8074  159.7227 C   0  0  0  0  0  0  0  0  0  0  0  0
  152.8744  143.1769  160.4235 C   0  0  0  0  0  0  0  0  0  0  0  0
  152.2046  144.3481  159.6839 C   0  0  0  0  0  0  0  0  0  0  0  0
  152.3740  144.3431  158.1564 C   0  0  0  0  0  0  0  0  0  0  0  0
  151.2949  143.5128  157.4401 C   0  0  0  0  0  0  0  0  0  0  0  0
  145.9957  143.0505  156.7763 H   0  0  0  0  0  0  0  0  0  0  0  0
  149.2823  139.6086  154.2293 H   0  0  0  0  0  0  0  0  0  0  0  0
  148.7674  139.2865  155.8545 H   0  0  0  0  0  0  0  0  0  0  0  0
  148.0235  141.0043  152.9174 H   0  0  0  0  0  0  0  0  0  0  0  0
  146.2849  142.6203  152.5739 H   0  0  0  0  0  0  0  0  0  0  0  0
  149.4364  141.3861  157.3318 H   0  0  0  0  0  0  0  0  0  0  0  0
  152.3787  141.6897  157.0594 H   0  0  0  0  0  0  0  0  0  0  0  0
  150.6578  141.8081  159.5901 H   0  0  0  0  0  0  0  0  0  0  0  0
  151.4354  140.3751  158.9824 H   0  0  0  0  0  0  0  0  0  0  0  0
  153.0367  141.0443  160.4747 H   0  0  0  0  0  0  0  0  0  0  0  0
  153.6591  141.7337  159.0138 H   0  0  0  0  0  0  0  0  0  0  0  0
  152.4139  143.0896  161.4083 H   0  0  0  0  0  0  0  0  0  0  0  0
  153.9193  143.4267  160.6120 H   0  0  0  0  0  0  0  0  0  0  0  0
  151.1427  144.3770  159.9309 H   0  0  0  0  0  0  0  0  0  0  0  0
  152.6154  145.2758  160.0841 H   0  0  0  0  0  0  0  0  0  0  0  0
  152.2826  145.3722  157.8068 H   0  0  0  0  0  0  0  0  0  0  0  0
  153.3759  144.0207  157.8709 H   0  0  0  0  0  0  0  0  0  0  0  0
  151.3135  143.7792  156.3824 H   0  0  0  0  0  0  0  0  0  0  0  0
  150.3093  143.8128  157.7991 H   0  0  0  0  0  0  0  0  0  0  0  0
  1  2  2  0  0  0  0
  2  3  1  0  0  0  0
  2 12  1  0  0  0  0
  3  4  1  0  0  0  0
  3 21  1  0  0  0  0
  3 22  1  0  0  0  0
  4 10  1  0  0  0  0
  4  5  1  0  0  0  0
  5  6  2  0  0  0  0
  5 23  1  0  0  0  0
  6  7  1  0  0  0  0
  6 24  1  0  0  0  0
  7  8  2  0  0  0  0
  7  9  1  0  0  0  0
  9 20  1  0  0  0  0
  9 10  1  0  0  0  0
 10 11  2  0  0  0  0
 12 13  1  0  0  0  0
 12 25  1  0  0  0  0
 13 19  1  0  0  0  0
 13 14  1  0  0  0  0
 13 26  1  0  0  0  0
 14 15  1  0  0  0  0
 14 27  1  0  0  0  0
 14 28  1  0  0  0  0
 15 16  1  0  0  0  0
 15 29  1  0  0  0  0
 15 30  1  0  0  0  0
 16 17  1  0  0  0  0
 16 31  1  0  0  0  0
 16 32  1  0  0  0  0
 17 18  1  0  0  0  0
 17 33  1  0  0  0  0
 17 34  1  0  0  0  0
 18 19  1  0  0  0  0
 18 35  1  0  0  0  0
 18 36  1  0  0  0  0
 19 37  1  0  0  0  0
 19 38  1  0  0  0  0
M  END
> <s_m_source_file>
AV-unprocessed.smi

> <i_m_source_file_index>
2967

> <i_lp_mmshare_version>
43012

> <i_f3d_flags>
0

> <s_epik_input>
W0NIMl0xW0NIMl1bQ0gyXVtDSDJdW0NIMl1bQ0gyXVtDSF0xW05IXUMoPU8pW0NIMl1uMltjSF1bY0hdYyg9TylbbkhdYzI9Tw==

> <s_epik_cmdline>
J2VwaWtfcHl0aG9uJywgJy1waCcsICc3LjAnLCAnLXRuJywgJzgnLCAnLW1hJywgJzIwMCcsICctbWV0YWxfYmluZGluZycsICctaW1hZScsICc8aW5maWxlLm1hZT4nLCAnLW9tYWUnLCAnPG91dGZpbGUubWFlPic=

> <r_lp_tautomer_probability>
0.999537

> <r_epik_Ionization_Penalty>
0.00321433

> <r_epik_Ionization_Penalty_Charging>
0.00321431

> <r_epik_Ionization_Penalty_Neutral>
2.02148e-08

> <r_epik_State_Penalty>
0.00226744

> <r_epik_Charging_Adjusted_Penalty>
0.00548175

> <i_epik_Tot_Q>
0

> <i_epik_Tot_abs_Q>
0

> <r_epik_Metal_State_Penalty>
0.364272

> <b_epik_Metal_Only>
0

> <s_lp_Force_Field>
OPLS_2005

> <r_lp_Energy>
14.3008

> <b_lp_Chiralities_Consistent>
1

> <s_lp_Variant>
AV-unprocessed.smi:2967-1

> <Gold.Version>
5.8.1

> <Gold.Id.Protein>
6NUR|6NUR_protein|mol2

> <Gold.PLP.Fitness>
44.8506

> <Gold.PLP.PLP>
-39.5153

> <Gold.PLP.part.hbond>
-1.2644

> <Gold.PLP.part.metal>
0.0000

> <Gold.PLP.part.buried>
-5.2704

> <Gold.PLP.part.nonpolar>
-33.9782

> <Gold.PLP.part.repulsive>
0.3749

> <Gold.PLP.ligand.clash>
0.0000

> <Gold.PLP.ligand.torsion>
0.2023

> <Gold.PLP.Chemscore.Hbond>
0.9120

> <Gold.PLP.Chemscore.CHOScore>
0.9957

> <Gold.PLP.Chemscore.Metal>
0.0000

> <Gold.Chemscore.Hbonds>
donor molecule, donor type, donor heavy atom, donor atom, acceptor molecule, acceptor atom, score
      P1  H  7989  7998       L1     1  0.86
      L1  C     5    23       P1  7957  0.97

> <Gold.PLP.Chemscore.Internal.Correction>
0.0169

> <Gold.Rescore>
     Score         DG    S(hbond)    S(metal)    S(lipo)     H(rot)  DE(clash)    DE(int)     intcor
     15.22     -15.61       0.89        0.00      98.25       1.69       0.05       0.35       ----

> <Gold.Chemscore.Fitness>
15.2181

> <Gold.Chemscore.DG>
-15.6127

> <Gold.Chemscore.ZeroCoef>
-5.4800

> <Gold.Chemscore.Hbond>
0.8853

> <Gold.Chemscore.Metal>
0.0000

> <Gold.Chemscore.Lipo>
98.2522

> <Gold.Chemscore.Internal_Hbond>
0.0000

> <Gold.Chemscore.DEClash>
0.0465

> <Gold.Chemscore.DEInternal>
0.3481

> <Gold.Chemscore.Rot>
1.6874

> <Gold.Chemscore.Internal.Correction>
   9.000000E+99

> <Gold.Chemscore.Hbonds>
donor molecule, donor type, donor heavy atom, donor atom, acceptor molecule, acceptor atom, score
      P1  H  7989  7998       L1     1  0.83

> <Gold.Chemscore.Hbond.Weighted>
-2.9570

> <Gold.Chemscore.Metal.Weighted>
-0.0000

> <Gold.Chemscore.Lipo.Weighted>
-11.4955

> <Gold.Chemscore.Internal_Hbond.Weighted>
0.0000

> <Gold.Chemscore.DEClash.Weighted>
0.0465

> <Gold.Chemscore.DEInternal.Weighted>
0.3481

> <Gold.Chemscore.Rot.Weighted>
4.3198

> <Gold.Chemscore.Internal.Correction.Weighted>
   9.000000E+99

> <Gold.Protein.RotatedTorsions>
[ 6907 6896 6895 6894 ] final  -95.31 input  -60.11 | X-H torsion
[ 7974 7965 7964 7962 ] final -138.90 input  175.53 | X-H torsion
[ 8008 7997 7996 7995 ] final  139.84 input   59.86 | X-H torsion
[ 10167 10162 10161 10158 ] final  130.02 input  -65.29 | X-H torsion
[ 10718 10713 10712 10709 ] final  142.53 input   66.30 | X-H torsion
[ 10763 10752 10751 10750 ] final   84.17 input  -60.55 | X-H torsion
[ 11005 11000 10999 10996 ] final   61.59 input  -57.11 | X-H torsion

> <Gold.Protein.ActiveResidues>
 VAL166  LYS551  ARG553  GLY616  TRP617  ASP618  TYR619  PRO620  LYS621  CYS622 
 ASP623  PHE694  ASN695  SER759  ASP760  ASP761  ALA762  ILE779  LEU786  VAL792 
 PHE793  MET794  SER795  GLU796  ALA797  LYS798  CYS799  TRP800  GLU811  SER814 

> <Gold.Protein.RotatedAtoms>
  150.6961  134.1677  159.4200 H   0  0  0  0  0  0  0  0  0  0  0  0  # atno 6907 bound_to 6896
  151.9656  135.0100  160.0559 H   0  0  0  0  0  0  0  0  0  0  0  0  # atno 6908 bound_to 6896
  152.1887  133.4723  159.5033 H   0  0  0  0  0  0  0  0  0  0  0  0  # atno 6909 bound_to 6896
  144.8720  140.6381  143.5260 H   0  0  0  0  0  0  0  0  0  0  0  0  # atno 7974 bound_to 7965
  156.2985  140.2357  156.4304 H   0  0  0  0  0  0  0  0  0  0  0  0  # atno 8008 bound_to 7997
  154.8276  140.0434  157.1475 H   0  0  0  0  0  0  0  0  0  0  0  0  # atno 8009 bound_to 7997
  154.9244  140.3008  155.5203 H   0  0  0  0  0  0  0  0  0  0  0  0  # atno 8010 bound_to 7997
  139.5450  144.6765  151.4502 H   0  0  0  0  0  0  0  0  0  0  0  0  # atno 10167 bound_to 10162
  157.3795  131.0990  151.0752 H   0  0  0  0  0  0  0  0  0  0  0  0  # atno 10718 bound_to 10713
  153.1358  135.4664  154.9419 H   0  0  0  0  0  0  0  0  0  0  0  0  # atno 10763 bound_to 10752
  154.7704  135.3157  154.8203 H   0  0  0  0  0  0  0  0  0  0  0  0  # atno 10764 bound_to 10752
  153.8736  135.6901  153.4826 H   0  0  0  0  0  0  0  0  0  0  0  0  # atno 10765 bound_to 10752
  140.0150  134.6238  155.9723 H   0  0  0  0  0  0  0  0  0  0  0  0  # atno 11005 bound_to 11000
  145.4112  139.1580  143.4125 LP  0  0  0  0  0  0  0  0  0  0  0  0  # atno 17320 bound_to 7965
  146.2937  140.4216  142.8730 LP  0  0  0  0  0  0  0  0  0  0  0  0  # atno 17321 bound_to 7965
  140.6695  143.8326  150.6981 LP  0  0  0  0  0  0  0  0  0  0  0  0  # atno 17342 bound_to 10162
  140.1745  143.4166  152.1977 LP  0  0  0  0  0  0  0  0  0  0  0  0  # atno 17343 bound_to 10162
  157.1826  130.6316  149.5677 LP  0  0  0  0  0  0  0  0  0  0  0  0  # atno 17370 bound_to 10713
  155.9773  130.4748  150.6582 LP  0  0  0  0  0  0  0  0  0  0  0  0  # atno 17371 bound_to 10713
  141.1737  133.6539  156.4747 LP  0  0  0  0  0  0  0  0  0  0  0  0  # atno 17394 bound_to 11000
  140.4486  134.6949  157.5028 LP  0  0  0  0  0  0  0  0  0  0  0  0  # atno 17395 bound_to 11000

$$$$
