AV-unprocessed.smi:2827|AV-procd|sdf|10896|dock2
  -GOLD-   2272015343D 1   1.00000     0.00000
 Structure written by MMmdl.
 48 51  0  0  0  0  0  0  0  0  3 V2000
  147.2358  138.6425  155.5272 O   0  0  0  0  0  0  0  0  0  0  0  0
  147.2023  138.9939  154.3483 C   0  0  0  0  0  0  0  0  0  0  0  0
  148.0458  140.1800  153.8775 C   0  0  0  0  0  0  0  0  0  0  0  0
  149.4341  139.9866  154.2854 N   0  0  0  0  0  0  0  0  0  0  0  0
  150.1401  138.8430  153.9254 C   0  0  0  0  0  0  0  0  0  0  0  0
  151.2918  138.4538  154.5039 C   0  0  0  0  0  0  0  0  0  0  0  0
  151.8661  139.2656  155.5959 C   0  0  0  0  0  0  0  0  0  0  0  0
  152.8919  138.9066  156.1718 O   0  0  0  0  0  0  0  0  0  0  0  0
  151.1377  140.5143  155.9616 C   0  0  0  0  0  0  0  0  0  0  0  0
  151.5531  141.4509  156.9845 N   0  3  0  0  0  0  0  0  0  0  0  0
  151.3103  142.6453  156.8330 O   0  0  0  0  0  0  0  0  0  0  0  0
  152.1355  141.0219  157.9749 O   0  5  0  0  0  0  0  0  0  0  0  0
  149.9948  140.7845  155.2830 C   0  0  0  0  0  0  0  0  0  0  0  0
  146.4182  138.4241  153.4206 N   0  0  0  0  0  0  0  0  0  0  0  0
  145.3682  137.4463  153.6832 C   0  0  0  0  0  0  0  0  0  0  0  0
  145.7911  136.0356  153.2032 C   0  0  2  0  0  0  0  0  0  0  0  0
  145.6638  135.7938  151.6713 C   0  0  2  0  0  0  0  0  0  0  0  0
  144.1790  135.7454  151.2433 C   0  0  0  0  0  0  0  0  0  0  0  0
  143.4656  134.5989  151.9910 C   0  0  1  0  0  0  0  0  0  0  0  0
  144.1398  133.2556  151.6377 C   0  0  0  0  0  0  0  0  0  0  0  0
  145.6233  133.3031  152.0618 C   0  0  1  0  0  0  0  0  0  0  0  0
  146.3351  134.4496  151.3116 C   0  0  0  0  0  0  0  0  0  0  0  0
  145.7164  133.5429  153.5851 C   0  0  0  0  0  0  0  0  0  0  0  0
  145.0456  134.8907  153.9378 C   0  0  2  0  0  0  0  0  0  0  0  0
  143.5587  134.8355  153.5136 C   0  0  0  0  0  0  0  0  0  0  0  0
  147.9776  140.2676  152.7924 H   0  0  0  0  0  0  0  0  0  0  0  0
  147.6569  141.1133  154.2882 H   0  0  0  0  0  0  0  0  0  0  0  0
  149.6884  138.2733  153.1263 H   0  0  0  0  0  0  0  0  0  0  0  0
  151.8037  137.5557  154.1909 H   0  0  0  0  0  0  0  0  0  0  0  0
  149.4148  141.6738  155.4849 H   0  0  0  0  0  0  0  0  0  0  0  0
  146.4793  138.7747  152.4755 H   0  0  0  0  0  0  0  0  0  0  0  0
  145.1997  137.4286  154.7602 H   0  0  0  0  0  0  0  0  0  0  0  0
  144.4233  137.7579  153.2384 H   0  0  0  0  0  0  0  0  0  0  0  0
  146.8488  135.9476  153.4585 H   0  0  0  0  0  0  0  0  0  0  0  0
  146.1709  136.5822  151.1176 H   0  0  0  0  0  0  0  0  0  0  0  0
  143.6857  136.6956  151.4468 H   0  0  0  0  0  0  0  0  0  0  0  0
  144.1058  135.5934  150.1658 H   0  0  0  0  0  0  0  0  0  0  0  0
  142.4173  134.5676  151.6921 H   0  0  0  0  0  0  0  0  0  0  0  0
  143.6293  132.4325  152.1398 H   0  0  0  0  0  0  0  0  0  0  0  0
  144.0583  133.0615  150.5676 H   0  0  0  0  0  0  0  0  0  0  0  0
  146.1017  132.3553  151.8132 H   0  0  0  0  0  0  0  0  0  0  0  0
  146.2906  134.2824  150.2345 H   0  0  0  0  0  0  0  0  0  0  0  0
  147.3935  134.4724  151.5734 H   0  0  0  0  0  0  0  0  0  0  0  0
  145.2328  132.7277  154.1248 H   0  0  0  0  0  0  0  0  0  0  0  0
  146.7597  133.5441  153.9030 H   0  0  0  0  0  0  0  0  0  0  0  0
  145.1095  135.0456  155.0152 H   0  0  0  0  0  0  0  0  0  0  0  0
  143.0409  135.7546  153.7873 H   0  0  0  0  0  0  0  0  0  0  0  0
  143.0476  134.0339  154.0480 H   0  0  0  0  0  0  0  0  0  0  0  0
  1  2  2  0  0  0  0
  2  3  1  0  0  0  0
  2 14  1  0  0  0  0
  3  4  1  0  0  0  0
  3 26  1  0  0  0  0
  3 27  1  0  0  0  0
  4 13  1  0  0  0  0
  4  5  1  0  0  0  0
  5  6  2  0  0  0  0
  5 28  1  0  0  0  0
  6  7  1  0  0  0  0
  6 29  1  0  0  0  0
  7  8  2  0  0  0  0
  7  9  1  0  0  0  0
  9 10  1  0  0  0  0
  9 13  2  0  0  0  0
 10 11  2  0  0  0  0
 10 12  1  0  0  0  0
 13 30  1  0  0  0  0
 14 15  1  0  0  0  0
 14 31  1  0  0  0  0
 15 16  1  0  0  0  0
 15 32  1  0  0  0  0
 15 33  1  0  0  0  0
 16 24  1  0  0  0  0
 16 17  1  0  0  0  0
 16 34  1  0  0  0  0
 17 22  1  0  0  0  0
 17 18  1  0  0  0  0
 17 35  1  0  0  0  0
 18 19  1  0  0  0  0
 18 36  1  0  0  0  0
 18 37  1  0  0  0  0
 19 25  1  0  0  0  0
 19 20  1  0  0  0  0
 19 38  1  0  0  0  0
 20 21  1  0  0  0  0
 20 39  1  0  0  0  0
 20 40  1  0  0  0  0
 21 22  1  0  0  0  0
 21 23  1  0  0  0  0
 21 41  1  0  0  0  0
 22 42  1  0  0  0  0
 22 43  1  0  0  0  0
 23 24  1  0  0  0  0
 23 44  1  0  0  0  0
 23 45  1  0  0  0  0
 24 25  1  0  0  0  0
 24 46  1  0  0  0  0
 25 47  1  0  0  0  0
 25 48  1  0  0  0  0
M  CHG  1  10   1
M  CHG  1  12  -1
M  END
> <s_m_source_file>
AV-unprocessed.smi

> <i_m_source_file_index>
2827

> <i_lp_mmshare_version>
43012

> <i_f3d_flags>
0

> <s_epik_input>
Tz1bTitdKFtPLV0pYyhbY0hdMSljKD1PKVtjSF1bY0hdbjFbQ0gyXUMoPU8pW05IXVtDSDJdW0NASF0oW0NASF0yMylbQ0BASF00W0NIMl1bQ0BIXShbQ0gyXTMpW0NIMl1bQ0BIXShbQ0gyXTIpW0NIMl00

> <s_epik_cmdline>
J2VwaWtfcHl0aG9uJywgJy1waCcsICc3LjAnLCAnLXRuJywgJzgnLCAnLW1hJywgJzIwMCcsICctbWV0YWxfYmluZGluZycsICctaW1hZScsICc8aW5maWxlLm1hZT4nLCAnLW9tYWUnLCAnPG91dGZpbGUubWFlPic=

> <r_lp_tautomer_probability>
1

> <r_epik_Ionization_Penalty>
3.31423e-08

> <r_epik_Ionization_Penalty_Charging>
1.04538e-08

> <r_epik_Ionization_Penalty_Neutral>
2.26885e-08

> <r_epik_State_Penalty>
-0

> <r_epik_Charging_Adjusted_Penalty>
1.04538e-08

> <i_epik_Tot_Q>
0

> <i_epik_Tot_abs_Q>
2

> <r_epik_Metal_State_Penalty>
-0

> <b_epik_Metal_Only>
0

> <s_lp_Force_Field>
OPLS_2005

> <r_lp_Energy>
36.4142

> <b_lp_Chiralities_Consistent>
1

> <s_lp_Variant>
AV-unprocessed.smi:2827-1

> <Gold.Version>
5.8.1

> <Gold.Id.Protein>
6NUR|6NUR_protein|mol2

> <Gold.PLP.Fitness>
43.0143

> <Gold.PLP.PLP>
-36.9204

> <Gold.PLP.part.hbond>
-1.0000

> <Gold.PLP.part.metal>
0.0000

> <Gold.PLP.part.buried>
-2.8009

> <Gold.PLP.part.nonpolar>
-33.6938

> <Gold.PLP.part.repulsive>
1.0451

> <Gold.PLP.ligand.clash>
0.0000

> <Gold.PLP.ligand.torsion>
0.8590

> <Gold.PLP.Chemscore.Hbond>
1.0000

> <Gold.PLP.Chemscore.CHOScore>
1.5320

> <Gold.PLP.Chemscore.Metal>
0.0000

> <Gold.Chemscore.Hbonds>
donor molecule, donor type, donor heavy atom, donor atom, acceptor molecule, acceptor atom, score
      P1  H  7997  8008       L1     8  1.00
      L1  C     5    28       P1  7948  1.00
      L1  C     5    28       P1  7957  0.35

> <Gold.PLP.Chemscore.Internal.Correction>
0.2160

> <Gold.Rescore>
     Score         DG    S(hbond)    S(metal)    S(lipo)     H(rot)  DE(clash)    DE(int)     intcor
     11.54     -13.77       0.98        0.00      81.26       1.75       0.79       1.44       ----

> <Gold.Chemscore.Fitness>
11.5371

> <Gold.Chemscore.DG>
-13.7653

> <Gold.Chemscore.ZeroCoef>
-5.4800

> <Gold.Chemscore.Hbond>
0.9784

> <Gold.Chemscore.Metal>
0.0000

> <Gold.Chemscore.Lipo>
81.2611

> <Gold.Chemscore.Internal_Hbond>
0.0000

> <Gold.Chemscore.DEClash>
0.7912

> <Gold.Chemscore.DEInternal>
1.4370

> <Gold.Chemscore.Rot>
1.7540

> <Gold.Chemscore.Internal.Correction>
   9.000000E+99

> <Gold.Chemscore.Hbonds>
donor molecule, donor type, donor heavy atom, donor atom, acceptor molecule, acceptor atom, score
      P1  H  7997  8008       L1     8  0.98

> <Gold.Chemscore.Hbond.Weighted>
-3.2680

> <Gold.Chemscore.Metal.Weighted>
-0.0000

> <Gold.Chemscore.Lipo.Weighted>
-9.5076

> <Gold.Chemscore.Internal_Hbond.Weighted>
0.0000

> <Gold.Chemscore.DEClash.Weighted>
0.7912

> <Gold.Chemscore.DEInternal.Weighted>
1.4370

> <Gold.Chemscore.Rot.Weighted>
4.4902

> <Gold.Chemscore.Internal.Correction.Weighted>
   9.000000E+99

> <Gold.Protein.RotatedTorsions>
[ 6907 6896 6895 6894 ] final -108.46 input  -60.11 | X-H torsion
[ 7974 7965 7964 7962 ] final   88.84 input  175.53 | X-H torsion
[ 8008 7997 7996 7995 ] final  -50.12 input   59.86 | X-H torsion
[ 10167 10162 10161 10158 ] final  166.72 input  -65.29 | X-H torsion
[ 10718 10713 10712 10709 ] final  176.41 input   66.30 | X-H torsion
[ 10763 10752 10751 10750 ] final   10.57 input  -60.55 | X-H torsion
[ 11005 11000 10999 10996 ] final    4.24 input  -57.11 | X-H torsion

> <Gold.Protein.ActiveResidues>
 VAL166  LYS551  ARG553  GLY616  TRP617  ASP618  TYR619  PRO620  LYS621  CYS622 
 ASP623  PHE694  ASN695  SER759  ASP760  ASP761  ALA762  ILE779  LEU786  VAL792 
 PHE793  MET794  SER795  GLU796  ALA797  LYS798  CYS799  TRP800  GLU811  SER814 

> <Gold.Protein.RotatedAtoms>
  150.7503  133.9674  159.3534 H   0  0  0  0  0  0  0  0  0  0  0  0  # atno 6907 bound_to 6896
  151.7604  135.0809  160.0354 H   0  0  0  0  0  0  0  0  0  0  0  0  # atno 6908 bound_to 6896
  152.3407  133.6026  159.5910 H   0  0  0  0  0  0  0  0  0  0  0  0  # atno 6909 bound_to 6896
  145.5403  139.2288  143.2569 H   0  0  0  0  0  0  0  0  0  0  0  0  # atno 7974 bound_to 7965
  154.4056  140.1280  156.4614 H   0  0  0  0  0  0  0  0  0  0  0  0  # atno 8008 bound_to 7997
  155.7269  140.3492  155.5022 H   0  0  0  0  0  0  0  0  0  0  0  0  # atno 8009 bound_to 7997
  155.9163  140.1044  157.1231 H   0  0  0  0  0  0  0  0  0  0  0  0  # atno 8010 bound_to 7997
  139.4930  144.3997  151.9424 H   0  0  0  0  0  0  0  0  0  0  0  0  # atno 10167 bound_to 10162
  156.9205  130.9939  151.3005 H   0  0  0  0  0  0  0  0  0  0  0  0  # atno 10718 bound_to 10713
  153.2018  135.6857  153.8222 H   0  0  0  0  0  0  0  0  0  0  0  0  # atno 10763 bound_to 10752
  153.7485  135.3227  155.3318 H   0  0  0  0  0  0  0  0  0  0  0  0  # atno 10764 bound_to 10752
  154.8175  135.4675  154.0787 H   0  0  0  0  0  0  0  0  0  0  0  0  # atno 10765 bound_to 10752
  140.5841  133.9985  155.8060 H   0  0  0  0  0  0  0  0  0  0  0  0  # atno 11005 bound_to 11000
  146.1985  140.6223  142.9113 LP  0  0  0  0  0  0  0  0  0  0  0  0  # atno 17320 bound_to 7965
  144.7580  140.5354  143.6755 LP  0  0  0  0  0  0  0  0  0  0  0  0  # atno 17321 bound_to 7965
  140.3436  144.3174  150.5962 LP  0  0  0  0  0  0  0  0  0  0  0  0  # atno 17342 bound_to 10162
  140.5545  143.2201  151.7871 LP  0  0  0  0  0  0  0  0  0  0  0  0  # atno 17343 bound_to 10162
  157.5910  130.8444  149.8660 LP  0  0  0  0  0  0  0  0  0  0  0  0  # atno 17370 bound_to 10713
  156.0493  130.3721  150.1240 LP  0  0  0  0  0  0  0  0  0  0  0  0  # atno 17371 bound_to 10713
  141.0977  133.9817  157.3132 LP  0  0  0  0  0  0  0  0  0  0  0  0  # atno 17394 bound_to 11000
  139.9304  135.0200  156.8379 LP  0  0  0  0  0  0  0  0  0  0  0  0  # atno 17395 bound_to 11000

$$$$
