AV-unprocessed.smi:820|AV-procd|sdf|3836|dock2
  -GOLD-   22720 1283D 1   1.00000     0.00000
 Structure written by MMmdl.
 32 33  0  0  0  0  0  0  0  0  1 V2000
  151.9053  145.2622  158.8979 C   0  0  0  0  0  0  0  0  0  0  0  0
  152.1425  144.2454  160.0179 C   0  0  0  0  0  0  0  0  0  0  0  0
  153.0296  142.7835  159.4102 S   0  0  0  0  0  0  0  0  0  0  0  0
  151.9139  141.8415  158.4124 C   0  0  0  0  0  0  0  0  0  0  0  0
  151.7580  140.4470  158.5571 C   0  0  0  0  0  0  0  0  0  0  0  0
  150.8439  139.7883  157.7121 C   0  0  0  0  0  0  0  0  0  0  0  0
  150.1165  140.5475  156.7632 C   0  0  0  0  0  0  0  0  0  0  0  0
  149.1832  139.9994  155.8419 N   0  0  0  0  0  0  0  0  0  0  0  0
  148.9236  140.3725  154.5739 C   0  0  0  0  0  0  0  0  0  0  0  0
  149.5125  141.2833  153.9904 O   0  0  0  0  0  0  0  0  0  0  0  0
  147.8788  139.5465  153.9803 C   0  0  0  0  0  0  0  0  0  0  0  0
  147.4411  139.8232  152.7300 C   0  0  0  0  0  0  0  0  0  0  0  0
  146.4922  139.0810  152.0726 O   0  0  0  0  0  0  0  0  0  0  0  0
  146.1768  137.8397  152.6918 C   0  0  0  0  0  0  0  0  0  0  0  0
  146.0952  138.0089  154.2157 C   0  0  0  0  0  0  0  0  0  0  0  0
  147.3222  138.5256  154.7200 O   0  0  0  0  0  0  0  0  0  0  0  0
  150.3654  141.9351  156.7006 C   0  0  0  0  0  0  0  0  0  0  0  0
  151.2382  142.5770  157.5057 N   0  0  0  0  0  0  0  0  0  0  0  0
  151.3754  146.1380  159.2733 H   0  0  0  0  0  0  0  0  0  0  0  0
  151.3081  144.8296  158.0949 H   0  0  0  0  0  0  0  0  0  0  0  0
  152.8485  145.6015  158.4688 H   0  0  0  0  0  0  0  0  0  0  0  0
  152.7223  144.7046  160.8190 H   0  0  0  0  0  0  0  0  0  0  0  0
  151.1880  143.9329  160.4423 H   0  0  0  0  0  0  0  0  0  0  0  0
  152.3178  139.8813  159.2855 H   0  0  0  0  0  0  0  0  0  0  0  0
  150.7324  138.7192  157.8003 H   0  0  0  0  0  0  0  0  0  0  0  0
  148.6822  139.1845  156.1663 H   0  0  0  0  0  0  0  0  0  0  0  0
  147.8172  140.6233  152.1083 H   0  0  0  0  0  0  0  0  0  0  0  0
  145.2292  137.4735  152.2966 H   0  0  0  0  0  0  0  0  0  0  0  0
  146.9394  137.1045  152.4312 H   0  0  0  0  0  0  0  0  0  0  0  0
  145.2825  138.6863  154.4825 H   0  0  0  0  0  0  0  0  0  0  0  0
  145.8870  137.0526  154.6956 H   0  0  0  0  0  0  0  0  0  0  0  0
  149.8448  142.5531  155.9834 H   0  0  0  0  0  0  0  0  0  0  0  0
  1  2  1  0  0  0  0
  1 19  1  0  0  0  0
  1 20  1  0  0  0  0
  1 21  1  0  0  0  0
  2  3  1  0  0  0  0
  2 22  1  0  0  0  0
  2 23  1  0  0  0  0
  3  4  1  0  0  0  0
  4 18  1  0  0  0  0
  4  5  2  0  0  0  0
  5  6  1  0  0  0  0
  5 24  1  0  0  0  0
  6  7  2  0  0  0  0
  6 25  1  0  0  0  0
  7  8  1  0  0  0  0
  7 17  1  0  0  0  0
  8  9  1  0  0  0  0
  8 26  1  0  0  0  0
  9 10  2  0  0  0  0
  9 11  1  0  0  0  0
 11 16  1  0  0  0  0
 11 12  2  0  0  0  0
 12 13  1  0  0  0  0
 12 27  1  0  0  0  0
 13 14  1  0  0  0  0
 14 15  1  0  0  0  0
 14 28  1  0  0  0  0
 14 29  1  0  0  0  0
 15 16  1  0  0  0  0
 15 30  1  0  0  0  0
 15 31  1  0  0  0  0
 17 18  2  0  0  0  0
 17 32  1  0  0  0  0
M  END
> <s_m_source_file>
AV-unprocessed.smi

> <i_m_source_file_index>
820

> <i_lp_mmshare_version>
43012

> <i_f3d_flags>
0

> <s_epik_input>
W0NIM11bQ0gyXVNjMVtjSF1bY0hdYyhbY0hdbjEpW05IXUMoPU8pQzI9W0NIXU9bQ0gyXVtDSDJdTzI=

> <s_epik_cmdline>
J2VwaWtfcHl0aG9uJywgJy1waCcsICc3LjAnLCAnLXRuJywgJzgnLCAnLW1hJywgJzIwMCcsICctbWV0YWxfYmluZGluZycsICctaW1hZScsICc8aW5maWxlLm1hZT4nLCAnLW9tYWUnLCAnPG91dGZpbGUubWFlPic=

> <r_lp_tautomer_probability>
1

> <r_epik_Ionization_Penalty>
8.32294e-05

> <r_epik_Ionization_Penalty_Charging>
0

> <r_epik_Ionization_Penalty_Neutral>
8.32294e-05

> <r_epik_State_Penalty>
-0

> <r_epik_Charging_Adjusted_Penalty>
0

> <i_epik_Tot_Q>
0

> <i_epik_Tot_abs_Q>
0

> <r_epik_Metal_State_Penalty>
0.0397586

> <b_epik_Metal_Only>
0

> <s_lp_Force_Field>
OPLS_2005

> <r_lp_Energy>
6.19244

> <b_lp_Chiralities_Consistent>
1

> <s_lp_Variant>
AV-unprocessed.smi:820-1

> <Gold.Version>
5.8.1

> <Gold.Id.Protein>
6NUR|6NUR_protein|mol2

> <Gold.PLP.Fitness>
37.0610

> <Gold.PLP.PLP>
-29.8953

> <Gold.PLP.part.hbond>
-2.0000

> <Gold.PLP.part.metal>
0.0000

> <Gold.PLP.part.buried>
-1.7701

> <Gold.PLP.part.nonpolar>
-27.8178

> <Gold.PLP.part.repulsive>
0.8699

> <Gold.PLP.ligand.clash>
0.0000

> <Gold.PLP.ligand.torsion>
0.4154

> <Gold.PLP.Chemscore.Hbond>
1.0124

> <Gold.PLP.Chemscore.CHOScore>
1.6471

> <Gold.PLP.Chemscore.Metal>
0.0000

> <Gold.Chemscore.Hbonds>
donor molecule, donor type, donor heavy atom, donor atom, acceptor molecule, acceptor atom, score
      P1  H  7989  7998       L1    10  0.19
      P1  H  8011  8017       L1    10  0.77
      L1  C    12    27       P1  7957  0.63
      L1  C    17    32       P1  8028  1.00

> <Gold.PLP.Chemscore.Internal.Correction>
0.0181

> <Gold.Rescore>
     Score         DG    S(hbond)    S(metal)    S(lipo)     H(rot)  DE(clash)    DE(int)     intcor
     13.10     -16.67       1.06        0.00      90.40       1.14       1.85       1.73       ----

> <Gold.Chemscore.Fitness>
13.0984

> <Gold.Chemscore.DG>
-16.6731

> <Gold.Chemscore.ZeroCoef>
-5.4800

> <Gold.Chemscore.Hbond>
1.0606

> <Gold.Chemscore.Metal>
0.0000

> <Gold.Chemscore.Lipo>
90.3990

> <Gold.Chemscore.Internal_Hbond>
0.0000

> <Gold.Chemscore.DEClash>
1.8473

> <Gold.Chemscore.DEInternal>
1.7273

> <Gold.Chemscore.Rot>
1.1429

> <Gold.Chemscore.Internal.Correction>
   9.000000E+99

> <Gold.Chemscore.Hbonds>
donor molecule, donor type, donor heavy atom, donor atom, acceptor molecule, acceptor atom, score
      P1  H  7989  7998       L1    10  0.19
      P1  H  8011  8017       L1    10  0.73

> <Gold.Chemscore.Hbond.Weighted>
-3.5423

> <Gold.Chemscore.Metal.Weighted>
-0.0000

> <Gold.Chemscore.Lipo.Weighted>
-10.5767

> <Gold.Chemscore.Internal_Hbond.Weighted>
0.0000

> <Gold.Chemscore.DEClash.Weighted>
1.8473

> <Gold.Chemscore.DEInternal.Weighted>
1.7273

> <Gold.Chemscore.Rot.Weighted>
2.9259

> <Gold.Chemscore.Internal.Correction.Weighted>
   9.000000E+99

> <Gold.Protein.RotatedTorsions>
[ 6907 6896 6895 6894 ] final  -89.74 input  -60.11 | X-H torsion
[ 7974 7965 7964 7962 ] final  -39.38 input  175.53 | X-H torsion
[ 8008 7997 7996 7995 ] final -102.36 input   59.86 | X-H torsion
[ 10167 10162 10161 10158 ] final   80.76 input  -65.29 | X-H torsion
[ 10718 10713 10712 10709 ] final  164.45 input   66.30 | X-H torsion
[ 10763 10752 10751 10750 ] final  161.38 input  -60.55 | X-H torsion
[ 11005 11000 10999 10996 ] final  162.23 input  -57.11 | X-H torsion

> <Gold.Protein.ActiveResidues>
 VAL166  LYS551  ARG553  GLY616  TRP617  ASP618  TYR619  PRO620  LYS621  CYS622 
 ASP623  PHE694  ASN695  SER759  ASP760  ASP761  ALA762  ILE779  LEU786  VAL792 
 PHE793  MET794  SER795  GLU796  ALA797  LYS798  CYS799  TRP800  GLU811  SER814 

> <Gold.Protein.RotatedAtoms>
  150.6876  134.2540  159.4522 H   0  0  0  0  0  0  0  0  0  0  0  0  # atno 6907 bound_to 6896
  152.0475  134.9671  160.0583 H   0  0  0  0  0  0  0  0  0  0  0  0  # atno 6908 bound_to 6896
  152.1148  133.4286  159.4685 H   0  0  0  0  0  0  0  0  0  0  0  0  # atno 6909 bound_to 6896
  146.0402  140.6619  142.9091 H   0  0  0  0  0  0  0  0  0  0  0  0  # atno 7974 bound_to 7965
  154.8556  140.0429  157.1632 H   0  0  0  0  0  0  0  0  0  0  0  0  # atno 8008 bound_to 7997
  154.8896  140.2984  155.5358 H   0  0  0  0  0  0  0  0  0  0  0  0  # atno 8009 bound_to 7997
  156.2997  140.2396  156.3909 H   0  0  0  0  0  0  0  0  0  0  0  0  # atno 8010 bound_to 7997
  139.9463  144.6056  150.8203 H   0  0  0  0  0  0  0  0  0  0  0  0  # atno 10167 bound_to 10162
  157.0942  131.0426  151.2524 H   0  0  0  0  0  0  0  0  0  0  0  0  # atno 10718 bound_to 10713
  154.2621  135.2768  155.2774 H   0  0  0  0  0  0  0  0  0  0  0  0  # atno 10763 bound_to 10752
  154.5375  135.5712  153.6814 H   0  0  0  0  0  0  0  0  0  0  0  0  # atno 10764 bound_to 10752
  152.9960  135.6243  154.2772 H   0  0  0  0  0  0  0  0  0  0  0  0  # atno 10765 bound_to 10752
  140.2237  134.8177  157.3246 H   0  0  0  0  0  0  0  0  0  0  0  0  # atno 11005 bound_to 11000
  144.7071  140.3893  143.7110 LP  0  0  0  0  0  0  0  0  0  0  0  0  # atno 17320 bound_to 7965
  145.6898  139.1636  143.2653 LP  0  0  0  0  0  0  0  0  0  0  0  0  # atno 17321 bound_to 7965
  140.7596  143.3133  151.2794 LP  0  0  0  0  0  0  0  0  0  0  0  0  # atno 17342 bound_to 10162
  139.6664  144.0098  152.2725 LP  0  0  0  0  0  0  0  0  0  0  0  0  # atno 17343 bound_to 10162
  157.4695  130.7700  149.7310 LP  0  0  0  0  0  0  0  0  0  0  0  0  # atno 17370 bound_to 10713
  155.9890  130.3955  150.3093 LP  0  0  0  0  0  0  0  0  0  0  0  0  # atno 17371 bound_to 10713
  140.1823  134.4474  155.7764 LP  0  0  0  0  0  0  0  0  0  0  0  0  # atno 17394 bound_to 11000
  141.2222  133.6989  156.7889 LP  0  0  0  0  0  0  0  0  0  0  0  0  # atno 17395 bound_to 11000

$$$$
