AV-unprocessed.smi:15|AV-procd|sdf|84|dock5
  -GOLD-   2262015213D 1   1.00000     0.00000
 Structure written by MMmdl.
 53 56  0  0  0  0  0  0  0  0  1 V2000
  148.9217  141.7722  155.8855 C   0  0  0  0  0  0  0  0  0  0  0  0
  148.7177  140.9028  157.1328 C   0  0  0  0  0  0  0  0  0  0  0  0
  149.9722  140.6089  157.8249 N   0  0  0  0  0  0  0  0  0  0  0  0
  151.1482  141.4517  157.5974 C   0  0  0  0  0  0  0  0  0  0  0  0
  151.4479  142.4093  158.7681 C   0  0  1  0  0  0  0  0  0  0  0  0
  152.6184  141.9625  159.6414 C   0  0  0  0  0  0  0  0  0  0  0  0
  153.1359  143.2608  160.2445 C   0  0  0  0  0  0  0  0  0  0  0  0
  152.4721  144.3542  159.4035 C   0  0  0  0  0  0  0  0  0  0  0  0
  151.9090  143.6668  158.2972 O   0  0  0  0  0  0  0  0  0  0  0  0
  150.2674  139.3040  158.0365 C   0  0  0  0  0  0  0  0  0  0  0  0
  151.5791  138.9570  158.0681 N   0  0  0  0  0  0  0  0  0  0  0  0
  151.9320  137.6781  158.2251 C   0  0  0  0  0  0  0  0  0  0  0  0
  151.1487  136.6052  158.3490 N   0  0  0  0  0  0  0  0  0  0  0  0
  149.8292  136.9474  158.3042 C   0  0  0  0  0  0  0  0  0  0  0  0
  149.3029  138.2625  158.1655 C   0  0  0  0  0  0  0  0  0  0  0  0
  147.9132  138.2143  158.1550 N   0  0  0  0  0  0  0  0  0  0  0  0
  147.6359  136.9460  158.2813 C   0  0  0  0  0  0  0  0  0  0  0  0
  148.7277  136.1109  158.3509 N   0  0  0  0  0  0  0  0  0  0  0  0
  148.7124  134.6612  158.4649 C   0  0  0  0  0  0  0  0  0  0  0  0
  148.0197  134.1159  159.7416 C   0  0  1  0  0  0  0  0  0  0  0  0
  146.6462  134.4422  159.6128 O   0  0  0  0  0  0  0  0  0  0  0  0
  148.1423  132.6129  159.9508 C   0  0  0  0  0  0  0  0  0  0  0  0
  147.8111  132.4530  161.4311 C   0  0  0  0  0  0  0  0  0  0  0  0
  148.2930  133.6357  162.0589 O   0  0  0  0  0  0  0  0  0  0  0  0
  148.5709  134.6417  161.0862 C   0  0  2  0  0  0  0  0  0  0  0  0
  148.0605  136.0157  161.5466 C   0  0  0  0  0  0  0  0  0  0  0  0
  147.9619  142.0318  155.4389 H   0  0  0  0  0  0  0  0  0  0  0  0
  149.5059  141.2577  155.1231 H   0  0  0  0  0  0  0  0  0  0  0  0
  149.4335  142.7023  156.1342 H   0  0  0  0  0  0  0  0  0  0  0  0
  148.0425  141.4287  157.8094 H   0  0  0  0  0  0  0  0  0  0  0  0
  148.2210  139.9730  156.8561 H   0  0  0  0  0  0  0  0  0  0  0  0
  152.0093  140.8039  157.4382 H   0  0  0  0  0  0  0  0  0  0  0  0
  151.0342  142.0169  156.6714 H   0  0  0  0  0  0  0  0  0  0  0  0
  150.5654  142.5570  159.3927 H   0  0  0  0  0  0  0  0  0  0  0  0
  152.3237  141.2326  160.3956 H   0  0  0  0  0  0  0  0  0  0  0  0
  153.3975  141.5122  159.0247 H   0  0  0  0  0  0  0  0  0  0  0  0
  152.8548  143.3576  161.2936 H   0  0  0  0  0  0  0  0  0  0  0  0
  154.2234  143.3097  160.1817 H   0  0  0  0  0  0  0  0  0  0  0  0
  151.6743  144.8421  159.9653 H   0  0  0  0  0  0  0  0  0  0  0  0
  153.1754  145.1196  159.0748 H   0  0  0  0  0  0  0  0  0  0  0  0
  152.9945  137.4861  158.2461 H   0  0  0  0  0  0  0  0  0  0  0  0
  146.6196  136.5802  158.3088 H   0  0  0  0  0  0  0  0  0  0  0  0
  148.2217  134.2603  157.5768 H   0  0  0  0  0  0  0  0  0  0  0  0
  149.7446  134.3105  158.4229 H   0  0  0  0  0  0  0  0  0  0  0  0
  146.5603  135.3829  159.6386 H   0  0  0  0  0  0  0  0  0  0  0  0
  147.4937  132.0251  159.3003 H   0  0  0  0  0  0  0  0  0  0  0  0
  149.1665  132.2782  159.7907 H   0  0  0  0  0  0  0  0  0  0  0  0
  146.7319  132.3950  161.5777 H   0  0  0  0  0  0  0  0  0  0  0  0
  148.2597  131.5596  161.8660 H   0  0  0  0  0  0  0  0  0  0  0  0
  149.6583  134.6806  161.0397 H   0  0  0  0  0  0  0  0  0  0  0  0
  148.2658  136.7805  160.7974 H   0  0  0  0  0  0  0  0  0  0  0  0
  148.5519  136.3180  162.4714 H   0  0  0  0  0  0  0  0  0  0  0  0
  146.9868  136.0064  161.7348 H   0  0  0  0  0  0  0  0  0  0  0  0
  1  2  1  0  0  0  0
  1 27  1  0  0  0  0
  1 28  1  0  0  0  0
  1 29  1  0  0  0  0
  2  3  1  0  0  0  0
  2 30  1  0  0  0  0
  2 31  1  0  0  0  0
  3  4  1  0  0  0  0
  3 10  1  0  0  0  0
  4  5  1  0  0  0  0
  4 32  1  0  0  0  0
  4 33  1  0  0  0  0
  5  9  1  0  0  0  0
  5  6  1  0  0  0  0
  5 34  1  0  0  0  0
  6  7  1  0  0  0  0
  6 35  1  0  0  0  0
  6 36  1  0  0  0  0
  7  8  1  0  0  0  0
  7 37  1  0  0  0  0
  7 38  1  0  0  0  0
  8  9  1  0  0  0  0
  8 39  1  0  0  0  0
  8 40  1  0  0  0  0
 10 15  1  0  0  0  0
 10 11  2  0  0  0  0
 11 12  1  0  0  0  0
 12 13  2  0  0  0  0
 12 41  1  0  0  0  0
 13 14  1  0  0  0  0
 14 18  1  0  0  0  0
 14 15  2  0  0  0  0
 15 16  1  0  0  0  0
 16 17  2  0  0  0  0
 17 18  1  0  0  0  0
 17 42  1  0  0  0  0
 18 19  1  0  0  0  0
 19 20  1  0  0  0  0
 19 43  1  0  0  0  0
 19 44  1  0  0  0  0
 20 25  1  0  0  0  0
 20 21  1  0  0  0  0
 20 22  1  0  0  0  0
 21 45  1  0  0  0  0
 22 23  1  0  0  0  0
 22 46  1  0  0  0  0
 22 47  1  0  0  0  0
 23 24  1  0  0  0  0
 23 48  1  0  0  0  0
 23 49  1  0  0  0  0
 24 25  1  0  0  0  0
 25 26  1  0  0  0  0
 25 50  1  0  0  0  0
 26 51  1  0  0  0  0
 26 52  1  0  0  0  0
 26 53  1  0  0  0  0
M  END
> <s_m_source_file>
AV-unprocessed.smi

> <i_m_source_file_index>
15

> <i_lp_mmshare_version>
43012

> <i_f3d_flags>
0

> <s_epik_input>
TzFbQ0gyXVtDSDJdW0NIMl1bQ0BIXTFbQ0gyXU4oW0NIMl1bQ0gzXSljKG5bY0hdbjIpYyhjMjMpbltjSF1uM1tDSDJdW0NAQF00KFtPSF0pW0NIMl1bQ0gyXU9bQ0BIXTRbQ0gzXQ==

> <s_epik_cmdline>
J2VwaWtfcHl0aG9uJywgJy1waCcsICc3LjAnLCAnLXRuJywgJzgnLCAnLW1hJywgJzIwMCcsICctbWV0YWxfYmluZGluZycsICctaW1hZScsICc8aW5maWxlLm1hZT4nLCAnLW9tYWUnLCAnPG91dGZpbGUubWFlPic=

> <r_lp_tautomer_probability>
1

> <r_epik_Ionization_Penalty>
0.00360814

> <r_epik_Ionization_Penalty_Charging>
0

> <r_epik_Ionization_Penalty_Neutral>
0.00360814

> <r_epik_State_Penalty>
0.00237482

> <r_epik_Charging_Adjusted_Penalty>
0.00237482

> <i_epik_Tot_Q>
0

> <i_epik_Tot_abs_Q>
0

> <r_epik_Metal_State_Penalty>
-0

> <b_epik_Metal_Only>
0

> <s_lp_Force_Field>
OPLS_2005

> <r_lp_Energy>
47.1955

> <b_lp_Chiralities_Consistent>
1

> <s_lp_Variant>
AV-unprocessed.smi:15-6

> <Gold.Version>
5.8.1

> <Gold.Id.Protein>
6NUR|6NUR_protein|mol2

> <Gold.PLP.Fitness>
45.7197

> <Gold.PLP.PLP>
-43.9243

> <Gold.PLP.part.hbond>
-1.2489

> <Gold.PLP.part.metal>
0.0000

> <Gold.PLP.part.buried>
-6.6885

> <Gold.PLP.part.nonpolar>
-36.1423

> <Gold.PLP.part.repulsive>
0.0802

> <Gold.PLP.ligand.clash>
0.0000

> <Gold.PLP.ligand.torsion>
1.0798

> <Gold.PLP.Chemscore.Hbond>
1.0000

> <Gold.PLP.Chemscore.CHOScore>
0.0000

> <Gold.PLP.Chemscore.Metal>
0.0000

> <Gold.Chemscore.Hbonds>
donor molecule, donor type, donor heavy atom, donor atom, acceptor molecule, acceptor atom, score
      P1  H  6896  6909       L1    13  0.43

> <Gold.PLP.Chemscore.Internal.Correction>
0.9550

> <Gold.Rescore>
     Score         DG    S(hbond)    S(metal)    S(lipo)     H(rot)  DE(clash)    DE(int)     intcor
     12.32     -14.67       0.98        0.00     103.97       2.44       0.08       2.28       ----

> <Gold.Chemscore.Fitness>
12.3171

> <Gold.Chemscore.DG>
-14.6738

> <Gold.Chemscore.ZeroCoef>
-5.4800

> <Gold.Chemscore.Hbond>
0.9832

> <Gold.Chemscore.Metal>
0.0000

> <Gold.Chemscore.Lipo>
103.9692

> <Gold.Chemscore.Internal_Hbond>
0.0000

> <Gold.Chemscore.DEClash>
0.0766

> <Gold.Chemscore.DEInternal>
2.2801

> <Gold.Chemscore.Rot>
2.4431

> <Gold.Chemscore.Internal.Correction>
   9.000000E+99

> <Gold.Chemscore.Hbonds>
donor molecule, donor type, donor heavy atom, donor atom, acceptor molecule, acceptor atom, score
      P1  H  6896  6909       L1    13  0.09

> <Gold.Chemscore.Hbond.Weighted>
-3.2838

> <Gold.Chemscore.Metal.Weighted>
-0.0000

> <Gold.Chemscore.Lipo.Weighted>
-12.1644

> <Gold.Chemscore.Internal_Hbond.Weighted>
0.0000

> <Gold.Chemscore.DEClash.Weighted>
0.0766

> <Gold.Chemscore.DEInternal.Weighted>
2.2801

> <Gold.Chemscore.Rot.Weighted>
6.2544

> <Gold.Chemscore.Internal.Correction.Weighted>
   9.000000E+99

> <Gold.Protein.RotatedTorsions>
[ 6907 6896 6895 6894 ] final   81.61 input  -60.11 | X-H torsion
[ 7974 7965 7964 7962 ] final -124.53 input  175.53 | X-H torsion
[ 8008 7997 7996 7995 ] final   59.82 input   59.86 | X-H torsion
[ 10167 10162 10161 10158 ] final  -12.71 input  -65.29 | X-H torsion
[ 10718 10713 10712 10709 ] final  142.30 input   66.30 | X-H torsion
[ 10763 10752 10751 10750 ] final   -8.44 input  -60.55 | X-H torsion
[ 11005 11000 10999 10996 ] final -171.79 input  -57.11 | X-H torsion

> <Gold.Protein.ActiveResidues>
 VAL166  LYS551  ARG553  GLY616  TRP617  ASP618  TYR619  PRO620  LYS621  CYS622 
 ASP623  PHE694  ASN695  SER759  ASP760  ASP761  ALA762  ILE779  LEU786  VAL792 
 PHE793  MET794  SER795  GLU796  ALA797  LYS798  CYS799  TRP800  GLU811  SER814 

> <Gold.Protein.RotatedAtoms>
  152.5274  134.3177  159.9136 H   0  0  0  0  0  0  0  0  0  0  0  0  # atno 6907 bound_to 6896
  151.3127  133.4067  159.2656 H   0  0  0  0  0  0  0  0  0  0  0  0  # atno 6908 bound_to 6896
  151.0025  134.9350  159.8019 H   0  0  0  0  0  0  0  0  0  0  0  0  # atno 6909 bound_to 6896
  145.0071  140.7872  143.4461 H   0  0  0  0  0  0  0  0  0  0  0  0  # atno 7974 bound_to 7965
  155.5723  140.3490  155.4518 H   0  0  0  0  0  0  0  0  0  0  0  0  # atno 8008 bound_to 7997
  156.0435  140.1301  157.0155 H   0  0  0  0  0  0  0  0  0  0  0  0  # atno 8009 bound_to 7997
  154.4402  140.1019  156.6257 H   0  0  0  0  0  0  0  0  0  0  0  0  # atno 8010 bound_to 7997
  140.7167  143.5503  150.9309 H   0  0  0  0  0  0  0  0  0  0  0  0  # atno 10167 bound_to 10162
  157.3822  131.0993  151.0728 H   0  0  0  0  0  0  0  0  0  0  0  0  # atno 10718 bound_to 10713
  153.4405  135.7013  153.6172 H   0  0  0  0  0  0  0  0  0  0  0  0  # atno 10763 bound_to 10752
  153.4549  135.3749  155.2305 H   0  0  0  0  0  0  0  0  0  0  0  0  # atno 10764 bound_to 10752
  154.8727  135.4006  154.3802 H   0  0  0  0  0  0  0  0  0  0  0  0  # atno 10765 bound_to 10752
  140.5043  134.5863  157.4998 H   0  0  0  0  0  0  0  0  0  0  0  0  # atno 11005 bound_to 11000
  145.2074  139.2221  143.5161 LP  0  0  0  0  0  0  0  0  0  0  0  0  # atno 17320 bound_to 7965
  146.3463  140.1905  142.8589 LP  0  0  0  0  0  0  0  0  0  0  0  0  # atno 17321 bound_to 7965
  139.9227  143.6587  152.3093 LP  0  0  0  0  0  0  0  0  0  0  0  0  # atno 17342 bound_to 10162
  139.7009  144.7635  151.1274 LP  0  0  0  0  0  0  0  0  0  0  0  0  # atno 17343 bound_to 10162
  157.1792  130.6302  149.5666 LP  0  0  0  0  0  0  0  0  0  0  0  0  # atno 17370 bound_to 10713
  155.9778  130.4759  150.6618 LP  0  0  0  0  0  0  0  0  0  0  0  0  # atno 17371 bound_to 10713
  139.9695  134.7316  156.0069 LP  0  0  0  0  0  0  0  0  0  0  0  0  # atno 17394 bound_to 11000
  141.1419  133.6563  156.3755 LP  0  0  0  0  0  0  0  0  0  0  0  0  # atno 17395 bound_to 11000

$$$$
