AV-unprocessed.smi:2154|AV-procd|sdf|8772|dock6
  -GOLD-   2272011553D 1   1.00000     0.00000
 Structure written by MMmdl.
 32 33  0  0  0  0  0  0  0  0  1 V2000
  152.8151  142.8166  159.9300 C   0  0  0  0  0  0  0  0  0  0  0  0
  152.5537  144.1907  159.3459 C   0  0  2  0  0  0  0  0  0  0  0  0
  151.7015  145.1946  160.0871 C   0  0  0  0  0  0  0  0  0  0  0  0
  151.2020  144.5966  158.7923 C   0  0  2  0  0  0  0  0  0  0  0  0
  150.0164  143.6463  158.7764 C   0  0  0  0  0  0  0  0  0  0  0  0
  149.7088  143.0750  157.4719 N   0  0  0  0  0  0  0  0  0  0  0  0
  149.6971  141.7641  157.1875 C   0  0  0  0  0  0  0  0  0  0  0  0
  149.9236  140.8904  158.0257 O   0  0  0  0  0  0  0  0  0  0  0  0
  149.3562  141.3895  155.7382 C   0  0  0  0  0  0  0  0  0  0  0  0
  150.0417  140.1701  155.2857 N   0  0  0  0  0  0  0  0  0  0  0  0
  151.3274  139.8844  155.7226 C   0  0  0  0  0  0  0  0  0  0  0  0
  152.0175  138.7840  155.3399 C   0  0  0  0  0  0  0  0  0  0  0  0
  151.4206  137.8199  154.4217 C   0  0  0  0  0  0  0  0  0  0  0  0
  151.9639  136.7936  154.0190 O   0  0  0  0  0  0  0  0  0  0  0  0
  150.1277  138.1441  154.0021 N   0  0  0  0  0  0  0  0  0  0  0  0
  149.4116  139.2770  154.3915 C   0  0  0  0  0  0  0  0  0  0  0  0
  148.2760  139.4695  153.9588 O   0  0  0  0  0  0  0  0  0  0  0  0
  149.6743  137.5071  153.3634 H   0  0  0  0  0  0  0  0  0  0  0  0
  151.9860  142.4864  160.5552 H   0  0  0  0  0  0  0  0  0  0  0  0
  153.7157  142.8396  160.5435 H   0  0  0  0  0  0  0  0  0  0  0  0
  152.9600  142.0912  159.1293 H   0  0  0  0  0  0  0  0  0  0  0  0
  153.4111  144.5961  158.8121 H   0  0  0  0  0  0  0  0  0  0  0  0
  151.2255  144.8716  161.0111 H   0  0  0  0  0  0  0  0  0  0  0  0
  152.0190  146.2352  160.0686 H   0  0  0  0  0  0  0  0  0  0  0  0
  151.2498  145.2402  157.9156 H   0  0  0  0  0  0  0  0  0  0  0  0
  150.2019  142.8441  159.4925 H   0  0  0  0  0  0  0  0  0  0  0  0
  149.1253  144.1678  159.1245 H   0  0  0  0  0  0  0  0  0  0  0  0
  149.5059  143.7245  156.7258 H   0  0  0  0  0  0  0  0  0  0  0  0
  148.2747  141.2657  155.6672 H   0  0  0  0  0  0  0  0  0  0  0  0
  149.5950  142.2209  155.0716 H   0  0  0  0  0  0  0  0  0  0  0  0
  151.8109  140.5729  156.4011 H   0  0  0  0  0  0  0  0  0  0  0  0
  153.0169  138.6163  155.7146 H   0  0  0  0  0  0  0  0  0  0  0  0
  1  2  1  0  0  0  0
  1 19  1  0  0  0  0
  1 20  1  0  0  0  0
  1 21  1  0  0  0  0
  2  4  1  0  0  0  0
  2  3  1  0  0  0  0
  2 22  1  0  0  0  0
  3  4  1  0  0  0  0
  3 23  1  0  0  0  0
  3 24  1  0  0  0  0
  4  5  1  0  0  0  0
  4 25  1  0  0  0  0
  5  6  1  0  0  0  0
  5 26  1  0  0  0  0
  5 27  1  0  0  0  0
  6  7  1  0  0  0  0
  6 28  1  0  0  0  0
  7  8  2  0  0  0  0
  7  9  1  0  0  0  0
  9 10  1  0  0  0  0
  9 29  1  0  0  0  0
  9 30  1  0  0  0  0
 10 16  1  0  0  0  0
 10 11  1  0  0  0  0
 11 12  2  0  0  0  0
 11 31  1  0  0  0  0
 12 13  1  0  0  0  0
 12 32  1  0  0  0  0
 13 14  2  0  0  0  0
 13 15  1  0  0  0  0
 15 18  1  0  0  0  0
 15 16  1  0  0  0  0
 16 17  2  0  0  0  0
M  END
> <s_m_source_file>
AV-unprocessed.smi

> <i_m_source_file_index>
2154

> <i_lp_mmshare_version>
43012

> <i_f3d_flags>
0

> <s_epik_input>
W0NIM11bQ0BASF0xW0NIMl1bQ0BIXTFbQ0gyXVtOSF1DKD1PKVtDSDJdbjJbY0hdW2NIXWMoPU8pW25IXWMyPU8=

> <s_epik_cmdline>
J2VwaWtfcHl0aG9uJywgJy1waCcsICc3LjAnLCAnLXRuJywgJzgnLCAnLW1hJywgJzIwMCcsICctbWV0YWxfYmluZGluZycsICctaW1hZScsICc8aW5maWxlLm1hZT4nLCAnLW9tYWUnLCAnPG91dGZpbGUubWFlPic=

> <r_lp_tautomer_probability>
0.999537

> <r_epik_Ionization_Penalty>
0.00305319

> <r_epik_Ionization_Penalty_Charging>
0.00305317

> <r_epik_Ionization_Penalty_Neutral>
2.06703e-08

> <r_epik_State_Penalty>
0.00214626

> <r_epik_Charging_Adjusted_Penalty>
0.00519944

> <i_epik_Tot_Q>
0

> <i_epik_Tot_abs_Q>
0

> <r_epik_Metal_State_Penalty>
0.361976

> <b_epik_Metal_Only>
0

> <s_lp_Force_Field>
OPLS_2005

> <r_lp_Energy>
15.9584

> <b_lp_Chiralities_Consistent>
1

> <s_lp_Variant>
AV-unprocessed.smi:2154-3

> <Gold.Version>
5.8.1

> <Gold.Id.Protein>
6NUR|6NUR_protein|mol2

> <Gold.PLP.Fitness>
44.8399

> <Gold.PLP.PLP>
-37.7469

> <Gold.PLP.part.hbond>
-2.6128

> <Gold.PLP.part.metal>
0.0000

> <Gold.PLP.part.buried>
-5.9225

> <Gold.PLP.part.nonpolar>
-33.6781

> <Gold.PLP.part.repulsive>
3.0247

> <Gold.PLP.ligand.clash>
0.0000

> <Gold.PLP.ligand.torsion>
1.0364

> <Gold.PLP.Chemscore.Hbond>
2.8775

> <Gold.PLP.Chemscore.CHOScore>
0.0000

> <Gold.PLP.Chemscore.Metal>
0.0000

> <Gold.Chemscore.Hbonds>
donor molecule, donor type, donor heavy atom, donor atom, acceptor molecule, acceptor atom, score
      L1  H     6    28       P1  8028  1.00
      L1  H    15    18       P1  7948  0.93
      P1  H 10752 10763       L1    14  0.93

> <Gold.PLP.Chemscore.Internal.Correction>
0.5332

> <Gold.Rescore>
     Score         DG    S(hbond)    S(metal)    S(lipo)     H(rot)  DE(clash)    DE(int)     intcor
     15.22     -19.25       2.91        0.00      78.60       2.01       1.66       2.37       ----

> <Gold.Chemscore.Fitness>
15.2198

> <Gold.Chemscore.DG>
-19.2504

> <Gold.Chemscore.ZeroCoef>
-5.4800

> <Gold.Chemscore.Hbond>
2.9074

> <Gold.Chemscore.Metal>
0.0000

> <Gold.Chemscore.Lipo>
78.6023

> <Gold.Chemscore.Internal_Hbond>
0.0000

> <Gold.Chemscore.DEClash>
1.6617

> <Gold.Chemscore.DEInternal>
2.3690

> <Gold.Chemscore.Rot>
2.0065

> <Gold.Chemscore.Internal.Correction>
   9.000000E+99

> <Gold.Chemscore.Hbonds>
donor molecule, donor type, donor heavy atom, donor atom, acceptor molecule, acceptor atom, score
      L1  H     6    28       P1  8028  0.95
      L1  H    15    18       P1  7948  0.69
      P1  H 10752 10763       L1    14  0.88

> <Gold.Chemscore.Hbond.Weighted>
-9.7106

> <Gold.Chemscore.Metal.Weighted>
-0.0000

> <Gold.Chemscore.Lipo.Weighted>
-9.1965

> <Gold.Chemscore.Internal_Hbond.Weighted>
0.0000

> <Gold.Chemscore.DEClash.Weighted>
1.6617

> <Gold.Chemscore.DEInternal.Weighted>
2.3690

> <Gold.Chemscore.Rot.Weighted>
5.1366

> <Gold.Chemscore.Internal.Correction.Weighted>
   9.000000E+99

> <Gold.Protein.RotatedTorsions>
[ 6907 6896 6895 6894 ] final   61.84 input  -60.11 | X-H torsion
[ 7974 7965 7964 7962 ] final  -52.01 input  175.53 | X-H torsion
[ 8008 7997 7996 7995 ] final -163.41 input   59.86 | X-H torsion
[ 10167 10162 10161 10158 ] final  143.28 input  -65.29 | X-H torsion
[ 10718 10713 10712 10709 ] final    3.15 input   66.30 | X-H torsion
[ 10763 10752 10751 10750 ] final   32.42 input  -60.55 | X-H torsion
[ 11005 11000 10999 10996 ] final   52.03 input  -57.11 | X-H torsion

> <Gold.Protein.ActiveResidues>
 VAL166  LYS551  ARG553  GLY616  TRP617  ASP618  TYR619  PRO620  LYS621  CYS622 
 ASP623  PHE694  ASN695  SER759  ASP760  ASP761  ALA762  ILE779  LEU786  VAL792 
 PHE793  MET794  SER795  GLU796  ALA797  LYS798  CYS799  TRP800  GLU811  SER814 

> <Gold.Protein.RotatedAtoms>
  152.4123  134.6103  160.0023 H   0  0  0  0  0  0  0  0  0  0  0  0  # atno 6907 bound_to 6896
  151.6277  133.3328  159.3110 H   0  0  0  0  0  0  0  0  0  0  0  0  # atno 6908 bound_to 6896
  150.8013  134.7148  159.6669 H   0  0  0  0  0  0  0  0  0  0  0  0  # atno 6909 bound_to 6896
  145.9126  140.7902  142.9687 H   0  0  0  0  0  0  0  0  0  0  0  0  # atno 7974 bound_to 7965
  155.8208  140.0919  157.1850 H   0  0  0  0  0  0  0  0  0  0  0  0  # atno 8008 bound_to 7997
  154.3979  140.1437  156.3558 H   0  0  0  0  0  0  0  0  0  0  0  0  # atno 8009 bound_to 7997
  155.8268  140.3444  155.5550 H   0  0  0  0  0  0  0  0  0  0  0  0  # atno 8010 bound_to 7997
  139.4973  144.6051  151.6396 H   0  0  0  0  0  0  0  0  0  0  0  0  # atno 10167 bound_to 10162
  156.8736  130.5628  149.5656 H   0  0  0  0  0  0  0  0  0  0  0  0  # atno 10718 bound_to 10713
  153.0263  135.6413  154.1353 H   0  0  0  0  0  0  0  0  0  0  0  0  # atno 10763 bound_to 10752
  154.1081  135.2855  155.3238 H   0  0  0  0  0  0  0  0  0  0  0  0  # atno 10764 bound_to 10752
  154.6351  135.5479  153.7787 H   0  0  0  0  0  0  0  0  0  0  0  0  # atno 10765 bound_to 10752
  140.0883  134.5244  155.8877 H   0  0  0  0  0  0  0  0  0  0  0  0  # atno 11005 bound_to 11000
  144.6745  140.1850  143.7402 LP  0  0  0  0  0  0  0  0  0  0  0  0  # atno 17320 bound_to 7965
  145.8652  139.2243  143.1693 LP  0  0  0  0  0  0  0  0  0  0  0  0  # atno 17321 bound_to 7965
  140.5711  144.0108  150.6217 LP  0  0  0  0  0  0  0  0  0  0  0  0  # atno 17342 bound_to 10162
  140.3225  143.3128  152.0769 LP  0  0  0  0  0  0  0  0  0  0  0  0  # atno 17343 bound_to 10162
  156.0714  130.5746  150.9390 LP  0  0  0  0  0  0  0  0  0  0  0  0  # atno 17370 bound_to 10713
  157.6181  131.0932  150.8672 LP  0  0  0  0  0  0  0  0  0  0  0  0  # atno 17371 bound_to 10713
  141.2070  133.6660  156.6275 LP  0  0  0  0  0  0  0  0  0  0  0  0  # atno 17394 bound_to 11000
  140.3389  134.7866  157.4382 LP  0  0  0  0  0  0  0  0  0  0  0  0  # atno 17395 bound_to 11000

$$$$
