AV-unprocessed.smi:2547|AV-procd|sdf|10005|dock1
  -GOLD-   2272014 53D 1   1.00000     0.00000
 Structure written by MMmdl.
 44 45  0  0  0  0  0  0  0  0  2 V2000
  146.1797  142.7854  154.1936 C   0  0  0  0  0  0  0  0  0  0  0  0
  147.3528  142.3386  154.9749 N   0  3  2  0  0  0  0  0  0  0  0  0
  148.3867  141.6970  154.1251 C   0  0  0  0  0  0  0  0  0  0  0  0
  149.6445  141.3610  154.9438 C   0  0  0  0  0  0  0  0  0  0  0  0
  149.3008  140.4753  156.1532 C   0  0  1  0  0  0  0  0  0  0  0  0
  150.4923  140.2703  156.9734 N   0  0  0  0  0  0  0  0  0  0  0  0
  151.7353  140.0320  156.5275 C   0  0  0  0  0  0  0  0  0  0  0  0
  151.9871  139.9625  155.3210 O   0  0  0  0  0  0  0  0  0  0  0  0
  152.6001  139.8923  157.6076 N   0  0  0  0  0  0  0  0  0  0  0  0
  152.7799  140.8290  158.4939 C   0  0  0  0  0  0  0  0  0  0  0  0
  153.7004  140.6122  159.5971 C   0  0  0  0  0  0  0  0  0  0  0  0
  153.9060  141.5649  160.5294 C   0  0  0  0  0  0  0  0  0  0  0  0
  153.2163  142.8366  160.4629 C   0  0  0  0  0  0  0  0  0  0  0  0
  152.3555  143.0736  159.4548 C   0  0  0  0  0  0  0  0  0  0  0  0
  151.6993  144.2881  159.3945 N   0  0  0  0  0  0  0  0  0  0  0  0
  151.9226  145.3129  160.4001 C   0  0  0  0  0  0  0  0  0  0  0  0
  151.0487  144.7300  158.1725 C   0  0  0  0  0  0  0  0  0  0  0  0
  152.1464  142.0862  158.4936 N   0  0  0  0  0  0  0  0  0  0  0  0
  148.1976  141.1429  156.9912 C   0  0  0  0  0  0  0  0  0  0  0  0
  146.9720  141.4839  156.1271 C   0  0  0  0  0  0  0  0  0  0  0  0
  145.6655  141.9369  153.7398 H   0  0  0  0  0  0  0  0  0  0  0  0
  146.4835  143.4669  153.3983 H   0  0  0  0  0  0  0  0  0  0  0  0
  145.4707  143.3143  154.8314 H   0  0  0  0  0  0  0  0  0  0  0  0
  147.9792  140.7911  153.6736 H   0  0  0  0  0  0  0  0  0  0  0  0
  148.6543  142.3666  153.3066 H   0  0  0  0  0  0  0  0  0  0  0  0
  150.3751  140.8591  154.3081 H   0  0  0  0  0  0  0  0  0  0  0  0
  150.1131  142.2865  155.2822 H   0  0  0  0  0  0  0  0  0  0  0  0
  148.9180  139.5233  155.7811 H   0  0  0  0  0  0  0  0  0  0  0  0
  150.3632  140.3132  157.9742 H   0  0  0  0  0  0  0  0  0  0  0  0
  154.2441  139.6842  159.7005 H   0  0  0  0  0  0  0  0  0  0  0  0
  154.5959  141.3769  161.3387 H   0  0  0  0  0  0  0  0  0  0  0  0
  153.3961  143.5857  161.2208 H   0  0  0  0  0  0  0  0  0  0  0  0
  152.1461  144.8610  161.3671 H   0  0  0  0  0  0  0  0  0  0  0  0
  151.0404  145.9428  160.5178 H   0  0  0  0  0  0  0  0  0  0  0  0
  152.7637  145.9451  160.1150 H   0  0  0  0  0  0  0  0  0  0  0  0
  150.6715  143.8772  157.6072 H   0  0  0  0  0  0  0  0  0  0  0  0
  151.7550  145.2725  157.5436 H   0  0  0  0  0  0  0  0  0  0  0  0
  150.2072  145.3869  158.3942 H   0  0  0  0  0  0  0  0  0  0  0  0
  147.9005  140.4861  157.8098 H   0  0  0  0  0  0  0  0  0  0  0  0
  148.5808  142.0555  157.4506 H   0  0  0  0  0  0  0  0  0  0  0  0
  146.2301  142.0012  156.7368 H   0  0  0  0  0  0  0  0  0  0  0  0
  146.5017  140.5683  155.7642 H   0  0  0  0  0  0  0  0  0  0  0  0
  147.7736  143.1718  155.3611 H   0  0  0  0  0  0  0  0  0  0  0  0
  151.4898  142.3248  157.7643 H   0  0  0  0  0  0  0  0  0  0  0  0
  1  2  1  0  0  0  0
  1 21  1  0  0  0  0
  1 22  1  0  0  0  0
  1 23  1  0  0  0  0
  2 20  1  0  0  0  0
  2  3  1  0  0  0  0
  2 43  1  0  0  0  0
  3  4  1  0  0  0  0
  3 24  1  0  0  0  0
  3 25  1  0  0  0  0
  4  5  1  0  0  0  0
  4 26  1  0  0  0  0
  4 27  1  0  0  0  0
  5  6  1  0  0  0  0
  5 19  1  0  0  0  0
  5 28  1  0  0  0  0
  6  7  1  0  0  0  0
  6 29  1  0  0  0  0
  7  8  2  0  0  0  0
  7  9  1  0  0  0  0
  9 10  2  0  0  0  0
 10 18  1  0  0  0  0
 10 11  1  0  0  0  0
 11 12  2  0  0  0  0
 11 30  1  0  0  0  0
 12 13  1  0  0  0  0
 12 31  1  0  0  0  0
 13 14  2  0  0  0  0
 13 32  1  0  0  0  0
 14 15  1  0  0  0  0
 14 18  1  0  0  0  0
 15 16  1  0  0  0  0
 15 17  1  0  0  0  0
 16 33  1  0  0  0  0
 16 34  1  0  0  0  0
 16 35  1  0  0  0  0
 17 36  1  0  0  0  0
 17 37  1  0  0  0  0
 17 38  1  0  0  0  0
 18 44  1  0  0  0  0
 19 20  1  0  0  0  0
 19 39  1  0  0  0  0
 19 40  1  0  0  0  0
 20 41  1  0  0  0  0
 20 42  1  0  0  0  0
M  CHG  1   2   1
M  END
> <s_m_source_file>
AV-unprocessed.smi

> <i_m_source_file_index>
2547

> <i_lp_mmshare_version>
43012

> <i_f3d_flags>
0

> <s_epik_input>
W0NIM11OMVtDSDJdW0NIMl1bQ0hdKFtDSDJdW0NIMl0xKVtOSF1DKD1PKVtOSF1jMltjSF1bY0hdW2NIXWMobjIpTihbQ0gzXSlbQ0gzXQ==

> <s_epik_cmdline>
J2VwaWtfcHl0aG9uJywgJy1waCcsICc3LjAnLCAnLXRuJywgJzgnLCAnLW1hJywgJzIwMCcsICctbWV0YWxfYmluZGluZycsICctaW1hZScsICc8aW5maWxlLm1hZT4nLCAnLW9tYWUnLCAnPG91dGZpbGUubWFlPic=

> <r_lp_tautomer_probability>
0.999994

> <r_epik_Ionization_Penalty>
1.33208

> <r_epik_Ionization_Penalty_Charging>
1.33208

> <r_epik_Ionization_Penalty_Neutral>
6.0327e-08

> <r_epik_State_Penalty>
3.49719

> <r_epik_Charging_Adjusted_Penalty>
4.82927

> <i_epik_Tot_Q>
1

> <i_epik_Tot_abs_Q>
1

> <r_epik_Metal_State_Penalty>
3.51567

> <b_epik_Metal_Only>
1

> <s_lp_Force_Field>
OPLS_2005

> <r_lp_Energy>
40.9112

> <b_lp_Chiralities_Consistent>
1

> <s_lp_Variant>
AV-unprocessed.smi:2547-5

> <Gold.Version>
5.8.1

> <Gold.Id.Protein>
6NUR|6NUR_protein|mol2

> <Gold.PLP.Fitness>
54.0416

> <Gold.PLP.PLP>
-44.3937

> <Gold.PLP.part.hbond>
-3.0000

> <Gold.PLP.part.metal>
0.0000

> <Gold.PLP.part.buried>
-4.3439

> <Gold.PLP.part.nonpolar>
-36.6094

> <Gold.PLP.part.repulsive>
0.2171

> <Gold.PLP.ligand.clash>
0.0000

> <Gold.PLP.ligand.torsion>
0.8594

> <Gold.PLP.Chemscore.Hbond>
3.7480

> <Gold.PLP.Chemscore.CHOScore>
0.0000

> <Gold.PLP.Chemscore.Metal>
0.0000

> <Gold.Chemscore.Hbonds>
donor molecule, donor type, donor heavy atom, donor atom, acceptor molecule, acceptor atom, score
      L1  H     2    43       P1  8028  2.00
      P1  H  7989  7998       L1     8  0.80
      P1  H  7997  8009       L1     9  0.85

> <Gold.PLP.Chemscore.Internal.Correction>
0.1226

> <Gold.Rescore>
     Score         DG    S(hbond)    S(metal)    S(lipo)     H(rot)  DE(clash)    DE(int)     intcor
     15.18     -19.17       1.80        0.00      87.40       1.00       0.06       3.93       ----

> <Gold.Chemscore.Fitness>
15.1756

> <Gold.Chemscore.DG>
-19.1729

> <Gold.Chemscore.ZeroCoef>
-5.4800

> <Gold.Chemscore.Hbond>
1.8044

> <Gold.Chemscore.Metal>
0.0000

> <Gold.Chemscore.Lipo>
87.4045

> <Gold.Chemscore.Internal_Hbond>
0.0000

> <Gold.Chemscore.DEClash>
0.0638

> <Gold.Chemscore.DEInternal>
3.9336

> <Gold.Chemscore.Rot>
1.0000

> <Gold.Chemscore.Internal.Correction>
   9.000000E+99

> <Gold.Chemscore.Hbonds>
donor molecule, donor type, donor heavy atom, donor atom, acceptor molecule, acceptor atom, score
      L1  H     2    43       P1  8028  0.50
      P1  H  7989  7998       L1     8  0.75
      P1  H  7997  8009       L1     9  0.03

> <Gold.Chemscore.Hbond.Weighted>
-6.0266

> <Gold.Chemscore.Metal.Weighted>
-0.0000

> <Gold.Chemscore.Lipo.Weighted>
-10.2263

> <Gold.Chemscore.Internal_Hbond.Weighted>
0.0000

> <Gold.Chemscore.DEClash.Weighted>
0.0638

> <Gold.Chemscore.DEInternal.Weighted>
3.9336

> <Gold.Chemscore.Rot.Weighted>
2.5600

> <Gold.Chemscore.Internal.Correction.Weighted>
   9.000000E+99

> <Gold.Protein.RotatedTorsions>
[ 6907 6896 6895 6894 ] final  132.58 input  -60.11 | X-H torsion
[ 7974 7965 7964 7962 ] final -170.70 input  175.53 | X-H torsion
[ 8008 7997 7996 7995 ] final -177.93 input   59.86 | X-H torsion
[ 10167 10162 10161 10158 ] final  -70.89 input  -65.29 | X-H torsion
[ 10718 10713 10712 10709 ] final   55.35 input   66.30 | X-H torsion
[ 10763 10752 10751 10750 ] final  -50.21 input  -60.55 | X-H torsion
[ 11005 11000 10999 10996 ] final   80.06 input  -57.11 | X-H torsion

> <Gold.Protein.ActiveResidues>
 VAL166  LYS551  ARG553  GLY616  TRP617  ASP618  TYR619  PRO620  LYS621  CYS622 
 ASP623  PHE694  ASN695  SER759  ASP760  ASP761  ALA762  ILE779  LEU786  VAL792 
 PHE793  MET794  SER795  GLU796  ALA797  LYS798  CYS799  TRP800  GLU811  SER814 

> <Gold.Protein.RotatedAtoms>
  152.3309  133.5957  159.5808 H   0  0  0  0  0  0  0  0  0  0  0  0  # atno 6907 bound_to 6896
  150.7422  133.9870  159.3603 H   0  0  0  0  0  0  0  0  0  0  0  0  # atno 6908 bound_to 6896
  151.7745  135.0778  160.0416 H   0  0  0  0  0  0  0  0  0  0  0  0  # atno 6909 bound_to 6896
  144.7166  140.2032  143.6336 H   0  0  0  0  0  0  0  0  0  0  0  0  # atno 7974 bound_to 7965
  156.0128  140.1244  157.0437 H   0  0  0  0  0  0  0  0  0  0  0  0  # atno 8008 bound_to 7997
  154.4282  140.1084  156.5923 H   0  0  0  0  0  0  0  0  0  0  0  0  # atno 8009 bound_to 7997
  155.6056  140.3471  155.4609 H   0  0  0  0  0  0  0  0  0  0  0  0  # atno 8010 bound_to 7997
  140.5317  143.2321  151.7250 H   0  0  0  0  0  0  0  0  0  0  0  0  # atno 10167 bound_to 10162
  157.5338  130.8649  149.8724 H   0  0  0  0  0  0  0  0  0  0  0  0  # atno 10718 bound_to 10713
  154.1067  135.6555  153.4877 H   0  0  0  0  0  0  0  0  0  0  0  0  # atno 10763 bound_to 10752
  153.0270  135.5238  154.7233 H   0  0  0  0  0  0  0  0  0  0  0  0  # atno 10764 bound_to 10752
  154.6401  135.2987  155.0083 H   0  0  0  0  0  0  0  0  0  0  0  0  # atno 10765 bound_to 10752
  139.9149  134.7891  156.1859 H   0  0  0  0  0  0  0  0  0  0  0  0  # atno 11005 bound_to 11000
  145.8660  139.2247  143.1688 LP  0  0  0  0  0  0  0  0  0  0  0  0  # atno 17320 bound_to 7965
  146.0129  140.8419  142.9962 LP  0  0  0  0  0  0  0  0  0  0  0  0  # atno 17321 bound_to 7965
  139.4956  144.4104  152.0086 LP  0  0  0  0  0  0  0  0  0  0  0  0  # atno 17342 bound_to 10162
  140.3207  144.3431  150.6010 LP  0  0  0  0  0  0  0  0  0  0  0  0  # atno 17343 bound_to 10162
  156.0442  130.3731  150.1358 LP  0  0  0  0  0  0  0  0  0  0  0  0  # atno 17370 bound_to 10713
  156.9541  130.9784  151.3492 LP  0  0  0  0  0  0  0  0  0  0  0  0  # atno 17371 bound_to 10713
  141.0613  133.6840  156.1959 LP  0  0  0  0  0  0  0  0  0  0  0  0  # atno 17394 bound_to 11000
  140.6656  134.4922  157.5585 LP  0  0  0  0  0  0  0  0  0  0  0  0  # atno 17395 bound_to 11000

$$$$
