AV-unprocessed.smi:110|AV-procd|sdf|1065|dock2
  -GOLD-   2262018143D 1   1.00000     0.00000
 Structure written by MMmdl.
 46 50  0  0  0  0  0  0  0  0  1 V2000
  148.5723  132.4998  158.8584 O   0  0  0  0  0  0  0  0  0  0  0  0
  148.6879  132.3240  157.4626 C   0  0  0  0  0  0  0  0  0  0  0  0
  149.0225  133.6627  156.7871 C   0  0  1  0  0  0  0  0  0  0  0  0
  150.1873  134.2293  157.3881 O   0  0  0  0  0  0  0  0  0  0  0  0
  150.9181  134.9633  156.4493 C   0  0  2  0  0  0  0  0  0  0  0  0
  151.0234  136.3914  156.8966 N   0  0  0  0  0  0  0  0  0  0  0  0
  150.5729  136.9217  158.0839 C   0  0  0  0  0  0  0  0  0  0  0  0
  150.7789  138.2004  158.2404 N   0  0  0  0  0  0  0  0  0  0  0  0
  151.4312  138.5882  157.0762 C   0  0  0  0  0  0  0  0  0  0  0  0
  151.9400  139.8235  156.5805 C   0  0  0  0  0  0  0  0  0  0  0  0
  151.8764  141.0043  157.2399 N   0  0  0  0  0  0  0  0  0  0  0  0
  150.8789  142.0008  156.8242 C   0  0  0  0  0  0  0  0  0  0  0  0
  150.6810  142.9796  157.9973 C   0  0  0  0  0  0  0  0  0  0  0  0
  151.7128  142.4846  158.9585 C   0  0  0  0  0  0  0  0  0  0  0  0
  152.0520  143.0398  160.2044 C   0  0  0  0  0  0  0  0  0  0  0  0
  153.0805  142.4240  160.9490 C   0  0  0  0  0  0  0  0  0  0  0  0
  153.7493  141.2869  160.4391 C   0  0  0  0  0  0  0  0  0  0  0  0
  153.3926  140.7474  159.1836 C   0  0  0  0  0  0  0  0  0  0  0  0
  152.3491  141.3545  158.4548 C   0  0  0  0  0  0  0  0  0  0  0  0
  152.4814  139.8265  155.3361 N   0  0  0  0  0  0  0  0  0  0  0  0
  152.5597  138.6923  154.6355 C   0  0  0  0  0  0  0  0  0  0  0  0
  152.1498  137.4711  154.9797 N   0  0  0  0  0  0  0  0  0  0  0  0
  151.5758  137.4608  156.2172 C   0  0  0  0  0  0  0  0  0  0  0  0
  150.2271  134.7989  155.0821 C   0  0  2  0  0  0  0  0  0  0  0  0
  149.4057  135.8989  154.7217 O   0  0  0  0  0  0  0  0  0  0  0  0
  149.4323  133.5226  155.3196 C   0  0  2  0  0  0  0  0  0  0  0  0
  148.3325  133.3764  154.4403 O   0  0  0  0  0  0  0  0  0  0  0  0
  148.1880  134.3615  156.8653 H   0  0  0  0  0  0  0  0  0  0  0  0
  151.9464  134.5996  156.4473 H   0  0  0  0  0  0  0  0  0  0  0  0
  150.9818  134.6678  154.3062 H   0  0  0  0  0  0  0  0  0  0  0  0
  150.0941  132.6628  155.2045 H   0  0  0  0  0  0  0  0  0  0  0  0
  147.8411  133.0733  159.0299 H   0  0  0  0  0  0  0  0  0  0  0  0
  149.4375  131.5657  157.2352 H   0  0  0  0  0  0  0  0  0  0  0  0
  147.7292  131.9511  157.1010 H   0  0  0  0  0  0  0  0  0  0  0  0
  150.0802  136.3249  158.8377 H   0  0  0  0  0  0  0  0  0  0  0  0
  151.2470  142.5299  155.9443 H   0  0  0  0  0  0  0  0  0  0  0  0
  149.9375  141.5201  156.5543 H   0  0  0  0  0  0  0  0  0  0  0  0
  150.8690  144.0146  157.7104 H   0  0  0  0  0  0  0  0  0  0  0  0
  149.6853  142.8985  158.4339 H   0  0  0  0  0  0  0  0  0  0  0  0
  151.5432  143.9156  160.5792 H   0  0  0  0  0  0  0  0  0  0  0  0
  153.3639  142.8281  161.9096 H   0  0  0  0  0  0  0  0  0  0  0  0
  154.5425  140.8296  161.0119 H   0  0  0  0  0  0  0  0  0  0  0  0
  153.9178  139.8882  158.7940 H   0  0  0  0  0  0  0  0  0  0  0  0
  153.0143  138.7747  153.6595 H   0  0  0  0  0  0  0  0  0  0  0  0
  149.3853  135.9616  153.7790 H   0  0  0  0  0  0  0  0  0  0  0  0
  148.5843  132.7975  153.7373 H   0  0  0  0  0  0  0  0  0  0  0  0
  1  2  1  0  0  0  0
  1 32  1  0  0  0  0
  2  3  1  0  0  0  0
  2 33  1  0  0  0  0
  2 34  1  0  0  0  0
  3 28  1  0  0  0  0
  3 26  1  0  0  0  0
  3  4  1  0  0  0  0
  4  5  1  0  0  0  0
  5 29  1  0  0  0  0
  5  6  1  0  0  0  0
  5 24  1  0  0  0  0
  6 23  1  0  0  0  0
  6  7  1  0  0  0  0
  7  8  2  0  0  0  0
  7 35  1  0  0  0  0
  8  9  1  0  0  0  0
  9 23  2  0  0  0  0
  9 10  1  0  0  0  0
 10 11  1  0  0  0  0
 10 20  2  0  0  0  0
 11 19  1  0  0  0  0
 11 12  1  0  0  0  0
 12 13  1  0  0  0  0
 12 36  1  0  0  0  0
 12 37  1  0  0  0  0
 13 14  1  0  0  0  0
 13 38  1  0  0  0  0
 13 39  1  0  0  0  0
 14 19  2  0  0  0  0
 14 15  1  0  0  0  0
 15 16  2  0  0  0  0
 15 40  1  0  0  0  0
 16 17  1  0  0  0  0
 16 41  1  0  0  0  0
 17 18  2  0  0  0  0
 17 42  1  0  0  0  0
 18 19  1  0  0  0  0
 18 43  1  0  0  0  0
 20 21  1  0  0  0  0
 21 22  2  0  0  0  0
 21 44  1  0  0  0  0
 22 23  1  0  0  0  0
 24 30  1  0  0  0  0
 24 25  1  0  0  0  0
 24 26  1  0  0  0  0
 25 45  1  0  0  0  0
 26 31  1  0  0  0  0
 26 27  1  0  0  0  0
 27 46  1  0  0  0  0
M  END
> <s_m_source_file>
AV-unprocessed.smi

> <i_m_source_file_index>
110

> <i_lp_mmshare_version>
43012

> <i_f3d_flags>
0

> <s_epik_input>
W09IXVtDSDJdW0NASF0xT1tDQEhdKFtDQEhdKFtPSF0pW0NAQEhdMVtPSF0pbihbY0hdbjIpYyhjMjMpbltjSF1uYzNOKFtDSDJdW0NIMl00KWMoYzQ1KVtjSF1bY0hdW2NIXVtjSF01

> <s_epik_cmdline>
J2VwaWtfcHl0aG9uJywgJy1waCcsICc3LjAnLCAnLXRuJywgJzgnLCAnLW1hJywgJzIwMCcsICctbWV0YWxfYmluZGluZycsICctaW1hZScsICc8aW5maWxlLm1hZT4nLCAnLW9tYWUnLCAnPG91dGZpbGUubWFlPic=

> <r_lp_tautomer_probability>
1

> <r_epik_Ionization_Penalty>
0.00068475

> <r_epik_Ionization_Penalty_Charging>
0

> <r_epik_Ionization_Penalty_Neutral>
0.00068475

> <r_epik_State_Penalty>
0.000417442

> <r_epik_Charging_Adjusted_Penalty>
0.000417442

> <i_epik_Tot_Q>
0

> <i_epik_Tot_abs_Q>
0

> <r_epik_Metal_State_Penalty>
-0

> <b_epik_Metal_Only>
0

> <s_epik_Chemistry_Notes>
This compound contains an acetal/aminal-like group ( X-CH(R)-Y where X, Y are N, S, or O) that may be acid/base labile, releasing an aldehyde.

> <s_lp_Force_Field>
OPLS_2005

> <r_lp_Energy>
69.6213

> <b_lp_Chiralities_Consistent>
1

> <s_lp_Variant>
AV-unprocessed.smi:110-3

> <Gold.Version>
5.8.1

> <Gold.Id.Protein>
6NUR|6NUR_protein|mol2

> <Gold.PLP.Fitness>
51.8957

> <Gold.PLP.PLP>
-43.5845

> <Gold.PLP.part.hbond>
-4.9807

> <Gold.PLP.part.metal>
0.0000

> <Gold.PLP.part.buried>
-7.1560

> <Gold.PLP.part.nonpolar>
-31.5926

> <Gold.PLP.part.repulsive>
0.0730

> <Gold.PLP.ligand.clash>
0.0000

> <Gold.PLP.ligand.torsion>
1.3143

> <Gold.PLP.Chemscore.Hbond>
3.6077

> <Gold.PLP.Chemscore.CHOScore>
0.0000

> <Gold.PLP.Chemscore.Metal>
0.0000

> <Gold.Chemscore.Hbonds>
donor molecule, donor type, donor heavy atom, donor atom, acceptor molecule, acceptor atom, score
      L1  H    25    45       P1  7948  1.00
      P1  H  6896  6908       L1     4  0.82
      P1  H  7989  7998       L1    20  0.13
      P1  H  7997  8008       L1    20  0.78
      P1  H 10752 10763       L1    22  0.71

> <Gold.PLP.Chemscore.Internal.Correction>
0.1168

> <Gold.Rescore>
     Score         DG    S(hbond)    S(metal)    S(lipo)     H(rot)  DE(clash)    DE(int)     intcor
     15.68     -16.92       2.80        0.00      92.00       3.38       0.00       1.25       ----

> <Gold.Chemscore.Fitness>
15.6752

> <Gold.Chemscore.DG>
-16.9211

> <Gold.Chemscore.ZeroCoef>
-5.4800

> <Gold.Chemscore.Hbond>
2.7962

> <Gold.Chemscore.Metal>
0.0000

> <Gold.Chemscore.Lipo>
91.9982

> <Gold.Chemscore.Internal_Hbond>
0.0000

> <Gold.Chemscore.DEClash>
0.0000

> <Gold.Chemscore.DEInternal>
1.2459

> <Gold.Chemscore.Rot>
3.3837

> <Gold.Chemscore.Internal.Correction>
   9.000000E+99

> <Gold.Chemscore.Hbonds>
donor molecule, donor type, donor heavy atom, donor atom, acceptor molecule, acceptor atom, score
      L1  H    25    45       P1  7948  0.65
      P1  H  6896  6908       L1     4  0.78
      P1  H  7997  8008       L1    20  0.07
      P1  H 10752 10763       L1    22  0.55

> <Gold.Chemscore.Hbond.Weighted>
-9.3394

> <Gold.Chemscore.Metal.Weighted>
-0.0000

> <Gold.Chemscore.Lipo.Weighted>
-10.7638

> <Gold.Chemscore.Internal_Hbond.Weighted>
0.0000

> <Gold.Chemscore.DEClash.Weighted>
0.0000

> <Gold.Chemscore.DEInternal.Weighted>
1.2459

> <Gold.Chemscore.Rot.Weighted>
8.6622

> <Gold.Chemscore.Internal.Correction.Weighted>
   9.000000E+99

> <Gold.Protein.RotatedTorsions>
[ 6907 6896 6895 6894 ] final  127.72 input  -60.11 | X-H torsion
[ 7974 7965 7964 7962 ] final   -8.01 input  175.53 | X-H torsion
[ 8008 7997 7996 7995 ] final  -14.10 input   59.86 | X-H torsion
[ 10167 10162 10161 10158 ] final -156.45 input  -65.29 | X-H torsion
[ 10718 10713 10712 10709 ] final    5.86 input   66.30 | X-H torsion
[ 10763 10752 10751 10750 ] final   53.75 input  -60.55 | X-H torsion
[ 11005 11000 10999 10996 ] final  -84.48 input  -57.11 | X-H torsion

> <Gold.Protein.ActiveResidues>
 VAL166  LYS551  ARG553  GLY616  TRP617  ASP618  TYR619  PRO620  LYS621  CYS622 
 ASP623  PHE694  ASN695  SER759  ASP760  ASP761  ALA762  ILE779  LEU786  VAL792 
 PHE793  MET794  SER795  GLU796  ALA797  LYS798  CYS799  TRP800  GLU811  SER814 

> <Gold.Protein.RotatedAtoms>
  152.3786  133.6516  159.6143 H   0  0  0  0  0  0  0  0  0  0  0  0  # atno 6907 bound_to 6896
  150.7723  133.9151  159.3390 H   0  0  0  0  0  0  0  0  0  0  0  0  # atno 6908 bound_to 6896
  151.6961  135.0939  160.0293 H   0  0  0  0  0  0  0  0  0  0  0  0  # atno 6909 bound_to 6896
  146.2292  140.2405  142.8343 H   0  0  0  0  0  0  0  0  0  0  0  0  # atno 7974 bound_to 7965
  154.5237  140.2232  155.8928 H   0  0  0  0  0  0  0  0  0  0  0  0  # atno 8008 bound_to 7997
  156.1690  140.3126  155.8905 H   0  0  0  0  0  0  0  0  0  0  0  0  # atno 8009 bound_to 7997
  155.3596  140.0460  157.3037 H   0  0  0  0  0  0  0  0  0  0  0  0  # atno 8010 bound_to 7997
  139.6849  143.9518  152.2356 H   0  0  0  0  0  0  0  0  0  0  0  0  # atno 10167 bound_to 10162
  156.9137  130.5765  149.5647 H   0  0  0  0  0  0  0  0  0  0  0  0  # atno 10718 bound_to 10713
  152.9798  135.5768  154.4793 H   0  0  0  0  0  0  0  0  0  0  0  0  # atno 10763 bound_to 10752
  154.4344  135.2774  155.1892 H   0  0  0  0  0  0  0  0  0  0  0  0  # atno 10764 bound_to 10752
  154.3587  135.6193  153.5733 H   0  0  0  0  0  0  0  0  0  0  0  0  # atno 10765 bound_to 10752
  141.1650  133.7348  156.8874 H   0  0  0  0  0  0  0  0  0  0  0  0  # atno 11005 bound_to 11000
  144.9488  140.8157  143.5584 LP  0  0  0  0  0  0  0  0  0  0  0  0  # atno 17320 bound_to 7965
  145.2363  139.2092  143.5016 LP  0  0  0  0  0  0  0  0  0  0  0  0  # atno 17321 bound_to 7965
  139.9318  144.6736  150.8355 LP  0  0  0  0  0  0  0  0  0  0  0  0  # atno 17342 bound_to 10162
  140.7664  143.3303  151.2424 LP  0  0  0  0  0  0  0  0  0  0  0  0  # atno 17343 bound_to 10162
  156.0524  130.5591  150.9017 LP  0  0  0  0  0  0  0  0  0  0  0  0  # atno 17370 bound_to 10713
  157.5951  131.0943  150.9054 LP  0  0  0  0  0  0  0  0  0  0  0  0  # atno 17371 bound_to 10713
  140.1672  134.9125  157.2789 LP  0  0  0  0  0  0  0  0  0  0  0  0  # atno 17394 bound_to 11000
  140.2543  134.3646  155.7430 LP  0  0  0  0  0  0  0  0  0  0  0  0  # atno 17395 bound_to 11000

$$$$
