AV-unprocessed.smi:101|AV-procd|sdf|930|dock4
  -GOLD-   2262017443D 1   1.00000     0.00000
 Structure written by MMmdl.
 43 45  0  0  0  0  0  0  0  0  2 V2000
  149.1003  135.5523  155.0522 C   0  0  0  0  0  0  0  0  0  0  0  0
  148.0509  136.5908  155.4083 C   0  0  0  0  0  0  0  0  0  0  0  0
  148.3299  137.9122  155.4521 C   0  0  0  0  0  0  0  0  0  0  0  0
  147.3701  138.8555  155.7736 N   0  0  0  0  0  0  0  0  0  0  0  0
  147.7258  140.3275  155.8037 C   0  0  1  0  0  0  0  0  0  0  0  0
  148.8998  140.4851  156.5438 O   0  0  0  0  0  0  0  0  0  0  0  0
  149.7568  141.4118  155.8880 C   0  0  1  0  0  0  0  0  0  0  0  0
  151.2158  141.2194  156.3256 C   0  0  0  0  0  0  0  0  0  0  0  0
  151.3676  141.6845  157.6564 O   0  0  0  0  0  0  0  0  0  0  0  0
  152.2975  141.1347  158.4605 C   0  0  0  0  0  0  0  0  0  0  0  0
  152.9281  140.1144  158.1757 O   0  0  0  0  0  0  0  0  0  0  0  0
  152.4858  141.8917  159.7318 C   0  0  0  0  0  0  0  0  0  0  0  0
  151.7837  143.1040  159.9271 C   0  0  0  0  0  0  0  0  0  0  0  0
  151.9421  143.8412  161.1168 C   0  0  0  0  0  0  0  0  0  0  0  0
  152.8052  143.3754  162.1257 C   0  0  0  0  0  0  0  0  0  0  0  0
  153.5099  142.1713  161.9436 C   0  0  0  0  0  0  0  0  0  0  0  0
  153.3526  141.4326  160.7545 C   0  0  0  0  0  0  0  0  0  0  0  0
  149.4739  141.1828  154.3984 C   0  0  1  0  0  0  0  0  0  0  0  0
  150.2233  140.0841  153.9039 O   0  0  0  0  0  0  0  0  0  0  0  0
  147.9714  140.9184  154.3980 C   0  0  1  0  0  0  0  0  0  0  0  0
  147.5464  140.1222  153.3052 O   0  0  0  0  0  0  0  0  0  0  0  0
  146.0427  138.4389  156.0562 C   0  0  0  0  0  0  0  0  0  0  0  0
  145.2030  139.3017  156.3135 O   0  0  0  0  0  0  0  0  0  0  0  0
  145.7537  137.1067  156.0210 N   0  5  0  0  0  0  0  0  0  0  0  0
  146.6824  136.1561  155.7126 C   0  0  0  0  0  0  0  0  0  0  0  0
  146.4060  134.9573  155.6828 O   0  0  0  0  0  0  0  0  0  0  0  0
  150.0744  136.0138  154.8876 H   0  0  0  0  0  0  0  0  0  0  0  0
  148.8173  135.0238  154.1416 H   0  0  0  0  0  0  0  0  0  0  0  0
  149.2040  134.8231  155.8563 H   0  0  0  0  0  0  0  0  0  0  0  0
  149.3339  138.2390  155.2261 H   0  0  0  0  0  0  0  0  0  0  0  0
  146.9244  140.8360  156.3406 H   0  0  0  0  0  0  0  0  0  0  0  0
  149.4254  142.4191  156.1479 H   0  0  0  0  0  0  0  0  0  0  0  0
  151.5049  140.1699  156.2511 H   0  0  0  0  0  0  0  0  0  0  0  0
  151.8768  141.7929  155.6745 H   0  0  0  0  0  0  0  0  0  0  0  0
  151.1153  143.4817  159.1664 H   0  0  0  0  0  0  0  0  0  0  0  0
  151.4002  144.7651  161.2547 H   0  0  0  0  0  0  0  0  0  0  0  0
  152.9264  143.9407  163.0379 H   0  0  0  0  0  0  0  0  0  0  0  0
  154.1732  141.8129  162.7170 H   0  0  0  0  0  0  0  0  0  0  0  0
  153.9097  140.5135  160.6463 H   0  0  0  0  0  0  0  0  0  0  0  0
  149.7265  142.0596  153.8013 H   0  0  0  0  0  0  0  0  0  0  0  0
  149.8939  139.8551  153.0486 H   0  0  0  0  0  0  0  0  0  0  0  0
  147.4429  141.8716  154.3554 H   0  0  0  0  0  0  0  0  0  0  0  0
  148.2567  140.0727  152.6835 H   0  0  0  0  0  0  0  0  0  0  0  0
  1  2  1  0  0  0  0
  1 27  1  0  0  0  0
  1 28  1  0  0  0  0
  1 29  1  0  0  0  0
  2 25  1  0  0  0  0
  2  3  2  0  0  0  0
  3  4  1  0  0  0  0
  3 30  1  0  0  0  0
  4  5  1  0  0  0  0
  4 22  1  0  0  0  0
  5 20  1  0  0  0  0
  5  6  1  0  0  0  0
  5 31  1  0  0  0  0
  6  7  1  0  0  0  0
  7  8  1  0  0  0  0
  7 18  1  0  0  0  0
  7 32  1  0  0  0  0
  8  9  1  0  0  0  0
  8 33  1  0  0  0  0
  8 34  1  0  0  0  0
  9 10  1  0  0  0  0
 10 11  2  0  0  0  0
 10 12  1  0  0  0  0
 12 17  1  0  0  0  0
 12 13  2  0  0  0  0
 13 14  1  0  0  0  0
 13 35  1  0  0  0  0
 14 15  2  0  0  0  0
 14 36  1  0  0  0  0
 15 16  1  0  0  0  0
 15 37  1  0  0  0  0
 16 17  2  0  0  0  0
 16 38  1  0  0  0  0
 17 39  1  0  0  0  0
 18 19  1  0  0  0  0
 18 20  1  0  0  0  0
 18 40  1  0  0  0  0
 19 41  1  0  0  0  0
 20 21  1  0  0  0  0
 20 42  1  0  0  0  0
 21 43  1  0  0  0  0
 22 23  2  0  0  0  0
 22 24  1  0  0  0  0
 24 25  1  0  0  0  0
 25 26  2  0  0  0  0
M  CHG  1  24  -1
M  END
> <s_m_source_file>
AV-unprocessed.smi

> <i_m_source_file_index>
101

> <i_lp_mmshare_version>
43012

> <i_f3d_flags>
0

> <s_epik_input>
Tz1jMVtuSF1jKD1PKW4oW2NIXWMxW0NIM10pW0NAQEhdMk9bQ0BIXShbQ0BASF0oW09IXSlbQ0BIXTJbT0hdKVtDSDJdT0MoPU8pYzNbY0hdW2NIXVtjSF1bY0hdW2NIXTM=

> <s_epik_cmdline>
J2VwaWtfcHl0aG9uJywgJy1waCcsICc3LjAnLCAnLXRuJywgJzgnLCAnLW1hJywgJzIwMCcsICctbWV0YWxfYmluZGluZycsICctaW1hZScsICc8aW5maWxlLm1hZT4nLCAnLW9tYWUnLCAnPG91dGZpbGUubWFlPic=

> <r_lp_tautomer_probability>
0.999537

> <r_epik_Ionization_Penalty>
3.21006

> <r_epik_Ionization_Penalty_Charging>
5.75142e-08

> <r_epik_Ionization_Penalty_Neutral>
3.21006

> <r_epik_State_Penalty>
3.20925

> <r_epik_Charging_Adjusted_Penalty>
3.20925

> <i_epik_Tot_Q>
-1

> <i_epik_Tot_abs_Q>
1

> <r_epik_Metal_State_Penalty>
0.119957

> <b_epik_Metal_Only>
1

> <s_epik_Chemistry_Notes>
This compound has an ester and may undergo hydrolysis at high or low pH. This compound contains an acetal/aminal-like group ( X-CH(R)-Y where X, Y are N, S, or O) that may be acid/base labile, releasing an aldehyde.

> <s_lp_Force_Field>
OPLS_2005

> <r_lp_Energy>
50.5402

> <b_lp_Chiralities_Consistent>
1

> <s_lp_Variant>
AV-unprocessed.smi:101-18

> <Gold.Version>
5.8.1

> <Gold.Id.Protein>
6NUR|6NUR_protein|mol2

> <Gold.PLP.Fitness>
49.7354

> <Gold.PLP.PLP>
-39.1727

> <Gold.PLP.part.hbond>
-4.0000

> <Gold.PLP.part.metal>
0.0000

> <Gold.PLP.part.buried>
-3.1589

> <Gold.PLP.part.nonpolar>
-31.2918

> <Gold.PLP.part.repulsive>
0.1098

> <Gold.PLP.ligand.clash>
0.0000

> <Gold.PLP.ligand.torsion>
0.5988

> <Gold.PLP.Chemscore.Hbond>
3.9120

> <Gold.PLP.Chemscore.CHOScore>
0.0000

> <Gold.PLP.Chemscore.Metal>
0.0000

> <Gold.Chemscore.Hbonds>
donor molecule, donor type, donor heavy atom, donor atom, acceptor molecule, acceptor atom, score
      L1  H    19    41       P1  7957  1.00
      L1  H    21    43       P1  7957  1.00
      P1  H  7989  7998       L1    19  0.91
      P1  H  7997  8010       L1    11  1.00

> <Gold.PLP.Chemscore.Internal.Correction>
0.0243

> <Gold.Rescore>
     Score         DG    S(hbond)    S(metal)    S(lipo)     H(rot)  DE(clash)    DE(int)     intcor
     18.00     -19.09       3.02        0.00     101.59       3.27       0.31       0.78       ----

> <Gold.Chemscore.Fitness>
18.0000

> <Gold.Chemscore.DG>
-19.0872

> <Gold.Chemscore.ZeroCoef>
-5.4800

> <Gold.Chemscore.Hbond>
3.0181

> <Gold.Chemscore.Metal>
0.0000

> <Gold.Chemscore.Lipo>
101.5944

> <Gold.Chemscore.Internal_Hbond>
0.0000

> <Gold.Chemscore.DEClash>
0.3074

> <Gold.Chemscore.DEInternal>
0.7798

> <Gold.Chemscore.Rot>
3.2656

> <Gold.Chemscore.Internal.Correction>
   9.000000E+99

> <Gold.Chemscore.Hbonds>
donor molecule, donor type, donor heavy atom, donor atom, acceptor molecule, acceptor atom, score
      L1  H    19    41       P1  7957  0.99
      L1  H    21    43       P1  7957  0.93
      P1  H  7989  7998       L1    19  0.06
      P1  H  7997  8010       L1    11  0.90

> <Gold.Chemscore.Hbond.Weighted>
-10.0805

> <Gold.Chemscore.Metal.Weighted>
-0.0000

> <Gold.Chemscore.Lipo.Weighted>
-11.8865

> <Gold.Chemscore.Internal_Hbond.Weighted>
0.0000

> <Gold.Chemscore.DEClash.Weighted>
0.3074

> <Gold.Chemscore.DEInternal.Weighted>
0.7798

> <Gold.Chemscore.Rot.Weighted>
8.3598

> <Gold.Chemscore.Internal.Correction.Weighted>
   9.000000E+99

> <Gold.Protein.RotatedTorsions>
[ 6907 6896 6895 6894 ] final  -19.71 input  -60.11 | X-H torsion
[ 7974 7965 7964 7962 ] final   99.53 input  175.53 | X-H torsion
[ 8008 7997 7996 7995 ] final   37.22 input   59.86 | X-H torsion
[ 10167 10162 10161 10158 ] final   34.64 input  -65.29 | X-H torsion
[ 10718 10713 10712 10709 ] final -147.99 input   66.30 | X-H torsion
[ 10763 10752 10751 10750 ] final  -44.24 input  -60.55 | X-H torsion
[ 11005 11000 10999 10996 ] final  -96.14 input  -57.11 | X-H torsion

> <Gold.Protein.ActiveResidues>
 VAL166  LYS551  ARG553  GLY616  TRP617  ASP618  TYR619  PRO620  LYS621  CYS622 
 ASP623  PHE694  ASN695  SER759  ASP760  ASP761  ALA762  ILE779  LEU786  VAL792 
 PHE793  MET794  SER795  GLU796  ALA797  LYS798  CYS799  TRP800  GLU811  SER814 

> <Gold.Protein.RotatedAtoms>
  151.2590  135.0647  159.9090 H   0  0  0  0  0  0  0  0  0  0  0  0  # atno 6907 bound_to 6896
  152.5369  134.0251  159.8009 H   0  0  0  0  0  0  0  0  0  0  0  0  # atno 6908 bound_to 6896
  151.0471  133.5606  159.2677 H   0  0  0  0  0  0  0  0  0  0  0  0  # atno 6909 bound_to 6896
  145.3977  139.2352  143.3317 H   0  0  0  0  0  0  0  0  0  0  0  0  # atno 7974 bound_to 7965
  155.2003  140.3315  155.4344 H   0  0  0  0  0  0  0  0  0  0  0  0  # atno 8008 bound_to 7997
  156.2409  140.1895  156.7040 H   0  0  0  0  0  0  0  0  0  0  0  0  # atno 8009 bound_to 7997
  154.6146  140.0604  156.9523 H   0  0  0  0  0  0  0  0  0  0  0  0  # atno 8010 bound_to 7997
  140.4296  144.1344  150.6157 H   0  0  0  0  0  0  0  0  0  0  0  0  # atno 10167 bound_to 10162
  156.4145  130.7998  151.2217 H   0  0  0  0  0  0  0  0  0  0  0  0  # atno 10718 bound_to 10713
  154.0087  135.6684  153.4764 H   0  0  0  0  0  0  0  0  0  0  0  0  # atno 10763 bound_to 10752
  153.0630  135.5017  154.8133 H   0  0  0  0  0  0  0  0  0  0  0  0  # atno 10764 bound_to 10752
  154.7008  135.3078  154.9307 H   0  0  0  0  0  0  0  0  0  0  0  0  # atno 10765 bound_to 10752
  141.1420  133.8076  157.0531 H   0  0  0  0  0  0  0  0  0  0  0  0  # atno 11005 bound_to 11000
  146.2767  140.4670  142.8792 LP  0  0  0  0  0  0  0  0  0  0  0  0  # atno 17320 bound_to 7965
  144.8396  140.6836  143.6238 LP  0  0  0  0  0  0  0  0  0  0  0  0  # atno 17321 bound_to 7965
  140.4442  143.2513  151.9433 LP  0  0  0  0  0  0  0  0  0  0  0  0  # atno 17342 bound_to 10162
  139.4784  144.5625  151.8217 LP  0  0  0  0  0  0  0  0  0  0  0  0  # atno 17343 bound_to 10162
  157.7507  131.0247  150.3889 LP  0  0  0  0  0  0  0  0  0  0  0  0  # atno 17370 bound_to 10713
  156.4194  130.3950  149.6836 LP  0  0  0  0  0  0  0  0  0  0  0  0  # atno 17371 bound_to 10713
  140.0619  134.9750  157.1320 LP  0  0  0  0  0  0  0  0  0  0  0  0  # atno 17394 bound_to 11000
  140.3836  134.2261  155.7169 LP  0  0  0  0  0  0  0  0  0  0  0  0  # atno 17395 bound_to 11000

$$$$
