AV-unprocessed.smi:2804|AV-procd|sdf|10812|dock2
  -GOLD-   2272015253D 1   1.00000     0.00000
 Structure written by MMmdl.
 34 35  0  0  0  0  0  0  0  0  2 V2000
  150.3002  144.7778  160.3465 C   0  0  0  0  0  0  0  0  0  0  0  0
  151.1912  145.1329  159.1519 C   0  0  0  0  0  0  0  0  0  0  0  0
  152.5384  144.3952  159.1845 C   0  0  0  0  0  0  0  0  0  0  0  0
  152.3662  142.9655  158.9392 N   0  0  0  0  0  0  0  0  0  0  0  0
  151.6272  142.4001  157.9557 C   0  0  0  0  0  0  0  0  0  0  0  0
  150.9931  143.0103  157.0944 O   0  0  0  0  0  0  0  0  0  0  0  0
  151.7334  141.0508  158.0675 N   0  0  0  0  0  0  0  0  0  0  0  0
  151.1209  140.0437  157.1856 C   0  0  0  0  0  0  0  0  0  0  0  0
  152.0236  139.5972  155.9985 C   0  0  1  0  0  0  0  0  0  0  0  0
  153.0640  138.9848  156.5117 O   0  5  0  0  0  0  0  0  0  0  0  0
  151.2917  138.5864  155.0817 C   0  0  0  0  0  0  0  0  0  0  0  0
  150.8556  137.5451  155.7931 F   0  0  0  0  0  0  0  0  0  0  0  0
  150.2582  139.1496  154.4515 F   0  0  0  0  0  0  0  0  0  0  0  0
  152.1395  138.1223  154.1622 F   0  0  0  0  0  0  0  0  0  0  0  0
  152.6119  140.7540  159.1259 C   0  0  0  0  0  0  0  0  0  0  0  0
  153.0798  139.5247  159.6239 C   0  0  0  0  0  0  0  0  0  0  0  0
  153.9729  139.5659  160.7198 C   0  0  0  0  0  0  0  0  0  0  0  0
  154.3752  140.8045  161.2828 C   0  0  0  0  0  0  0  0  0  0  0  0
  153.8922  142.0274  160.7613 C   0  0  0  0  0  0  0  0  0  0  0  0
  153.0033  141.9571  159.6743 C   0  0  0  0  0  0  0  0  0  0  0  0
  149.3540  145.3169  160.2994 H   0  0  0  0  0  0  0  0  0  0  0  0
  150.7842  145.0364  161.2887 H   0  0  0  0  0  0  0  0  0  0  0  0
  150.0752  143.7113  160.3658 H   0  0  0  0  0  0  0  0  0  0  0  0
  150.6638  144.8940  158.2275 H   0  0  0  0  0  0  0  0  0  0  0  0
  151.3622  146.2100  159.1401 H   0  0  0  0  0  0  0  0  0  0  0  0
  153.2163  144.8116  158.4388 H   0  0  0  0  0  0  0  0  0  0  0  0
  153.0242  144.5459  160.1499 H   0  0  0  0  0  0  0  0  0  0  0  0
  150.8082  139.1784  157.7738 H   0  0  0  0  0  0  0  0  0  0  0  0
  150.1954  140.4694  156.7975 H   0  0  0  0  0  0  0  0  0  0  0  0
  152.1631  140.4883  155.3845 H   0  0  0  0  0  0  0  0  0  0  0  0
  152.7697  138.5849  159.1916 H   0  0  0  0  0  0  0  0  0  0  0  0
  154.3529  138.6430  161.1323 H   0  0  0  0  0  0  0  0  0  0  0  0
  155.0589  140.8141  162.1187 H   0  0  0  0  0  0  0  0  0  0  0  0
  154.1983  142.9733  161.1826 H   0  0  0  0  0  0  0  0  0  0  0  0
  1  2  1  0  0  0  0
  1 21  1  0  0  0  0
  1 22  1  0  0  0  0
  1 23  1  0  0  0  0
  2  3  1  0  0  0  0
  2 24  1  0  0  0  0
  2 25  1  0  0  0  0
  3  4  1  0  0  0  0
  3 26  1  0  0  0  0
  3 27  1  0  0  0  0
  4 20  1  0  0  0  0
  4  5  1  0  0  0  0
  5  6  2  0  0  0  0
  5  7  1  0  0  0  0
  7  8  1  0  0  0  0
  7 15  1  0  0  0  0
  8  9  1  0  0  0  0
  8 28  1  0  0  0  0
  8 29  1  0  0  0  0
  9 10  1  0  0  0  0
  9 11  1  0  0  0  0
  9 30  1  0  0  0  0
 11 12  1  0  0  0  0
 11 13  1  0  0  0  0
 11 14  1  0  0  0  0
 15 20  2  0  0  0  0
 15 16  1  0  0  0  0
 16 17  2  0  0  0  0
 16 31  1  0  0  0  0
 17 18  1  0  0  0  0
 17 32  1  0  0  0  0
 18 19  2  0  0  0  0
 18 33  1  0  0  0  0
 19 20  1  0  0  0  0
 19 34  1  0  0  0  0
M  CHG  1  10  -1
M  END
> <s_m_source_file>
AV-unprocessed.smi

> <i_m_source_file_index>
2804

> <i_lp_mmshare_version>
43012

> <i_f3d_flags>
0

> <s_epik_input>
W2NIXTFbY0hdW2NIXVtjSF1jKGMxMiluKFtDSDJdW0NIMl1bQ0gzXSljKD1PKW4yW0NIMl1bQ0BIXShbT0hdKUMoRikoRilG

> <s_epik_cmdline>
J2VwaWtfcHl0aG9uJywgJy1waCcsICc3LjAnLCAnLXRuJywgJzgnLCAnLW1hJywgJzIwMCcsICctbWV0YWxfYmluZGluZycsICctaW1hZScsICc8aW5maWxlLm1hZT4nLCAnLW9tYWUnLCAnPG91dGZpbGUubWFlPic=

> <r_epik_Ionization_Penalty>
2.32651

> <r_epik_Ionization_Penalty_Charging>
2.32651

> <r_epik_Ionization_Penalty_Neutral>
0

> <r_epik_State_Penalty>
2.47909

> <r_epik_Charging_Adjusted_Penalty>
4.8056

> <i_epik_Tot_Q>
-1

> <i_epik_Tot_abs_Q>
1

> <r_epik_Metal_State_Penalty>
2.47909

> <b_epik_Metal_Only>
0

> <s_lp_Force_Field>
OPLS_2005

> <r_lp_Energy>
44.9553

> <b_lp_Chiralities_Consistent>
1

> <s_lp_Variant>
AV-unprocessed.smi:2804-4

> <Gold.Version>
5.8.1

> <Gold.Id.Protein>
6NUR|6NUR_protein|mol2

> <Gold.PLP.Fitness>
52.9929

> <Gold.PLP.PLP>
-48.0771

> <Gold.PLP.part.hbond>
-1.0000

> <Gold.PLP.part.metal>
0.0000

> <Gold.PLP.part.buried>
-7.4593

> <Gold.PLP.part.nonpolar>
-40.3430

> <Gold.PLP.part.repulsive>
0.5840

> <Gold.PLP.ligand.clash>
0.0000

> <Gold.PLP.ligand.torsion>
0.5926

> <Gold.PLP.Chemscore.Hbond>
2.0000

> <Gold.PLP.Chemscore.CHOScore>
0.0000

> <Gold.PLP.Chemscore.Metal>
0.0000

> <Gold.Chemscore.Hbonds>
donor molecule, donor type, donor heavy atom, donor atom, acceptor molecule, acceptor atom, score
      P1  H  7997  8009       L1    10  2.00

> <Gold.PLP.Chemscore.Internal.Correction>
0.1010

> <Gold.Rescore>
     Score         DG    S(hbond)    S(metal)    S(lipo)     H(rot)  DE(clash)    DE(int)     intcor
     14.91     -16.50       0.97        0.00     104.00       1.72       0.14       1.45       ----

> <Gold.Chemscore.Fitness>
14.9117

> <Gold.Chemscore.DG>
-16.5029

> <Gold.Chemscore.ZeroCoef>
-5.4800

> <Gold.Chemscore.Hbond>
0.9744

> <Gold.Chemscore.Metal>
0.0000

> <Gold.Chemscore.Lipo>
103.9980

> <Gold.Chemscore.Internal_Hbond>
0.0000

> <Gold.Chemscore.DEClash>
0.1415

> <Gold.Chemscore.DEInternal>
1.4497

> <Gold.Chemscore.Rot>
1.7185

> <Gold.Chemscore.Internal.Correction>
   9.000000E+99

> <Gold.Chemscore.Hbonds>
donor molecule, donor type, donor heavy atom, donor atom, acceptor molecule, acceptor atom, score
      P1  H  7997  8009       L1    10  0.78

> <Gold.Chemscore.Hbond.Weighted>
-3.2543

> <Gold.Chemscore.Metal.Weighted>
-0.0000

> <Gold.Chemscore.Lipo.Weighted>
-12.1678

> <Gold.Chemscore.Internal_Hbond.Weighted>
0.0000

> <Gold.Chemscore.DEClash.Weighted>
0.1415

> <Gold.Chemscore.DEInternal.Weighted>
1.4497

> <Gold.Chemscore.Rot.Weighted>
4.3992

> <Gold.Chemscore.Internal.Correction.Weighted>
   9.000000E+99

> <Gold.Protein.RotatedTorsions>
[ 6907 6896 6895 6894 ] final   42.77 input  -60.11 | X-H torsion
[ 7974 7965 7964 7962 ] final -176.15 input  175.53 | X-H torsion
[ 8008 7997 7996 7995 ] final  178.05 input   59.86 | X-H torsion
[ 10167 10162 10161 10158 ] final  -23.79 input  -65.29 | X-H torsion
[ 10718 10713 10712 10709 ] final  -63.37 input   66.30 | X-H torsion
[ 10763 10752 10751 10750 ] final  -87.26 input  -60.55 | X-H torsion
[ 11005 11000 10999 10996 ] final   78.04 input  -57.11 | X-H torsion

> <Gold.Protein.ActiveResidues>
 VAL166  LYS551  ARG553  GLY616  TRP617  ASP618  TYR619  PRO620  LYS621  CYS622 
 ASP623  PHE694  ASN695  SER759  ASP760  ASP761  ALA762  ILE779  LEU786  VAL792 
 PHE793  MET794  SER795  GLU796  ALA797  LYS798  CYS799  TRP800  GLU811  SER814 

> <Gold.Protein.RotatedAtoms>
  152.2120  134.8493  160.0496 H   0  0  0  0  0  0  0  0  0  0  0  0  # atno 6907 bound_to 6896
  151.9308  133.3605  159.3938 H   0  0  0  0  0  0  0  0  0  0  0  0  # atno 6908 bound_to 6896
  150.6978  134.4464  159.5360 H   0  0  0  0  0  0  0  0  0  0  0  0  # atno 6909 bound_to 6896
  144.7127  140.1213  143.6405 H   0  0  0  0  0  0  0  0  0  0  0  0  # atno 7974 bound_to 7965
  156.0589  140.1343  156.9964 H   0  0  0  0  0  0  0  0  0  0  0  0  # atno 8008 bound_to 7997
  154.4471  140.0995  156.6558 H   0  0  0  0  0  0  0  0  0  0  0  0  # atno 8009 bound_to 7997
  155.5408  140.3461  155.4448 H   0  0  0  0  0  0  0  0  0  0  0  0  # atno 8010 bound_to 7997
  140.7288  143.4411  151.0656 H   0  0  0  0  0  0  0  0  0  0  0  0  # atno 10167 bound_to 10162
  156.0795  130.4220  150.1267 H   0  0  0  0  0  0  0  0  0  0  0  0  # atno 10718 bound_to 10713
  154.6316  135.5420  153.7687 H   0  0  0  0  0  0  0  0  0  0  0  0  # atno 10763 bound_to 10752
  153.0287  135.6437  154.1292 H   0  0  0  0  0  0  0  0  0  0  0  0  # atno 10764 bound_to 10752
  154.1222  135.2919  155.3185 H   0  0  0  0  0  0  0  0  0  0  0  0  # atno 10765 bound_to 10752
  139.9229  134.7731  156.1598 H   0  0  0  0  0  0  0  0  0  0  0  0  # atno 11005 bound_to 11000
  145.9368  139.2642  143.1292 LP  0  0  0  0  0  0  0  0  0  0  0  0  # atno 17320 bound_to 7965
  145.9465  140.8941  143.0281 LP  0  0  0  0  0  0  0  0  0  0  0  0  # atno 17321 bound_to 7965
  139.8078  143.7993  152.3169 LP  0  0  0  0  0  0  0  0  0  0  0  0  # atno 17342 bound_to 10162
  139.8032  144.7365  150.9796 LP  0  0  0  0  0  0  0  0  0  0  0  0  # atno 17343 bound_to 10162
  156.9302  130.9711  151.3534 LP  0  0  0  0  0  0  0  0  0  0  0  0  # atno 17370 bound_to 10713
  157.5906  130.8441  149.8653 LP  0  0  0  0  0  0  0  0  0  0  0  0  # atno 17371 bound_to 10713
  141.0764  133.6773  156.2246 LP  0  0  0  0  0  0  0  0  0  0  0  0  # atno 17394 bound_to 11000
  140.6421  134.5155  157.5570 LP  0  0  0  0  0  0  0  0  0  0  0  0  # atno 17395 bound_to 11000

$$$$
