AV-unprocessed.smi:265|AV-procd|sdf|2025|dock3
  -GOLD-   2262021233D 1   1.00000     0.00000
 Structure written by MMmdl.
 52 56  0  0  0  0  0  0  0  0  1 V2000
  152.6638  142.4515  161.2787 C   0  0  0  0  0  0  0  0  0  0  0  0
  153.0102  141.1134  161.9516 C   0  0  2  0  0  0  0  0  0  0  0  0
  153.6526  141.3319  163.1994 O   0  0  0  0  0  0  0  0  0  0  0  0
  154.2790  140.1147  163.5612 C   0  0  0  0  0  0  0  0  0  0  0  0
  154.9251  139.6685  162.2553 C   0  0  0  0  0  0  0  0  0  0  0  0
  153.9523  140.1540  161.1759 C   0  0  2  0  0  0  0  0  0  0  0  0
  154.7010  140.8388  160.1845 O   0  0  0  0  0  0  0  0  0  0  0  0
  153.2048  138.9808  160.4951 C   0  0  0  0  0  0  0  0  0  0  0  0
  152.4127  139.3869  159.3435 N   0  0  0  0  0  0  0  0  0  0  0  0
  151.2466  140.1187  159.3606 C   0  0  0  0  0  0  0  0  0  0  0  0
  150.7151  140.3473  158.1912 N   0  0  0  0  0  0  0  0  0  0  0  0
  151.5884  139.7406  157.2964 C   0  0  0  0  0  0  0  0  0  0  0  0
  151.6171  139.6010  155.8799 C   0  0  0  0  0  0  0  0  0  0  0  0
  150.6645  140.1325  155.0723 N   0  0  0  0  0  0  0  0  0  0  0  0
  149.7787  141.1480  155.6412 C   0  0  0  0  0  0  0  0  0  0  0  0
  149.0531  141.9207  154.5293 C   0  0  0  0  0  0  0  0  0  0  0  0
  148.3257  140.9775  153.5570 C   0  0  2  0  0  0  0  0  0  0  0  0
  147.2319  140.3453  154.2092 O   0  0  0  0  0  0  0  0  0  0  0  0
  146.3949  139.5912  153.3305 C   0  0  0  0  0  0  0  0  0  0  0  0
  147.2014  138.6464  152.4200 C   0  0  0  0  0  0  0  0  0  0  0  0
  146.6318  137.7351  151.8245 O   0  0  0  0  0  0  0  0  0  0  0  0
  148.5154  138.8790  152.2717 N   0  0  0  0  0  0  0  0  0  0  0  0
  149.2657  139.8670  153.0398 C   0  0  2  0  0  0  0  0  0  0  0  0
  150.0044  139.1657  154.1975 C   0  0  0  0  0  0  0  0  0  0  0  0
  152.6534  138.9036  155.3415 N   0  0  0  0  0  0  0  0  0  0  0  0
  153.6012  138.3872  156.1289 C   0  0  0  0  0  0  0  0  0  0  0  0
  153.7045  138.4450  157.4576 N   0  0  0  0  0  0  0  0  0  0  0  0
  152.6629  139.1334  158.0057 C   0  0  0  0  0  0  0  0  0  0  0  0
  147.9425  141.5673  152.7220 H   0  0  0  0  0  0  0  0  0  0  0  0
  150.0064  140.3154  152.3762 H   0  0  0  0  0  0  0  0  0  0  0  0
  152.1779  142.2936  160.3156 H   0  0  0  0  0  0  0  0  0  0  0  0
  153.5529  143.0604  161.1135 H   0  0  0  0  0  0  0  0  0  0  0  0
  151.9817  143.0303  161.9015 H   0  0  0  0  0  0  0  0  0  0  0  0
  152.0799  140.5944  162.1848 H   0  0  0  0  0  0  0  0  0  0  0  0
  155.0029  140.2557  164.3640 H   0  0  0  0  0  0  0  0  0  0  0  0
  153.5277  139.3963  163.8934 H   0  0  0  0  0  0  0  0  0  0  0  0
  155.8951  140.1598  162.1600 H   0  0  0  0  0  0  0  0  0  0  0  0
  155.1031  138.5927  162.2302 H   0  0  0  0  0  0  0  0  0  0  0  0
  155.1470  140.1999  159.6501 H   0  0  0  0  0  0  0  0  0  0  0  0
  153.9112  138.2155  160.1709 H   0  0  0  0  0  0  0  0  0  0  0  0
  152.5415  138.4954  161.2123 H   0  0  0  0  0  0  0  0  0  0  0  0
  150.7934  140.4722  160.2753 H   0  0  0  0  0  0  0  0  0  0  0  0
  149.0519  140.6663  156.2972 H   0  0  0  0  0  0  0  0  0  0  0  0
  150.3507  141.8481  156.2517 H   0  0  0  0  0  0  0  0  0  0  0  0
  148.3483  142.6303  154.9631 H   0  0  0  0  0  0  0  0  0  0  0  0
  149.7826  142.5113  153.9738 H   0  0  0  0  0  0  0  0  0  0  0  0
  145.6849  139.0151  153.9245 H   0  0  0  0  0  0  0  0  0  0  0  0
  145.8163  140.2733  152.7066 H   0  0  0  0  0  0  0  0  0  0  0  0
  149.0396  138.2831  151.6477 H   0  0  0  0  0  0  0  0  0  0  0  0
  150.7150  138.4477  153.7886 H   0  0  0  0  0  0  0  0  0  0  0  0
  149.2977  138.5910  154.7982 H   0  0  0  0  0  0  0  0  0  0  0  0
  154.3895  137.8510  155.6211 H   0  0  0  0  0  0  0  0  0  0  0  0
  1  2  1  0  0  0  0
  1 31  1  0  0  0  0
  1 32  1  0  0  0  0
  1 33  1  0  0  0  0
  2  6  1  0  0  0  0
  2  3  1  0  0  0  0
  2 34  1  0  0  0  0
  3  4  1  0  0  0  0
  4  5  1  0  0  0  0
  4 35  1  0  0  0  0
  4 36  1  0  0  0  0
  5  6  1  0  0  0  0
  5 37  1  0  0  0  0
  5 38  1  0  0  0  0
  6  7  1  0  0  0  0
  6  8  1  0  0  0  0
  7 39  1  0  0  0  0
  8  9  1  0  0  0  0
  8 40  1  0  0  0  0
  8 41  1  0  0  0  0
  9 28  1  0  0  0  0
  9 10  1  0  0  0  0
 10 11  2  0  0  0  0
 10 42  1  0  0  0  0
 11 12  1  0  0  0  0
 12 28  2  0  0  0  0
 12 13  1  0  0  0  0
 13 14  1  0  0  0  0
 13 25  2  0  0  0  0
 14 24  1  0  0  0  0
 14 15  1  0  0  0  0
 15 16  1  0  0  0  0
 15 43  1  0  0  0  0
 15 44  1  0  0  0  0
 16 17  1  0  0  0  0
 16 45  1  0  0  0  0
 16 46  1  0  0  0  0
 17 29  1  0  0  0  0
 17 23  1  0  0  0  0
 17 18  1  0  0  0  0
 18 19  1  0  0  0  0
 19 20  1  0  0  0  0
 19 47  1  0  0  0  0
 19 48  1  0  0  0  0
 20 21  2  0  0  0  0
 20 22  1  0  0  0  0
 22 23  1  0  0  0  0
 22 49  1  0  0  0  0
 23 30  1  0  0  0  0
 23 24  1  0  0  0  0
 24 50  1  0  0  0  0
 24 51  1  0  0  0  0
 25 26  1  0  0  0  0
 26 27  2  0  0  0  0
 26 52  1  0  0  0  0
 27 28  1  0  0  0  0
M  END
> <s_m_source_file>
AV-unprocessed.smi

> <i_m_source_file_index>
265

> <i_lp_mmshare_version>
43012

> <i_f3d_flags>
0

> <s_epik_input>
W0NIMl0xW0NIMl1PW0NAQEhdKFtDSDNdKVtDQEBdMShbT0hdKVtDSDJdbihbY0hdbjIpYyhjMjMpbltjSF1uYzNOKFtDSDJdW0NIMl00KVtDSDJdW0NAQEhdKFtDQEhdNDUpW05IXUMoPU8pW0NIMl1PNQ==

> <s_epik_cmdline>
J2VwaWtfcHl0aG9uJywgJy1waCcsICc3LjAnLCAnLXRuJywgJzgnLCAnLW1hJywgJzIwMCcsICctbWV0YWxfYmluZGluZycsICctaW1hZScsICc8aW5maWxlLm1hZT4nLCAnLW9tYWUnLCAnPG91dGZpbGUubWFlPic=

> <r_lp_tautomer_probability>
1

> <r_epik_Ionization_Penalty>
0.00221504

> <r_epik_Ionization_Penalty_Charging>
0

> <r_epik_Ionization_Penalty_Neutral>
0.00221504

> <r_epik_State_Penalty>
-0

> <r_epik_Charging_Adjusted_Penalty>
0

> <i_epik_Tot_Q>
0

> <i_epik_Tot_abs_Q>
0

> <r_epik_Metal_State_Penalty>
-0

> <b_epik_Metal_Only>
0

> <s_lp_Force_Field>
OPLS_2005

> <r_lp_Energy>
44.0403

> <b_lp_Chiralities_Consistent>
1

> <s_lp_Variant>
AV-unprocessed.smi:265-11

> <Gold.Version>
5.8.1

> <Gold.Id.Protein>
6NUR|6NUR_protein|mol2

> <Gold.PLP.Fitness>
41.1262

> <Gold.PLP.PLP>
-36.4705

> <Gold.PLP.part.hbond>
-5.5148

> <Gold.PLP.part.metal>
0.0000

> <Gold.PLP.part.buried>
9.2488

> <Gold.PLP.part.nonpolar>
-40.9804

> <Gold.PLP.part.repulsive>
0.4873

> <Gold.PLP.ligand.clash>
0.0000

> <Gold.PLP.ligand.torsion>
0.3878

> <Gold.PLP.Chemscore.Hbond>
1.6871

> <Gold.PLP.Chemscore.CHOScore>
0.0000

> <Gold.PLP.Chemscore.Metal>
0.0000

> <Gold.Chemscore.Hbonds>
donor molecule, donor type, donor heavy atom, donor atom, acceptor molecule, acceptor atom, score
      L1  H    22    49       P1  7948  0.43
      P1  H  7989  7998       L1    14  0.50
      P1  H  7997  8009       L1    27  0.06

> <Gold.PLP.Chemscore.Internal.Correction>
0.3700

> <Gold.Rescore>
     Score         DG    S(hbond)    S(metal)    S(lipo)     H(rot)  DE(clash)    DE(int)     intcor
      8.76     -14.09       1.01        0.00      93.98       2.25       3.23       2.10       ----

> <Gold.Chemscore.Fitness>
8.7557

> <Gold.Chemscore.DG>
-14.0908

> <Gold.Chemscore.ZeroCoef>
-5.4800

> <Gold.Chemscore.Hbond>
1.0071

> <Gold.Chemscore.Metal>
0.0000

> <Gold.Chemscore.Lipo>
93.9756

> <Gold.Chemscore.Internal_Hbond>
0.0000

> <Gold.Chemscore.DEClash>
3.2347

> <Gold.Chemscore.DEInternal>
2.1005

> <Gold.Chemscore.Rot>
2.2453

> <Gold.Chemscore.Internal.Correction>
   9.000000E+99

> <Gold.Chemscore.Hbonds>
donor molecule, donor type, donor heavy atom, donor atom, acceptor molecule, acceptor atom, score
      L1  H    22    49       P1  7948  0.28
      P1  H  7989  7998       L1    14  0.01

> <Gold.Chemscore.Hbond.Weighted>
-3.3636

> <Gold.Chemscore.Metal.Weighted>
-0.0000

> <Gold.Chemscore.Lipo.Weighted>
-10.9951

> <Gold.Chemscore.Internal_Hbond.Weighted>
0.0000

> <Gold.Chemscore.DEClash.Weighted>
3.2347

> <Gold.Chemscore.DEInternal.Weighted>
2.1005

> <Gold.Chemscore.Rot.Weighted>
5.7479

> <Gold.Chemscore.Internal.Correction.Weighted>
   9.000000E+99

> <Gold.Protein.RotatedTorsions>
[ 6907 6896 6895 6894 ] final -117.61 input  -60.11 | X-H torsion
[ 7974 7965 7964 7962 ] final -114.35 input  175.53 | X-H torsion
[ 8008 7997 7996 7995 ] final  149.71 input   59.86 | X-H torsion
[ 10167 10162 10161 10158 ] final   67.35 input  -65.29 | X-H torsion
[ 10718 10713 10712 10709 ] final   50.13 input   66.30 | X-H torsion
[ 10763 10752 10751 10750 ] final  120.97 input  -60.55 | X-H torsion
[ 11005 11000 10999 10996 ] final  108.96 input  -57.11 | X-H torsion

> <Gold.Protein.ActiveResidues>
 VAL166  LYS551  ARG553  GLY616  TRP617  ASP618  TYR619  PRO620  LYS621  CYS622 
 ASP623  PHE694  ASN695  SER759  ASP760  ASP761  ALA762  ILE779  LEU786  VAL792 
 PHE793  MET794  SER795  GLU796  ALA797  LYS798  CYS799  TRP800  GLU811  SER814 

> <Gold.Protein.RotatedAtoms>
  150.8151  133.8352  159.3164 H   0  0  0  0  0  0  0  0  0  0  0  0  # atno 6907 bound_to 6896
  151.6126  135.1037  160.0094 H   0  0  0  0  0  0  0  0  0  0  0  0  # atno 6908 bound_to 6896
  152.4242  133.7127  159.6545 H   0  0  0  0  0  0  0  0  0  0  0  0  # atno 6909 bound_to 6896
  145.1212  140.8670  143.3813 H   0  0  0  0  0  0  0  0  0  0  0  0  # atno 7974 bound_to 7965
  156.2744  140.2094  156.5902 H   0  0  0  0  0  0  0  0  0  0  0  0  # atno 8008 bound_to 7997
  154.6989  140.0523  157.0461 H   0  0  0  0  0  0  0  0  0  0  0  0  # atno 8009 bound_to 7997
  155.0763  140.3182  155.4618 H   0  0  0  0  0  0  0  0  0  0  0  0  # atno 8010 bound_to 7997
  140.0905  144.4992  150.7102 H   0  0  0  0  0  0  0  0  0  0  0  0  # atno 10167 bound_to 10162
  157.4855  130.8342  149.8142 H   0  0  0  0  0  0  0  0  0  0  0  0  # atno 10718 bound_to 10713
  153.6067  135.3438  155.2964 H   0  0  0  0  0  0  0  0  0  0  0  0  # atno 10763 bound_to 10752
  154.8626  135.4240  154.2353 H   0  0  0  0  0  0  0  0  0  0  0  0  # atno 10764 bound_to 10752
  153.3195  135.7037  153.7115 H   0  0  0  0  0  0  0  0  0  0  0  0  # atno 10765 bound_to 10752
  139.8853  134.9445  156.6053 H   0  0  0  0  0  0  0  0  0  0  0  0  # atno 11005 bound_to 11000
  145.0738  139.3011  143.5818 LP  0  0  0  0  0  0  0  0  0  0  0  0  # atno 17320 bound_to 7965
  146.3521  140.0222  142.8657 LP  0  0  0  0  0  0  0  0  0  0  0  0  # atno 17321 bound_to 7965
  140.7031  143.2449  151.4806 LP  0  0  0  0  0  0  0  0  0  0  0  0  # atno 17342 bound_to 10162
  139.5728  144.1889  152.1860 LP  0  0  0  0  0  0  0  0  0  0  0  0  # atno 17343 bound_to 10162
  156.0144  130.3819  150.2157 LP  0  0  0  0  0  0  0  0  0  0  0  0  # atno 17370 bound_to 10713
  157.0345  131.0017  151.3302 LP  0  0  0  0  0  0  0  0  0  0  0  0  # atno 17371 bound_to 10713
  140.7853  133.8626  155.8601 LP  0  0  0  0  0  0  0  0  0  0  0  0  # atno 17394 bound_to 11000
  140.9725  134.1513  157.4564 LP  0  0  0  0  0  0  0  0  0  0  0  0  # atno 17395 bound_to 11000

$$$$
