AV-unprocessed.smi:2451|AV-procd|sdf|9680|dock3
  -GOLD-   2272013313D 1   1.00000     0.00000
 Structure written by MMmdl.
 37 38  0  0  0  0  0  0  0  0  2 V2000
  149.8410  144.5135  159.5399 C   0  0  0  0  0  0  0  0  0  0  0  0
  151.3634  144.7316  159.3711 C   0  0  1  0  0  0  0  0  0  0  0  0
  152.0326  145.0958  160.7187 C   0  0  0  0  0  0  0  0  0  0  0  0
  152.2052  143.8385  161.5944 C   0  0  0  0  0  0  0  0  0  0  0  0
  152.9792  142.7157  160.8656 C   0  0  0  0  0  0  0  0  0  0  0  0
  152.3537  142.3046  159.5087 C   0  0  2  0  0  0  0  0  0  0  0  0
  153.2445  141.3699  158.8345 N   0  5  0  0  0  0  0  0  0  0  0  0
  152.6924  139.9101  158.3919 S   0  0  0  0  0  0  0  0  0  0  0  0
  153.7731  138.9622  158.0718 O   0  0  0  0  0  0  0  0  0  0  0  0
  151.6246  139.4338  159.2861 O   0  0  0  0  0  0  0  0  0  0  0  0
  151.8628  140.3234  156.7936 C   0  0  0  0  0  0  0  0  0  0  0  0
  151.6913  139.0894  155.9492 C   0  0  0  0  0  0  0  0  0  0  0  0
  151.1217  138.9766  154.6501 C   0  0  0  0  0  0  0  0  0  0  0  0
  151.2264  137.6453  154.3691 C   0  0  0  0  0  0  0  0  0  0  0  0
  151.7982  136.9842  155.4069 O   0  0  0  0  0  0  0  0  0  0  0  0
  152.0881  137.9135  156.4125 N   0  0  0  0  0  0  0  0  0  0  0  0
  152.1241  143.5782  158.6289 C   0  0  1  0  0  0  0  0  0  0  0  0
  151.4797  143.2736  157.2547 C   0  0  0  0  0  0  0  0  0  0  0  0
  149.6120  143.6247  160.1275 H   0  0  0  0  0  0  0  0  0  0  0  0
  149.3400  144.4112  158.5778 H   0  0  0  0  0  0  0  0  0  0  0  0
  149.3818  145.3634  160.0450 H   0  0  0  0  0  0  0  0  0  0  0  0
  151.4569  145.6182  158.7421 H   0  0  0  0  0  0  0  0  0  0  0  0
  153.0127  145.5348  160.5276 H   0  0  0  0  0  0  0  0  0  0  0  0
  151.4550  145.8541  161.2482 H   0  0  0  0  0  0  0  0  0  0  0  0
  152.7384  144.1078  162.5066 H   0  0  0  0  0  0  0  0  0  0  0  0
  151.2294  143.4749  161.9209 H   0  0  0  0  0  0  0  0  0  0  0  0
  154.0050  143.0524  160.7062 H   0  0  0  0  0  0  0  0  0  0  0  0
  153.0472  141.8461  161.5202 H   0  0  0  0  0  0  0  0  0  0  0  0
  151.3778  141.8583  159.7047 H   0  0  0  0  0  0  0  0  0  0  0  0
  150.8945  140.7628  157.0334 H   0  0  0  0  0  0  0  0  0  0  0  0
  152.4472  141.0863  156.2802 H   0  0  0  0  0  0  0  0  0  0  0  0
  150.7123  139.7540  154.0221 H   0  0  0  0  0  0  0  0  0  0  0  0
  150.9516  137.0431  153.5159 H   0  0  0  0  0  0  0  0  0  0  0  0
  153.1150  143.9806  158.4097 H   0  0  0  0  0  0  0  0  0  0  0  0
  150.5100  142.7820  157.3469 H   0  0  0  0  0  0  0  0  0  0  0  0
  152.1114  142.6349  156.6351 H   0  0  0  0  0  0  0  0  0  0  0  0
  151.3243  144.1940  156.6915 H   0  0  0  0  0  0  0  0  0  0  0  0
  1  2  1  0  0  0  0
  1 19  1  0  0  0  0
  1 20  1  0  0  0  0
  1 21  1  0  0  0  0
  2 17  1  0  0  0  0
  2  3  1  0  0  0  0
  2 22  1  0  0  0  0
  3  4  1  0  0  0  0
  3 23  1  0  0  0  0
  3 24  1  0  0  0  0
  4  5  1  0  0  0  0
  4 25  1  0  0  0  0
  4 26  1  0  0  0  0
  5  6  1  0  0  0  0
  5 27  1  0  0  0  0
  5 28  1  0  0  0  0
  6  7  1  0  0  0  0
  6 17  1  0  0  0  0
  6 29  1  0  0  0  0
  7  8  1  0  0  0  0
  8  9  2  0  0  0  0
  8 10  2  0  0  0  0
  8 11  1  0  0  0  0
 11 12  1  0  0  0  0
 11 30  1  0  0  0  0
 11 31  1  0  0  0  0
 12 16  2  0  0  0  0
 12 13  1  0  0  0  0
 13 14  2  0  0  0  0
 13 32  1  0  0  0  0
 14 15  1  0  0  0  0
 14 33  1  0  0  0  0
 15 16  1  0  0  0  0
 17 18  1  0  0  0  0
 17 34  1  0  0  0  0
 18 35  1  0  0  0  0
 18 36  1  0  0  0  0
 18 37  1  0  0  0  0
M  CHG  1   7  -1
M  END
> <s_m_source_file>
AV-unprocessed.smi

> <i_m_source_file_index>
2451

> <i_lp_mmshare_version>
43012

> <i_f3d_flags>
0

> <s_epik_input>
W0NIM11bQ0BASF0xW0NIMl1bQ0gyXVtDSDJdW0NASF0oW0NASF0xW0NIM10pW05IXVMoPU8pKD1PKVtDSDJdYzJbY0hdW2NIXW9uMg==

> <s_epik_cmdline>
J2VwaWtfcHl0aG9uJywgJy1waCcsICc3LjAnLCAnLXRuJywgJzgnLCAnLW1hJywgJzIwMCcsICctbWV0YWxfYmluZGluZycsICctaW1hZScsICc8aW5maWxlLm1hZT4nLCAnLW9tYWUnLCAnPG91dGZpbGUubWFlPic=

> <r_lp_tautomer_probability>
1

> <r_epik_Ionization_Penalty>
5.22693

> <r_epik_Ionization_Penalty_Charging>
5.22693

> <r_epik_Ionization_Penalty_Neutral>
2.67702e-10

> <r_epik_State_Penalty>
5.22685

> <r_epik_Charging_Adjusted_Penalty>
10.4538

> <i_epik_Tot_Q>
-1

> <i_epik_Tot_abs_Q>
1

> <r_epik_Metal_State_Penalty>
1.28716

> <b_epik_Metal_Only>
1

> <s_lp_Force_Field>
OPLS_2005

> <r_lp_Energy>
15.3102

> <b_lp_Chiralities_Consistent>
1

> <s_lp_Variant>
AV-unprocessed.smi:2451-12

> <Gold.Version>
5.8.1

> <Gold.Id.Protein>
6NUR|6NUR_protein|mol2

> <Gold.PLP.Fitness>
47.9596

> <Gold.PLP.PLP>
-39.5199

> <Gold.PLP.part.hbond>
-2.3187

> <Gold.PLP.part.metal>
0.0000

> <Gold.PLP.part.buried>
-2.9654

> <Gold.PLP.part.nonpolar>
-34.8861

> <Gold.PLP.part.repulsive>
0.0678

> <Gold.PLP.ligand.clash>
0.0000

> <Gold.PLP.ligand.torsion>
0.9352

> <Gold.PLP.Chemscore.Hbond>
2.0000

> <Gold.PLP.Chemscore.CHOScore>
1.1040

> <Gold.PLP.Chemscore.Metal>
0.0000

> <Gold.Chemscore.Hbonds>
donor molecule, donor type, donor heavy atom, donor atom, acceptor molecule, acceptor atom, score
      P1  H  7997  8009       L1     9  1.00
      P1  H 10752 10764       L1    15  1.00
      L1  C    14    33       P1  7948  0.11
      L1  C    14    33       P1  7949  1.00

> <Gold.PLP.Chemscore.Internal.Correction>
0.9983

> <Gold.Rescore>
     Score         DG    S(hbond)    S(metal)    S(lipo)     H(rot)  DE(clash)    DE(int)     intcor
     16.60     -19.18       1.27        0.00     111.29       1.40       0.40       2.17       ----

> <Gold.Chemscore.Fitness>
16.6008

> <Gold.Chemscore.DG>
-19.1765

> <Gold.Chemscore.ZeroCoef>
-5.4800

> <Gold.Chemscore.Hbond>
1.2744

> <Gold.Chemscore.Metal>
0.0000

> <Gold.Chemscore.Lipo>
111.2852

> <Gold.Chemscore.Internal_Hbond>
0.0000

> <Gold.Chemscore.DEClash>
0.4019

> <Gold.Chemscore.DEInternal>
2.1738

> <Gold.Chemscore.Rot>
1.3986

> <Gold.Chemscore.Internal.Correction>
   9.000000E+99

> <Gold.Chemscore.Hbonds>
donor molecule, donor type, donor heavy atom, donor atom, acceptor molecule, acceptor atom, score
      P1  H  7997  8009       L1     9  0.33
      P1  H 10752 10764       L1    15  0.67

> <Gold.Chemscore.Hbond.Weighted>
-4.2565

> <Gold.Chemscore.Metal.Weighted>
-0.0000

> <Gold.Chemscore.Lipo.Weighted>
-13.0204

> <Gold.Chemscore.Internal_Hbond.Weighted>
0.0000

> <Gold.Chemscore.DEClash.Weighted>
0.4019

> <Gold.Chemscore.DEInternal.Weighted>
2.1738

> <Gold.Chemscore.Rot.Weighted>
3.5804

> <Gold.Chemscore.Internal.Correction.Weighted>
   9.000000E+99

> <Gold.Protein.RotatedTorsions>
[ 6907 6896 6895 6894 ] final -140.22 input  -60.11 | X-H torsion
[ 7974 7965 7964 7962 ] final   57.47 input  175.53 | X-H torsion
[ 8008 7997 7996 7995 ] final  127.72 input   59.86 | X-H torsion
[ 10167 10162 10161 10158 ] final   77.04 input  -65.29 | X-H torsion
[ 10718 10713 10712 10709 ] final  -99.17 input   66.30 | X-H torsion
[ 10763 10752 10751 10750 ] final  -52.79 input  -60.55 | X-H torsion
[ 11005 11000 10999 10996 ] final   68.34 input  -57.11 | X-H torsion

> <Gold.Protein.ActiveResidues>
 VAL166  LYS551  ARG553  GLY616  TRP617  ASP618  TYR619  PRO620  LYS621  CYS622 
 ASP623  PHE694  ASN695  SER759  ASP760  ASP761  ALA762  ILE779  LEU786  VAL792 
 PHE793  MET794  SER795  GLU796  ALA797  LYS798  CYS799  TRP800  GLU811  SER814 

> <Gold.Protein.RotatedAtoms>
  151.0579  133.5569  159.2636 H   0  0  0  0  0  0  0  0  0  0  0  0  # atno 6907 bound_to 6896
  151.2555  135.0636  159.9088 H   0  0  0  0  0  0  0  0  0  0  0  0  # atno 6908 bound_to 6896
  152.5393  134.0332  159.8088 H   0  0  0  0  0  0  0  0  0  0  0  0  # atno 6909 bound_to 6896
  145.9287  139.3789  143.0434 H   0  0  0  0  0  0  0  0  0  0  0  0  # atno 7974 bound_to 7965
  156.2898  140.2662  156.2318 H   0  0  0  0  0  0  0  0  0  0  0  0  # atno 8008 bound_to 7997
  155.0064  140.0387  157.2400 H   0  0  0  0  0  0  0  0  0  0  0  0  # atno 8009 bound_to 7997
  154.7556  140.2751  155.6261 H   0  0  0  0  0  0  0  0  0  0  0  0  # atno 8010 bound_to 7997
  139.9858  144.5793  150.7861 H   0  0  0  0  0  0  0  0  0  0  0  0  # atno 10167 bound_to 10162
  156.0127  130.5270  150.6630 H   0  0  0  0  0  0  0  0  0  0  0  0  # atno 10718 bound_to 10713
  154.1484  135.6494  153.4958 H   0  0  0  0  0  0  0  0  0  0  0  0  # atno 10763 bound_to 10752
  153.0145  135.5332  154.6833 H   0  0  0  0  0  0  0  0  0  0  0  0  # atno 10764 bound_to 10752
  154.6114  135.2954  155.0399 H   0  0  0  0  0  0  0  0  0  0  0  0  # atno 10765 bound_to 10752
  139.9717  134.6889  156.0433 H   0  0  0  0  0  0  0  0  0  0  0  0  # atno 11005 bound_to 11000
  145.8455  140.9558  143.0777 LP  0  0  0  0  0  0  0  0  0  0  0  0  # atno 17320 bound_to 7965
  144.6762  140.0339  143.7482 LP  0  0  0  0  0  0  0  0  0  0  0  0  # atno 17321 bound_to 7965
  140.7473  143.2904  151.3348 LP  0  0  0  0  0  0  0  0  0  0  0  0  # atno 17342 bound_to 10162
  139.6376  144.0601  152.2528 LP  0  0  0  0  0  0  0  0  0  0  0  0  # atno 17343 bound_to 10162
  157.4369  131.0856  151.0983 LP  0  0  0  0  0  0  0  0  0  0  0  0  # atno 17370 bound_to 10713
  157.1539  130.6196  149.5590 LP  0  0  0  0  0  0  0  0  0  0  0  0  # atno 17371 bound_to 10713
  141.1397  133.6567  156.3693 LP  0  0  0  0  0  0  0  0  0  0  0  0  # atno 17394 bound_to 11000
  140.5279  134.6241  157.5340 LP  0  0  0  0  0  0  0  0  0  0  0  0  # atno 17395 bound_to 11000

$$$$
