AV-unprocessed.smi:3303|AV-procd|sdf|12677|dock6
  -GOLD-   2272019 13D 1   1.00000     0.00000
 Structure written by MMmdl.
 44 45  0  0  0  0  0  0  0  0  2 V2000
  147.0657  142.2899  154.2559 C   0  0  0  0  0  0  0  0  0  0  0  0
  147.9256  141.0215  154.1317 C   0  0  2  0  0  0  0  0  0  0  0  0
  147.3482  139.8456  154.9424 C   0  0  0  0  0  0  0  0  0  0  0  0
  148.1087  138.6154  154.7044 N   0  0  0  0  0  0  0  0  0  0  0  0
  147.4368  137.5440  155.4356 C   0  0  0  0  0  0  0  0  0  0  0  0
  149.5128  138.7727  155.1242 C   0  0  1  0  0  0  0  0  0  0  0  0
  150.3294  137.4838  154.8998 C   0  0  0  0  0  0  0  0  0  0  0  0
  150.1662  139.9344  154.3392 C   0  0  0  0  0  0  0  0  0  0  0  0
  149.4039  141.2581  154.4946 C   0  0  2  0  0  0  0  0  0  0  0  0
  149.5583  141.7842  155.8716 N   0  3  0  0  0  0  0  0  0  0  0  0
  150.9546  141.9532  156.3204 C   0  0  0  0  0  0  0  0  0  0  0  0
  151.1161  141.5294  157.7862 C   0  0  0  0  0  0  0  0  0  0  0  0
  151.4914  142.6943  158.6820 C   0  0  0  0  0  0  0  0  0  0  0  0
  151.7655  143.9662  158.1353 C   0  0  0  0  0  0  0  0  0  0  0  0
  152.1145  145.0118  159.0121 C   0  0  0  0  0  0  0  0  0  0  0  0
  152.1763  144.7462  160.3937 C   0  0  0  0  0  0  0  0  0  0  0  0
  151.8868  143.4409  160.8392 C   0  0  0  0  0  0  0  0  0  0  0  0
  151.5529  142.4308  160.0066 N   0  0  0  0  0  0  0  0  0  0  0  0
  146.9984  142.6344  155.2881 H   0  0  0  0  0  0  0  0  0  0  0  0
  146.0497  142.1074  153.9049 H   0  0  0  0  0  0  0  0  0  0  0  0
  147.4778  143.1033  153.6580 H   0  0  0  0  0  0  0  0  0  0  0  0
  147.8938  140.7319  153.0795 H   0  0  0  0  0  0  0  0  0  0  0  0
  147.3363  140.0823  156.0076 H   0  0  0  0  0  0  0  0  0  0  0  0
  146.3110  139.6868  154.6430 H   0  0  0  0  0  0  0  0  0  0  0  0
  147.8636  136.5701  155.1991 H   0  0  0  0  0  0  0  0  0  0  0  0
  146.3820  137.4939  155.1627 H   0  0  0  0  0  0  0  0  0  0  0  0
  147.5012  137.6976  156.5138 H   0  0  0  0  0  0  0  0  0  0  0  0
  149.5350  139.0103  156.1889 H   0  0  0  0  0  0  0  0  0  0  0  0
  151.3890  137.6582  155.0884 H   0  0  0  0  0  0  0  0  0  0  0  0
  150.2338  137.1240  153.8746 H   0  0  0  0  0  0  0  0  0  0  0  0
  150.0260  136.6807  155.5709 H   0  0  0  0  0  0  0  0  0  0  0  0
  151.2014  140.0685  154.6562 H   0  0  0  0  0  0  0  0  0  0  0  0
  150.2094  139.6720  153.2807 H   0  0  0  0  0  0  0  0  0  0  0  0
  149.8247  141.9766  153.7891 H   0  0  0  0  0  0  0  0  0  0  0  0
  149.0967  142.6811  155.9183 H   0  0  0  0  0  0  0  0  0  0  0  0
  151.6089  141.3583  155.6814 H   0  0  0  0  0  0  0  0  0  0  0  0
  151.2467  142.9978  156.2030 H   0  0  0  0  0  0  0  0  0  0  0  0
  150.1900  141.0817  158.1495 H   0  0  0  0  0  0  0  0  0  0  0  0
  151.8835  140.7584  157.8710 H   0  0  0  0  0  0  0  0  0  0  0  0
  151.7106  144.1399  157.0705 H   0  0  0  0  0  0  0  0  0  0  0  0
  152.3300  145.9996  158.6321 H   0  0  0  0  0  0  0  0  0  0  0  0
  152.4388  145.5240  161.0956 H   0  0  0  0  0  0  0  0  0  0  0  0
  151.9247  143.2017  161.8916 H   0  0  0  0  0  0  0  0  0  0  0  0
  149.0932  141.1518  156.5070 H   0  0  0  0  0  0  0  0  0  0  0  0
  1  2  1  0  0  0  0
  1 19  1  0  0  0  0
  1 20  1  0  0  0  0
  1 21  1  0  0  0  0
  2  9  1  0  0  0  0
  2  3  1  0  0  0  0
  2 22  1  0  0  0  0
  3  4  1  0  0  0  0
  3 23  1  0  0  0  0
  3 24  1  0  0  0  0
  4  5  1  0  0  0  0
  4  6  1  0  0  0  0
  5 25  1  0  0  0  0
  5 26  1  0  0  0  0
  5 27  1  0  0  0  0
  6  7  1  0  0  0  0
  6  8  1  0  0  0  0
  6 28  1  0  0  0  0
  7 29  1  0  0  0  0
  7 30  1  0  0  0  0
  7 31  1  0  0  0  0
  8  9  1  0  0  0  0
  8 32  1  0  0  0  0
  8 33  1  0  0  0  0
  9 10  1  0  0  0  0
  9 34  1  0  0  0  0
 10 11  1  0  0  0  0
 10 35  1  0  0  0  0
 10 44  1  0  0  0  0
 11 12  1  0  0  0  0
 11 36  1  0  0  0  0
 11 37  1  0  0  0  0
 12 13  1  0  0  0  0
 12 38  1  0  0  0  0
 12 39  1  0  0  0  0
 13 18  1  0  0  0  0
 13 14  2  0  0  0  0
 14 15  1  0  0  0  0
 14 40  1  0  0  0  0
 15 16  2  0  0  0  0
 15 41  1  0  0  0  0
 16 17  1  0  0  0  0
 16 42  1  0  0  0  0
 17 18  2  0  0  0  0
 17 43  1  0  0  0  0
M  CHG  1  10   1
M  END
> <s_m_source_file>
AV-unprocessed.smi

> <i_m_source_file_index>
3303

> <i_lp_mmshare_version>
43012

> <i_f3d_flags>
0

> <s_epik_input>
W0NIM11bQ0BASF0xW0NIMl1OKFtDSDNdKVtDQEBIXShbQ0gzXSlbQ0gyXVtDQEhdMVtOSF1bQ0gyXVtDSDJdYzJbY0hdW2NIXVtjSF1bY0hdbjI=

> <s_epik_cmdline>
J2VwaWtfcHl0aG9uJywgJy1waCcsICc3LjAnLCAnLXRuJywgJzgnLCAnLW1hJywgJzIwMCcsICctbWV0YWxfYmluZGluZycsICctaW1hZScsICc8aW5maWxlLm1hZT4nLCAnLW9tYWUnLCAnPG91dGZpbGUubWFlPic=

> <r_epik_Ionization_Penalty>
1.37325

> <r_epik_Ionization_Penalty_Charging>
0.000251572

> <r_epik_Ionization_Penalty_Neutral>
1.373

> <r_epik_State_Penalty>
1.46343

> <r_epik_Charging_Adjusted_Penalty>
1.46368

> <i_epik_Tot_Q>
1

> <i_epik_Tot_abs_Q>
1

> <r_epik_Metal_State_Penalty>
1.46331

> <b_epik_Metal_Only>
0

> <s_lp_Force_Field>
OPLS_2005

> <r_lp_Energy>
25.9316

> <b_lp_Chiralities_Consistent>
1

> <s_lp_Variant>
AV-unprocessed.smi:3303-21

> <Gold.Version>
5.8.1

> <Gold.Id.Protein>
6NUR|6NUR_protein|mol2

> <Gold.PLP.Fitness>
43.3800

> <Gold.PLP.PLP>
-38.7365

> <Gold.PLP.part.hbond>
-1.4983

> <Gold.PLP.part.metal>
0.0000

> <Gold.PLP.part.buried>
-2.4590

> <Gold.PLP.part.nonpolar>
-33.7217

> <Gold.PLP.part.repulsive>
0.2253

> <Gold.PLP.ligand.clash>
0.0000

> <Gold.PLP.ligand.torsion>
0.6867

> <Gold.PLP.Chemscore.Hbond>
2.0000

> <Gold.PLP.Chemscore.CHOScore>
0.0000

> <Gold.PLP.Chemscore.Metal>
0.0000

> <Gold.Chemscore.Hbonds>
donor molecule, donor type, donor heavy atom, donor atom, acceptor molecule, acceptor atom, score
      L1  H    10    35       P1  8028  1.82

> <Gold.PLP.Chemscore.Internal.Correction>
0.0169

> <Gold.Rescore>
     Score         DG    S(hbond)    S(metal)    S(lipo)     H(rot)  DE(clash)    DE(int)     intcor
     18.06     -19.00       0.98        0.00     116.76       1.33       0.31       0.63       ----

> <Gold.Chemscore.Fitness>
18.0597

> <Gold.Chemscore.DG>
-18.9979

> <Gold.Chemscore.ZeroCoef>
-5.4800

> <Gold.Chemscore.Hbond>
0.9763

> <Gold.Chemscore.Metal>
0.0000

> <Gold.Chemscore.Lipo>
116.7632

> <Gold.Chemscore.Internal_Hbond>
0.0000

> <Gold.Chemscore.DEClash>
0.3056

> <Gold.Chemscore.DEInternal>
0.6325

> <Gold.Chemscore.Rot>
1.3298

> <Gold.Chemscore.Internal.Correction>
   9.000000E+99

> <Gold.Chemscore.Hbonds>
donor molecule, donor type, donor heavy atom, donor atom, acceptor molecule, acceptor atom, score
      L1  H    10    35       P1  8028  0.88

> <Gold.Chemscore.Hbond.Weighted>
-3.2609

> <Gold.Chemscore.Metal.Weighted>
-0.0000

> <Gold.Chemscore.Lipo.Weighted>
-13.6613

> <Gold.Chemscore.Internal_Hbond.Weighted>
0.0000

> <Gold.Chemscore.DEClash.Weighted>
0.3056

> <Gold.Chemscore.DEInternal.Weighted>
0.6325

> <Gold.Chemscore.Rot.Weighted>
3.4043

> <Gold.Chemscore.Internal.Correction.Weighted>
   9.000000E+99

> <Gold.Protein.RotatedTorsions>
[ 6907 6896 6895 6894 ] final   49.36 input  -60.11 | X-H torsion
[ 7974 7965 7964 7962 ] final  165.05 input  175.53 | X-H torsion
[ 8008 7997 7996 7995 ] final  -29.19 input   59.86 | X-H torsion
[ 10167 10162 10161 10158 ] final  114.47 input  -65.29 | X-H torsion
[ 10718 10713 10712 10709 ] final   37.69 input   66.30 | X-H torsion
[ 10763 10752 10751 10750 ] final -145.86 input  -60.55 | X-H torsion
[ 11005 11000 10999 10996 ] final    1.62 input  -57.11 | X-H torsion

> <Gold.Protein.ActiveResidues>
 VAL166  LYS551  ARG553  GLY616  TRP617  ASP618  TYR619  PRO620  LYS621  CYS622 
 ASP623  PHE694  ASN695  SER759  ASP760  ASP761  ALA762  ILE779  LEU786  VAL792 
 PHE793  MET794  SER795  GLU796  ALA797  LYS798  CYS799  TRP800  GLU811  SER814 

> <Gold.Protein.RotatedAtoms>
  152.2898  134.7734  160.0379 H   0  0  0  0  0  0  0  0  0  0  0  0  # atno 6907 bound_to 6896
  151.8284  133.3399  159.3614 H   0  0  0  0  0  0  0  0  0  0  0  0  # atno 6908 bound_to 6896
  150.7225  134.5435  159.5803 H   0  0  0  0  0  0  0  0  0  0  0  0  # atno 6909 bound_to 6896
  144.7519  139.8414  143.6363 H   0  0  0  0  0  0  0  0  0  0  0  0  # atno 7974 bound_to 7965
  154.4300  140.1825  156.1209 H   0  0  0  0  0  0  0  0  0  0  0  0  # atno 8008 bound_to 7997
  156.0144  140.3347  155.6948 H   0  0  0  0  0  0  0  0  0  0  0  0  # atno 8009 bound_to 7997
  155.6066  140.0645  157.2709 H   0  0  0  0  0  0  0  0  0  0  0  0  # atno 8010 bound_to 7997
  139.6386  144.7122  151.2283 H   0  0  0  0  0  0  0  0  0  0  0  0  # atno 10167 bound_to 10162
  157.3500  130.7593  149.6972 H   0  0  0  0  0  0  0  0  0  0  0  0  # atno 10718 bound_to 10713
  154.8364  135.3402  154.6570 H   0  0  0  0  0  0  0  0  0  0  0  0  # atno 10763 bound_to 10752
  153.7184  135.6959  153.5023 H   0  0  0  0  0  0  0  0  0  0  0  0  # atno 10764 bound_to 10752
  153.2399  135.4388  155.0640 H   0  0  0  0  0  0  0  0  0  0  0  0  # atno 10765 bound_to 10752
  140.6134  133.9727  155.8188 H   0  0  0  0  0  0  0  0  0  0  0  0  # atno 11005 bound_to 11000
  146.1480  139.4555  143.0067 LP  0  0  0  0  0  0  0  0  0  0  0  0  # atno 17320 bound_to 7965
  145.6915  141.0163  143.1553 LP  0  0  0  0  0  0  0  0  0  0  0  0  # atno 17321 bound_to 7965
  140.7479  143.6351  150.8386 LP  0  0  0  0  0  0  0  0  0  0  0  0  # atno 17342 bound_to 10162
  139.9986  143.5769  152.2884 LP  0  0  0  0  0  0  0  0  0  0  0  0  # atno 17343 bound_to 10162
  155.9720  130.4143  150.4126 LP  0  0  0  0  0  0  0  0  0  0  0  0  # atno 17370 bound_to 10713
  157.2188  131.0477  151.2558 LP  0  0  0  0  0  0  0  0  0  0  0  0  # atno 17371 bound_to 10713
  141.0792  134.0088  157.3411 LP  0  0  0  0  0  0  0  0  0  0  0  0  # atno 17394 bound_to 11000
  139.9183  135.0198  156.7966 LP  0  0  0  0  0  0  0  0  0  0  0  0  # atno 17395 bound_to 11000

$$$$
