AV-unprocessed.smi:1469|AV-procd|sdf|5959|dock3
  -GOLD-   22720 6 43D 1   1.00000     0.00000
 Structure written by MMmdl.
 41 42  0  0  0  0  0  0  0  0  2 V2000
  149.6318  133.1103  155.8227 C   0  0  0  0  0  0  0  0  0  0  0  0
  149.2664  134.5060  155.2766 C   0  0  1  0  0  0  0  0  0  0  0  0
  150.5305  135.3921  155.1341 C   0  0  0  0  0  0  0  0  0  0  0  0
  150.2266  136.8044  154.9081 N   0  0  0  0  0  0  0  0  0  0  0  0
  151.1032  137.7335  154.4975 C   0  0  0  0  0  0  0  0  0  0  0  0
  152.2792  137.4805  154.2339 O   0  0  0  0  0  0  0  0  0  0  0  0
  150.5496  139.1570  154.3413 C   0  0  0  0  0  0  0  0  0  0  0  0
  150.7839  140.0073  155.5204 N   0  0  0  0  0  0  0  0  0  0  0  0
  151.7073  139.5391  156.4767 C   0  0  0  0  0  0  0  0  0  0  0  0
  151.9934  140.2359  157.5879 C   0  0  0  0  0  0  0  0  0  0  0  0
  151.3265  141.5001  157.7913 C   0  0  0  0  0  0  0  0  0  0  0  0
  150.4394  141.9558  156.8844 C   0  0  0  0  0  0  0  0  0  0  0  0
  150.1212  141.1958  155.6700 C   0  0  0  0  0  0  0  0  0  0  0  0
  149.3087  141.6015  154.8380 O   0  0  0  0  0  0  0  0  0  0  0  0
  148.5056  134.4112  153.9969 N   0  3  0  0  0  0  0  0  0  0  0  0
  148.8230  133.2437  153.1465 C   0  0  0  0  0  0  0  0  0  0  0  0
  147.6300  133.1052  152.2082 C   0  0  0  0  0  0  0  0  0  0  0  0
  146.4488  133.4766  153.0974 C   0  0  0  0  0  0  0  0  0  0  0  0
  147.0275  134.4476  154.1361 C   0  0  0  0  0  0  0  0  0  0  0  0
  150.2593  133.1897  156.7109 H   0  0  0  0  0  0  0  0  0  0  0  0
  150.1758  132.5194  155.0858 H   0  0  0  0  0  0  0  0  0  0  0  0
  148.7473  132.5439  156.1138 H   0  0  0  0  0  0  0  0  0  0  0  0
  148.6168  134.9780  156.0157 H   0  0  0  0  0  0  0  0  0  0  0  0
  151.1257  135.3366  156.0456 H   0  0  0  0  0  0  0  0  0  0  0  0
  151.1804  135.0048  154.3473 H   0  0  0  0  0  0  0  0  0  0  0  0
  149.2839  137.1057  155.1089 H   0  0  0  0  0  0  0  0  0  0  0  0
  151.0027  139.6004  153.4536 H   0  0  0  0  0  0  0  0  0  0  0  0
  149.4809  139.1099  154.1224 H   0  0  0  0  0  0  0  0  0  0  0  0
  152.1576  138.5829  156.2534 H   0  0  0  0  0  0  0  0  0  0  0  0
  152.7013  139.8597  158.3118 H   0  0  0  0  0  0  0  0  0  0  0  0
  151.5387  142.0831  158.6752 H   0  0  0  0  0  0  0  0  0  0  0  0
  149.9493  142.9036  157.0537 H   0  0  0  0  0  0  0  0  0  0  0  0
  149.7581  133.3771  152.6017 H   0  0  0  0  0  0  0  0  0  0  0  0
  148.9110  132.3487  153.7650 H   0  0  0  0  0  0  0  0  0  0  0  0
  147.7179  133.8204  151.3889 H   0  0  0  0  0  0  0  0  0  0  0  0
  147.5414  132.1073  151.7774 H   0  0  0  0  0  0  0  0  0  0  0  0
  145.6231  133.9099  152.5321 H   0  0  0  0  0  0  0  0  0  0  0  0
  146.0731  132.5838  153.5995 H   0  0  0  0  0  0  0  0  0  0  0  0
  146.7089  134.1477  155.1355 H   0  0  0  0  0  0  0  0  0  0  0  0
  146.6759  135.4661  153.9678 H   0  0  0  0  0  0  0  0  0  0  0  0
  148.7535  135.2226  153.4485 H   0  0  0  0  0  0  0  0  0  0  0  0
  1  2  1  0  0  0  0
  1 20  1  0  0  0  0
  1 21  1  0  0  0  0
  1 22  1  0  0  0  0
  2  3  1  0  0  0  0
  2 15  1  0  0  0  0
  2 23  1  0  0  0  0
  3  4  1  0  0  0  0
  3 24  1  0  0  0  0
  3 25  1  0  0  0  0
  4  5  1  0  0  0  0
  4 26  1  0  0  0  0
  5  6  2  0  0  0  0
  5  7  1  0  0  0  0
  7  8  1  0  0  0  0
  7 27  1  0  0  0  0
  7 28  1  0  0  0  0
  8 13  1  0  0  0  0
  8  9  1  0  0  0  0
  9 10  2  0  0  0  0
  9 29  1  0  0  0  0
 10 11  1  0  0  0  0
 10 30  1  0  0  0  0
 11 12  2  0  0  0  0
 11 31  1  0  0  0  0
 12 13  1  0  0  0  0
 12 32  1  0  0  0  0
 13 14  2  0  0  0  0
 15 19  1  0  0  0  0
 15 16  1  0  0  0  0
 15 41  1  0  0  0  0
 16 17  1  0  0  0  0
 16 33  1  0  0  0  0
 16 34  1  0  0  0  0
 17 18  1  0  0  0  0
 17 35  1  0  0  0  0
 17 36  1  0  0  0  0
 18 19  1  0  0  0  0
 18 37  1  0  0  0  0
 18 38  1  0  0  0  0
 19 39  1  0  0  0  0
 19 40  1  0  0  0  0
M  CHG  1  15   1
M  END
> <s_m_source_file>
AV-unprocessed.smi

> <i_m_source_file_index>
1469

> <i_lp_mmshare_version>
43012

> <i_f3d_flags>
0

> <s_epik_input>
W0NIMl0xW0NIMl1bQ0gyXVtDSDJdTjFbQ0BIXShbQ0gzXSlbQ0gyXVtOSF1DKD1PKVtDSDJdbjJbY0hdW2NIXVtjSF1bY0hdYzI9Tw==

> <s_epik_cmdline>
J2VwaWtfcHl0aG9uJywgJy1waCcsICc3LjAnLCAnLXRuJywgJzgnLCAnLW1hJywgJzIwMCcsICctbWV0YWxfYmluZGluZycsICctaW1hZScsICc8aW5maWxlLm1hZT4nLCAnLW9tYWUnLCAnPG91dGZpbGUubWFlPic=

> <r_lp_tautomer_probability>
1

> <r_epik_Ionization_Penalty>
0.00497231

> <r_epik_Ionization_Penalty_Charging>
0.00497223

> <r_epik_Ionization_Penalty_Neutral>
8.2288e-08

> <r_epik_State_Penalty>
0.0036131

> <r_epik_Charging_Adjusted_Penalty>
0.00858533

> <i_epik_Tot_Q>
1

> <i_epik_Tot_abs_Q>
1

> <r_epik_Metal_State_Penalty>
-0

> <b_epik_Metal_Only>
0

> <s_lp_Force_Field>
OPLS_2005

> <r_lp_Energy>
47.1466

> <b_lp_Chiralities_Consistent>
1

> <s_lp_Variant>
AV-unprocessed.smi:1469-2

> <Gold.Version>
5.8.1

> <Gold.Id.Protein>
6NUR|6NUR_protein|mol2

> <Gold.PLP.Fitness>
40.9637

> <Gold.PLP.PLP>
-35.8323

> <Gold.PLP.part.hbond>
-2.3397

> <Gold.PLP.part.metal>
0.0000

> <Gold.PLP.part.buried>
-2.1722

> <Gold.PLP.part.nonpolar>
-30.3041

> <Gold.PLP.part.repulsive>
0.3606

> <Gold.PLP.ligand.clash>
0.1356

> <Gold.PLP.ligand.torsion>
1.5611

> <Gold.PLP.Chemscore.Hbond>
2.7680

> <Gold.PLP.Chemscore.CHOScore>
0.0000

> <Gold.PLP.Chemscore.Metal>
0.0000

> <Gold.Chemscore.Hbonds>
donor molecule, donor type, donor heavy atom, donor atom, acceptor molecule, acceptor atom, score
      L1  H    15    41       P1  7948  2.00
      P1  H 10752 10765       L1     6  0.78

> <Gold.PLP.Chemscore.Internal.Correction>
0.0851

> <Gold.Rescore>
     Score         DG    S(hbond)    S(metal)    S(lipo)     H(rot)  DE(clash)    DE(int)     intcor
     12.45     -14.11       1.70        0.00      66.62       1.89       0.09       1.57       ----

> <Gold.Chemscore.Fitness>
12.4492

> <Gold.Chemscore.DG>
-14.1129

> <Gold.Chemscore.ZeroCoef>
-5.4800

> <Gold.Chemscore.Hbond>
1.6981

> <Gold.Chemscore.Metal>
0.0000

> <Gold.Chemscore.Lipo>
66.6246

> <Gold.Chemscore.Internal_Hbond>
0.0000

> <Gold.Chemscore.DEClash>
0.0894

> <Gold.Chemscore.DEInternal>
1.5744

> <Gold.Chemscore.Rot>
1.8882

> <Gold.Chemscore.Internal.Correction>
   9.000000E+99

> <Gold.Chemscore.Hbonds>
donor molecule, donor type, donor heavy atom, donor atom, acceptor molecule, acceptor atom, score
      L1  H    15    41       P1  7948  0.73
      P1  H 10752 10765       L1     6  0.77

> <Gold.Chemscore.Hbond.Weighted>
-5.6717

> <Gold.Chemscore.Metal.Weighted>
-0.0000

> <Gold.Chemscore.Lipo.Weighted>
-7.7951

> <Gold.Chemscore.Internal_Hbond.Weighted>
0.0000

> <Gold.Chemscore.DEClash.Weighted>
0.0894

> <Gold.Chemscore.DEInternal.Weighted>
1.5744

> <Gold.Chemscore.Rot.Weighted>
4.8338

> <Gold.Chemscore.Internal.Correction.Weighted>
   9.000000E+99

> <Gold.Protein.RotatedTorsions>
[ 6907 6896 6895 6894 ] final  -57.71 input  -60.11 | X-H torsion
[ 7974 7965 7964 7962 ] final -120.72 input  175.53 | X-H torsion
[ 8008 7997 7996 7995 ] final -124.07 input   59.86 | X-H torsion
[ 10167 10162 10161 10158 ] final -149.19 input  -65.29 | X-H torsion
[ 10718 10713 10712 10709 ] final   53.13 input   66.30 | X-H torsion
[ 10763 10752 10751 10750 ] final  154.24 input  -60.55 | X-H torsion
[ 11005 11000 10999 10996 ] final  165.09 input  -57.11 | X-H torsion

> <Gold.Protein.ActiveResidues>
 VAL166  LYS551  ARG553  GLY616  TRP617  ASP618  TYR619  PRO620  LYS621  CYS622 
 ASP623  PHE694  ASN695  SER759  ASP760  ASP761  ALA762  ILE779  LEU786  VAL792 
 PHE793  MET794  SER795  GLU796  ALA797  LYS798  CYS799  TRP800  GLU811  SER814 

> <Gold.Protein.RotatedAtoms>
  150.8064  134.7191  159.6647 H   0  0  0  0  0  0  0  0  0  0  0  0  # atno 6907 bound_to 6896
  152.4183  134.5998  160.0006 H   0  0  0  0  0  0  0  0  0  0  0  0  # atno 6908 bound_to 6896
  151.6220  133.3301  159.3126 H   0  0  0  0  0  0  0  0  0  0  0  0  # atno 6909 bound_to 6896
  145.0483  140.8198  143.4225 H   0  0  0  0  0  0  0  0  0  0  0  0  # atno 7974 bound_to 7965
  155.1908  140.0413  157.2900 H   0  0  0  0  0  0  0  0  0  0  0  0  # atno 8008 bound_to 7997
  154.6140  140.2484  155.7605 H   0  0  0  0  0  0  0  0  0  0  0  0  # atno 8009 bound_to 7997
  156.2395  140.2909  156.0416 H   0  0  0  0  0  0  0  0  0  0  0  0  # atno 8010 bound_to 7997
  139.7464  143.8584  152.2576 H   0  0  0  0  0  0  0  0  0  0  0  0  # atno 10167 bound_to 10162
  157.5139  130.8519  149.8470 H   0  0  0  0  0  0  0  0  0  0  0  0  # atno 10718 bound_to 10713
  154.1491  135.2816  155.3140 H   0  0  0  0  0  0  0  0  0  0  0  0  # atno 10763 bound_to 10752
  154.6230  135.5461  153.7600 H   0  0  0  0  0  0  0  0  0  0  0  0  # atno 10764 bound_to 10752
  153.0226  135.6444  154.1636 H   0  0  0  0  0  0  0  0  0  0  0  0  # atno 10765 bound_to 10752
  140.2526  134.7965  157.3516 H   0  0  0  0  0  0  0  0  0  0  0  0  # atno 11005 bound_to 11000
  145.1560  139.2486  143.5416 LP  0  0  0  0  0  0  0  0  0  0  0  0  # atno 17320 bound_to 7965
  146.3516  140.1274  142.8598 LP  0  0  0  0  0  0  0  0  0  0  0  0  # atno 17321 bound_to 7965
  139.8549  144.7146  150.9169 LP  0  0  0  0  0  0  0  0  0  0  0  0  # atno 17342 bound_to 10162
  140.7792  143.3867  151.1381 LP  0  0  0  0  0  0  0  0  0  0  0  0  # atno 17343 bound_to 10162
  156.0307  130.3765  150.1696 LP  0  0  0  0  0  0  0  0  0  0  0  0  # atno 17370 bound_to 10713
  156.9885  130.9886  151.3420 LP  0  0  0  0  0  0  0  0  0  0  0  0  # atno 17371 bound_to 10713
  140.1543  134.4809  155.7939 LP  0  0  0  0  0  0  0  0  0  0  0  0  # atno 17394 bound_to 11000
  141.2199  133.6875  156.7433 LP  0  0  0  0  0  0  0  0  0  0  0  0  # atno 17395 bound_to 11000

$$$$
