AV-unprocessed.smi:862|AV-procd|sdf|3983|dock4
  -GOLD-   22720 1463D 1   1.00000     0.00000
 Structure written by MMmdl.
 45 47  0  0  0  0  0  0  0  0  3 V2000
  155.8859  135.5970  158.4570 N   0  0  0  0  0  0  0  0  0  0  0  0
  154.7722  135.9641  159.0982 C   0  0  0  0  0  0  0  0  0  0  0  0
  153.6925  135.4324  158.8461 O   0  0  0  0  0  0  0  0  0  0  0  0
  154.9394  136.9133  160.0537 N   0  0  0  0  0  0  0  0  0  0  0  0
  156.1220  137.7737  160.2250 C   0  0  0  0  0  0  0  0  0  0  0  0
  155.7785  139.1957  159.7436 C   0  0  0  0  0  0  0  0  0  0  0  0
  154.5536  139.7610  160.4993 C   0  0  0  0  0  0  0  0  0  0  0  0
  154.1238  141.0628  159.9397 N   0  3  0  0  0  0  0  0  0  0  0  0
  153.1200  141.8147  160.7296 C   0  0  1  0  0  0  0  0  0  0  0  0
  153.5075  141.9960  162.2000 C   0  0  0  0  0  0  0  0  0  0  0  0
  152.6866  143.1979  162.6790 C   0  0  0  0  0  0  0  0  0  0  0  0
  152.3742  144.0361  161.4295 C   0  0  0  0  0  0  0  0  0  0  0  0
  152.9667  143.2627  160.2380 C   0  0  2  0  0  0  0  0  0  0  0  0
  152.1850  143.3982  158.9976 N   0  0  0  0  0  0  0  0  0  0  0  0
  151.7562  142.3806  158.1830 C   0  0  0  0  0  0  0  0  0  0  0  0
  151.0722  142.9654  157.1484 C   0  0  0  0  0  0  0  0  0  0  0  0
  151.1105  144.3150  157.3725 N   0  3  0  0  0  0  0  0  0  0  0  0
  151.7861  144.5768  158.4958 C   0  0  0  0  0  0  0  0  0  0  0  0
  153.3811  138.7593  160.4532 C   0  0  0  0  0  0  0  0  0  0  0  0
  153.8297  137.3581  160.9058 C   0  0  0  0  0  0  0  0  0  0  0  0
  155.8373  134.8883  157.7395 H   0  0  0  0  0  0  0  0  0  0  0  0
  156.7707  136.0201  158.6960 H   0  0  0  0  0  0  0  0  0  0  0  0
  156.3987  137.7941  161.2802 H   0  0  0  0  0  0  0  0  0  0  0  0
  157.0081  137.4146  159.7020 H   0  0  0  0  0  0  0  0  0  0  0  0
  156.6475  139.8379  159.8776 H   0  0  0  0  0  0  0  0  0  0  0  0
  155.5750  139.1730  158.6719 H   0  0  0  0  0  0  0  0  0  0  0  0
  154.8223  139.8959  161.5485 H   0  0  0  0  0  0  0  0  0  0  0  0
  154.9372  141.6399  159.7787 H   0  0  0  0  0  0  0  0  0  0  0  0
  152.1564  141.3055  160.6755 H   0  0  0  0  0  0  0  0  0  0  0  0
  153.3130  141.1063  162.7995 H   0  0  0  0  0  0  0  0  0  0  0  0
  154.5703  142.2295  162.2820 H   0  0  0  0  0  0  0  0  0  0  0  0
  151.7552  142.8546  163.1313 H   0  0  0  0  0  0  0  0  0  0  0  0
  153.2215  143.7727  163.4360 H   0  0  0  0  0  0  0  0  0  0  0  0
  151.2946  144.1642  161.3407 H   0  0  0  0  0  0  0  0  0  0  0  0
  152.8083  145.0343  161.4989 H   0  0  0  0  0  0  0  0  0  0  0  0
  153.9608  143.6692  160.0408 H   0  0  0  0  0  0  0  0  0  0  0  0
  151.9660  141.3407  158.3895 H   0  0  0  0  0  0  0  0  0  0  0  0
  150.5764  142.5336  156.2907 H   0  0  0  0  0  0  0  0  0  0  0  0
  151.9762  145.5511  158.9099 H   0  0  0  0  0  0  0  0  0  0  0  0
  152.5654  139.1081  161.0874 H   0  0  0  0  0  0  0  0  0  0  0  0
  152.9813  138.6979  159.4396 H   0  0  0  0  0  0  0  0  0  0  0  0
  152.9836  136.6697  160.8859 H   0  0  0  0  0  0  0  0  0  0  0  0
  154.1611  137.3856  161.9448 H   0  0  0  0  0  0  0  0  0  0  0  0
  153.6969  140.8644  159.0461 H   0  0  0  0  0  0  0  0  0  0  0  0
  150.6936  145.0163  156.7724 H   0  0  0  0  0  0  0  0  0  0  0  0
  1  2  1  0  0  0  0
  1 21  1  0  0  0  0
  1 22  1  0  0  0  0
  2  3  2  0  0  0  0
  2  4  1  0  0  0  0
  4 20  1  0  0  0  0
  4  5  1  0  0  0  0
  5  6  1  0  0  0  0
  5 23  1  0  0  0  0
  5 24  1  0  0  0  0
  6  7  1  0  0  0  0
  6 25  1  0  0  0  0
  6 26  1  0  0  0  0
  7  8  1  0  0  0  0
  7 19  1  0  0  0  0
  7 27  1  0  0  0  0
  8  9  1  0  0  0  0
  8 28  1  0  0  0  0
  8 44  1  0  0  0  0
  9 13  1  0  0  0  0
  9 10  1  0  0  0  0
  9 29  1  0  0  0  0
 10 11  1  0  0  0  0
 10 30  1  0  0  0  0
 10 31  1  0  0  0  0
 11 12  1  0  0  0  0
 11 32  1  0  0  0  0
 11 33  1  0  0  0  0
 12 13  1  0  0  0  0
 12 34  1  0  0  0  0
 12 35  1  0  0  0  0
 13 14  1  0  0  0  0
 13 36  1  0  0  0  0
 14 18  1  0  0  0  0
 14 15  1  0  0  0  0
 15 16  2  0  0  0  0
 15 37  1  0  0  0  0
 16 17  1  0  0  0  0
 16 38  1  0  0  0  0
 17 18  2  0  0  0  0
 17 45  1  0  0  0  0
 18 39  1  0  0  0  0
 19 20  1  0  0  0  0
 19 40  1  0  0  0  0
 19 41  1  0  0  0  0
 20 42  1  0  0  0  0
 20 43  1  0  0  0  0
M  CHG  1   8   1
M  CHG  1  17   1
M  END
> <s_m_source_file>
AV-unprocessed.smi

> <i_m_source_file_index>
862

> <i_lp_mmshare_version>
43012

> <i_f3d_flags>
0

> <s_epik_input>
W05IMl1DKD1PKU4xW0NIMl1bQ0gyXVtDSF0oW0NIMl1bQ0gyXTEpW05IXVtDQEBIXTJbQ0gyXVtDSDJdW0NIMl1bQ0BIXTJuM1tjSF1bY0hdbltjSF0z

> <s_epik_cmdline>
J2VwaWtfcHl0aG9uJywgJy1waCcsICc3LjAnLCAnLXRuJywgJzgnLCAnLW1hJywgJzIwMCcsICctbWV0YWxfYmluZGluZycsICctaW1hZScsICc8aW5maWxlLm1hZT4nLCAnLW9tYWUnLCAnPG91dGZpbGUubWFlPic=

> <r_lp_tautomer_probability>
1

> <r_epik_Ionization_Penalty>
1.30217

> <r_epik_Ionization_Penalty_Charging>
0.00439521

> <r_epik_Ionization_Penalty_Neutral>
1.29777

> <r_epik_State_Penalty>
0.977606

> <r_epik_Charging_Adjusted_Penalty>
0.982001

> <i_epik_Tot_Q>
2

> <i_epik_Tot_abs_Q>
2

> <r_epik_Metal_State_Penalty>
1.03289

> <b_epik_Metal_Only>
0

> <s_lp_Force_Field>
OPLS_2005

> <r_lp_Energy>
66.2462

> <b_lp_Chiralities_Consistent>
1

> <s_lp_Variant>
AV-unprocessed.smi:862-8

> <Gold.Version>
5.8.1

> <Gold.Id.Protein>
6NUR|6NUR_protein|mol2

> <Gold.PLP.Fitness>
49.7361

> <Gold.PLP.PLP>
-41.3734

> <Gold.PLP.part.hbond>
-2.0000

> <Gold.PLP.part.metal>
0.0000

> <Gold.PLP.part.buried>
-5.1548

> <Gold.PLP.part.nonpolar>
-34.8612

> <Gold.PLP.part.repulsive>
0.0736

> <Gold.PLP.ligand.clash>
0.0000

> <Gold.PLP.ligand.torsion>
0.3202

> <Gold.PLP.Chemscore.Hbond>
2.9840

> <Gold.PLP.Chemscore.CHOScore>
0.0000

> <Gold.PLP.Chemscore.Metal>
0.0000

> <Gold.Chemscore.Hbonds>
donor molecule, donor type, donor heavy atom, donor atom, acceptor molecule, acceptor atom, score
      L1  H    17    45       P1  8028  0.87
      P1  H  6896  6909       L1     3  0.74

> <Gold.PLP.Chemscore.Internal.Correction>
0.0512

> <Gold.Rescore>
     Score         DG    S(hbond)    S(metal)    S(lipo)     H(rot)  DE(clash)    DE(int)     intcor
     18.76     -19.90       1.98        0.00     103.40       1.68       0.18       0.96       ----

> <Gold.Chemscore.Fitness>
18.7557

> <Gold.Chemscore.DG>
-19.8967

> <Gold.Chemscore.ZeroCoef>
-5.4800

> <Gold.Chemscore.Hbond>
1.9830

> <Gold.Chemscore.Metal>
0.0000

> <Gold.Chemscore.Lipo>
103.4016

> <Gold.Chemscore.Internal_Hbond>
0.0000

> <Gold.Chemscore.DEClash>
0.1828

> <Gold.Chemscore.DEInternal>
0.9582

> <Gold.Chemscore.Rot>
1.6814

> <Gold.Chemscore.Internal.Correction>
   9.000000E+99

> <Gold.Chemscore.Hbonds>
donor molecule, donor type, donor heavy atom, donor atom, acceptor molecule, acceptor atom, score
      L1  H    17    45       P1  8028  0.28
      P1  H  6896  6909       L1     3  0.74

> <Gold.Chemscore.Hbond.Weighted>
-6.6231

> <Gold.Chemscore.Metal.Weighted>
-0.0000

> <Gold.Chemscore.Lipo.Weighted>
-12.0980

> <Gold.Chemscore.Internal_Hbond.Weighted>
0.0000

> <Gold.Chemscore.DEClash.Weighted>
0.1828

> <Gold.Chemscore.DEInternal.Weighted>
0.9582

> <Gold.Chemscore.Rot.Weighted>
4.3043

> <Gold.Chemscore.Internal.Correction.Weighted>
   9.000000E+99

> <Gold.Protein.RotatedTorsions>
[ 6907 6896 6895 6894 ] final -157.82 input  -60.11 | X-H torsion
[ 7974 7965 7964 7962 ] final  -35.91 input  175.53 | X-H torsion
[ 8008 7997 7996 7995 ] final   75.92 input   59.86 | X-H torsion
[ 10167 10162 10161 10158 ] final  -83.25 input  -65.29 | X-H torsion
[ 10718 10713 10712 10709 ] final -125.40 input   66.30 | X-H torsion
[ 10763 10752 10751 10750 ] final  165.42 input  -60.55 | X-H torsion
[ 11005 11000 10999 10996 ] final -169.63 input  -57.11 | X-H torsion

> <Gold.Protein.ActiveResidues>
 VAL166  LYS551  ARG553  GLY616  TRP617  ASP618  TYR619  PRO620  LYS621  CYS622 
 ASP623  PHE694  ASN695  SER759  ASP760  ASP761  ALA762  ILE779  LEU786  VAL792 
 PHE793  MET794  SER795  GLU796  ALA797  LYS798  CYS799  TRP800  GLU811  SER814 

> <Gold.Protein.RotatedAtoms>
  151.3086  133.4090  159.2644 H   0  0  0  0  0  0  0  0  0  0  0  0  # atno 6907 bound_to 6896
  151.0133  134.9414  159.8030 H   0  0  0  0  0  0  0  0  0  0  0  0  # atno 6908 bound_to 6896
  152.5306  134.3051  159.9145 H   0  0  0  0  0  0  0  0  0  0  0  0  # atno 6909 bound_to 6896
  146.0706  140.6216  142.8954 H   0  0  0  0  0  0  0  0  0  0  0  0  # atno 7974 bound_to 7965
  155.8198  140.3470  155.5507 H   0  0  0  0  0  0  0  0  0  0  0  0  # atno 8008 bound_to 7997
  155.8354  140.0933  157.1787 H   0  0  0  0  0  0  0  0  0  0  0  0  # atno 8009 bound_to 7997
  154.4004  140.1404  156.3651 H   0  0  0  0  0  0  0  0  0  0  0  0  # atno 8010 bound_to 7997
  140.4244  143.2572  151.8845 H   0  0  0  0  0  0  0  0  0  0  0  0  # atno 10167 bound_to 10162
  156.1672  130.6643  151.0131 H   0  0  0  0  0  0  0  0  0  0  0  0  # atno 10718 bound_to 10713
  154.3237  135.2755  155.2507 H   0  0  0  0  0  0  0  0  0  0  0  0  # atno 10763 bound_to 10752
  154.4849  135.5849  153.6420 H   0  0  0  0  0  0  0  0  0  0  0  0  # atno 10764 bound_to 10752
  152.9874  135.6120  154.3424 H   0  0  0  0  0  0  0  0  0  0  0  0  # atno 10765 bound_to 10752
  140.5286  134.5638  157.5068 H   0  0  0  0  0  0  0  0  0  0  0  0  # atno 11005 bound_to 11000
  144.7229  140.4433  143.6994 LP  0  0  0  0  0  0  0  0  0  0  0  0  # atno 17320 bound_to 7965
  145.6398  139.1548  143.2922 LP  0  0  0  0  0  0  0  0  0  0  0  0  # atno 17321 bound_to 7965
  139.4783  144.5402  151.8539 LP  0  0  0  0  0  0  0  0  0  0  0  0  # atno 17342 bound_to 10162
  140.4497  144.1872  150.5896 LP  0  0  0  0  0  0  0  0  0  0  0  0  # atno 17343 bound_to 10162
  157.6777  131.0846  150.7453 LP  0  0  0  0  0  0  0  0  0  0  0  0  # atno 17370 bound_to 10713
  156.7513  130.4769  149.5456 LP  0  0  0  0  0  0  0  0  0  0  0  0  # atno 17371 bound_to 10713
  139.9566  134.7524  156.0327 LP  0  0  0  0  0  0  0  0  0  0  0  0  # atno 17394 bound_to 11000
  141.1294  133.6590  156.3423 LP  0  0  0  0  0  0  0  0  0  0  0  0  # atno 17395 bound_to 11000

$$$$
