AV-unprocessed.smi:704|AV-procd|sdf|3445|dock9
  -GOLD-   22720 0433D 1   1.00000     0.00000
 Structure written by MMmdl.
 38 39  0  0  0  0  0  0  0  0  1 V2000
  151.8018  137.9438  154.3483 C   0  0  0  0  0  0  0  0  0  0  0  0
  150.4542  138.1176  153.9244 O   0  0  0  0  0  0  0  0  0  0  0  0
  149.7751  139.2511  154.3294 C   0  0  0  0  0  0  0  0  0  0  0  0
  150.4646  140.2144  154.9905 N   0  0  0  0  0  0  0  0  0  0  0  0
  149.8046  141.3239  155.3812 C   0  0  0  0  0  0  0  0  0  0  0  0
  148.4362  141.5340  155.1311 C   0  0  0  0  0  0  0  0  0  0  0  0
  147.7186  140.5362  154.4458 C   0  0  0  0  0  0  0  0  0  0  0  0
  148.3942  139.3588  154.0421 C   0  0  0  0  0  0  0  0  0  0  0  0
  147.7749  138.2949  153.3297 N   0  0  0  0  0  0  0  0  0  0  0  0
  146.4706  137.9847  153.2434 C   0  0  0  0  0  0  0  0  0  0  0  0
  145.5528  138.5981  153.7871 O   0  0  0  0  0  0  0  0  0  0  0  0
  146.2864  136.8884  152.4948 N   0  0  0  0  0  0  0  0  0  0  0  0
  144.9954  136.2660  152.2075 C   0  0  1  0  0  0  0  0  0  0  0  0
  145.0356  135.5422  150.8519 C   0  0  0  0  0  0  0  0  0  0  0  0
  145.1578  134.0580  151.1840 C   0  0  0  0  0  0  0  0  0  0  0  0
  144.3573  133.9001  152.4734 C   0  0  0  0  0  0  0  0  0  0  0  0
  144.6224  135.1926  153.2670 C   0  0  2  0  0  0  0  0  0  0  0  0
  143.4264  135.6106  154.1368 C   0  0  0  0  0  0  0  0  0  0  0  0
  142.8484  134.6587  154.8735 N   0  0  0  0  0  0  0  0  0  0  0  0
  143.0300  136.7745  154.1470 O   0  0  0  0  0  0  0  0  0  0  0  0
  152.1877  137.0075  153.9455 H   0  0  0  0  0  0  0  0  0  0  0  0
  151.8756  137.8913  155.4355 H   0  0  0  0  0  0  0  0  0  0  0  0
  152.4412  138.7490  153.9833 H   0  0  0  0  0  0  0  0  0  0  0  0
  150.3862  142.0693  155.9028 H   0  0  0  0  0  0  0  0  0  0  0  0
  147.9485  142.4421  155.4528 H   0  0  0  0  0  0  0  0  0  0  0  0
  146.6743  140.7017  154.2331 H   0  0  0  0  0  0  0  0  0  0  0  0
  148.4124  137.6487  152.8879 H   0  0  0  0  0  0  0  0  0  0  0  0
  147.1004  136.4457  152.0941 H   0  0  0  0  0  0  0  0  0  0  0  0
  144.2464  137.0588  152.1473 H   0  0  0  0  0  0  0  0  0  0  0  0
  144.0941  135.7124  150.3279 H   0  0  0  0  0  0  0  0  0  0  0  0
  145.8352  135.8898  150.1964 H   0  0  0  0  0  0  0  0  0  0  0  0
  144.7940  133.4155  150.3817 H   0  0  0  0  0  0  0  0  0  0  0  0
  146.2036  133.8072  151.3664 H   0  0  0  0  0  0  0  0  0  0  0  0
  143.2996  133.7903  152.2279 H   0  0  0  0  0  0  0  0  0  0  0  0
  144.6572  133.0098  153.0271 H   0  0  0  0  0  0  0  0  0  0  0  0
  145.4829  135.0081  153.9135 H   0  0  0  0  0  0  0  0  0  0  0  0
  142.0507  134.8809  155.4509 H   0  0  0  0  0  0  0  0  0  0  0  0
  143.2045  133.7147  154.8392 H   0  0  0  0  0  0  0  0  0  0  0  0
  1  2  1  0  0  0  0
  1 21  1  0  0  0  0
  1 22  1  0  0  0  0
  1 23  1  0  0  0  0
  2  3  1  0  0  0  0
  3  8  1  0  0  0  0
  3  4  2  0  0  0  0
  4  5  1  0  0  0  0
  5  6  2  0  0  0  0
  5 24  1  0  0  0  0
  6  7  1  0  0  0  0
  6 25  1  0  0  0  0
  7  8  2  0  0  0  0
  7 26  1  0  0  0  0
  8  9  1  0  0  0  0
  9 10  1  0  0  0  0
  9 27  1  0  0  0  0
 10 11  2  0  0  0  0
 10 12  1  0  0  0  0
 12 13  1  0  0  0  0
 12 28  1  0  0  0  0
 13 17  1  0  0  0  0
 13 14  1  0  0  0  0
 13 29  1  0  0  0  0
 14 15  1  0  0  0  0
 14 30  1  0  0  0  0
 14 31  1  0  0  0  0
 15 16  1  0  0  0  0
 15 32  1  0  0  0  0
 15 33  1  0  0  0  0
 16 17  1  0  0  0  0
 16 34  1  0  0  0  0
 16 35  1  0  0  0  0
 17 18  1  0  0  0  0
 17 36  1  0  0  0  0
 18 19  1  0  0  0  0
 18 20  2  0  0  0  0
 19 37  1  0  0  0  0
 19 38  1  0  0  0  0
M  END
> <s_m_source_file>
AV-unprocessed.smi

> <i_m_source_file_index>
704

> <i_lp_mmshare_version>
43012

> <i_f3d_flags>
0

> <s_epik_input>
W0NIM11PYzFuW2NIXVtjSF1bY0hdYzFbTkhdQyg9TylbTkhdW0NAQEhdMltDSDJdW0NIMl1bQ0gyXVtDQEhdMkMoPU8pW05IMl0=

> <s_epik_cmdline>
J2VwaWtfcHl0aG9uJywgJy1waCcsICc3LjAnLCAnLXRuJywgJzgnLCAnLW1hJywgJzIwMCcsICctbWV0YWxfYmluZGluZycsICctaW1hZScsICc8aW5maWxlLm1hZT4nLCAnLW9tYWUnLCAnPG91dGZpbGUubWFlPic=

> <r_lp_tautomer_probability>
1

> <r_epik_Ionization_Penalty>
9.09123e-05

> <r_epik_Ionization_Penalty_Charging>
0

> <r_epik_Ionization_Penalty_Neutral>
9.09123e-05

> <r_epik_State_Penalty>
-0

> <r_epik_Charging_Adjusted_Penalty>
0

> <i_epik_Tot_Q>
0

> <i_epik_Tot_abs_Q>
0

> <r_epik_Metal_State_Penalty>
-0

> <b_epik_Metal_Only>
0

> <s_lp_Force_Field>
OPLS_2005

> <r_lp_Energy>
17.389

> <b_lp_Chiralities_Consistent>
1

> <s_lp_Variant>
AV-unprocessed.smi:704-4

> <Gold.Version>
5.8.1

> <Gold.Id.Protein>
6NUR|6NUR_protein|mol2

> <Gold.PLP.Fitness>
40.9588

> <Gold.PLP.PLP>
-29.4264

> <Gold.PLP.part.hbond>
-4.7830

> <Gold.PLP.part.metal>
0.0000

> <Gold.PLP.part.buried>
-6.6648

> <Gold.PLP.part.nonpolar>
-22.0456

> <Gold.PLP.part.repulsive>
1.7547

> <Gold.PLP.ligand.clash>
0.0000

> <Gold.PLP.ligand.torsion>
0.8411

> <Gold.PLP.Chemscore.Hbond>
4.4016

> <Gold.PLP.Chemscore.CHOScore>
0.0000

> <Gold.PLP.Chemscore.Metal>
0.0000

> <Gold.Chemscore.Hbonds>
donor molecule, donor type, donor heavy atom, donor atom, acceptor molecule, acceptor atom, score
      L1  H     9    27       P1  7948  1.00
      L1  H    12    28       P1  7948  1.00
      L1  H    19    37       P1 11000  0.52
      L1  H    19    38       P1 10957  0.86
      P1  H  7989  7998       L1     4  1.00

> <Gold.PLP.Chemscore.Internal.Correction>
0.0101

> <Gold.Rescore>
     Score         DG    S(hbond)    S(metal)    S(lipo)     H(rot)  DE(clash)    DE(int)     intcor
     15.20     -17.42       2.98        0.00      57.86       1.86       0.20       2.02       ----

> <Gold.Chemscore.Fitness>
15.1958

> <Gold.Chemscore.DG>
-17.4229

> <Gold.Chemscore.ZeroCoef>
-5.4800

> <Gold.Chemscore.Hbond>
2.9780

> <Gold.Chemscore.Metal>
0.0000

> <Gold.Chemscore.Lipo>
57.8645

> <Gold.Chemscore.Internal_Hbond>
0.0000

> <Gold.Chemscore.DEClash>
0.2038

> <Gold.Chemscore.DEInternal>
2.0233

> <Gold.Chemscore.Rot>
1.8648

> <Gold.Chemscore.Internal.Correction>
   9.000000E+99

> <Gold.Chemscore.Hbonds>
donor molecule, donor type, donor heavy atom, donor atom, acceptor molecule, acceptor atom, score
      L1  H     9    27       P1  7948  0.99
      L1  H    12    28       P1  7948  0.98
      L1  H    19    37       P1 11000  0.13
      L1  H    19    38       P1 10957  0.82
      P1  H  7989  7998       L1     4  0.10

> <Gold.Chemscore.Hbond.Weighted>
-9.9467

> <Gold.Chemscore.Metal.Weighted>
-0.0000

> <Gold.Chemscore.Lipo.Weighted>
-6.7702

> <Gold.Chemscore.Internal_Hbond.Weighted>
0.0000

> <Gold.Chemscore.DEClash.Weighted>
0.2038

> <Gold.Chemscore.DEInternal.Weighted>
2.0233

> <Gold.Chemscore.Rot.Weighted>
4.7739

> <Gold.Chemscore.Internal.Correction.Weighted>
   9.000000E+99

> <Gold.Protein.RotatedTorsions>
[ 6907 6896 6895 6894 ] final -144.51 input  -60.11 | X-H torsion
[ 7974 7965 7964 7962 ] final -131.10 input  175.53 | X-H torsion
[ 8008 7997 7996 7995 ] final   18.60 input   59.86 | X-H torsion
[ 10167 10162 10161 10158 ] final -143.15 input  -65.29 | X-H torsion
[ 10718 10713 10712 10709 ] final   72.43 input   66.30 | X-H torsion
[ 10763 10752 10751 10750 ] final  -96.29 input  -60.55 | X-H torsion
[ 11005 11000 10999 10996 ] final  157.43 input  -57.11 | X-H torsion

> <Gold.Protein.ActiveResidues>
 VAL166  LYS551  ARG553  GLY616  TRP617  ASP618  TYR619  PRO620  LYS621  CYS622 
 ASP623  PHE694  ASN695  SER759  ASP760  ASP761  ALA762  ILE779  LEU786  VAL792 
 PHE793  MET794  SER795  GLU796  ALA797  LYS798  CYS799  TRP800  GLU811  SER814 

> <Gold.Protein.RotatedAtoms>
  151.1151  133.5144  159.2603 H   0  0  0  0  0  0  0  0  0  0  0  0  # atno 6907 bound_to 6896
  151.1924  135.0407  159.8848 H   0  0  0  0  0  0  0  0  0  0  0  0  # atno 6908 bound_to 6896
  152.5452  134.0990  159.8363 H   0  0  0  0  0  0  0  0  0  0  0  0  # atno 6909 bound_to 6896
  144.9411  140.7240  143.4846 H   0  0  0  0  0  0  0  0  0  0  0  0  # atno 7974 bound_to 7965
  154.9084  140.3010  155.5279 H   0  0  0  0  0  0  0  0  0  0  0  0  # atno 8008 bound_to 7997
  156.3016  140.2393  156.4056 H   0  0  0  0  0  0  0  0  0  0  0  0  # atno 8009 bound_to 7997
  154.8450  140.0412  157.1555 H   0  0  0  0  0  0  0  0  0  0  0  0  # atno 8010 bound_to 7997
  139.8020  143.7820  152.2658 H   0  0  0  0  0  0  0  0  0  0  0  0  # atno 10167 bound_to 10162
  157.6500  130.9578  150.0928 H   0  0  0  0  0  0  0  0  0  0  0  0  # atno 10718 bound_to 10713
  154.7226  135.5089  153.8835 H   0  0  0  0  0  0  0  0  0  0  0  0  # atno 10763 bound_to 10752
  153.0876  135.6650  153.9927 H   0  0  0  0  0  0  0  0  0  0  0  0  # atno 10764 bound_to 10752
  153.9747  135.3035  155.3404 H   0  0  0  0  0  0  0  0  0  0  0  0  # atno 10765 bound_to 10752
  140.1769  134.8503  157.2757 H   0  0  0  0  0  0  0  0  0  0  0  0  # atno 11005 bound_to 11000
  145.2989  139.1857  143.4700 LP  0  0  0  0  0  0  0  0  0  0  0  0  # atno 17320 bound_to 7965
  146.3286  140.2977  142.8619 LP  0  0  0  0  0  0  0  0  0  0  0  0  # atno 17321 bound_to 7965
  139.7943  144.7398  150.9912 LP  0  0  0  0  0  0  0  0  0  0  0  0  # atno 17342 bound_to 10162
  140.7820  143.4410  151.0552 LP  0  0  0  0  0  0  0  0  0  0  0  0  # atno 17343 bound_to 10162
  156.1872  130.3653  149.8957 LP  0  0  0  0  0  0  0  0  0  0  0  0  # atno 17370 bound_to 10713
  156.6894  130.8890  151.3586 LP  0  0  0  0  0  0  0  0  0  0  0  0  # atno 17371 bound_to 10713
  140.2312  134.3906  155.7521 LP  0  0  0  0  0  0  0  0  0  0  0  0  # atno 17394 bound_to 11000
  141.2221  133.7216  156.8644 LP  0  0  0  0  0  0  0  0  0  0  0  0  # atno 17395 bound_to 11000

$$$$
