AV-unprocessed.smi:2500|AV-procd|sdf|9842|dock3
  -GOLD-   2272013463D 1   1.00000     0.00000
 Structure written by MMmdl.
 38 39  0  0  0  0  0  0  0  0  1 V2000
  149.6130  134.8290  154.4266 C   0  0  0  0  0  0  0  0  0  0  0  0
  149.3268  136.2393  154.2156 N   0  0  0  0  0  0  0  0  0  0  0  0
  149.4114  137.1840  155.1669 C   0  0  0  0  0  0  0  0  0  0  0  0
  149.7443  136.9385  156.3273 O   0  0  0  0  0  0  0  0  0  0  0  0
  149.0633  138.5868  154.7390 C   0  0  0  0  0  0  0  0  0  0  0  0
  148.2032  138.7992  153.6386 C   0  0  0  0  0  0  0  0  0  0  0  0
  147.8940  140.1197  153.2666 C   0  0  0  0  0  0  0  0  0  0  0  0
  148.4499  141.1819  154.0027 C   0  0  0  0  0  0  0  0  0  0  0  0
  149.3020  140.8965  155.0911 C   0  0  0  0  0  0  0  0  0  0  0  0
  149.8076  142.0311  155.7777 N   0  0  0  0  0  0  0  0  0  0  0  0
  150.8251  142.0881  156.6604 C   0  0  0  0  0  0  0  0  0  0  0  0
  151.5460  141.1375  156.9600 O   0  0  0  0  0  0  0  0  0  0  0  0
  151.0183  143.3041  157.2048 N   0  0  0  0  0  0  0  0  0  0  0  0
  152.0222  143.7187  158.1877 C   0  0  1  0  0  0  0  0  0  0  0  0
  151.6411  145.0526  158.8196 C   0  0  0  0  0  0  0  0  0  0  0  0
  151.7119  145.3034  160.1380 C   0  0  0  0  0  0  0  0  0  0  0  0
  152.1941  144.2891  161.1577 C   0  0  0  0  0  0  0  0  0  0  0  0
  152.9284  143.1091  160.4970 C   0  0  0  0  0  0  0  0  0  0  0  0
  152.1867  142.6084  159.2483 C   0  0  0  0  0  0  0  0  0  0  0  0
  149.5919  139.6195  155.4392 N   0  0  0  0  0  0  0  0  0  0  0  0
  149.4595  134.2764  153.4997 H   0  0  0  0  0  0  0  0  0  0  0  0
  148.9543  134.4085  155.1871 H   0  0  0  0  0  0  0  0  0  0  0  0
  150.6472  134.6859  154.7421 H   0  0  0  0  0  0  0  0  0  0  0  0
  149.0457  136.5251  153.2881 H   0  0  0  0  0  0  0  0  0  0  0  0
  147.7833  137.9724  153.0843 H   0  0  0  0  0  0  0  0  0  0  0  0
  147.2396  140.3149  152.4300 H   0  0  0  0  0  0  0  0  0  0  0  0
  148.2218  142.2026  153.7313 H   0  0  0  0  0  0  0  0  0  0  0  0
  149.3238  142.8987  155.5988 H   0  0  0  0  0  0  0  0  0  0  0  0
  150.4048  144.0372  156.8792 H   0  0  0  0  0  0  0  0  0  0  0  0
  152.9855  143.8584  157.6944 H   0  0  0  0  0  0  0  0  0  0  0  0
  151.2951  145.8301  158.1539 H   0  0  0  0  0  0  0  0  0  0  0  0
  151.4038  146.2665  160.5176 H   0  0  0  0  0  0  0  0  0  0  0  0
  152.8517  144.7824  161.8740 H   0  0  0  0  0  0  0  0  0  0  0  0
  151.3275  143.9314  161.7145 H   0  0  0  0  0  0  0  0  0  0  0  0
  153.9338  143.4218  160.2118 H   0  0  0  0  0  0  0  0  0  0  0  0
  153.0514  142.2982  161.2153 H   0  0  0  0  0  0  0  0  0  0  0  0
  151.2056  142.2413  159.5545 H   0  0  0  0  0  0  0  0  0  0  0  0
  152.7109  141.7553  158.8158 H   0  0  0  0  0  0  0  0  0  0  0  0
  1  2  1  0  0  0  0
  1 21  1  0  0  0  0
  1 22  1  0  0  0  0
  1 23  1  0  0  0  0
  2  3  1  0  0  0  0
  2 24  1  0  0  0  0
  3  4  2  0  0  0  0
  3  5  1  0  0  0  0
  5 20  1  0  0  0  0
  5  6  2  0  0  0  0
  6  7  1  0  0  0  0
  6 25  1  0  0  0  0
  7  8  2  0  0  0  0
  7 26  1  0  0  0  0
  8  9  1  0  0  0  0
  8 27  1  0  0  0  0
  9 10  1  0  0  0  0
  9 20  2  0  0  0  0
 10 11  1  0  0  0  0
 10 28  1  0  0  0  0
 11 12  2  0  0  0  0
 11 13  1  0  0  0  0
 13 14  1  0  0  0  0
 13 29  1  0  0  0  0
 14 19  1  0  0  0  0
 14 15  1  0  0  0  0
 14 30  1  0  0  0  0
 15 16  2  0  0  0  0
 15 31  1  0  0  0  0
 16 17  1  0  0  0  0
 16 32  1  0  0  0  0
 17 18  1  0  0  0  0
 17 33  1  0  0  0  0
 17 34  1  0  0  0  0
 18 19  1  0  0  0  0
 18 35  1  0  0  0  0
 18 36  1  0  0  0  0
 19 37  1  0  0  0  0
 19 38  1  0  0  0  0
M  END
> <s_m_source_file>
AV-unprocessed.smi

> <i_m_source_file_index>
2500

> <i_lp_mmshare_version>
43012

> <i_f3d_flags>
0

> <s_epik_input>
W0NIM11bTkhdQyg9TyljMVtjSF1bY0hdW2NIXWMobjEpW05IXUMoPU8pW05IXVtDQEBIXTJbQ0hdPVtDSF1bQ0gyXVtDSDJdW0NIMl0y

> <s_epik_cmdline>
J2VwaWtfcHl0aG9uJywgJy1waCcsICc3LjAnLCAnLXRuJywgJzgnLCAnLW1hJywgJzIwMCcsICctbWV0YWxfYmluZGluZycsICctaW1hZScsICc8aW5maWxlLm1hZT4nLCAnLW9tYWUnLCAnPG91dGZpbGUubWFlPic=

> <r_lp_tautomer_probability>
1

> <r_epik_Ionization_Penalty>
3.75371e-05

> <r_epik_Ionization_Penalty_Charging>
0

> <r_epik_Ionization_Penalty_Neutral>
3.75371e-05

> <r_epik_State_Penalty>
-0

> <r_epik_Charging_Adjusted_Penalty>
0

> <i_epik_Tot_Q>
0

> <i_epik_Tot_abs_Q>
0

> <r_epik_Metal_State_Penalty>
-0

> <b_epik_Metal_Only>
0

> <s_lp_Force_Field>
OPLS_2005

> <r_lp_Energy>
23.2344

> <b_lp_Chiralities_Consistent>
1

> <s_lp_Variant>
AV-unprocessed.smi:2500-2

> <Gold.Version>
5.8.1

> <Gold.Id.Protein>
6NUR|6NUR_protein|mol2

> <Gold.PLP.Fitness>
48.9458

> <Gold.PLP.PLP>
-41.0900

> <Gold.PLP.part.hbond>
-3.0000

> <Gold.PLP.part.metal>
0.0000

> <Gold.PLP.part.buried>
-3.4293

> <Gold.PLP.part.nonpolar>
-35.5287

> <Gold.PLP.part.repulsive>
0.1962

> <Gold.PLP.ligand.clash>
0.0000

> <Gold.PLP.ligand.torsion>
0.5641

> <Gold.PLP.Chemscore.Hbond>
2.9920

> <Gold.PLP.Chemscore.CHOScore>
0.0000

> <Gold.PLP.Chemscore.Metal>
0.0000

> <Gold.Chemscore.Hbonds>
donor molecule, donor type, donor heavy atom, donor atom, acceptor molecule, acceptor atom, score
      L1  H     2    24       P1  7948  0.75
      L1  H    10    28       P1  8028  1.00
      L1  H    13    29       P1  8028  0.98

> <Gold.PLP.Chemscore.Internal.Correction>
0.0080

> <Gold.Rescore>
     Score         DG    S(hbond)    S(metal)    S(lipo)     H(rot)  DE(clash)    DE(int)     intcor
     20.87     -24.48       2.93        0.00     100.72       1.00       0.08       3.53       ----

> <Gold.Chemscore.Fitness>
20.8726

> <Gold.Chemscore.DG>
-24.4778

> <Gold.Chemscore.ZeroCoef>
-5.4800

> <Gold.Chemscore.Hbond>
2.9262

> <Gold.Chemscore.Metal>
0.0000

> <Gold.Chemscore.Lipo>
100.7198

> <Gold.Chemscore.Internal_Hbond>
0.0000

> <Gold.Chemscore.DEClash>
0.0799

> <Gold.Chemscore.DEInternal>
3.5253

> <Gold.Chemscore.Rot>
1.0000

> <Gold.Chemscore.Internal.Correction>
   9.000000E+99

> <Gold.Chemscore.Hbonds>
donor molecule, donor type, donor heavy atom, donor atom, acceptor molecule, acceptor atom, score
      L1  H     2    24       P1  7948  0.70
      L1  H    10    28       P1  8028  1.00
      L1  H    13    29       P1  8028  0.87

> <Gold.Chemscore.Hbond.Weighted>
-9.7736

> <Gold.Chemscore.Metal.Weighted>
-0.0000

> <Gold.Chemscore.Lipo.Weighted>
-11.7842

> <Gold.Chemscore.Internal_Hbond.Weighted>
0.0000

> <Gold.Chemscore.DEClash.Weighted>
0.0799

> <Gold.Chemscore.DEInternal.Weighted>
3.5253

> <Gold.Chemscore.Rot.Weighted>
2.5600

> <Gold.Chemscore.Internal.Correction.Weighted>
   9.000000E+99

> <Gold.Protein.RotatedTorsions>
[ 6907 6896 6895 6894 ] final -113.34 input  -60.11 | X-H torsion
[ 7974 7965 7964 7962 ] final  -83.84 input  175.53 | X-H torsion
[ 8008 7997 7996 7995 ] final  -92.07 input   59.86 | X-H torsion
[ 10167 10162 10161 10158 ] final  -73.61 input  -65.29 | X-H torsion
[ 10718 10713 10712 10709 ] final  -58.42 input   66.30 | X-H torsion
[ 10763 10752 10751 10750 ] final -101.86 input  -60.55 | X-H torsion
[ 11005 11000 10999 10996 ] final  178.54 input  -57.11 | X-H torsion

> <Gold.Protein.ActiveResidues>
 VAL166  LYS551  ARG553  GLY616  TRP617  ASP618  TYR619  PRO620  LYS621  CYS622 
 ASP623  PHE694  ASN695  SER759  ASP760  ASP761  ALA762  ILE779  LEU786  VAL792 
 PHE793  MET794  SER795  GLU796  ALA797  LYS798  CYS799  TRP800  GLU811  SER814 

> <Gold.Protein.RotatedAtoms>
  150.7822  133.8958  159.3326 H   0  0  0  0  0  0  0  0  0  0  0  0  # atno 6907 bound_to 6896
  151.6818  135.0958  160.0227 H   0  0  0  0  0  0  0  0  0  0  0  0  # atno 6908 bound_to 6896
  152.3877  133.6596  159.6247 H   0  0  0  0  0  0  0  0  0  0  0  0  # atno 6909 bound_to 6896
  145.5146  140.9537  143.1689 H   0  0  0  0  0  0  0  0  0  0  0  0  # atno 7974 bound_to 7965
  154.7185  140.0513  157.0617 H   0  0  0  0  0  0  0  0  0  0  0  0  # atno 8008 bound_to 7997
  155.0459  140.3174  155.4689 H   0  0  0  0  0  0  0  0  0  0  0  0  # atno 8009 bound_to 7997
  156.2810  140.2124  156.5584 H   0  0  0  0  0  0  0  0  0  0  0  0  # atno 8010 bound_to 7997
  140.5096  143.2347  151.7616 H   0  0  0  0  0  0  0  0  0  0  0  0  # atno 10167 bound_to 10162
  156.1136  130.4172  150.0575 H   0  0  0  0  0  0  0  0  0  0  0  0  # atno 10718 bound_to 10713
  154.7690  135.4882  153.9611 H   0  0  0  0  0  0  0  0  0  0  0  0  # atno 10763 bound_to 10752
  153.1343  135.6759  153.9135 H   0  0  0  0  0  0  0  0  0  0  0  0  # atno 10764 bound_to 10752
  153.8828  135.3130  155.3424 H   0  0  0  0  0  0  0  0  0  0  0  0  # atno 10765 bound_to 10752
  140.3962  134.6818  157.4536 H   0  0  0  0  0  0  0  0  0  0  0  0  # atno 11005 bound_to 11000
  144.7709  139.6738  143.7195 LP  0  0  0  0  0  0  0  0  0  0  0  0  # atno 17320 bound_to 7965
  146.2145  139.5524  142.9659 LP  0  0  0  0  0  0  0  0  0  0  0  0  # atno 17321 bound_to 7965
  139.4892  144.4409  151.9765 LP  0  0  0  0  0  0  0  0  0  0  0  0  # atno 17342 bound_to 10162
  140.3501  144.3099  150.5951 LP  0  0  0  0  0  0  0  0  0  0  0  0  # atno 17343 bound_to 10162
  156.8532  130.9466  151.3624 LP  0  0  0  0  0  0  0  0  0  0  0  0  # atno 17370 bound_to 10713
  157.6319  130.8736  149.9289 LP  0  0  0  0  0  0  0  0  0  0  0  0  # atno 17371 bound_to 10713
  140.0370  134.6323  155.9031 LP  0  0  0  0  0  0  0  0  0  0  0  0  # atno 17394 bound_to 11000
  141.1873  133.6559  156.5276 LP  0  0  0  0  0  0  0  0  0  0  0  0  # atno 17395 bound_to 11000

$$$$
