AV-unprocessed.smi:720|AV-procd|sdf|3502|dock6
  -GOLD-   22720 0493D 1   1.00000     0.00000
 Structure written by MMmdl.
 46 48  0  0  0  0  0  0  0  0  1 V2000
  153.6340  129.3508  154.4923 C   0  0  0  0  0  0  0  0  0  0  0  0
  153.0901  130.3724  155.3790 N   0  0  0  0  0  0  0  0  0  0  0  0
  153.6336  130.1533  156.7129 C   0  0  0  0  0  0  0  0  0  0  0  0
  151.6288  130.3187  155.4483 C   0  0  0  0  0  0  0  0  0  0  0  0
  151.0158  131.3413  156.4291 C   0  0  0  0  0  0  0  0  0  0  0  0
  150.4332  132.4971  155.7687 N   0  0  0  0  0  0  0  0  0  0  0  0
  150.7601  133.8298  155.9260 C   0  0  0  0  0  0  0  0  0  0  0  0
  149.9660  134.5519  155.0813 C   0  0  0  0  0  0  0  0  0  0  0  0
  149.1858  133.5547  154.4351 C   0  0  0  0  0  0  0  0  0  0  0  0
  148.2171  133.9133  153.4644 N   0  0  0  0  0  0  0  0  0  0  0  0
  146.9856  133.3937  153.2951 C   0  0  0  0  0  0  0  0  0  0  0  0
  146.5054  132.4951  153.9837 O   0  0  0  0  0  0  0  0  0  0  0  0
  146.2861  133.9515  152.2907 N   0  0  0  0  0  0  0  0  0  0  0  0
  144.9292  133.6215  151.8459 C   0  0  1  0  0  0  0  0  0  0  0  0
  144.6519  134.1875  150.4357 C   0  0  0  0  0  0  0  0  0  0  0  0
  144.2798  132.9340  149.6225 C   0  0  1  0  0  0  0  0  0  0  0  0
  145.5383  132.0754  149.3931 C   0  0  0  0  0  0  0  0  0  0  0  0
  145.7906  131.4621  150.7834 C   0  0  0  0  0  0  0  0  0  0  0  0
  144.6793  132.1041  151.6416 C   0  0  2  0  0  0  0  0  0  0  0  0
  143.5180  132.1117  150.6532 C   0  0  0  0  0  0  0  0  0  0  0  0
  149.4737  132.3237  154.8335 N   0  0  0  0  0  0  0  0  0  0  0  0
  153.3605  129.5438  153.4570 H   0  0  0  0  0  0  0  0  0  0  0  0
  153.2807  128.3556  154.7647 H   0  0  0  0  0  0  0  0  0  0  0  0
  154.7239  129.3491  154.5338 H   0  0  0  0  0  0  0  0  0  0  0  0
  153.2775  130.9179  157.4042 H   0  0  0  0  0  0  0  0  0  0  0  0
  154.7227  130.2078  156.6987 H   0  0  0  0  0  0  0  0  0  0  0  0
  153.3454  129.1766  157.1049 H   0  0  0  0  0  0  0  0  0  0  0  0
  151.1876  130.4035  154.4541 H   0  0  0  0  0  0  0  0  0  0  0  0
  151.3567  129.3280  155.8150 H   0  0  0  0  0  0  0  0  0  0  0  0
  150.2129  130.8594  156.9878 H   0  0  0  0  0  0  0  0  0  0  0  0
  151.7510  131.6635  157.1686 H   0  0  0  0  0  0  0  0  0  0  0  0
  151.5220  134.1500  156.6213 H   0  0  0  0  0  0  0  0  0  0  0  0
  149.9482  135.6234  154.9477 H   0  0  0  0  0  0  0  0  0  0  0  0
  148.4811  134.6576  152.8360 H   0  0  0  0  0  0  0  0  0  0  0  0
  146.7441  134.6956  151.7844 H   0  0  0  0  0  0  0  0  0  0  0  0
  144.1981  134.0350  152.5435 H   0  0  0  0  0  0  0  0  0  0  0  0
  143.8163  134.8880  150.4661 H   0  0  0  0  0  0  0  0  0  0  0  0
  145.5043  134.7140  150.0039 H   0  0  0  0  0  0  0  0  0  0  0  0
  143.7283  133.1548  148.7082 H   0  0  0  0  0  0  0  0  0  0  0  0
  145.3494  131.2926  148.6575 H   0  0  0  0  0  0  0  0  0  0  0  0
  146.3831  132.6689  149.0418 H   0  0  0  0  0  0  0  0  0  0  0  0
  145.6632  130.3795  150.7463 H   0  0  0  0  0  0  0  0  0  0  0  0
  146.7971  131.6557  151.1539 H   0  0  0  0  0  0  0  0  0  0  0  0
  144.4821  131.5637  152.5679 H   0  0  0  0  0  0  0  0  0  0  0  0
  142.6275  132.6138  151.0354 H   0  0  0  0  0  0  0  0  0  0  0  0
  143.2427  131.1172  150.2968 H   0  0  0  0  0  0  0  0  0  0  0  0
  1  2  1  0  0  0  0
  1 22  1  0  0  0  0
  1 23  1  0  0  0  0
  1 24  1  0  0  0  0
  2  3  1  0  0  0  0
  2  4  1  0  0  0  0
  3 25  1  0  0  0  0
  3 26  1  0  0  0  0
  3 27  1  0  0  0  0
  4  5  1  0  0  0  0
  4 28  1  0  0  0  0
  4 29  1  0  0  0  0
  5  6  1  0  0  0  0
  5 30  1  0  0  0  0
  5 31  1  0  0  0  0
  6 21  1  0  0  0  0
  6  7  1  0  0  0  0
  7  8  2  0  0  0  0
  7 32  1  0  0  0  0
  8  9  1  0  0  0  0
  8 33  1  0  0  0  0
  9 10  1  0  0  0  0
  9 21  2  0  0  0  0
 10 11  1  0  0  0  0
 10 34  1  0  0  0  0
 11 12  2  0  0  0  0
 11 13  1  0  0  0  0
 13 14  1  0  0  0  0
 13 35  1  0  0  0  0
 14 19  1  0  0  0  0
 14 15  1  0  0  0  0
 14 36  1  0  0  0  0
 15 16  1  0  0  0  0
 15 37  1  0  0  0  0
 15 38  1  0  0  0  0
 16 20  1  0  0  0  0
 16 17  1  0  0  0  0
 16 39  1  0  0  0  0
 17 18  1  0  0  0  0
 17 40  1  0  0  0  0
 17 41  1  0  0  0  0
 18 19  1  0  0  0  0
 18 42  1  0  0  0  0
 18 43  1  0  0  0  0
 19 20  1  0  0  0  0
 19 44  1  0  0  0  0
 20 45  1  0  0  0  0
 20 46  1  0  0  0  0
M  END
> <s_m_source_file>
AV-unprocessed.smi

> <i_m_source_file_index>
720

> <i_lp_mmshare_version>
43012

> <i_f3d_flags>
0

> <s_epik_input>
W0NIM11OKFtDSDNdKVtDSDJdW0NIMl1uMVtjSF1bY0hdYyhuMSlbTkhdQyg9TylbTkhdW0NASF0oW0NIMl1bQ0BIXTIzKVtDQEhdKFtDSDJdMylbQ0gyXVtDSDJdMg==

> <s_epik_cmdline>
J2VwaWtfcHl0aG9uJywgJy1waCcsICc3LjAnLCAnLXRuJywgJzgnLCAnLW1hJywgJzIwMCcsICctbWV0YWxfYmluZGluZycsICctaW1hZScsICc8aW5maWxlLm1hZT4nLCAnLW9tYWUnLCAnPG91dGZpbGUubWFlPic=

> <r_lp_tautomer_probability>
1

> <r_epik_Ionization_Penalty>
1.83819

> <r_epik_Ionization_Penalty_Charging>
0

> <r_epik_Ionization_Penalty_Neutral>
1.83819

> <r_epik_State_Penalty>
1.95467

> <r_epik_Charging_Adjusted_Penalty>
1.95467

> <i_epik_Tot_Q>
0

> <i_epik_Tot_abs_Q>
0

> <r_epik_Metal_State_Penalty>
1.95467

> <b_epik_Metal_Only>
0

> <s_lp_Force_Field>
OPLS_2005

> <r_lp_Energy>
62.953

> <b_lp_Chiralities_Consistent>
1

> <s_lp_Variant>
AV-unprocessed.smi:720-8

> <Gold.Version>
5.8.1

> <Gold.Id.Protein>
6NUR|6NUR_protein|mol2

> <Gold.PLP.Fitness>
40.6034

> <Gold.PLP.PLP>
-39.1373

> <Gold.PLP.part.hbond>
-1.0000

> <Gold.PLP.part.metal>
0.0000

> <Gold.PLP.part.buried>
-5.1512

> <Gold.PLP.part.nonpolar>
-32.5629

> <Gold.PLP.part.repulsive>
0.1352

> <Gold.PLP.ligand.clash>
0.0000

> <Gold.PLP.ligand.torsion>
0.8008

> <Gold.PLP.Chemscore.Hbond>
1.0000

> <Gold.PLP.Chemscore.CHOScore>
0.0000

> <Gold.PLP.Chemscore.Metal>
0.0000

> <Gold.Chemscore.Hbonds>
donor molecule, donor type, donor heavy atom, donor atom, acceptor molecule, acceptor atom, score
      L1  H    10    34       P1  7948  1.00

> <Gold.PLP.Chemscore.Internal.Correction>
0.0677

> <Gold.Rescore>
     Score         DG    S(hbond)    S(metal)    S(lipo)     H(rot)  DE(clash)    DE(int)     intcor
     13.54     -15.49       0.80        0.00      96.14       1.53       0.05       1.90       ----

> <Gold.Chemscore.Fitness>
13.5437

> <Gold.Chemscore.DG>
-15.4908

> <Gold.Chemscore.ZeroCoef>
-5.4800

> <Gold.Chemscore.Hbond>
0.8030

> <Gold.Chemscore.Metal>
0.0000

> <Gold.Chemscore.Lipo>
96.1425

> <Gold.Chemscore.Internal_Hbond>
0.0000

> <Gold.Chemscore.DEClash>
0.0490

> <Gold.Chemscore.DEInternal>
1.8981

> <Gold.Chemscore.Rot>
1.5312

> <Gold.Chemscore.Internal.Correction>
   9.000000E+99

> <Gold.Chemscore.Hbonds>
donor molecule, donor type, donor heavy atom, donor atom, acceptor molecule, acceptor atom, score
      L1  H    10    34       P1  7948  0.30

> <Gold.Chemscore.Hbond.Weighted>
-2.6820

> <Gold.Chemscore.Metal.Weighted>
-0.0000

> <Gold.Chemscore.Lipo.Weighted>
-11.2487

> <Gold.Chemscore.Internal_Hbond.Weighted>
0.0000

> <Gold.Chemscore.DEClash.Weighted>
0.0490

> <Gold.Chemscore.DEInternal.Weighted>
1.8981

> <Gold.Chemscore.Rot.Weighted>
3.9199

> <Gold.Chemscore.Internal.Correction.Weighted>
   9.000000E+99

> <Gold.Protein.RotatedTorsions>
[ 6907 6896 6895 6894 ] final  -45.63 input  -60.11 | X-H torsion
[ 7974 7965 7964 7962 ] final   63.65 input  175.53 | X-H torsion
[ 8008 7997 7996 7995 ] final  140.02 input   59.86 | X-H torsion
[ 10167 10162 10161 10158 ] final -153.59 input  -65.29 | X-H torsion
[ 10718 10713 10712 10709 ] final   45.34 input   66.30 | X-H torsion
[ 10763 10752 10751 10750 ] final   25.56 input  -60.55 | X-H torsion
[ 11005 11000 10999 10996 ] final   69.26 input  -57.11 | X-H torsion

> <Gold.Protein.ActiveResidues>
 VAL166  LYS551  ARG553  GLY616  TRP617  ASP618  TYR619  PRO620  LYS621  CYS622 
 ASP623  PHE694  ASN695  SER759  ASP760  ASP761  ALA762  ILE779  LEU786  VAL792 
 PHE793  MET794  SER795  GLU796  ALA797  LYS798  CYS799  TRP800  GLU811  SER814 

> <Gold.Protein.RotatedAtoms>
  150.9198  134.8616  159.7481 H   0  0  0  0  0  0  0  0  0  0  0  0  # atno 6907 bound_to 6896
  152.4987  134.4234  159.9498 H   0  0  0  0  0  0  0  0  0  0  0  0  # atno 6908 bound_to 6896
  151.4269  133.3642  159.2798 H   0  0  0  0  0  0  0  0  0  0  0  0  # atno 6909 bound_to 6896
  145.8593  139.3305  143.0828 H   0  0  0  0  0  0  0  0  0  0  0  0  # atno 7974 bound_to 7965
  156.2984  140.2352  156.4333 H   0  0  0  0  0  0  0  0  0  0  0  0  # atno 8008 bound_to 7997
  154.8251  140.0436  157.1458 H   0  0  0  0  0  0  0  0  0  0  0  0  # atno 8009 bound_to 7997
  154.9271  140.3011  155.5190 H   0  0  0  0  0  0  0  0  0  0  0  0  # atno 8010 bound_to 7997
  139.7084  143.9148  152.2458 H   0  0  0  0  0  0  0  0  0  0  0  0  # atno 10167 bound_to 10162
  157.4366  130.8056  149.7653 H   0  0  0  0  0  0  0  0  0  0  0  0  # atno 10718 bound_to 10713
  153.0683  135.6580  154.0304 H   0  0  0  0  0  0  0  0  0  0  0  0  # atno 10763 bound_to 10752
  153.9956  135.2942  155.3409 H   0  0  0  0  0  0  0  0  0  0  0  0  # atno 10764 bound_to 10752
  154.7049  135.5229  153.8649 H   0  0  0  0  0  0  0  0  0  0  0  0  # atno 10765 bound_to 10752
  139.9664  134.6974  156.0537 H   0  0  0  0  0  0  0  0  0  0  0  0  # atno 11005 bound_to 11000
  145.9266  140.9078  143.0377 LP  0  0  0  0  0  0  0  0  0  0  0  0  # atno 17320 bound_to 7965
  144.6727  140.1361  143.7440 LP  0  0  0  0  0  0  0  0  0  0  0  0  # atno 17321 bound_to 7965
  139.9011  144.6911  150.8665 LP  0  0  0  0  0  0  0  0  0  0  0  0  # atno 17342 bound_to 10162
  140.7727  143.3513  151.2008 LP  0  0  0  0  0  0  0  0  0  0  0  0  # atno 17343 bound_to 10162
  155.9932  130.3925  150.2908 LP  0  0  0  0  0  0  0  0  0  0  0  0  # atno 17370 bound_to 10713
  157.1069  131.0211  151.3063 LP  0  0  0  0  0  0  0  0  0  0  0  0  # atno 17371 bound_to 10713
  141.1344  133.6578  156.3552 LP  0  0  0  0  0  0  0  0  0  0  0  0  # atno 17394 bound_to 11000
  140.5387  134.6141  157.5373 LP  0  0  0  0  0  0  0  0  0  0  0  0  # atno 17395 bound_to 11000

$$$$
