AV-unprocessed.smi:1960|AV-procd|sdf|7916|dock4
  -GOLD-   2272010 83D 1   1.00000     0.00000
 Structure written by MMmdl.
 38 39  0  0  0  0  0  0  0  0  1 V2000
  148.5084  141.7446  156.8496 C   0  0  0  0  0  0  0  0  0  0  0  0
  148.6936  141.4917  155.0370 S   0  0  0  0  0  0  0  0  0  0  0  0
  148.8167  142.8119  154.4002 O   0  0  0  0  0  0  0  0  0  0  0  0
  149.7363  140.4772  154.8197 O   0  0  0  0  0  0  0  0  0  0  0  0
  147.1715  140.8039  154.5470 N   0  0  0  0  0  0  0  0  0  0  0  0
  146.7973  140.7833  153.1187 C   0  0  0  0  0  0  0  0  0  0  0  0
  147.0187  139.3959  152.4911 C   0  0  0  0  0  0  0  0  0  0  0  0
  146.3002  138.2961  153.2912 C   0  0  0  0  0  0  0  0  0  0  0  0
  146.5796  136.9766  152.7310 N   0  0  0  0  0  0  0  0  0  0  0  0
  145.6865  136.1998  152.1007 C   0  0  0  0  0  0  0  0  0  0  0  0
  144.5129  136.5254  151.9225 O   0  0  0  0  0  0  0  0  0  0  0  0
  146.2498  135.0526  151.6823 N   0  0  0  0  0  0  0  0  0  0  0  0
  145.6479  133.9694  150.9857 C   0  0  0  0  0  0  0  0  0  0  0  0
  146.4497  132.8443  150.7029 C   0  0  0  0  0  0  0  0  0  0  0  0
  145.8720  131.7503  150.0279 C   0  0  0  0  0  0  0  0  0  0  0  0
  144.5794  131.7157  149.6418 N   0  0  0  0  0  0  0  0  0  0  0  0
  143.8094  132.7874  149.9257 C   0  0  0  0  0  0  0  0  0  0  0  0
  144.2875  133.9317  150.5955 C   0  0  0  0  0  0  0  0  0  0  0  0
  146.7636  138.3499  154.7543 C   0  0  0  0  0  0  0  0  0  0  0  0
  146.5426  139.7459  155.3633 C   0  0  0  0  0  0  0  0  0  0  0  0
  149.4287  142.1742  157.2441 H   0  0  0  0  0  0  0  0  0  0  0  0
  148.3258  140.7905  157.3408 H   0  0  0  0  0  0  0  0  0  0  0  0
  147.6861  142.4301  157.0470 H   0  0  0  0  0  0  0  0  0  0  0  0
  145.7445  141.0554  153.0356 H   0  0  0  0  0  0  0  0  0  0  0  0
  147.3542  141.5413  152.5687 H   0  0  0  0  0  0  0  0  0  0  0  0
  146.6590  139.4067  151.4616 H   0  0  0  0  0  0  0  0  0  0  0  0
  148.0848  139.1779  152.4367 H   0  0  0  0  0  0  0  0  0  0  0  0
  145.2238  138.4771  153.2637 H   0  0  0  0  0  0  0  0  0  0  0  0
  147.5230  136.6317  152.8305 H   0  0  0  0  0  0  0  0  0  0  0  0
  147.2444  134.9680  151.8321 H   0  0  0  0  0  0  0  0  0  0  0  0
  147.4908  132.8177  150.9903 H   0  0  0  0  0  0  0  0  0  0  0  0
  146.4649  130.8784  149.7937 H   0  0  0  0  0  0  0  0  0  0  0  0
  142.7768  132.7292  149.6151 H   0  0  0  0  0  0  0  0  0  0  0  0
  143.6047  134.7408  150.8036 H   0  0  0  0  0  0  0  0  0  0  0  0
  146.2218  137.6086  155.3427 H   0  0  0  0  0  0  0  0  0  0  0  0
  147.8169  138.0790  154.8212 H   0  0  0  0  0  0  0  0  0  0  0  0
  146.9206  139.7789  156.3846 H   0  0  0  0  0  0  0  0  0  0  0  0
  145.4731  139.9504  155.4252 H   0  0  0  0  0  0  0  0  0  0  0  0
  1  2  1  0  0  0  0
  1 21  1  0  0  0  0
  1 22  1  0  0  0  0
  1 23  1  0  0  0  0
  2  3  2  0  0  0  0
  2  4  2  0  0  0  0
  2  5  1  0  0  0  0
  5 20  1  0  0  0  0
  5  6  1  0  0  0  0
  6  7  1  0  0  0  0
  6 24  1  0  0  0  0
  6 25  1  0  0  0  0
  7  8  1  0  0  0  0
  7 26  1  0  0  0  0
  7 27  1  0  0  0  0
  8  9  1  0  0  0  0
  8 19  1  0  0  0  0
  8 28  1  0  0  0  0
  9 10  1  0  0  0  0
  9 29  1  0  0  0  0
 10 11  2  0  0  0  0
 10 12  1  0  0  0  0
 12 13  1  0  0  0  0
 12 30  1  0  0  0  0
 13 18  1  0  0  0  0
 13 14  2  0  0  0  0
 14 15  1  0  0  0  0
 14 31  1  0  0  0  0
 15 16  2  0  0  0  0
 15 32  1  0  0  0  0
 16 17  1  0  0  0  0
 17 18  2  0  0  0  0
 17 33  1  0  0  0  0
 18 34  1  0  0  0  0
 19 20  1  0  0  0  0
 19 35  1  0  0  0  0
 19 36  1  0  0  0  0
 20 37  1  0  0  0  0
 20 38  1  0  0  0  0
M  END
> <s_m_source_file>
AV-unprocessed.smi

> <i_m_source_file_index>
1960

> <i_lp_mmshare_version>
43012

> <i_f3d_flags>
0

> <s_epik_input>
W0NIM11TKD1PKSg9TylOMVtDSDJdW0NIMl1bQ0hdKFtDSDJdW0NIMl0xKVtOSF1DKD1PKVtOSF1jMltjSF1bY0hdbltjSF1bY0hdMg==

> <s_epik_cmdline>
J2VwaWtfcHl0aG9uJywgJy1waCcsICc3LjAnLCAnLXRuJywgJzgnLCAnLW1hJywgJzIwMCcsICctbWV0YWxfYmluZGluZycsICctaW1hZScsICc8aW5maWxlLm1hZT4nLCAnLW9tYWUnLCAnPG91dGZpbGUubWFlPic=

> <r_epik_Ionization_Penalty>
0.116752

> <r_epik_Ionization_Penalty_Charging>
0

> <r_epik_Ionization_Penalty_Neutral>
0.116752

> <r_epik_State_Penalty>
0.106329

> <r_epik_Charging_Adjusted_Penalty>
0.106329

> <i_epik_Tot_Q>
0

> <i_epik_Tot_abs_Q>
0

> <r_epik_Metal_State_Penalty>
0.0886803

> <b_epik_Metal_Only>
0

> <s_lp_Force_Field>
OPLS_2005

> <r_lp_Energy>
6.48368

> <b_lp_Chiralities_Consistent>
1

> <s_lp_Variant>
AV-unprocessed.smi:1960-1

> <Gold.Version>
5.8.1

> <Gold.Id.Protein>
6NUR|6NUR_protein|mol2

> <Gold.PLP.Fitness>
42.4599

> <Gold.PLP.PLP>
-26.4019

> <Gold.PLP.part.hbond>
-5.6154

> <Gold.PLP.part.metal>
0.0000

> <Gold.PLP.part.buried>
-0.1285

> <Gold.PLP.part.nonpolar>
-26.7531

> <Gold.PLP.part.repulsive>
5.8771

> <Gold.PLP.ligand.clash>
0.0000

> <Gold.PLP.ligand.torsion>
1.2448

> <Gold.PLP.Chemscore.Hbond>
3.8659

> <Gold.PLP.Chemscore.CHOScore>
1.6327

> <Gold.PLP.Chemscore.Metal>
0.0000

> <Gold.Chemscore.Hbonds>
donor molecule, donor type, donor heavy atom, donor atom, acceptor molecule, acceptor atom, score
      L1  H     9    29       P1  7948  0.82
      L1  H    12    30       P1  7948  0.67
      P1  H  7989  7998       L1     4  0.21
      P1  H  8022  8030       L1     3  0.80
      P1  H 10785 10796       L1    16  0.19
      L1  C    15    32       P1 10747  0.81
      L1  C    17    33       P1 10186  1.00

> <Gold.PLP.Chemscore.Internal.Correction>
2.0519

> <Gold.Rescore>
     Score         DG    S(hbond)    S(metal)    S(lipo)     H(rot)  DE(clash)    DE(int)     intcor
     17.90     -22.70       3.50        0.00      69.23       1.00       2.33       2.46       ----

> <Gold.Chemscore.Fitness>
17.9048

> <Gold.Chemscore.DG>
-22.7012

> <Gold.Chemscore.ZeroCoef>
-5.4800

> <Gold.Chemscore.Hbond>
3.4973

> <Gold.Chemscore.Metal>
0.0000

> <Gold.Chemscore.Lipo>
69.2311

> <Gold.Chemscore.Internal_Hbond>
0.0000

> <Gold.Chemscore.DEClash>
2.3334

> <Gold.Chemscore.DEInternal>
2.4629

> <Gold.Chemscore.Rot>
1.0000

> <Gold.Chemscore.Internal.Correction>
   9.000000E+99

> <Gold.Chemscore.Hbonds>
donor molecule, donor type, donor heavy atom, donor atom, acceptor molecule, acceptor atom, score
      L1  H     9    29       P1  7948  0.80
      L1  H    12    30       P1  7948  0.60
      P1  H  7989  7998       L1     4  0.21
      P1  H  8011  8017       L1     3  0.01
      P1  H  8022  8030       L1     3  0.79
      P1  H 10785 10796       L1    16  0.12

> <Gold.Chemscore.Hbond.Weighted>
-11.6811

> <Gold.Chemscore.Metal.Weighted>
-0.0000

> <Gold.Chemscore.Lipo.Weighted>
-8.1000

> <Gold.Chemscore.Internal_Hbond.Weighted>
0.0000

> <Gold.Chemscore.DEClash.Weighted>
2.3334

> <Gold.Chemscore.DEInternal.Weighted>
2.4629

> <Gold.Chemscore.Rot.Weighted>
2.5600

> <Gold.Chemscore.Internal.Correction.Weighted>
   9.000000E+99

> <Gold.Protein.RotatedTorsions>
[ 6907 6896 6895 6894 ] final  101.18 input  -60.11 | X-H torsion
[ 7974 7965 7964 7962 ] final   -0.63 input  175.53 | X-H torsion
[ 8008 7997 7996 7995 ] final   72.65 input   59.86 | X-H torsion
[ 10167 10162 10161 10158 ] final  -46.37 input  -65.29 | X-H torsion
[ 10718 10713 10712 10709 ] final   -2.40 input   66.30 | X-H torsion
[ 10763 10752 10751 10750 ] final  154.75 input  -60.55 | X-H torsion
[ 11005 11000 10999 10996 ] final   23.98 input  -57.11 | X-H torsion

> <Gold.Protein.ActiveResidues>
 VAL166  LYS551  ARG553  GLY616  TRP617  ASP618  TYR619  PRO620  LYS621  CYS622 
 ASP623  PHE694  ASN695  SER759  ASP760  ASP761  ALA762  ILE779  LEU786  VAL792 
 PHE793  MET794  SER795  GLU796  ALA797  LYS798  CYS799  TRP800  GLU811  SER814 

> <Gold.Protein.RotatedAtoms>
  152.5355  134.0165  159.7962 H   0  0  0  0  0  0  0  0  0  0  0  0  # atno 6907 bound_to 6896
  151.0359  133.5741  159.2663 H   0  0  0  0  0  0  0  0  0  0  0  0  # atno 6908 bound_to 6896
  151.2729  135.0697  159.9194 H   0  0  0  0  0  0  0  0  0  0  0  0  # atno 6909 bound_to 6896
  146.2425  140.1298  142.8338 H   0  0  0  0  0  0  0  0  0  0  0  0  # atno 7974 bound_to 7965
  155.7720  140.3484  155.5252 H   0  0  0  0  0  0  0  0  0  0  0  0  # atno 8008 bound_to 7997
  155.8812  140.1002  157.1505 H   0  0  0  0  0  0  0  0  0  0  0  0  # atno 8009 bound_to 7997
  154.4025  140.1322  156.4186 H   0  0  0  0  0  0  0  0  0  0  0  0  # atno 8010 bound_to 7997
  140.6820  143.2834  151.3773 H   0  0  0  0  0  0  0  0  0  0  0  0  # atno 10167 bound_to 10162
  156.7914  130.5363  149.5735 H   0  0  0  0  0  0  0  0  0  0  0  0  # atno 10718 bound_to 10713
  154.1573  135.2811  155.3119 H   0  0  0  0  0  0  0  0  0  0  0  0  # atno 10763 bound_to 10752
  154.6173  135.5479  153.7540 H   0  0  0  0  0  0  0  0  0  0  0  0  # atno 10764 bound_to 10752
  153.0203  135.6430  154.1715 H   0  0  0  0  0  0  0  0  0  0  0  0  # atno 10765 bound_to 10752
  140.3637  134.2098  155.7670 H   0  0  0  0  0  0  0  0  0  0  0  0  # atno 11005 bound_to 11000
  145.0336  140.8890  143.5095 LP  0  0  0  0  0  0  0  0  0  0  0  0  # atno 17320 bound_to 7965
  145.1366  139.2598  143.5511 LP  0  0  0  0  0  0  0  0  0  0  0  0  # atno 17321 bound_to 7965
  139.6150  144.1022  152.2336 LP  0  0  0  0  0  0  0  0  0  0  0  0  # atno 17342 bound_to 10162
  140.0448  144.5979  150.7382 LP  0  0  0  0  0  0  0  0  0  0  0  0  # atno 17343 bound_to 10162
  156.1156  130.6073  151.0116 LP  0  0  0  0  0  0  0  0  0  0  0  0  # atno 17370 bound_to 10713
  157.6598  131.0883  150.7863 LP  0  0  0  0  0  0  0  0  0  0  0  0  # atno 17371 bound_to 10713
  141.1976  133.8055  157.0619 LP  0  0  0  0  0  0  0  0  0  0  0  0  # atno 17394 bound_to 11000
  140.0606  134.9756  157.1299 LP  0  0  0  0  0  0  0  0  0  0  0  0  # atno 17395 bound_to 11000

$$$$
