AV-unprocessed.smi:3250|AV-procd|sdf|12431|dock5
  -GOLD-   2272018323D 1   1.00000     0.00000
 Structure written by MMmdl.
 40 41  0  0  0  0  0  0  0  0  3 V2000
  143.9428  132.4630  149.5871 C   0  0  0  0  0  0  0  0  0  0  0  0
  144.9864  133.0480  150.5489 C   0  0  0  0  0  0  0  0  0  0  0  0
  144.5826  134.3684  151.0935 N   0  3  1  0  0  0  0  0  0  0  0  0
  143.6329  134.2432  152.2240 C   0  0  0  0  0  0  0  0  0  0  0  0
  143.2061  135.6321  152.7241 C   0  0  0  0  0  0  0  0  0  0  0  0
  144.3592  136.3775  153.0939 O   0  0  0  0  0  0  0  0  0  0  0  0
  145.2396  136.5964  151.9961 C   0  0  1  0  0  0  0  0  0  0  0  0
  146.4060  137.4650  152.4892 C   0  0  0  0  0  0  0  0  0  0  0  0
  145.9618  138.7919  152.8896 N   0  0  0  0  0  0  0  0  0  0  0  0
  146.8076  139.7714  153.3760 C   0  0  0  0  0  0  0  0  0  0  0  0
  146.2653  140.9522  153.7086 N   0  3  0  0  0  0  0  0  0  0  0  0
  147.0547  141.9447  154.1884 C   0  0  0  0  0  0  0  0  0  0  0  0
  148.4380  141.7415  154.3409 C   0  0  0  0  0  0  0  0  0  0  0  0
  148.9401  140.4812  153.9773 C   0  0  0  0  0  0  0  0  0  0  0  0
  150.2885  140.2219  154.1113 O   0  0  0  0  0  0  0  0  0  0  0  0
  150.7416  138.8858  153.9207 C   0  0  0  0  0  0  0  0  0  0  0  0
  148.1184  139.5171  153.4985 N   0  0  0  0  0  0  0  0  0  0  0  0
  145.7298  135.2293  151.4766 C   0  0  0  0  0  0  0  0  0  0  0  0
  144.2291  131.4573  149.2783 H   0  0  0  0  0  0  0  0  0  0  0  0
  143.8388  133.0605  148.6818 H   0  0  0  0  0  0  0  0  0  0  0  0
  142.9637  132.3946  150.0620 H   0  0  0  0  0  0  0  0  0  0  0  0
  145.1085  132.3453  151.3744 H   0  0  0  0  0  0  0  0  0  0  0  0
  145.9596  133.1239  150.0615 H   0  0  0  0  0  0  0  0  0  0  0  0
  142.7525  133.6816  151.9098 H   0  0  0  0  0  0  0  0  0  0  0  0
  144.1001  133.6810  153.0343 H   0  0  0  0  0  0  0  0  0  0  0  0
  142.6401  136.1667  151.9596 H   0  0  0  0  0  0  0  0  0  0  0  0
  142.5548  135.5342  153.5927 H   0  0  0  0  0  0  0  0  0  0  0  0
  144.7113  137.1198  151.1965 H   0  0  0  0  0  0  0  0  0  0  0  0
  146.9121  136.9768  153.3230 H   0  0  0  0  0  0  0  0  0  0  0  0
  147.1416  137.5814  151.6925 H   0  0  0  0  0  0  0  0  0  0  0  0
  144.9856  139.0264  152.7817 H   0  0  0  0  0  0  0  0  0  0  0  0
  146.5525  142.8686  154.4358 H   0  0  0  0  0  0  0  0  0  0  0  0
  149.0849  142.5182  154.7224 H   0  0  0  0  0  0  0  0  0  0  0  0
  151.8214  138.8470  154.0638 H   0  0  0  0  0  0  0  0  0  0  0  0
  150.5293  138.5322  152.9106 H   0  0  0  0  0  0  0  0  0  0  0  0
  150.2879  138.2041  154.6417 H   0  0  0  0  0  0  0  0  0  0  0  0
  146.3221  134.7257  152.2427 H   0  0  0  0  0  0  0  0  0  0  0  0
  146.3843  135.3855  150.6195 H   0  0  0  0  0  0  0  0  0  0  0  0
  144.0836  134.8444  150.3551 H   0  0  0  0  0  0  0  0  0  0  0  0
  145.2637  141.1172  153.6057 H   0  0  0  0  0  0  0  0  0  0  0  0
  1  2  1  0  0  0  0
  1 19  1  0  0  0  0
  1 20  1  0  0  0  0
  1 21  1  0  0  0  0
  2  3  1  0  0  0  0
  2 22  1  0  0  0  0
  2 23  1  0  0  0  0
  3 18  1  0  0  0  0
  3  4  1  0  0  0  0
  3 39  1  0  0  0  0
  4  5  1  0  0  0  0
  4 24  1  0  0  0  0
  4 25  1  0  0  0  0
  5  6  1  0  0  0  0
  5 26  1  0  0  0  0
  5 27  1  0  0  0  0
  6  7  1  0  0  0  0
  7  8  1  0  0  0  0
  7 18  1  0  0  0  0
  7 28  1  0  0  0  0
  8  9  1  0  0  0  0
  8 29  1  0  0  0  0
  8 30  1  0  0  0  0
  9 10  1  0  0  0  0
  9 31  1  0  0  0  0
 10 17  1  0  0  0  0
 10 11  2  0  0  0  0
 11 12  1  0  0  0  0
 11 40  1  0  0  0  0
 12 13  2  0  0  0  0
 12 32  1  0  0  0  0
 13 14  1  0  0  0  0
 13 33  1  0  0  0  0
 14 15  1  0  0  0  0
 14 17  2  0  0  0  0
 15 16  1  0  0  0  0
 16 34  1  0  0  0  0
 16 35  1  0  0  0  0
 16 36  1  0  0  0  0
 18 37  1  0  0  0  0
 18 38  1  0  0  0  0
M  CHG  1   3   1
M  CHG  1  11   1
M  END
> <s_m_source_file>
AV-unprocessed.smi

> <i_m_source_file_index>
3250

> <i_lp_mmshare_version>
43012

> <i_f3d_flags>
0

> <s_epik_input>
W0NIM11bQ0gyXU4xW0NIMl1bQ0gyXU9bQ0BIXShbQ0gyXTEpW0NIMl1bTkhdYzJuW2NIXVtjSF1jKG4yKU9bQ0gzXQ==

> <s_epik_cmdline>
J2VwaWtfcHl0aG9uJywgJy1waCcsICc3LjAnLCAnLXRuJywgJzgnLCAnLW1hJywgJzIwMCcsICctbWV0YWxfYmluZGluZycsICctaW1hZScsICc8aW5maWxlLm1hZT4nLCAnLW9tYWUnLCAnPG91dGZpbGUubWFlPic=

> <r_lp_tautomer_probability>
0.999985

> <r_epik_Ionization_Penalty>
2.24691

> <r_epik_Ionization_Penalty_Charging>
2.24686

> <r_epik_Ionization_Penalty_Neutral>
4.52111e-05

> <r_epik_State_Penalty>
2.24709

> <r_epik_Charging_Adjusted_Penalty>
4.49395

> <i_epik_Tot_Q>
2

> <i_epik_Tot_abs_Q>
2

> <r_epik_Metal_State_Penalty>
2.26327

> <b_epik_Metal_Only>
0

> <s_lp_Force_Field>
OPLS_2005

> <r_lp_Energy>
18.3796

> <b_lp_Chiralities_Consistent>
1

> <s_lp_Variant>
AV-unprocessed.smi:3250-7

> <Gold.Version>
5.8.1

> <Gold.Id.Protein>
6NUR|6NUR_protein|mol2

> <Gold.PLP.Fitness>
46.7882

> <Gold.PLP.PLP>
-32.9846

> <Gold.PLP.part.hbond>
-3.0000

> <Gold.PLP.part.metal>
0.0000

> <Gold.PLP.part.buried>
-3.3324

> <Gold.PLP.part.nonpolar>
-27.8544

> <Gold.PLP.part.repulsive>
1.6088

> <Gold.PLP.ligand.clash>
0.0000

> <Gold.PLP.ligand.torsion>
0.3459

> <Gold.PLP.Chemscore.Hbond>
4.8240

> <Gold.PLP.Chemscore.CHOScore>
0.0000

> <Gold.PLP.Chemscore.Metal>
0.0000

> <Gold.Chemscore.Hbonds>
donor molecule, donor type, donor heavy atom, donor atom, acceptor molecule, acceptor atom, score
      L1  H     9    31       P1 10175  1.86
      L1  H    11    40       P1 10175  1.62
      P1  H  7989  7998       L1    15  0.68

> <Gold.PLP.Chemscore.Internal.Correction>
0.0235

> <Gold.Rescore>
     Score         DG    S(hbond)    S(metal)    S(lipo)     H(rot)  DE(clash)    DE(int)     intcor
     14.63     -15.24       2.00        0.00      64.82       1.75       0.34       0.27       ----

> <Gold.Chemscore.Fitness>
14.6296

> <Gold.Chemscore.DG>
-15.2422

> <Gold.Chemscore.ZeroCoef>
-5.4800

> <Gold.Chemscore.Hbond>
1.9958

> <Gold.Chemscore.Metal>
0.0000

> <Gold.Chemscore.Lipo>
64.8205

> <Gold.Chemscore.Internal_Hbond>
0.0000

> <Gold.Chemscore.DEClash>
0.3408

> <Gold.Chemscore.DEInternal>
0.2718

> <Gold.Chemscore.Rot>
1.7530

> <Gold.Chemscore.Internal.Correction>
   9.000000E+99

> <Gold.Chemscore.Hbonds>
donor molecule, donor type, donor heavy atom, donor atom, acceptor molecule, acceptor atom, score
      L1  H     9    31       P1 10175  0.88
      L1  H    11    40       P1 10175  0.42
      P1  H  7989  7998       L1    15  0.07

> <Gold.Chemscore.Hbond.Weighted>
-6.6658

> <Gold.Chemscore.Metal.Weighted>
-0.0000

> <Gold.Chemscore.Lipo.Weighted>
-7.5840

> <Gold.Chemscore.Internal_Hbond.Weighted>
0.0000

> <Gold.Chemscore.DEClash.Weighted>
0.3408

> <Gold.Chemscore.DEInternal.Weighted>
0.2718

> <Gold.Chemscore.Rot.Weighted>
4.4876

> <Gold.Chemscore.Internal.Correction.Weighted>
   9.000000E+99

> <Gold.Protein.RotatedTorsions>
[ 6907 6896 6895 6894 ] final  110.15 input  -60.11 | X-H torsion
[ 7974 7965 7964 7962 ] final  176.45 input  175.53 | X-H torsion
[ 8008 7997 7996 7995 ] final   46.55 input   59.86 | X-H torsion
[ 10167 10162 10161 10158 ] final  -51.52 input  -65.29 | X-H torsion
[ 10718 10713 10712 10709 ] final  167.25 input   66.30 | X-H torsion
[ 10763 10752 10751 10750 ] final  -35.56 input  -60.55 | X-H torsion
[ 11005 11000 10999 10996 ] final -107.18 input  -57.11 | X-H torsion

> <Gold.Protein.ActiveResidues>
 VAL166  LYS551  ARG553  GLY616  TRP617  ASP618  TYR619  PRO620  LYS621  CYS622 
 ASP623  PHE694  ASN695  SER759  ASP760  ASP761  ALA762  ILE779  LEU786  VAL792 
 PHE793  MET794  SER795  GLU796  ALA797  LYS798  CYS799  TRP800  GLU811  SER814 

> <Gold.Protein.RotatedAtoms>
  152.5033  133.8841  159.7360 H   0  0  0  0  0  0  0  0  0  0  0  0  # atno 6907 bound_to 6896
  150.9296  133.6774  159.2820 H   0  0  0  0  0  0  0  0  0  0  0  0  # atno 6908 bound_to 6896
  151.4122  135.0991  159.9641 H   0  0  0  0  0  0  0  0  0  0  0  0  # atno 6909 bound_to 6896
  144.7184  140.0098  143.6440 H   0  0  0  0  0  0  0  0  0  0  0  0  # atno 7974 bound_to 7965
  155.3543  140.3415  155.4239 H   0  0  0  0  0  0  0  0  0  0  0  0  # atno 8008 bound_to 7997
  156.1747  140.1643  156.8419 H   0  0  0  0  0  0  0  0  0  0  0  0  # atno 8009 bound_to 7997
  154.5270  140.0754  156.8258 H   0  0  0  0  0  0  0  0  0  0  0  0  # atno 8010 bound_to 7997
  140.6584  143.2617  151.4515 H   0  0  0  0  0  0  0  0  0  0  0  0  # atno 10167 bound_to 10162
  157.0542  131.0322  151.2670 H   0  0  0  0  0  0  0  0  0  0  0  0  # atno 10718 bound_to 10713
  153.8652  135.6836  153.4779 H   0  0  0  0  0  0  0  0  0  0  0  0  # atno 10763 bound_to 10752
  153.1319  135.4694  154.9360 H   0  0  0  0  0  0  0  0  0  0  0  0  # atno 10764 bound_to 10752
  154.7740  135.3247  154.8080 H   0  0  0  0  0  0  0  0  0  0  0  0  # atno 10765 bound_to 10752
  141.0967  133.8958  157.1946 H   0  0  0  0  0  0  0  0  0  0  0  0  # atno 11005 bound_to 11000
  146.0267  139.3299  143.0780 LP  0  0  0  0  0  0  0  0  0  0  0  0  # atno 17320 bound_to 7965
  145.8502  140.9533  143.0753 LP  0  0  0  0  0  0  0  0  0  0  0  0  # atno 17321 bound_to 7965
  139.5812  144.1706  152.1970 LP  0  0  0  0  0  0  0  0  0  0  0  0  # atno 17342 bound_to 10162
  140.1031  144.5522  150.6975 LP  0  0  0  0  0  0  0  0  0  0  0  0  # atno 17343 bound_to 10162
  157.5006  130.7877  149.7600 LP  0  0  0  0  0  0  0  0  0  0  0  0  # atno 17370 bound_to 10713
  155.9998  130.3887  150.2651 LP  0  0  0  0  0  0  0  0  0  0  0  0  # atno 17371 bound_to 10713
  139.9806  135.0099  156.9739 LP  0  0  0  0  0  0  0  0  0  0  0  0  # atno 17394 bound_to 11000
  140.5123  134.0990  155.7273 LP  0  0  0  0  0  0  0  0  0  0  0  0  # atno 17395 bound_to 11000

$$$$
