AV-unprocessed.smi:2652|AV-procd|sdf|10294|dock5
  -GOLD-   2272014303D 1   1.00000     0.00000
 Structure written by MMmdl.
 37 38  0  0  0  0  0  0  0  0  2 V2000
  151.6532  145.0912  160.3478 C   0  0  0  0  0  0  0  0  0  0  0  0
  152.3739  143.9778  161.0889 C   0  0  0  0  0  0  0  0  0  0  0  0
  152.4960  143.8813  162.4170 C   0  0  0  0  0  0  0  0  0  0  0  0
  153.3585  142.4461  162.9138 S   0  0  0  0  0  0  0  0  0  0  0  0
  153.5545  141.9571  161.1923 C   0  0  0  0  0  0  0  0  0  0  0  0
  154.1372  140.9278  160.8548 O   0  0  0  0  0  0  0  0  0  0  0  0
  152.9580  142.9196  160.3777 N   0  0  0  0  0  0  0  0  0  0  0  0
  152.9548  142.8286  158.9113 C   0  0  0  0  0  0  0  0  0  0  0  0
  152.4299  141.4869  158.3816 C   0  0  0  0  0  0  0  0  0  0  0  0
  153.0242  140.4402  158.6404 O   0  0  0  0  0  0  0  0  0  0  0  0
  151.3051  141.5734  157.6471 N   0  0  0  0  0  0  0  0  0  0  0  0
  150.4797  140.5546  156.9765 C   0  0  0  0  0  0  0  0  0  0  0  0
  151.3654  140.0121  155.8249 C   0  0  0  0  0  0  0  0  0  0  0  0
  150.9465  140.1379  154.6524 O   0  0  0  0  0  0  0  0  0  0  0  0
  152.4332  139.4350  156.1311 O   0  5  0  0  0  0  0  0  0  0  0  0
  149.9848  139.3969  157.9027 C   0  0  0  0  0  0  0  0  0  0  0  0
  148.9867  138.4471  157.2119 C   0  0  0  0  0  0  0  0  0  0  0  0
  147.7763  139.2173  156.6655 C   0  0  0  0  0  0  0  0  0  0  0  0
  148.2185  140.3495  155.7276 C   0  0  0  0  0  0  0  0  0  0  0  0
  149.2247  141.2886  156.4216 C   0  0  0  0  0  0  0  0  0  0  0  0
  150.9714  145.6125  161.0205 H   0  0  0  0  0  0  0  0  0  0  0  0
  151.0598  144.7095  159.5170 H   0  0  0  0  0  0  0  0  0  0  0  0
  152.3707  145.8165  159.9637 H   0  0  0  0  0  0  0  0  0  0  0  0
  152.1131  144.5782  163.1480 H   0  0  0  0  0  0  0  0  0  0  0  0
  152.3735  143.6422  158.4771 H   0  0  0  0  0  0  0  0  0  0  0  0
  153.9701  142.9696  158.5365 H   0  0  0  0  0  0  0  0  0  0  0  0
  150.9599  142.5126  157.5129 H   0  0  0  0  0  0  0  0  0  0  0  0
  150.8213  138.8167  158.2954 H   0  0  0  0  0  0  0  0  0  0  0  0
  149.4778  139.8194  158.7711 H   0  0  0  0  0  0  0  0  0  0  0  0
  149.4769  137.9069  156.4016 H   0  0  0  0  0  0  0  0  0  0  0  0
  148.6501  137.6902  157.9207 H   0  0  0  0  0  0  0  0  0  0  0  0
  147.1071  138.5364  156.1391 H   0  0  0  0  0  0  0  0  0  0  0  0
  147.2048  139.6342  157.4957 H   0  0  0  0  0  0  0  0  0  0  0  0
  148.6586  139.9268  154.8237 H   0  0  0  0  0  0  0  0  0  0  0  0
  147.3477  140.9191  155.4025 H   0  0  0  0  0  0  0  0  0  0  0  0
  148.7147  141.7897  157.2459 H   0  0  0  0  0  0  0  0  0  0  0  0
  149.5080  142.0874  155.7346 H   0  0  0  0  0  0  0  0  0  0  0  0
  1  2  1  0  0  0  0
  1 21  1  0  0  0  0
  1 22  1  0  0  0  0
  1 23  1  0  0  0  0
  2  7  1  0  0  0  0
  2  3  2  0  0  0  0
  3  4  1  0  0  0  0
  3 24  1  0  0  0  0
  4  5  1  0  0  0  0
  5  6  2  0  0  0  0
  5  7  1  0  0  0  0
  7  8  1  0  0  0  0
  8  9  1  0  0  0  0
  8 25  1  0  0  0  0
  8 26  1  0  0  0  0
  9 10  2  0  0  0  0
  9 11  1  0  0  0  0
 11 12  1  0  0  0  0
 11 27  1  0  0  0  0
 12 20  1  0  0  0  0
 12 13  1  0  0  0  0
 12 16  1  0  0  0  0
 13 14  2  0  0  0  0
 13 15  1  0  0  0  0
 16 17  1  0  0  0  0
 16 28  1  0  0  0  0
 16 29  1  0  0  0  0
 17 18  1  0  0  0  0
 17 30  1  0  0  0  0
 17 31  1  0  0  0  0
 18 19  1  0  0  0  0
 18 32  1  0  0  0  0
 18 33  1  0  0  0  0
 19 20  1  0  0  0  0
 19 34  1  0  0  0  0
 19 35  1  0  0  0  0
 20 36  1  0  0  0  0
 20 37  1  0  0  0  0
M  CHG  1  15  -1
M  END
> <s_m_source_file>
AV-unprocessed.smi

> <i_m_source_file_index>
2652

> <i_lp_mmshare_version>
43012

> <i_f3d_flags>
0

> <s_epik_input>
W0NIM11jMVtjSF1zYyg9TyluMVtDSDJdQyg9TylbTkhdQzIoQyg9TylbT0hdKVtDSDJdW0NIMl1bQ0gyXVtDSDJdW0NIMl0y

> <s_epik_cmdline>
J2VwaWtfcHl0aG9uJywgJy1waCcsICc3LjAnLCAnLXRuJywgJzgnLCAnLW1hJywgJzIwMCcsICctbWV0YWxfYmluZGluZycsICctaW1hZScsICc8aW5maWxlLm1hZT4nLCAnLW9tYWUnLCAnPG91dGZpbGUubWFlPic=

> <r_epik_Ionization_Penalty>
0.000325241

> <r_epik_Ionization_Penalty_Charging>
0.000325125

> <r_epik_Ionization_Penalty_Neutral>
1.16183e-07

> <r_epik_State_Penalty>
0.000195685

> <r_epik_Charging_Adjusted_Penalty>
0.00052081

> <i_epik_Tot_Q>
-1

> <i_epik_Tot_abs_Q>
1

> <r_epik_Metal_State_Penalty>
-0

> <b_epik_Metal_Only>
0

> <s_lp_Force_Field>
OPLS_2005

> <r_lp_Energy>
9.07631

> <b_lp_Chiralities_Consistent>
1

> <s_lp_Variant>
AV-unprocessed.smi:2652-1

> <Gold.Version>
5.8.1

> <Gold.Id.Protein>
6NUR|6NUR_protein|mol2

> <Gold.PLP.Fitness>
47.9315

> <Gold.PLP.PLP>
-39.1996

> <Gold.PLP.part.hbond>
-2.9216

> <Gold.PLP.part.metal>
0.0000

> <Gold.PLP.part.buried>
-5.4059

> <Gold.PLP.part.nonpolar>
-30.8026

> <Gold.PLP.part.repulsive>
0.1409

> <Gold.PLP.ligand.clash>
0.0000

> <Gold.PLP.ligand.torsion>
0.1599

> <Gold.PLP.Chemscore.Hbond>
3.0000

> <Gold.PLP.Chemscore.CHOScore>
0.0000

> <Gold.PLP.Chemscore.Metal>
0.0000

> <Gold.Chemscore.Hbonds>
donor molecule, donor type, donor heavy atom, donor atom, acceptor molecule, acceptor atom, score
      P1  H  7989  7998       L1    14  0.99
      P1  H  7997  8008       L1    15  1.98

> <Gold.PLP.Chemscore.Internal.Correction>
0.0518

> <Gold.Rescore>
     Score         DG    S(hbond)    S(metal)    S(lipo)     H(rot)  DE(clash)    DE(int)     intcor
     10.99     -15.94       1.99        0.00      77.54       2.05       0.75       4.20       ----

> <Gold.Chemscore.Fitness>
10.9907

> <Gold.Chemscore.DG>
-15.9398

> <Gold.Chemscore.ZeroCoef>
-5.4800

> <Gold.Chemscore.Hbond>
1.9904

> <Gold.Chemscore.Metal>
0.0000

> <Gold.Chemscore.Lipo>
77.5432

> <Gold.Chemscore.Internal_Hbond>
0.0000

> <Gold.Chemscore.DEClash>
0.7522

> <Gold.Chemscore.DEInternal>
4.1970

> <Gold.Chemscore.Rot>
2.0550

> <Gold.Chemscore.Internal.Correction>
   9.000000E+99

> <Gold.Chemscore.Hbonds>
donor molecule, donor type, donor heavy atom, donor atom, acceptor molecule, acceptor atom, score
      P1  H  7989  7998       L1    14  0.92
      P1  H  7997  8008       L1    15  0.92

> <Gold.Chemscore.Hbond.Weighted>
-6.6480

> <Gold.Chemscore.Metal.Weighted>
-0.0000

> <Gold.Chemscore.Lipo.Weighted>
-9.0726

> <Gold.Chemscore.Internal_Hbond.Weighted>
0.0000

> <Gold.Chemscore.DEClash.Weighted>
0.7522

> <Gold.Chemscore.DEInternal.Weighted>
4.1970

> <Gold.Chemscore.Rot.Weighted>
5.2607

> <Gold.Chemscore.Internal.Correction.Weighted>
   9.000000E+99

> <Gold.Protein.RotatedTorsions>
[ 6907 6896 6895 6894 ] final   17.40 input  -60.11 | X-H torsion
[ 7974 7965 7964 7962 ] final   92.96 input  175.53 | X-H torsion
[ 8008 7997 7996 7995 ] final  -43.87 input   59.86 | X-H torsion
[ 10167 10162 10161 10158 ] final   20.50 input  -65.29 | X-H torsion
[ 10718 10713 10712 10709 ] final   32.72 input   66.30 | X-H torsion
[ 10763 10752 10751 10750 ] final  -99.68 input  -60.55 | X-H torsion
[ 11005 11000 10999 10996 ] final  -15.95 input  -57.11 | X-H torsion

> <Gold.Protein.ActiveResidues>
 VAL166  LYS551  ARG553  GLY616  TRP617  ASP618  TYR619  PRO620  LYS621  CYS622 
 ASP623  PHE694  ASN695  SER759  ASP760  ASP761  ALA762  ILE779  LEU786  VAL792 
 PHE793  MET794  SER795  GLU796  ALA797  LYS798  CYS799  TRP800  GLU811  SER814 

> <Gold.Protein.RotatedAtoms>
  151.8489  135.0564  160.0456 H   0  0  0  0  0  0  0  0  0  0  0  0  # atno 6907 bound_to 6896
  152.2751  133.5414  159.5471 H   0  0  0  0  0  0  0  0  0  0  0  0  # atno 6908 bound_to 6896
  150.7167  134.0559  159.3856 H   0  0  0  0  0  0  0  0  0  0  0  0  # atno 6909 bound_to 6896
  145.4853  139.2277  143.2860 H   0  0  0  0  0  0  0  0  0  0  0  0  # atno 7974 bound_to 7965
  154.3997  140.1436  156.3591 H   0  0  0  0  0  0  0  0  0  0  0  0  # atno 8008 bound_to 7997
  155.8198  140.3470  155.5486 H   0  0  0  0  0  0  0  0  0  0  0  0  # atno 8009 bound_to 7997
  155.8300  140.0911  157.1789 H   0  0  0  0  0  0  0  0  0  0  0  0  # atno 8010 bound_to 7997
  140.5498  143.9529  150.6571 H   0  0  0  0  0  0  0  0  0  0  0  0  # atno 10167 bound_to 10162
  157.2888  130.7292  149.6599 H   0  0  0  0  0  0  0  0  0  0  0  0  # atno 10718 bound_to 10713
  154.7518  135.4963  153.9303 H   0  0  0  0  0  0  0  0  0  0  0  0  # atno 10763 bound_to 10752
  153.1152  135.6719  153.9439 H   0  0  0  0  0  0  0  0  0  0  0  0  # atno 10764 bound_to 10752
  153.9187  135.3091  155.3427 H   0  0  0  0  0  0  0  0  0  0  0  0  # atno 10765 bound_to 10752
  140.8018  133.8208  155.9478 H   0  0  0  0  0  0  0  0  0  0  0  0  # atno 11005 bound_to 11000
  146.2317  140.5642  142.8972 LP  0  0  0  0  0  0  0  0  0  0  0  0  # atno 17320 bound_to 7965
  144.7865  140.5947  143.6570 LP  0  0  0  0  0  0  0  0  0  0  0  0  # atno 17321 bound_to 7965
  140.2951  143.3298  152.1025 LP  0  0  0  0  0  0  0  0  0  0  0  0  # atno 17342 bound_to 10162
  139.5023  144.6731  151.6194 LP  0  0  0  0  0  0  0  0  0  0  0  0  # atno 17343 bound_to 10162
  155.9666  130.4315  150.4923 LP  0  0  0  0  0  0  0  0  0  0  0  0  # atno 17370 bound_to 10713
  157.2881  131.0621  151.2152 LP  0  0  0  0  0  0  0  0  0  0  0  0  # atno 17371 bound_to 10713
  140.9287  134.2050  157.4879 LP  0  0  0  0  0  0  0  0  0  0  0  0  # atno 17394 bound_to 11000
  139.8721  134.9823  156.5152 LP  0  0  0  0  0  0  0  0  0  0  0  0  # atno 17395 bound_to 11000

$$$$
