AV-unprocessed.smi:235|AV-procd|sdf|1806|dock3
  -GOLD-   2262020383D 1   1.00000     0.00000
 Structure written by MMmdl.
 54 58  0  0  0  0  0  0  0  0  1 V2000
  154.8463  138.7917  160.6721 O   0  0  0  0  0  0  0  0  0  0  0  0
  154.8761  140.0141  160.8223 C   0  0  0  0  0  0  0  0  0  0  0  0
  155.9694  140.7593  160.6049 N   0  0  0  0  0  0  0  0  0  0  0  0
  157.2409  140.2635  160.1893 C   0  0  0  0  0  0  0  0  0  0  0  0
  157.8285  140.8218  158.9116 C   0  0  0  0  0  0  0  0  0  0  0  0
  157.2895  139.4180  158.9352 C   0  0  0  0  0  0  0  0  0  0  0  0
  153.6204  140.7733  161.2802 C   0  0  1  0  0  0  0  0  0  0  0  0
  153.9823  142.0197  162.1042 C   0  0  0  0  0  0  0  0  0  0  0  0
  152.8050  142.9607  161.8705 C   0  0  0  0  0  0  0  0  0  0  0  0
  152.4106  142.6772  160.4217 C   0  0  0  0  0  0  0  0  0  0  0  0
  152.8553  141.3150  160.1534 N   0  0  0  0  0  0  0  0  0  0  0  0
  152.1296  140.5266  159.3153 C   0  0  0  0  0  0  0  0  0  0  0  0
  152.3311  139.1814  159.3221 N   0  0  0  0  0  0  0  0  0  0  0  0
  151.6330  138.3852  158.5081 C   0  0  0  0  0  0  0  0  0  0  0  0
  150.6987  138.7174  157.6165 N   0  0  0  0  0  0  0  0  0  0  0  0
  150.4935  140.0650  157.5980 C   0  0  0  0  0  0  0  0  0  0  0  0
  151.1571  141.0335  158.4046 C   0  0  0  0  0  0  0  0  0  0  0  0
  150.6874  142.3046  158.0906 N   0  0  0  0  0  0  0  0  0  0  0  0
  149.7944  142.0984  157.1618 C   0  0  0  0  0  0  0  0  0  0  0  0
  149.6111  140.7809  156.8097 N   0  0  0  0  0  0  0  0  0  0  0  0
  148.6879  140.2645  155.8160 C   0  0  0  0  0  0  0  0  0  0  0  0
  149.3866  139.4553  154.7029 C   0  0  2  0  0  0  0  0  0  0  0  0
  150.0819  140.3785  153.8891 O   0  0  0  0  0  0  0  0  0  0  0  0
  148.4266  138.6272  153.8203 C   0  0  1  0  0  0  0  0  0  0  0  0
  147.4604  137.7326  154.5993 C   0  0  0  0  0  0  0  0  0  0  0  0
  146.3160  137.5105  153.6241 C   0  0  0  0  0  0  0  0  0  0  0  0
  146.4742  138.6434  152.6070 C   0  0  0  0  0  0  0  0  0  0  0  0
  147.5150  139.4622  153.1210 O   0  0  0  0  0  0  0  0  0  0  0  0
  155.8978  141.7549  160.7567 H   0  0  0  0  0  0  0  0  0  0  0  0
  157.9525  139.9965  160.9695 H   0  0  0  0  0  0  0  0  0  0  0  0
  157.2535  141.5726  158.3725 H   0  0  0  0  0  0  0  0  0  0  0  0
  158.9088  140.9451  158.8699 H   0  0  0  0  0  0  0  0  0  0  0  0
  158.0108  138.6038  158.9064 H   0  0  0  0  0  0  0  0  0  0  0  0
  156.3547  139.2304  158.4101 H   0  0  0  0  0  0  0  0  0  0  0  0
  152.9742  140.1266  161.8770 H   0  0  0  0  0  0  0  0  0  0  0  0
  154.1291  141.7938  163.1607 H   0  0  0  0  0  0  0  0  0  0  0  0
  154.8963  142.4882  161.7338 H   0  0  0  0  0  0  0  0  0  0  0  0
  151.9842  142.6903  162.5362 H   0  0  0  0  0  0  0  0  0  0  0  0
  153.0518  144.0079  162.0473 H   0  0  0  0  0  0  0  0  0  0  0  0
  151.3366  142.8066  160.2792 H   0  0  0  0  0  0  0  0  0  0  0  0
  152.9298  143.3547  159.7427 H   0  0  0  0  0  0  0  0  0  0  0  0
  151.8550  137.3309  158.5823 H   0  0  0  0  0  0  0  0  0  0  0  0
  149.2374  142.9063  156.7099 H   0  0  0  0  0  0  0  0  0  0  0  0
  147.9450  139.6466  156.3227 H   0  0  0  0  0  0  0  0  0  0  0  0
  148.1489  141.1104  155.3872 H   0  0  0  0  0  0  0  0  0  0  0  0
  150.1284  138.7904  155.1467 H   0  0  0  0  0  0  0  0  0  0  0  0
  149.6660  140.4021  153.0409 H   0  0  0  0  0  0  0  0  0  0  0  0
  148.9893  138.0288  153.1008 H   0  0  0  0  0  0  0  0  0  0  0  0
  147.9201  136.8011  154.9309 H   0  0  0  0  0  0  0  0  0  0  0  0
  147.0911  138.2581  155.4812 H   0  0  0  0  0  0  0  0  0  0  0  0
  146.4020  136.5419  153.1303 H   0  0  0  0  0  0  0  0  0  0  0  0
  145.3513  137.5459  154.1311 H   0  0  0  0  0  0  0  0  0  0  0  0
  146.7729  138.2495  151.6347 H   0  0  0  0  0  0  0  0  0  0  0  0
  145.5578  139.2189  152.4746 H   0  0  0  0  0  0  0  0  0  0  0  0
  1  2  2  0  0  0  0
  2  3  1  0  0  0  0
  2  7  1  0  0  0  0
  3  4  1  0  0  0  0
  3 29  1  0  0  0  0
  4  6  1  0  0  0  0
  4  5  1  0  0  0  0
  4 30  1  0  0  0  0
  5  6  1  0  0  0  0
  5 31  1  0  0  0  0
  5 32  1  0  0  0  0
  6 33  1  0  0  0  0
  6 34  1  0  0  0  0
  7 11  1  0  0  0  0
  7  8  1  0  0  0  0
  7 35  1  0  0  0  0
  8  9  1  0  0  0  0
  8 36  1  0  0  0  0
  8 37  1  0  0  0  0
  9 10  1  0  0  0  0
  9 38  1  0  0  0  0
  9 39  1  0  0  0  0
 10 11  1  0  0  0  0
 10 40  1  0  0  0  0
 10 41  1  0  0  0  0
 11 12  1  0  0  0  0
 12 17  1  0  0  0  0
 12 13  2  0  0  0  0
 13 14  1  0  0  0  0
 14 15  2  0  0  0  0
 14 42  1  0  0  0  0
 15 16  1  0  0  0  0
 16 20  1  0  0  0  0
 16 17  2  0  0  0  0
 17 18  1  0  0  0  0
 18 19  2  0  0  0  0
 19 20  1  0  0  0  0
 19 43  1  0  0  0  0
 20 21  1  0  0  0  0
 21 22  1  0  0  0  0
 21 44  1  0  0  0  0
 21 45  1  0  0  0  0
 22 23  1  0  0  0  0
 22 24  1  0  0  0  0
 22 46  1  0  0  0  0
 23 47  1  0  0  0  0
 24 28  1  0  0  0  0
 24 25  1  0  0  0  0
 24 48  1  0  0  0  0
 25 26  1  0  0  0  0
 25 49  1  0  0  0  0
 25 50  1  0  0  0  0
 26 27  1  0  0  0  0
 26 51  1  0  0  0  0
 26 52  1  0  0  0  0
 27 28  1  0  0  0  0
 27 53  1  0  0  0  0
 27 54  1  0  0  0  0
M  END
> <s_m_source_file>
AV-unprocessed.smi

> <i_m_source_file_index>
235

> <i_lp_mmshare_version>
43012

> <i_f3d_flags>
0

> <s_epik_input>
W0NIMl0xW0NIMl1bQ0hdMVtOSF1DKD1PKVtDQEBIXTJbQ0gyXVtDSDJdW0NIMl1OMmMobltjSF1uMyljKGMzNCluW2NIXW40W0NIMl1bQ0BIXShbT0hdKVtDQEBIXTVbQ0gyXVtDSDJdW0NIMl1PNQ==

> <s_epik_cmdline>
J2VwaWtfcHl0aG9uJywgJy1waCcsICc3LjAnLCAnLXRuJywgJzgnLCAnLW1hJywgJzIwMCcsICctbWV0YWxfYmluZGluZycsICctaW1hZScsICc8aW5maWxlLm1hZT4nLCAnLW9tYWUnLCAnPG91dGZpbGUubWFlPic=

> <r_lp_tautomer_probability>
1

> <r_epik_Ionization_Penalty>
0.000526714

> <r_epik_Ionization_Penalty_Charging>
0

> <r_epik_Ionization_Penalty_Neutral>
0.000526714

> <r_epik_State_Penalty>
0.000272704

> <r_epik_Charging_Adjusted_Penalty>
0.000272704

> <i_epik_Tot_Q>
0

> <i_epik_Tot_abs_Q>
0

> <r_epik_Metal_State_Penalty>
-0

> <b_epik_Metal_Only>
0

> <s_lp_Force_Field>
OPLS_2005

> <r_lp_Energy>
59.6109

> <b_lp_Chiralities_Consistent>
1

> <s_lp_Variant>
AV-unprocessed.smi:235-6

> <Gold.Version>
5.8.1

> <Gold.Id.Protein>
6NUR|6NUR_protein|mol2

> <Gold.PLP.Fitness>
48.7165

> <Gold.PLP.PLP>
-42.0710

> <Gold.PLP.part.hbond>
-2.7892

> <Gold.PLP.part.metal>
0.0000

> <Gold.PLP.part.buried>
-3.2951

> <Gold.PLP.part.nonpolar>
-36.3842

> <Gold.PLP.part.repulsive>
1.8619

> <Gold.PLP.ligand.clash>
0.0000

> <Gold.PLP.ligand.torsion>
0.9805

> <Gold.PLP.Chemscore.Hbond>
1.7520

> <Gold.PLP.Chemscore.CHOScore>
1.0000

> <Gold.PLP.Chemscore.Metal>
0.0000

> <Gold.Chemscore.Hbonds>
donor molecule, donor type, donor heavy atom, donor atom, acceptor molecule, acceptor atom, score
      L1  H    23    47       P1  7957  1.00
      P1  H  7989  7998       L1    23  0.75
      L1  C    19    43       P1  8028  1.00

> <Gold.PLP.Chemscore.Internal.Correction>
0.3506

> <Gold.Rescore>
     Score         DG    S(hbond)    S(metal)    S(lipo)     H(rot)  DE(clash)    DE(int)     intcor
      8.43     -13.09       1.13        0.00      91.18       2.68       0.50       4.15       ----

> <Gold.Chemscore.Fitness>
8.4323

> <Gold.Chemscore.DG>
-13.0851

> <Gold.Chemscore.ZeroCoef>
-5.4800

> <Gold.Chemscore.Hbond>
1.1342

> <Gold.Chemscore.Metal>
0.0000

> <Gold.Chemscore.Lipo>
91.1752

> <Gold.Chemscore.Internal_Hbond>
0.0000

> <Gold.Chemscore.DEClash>
0.5026

> <Gold.Chemscore.DEInternal>
4.1503

> <Gold.Chemscore.Rot>
2.6760

> <Gold.Chemscore.Internal.Correction>
   9.000000E+99

> <Gold.Chemscore.Hbonds>
donor molecule, donor type, donor heavy atom, donor atom, acceptor molecule, acceptor atom, score
      L1  H    23    47       P1  7957  0.97
      P1  H  7989  7998       L1    23  0.19

> <Gold.Chemscore.Hbond.Weighted>
-3.7882

> <Gold.Chemscore.Metal.Weighted>
-0.0000

> <Gold.Chemscore.Lipo.Weighted>
-10.6675

> <Gold.Chemscore.Internal_Hbond.Weighted>
0.0000

> <Gold.Chemscore.DEClash.Weighted>
0.5026

> <Gold.Chemscore.DEInternal.Weighted>
4.1503

> <Gold.Chemscore.Rot.Weighted>
6.8506

> <Gold.Chemscore.Internal.Correction.Weighted>
   9.000000E+99

> <Gold.Protein.RotatedTorsions>
[ 6907 6896 6895 6894 ] final  -68.26 input  -60.11 | X-H torsion
[ 7974 7965 7964 7962 ] final  169.05 input  175.53 | X-H torsion
[ 8008 7997 7996 7995 ] final  -13.23 input   59.86 | X-H torsion
[ 10167 10162 10161 10158 ] final  147.79 input  -65.29 | X-H torsion
[ 10718 10713 10712 10709 ] final   29.20 input   66.30 | X-H torsion
[ 10763 10752 10751 10750 ] final   26.74 input  -60.55 | X-H torsion
[ 11005 11000 10999 10996 ] final  -47.77 input  -57.11 | X-H torsion

> <Gold.Protein.ActiveResidues>
 VAL166  LYS551  ARG553  GLY616  TRP617  ASP618  TYR619  PRO620  LYS621  CYS622 
 ASP623  PHE694  ASN695  SER759  ASP760  ASP761  ALA762  ILE779  LEU786  VAL792 
 PHE793  MET794  SER795  GLU796  ALA797  LYS798  CYS799  TRP800  GLU811  SER814 

> <Gold.Protein.RotatedAtoms>
  150.7366  134.5765  159.5916 H   0  0  0  0  0  0  0  0  0  0  0  0  # atno 6907 bound_to 6896
  152.3190  134.7401  160.0327 H   0  0  0  0  0  0  0  0  0  0  0  0  # atno 6908 bound_to 6896
  151.7923  133.3325  159.3539 H   0  0  0  0  0  0  0  0  0  0  0  0  # atno 6909 bound_to 6896
  144.7368  139.8997  143.6408 H   0  0  0  0  0  0  0  0  0  0  0  0  # atno 7974 bound_to 7965
  154.5310  140.2255  155.8805 H   0  0  0  0  0  0  0  0  0  0  0  0  # atno 8008 bound_to 7997
  156.1763  140.3110  155.9029 H   0  0  0  0  0  0  0  0  0  0  0  0  # atno 8009 bound_to 7997
  155.3452  140.0452  157.3036 H   0  0  0  0  0  0  0  0  0  0  0  0  # atno 8010 bound_to 7997
  139.4884  144.5729  151.7021 H   0  0  0  0  0  0  0  0  0  0  0  0  # atno 10167 bound_to 10162
  157.2435  130.7080  149.6370 H   0  0  0  0  0  0  0  0  0  0  0  0  # atno 10718 bound_to 10713
  153.0602  135.6553  154.0481 H   0  0  0  0  0  0  0  0  0  0  0  0  # atno 10763 bound_to 10752
  154.0150  135.2925  155.3389 H   0  0  0  0  0  0  0  0  0  0  0  0  # atno 10764 bound_to 10752
  154.6937  135.5272  153.8496 H   0  0  0  0  0  0  0  0  0  0  0  0  # atno 10765 bound_to 10752
  141.0660  133.6693  156.3345 H   0  0  0  0  0  0  0  0  0  0  0  0  # atno 11005 bound_to 11000
  146.1080  139.4082  143.0305 LP  0  0  0  0  0  0  0  0  0  0  0  0  # atno 17320 bound_to 7965
  145.7483  140.9982  143.1264 LP  0  0  0  0  0  0  0  0  0  0  0  0  # atno 17321 bound_to 7965
  140.5320  144.0716  150.6057 LP  0  0  0  0  0  0  0  0  0  0  0  0  # atno 17342 bound_to 10162
  140.3709  143.2855  152.0279 LP  0  0  0  0  0  0  0  0  0  0  0  0  # atno 17343 bound_to 10162
  155.9669  130.4450  150.5486 LP  0  0  0  0  0  0  0  0  0  0  0  0  # atno 17370 bound_to 10713
  157.3354  131.0707  151.1829 LP  0  0  0  0  0  0  0  0  0  0  0  0  # atno 17371 bound_to 10713
  140.5771  134.5782  157.5471 LP  0  0  0  0  0  0  0  0  0  0  0  0  # atno 17394 bound_to 11000
  139.9477  134.7672  156.0522 LP  0  0  0  0  0  0  0  0  0  0  0  0  # atno 17395 bound_to 11000

$$$$
