AV-unprocessed.smi:3116|AV-procd|sdf|11870|dock2
  -GOLD-   2272017253D 1   1.00000     0.00000
 Structure written by MMmdl.
 33 33  0  0  0  0  0  0  0  0  1 V2000
  148.2470  141.3751  156.8622 C   0  0  0  0  0  0  0  0  0  0  0  0
  149.6291  141.1991  156.1992 C   0  0  2  0  0  0  0  0  0  0  0  0
  150.5188  142.3360  156.4853 N   0  0  0  0  0  0  0  0  0  0  0  0
  150.8233  142.5189  157.9028 C   0  0  2  0  0  0  0  0  0  0  0  0
  151.0767  144.0217  158.1338 C   0  0  0  0  0  0  0  0  0  0  0  0
  152.0365  141.6220  158.2680 C   0  0  2  0  0  0  0  0  0  0  0  0
  151.7518  140.1243  158.0409 C   0  0  0  0  0  0  0  0  0  0  0  0
  152.4930  141.8461  159.6346 N   0  0  0  0  0  0  0  0  0  0  0  0
  153.5766  141.2801  160.2742 C   0  0  0  0  0  0  0  0  0  0  0  0
  153.6202  141.7940  161.5385 C   0  0  0  0  0  0  0  0  0  0  0  0
  152.5065  142.6781  161.5821 C   0  0  0  0  0  0  0  0  0  0  0  0
  151.8350  142.7087  160.4426 N   0  0  0  0  0  0  0  0  0  0  0  0
  149.5133  141.0054  154.6807 C   0  0  0  0  0  0  0  0  0  0  0  0
  149.9759  139.8543  154.1861 N   0  0  0  0  0  0  0  0  0  0  0  0
  149.0307  141.8759  153.9581 O   0  0  0  0  0  0  0  0  0  0  0  0
  147.5693  140.5666  156.5850 H   0  0  0  0  0  0  0  0  0  0  0  0
  147.7785  142.3164  156.5713 H   0  0  0  0  0  0  0  0  0  0  0  0
  148.3212  141.3653  157.9496 H   0  0  0  0  0  0  0  0  0  0  0  0
  150.0847  140.2872  156.5898 H   0  0  0  0  0  0  0  0  0  0  0  0
  150.1653  143.1975  156.0941 H   0  0  0  0  0  0  0  0  0  0  0  0
  149.9783  142.2185  158.5248 H   0  0  0  0  0  0  0  0  0  0  0  0
  151.2275  144.2451  159.1900 H   0  0  0  0  0  0  0  0  0  0  0  0
  150.2314  144.6251  157.8023 H   0  0  0  0  0  0  0  0  0  0  0  0
  151.9598  144.3637  157.5931 H   0  0  0  0  0  0  0  0  0  0  0  0
  152.8694  141.8986  157.6190 H   0  0  0  0  0  0  0  0  0  0  0  0
  151.5347  139.9151  156.9934 H   0  0  0  0  0  0  0  0  0  0  0  0
  150.8977  139.7852  158.6280 H   0  0  0  0  0  0  0  0  0  0  0  0
  152.6117  139.5152  158.3212 H   0  0  0  0  0  0  0  0  0  0  0  0
  154.2213  140.5679  159.7808 H   0  0  0  0  0  0  0  0  0  0  0  0
  154.3387  141.5725  162.3137 H   0  0  0  0  0  0  0  0  0  0  0  0
  152.1689  143.2953  162.4015 H   0  0  0  0  0  0  0  0  0  0  0  0
  149.9204  139.6759  153.1939 H   0  0  0  0  0  0  0  0  0  0  0  0
  150.3761  139.1662  154.8070 H   0  0  0  0  0  0  0  0  0  0  0  0
  1  2  1  0  0  0  0
  1 16  1  0  0  0  0
  1 17  1  0  0  0  0
  1 18  1  0  0  0  0
  2  3  1  0  0  0  0
  2 13  1  0  0  0  0
  2 19  1  0  0  0  0
  3  4  1  0  0  0  0
  3 20  1  0  0  0  0
  4  5  1  0  0  0  0
  4  6  1  0  0  0  0
  4 21  1  0  0  0  0
  5 22  1  0  0  0  0
  5 23  1  0  0  0  0
  5 24  1  0  0  0  0
  6  7  1  0  0  0  0
  6  8  1  0  0  0  0
  6 25  1  0  0  0  0
  7 26  1  0  0  0  0
  7 27  1  0  0  0  0
  7 28  1  0  0  0  0
  8 12  1  0  0  0  0
  8  9  1  0  0  0  0
  9 10  2  0  0  0  0
  9 29  1  0  0  0  0
 10 11  1  0  0  0  0
 10 30  1  0  0  0  0
 11 12  2  0  0  0  0
 11 31  1  0  0  0  0
 13 14  1  0  0  0  0
 13 15  2  0  0  0  0
 14 32  1  0  0  0  0
 14 33  1  0  0  0  0
M  END
> <s_m_source_file>
AV-unprocessed.smi

> <i_m_source_file_index>
3116

> <i_lp_mmshare_version>
43012

> <i_f3d_flags>
0

> <s_epik_input>
W05IMl1DKD1PKVtDQEhdKFtDSDNdKVtOSF1bQ0BIXShbQ0gzXSlbQ0BIXShbQ0gzXSluMVtjSF1bY0hdW2NIXW4x

> <s_epik_cmdline>
J2VwaWtfcHl0aG9uJywgJy1waCcsICc3LjAnLCAnLXRuJywgJzgnLCAnLW1hJywgJzIwMCcsICctbWV0YWxfYmluZGluZycsICctaW1hZScsICc8aW5maWxlLm1hZT4nLCAnLW9tYWUnLCAnPG91dGZpbGUubWFlPic=

> <r_lp_tautomer_probability>
1

> <r_epik_Ionization_Penalty>
0.865977

> <r_epik_Ionization_Penalty_Charging>
0

> <r_epik_Ionization_Penalty_Neutral>
0.865977

> <r_epik_State_Penalty>
0.901888

> <r_epik_Charging_Adjusted_Penalty>
0.901888

> <i_epik_Tot_Q>
0

> <i_epik_Tot_abs_Q>
0

> <r_epik_Metal_State_Penalty>
0.901181

> <b_epik_Metal_Only>
0

> <s_lp_Force_Field>
OPLS_2005

> <r_lp_Energy>
9.43225

> <b_lp_Chiralities_Consistent>
1

> <s_lp_Variant>
AV-unprocessed.smi:3116-9

> <Gold.Version>
5.8.1

> <Gold.Id.Protein>
6NUR|6NUR_protein|mol2

> <Gold.PLP.Fitness>
40.6073

> <Gold.PLP.PLP>
-33.9361

> <Gold.PLP.part.hbond>
-3.2841

> <Gold.PLP.part.metal>
0.0000

> <Gold.PLP.part.buried>
-6.0706

> <Gold.PLP.part.nonpolar>
-25.8621

> <Gold.PLP.part.repulsive>
1.0892

> <Gold.PLP.ligand.clash>
0.0000

> <Gold.PLP.ligand.torsion>
0.3905

> <Gold.PLP.Chemscore.Hbond>
2.4320

> <Gold.PLP.Chemscore.CHOScore>
0.0000

> <Gold.PLP.Chemscore.Metal>
0.0000

> <Gold.Chemscore.Hbonds>
donor molecule, donor type, donor heavy atom, donor atom, acceptor molecule, acceptor atom, score
      L1  H     3    20       P1  8028  0.99
      L1  H    14    32       P1  7957  0.86
      P1  H  8011  8017       L1    15  0.50

> <Gold.PLP.Chemscore.Internal.Correction>
0.1562

> <Gold.Rescore>
     Score         DG    S(hbond)    S(metal)    S(lipo)     H(rot)  DE(clash)    DE(int)     intcor
     13.89     -15.92       2.49        0.00      70.24       2.38       0.09       1.95       ----

> <Gold.Chemscore.Fitness>
13.8868

> <Gold.Chemscore.DG>
-15.9227

> <Gold.Chemscore.ZeroCoef>
-5.4800

> <Gold.Chemscore.Hbond>
2.4931

> <Gold.Chemscore.Metal>
0.0000

> <Gold.Chemscore.Lipo>
70.2376

> <Gold.Chemscore.Internal_Hbond>
0.0000

> <Gold.Chemscore.DEClash>
0.0901

> <Gold.Chemscore.DEInternal>
1.9458

> <Gold.Chemscore.Rot>
2.3836

> <Gold.Chemscore.Internal.Correction>
   9.000000E+99

> <Gold.Chemscore.Hbonds>
donor molecule, donor type, donor heavy atom, donor atom, acceptor molecule, acceptor atom, score
      L1  H     3    20       P1  8028  0.92
      L1  H    14    32       P1  7957  0.83
      P1  H  8011  8017       L1    15  0.50

> <Gold.Chemscore.Hbond.Weighted>
-8.3269

> <Gold.Chemscore.Metal.Weighted>
-0.0000

> <Gold.Chemscore.Lipo.Weighted>
-8.2178

> <Gold.Chemscore.Internal_Hbond.Weighted>
0.0000

> <Gold.Chemscore.DEClash.Weighted>
0.0901

> <Gold.Chemscore.DEInternal.Weighted>
1.9458

> <Gold.Chemscore.Rot.Weighted>
6.1020

> <Gold.Chemscore.Internal.Correction.Weighted>
   9.000000E+99

> <Gold.Protein.RotatedTorsions>
[ 6907 6896 6895 6894 ] final   72.55 input  -60.11 | X-H torsion
[ 7974 7965 7964 7962 ] final   33.80 input  175.53 | X-H torsion
[ 8008 7997 7996 7995 ] final -147.93 input   59.86 | X-H torsion
[ 10167 10162 10161 10158 ] final    2.31 input  -65.29 | X-H torsion
[ 10718 10713 10712 10709 ] final  153.09 input   66.30 | X-H torsion
[ 10763 10752 10751 10750 ] final  156.95 input  -60.55 | X-H torsion
[ 11005 11000 10999 10996 ] final -125.95 input  -57.11 | X-H torsion

> <Gold.Protein.ActiveResidues>
 VAL166  LYS551  ARG553  GLY616  TRP617  ASP618  TYR619  PRO620  LYS621  CYS622 
 ASP623  PHE694  ASN695  SER759  ASP760  ASP761  ALA762  ILE779  LEU786  VAL792 
 PHE793  MET794  SER795  GLU796  ALA797  LYS798  CYS799  TRP800  GLU811  SER814 

> <Gold.Protein.RotatedAtoms>
  152.4874  134.4554  159.9587 H   0  0  0  0  0  0  0  0  0  0  0  0  # atno 6907 bound_to 6896
  151.4548  133.3602  159.2808 H   0  0  0  0  0  0  0  0  0  0  0  0  # atno 6908 bound_to 6896
  150.8997  134.8433  159.7412 H   0  0  0  0  0  0  0  0  0  0  0  0  # atno 6909 bound_to 6896
  146.1396  139.6350  142.9172 H   0  0  0  0  0  0  0  0  0  0  0  0  # atno 7974 bound_to 7965
  155.5835  140.0645  157.2777 H   0  0  0  0  0  0  0  0  0  0  0  0  # atno 8008 bound_to 7997
  154.4326  140.1848  156.1047 H   0  0  0  0  0  0  0  0  0  0  0  0  # atno 8009 bound_to 7997
  156.0287  140.3309  155.7120 H   0  0  0  0  0  0  0  0  0  0  0  0  # atno 8010 bound_to 7997
  140.6641  143.7226  150.7794 H   0  0  0  0  0  0  0  0  0  0  0  0  # atno 10167 bound_to 10162
  157.2493  131.0775  151.1740 H   0  0  0  0  0  0  0  0  0  0  0  0  # atno 10718 bound_to 10713
  154.1926  135.2794  155.3017 H   0  0  0  0  0  0  0  0  0  0  0  0  # atno 10763 bound_to 10752
  154.5917  135.5557  153.7288 H   0  0  0  0  0  0  0  0  0  0  0  0  # atno 10764 bound_to 10752
  153.0108  135.6370  154.2064 H   0  0  0  0  0  0  0  0  0  0  0  0  # atno 10765 bound_to 10752
  140.9721  134.0791  157.3858 H   0  0  0  0  0  0  0  0  0  0  0  0  # atno 11005 bound_to 11000
  145.5077  141.0436  143.2505 LP  0  0  0  0  0  0  0  0  0  0  0  0  # atno 17320 bound_to 7965
  144.7778  139.6592  143.7167 LP  0  0  0  0  0  0  0  0  0  0  0  0  # atno 17321 bound_to 7965
  140.0900  143.4887  152.2484 LP  0  0  0  0  0  0  0  0  0  0  0  0  # atno 17342 bound_to 10162
  139.5884  144.7540  151.3462 LP  0  0  0  0  0  0  0  0  0  0  0  0  # atno 17343 bound_to 10162
  157.3295  130.6977  149.6316 LP  0  0  0  0  0  0  0  0  0  0  0  0  # atno 17370 bound_to 10713
  155.9667  130.4312  150.4908 LP  0  0  0  0  0  0  0  0  0  0  0  0  # atno 17371 bound_to 10713
  139.8916  135.0119  156.6801 LP  0  0  0  0  0  0  0  0  0  0  0  0  # atno 17394 bound_to 11000
  140.7314  133.9056  155.8214 LP  0  0  0  0  0  0  0  0  0  0  0  0  # atno 17395 bound_to 11000

$$$$
