AV-unprocessed.smi:1005|AV-procd|sdf|4369|dock4
  -GOLD-   22720 2273D 1   1.00000     0.00000
 Structure written by MMmdl.
 57 59  0  0  0  0  0  0  0  0  3 V2000
  152.5628  142.6553  160.7284 C   0  0  0  0  0  0  0  0  0  0  0  0
  152.0028  142.1448  159.4125 C   0  0  0  0  0  0  0  0  0  0  0  0
  152.6784  141.1042  158.7360 C   0  0  0  0  0  0  0  0  0  0  0  0
  152.1912  140.6019  157.5098 C   0  0  0  0  0  0  0  0  0  0  0  0
  152.6817  139.5996  156.6903 N   0  0  0  0  0  0  0  0  0  0  0  0
  151.7916  139.6004  155.7029 C   0  0  0  0  0  0  0  0  0  0  0  0
  150.7785  140.4840  155.7865 N   0  0  0  0  0  0  0  0  0  0  0  0
  149.6967  140.6629  154.8347 C   0  0  0  0  0  0  0  0  0  0  0  0
  148.3676  140.0679  155.3375 C   0  0  1  0  0  0  0  0  0  0  0  0
  147.7170  141.0086  156.1701 O   0  0  0  0  0  0  0  0  0  0  0  0
  147.4240  139.7113  154.1721 C   0  0  0  0  0  0  0  0  0  0  0  0
  148.0382  138.7460  153.2208 N   0  3  2  0  0  0  0  0  0  0  0  0
  147.1316  138.2718  152.1444 C   0  0  0  0  0  0  0  0  0  0  0  0
  146.1687  137.1837  152.6563 C   0  0  0  0  0  0  0  0  0  0  0  0
  146.9102  136.1233  153.2475 O   0  0  0  0  0  0  0  0  0  0  0  0
  147.6819  136.5488  154.3665 C   0  0  1  0  0  0  0  0  0  0  0  0
  148.3800  135.3099  154.9596 C   0  0  0  0  0  0  0  0  0  0  0  0
  149.0644  134.4810  153.9336 N   0  3  0  0  0  0  0  0  0  0  0  0
  148.1852  133.4616  153.3149 C   0  0  0  0  0  0  0  0  0  0  0  0
  150.3117  133.8758  154.4519 C   0  0  0  0  0  0  0  0  0  0  0  0
  148.7061  137.5969  153.8804 C   0  0  0  0  0  0  0  0  0  0  0  0
  151.0014  141.1750  156.9729 C   0  0  0  0  0  0  0  0  0  0  0  0
  150.3202  142.2105  157.6366 C   0  0  0  0  0  0  0  0  0  0  0  0
  150.8194  142.6992  158.8620 C   0  0  0  0  0  0  0  0  0  0  0  0
  150.0750  143.8155  159.5728 C   0  0  0  0  0  0  0  0  0  0  0  0
  153.4513  142.0978  161.0264 H   0  0  0  0  0  0  0  0  0  0  0  0
  151.8244  142.5554  161.5241 H   0  0  0  0  0  0  0  0  0  0  0  0
  152.8400  143.7062  160.6421 H   0  0  0  0  0  0  0  0  0  0  0  0
  153.5795  140.6813  159.1554 H   0  0  0  0  0  0  0  0  0  0  0  0
  151.8792  138.9166  154.8710 H   0  0  0  0  0  0  0  0  0  0  0  0
  149.5884  141.7276  154.6232 H   0  0  0  0  0  0  0  0  0  0  0  0
  149.9898  140.1887  153.8970 H   0  0  0  0  0  0  0  0  0  0  0  0
  148.5892  139.1830  155.9336 H   0  0  0  0  0  0  0  0  0  0  0  0
  148.1775  141.0503  156.9953 H   0  0  0  0  0  0  0  0  0  0  0  0
  146.5101  139.2857  154.5901 H   0  0  0  0  0  0  0  0  0  0  0  0
  147.1182  140.6136  153.6425 H   0  0  0  0  0  0  0  0  0  0  0  0
  146.5757  139.0970  151.7009 H   0  0  0  0  0  0  0  0  0  0  0  0
  147.7460  137.8559  151.3446 H   0  0  0  0  0  0  0  0  0  0  0  0
  145.4528  137.5873  153.3732 H   0  0  0  0  0  0  0  0  0  0  0  0
  145.5865  136.7824  151.8266 H   0  0  0  0  0  0  0  0  0  0  0  0
  147.0306  137.0033  155.1132 H   0  0  0  0  0  0  0  0  0  0  0  0
  149.1110  135.6506  155.6946 H   0  0  0  0  0  0  0  0  0  0  0  0
  147.6650  134.6910  155.5037 H   0  0  0  0  0  0  0  0  0  0  0  0
  147.8117  132.7606  154.0626 H   0  0  0  0  0  0  0  0  0  0  0  0
  148.7311  132.8919  152.5620 H   0  0  0  0  0  0  0  0  0  0  0  0
  147.3310  133.9167  152.8155 H   0  0  0  0  0  0  0  0  0  0  0  0
  150.1021  133.1932  155.2768 H   0  0  0  0  0  0  0  0  0  0  0  0
  150.9976  134.6446  154.8089 H   0  0  0  0  0  0  0  0  0  0  0  0
  150.8256  133.3173  153.6687 H   0  0  0  0  0  0  0  0  0  0  0  0
  149.3820  137.1377  153.1576 H   0  0  0  0  0  0  0  0  0  0  0  0
  149.3327  137.9427  154.7037 H   0  0  0  0  0  0  0  0  0  0  0  0
  149.4194  142.6237  157.2079 H   0  0  0  0  0  0  0  0  0  0  0  0
  149.2010  144.1359  159.0050 H   0  0  0  0  0  0  0  0  0  0  0  0
  150.7224  144.6823  159.7078 H   0  0  0  0  0  0  0  0  0  0  0  0
  149.7331  143.4820  160.5529 H   0  0  0  0  0  0  0  0  0  0  0  0
  149.3496  135.1106  153.1966 H   0  0  0  0  0  0  0  0  0  0  0  0
  148.7753  139.2701  152.7693 H   0  0  0  0  0  0  0  0  0  0  0  0
  1  2  1  0  0  0  0
  1 26  1  0  0  0  0
  1 27  1  0  0  0  0
  1 28  1  0  0  0  0
  2 24  1  0  0  0  0
  2  3  2  0  0  0  0
  3  4  1  0  0  0  0
  3 29  1  0  0  0  0
  4 22  2  0  0  0  0
  4  5  1  0  0  0  0
  5  6  2  0  0  0  0
  6  7  1  0  0  0  0
  6 30  1  0  0  0  0
  7  8  1  0  0  0  0
  7 22  1  0  0  0  0
  8  9  1  0  0  0  0
  8 31  1  0  0  0  0
  8 32  1  0  0  0  0
  9 10  1  0  0  0  0
  9 11  1  0  0  0  0
  9 33  1  0  0  0  0
 10 34  1  0  0  0  0
 11 12  1  0  0  0  0
 11 35  1  0  0  0  0
 11 36  1  0  0  0  0
 12 21  1  0  0  0  0
 12 13  1  0  0  0  0
 12 57  1  0  0  0  0
 13 14  1  0  0  0  0
 13 37  1  0  0  0  0
 13 38  1  0  0  0  0
 14 15  1  0  0  0  0
 14 39  1  0  0  0  0
 14 40  1  0  0  0  0
 15 16  1  0  0  0  0
 16 17  1  0  0  0  0
 16 21  1  0  0  0  0
 16 41  1  0  0  0  0
 17 18  1  0  0  0  0
 17 42  1  0  0  0  0
 17 43  1  0  0  0  0
 18 19  1  0  0  0  0
 18 20  1  0  0  0  0
 18 56  1  0  0  0  0
 19 44  1  0  0  0  0
 19 45  1  0  0  0  0
 19 46  1  0  0  0  0
 20 47  1  0  0  0  0
 20 48  1  0  0  0  0
 20 49  1  0  0  0  0
 21 50  1  0  0  0  0
 21 51  1  0  0  0  0
 22 23  1  0  0  0  0
 23 24  2  0  0  0  0
 23 52  1  0  0  0  0
 24 25  1  0  0  0  0
 25 53  1  0  0  0  0
 25 54  1  0  0  0  0
 25 55  1  0  0  0  0
M  CHG  1  12   1
M  CHG  1  18   1
M  END
> <s_m_source_file>
AV-unprocessed.smi

> <i_m_source_file_index>
1005

> <i_lp_mmshare_version>
43012

> <i_f3d_flags>
0

> <s_epik_input>
W0NIM11jKFtjSF0xKWMoW0NIM10pW2NIXWMoYzEyKW4oW2NIXW4yKVtDSDJdW0NASF0oW09IXSlbQ0gyXU4zW0NIMl1bQ0gyXU9bQ0BIXShbQ0gyXTMpW0NIMl1OKFtDSDNdKVtDSDNd

> <s_epik_cmdline>
J2VwaWtfcHl0aG9uJywgJy1waCcsICc3LjAnLCAnLXRuJywgJzgnLCAnLW1hJywgJzIwMCcsICctbWV0YWxfYmluZGluZycsICctaW1hZScsICc8aW5maWxlLm1hZT4nLCAnLW9tYWUnLCAnPG91dGZpbGUubWFlPic=

> <r_epik_Ionization_Penalty>
1.0968

> <r_epik_Ionization_Penalty_Charging>
1.0096

> <r_epik_Ionization_Penalty_Neutral>
0.0871956

> <r_epik_State_Penalty>
1.31185

> <r_epik_Charging_Adjusted_Penalty>
2.32145

> <i_epik_Tot_Q>
2

> <i_epik_Tot_abs_Q>
2

> <r_epik_Metal_State_Penalty>
1.22442

> <b_epik_Metal_Only>
0

> <s_lp_Force_Field>
OPLS_2005

> <r_lp_Energy>
34.9346

> <b_lp_Chiralities_Consistent>
1

> <s_lp_Variant>
AV-unprocessed.smi:1005-8

> <Gold.Version>
5.8.1

> <Gold.Id.Protein>
6NUR|6NUR_protein|mol2

> <Gold.PLP.Fitness>
49.8530

> <Gold.PLP.PLP>
-39.7166

> <Gold.PLP.part.hbond>
-3.0000

> <Gold.PLP.part.metal>
0.0000

> <Gold.PLP.part.buried>
0.4804

> <Gold.PLP.part.nonpolar>
-36.8677

> <Gold.PLP.part.repulsive>
0.7854

> <Gold.PLP.ligand.clash>
0.0000

> <Gold.PLP.ligand.torsion>
0.9798

> <Gold.PLP.Chemscore.Hbond>
4.0000

> <Gold.PLP.Chemscore.CHOScore>
0.0000

> <Gold.PLP.Chemscore.Metal>
0.0000

> <Gold.Chemscore.Hbonds>
donor molecule, donor type, donor heavy atom, donor atom, acceptor molecule, acceptor atom, score
      L1  H    12    57       P1  7957  1.00
      L1  H    18    56       P1  7948  1.10
      P1  H  7997  8010       L1     5  1.00

> <Gold.PLP.Chemscore.Internal.Correction>
0.0960

> <Gold.Rescore>
     Score         DG    S(hbond)    S(metal)    S(lipo)     H(rot)  DE(clash)    DE(int)     intcor
     18.15     -20.88       2.65        0.00     110.20       2.48       1.84       0.89       ----

> <Gold.Chemscore.Fitness>
18.1496

> <Gold.Chemscore.DG>
-20.8839

> <Gold.Chemscore.ZeroCoef>
-5.4800

> <Gold.Chemscore.Hbond>
2.6534

> <Gold.Chemscore.Metal>
0.0000

> <Gold.Chemscore.Lipo>
110.2039

> <Gold.Chemscore.Internal_Hbond>
0.0000

> <Gold.Chemscore.DEClash>
1.8432

> <Gold.Chemscore.DEInternal>
0.8911

> <Gold.Chemscore.Rot>
2.4814

> <Gold.Chemscore.Internal.Correction>
   9.000000E+99

> <Gold.Chemscore.Hbonds>
donor molecule, donor type, donor heavy atom, donor atom, acceptor molecule, acceptor atom, score
      L1  H    12    57       P1  7957  0.93
      L1  H    18    56       P1  7948  0.03
      P1  H  7997  8010       L1     5  0.42

> <Gold.Chemscore.Hbond.Weighted>
-8.8624

> <Gold.Chemscore.Metal.Weighted>
-0.0000

> <Gold.Chemscore.Lipo.Weighted>
-12.8939

> <Gold.Chemscore.Internal_Hbond.Weighted>
0.0000

> <Gold.Chemscore.DEClash.Weighted>
1.8432

> <Gold.Chemscore.DEInternal.Weighted>
0.8911

> <Gold.Chemscore.Rot.Weighted>
6.3524

> <Gold.Chemscore.Internal.Correction.Weighted>
   9.000000E+99

> <Gold.Protein.RotatedTorsions>
[ 6907 6896 6895 6894 ] final -128.06 input  -60.11 | X-H torsion
[ 7974 7965 7964 7962 ] final   50.34 input  175.53 | X-H torsion
[ 8008 7997 7996 7995 ] final   82.45 input   59.86 | X-H torsion
[ 10167 10162 10161 10158 ] final   98.17 input  -65.29 | X-H torsion
[ 10718 10713 10712 10709 ] final  -49.67 input   66.30 | X-H torsion
[ 10763 10752 10751 10750 ] final   41.90 input  -60.55 | X-H torsion
[ 11005 11000 10999 10996 ] final  151.39 input  -57.11 | X-H torsion

> <Gold.Protein.ActiveResidues>
 VAL166  LYS551  ARG553  GLY616  TRP617  ASP618  TYR619  PRO620  LYS621  CYS622 
 ASP623  PHE694  ASN695  SER759  ASP760  ASP761  ALA762  ILE779  LEU786  VAL792 
 PHE793  MET794  SER795  GLU796  ALA797  LYS798  CYS799  TRP800  GLU811  SER814 

> <Gold.Protein.RotatedAtoms>
  150.9138  133.6964  159.2848 H   0  0  0  0  0  0  0  0  0  0  0  0  # atno 6907 bound_to 6896
  151.4442  135.1022  159.9688 H   0  0  0  0  0  0  0  0  0  0  0  0  # atno 6908 bound_to 6896
  152.4944  133.8539  159.7271 H   0  0  0  0  0  0  0  0  0  0  0  0  # atno 6909 bound_to 6896
  146.0021  139.4451  143.0008 H   0  0  0  0  0  0  0  0  0  0  0  0  # atno 7974 bound_to 7965
  155.9108  140.3427  155.6097 H   0  0  0  0  0  0  0  0  0  0  0  0  # atno 8008 bound_to 7997
  155.7390  140.0805  157.2273 H   0  0  0  0  0  0  0  0  0  0  0  0  # atno 8009 bound_to 7997
  154.4055  140.1574  156.2582 H   0  0  0  0  0  0  0  0  0  0  0  0  # atno 8010 bound_to 7997
  139.7733  144.6915  151.0125 H   0  0  0  0  0  0  0  0  0  0  0  0  # atno 10167 bound_to 10162
  156.1872  130.4152  149.9423 H   0  0  0  0  0  0  0  0  0  0  0  0  # atno 10718 bound_to 10713
  152.9896  135.6148  154.2862 H   0  0  0  0  0  0  0  0  0  0  0  0  # atno 10763 bound_to 10752
  154.2589  135.2783  155.2788 H   0  0  0  0  0  0  0  0  0  0  0  0  # atno 10764 bound_to 10752
  154.5223  135.5811  153.6748 H   0  0  0  0  0  0  0  0  0  0  0  0  # atno 10765 bound_to 10752
  140.1215  134.8861  157.2078 H   0  0  0  0  0  0  0  0  0  0  0  0  # atno 11005 bound_to 11000
  145.7471  140.9986  143.1270 LP  0  0  0  0  0  0  0  0  0  0  0  0  # atno 17320 bound_to 7965
  144.6923  139.9169  143.7466 LP  0  0  0  0  0  0  0  0  0  0  0  0  # atno 17321 bound_to 7965
  140.7815  143.4564  151.0340 LP  0  0  0  0  0  0  0  0  0  0  0  0  # atno 17342 bound_to 10162
  139.8247  143.7772  152.3178 LP  0  0  0  0  0  0  0  0  0  0  0  0  # atno 17343 bound_to 10162
  156.7175  130.8994  151.3615 LP  0  0  0  0  0  0  0  0  0  0  0  0  # atno 17370 bound_to 10713
  157.6906  130.9230  150.0504 LP  0  0  0  0  0  0  0  0  0  0  0  0  # atno 17371 bound_to 10713
  140.2959  134.3186  155.7302 LP  0  0  0  0  0  0  0  0  0  0  0  0  # atno 17394 bound_to 11000
  141.2152  133.7563  156.9571 LP  0  0  0  0  0  0  0  0  0  0  0  0  # atno 17395 bound_to 11000

$$$$
