AV-unprocessed.smi:3156|AV-procd|sdf|12029|dock3
  -GOLD-   2272017443D 1   1.00000     0.00000
 Structure written by MMmdl.
 41 42  0  0  0  0  0  0  0  0  2 V2000
  146.9713  142.0358  155.2253 C   0  0  0  0  0  0  0  0  0  0  0  0
  148.2277  141.1796  155.4783 C   0  0  2  0  0  0  0  0  0  0  0  0
  149.3158  142.0207  156.0324 N   0  3  0  0  0  0  0  0  0  0  0  0
  149.5659  141.8709  157.4814 C   0  0  0  0  0  0  0  0  0  0  0  0
  150.2438  143.1244  158.0510 C   0  0  2  0  0  0  0  0  0  0  0  0
  151.6155  143.3819  157.3977 C   0  0  0  0  0  0  0  0  0  0  0  0
  152.3031  144.5891  158.0456 C   0  0  0  0  0  0  0  0  0  0  0  0
  152.3583  144.3977  159.5647 C   0  0  0  0  0  0  0  0  0  0  0  0
  150.9591  144.0782  160.1143 C   0  0  0  0  0  0  0  0  0  0  0  0
  150.4272  142.9336  159.4527 O   0  0  0  0  0  0  0  0  0  0  0  0
  148.7189  140.4585  154.1917 C   0  0  2  0  0  0  0  0  0  0  0  0
  147.6199  139.6256  153.5056 C   0  0  0  0  0  0  0  0  0  0  0  0
  149.8784  139.6093  154.4468 N   0  0  0  0  0  0  0  0  0  0  0  0
  149.9779  138.2406  154.3022 C   0  0  0  0  0  0  0  0  0  0  0  0
  151.2410  137.8802  154.6741 C   0  0  0  0  0  0  0  0  0  0  0  0
  151.8468  139.1109  155.0508 C   0  0  0  0  0  0  0  0  0  0  0  0
  151.0283  140.1420  154.9199 N   0  0  0  0  0  0  0  0  0  0  0  0
  146.1344  141.4308  154.8783 H   0  0  0  0  0  0  0  0  0  0  0  0
  147.1596  142.8053  154.4761 H   0  0  0  0  0  0  0  0  0  0  0  0
  146.6318  142.5339  156.1328 H   0  0  0  0  0  0  0  0  0  0  0  0
  147.9804  140.4183  156.2199 H   0  0  0  0  0  0  0  0  0  0  0  0
  150.1664  141.7506  155.5585 H   0  0  0  0  0  0  0  0  0  0  0  0
  148.6328  141.6759  158.0098 H   0  0  0  0  0  0  0  0  0  0  0  0
  150.2135  141.0074  157.6390 H   0  0  0  0  0  0  0  0  0  0  0  0
  149.5950  143.9865  157.8830 H   0  0  0  0  0  0  0  0  0  0  0  0
  152.2481  142.5000  157.5091 H   0  0  0  0  0  0  0  0  0  0  0  0
  151.5004  143.5503  156.3265 H   0  0  0  0  0  0  0  0  0  0  0  0
  153.3075  144.7184  157.6414 H   0  0  0  0  0  0  0  0  0  0  0  0
  151.7492  145.4984  157.8091 H   0  0  0  0  0  0  0  0  0  0  0  0
  153.0395  143.5811  159.8067 H   0  0  0  0  0  0  0  0  0  0  0  0
  152.7581  145.2918  160.0439 H   0  0  0  0  0  0  0  0  0  0  0  0
  151.0143  143.8731  161.1833 H   0  0  0  0  0  0  0  0  0  0  0  0
  150.2880  144.9293  159.9883 H   0  0  0  0  0  0  0  0  0  0  0  0
  149.0428  141.2223  153.4827 H   0  0  0  0  0  0  0  0  0  0  0  0
  146.8045  140.2492  153.1411 H   0  0  0  0  0  0  0  0  0  0  0  0
  147.1975  138.8852  154.1859 H   0  0  0  0  0  0  0  0  0  0  0  0
  148.0180  139.0907  152.6426 H   0  0  0  0  0  0  0  0  0  0  0  0
  149.1508  137.6422  153.9488 H   0  0  0  0  0  0  0  0  0  0  0  0
  151.6660  136.8872  154.6822 H   0  0  0  0  0  0  0  0  0  0  0  0
  152.8489  139.2840  155.4148 H   0  0  0  0  0  0  0  0  0  0  0  0
  149.1291  142.9910  155.8231 H   0  0  0  0  0  0  0  0  0  0  0  0
  1  2  1  0  0  0  0
  1 18  1  0  0  0  0
  1 19  1  0  0  0  0
  1 20  1  0  0  0  0
  2  3  1  0  0  0  0
  2 11  1  0  0  0  0
  2 21  1  0  0  0  0
  3  4  1  0  0  0  0
  3 22  1  0  0  0  0
  3 41  1  0  0  0  0
  4  5  1  0  0  0  0
  4 23  1  0  0  0  0
  4 24  1  0  0  0  0
  5 10  1  0  0  0  0
  5  6  1  0  0  0  0
  5 25  1  0  0  0  0
  6  7  1  0  0  0  0
  6 26  1  0  0  0  0
  6 27  1  0  0  0  0
  7  8  1  0  0  0  0
  7 28  1  0  0  0  0
  7 29  1  0  0  0  0
  8  9  1  0  0  0  0
  8 30  1  0  0  0  0
  8 31  1  0  0  0  0
  9 10  1  0  0  0  0
  9 32  1  0  0  0  0
  9 33  1  0  0  0  0
 11 12  1  0  0  0  0
 11 13  1  0  0  0  0
 11 34  1  0  0  0  0
 12 35  1  0  0  0  0
 12 36  1  0  0  0  0
 12 37  1  0  0  0  0
 13 17  1  0  0  0  0
 13 14  1  0  0  0  0
 14 15  2  0  0  0  0
 14 38  1  0  0  0  0
 15 16  1  0  0  0  0
 15 39  1  0  0  0  0
 16 17  2  0  0  0  0
 16 40  1  0  0  0  0
M  CHG  1   3   1
M  END
> <s_m_source_file>
AV-unprocessed.smi

> <i_m_source_file_index>
3156

> <i_lp_mmshare_version>
43012

> <i_f3d_flags>
0

> <s_epik_input>
bjFbY0hdW2NIXVtjSF1uMVtDQEBIXShbQ0gzXSlbQ0BIXShbQ0gzXSlbTkhdW0NIMl1bQ0BASF0yW0NIMl1bQ0gyXVtDSDJdW0NIMl1PMg==

> <s_epik_cmdline>
J2VwaWtfcHl0aG9uJywgJy1waCcsICc3LjAnLCAnLXRuJywgJzgnLCAnLW1hJywgJzIwMCcsICctbWV0YWxfYmluZGluZycsICctaW1hZScsICc8aW5maWxlLm1hZT4nLCAnLW9tYWUnLCAnPG91dGZpbGUubWFlPic=

> <r_lp_tautomer_probability>
1

> <r_epik_Ionization_Penalty>
0.00658015

> <r_epik_Ionization_Penalty_Charging>
0.00656881

> <r_epik_Ionization_Penalty_Neutral>
1.13431e-05

> <r_epik_State_Penalty>
0.0048654

> <r_epik_Charging_Adjusted_Penalty>
0.0114342

> <i_epik_Tot_Q>
1

> <i_epik_Tot_abs_Q>
1

> <r_epik_Metal_State_Penalty>
-0

> <b_epik_Metal_Only>
0

> <s_lp_Force_Field>
OPLS_2005

> <r_lp_Energy>
17.2589

> <b_lp_Chiralities_Consistent>
1

> <s_lp_Variant>
AV-unprocessed.smi:3156-1

> <Gold.Version>
5.8.1

> <Gold.Id.Protein>
6NUR|6NUR_protein|mol2

> <Gold.PLP.Fitness>
49.1705

> <Gold.PLP.PLP>
-38.7641

> <Gold.PLP.part.hbond>
-3.0000

> <Gold.PLP.part.metal>
0.0000

> <Gold.PLP.part.buried>
-1.8216

> <Gold.PLP.part.nonpolar>
-33.9078

> <Gold.PLP.part.repulsive>
0.2067

> <Gold.PLP.ligand.clash>
0.0000

> <Gold.PLP.ligand.torsion>
0.8595

> <Gold.PLP.Chemscore.Hbond>
3.0000

> <Gold.PLP.Chemscore.CHOScore>
1.0000

> <Gold.PLP.Chemscore.Metal>
0.0000

> <Gold.Chemscore.Hbonds>
donor molecule, donor type, donor heavy atom, donor atom, acceptor molecule, acceptor atom, score
      L1  H     3    41       P1  8028  2.00
      P1  H  7989  7998       L1    17  1.00
      L1  C    14    38       P1  7948  0.97

> <Gold.PLP.Chemscore.Internal.Correction>
0.1254

> <Gold.Rescore>
     Score         DG    S(hbond)    S(metal)    S(lipo)     H(rot)  DE(clash)    DE(int)     intcor
     15.52     -18.04       1.28        0.00     105.78       1.59       0.20       2.32       ----

> <Gold.Chemscore.Fitness>
15.5153

> <Gold.Chemscore.DG>
-18.0374

> <Gold.Chemscore.ZeroCoef>
-5.4800

> <Gold.Chemscore.Hbond>
1.2759

> <Gold.Chemscore.Metal>
0.0000

> <Gold.Chemscore.Lipo>
105.7787

> <Gold.Chemscore.Internal_Hbond>
0.0000

> <Gold.Chemscore.DEClash>
0.2041

> <Gold.Chemscore.DEInternal>
2.3180

> <Gold.Chemscore.Rot>
1.5938

> <Gold.Chemscore.Internal.Correction>
   9.000000E+99

> <Gold.Chemscore.Hbonds>
donor molecule, donor type, donor heavy atom, donor atom, acceptor molecule, acceptor atom, score
      L1  H     3    41       P1  8028  1.00
      P1  H  7989  7998       L1    17  0.09

> <Gold.Chemscore.Hbond.Weighted>
-4.2616

> <Gold.Chemscore.Metal.Weighted>
-0.0000

> <Gold.Chemscore.Lipo.Weighted>
-12.3761

> <Gold.Chemscore.Internal_Hbond.Weighted>
0.0000

> <Gold.Chemscore.DEClash.Weighted>
0.2041

> <Gold.Chemscore.DEInternal.Weighted>
2.3180

> <Gold.Chemscore.Rot.Weighted>
4.0802

> <Gold.Chemscore.Internal.Correction.Weighted>
   9.000000E+99

> <Gold.Protein.RotatedTorsions>
[ 6907 6896 6895 6894 ] final -176.45 input  -60.11 | X-H torsion
[ 7974 7965 7964 7962 ] final  -71.96 input  175.53 | X-H torsion
[ 8008 7997 7996 7995 ] final -142.19 input   59.86 | X-H torsion
[ 10167 10162 10161 10158 ] final   91.63 input  -65.29 | X-H torsion
[ 10718 10713 10712 10709 ] final  -22.47 input   66.30 | X-H torsion
[ 10763 10752 10751 10750 ] final  -11.76 input  -60.55 | X-H torsion
[ 11005 11000 10999 10996 ] final -172.34 input  -57.11 | X-H torsion

> <Gold.Protein.ActiveResidues>
 VAL166  LYS551  ARG553  GLY616  TRP617  ASP618  TYR619  PRO620  LYS621  CYS622 
 ASP623  PHE694  ASN695  SER759  ASP760  ASP761  ALA762  ILE779  LEU786  VAL792 
 PHE793  MET794  SER795  GLU796  ALA797  LYS798  CYS799  TRP800  GLU811  SER814 

> <Gold.Protein.RotatedAtoms>
  151.6050  133.3352  159.3055 H   0  0  0  0  0  0  0  0  0  0  0  0  # atno 6907 bound_to 6896
  150.8187  134.7386  159.6764 H   0  0  0  0  0  0  0  0  0  0  0  0  # atno 6908 bound_to 6896
  152.4282  134.5834  160.0006 H   0  0  0  0  0  0  0  0  0  0  0  0  # atno 6909 bound_to 6896
  145.6713  140.9220  143.0881 H   0  0  0  0  0  0  0  0  0  0  0  0  # atno 7974 bound_to 7965
  155.4901  140.0567  157.2955 H   0  0  0  0  0  0  0  0  0  0  0  0  # atno 8008 bound_to 7997
  154.4626  140.2004  156.0154 H   0  0  0  0  0  0  0  0  0  0  0  0  # atno 8009 bound_to 7997
  156.0918  140.3232  155.7830 H   0  0  0  0  0  0  0  0  0  0  0  0  # atno 8010 bound_to 7997
  139.8356  144.6666  150.9346 H   0  0  0  0  0  0  0  0  0  0  0  0  # atno 10167 bound_to 10162
  156.5042  130.4595  149.6684 H   0  0  0  0  0  0  0  0  0  0  0  0  # atno 10718 bound_to 10713
  153.4884  135.7017  153.5898 H   0  0  0  0  0  0  0  0  0  0  0  0  # atno 10763 bound_to 10752
  153.4081  135.3855  155.2032 H   0  0  0  0  0  0  0  0  0  0  0  0  # atno 10764 bound_to 10752
  154.8718  135.3898  154.4342 H   0  0  0  0  0  0  0  0  0  0  0  0  # atno 10765 bound_to 10752
  140.4980  134.5920  157.4978 H   0  0  0  0  0  0  0  0  0  0  0  0  # atno 11005 bound_to 11000
  144.7056  139.8576  143.7431 LP  0  0  0  0  0  0  0  0  0  0  0  0  # atno 17320 bound_to 7965
  146.1043  139.4041  143.0327 LP  0  0  0  0  0  0  0  0  0  0  0  0  # atno 17321 bound_to 7965
  140.7803  143.3960  151.1228 LP  0  0  0  0  0  0  0  0  0  0  0  0  # atno 17342 bound_to 10162
  139.7611  143.8635  152.3100 LP  0  0  0  0  0  0  0  0  0  0  0  0  # atno 17343 bound_to 10162
  156.3303  130.7328  151.2256 LP  0  0  0  0  0  0  0  0  0  0  0  0  # atno 17370 bound_to 10713
  157.7459  131.0431  150.4730 LP  0  0  0  0  0  0  0  0  0  0  0  0  # atno 17371 bound_to 10713
  139.9730  134.7262  156.0005 LP  0  0  0  0  0  0  0  0  0  0  0  0  # atno 17394 bound_to 11000
  141.1450  133.6557  156.3840 LP  0  0  0  0  0  0  0  0  0  0  0  0  # atno 17395 bound_to 11000

$$$$
