AV-unprocessed.smi:1914|AV-procd|sdf|7759|dock7
  -GOLD-   22720 9503D 1   1.00000     0.00000
 Structure written by MMmdl.
 44 45  0  0  0  0  0  0  0  0  2 V2000
  149.3218  131.0861  153.8430 C   0  0  0  0  0  0  0  0  0  0  0  0
  148.7457  132.4836  153.5751 C   0  0  1  0  0  0  0  0  0  0  0  0
  147.2129  132.4457  153.4558 C   0  0  0  0  0  0  0  0  0  0  0  0
  146.6619  133.8574  153.2202 C   0  0  0  0  0  0  0  0  0  0  0  0
  147.1388  134.8242  154.3155 C   0  0  0  0  0  0  0  0  0  0  0  0
  148.6219  134.8450  154.4023 N   0  3  1  0  0  0  0  0  0  0  0  0
  149.1134  135.8703  155.3573 C   0  0  0  0  0  0  0  0  0  0  0  0
  150.5662  135.6165  155.7911 C   0  0  0  0  0  0  0  0  0  0  0  0
  151.2139  136.8650  156.1684 N   0  0  0  0  0  0  0  0  0  0  0  0
  151.8468  137.6762  155.3087 C   0  0  0  0  0  0  0  0  0  0  0  0
  151.9198  137.4480  154.1006 O   0  0  0  0  0  0  0  0  0  0  0  0
  152.4720  138.9430  155.9103 C   0  0  0  0  0  0  0  0  0  0  0  0
  151.4741  139.8948  156.4272 N   0  0  0  0  0  0  0  0  0  0  0  0
  151.5592  140.2395  157.7911 C   0  0  0  0  0  0  0  0  0  0  0  0
  150.6993  141.0983  158.3612 C   0  0  0  0  0  0  0  0  0  0  0  0
  149.6636  141.6757  157.5374 C   0  0  0  0  0  0  0  0  0  0  0  0
  149.5719  141.3514  156.2324 C   0  0  0  0  0  0  0  0  0  0  0  0
  150.5090  140.4121  155.6052 C   0  0  0  0  0  0  0  0  0  0  0  0
  150.4318  140.1085  154.4141 O   0  0  0  0  0  0  0  0  0  0  0  0
  149.1724  133.4875  154.6652 C   0  0  0  0  0  0  0  0  0  0  0  0
  148.9534  130.6788  154.7852 H   0  0  0  0  0  0  0  0  0  0  0  0
  150.4104  131.1130  153.8953 H   0  0  0  0  0  0  0  0  0  0  0  0
  149.0478  130.3894  153.0501 H   0  0  0  0  0  0  0  0  0  0  0  0
  149.1509  132.8283  152.6224 H   0  0  0  0  0  0  0  0  0  0  0  0
  146.9123  131.7893  152.6384 H   0  0  0  0  0  0  0  0  0  0  0  0
  146.7774  132.0303  154.3659 H   0  0  0  0  0  0  0  0  0  0  0  0
  146.9859  134.2204  152.2438 H   0  0  0  0  0  0  0  0  0  0  0  0
  145.5720  133.8320  153.1946 H   0  0  0  0  0  0  0  0  0  0  0  0
  146.7668  135.8249  154.0919 H   0  0  0  0  0  0  0  0  0  0  0  0
  146.7195  134.5377  155.2814 H   0  0  0  0  0  0  0  0  0  0  0  0
  149.0729  136.8522  154.8832 H   0  0  0  0  0  0  0  0  0  0  0  0
  148.4498  135.9190  156.2223 H   0  0  0  0  0  0  0  0  0  0  0  0
  150.6095  134.9362  156.6418 H   0  0  0  0  0  0  0  0  0  0  0  0
  151.1225  135.1506  154.9759 H   0  0  0  0  0  0  0  0  0  0  0  0
  151.1921  137.1250  157.1440 H   0  0  0  0  0  0  0  0  0  0  0  0
  153.1592  138.6380  156.7006 H   0  0  0  0  0  0  0  0  0  0  0  0
  153.0975  139.4330  155.1615 H   0  0  0  0  0  0  0  0  0  0  0  0
  152.3575  139.7606  158.3396 H   0  0  0  0  0  0  0  0  0  0  0  0
  150.7781  141.3487  159.4089 H   0  0  0  0  0  0  0  0  0  0  0  0
  148.9585  142.3702  157.9701 H   0  0  0  0  0  0  0  0  0  0  0  0
  148.7899  141.7925  155.6317 H   0  0  0  0  0  0  0  0  0  0  0  0
  148.8378  133.1442  155.6456 H   0  0  0  0  0  0  0  0  0  0  0  0
  150.2605  133.5261  154.7021 H   0  0  0  0  0  0  0  0  0  0  0  0
  148.9506  135.1248  153.4891 H   0  0  0  0  0  0  0  0  0  0  0  0
  1  2  1  0  0  0  0
  1 21  1  0  0  0  0
  1 22  1  0  0  0  0
  1 23  1  0  0  0  0
  2 20  1  0  0  0  0
  2  3  1  0  0  0  0
  2 24  1  0  0  0  0
  3  4  1  0  0  0  0
  3 25  1  0  0  0  0
  3 26  1  0  0  0  0
  4  5  1  0  0  0  0
  4 27  1  0  0  0  0
  4 28  1  0  0  0  0
  5  6  1  0  0  0  0
  5 29  1  0  0  0  0
  5 30  1  0  0  0  0
  6  7  1  0  0  0  0
  6 20  1  0  0  0  0
  6 44  1  0  0  0  0
  7  8  1  0  0  0  0
  7 31  1  0  0  0  0
  7 32  1  0  0  0  0
  8  9  1  0  0  0  0
  8 33  1  0  0  0  0
  8 34  1  0  0  0  0
  9 10  1  0  0  0  0
  9 35  1  0  0  0  0
 10 11  2  0  0  0  0
 10 12  1  0  0  0  0
 12 13  1  0  0  0  0
 12 36  1  0  0  0  0
 12 37  1  0  0  0  0
 13 18  1  0  0  0  0
 13 14  1  0  0  0  0
 14 15  2  0  0  0  0
 14 38  1  0  0  0  0
 15 16  1  0  0  0  0
 15 39  1  0  0  0  0
 16 17  2  0  0  0  0
 16 40  1  0  0  0  0
 17 18  1  0  0  0  0
 17 41  1  0  0  0  0
 18 19  2  0  0  0  0
 20 42  1  0  0  0  0
 20 43  1  0  0  0  0
M  CHG  1   6   1
M  END
> <s_m_source_file>
AV-unprocessed.smi

> <i_m_source_file_index>
1914

> <i_lp_mmshare_version>
43012

> <i_f3d_flags>
0

> <s_epik_input>
W0NIM11bQ0BASF0xW0NIMl1bQ0gyXVtDSDJdTihbQ0gyXTEpW0NIMl1bQ0gyXVtOSF1DKD1PKVtDSDJdbjJbY0hdW2NIXVtjSF1bY0hdYzI9Tw==

> <s_epik_cmdline>
J2VwaWtfcHl0aG9uJywgJy1waCcsICc3LjAnLCAnLXRuJywgJzgnLCAnLW1hJywgJzIwMCcsICctbWV0YWxfYmluZGluZycsICctaW1hZScsICc8aW5maWxlLm1hZT4nLCAnLW9tYWUnLCAnPG91dGZpbGUubWFlPic=

> <r_lp_tautomer_probability>
1

> <r_epik_Ionization_Penalty>
0.00192477

> <r_epik_Ionization_Penalty_Charging>
0.00192469

> <r_epik_Ionization_Penalty_Neutral>
8.16761e-08

> <r_epik_State_Penalty>
0.00131115

> <r_epik_Charging_Adjusted_Penalty>
0.00323584

> <i_epik_Tot_Q>
1

> <i_epik_Tot_abs_Q>
1

> <r_epik_Metal_State_Penalty>
-0

> <b_epik_Metal_Only>
0

> <s_lp_Force_Field>
OPLS_2005

> <r_lp_Energy>
25.5857

> <b_lp_Chiralities_Consistent>
1

> <s_lp_Variant>
AV-unprocessed.smi:1914-4

> <Gold.Version>
5.8.1

> <Gold.Id.Protein>
6NUR|6NUR_protein|mol2

> <Gold.PLP.Fitness>
43.6713

> <Gold.PLP.PLP>
-33.0278

> <Gold.PLP.part.hbond>
-3.0000

> <Gold.PLP.part.metal>
0.0000

> <Gold.PLP.part.buried>
-4.8373

> <Gold.PLP.part.nonpolar>
-26.4956

> <Gold.PLP.part.repulsive>
0.5642

> <Gold.PLP.ligand.clash>
0.0000

> <Gold.PLP.ligand.torsion>
0.6133

> <Gold.PLP.Chemscore.Hbond>
3.9440

> <Gold.PLP.Chemscore.CHOScore>
0.0000

> <Gold.PLP.Chemscore.Metal>
0.0000

> <Gold.Chemscore.Hbonds>
donor molecule, donor type, donor heavy atom, donor atom, acceptor molecule, acceptor atom, score
      L1  H     6    44       P1  7948  2.00
      P1  H  7989  7998       L1    19  1.00
      P1  H 10752 10764       L1    11  0.90

> <Gold.PLP.Chemscore.Internal.Correction>
0.0380

> <Gold.Rescore>
     Score         DG    S(hbond)    S(metal)    S(lipo)     H(rot)  DE(clash)    DE(int)     intcor
     14.81     -16.59       2.76        0.00      56.86       1.86       0.00       1.78       ----

> <Gold.Chemscore.Fitness>
14.8051

> <Gold.Chemscore.DG>
-16.5894

> <Gold.Chemscore.ZeroCoef>
-5.4800

> <Gold.Chemscore.Hbond>
2.7590

> <Gold.Chemscore.Metal>
0.0000

> <Gold.Chemscore.Lipo>
56.8591

> <Gold.Chemscore.Internal_Hbond>
0.0000

> <Gold.Chemscore.DEClash>
0.0000

> <Gold.Chemscore.DEInternal>
1.7843

> <Gold.Chemscore.Rot>
1.8586

> <Gold.Chemscore.Internal.Correction>
   9.000000E+99

> <Gold.Chemscore.Hbonds>
donor molecule, donor type, donor heavy atom, donor atom, acceptor molecule, acceptor atom, score
      L1  H     6    44       P1  7948  0.49
      P1  H  7989  7998       L1    19  0.82
      P1  H 10752 10764       L1    11  0.25

> <Gold.Chemscore.Hbond.Weighted>
-9.2150

> <Gold.Chemscore.Metal.Weighted>
-0.0000

> <Gold.Chemscore.Lipo.Weighted>
-6.6525

> <Gold.Chemscore.Internal_Hbond.Weighted>
0.0000

> <Gold.Chemscore.DEClash.Weighted>
0.0000

> <Gold.Chemscore.DEInternal.Weighted>
1.7843

> <Gold.Chemscore.Rot.Weighted>
4.7581

> <Gold.Chemscore.Internal.Correction.Weighted>
   9.000000E+99

> <Gold.Protein.RotatedTorsions>
[ 6907 6896 6895 6894 ] final  158.34 input  -60.11 | X-H torsion
[ 7974 7965 7964 7962 ] final   33.35 input  175.53 | X-H torsion
[ 8008 7997 7996 7995 ] final  102.53 input   59.86 | X-H torsion
[ 10167 10162 10161 10158 ] final  157.37 input  -65.29 | X-H torsion
[ 10718 10713 10712 10709 ] final   75.13 input   66.30 | X-H torsion
[ 10763 10752 10751 10750 ] final  -90.27 input  -60.55 | X-H torsion
[ 11005 11000 10999 10996 ] final -138.01 input  -57.11 | X-H torsion

> <Gold.Protein.ActiveResidues>
 VAL166  LYS551  ARG553  GLY616  TRP617  ASP618  TYR619  PRO620  LYS621  CYS622 
 ASP623  PHE694  ASN695  SER759  ASP760  ASP761  ALA762  ILE779  LEU786  VAL792 
 PHE793  MET794  SER795  GLU796  ALA797  LYS798  CYS799  TRP800  GLU811  SER814 

> <Gold.Protein.RotatedAtoms>
  152.0018  133.3828  159.4184 H   0  0  0  0  0  0  0  0  0  0  0  0  # atno 6907 bound_to 6896
  150.6909  134.3826  159.5050 H   0  0  0  0  0  0  0  0  0  0  0  0  # atno 6908 bound_to 6896
  152.1574  134.8939  160.0594 H   0  0  0  0  0  0  0  0  0  0  0  0  # atno 6909 bound_to 6896
  146.1427  139.6409  142.9152 H   0  0  0  0  0  0  0  0  0  0  0  0  # atno 7974 bound_to 7965
  156.1401  140.3180  155.8482 H   0  0  0  0  0  0  0  0  0  0  0  0  # atno 8008 bound_to 7997
  155.4170  140.0509  157.3045 H   0  0  0  0  0  0  0  0  0  0  0  0  # atno 8009 bound_to 7997
  154.4969  140.2114  155.9440 H   0  0  0  0  0  0  0  0  0  0  0  0  # atno 8010 bound_to 7997
  139.4823  144.4923  151.8290 H   0  0  0  0  0  0  0  0  0  0  0  0  # atno 10167 bound_to 10162
  157.6621  130.9711  150.1310 H   0  0  0  0  0  0  0  0  0  0  0  0  # atno 10718 bound_to 10713
  154.6640  135.5310  153.8053 H   0  0  0  0  0  0  0  0  0  0  0  0  # atno 10763 bound_to 10752
  153.0459  135.6512  154.0828 H   0  0  0  0  0  0  0  0  0  0  0  0  # atno 10764 bound_to 10752
  154.0734  135.2952  155.3284 H   0  0  0  0  0  0  0  0  0  0  0  0  # atno 10765 bound_to 10752
  140.8657  134.2114  157.4681 H   0  0  0  0  0  0  0  0  0  0  0  0  # atno 11005 bound_to 11000
  145.5010  141.0437  143.2540 LP  0  0  0  0  0  0  0  0  0  0  0  0  # atno 17320 bound_to 7965
  144.7810  139.6526  143.7154 LP  0  0  0  0  0  0  0  0  0  0  0  0  # atno 17321 bound_to 7965
  140.4409  144.1988  150.5891 LP  0  0  0  0  0  0  0  0  0  0  0  0  # atno 17342 bound_to 10162
  140.4684  143.2422  151.9123 LP  0  0  0  0  0  0  0  0  0  0  0  0  # atno 17343 bound_to 10162
  156.2156  130.3670  149.8617 LP  0  0  0  0  0  0  0  0  0  0  0  0  # atno 17370 bound_to 10713
  156.6483  130.8733  151.3527 LP  0  0  0  0  0  0  0  0  0  0  0  0  # atno 17371 bound_to 10713
  139.8709  134.9750  156.4869 LP  0  0  0  0  0  0  0  0  0  0  0  0  # atno 17394 bound_to 11000
  140.8632  133.8044  155.9286 LP  0  0  0  0  0  0  0  0  0  0  0  0  # atno 17395 bound_to 11000

$$$$
