AV-unprocessed.smi:2775|AV-procd|sdf|10702|dock7
  -GOLD-   2272015143D 1   1.00000     0.00000
 Structure written by MMmdl.
 43 46  0  0  0  0  0  0  0  0  2 V2000
  147.1190  130.0713  152.6101 C   0  0  0  0  0  0  0  0  0  0  0  0
  148.0217  130.8743  153.5268 C   0  0  0  0  0  0  0  0  0  0  0  0
  148.7128  130.2030  154.4739 N   0  3  0  0  0  0  0  0  0  0  0  0
  149.5401  130.8107  155.3489 C   0  0  0  0  0  0  0  0  0  0  0  0
  149.7163  132.2071  155.2972 C   0  0  0  0  0  0  0  0  0  0  0  0
  149.0236  132.9617  154.3156 C   0  0  0  0  0  0  0  0  0  0  0  0
  149.1223  134.3757  154.1845 N   0  0  0  0  0  0  0  0  0  0  0  0
  149.2139  135.3325  155.1279 C   0  0  0  0  0  0  0  0  0  0  0  0
  149.2902  135.1277  156.3367 O   0  0  0  0  0  0  0  0  0  0  0  0
  149.2362  136.5810  154.6308 N   0  0  0  0  0  0  0  0  0  0  0  0
  149.3288  137.8352  155.3783 C   0  0  2  0  0  0  0  0  0  0  0  0
  149.0126  139.0535  154.5083 C   0  0  1  0  0  0  0  0  0  0  0  0
  147.8841  140.0183  154.4493 C   0  0  0  0  0  0  0  0  0  0  0  0
  148.7252  141.3129  154.3099 C   0  0  0  0  0  0  0  0  0  0  0  0
  150.0993  140.9175  154.5406 O   0  0  0  0  0  0  0  0  0  0  0  0
  150.0025  139.7932  155.3940 C   0  0  2  0  0  0  0  0  0  0  0  0
  150.7639  138.4595  155.4147 C   0  0  0  0  0  0  0  0  0  0  0  0
  151.8765  138.1532  154.3947 C   0  0  0  0  0  0  0  0  0  0  0  0
  152.8920  138.4111  155.5127 C   0  0  0  0  0  0  0  0  0  0  0  0
  151.7733  138.1573  156.5293 C   0  0  0  0  0  0  0  0  0  0  0  0
  148.1578  132.2788  153.4251 C   0  0  0  0  0  0  0  0  0  0  0  0
  147.2699  133.1513  152.2200 Cl  0  0  0  0  0  0  0  0  0  0  0  0
  147.4312  130.1883  151.5717 H   0  0  0  0  0  0  0  0  0  0  0  0
  146.0870  130.4118  152.7003 H   0  0  0  0  0  0  0  0  0  0  0  0
  147.1467  129.0086  152.8545 H   0  0  0  0  0  0  0  0  0  0  0  0
  150.0303  130.1660  156.0640 H   0  0  0  0  0  0  0  0  0  0  0  0
  150.3735  132.6628  156.0205 H   0  0  0  0  0  0  0  0  0  0  0  0
  149.1293  134.7115  153.2321 H   0  0  0  0  0  0  0  0  0  0  0  0
  149.1942  136.6698  153.6255 H   0  0  0  0  0  0  0  0  0  0  0  0
  148.8066  137.8432  156.3390 H   0  0  0  0  0  0  0  0  0  0  0  0
  149.4071  138.8935  153.4977 H   0  0  0  0  0  0  0  0  0  0  0  0
  147.2263  139.8507  153.5962 H   0  0  0  0  0  0  0  0  0  0  0  0
  147.2927  140.0114  155.3657 H   0  0  0  0  0  0  0  0  0  0  0  0
  148.6327  141.7558  153.3179 H   0  0  0  0  0  0  0  0  0  0  0  0
  148.4150  142.0576  155.0442 H   0  0  0  0  0  0  0  0  0  0  0  0
  149.6013  140.0634  156.3765 H   0  0  0  0  0  0  0  0  0  0  0  0
  151.8843  137.1155  154.0587 H   0  0  0  0  0  0  0  0  0  0  0  0
  151.9394  138.8492  153.5578 H   0  0  0  0  0  0  0  0  0  0  0  0
  153.7163  137.6985  155.5536 H   0  0  0  0  0  0  0  0  0  0  0  0
  153.2474  139.4426  155.5270 H   0  0  0  0  0  0  0  0  0  0  0  0
  151.7530  138.8549  157.3670 H   0  0  0  0  0  0  0  0  0  0  0  0
  151.7467  137.1215  156.8675 H   0  0  0  0  0  0  0  0  0  0  0  0
  148.6008  129.1905  154.5329 H   0  0  0  0  0  0  0  0  0  0  0  0
  1  2  1  0  0  0  0
  1 23  1  0  0  0  0
  1 24  1  0  0  0  0
  1 25  1  0  0  0  0
  2 21  1  0  0  0  0
  2  3  2  0  0  0  0
  3  4  1  0  0  0  0
  3 43  1  0  0  0  0
  4  5  2  0  0  0  0
  4 26  1  0  0  0  0
  5  6  1  0  0  0  0
  5 27  1  0  0  0  0
  6  7  1  0  0  0  0
  6 21  2  0  0  0  0
  7  8  1  0  0  0  0
  7 28  1  0  0  0  0
  8  9  2  0  0  0  0
  8 10  1  0  0  0  0
 10 11  1  0  0  0  0
 10 29  1  0  0  0  0
 11 17  1  0  0  0  0
 11 12  1  0  0  0  0
 11 30  1  0  0  0  0
 12 16  1  0  0  0  0
 12 13  1  0  0  0  0
 12 31  1  0  0  0  0
 13 14  1  0  0  0  0
 13 32  1  0  0  0  0
 13 33  1  0  0  0  0
 14 15  1  0  0  0  0
 14 34  1  0  0  0  0
 14 35  1  0  0  0  0
 15 16  1  0  0  0  0
 16 17  1  0  0  0  0
 16 36  1  0  0  0  0
 17 20  1  0  0  0  0
 17 18  1  0  0  0  0
 18 19  1  0  0  0  0
 18 37  1  0  0  0  0
 18 38  1  0  0  0  0
 19 20  1  0  0  0  0
 19 39  1  0  0  0  0
 19 40  1  0  0  0  0
 20 41  1  0  0  0  0
 20 42  1  0  0  0  0
 21 22  1  0  0  0  0
M  CHG  1   3   1
M  END
> <s_m_source_file>
AV-unprocessed.smi

> <i_m_source_file_index>
2775

> <i_lp_mmshare_version>
43012

> <i_f3d_flags>
0

> <s_epik_input>
W0NIM11jMW5bY0hdW2NIXWMoYzFDbClbTkhdQyg9TylbTkhdW0NAQEhdMltDQEhdKFtDSDJdW0NIMl1PMylbQ0BASF0zQzI0W0NIMl1bQ0gyXVtDSDJdNA==

> <s_epik_cmdline>
J2VwaWtfcHl0aG9uJywgJy1waCcsICc3LjAnLCAnLXRuJywgJzgnLCAnLW1hJywgJzIwMCcsICctbWV0YWxfYmluZGluZycsICctaW1hZScsICc8aW5maWxlLm1hZT4nLCAnLW9tYWUnLCAnPG91dGZpbGUubWFlPic=

> <r_epik_Ionization_Penalty>
2.4104

> <r_epik_Ionization_Penalty_Charging>
2.41038

> <r_epik_Ionization_Penalty_Neutral>
1.9872e-05

> <r_epik_State_Penalty>
2.56896

> <r_epik_Charging_Adjusted_Penalty>
4.97934

> <i_epik_Tot_Q>
1

> <i_epik_Tot_abs_Q>
1

> <r_epik_Metal_State_Penalty>
2.57906

> <b_epik_Metal_Only>
0

> <s_lp_Force_Field>
OPLS_2005

> <r_lp_Energy>
84.5881

> <b_lp_Chiralities_Consistent>
1

> <s_lp_Variant>
AV-unprocessed.smi:2775-15

> <Gold.Version>
5.8.1

> <Gold.Id.Protein>
6NUR|6NUR_protein|mol2

> <Gold.PLP.Fitness>
42.9348

> <Gold.PLP.PLP>
-37.5907

> <Gold.PLP.part.hbond>
-3.4782

> <Gold.PLP.part.metal>
0.0000

> <Gold.PLP.part.buried>
-3.4961

> <Gold.PLP.part.nonpolar>
-29.3334

> <Gold.PLP.part.repulsive>
0.2295

> <Gold.PLP.ligand.clash>
0.0000

> <Gold.PLP.ligand.torsion>
0.5029

> <Gold.PLP.Chemscore.Hbond>
2.0098

> <Gold.PLP.Chemscore.CHOScore>
0.0000

> <Gold.PLP.Chemscore.Metal>
0.0000

> <Gold.Chemscore.Hbonds>
donor molecule, donor type, donor heavy atom, donor atom, acceptor molecule, acceptor atom, score
      L1  H     7    28       P1  7948  0.60
      L1  H    10    29       P1  7948  1.00
      P1  H  7989  7998       L1    15  0.67

> <Gold.PLP.Chemscore.Internal.Correction>
0.3206

> <Gold.Rescore>
     Score         DG    S(hbond)    S(metal)    S(lipo)     H(rot)  DE(clash)    DE(int)     intcor
     19.25     -20.09       1.77        0.00      96.33       1.00       0.37       0.47       ----

> <Gold.Chemscore.Fitness>
19.2487

> <Gold.Chemscore.DG>
-20.0915

> <Gold.Chemscore.ZeroCoef>
-5.4800

> <Gold.Chemscore.Hbond>
1.7668

> <Gold.Chemscore.Metal>
0.0000

> <Gold.Chemscore.Lipo>
96.3278

> <Gold.Chemscore.Internal_Hbond>
0.0000

> <Gold.Chemscore.DEClash>
0.3694

> <Gold.Chemscore.DEInternal>
0.4734

> <Gold.Chemscore.Rot>
1.0000

> <Gold.Chemscore.Internal.Correction>
   9.000000E+99

> <Gold.Chemscore.Hbonds>
donor molecule, donor type, donor heavy atom, donor atom, acceptor molecule, acceptor atom, score
      L1  H     7    28       P1  7948  0.04
      L1  H    10    29       P1  7948  0.97
      P1  H  7989  7998       L1    15  0.58

> <Gold.Chemscore.Hbond.Weighted>
-5.9012

> <Gold.Chemscore.Metal.Weighted>
-0.0000

> <Gold.Chemscore.Lipo.Weighted>
-11.2704

> <Gold.Chemscore.Internal_Hbond.Weighted>
0.0000

> <Gold.Chemscore.DEClash.Weighted>
0.3694

> <Gold.Chemscore.DEInternal.Weighted>
0.4734

> <Gold.Chemscore.Rot.Weighted>
2.5600

> <Gold.Chemscore.Internal.Correction.Weighted>
   9.000000E+99

> <Gold.Protein.RotatedTorsions>
[ 6907 6896 6895 6894 ] final   21.01 input  -60.11 | X-H torsion
[ 7974 7965 7964 7962 ] final  168.05 input  175.53 | X-H torsion
[ 8008 7997 7996 7995 ] final -144.96 input   59.86 | X-H torsion
[ 10167 10162 10161 10158 ] final  149.85 input  -65.29 | X-H torsion
[ 10718 10713 10712 10709 ] final -106.82 input   66.30 | X-H torsion
[ 10763 10752 10751 10750 ] final  130.94 input  -60.55 | X-H torsion
[ 11005 11000 10999 10996 ] final  -81.82 input  -57.11 | X-H torsion

> <Gold.Protein.ActiveResidues>
 VAL166  LYS551  ARG553  GLY616  TRP617  ASP618  TYR619  PRO620  LYS621  CYS622 
 ASP623  PHE694  ASN695  SER759  ASP760  ASP761  ALA762  ILE779  LEU786  VAL792 
 PHE793  MET794  SER795  GLU796  ALA797  LYS798  CYS799  TRP800  GLU811  SER814 

> <Gold.Protein.RotatedAtoms>
  151.9052  135.0362  160.0509 H   0  0  0  0  0  0  0  0  0  0  0  0  # atno 6907 bound_to 6896
  152.2325  133.5065  159.5232 H   0  0  0  0  0  0  0  0  0  0  0  0  # atno 6908 bound_to 6896
  150.7030  134.1113  159.4044 H   0  0  0  0  0  0  0  0  0  0  0  0  # atno 6909 bound_to 6896
  144.7402  139.8851  143.6399 H   0  0  0  0  0  0  0  0  0  0  0  0  # atno 7974 bound_to 7965
  155.5354  140.0603  157.2881 H   0  0  0  0  0  0  0  0  0  0  0  0  # atno 8008 bound_to 7997
  154.4470  140.1928  156.0581 H   0  0  0  0  0  0  0  0  0  0  0  0  # atno 8009 bound_to 7997
  156.0623  140.3271  155.7480 H   0  0  0  0  0  0  0  0  0  0  0  0  # atno 8010 bound_to 7997
  139.4856  144.5569  151.7302 H   0  0  0  0  0  0  0  0  0  0  0  0  # atno 10167 bound_to 10162
  156.0408  130.5632  150.7735 H   0  0  0  0  0  0  0  0  0  0  0  0  # atno 10718 bound_to 10713
  153.7662  135.3188  155.3345 H   0  0  0  0  0  0  0  0  0  0  0  0  # atno 10763 bound_to 10752
  154.8213  135.4601  154.0789 H   0  0  0  0  0  0  0  0  0  0  0  0  # atno 10764 bound_to 10752
  153.2035  135.6926  153.8286 H   0  0  0  0  0  0  0  0  0  0  0  0  # atno 10765 bound_to 10752
  141.1665  133.7214  156.8479 H   0  0  0  0  0  0  0  0  0  0  0  0  # atno 11005 bound_to 11000
  146.1183  139.4197  143.0244 LP  0  0  0  0  0  0  0  0  0  0  0  0  # atno 17320 bound_to 7965
  145.7342  141.0031  143.1335 LP  0  0  0  0  0  0  0  0  0  0  0  0  # atno 17321 bound_to 7965
  140.5132  144.0993  150.6001 LP  0  0  0  0  0  0  0  0  0  0  0  0  # atno 17342 bound_to 10162
  140.3926  143.2744  152.0042 LP  0  0  0  0  0  0  0  0  0  0  0  0  # atno 17343 bound_to 10162
  157.5222  131.0932  151.0064 LP  0  0  0  0  0  0  0  0  0  0  0  0  # atno 17370 bound_to 10713
  157.0392  130.5742  149.5353 LP  0  0  0  0  0  0  0  0  0  0  0  0  # atno 17371 bound_to 10713
  140.1936  134.8947  157.3089 LP  0  0  0  0  0  0  0  0  0  0  0  0  # atno 17394 bound_to 11000
  140.2263  134.3963  155.7542 LP  0  0  0  0  0  0  0  0  0  0  0  0  # atno 17395 bound_to 11000

$$$$
