AV-unprocessed.smi:113|AV-procd|sdf|1101|dock8
  -GOLD-   2262018213D 1   1.00000     0.00000
 Structure written by MMmdl.
 53 56  0  0  0  0  0  0  0  0  2 V2000
  148.5018  141.4240  154.9420 C   0  0  0  0  0  0  0  0  0  0  0  0
  149.6279  141.3439  155.9506 C   0  0  0  0  0  0  0  0  0  0  0  0
  150.0969  140.1149  156.4530 C   0  0  0  0  0  0  0  0  0  0  0  0
  151.1504  140.0929  157.4004 C   0  0  0  0  0  0  0  0  0  0  0  0
  151.6775  138.7700  157.9669 C   0  0  0  0  0  0  0  0  0  0  0  0
  150.8021  137.6122  157.8502 N   0  0  0  0  0  0  0  0  0  0  0  0
  150.9123  136.8100  156.6885 C   0  0  0  0  0  0  0  0  0  0  0  0
  151.7132  137.0806  155.7910 O   0  0  0  0  0  0  0  0  0  0  0  0
  149.9989  135.6663  156.6351 C   0  0  0  0  0  0  0  0  0  0  0  0
  150.0904  134.7316  155.4390 C   0  0  0  0  0  0  0  0  0  0  0  0
  149.1079  135.4697  157.6368 C   0  0  0  0  0  0  0  0  0  0  0  0
  148.9837  136.3001  158.7372 N   0  0  0  0  0  0  0  0  0  0  0  0
  147.9621  135.9667  159.8062 C   0  0  2  0  0  0  0  0  0  0  0  0
  147.1186  137.1685  160.2481 C   0  0  0  0  0  0  0  0  0  0  0  0
  146.9276  136.8650  161.7197 C   0  0  2  0  0  0  0  0  0  0  0  0
  146.6901  138.0497  162.4522 O   0  0  0  0  0  0  0  0  0  0  0  0
  148.2538  136.1989  162.1014 C   0  0  1  0  0  0  0  0  0  0  0  0
  148.1321  135.2402  163.2957 C   0  0  0  0  0  0  0  0  0  0  0  0
  147.4920  134.0466  162.8977 O   0  0  0  0  0  0  0  0  0  0  0  0
  148.6251  135.4689  160.9312 O   0  0  0  0  0  0  0  0  0  0  0  0
  149.8635  137.3958  158.8840 C   0  0  0  0  0  0  0  0  0  0  0  0
  149.8053  138.1398  159.8647 O   0  0  0  0  0  0  0  0  0  0  0  0
  151.7099  141.3329  157.8146 C   0  0  0  0  0  0  0  0  0  0  0  0
  152.7681  141.4077  158.7518 C   0  0  0  0  0  0  0  0  0  0  0  0
  153.2929  142.6560  159.1396 C   0  0  0  0  0  0  0  0  0  0  0  0
  152.7711  143.8452  158.5974 C   0  0  0  0  0  0  0  0  0  0  0  0
  151.7204  143.7890  157.6632 C   0  0  0  0  0  0  0  0  0  0  0  0
  151.1937  142.5416  157.2740 C   0  0  0  0  0  0  0  0  0  0  0  0
  150.1862  142.4948  156.3770 N   0  3  0  0  0  0  0  0  0  0  0  0
  148.4295  140.5002  154.3673 H   0  0  0  0  0  0  0  0  0  0  0  0
  148.6634  142.2452  154.2431 H   0  0  0  0  0  0  0  0  0  0  0  0
  147.5515  141.5862  155.4509 H   0  0  0  0  0  0  0  0  0  0  0  0
  149.6386  139.2016  156.1041 H   0  0  0  0  0  0  0  0  0  0  0  0
  152.6303  138.5157  157.5003 H   0  0  0  0  0  0  0  0  0  0  0  0
  151.9195  138.8803  159.0253 H   0  0  0  0  0  0  0  0  0  0  0  0
  149.3825  133.9059  155.5142 H   0  0  0  0  0  0  0  0  0  0  0  0
  151.0915  134.3051  155.3623 H   0  0  0  0  0  0  0  0  0  0  0  0
  149.8763  135.2713  154.5159 H   0  0  0  0  0  0  0  0  0  0  0  0
  148.4508  134.6148  157.5639 H   0  0  0  0  0  0  0  0  0  0  0  0
  147.3424  135.1660  159.4020 H   0  0  0  0  0  0  0  0  0  0  0  0
  147.6559  138.1052  160.1047 H   0  0  0  0  0  0  0  0  0  0  0  0
  146.1841  137.2171  159.6886 H   0  0  0  0  0  0  0  0  0  0  0  0
  146.0968  136.1695  161.8493 H   0  0  0  0  0  0  0  0  0  0  0  0
  145.9188  137.9249  162.9841 H   0  0  0  0  0  0  0  0  0  0  0  0
  149.0045  136.9672  162.2945 H   0  0  0  0  0  0  0  0  0  0  0  0
  149.1232  134.9709  163.6622 H   0  0  0  0  0  0  0  0  0  0  0  0
  147.5949  135.7030  164.1239 H   0  0  0  0  0  0  0  0  0  0  0  0
  147.7243  133.8654  161.9997 H   0  0  0  0  0  0  0  0  0  0  0  0
  153.1948  140.5175  159.1885 H   0  0  0  0  0  0  0  0  0  0  0  0
  154.0999  142.7009  159.8567 H   0  0  0  0  0  0  0  0  0  0  0  0
  153.1773  144.8001  158.8981 H   0  0  0  0  0  0  0  0  0  0  0  0
  151.3238  144.7051  157.2497 H   0  0  0  0  0  0  0  0  0  0  0  0
  149.8301  143.3739  156.0022 H   0  0  0  0  0  0  0  0  0  0  0  0
  1  2  1  0  0  0  0
  1 30  1  0  0  0  0
  1 31  1  0  0  0  0
  1 32  1  0  0  0  0
  2 29  1  0  0  0  0
  2  3  2  0  0  0  0
  3  4  1  0  0  0  0
  3 33  1  0  0  0  0
  4  5  1  0  0  0  0
  4 23  2  0  0  0  0
  5  6  1  0  0  0  0
  5 34  1  0  0  0  0
  5 35  1  0  0  0  0
  6 21  1  0  0  0  0
  6  7  1  0  0  0  0
  7  8  2  0  0  0  0
  7  9  1  0  0  0  0
  9 10  1  0  0  0  0
  9 11  2  0  0  0  0
 10 36  1  0  0  0  0
 10 37  1  0  0  0  0
 10 38  1  0  0  0  0
 11 12  1  0  0  0  0
 11 39  1  0  0  0  0
 12 13  1  0  0  0  0
 12 21  1  0  0  0  0
 13 20  1  0  0  0  0
 13 14  1  0  0  0  0
 13 40  1  0  0  0  0
 14 15  1  0  0  0  0
 14 41  1  0  0  0  0
 14 42  1  0  0  0  0
 15 16  1  0  0  0  0
 15 17  1  0  0  0  0
 15 43  1  0  0  0  0
 16 44  1  0  0  0  0
 17 18  1  0  0  0  0
 17 20  1  0  0  0  0
 17 45  1  0  0  0  0
 18 19  1  0  0  0  0
 18 46  1  0  0  0  0
 18 47  1  0  0  0  0
 19 48  1  0  0  0  0
 21 22  2  0  0  0  0
 23 28  1  0  0  0  0
 23 24  1  0  0  0  0
 24 25  2  0  0  0  0
 24 49  1  0  0  0  0
 25 26  1  0  0  0  0
 25 50  1  0  0  0  0
 26 27  2  0  0  0  0
 26 51  1  0  0  0  0
 27 28  1  0  0  0  0
 27 52  1  0  0  0  0
 28 29  2  0  0  0  0
 29 53  1  0  0  0  0
M  CHG  1  29   1
M  END
> <s_m_source_file>
AV-unprocessed.smi

> <i_m_source_file_index>
113

> <i_lp_mmshare_version>
43012

> <i_f3d_flags>
0

> <s_epik_input>
W2NIXTFbY0hdW2NIXVtjSF1jKGMxMiluYyhbQ0gzXSlbY0hdYzJbQ0gyXW4zYyg9TyljKFtDSDNdKVtjSF1uKGMzPU8pW0NAQEhdNFtDSDJdW0NAQEhdKFtPSF0pW0NASF0oTzQpW0NIMl1bT0hd

> <s_epik_cmdline>
J2VwaWtfcHl0aG9uJywgJy1waCcsICc3LjAnLCAnLXRuJywgJzgnLCAnLW1hJywgJzIwMCcsICctbWV0YWxfYmluZGluZycsICctaW1hZScsICc8aW5maWxlLm1hZT4nLCAnLW9tYWUnLCAnPG91dGZpbGUubWFlPic=

> <r_lp_tautomer_probability>
1

> <r_epik_Ionization_Penalty>
0.705471

> <r_epik_Ionization_Penalty_Charging>
0.70547

> <r_epik_Ionization_Penalty_Neutral>
1.19947e-07

> <r_epik_State_Penalty>
0.728574

> <r_epik_Charging_Adjusted_Penalty>
1.43404

> <i_epik_Tot_Q>
1

> <i_epik_Tot_abs_Q>
1

> <r_epik_Metal_State_Penalty>
4.61665

> <b_epik_Metal_Only>
0

> <s_epik_Chemistry_Notes>
This compound contains an acetal/aminal-like group ( X-CH(R)-Y where X, Y are N, S, or O) that may be acid/base labile, releasing an aldehyde.

> <s_lp_Force_Field>
OPLS_2005

> <r_lp_Energy>
36.4748

> <b_lp_Chiralities_Consistent>
1

> <s_lp_Variant>
AV-unprocessed.smi:113-11

> <Gold.Version>
5.8.1

> <Gold.Id.Protein>
6NUR|6NUR_protein|mol2

> <Gold.PLP.Fitness>
60.3139

> <Gold.PLP.PLP>
-50.8932

> <Gold.PLP.part.hbond>
-4.6211

> <Gold.PLP.part.metal>
0.0000

> <Gold.PLP.part.buried>
-7.0808

> <Gold.PLP.part.nonpolar>
-39.5646

> <Gold.PLP.part.repulsive>
0.1363

> <Gold.PLP.ligand.clash>
0.0000

> <Gold.PLP.ligand.torsion>
1.0405

> <Gold.PLP.Chemscore.Hbond>
3.8240

> <Gold.PLP.Chemscore.CHOScore>
0.0000

> <Gold.PLP.Chemscore.Metal>
0.0000

> <Gold.Chemscore.Hbonds>
donor molecule, donor type, donor heavy atom, donor atom, acceptor molecule, acceptor atom, score
      L1  H    29    53       P1  8028  2.00
      P1  H  6934  6947       L1    16  0.19
      P1  H 10752 10765       L1     8  0.50

> <Gold.PLP.Chemscore.Internal.Correction>
0.0297

> <Gold.Rescore>
     Score         DG    S(hbond)    S(metal)    S(lipo)     H(rot)  DE(clash)    DE(int)     intcor
     18.64     -20.83       2.58        0.00     123.37       3.01       0.15       2.04       ----

> <Gold.Chemscore.Fitness>
18.6427

> <Gold.Chemscore.DG>
-20.8280

> <Gold.Chemscore.ZeroCoef>
-5.4800

> <Gold.Chemscore.Hbond>
2.5823

> <Gold.Chemscore.Metal>
0.0000

> <Gold.Chemscore.Lipo>
123.3675

> <Gold.Chemscore.Internal_Hbond>
0.0000

> <Gold.Chemscore.DEClash>
0.1461

> <Gold.Chemscore.DEInternal>
2.0391

> <Gold.Chemscore.Rot>
3.0120

> <Gold.Chemscore.Internal.Correction>
   9.000000E+99

> <Gold.Chemscore.Hbonds>
donor molecule, donor type, donor heavy atom, donor atom, acceptor molecule, acceptor atom, score
      L1  H    29    53       P1  8028  1.00
      P1  H  6931  6943       L1    22  0.01
      P1  H  6934  6947       L1    16  0.01
      P1  H 10752 10765       L1     8  0.48

> <Gold.Chemscore.Hbond.Weighted>
-8.6248

> <Gold.Chemscore.Metal.Weighted>
-0.0000

> <Gold.Chemscore.Lipo.Weighted>
-14.4340

> <Gold.Chemscore.Internal_Hbond.Weighted>
0.0000

> <Gold.Chemscore.DEClash.Weighted>
0.1461

> <Gold.Chemscore.DEInternal.Weighted>
2.0391

> <Gold.Chemscore.Rot.Weighted>
7.7108

> <Gold.Chemscore.Internal.Correction.Weighted>
   9.000000E+99

> <Gold.Protein.RotatedTorsions>
[ 6907 6896 6895 6894 ] final -167.91 input  -60.11 | X-H torsion
[ 7974 7965 7964 7962 ] final  103.86 input  175.53 | X-H torsion
[ 8008 7997 7996 7995 ] final  129.13 input   59.86 | X-H torsion
[ 10167 10162 10161 10158 ] final  -44.27 input  -65.29 | X-H torsion
[ 10718 10713 10712 10709 ] final  167.61 input   66.30 | X-H torsion
[ 10763 10752 10751 10750 ] final -159.81 input  -60.55 | X-H torsion
[ 11005 11000 10999 10996 ] final  -87.47 input  -57.11 | X-H torsion

> <Gold.Protein.ActiveResidues>
 VAL166  LYS551  ARG553  GLY616  TRP617  ASP618  TYR619  PRO620  LYS621  CYS622 
 ASP623  PHE694  ASN695  SER759  ASP760  ASP761  ALA762  ILE779  LEU786  VAL792 
 PHE793  MET794  SER795  GLU796  ALA797  LYS798  CYS799  TRP800  GLU811  SER814 

> <Gold.Protein.RotatedAtoms>
  151.4671  133.3578  159.2817 H   0  0  0  0  0  0  0  0  0  0  0  0  # atno 6907 bound_to 6896
  150.8986  134.8398  159.7355 H   0  0  0  0  0  0  0  0  0  0  0  0  # atno 6908 bound_to 6896
  152.4866  134.4589  159.9650 H   0  0  0  0  0  0  0  0  0  0  0  0  # atno 6909 bound_to 6896
  145.3403  139.2464  143.3613 H   0  0  0  0  0  0  0  0  0  0  0  0  # atno 7974 bound_to 7965
  156.2930  140.2628  156.2548 H   0  0  0  0  0  0  0  0  0  0  0  0  # atno 8008 bound_to 7997
  154.9847  140.0389  157.2311 H   0  0  0  0  0  0  0  0  0  0  0  0  # atno 8009 bound_to 7997
  154.7740  140.2783  155.6120 H   0  0  0  0  0  0  0  0  0  0  0  0  # atno 8010 bound_to 7997
  140.6903  143.2939  151.3472 H   0  0  0  0  0  0  0  0  0  0  0  0  # atno 10167 bound_to 10162
  157.0490  131.0308  151.2687 H   0  0  0  0  0  0  0  0  0  0  0  0  # atno 10718 bound_to 10713
  154.7444  135.3076  154.8672 H   0  0  0  0  0  0  0  0  0  0  0  0  # atno 10763 bound_to 10752
  153.9477  135.6767  153.4748 H   0  0  0  0  0  0  0  0  0  0  0  0  # atno 10764 bound_to 10752
  153.1041  135.4898  154.8845 H   0  0  0  0  0  0  0  0  0  0  0  0  # atno 10765 bound_to 10752
  141.1616  133.7513  156.9312 H   0  0  0  0  0  0  0  0  0  0  0  0  # atno 11005 bound_to 11000
  146.3010  140.3999  142.8704 LP  0  0  0  0  0  0  0  0  0  0  0  0  # atno 17320 bound_to 7965
  144.8795  140.7381  143.5995 LP  0  0  0  0  0  0  0  0  0  0  0  0  # atno 17321 bound_to 7965
  139.6299  144.0741  152.2467 LP  0  0  0  0  0  0  0  0  0  0  0  0  # atno 17342 bound_to 10162
  140.0212  144.6151  150.7565 LP  0  0  0  0  0  0  0  0  0  0  0  0  # atno 17343 bound_to 10162
  157.5045  130.7900  149.7639 LP  0  0  0  0  0  0  0  0  0  0  0  0  # atno 17370 bound_to 10713
  156.0013  130.3878  150.2593 LP  0  0  0  0  0  0  0  0  0  0  0  0  # atno 17371 bound_to 10713
  140.1385  134.9309  157.2435 LP  0  0  0  0  0  0  0  0  0  0  0  0  # atno 17394 bound_to 11000
  140.2865  134.3289  155.7327 LP  0  0  0  0  0  0  0  0  0  0  0  0  # atno 17395 bound_to 11000

$$$$
