AV-unprocessed.smi:53|AV-procd|sdf|518|dock8
  -GOLD-   2262016393D 1   1.00000     0.00000
 Structure written by MMmdl.
 30 31  0  0  0  0  0  0  0  0  1 V2000
  156.2207  139.0098  159.9270 N   0  0  0  0  0  0  0  0  0  0  0  0
  155.1546  139.8112  159.7929 C   0  0  0  0  0  0  0  0  0  0  0  0
  154.9843  140.9515  160.6634 C   0  0  0  0  0  0  0  0  0  0  0  0
  153.8861  141.7137  160.4653 C   0  0  0  0  0  0  0  0  0  0  0  0
  152.9618  141.4400  159.4621 N   0  0  0  0  0  0  0  0  0  0  0  0
  151.7070  142.2741  159.2539 C   0  0  1  0  0  0  0  0  0  0  0  0
  151.7081  143.3506  160.1448 O   0  0  0  0  0  0  0  0  0  0  0  0
  152.2441  144.5017  159.5006 C   0  0  2  0  0  0  0  0  0  0  0  0
  151.9242  145.7836  160.2885 C   0  0  0  0  0  0  0  0  0  0  0  0
  150.5418  145.8428  160.5685 O   0  0  0  0  0  0  0  0  0  0  0  0
  151.6169  144.3972  158.1075 C   0  0  2  0  0  0  0  0  0  0  0  0
  150.2937  144.9109  158.1146 O   0  0  0  0  0  0  0  0  0  0  0  0
  151.6692  142.8925  157.8354 C   0  0  2  0  0  0  0  0  0  0  0  0
  150.5742  142.4479  157.0553 O   0  0  0  0  0  0  0  0  0  0  0  0
  153.1447  140.2958  158.6470 C   0  0  0  0  0  0  0  0  0  0  0  0
  152.3306  139.9828  157.7795 O   0  0  0  0  0  0  0  0  0  0  0  0
  154.2645  139.5377  158.8596 N   0  0  0  0  0  0  0  0  0  0  0  0
  150.8761  141.6045  159.4848 H   0  0  0  0  0  0  0  0  0  0  0  0
  153.3248  144.3918  159.3933 H   0  0  0  0  0  0  0  0  0  0  0  0
  152.1901  144.9570  157.3679 H   0  0  0  0  0  0  0  0  0  0  0  0
  152.5968  142.6584  157.3110 H   0  0  0  0  0  0  0  0  0  0  0  0
  156.3348  138.2110  159.3203 H   0  0  0  0  0  0  0  0  0  0  0  0
  156.9122  139.2106  160.6352 H   0  0  0  0  0  0  0  0  0  0  0  0
  155.6821  141.2101  161.4469 H   0  0  0  0  0  0  0  0  0  0  0  0
  153.7566  142.5563  161.1273 H   0  0  0  0  0  0  0  0  0  0  0  0
  152.4512  145.7800  161.2430 H   0  0  0  0  0  0  0  0  0  0  0  0
  152.2376  146.6755  159.7451 H   0  0  0  0  0  0  0  0  0  0  0  0
  150.0840  145.3157  159.9315 H   0  0  0  0  0  0  0  0  0  0  0  0
  149.7778  144.4092  157.5018 H   0  0  0  0  0  0  0  0  0  0  0  0
  149.9762  143.1710  156.9431 H   0  0  0  0  0  0  0  0  0  0  0  0
  1  2  1  0  0  0  0
  1 22  1  0  0  0  0
  1 23  1  0  0  0  0
  2 17  2  0  0  0  0
  2  3  1  0  0  0  0
  3  4  2  0  0  0  0
  3 24  1  0  0  0  0
  4  5  1  0  0  0  0
  4 25  1  0  0  0  0
  5  6  1  0  0  0  0
  5 15  1  0  0  0  0
  6 18  1  0  0  0  0
  6 13  1  0  0  0  0
  6  7  1  0  0  0  0
  7  8  1  0  0  0  0
  8 19  1  0  0  0  0
  8  9  1  0  0  0  0
  8 11  1  0  0  0  0
  9 10  1  0  0  0  0
  9 26  1  0  0  0  0
  9 27  1  0  0  0  0
 10 28  1  0  0  0  0
 11 20  1  0  0  0  0
 11 12  1  0  0  0  0
 11 13  1  0  0  0  0
 12 29  1  0  0  0  0
 13 21  1  0  0  0  0
 13 14  1  0  0  0  0
 14 30  1  0  0  0  0
 15 16  2  0  0  0  0
 15 17  1  0  0  0  0
M  END
> <s_m_source_file>
AV-unprocessed.smi

> <i_m_source_file_index>
53

> <i_lp_mmshare_version>
43012

> <i_f3d_flags>
0

> <s_epik_input>
W05IMl1jMVtjSF1bY0hdbihjKD1PKW4xKVtDQEBIXTJPW0NASF0oW0NIMl1bT0hdKVtDQEBIXShbT0hdKVtDQEBIXTJbT0hd

> <s_epik_cmdline>
J2VwaWtfcHl0aG9uJywgJy1waCcsICc3LjAnLCAnLXRuJywgJzgnLCAnLW1hJywgJzIwMCcsICctbWV0YWxfYmluZGluZycsICctaW1hZScsICc8aW5maWxlLm1hZT4nLCAnLW9tYWUnLCAnPG91dGZpbGUubWFlPic=

> <r_lp_tautomer_probability>
0.99996

> <r_epik_Ionization_Penalty>
0.00069087

> <r_epik_Ionization_Penalty_Charging>
2.61959e-08

> <r_epik_Ionization_Penalty_Neutral>
0.000690844

> <r_epik_State_Penalty>
1.15523e-05

> <r_epik_Charging_Adjusted_Penalty>
1.15785e-05

> <i_epik_Tot_Q>
0

> <i_epik_Tot_abs_Q>
0

> <r_epik_Metal_State_Penalty>
-0

> <b_epik_Metal_Only>
0

> <s_epik_Chemistry_Notes>
This compound contains an acetal/aminal-like group ( X-CH(R)-Y where X, Y are N, S, or O) that may be acid/base labile, releasing an aldehyde.

> <s_lp_Force_Field>
OPLS_2005

> <r_lp_Energy>
34.5248

> <b_lp_Chiralities_Consistent>
1

> <s_lp_Variant>
AV-unprocessed.smi:53-6

> <Gold.Version>
5.8.1

> <Gold.Id.Protein>
6NUR|6NUR_protein|mol2

> <Gold.PLP.Fitness>
42.8887

> <Gold.PLP.PLP>
-34.8922

> <Gold.PLP.part.hbond>
-6.0000

> <Gold.PLP.part.metal>
0.0000

> <Gold.PLP.part.buried>
-2.2426

> <Gold.PLP.part.nonpolar>
-26.0233

> <Gold.PLP.part.repulsive>
0.0934

> <Gold.PLP.ligand.clash>
0.0000

> <Gold.PLP.ligand.torsion>
0.0358

> <Gold.PLP.Chemscore.Hbond>
2.6796

> <Gold.PLP.Chemscore.CHOScore>
0.0000

> <Gold.PLP.Chemscore.Metal>
0.0000

> <Gold.Chemscore.Hbonds>
donor molecule, donor type, donor heavy atom, donor atom, acceptor molecule, acceptor atom, score
      L1  H    12    29       P1  8028  0.61
      L1  H    14    30       P1  8028  0.37
      P1  H  7997  8009       L1    17  0.75

> <Gold.PLP.Chemscore.Internal.Correction>
0.0293

> <Gold.Rescore>
     Score         DG    S(hbond)    S(metal)    S(lipo)     H(rot)  DE(clash)    DE(int)     intcor
      4.35      -7.35       1.10        0.00      65.64       3.71       1.88       1.12       ----

> <Gold.Chemscore.Fitness>
4.3467

> <Gold.Chemscore.DG>
-7.3524

> <Gold.Chemscore.ZeroCoef>
-5.4800

> <Gold.Chemscore.Hbond>
1.1046

> <Gold.Chemscore.Metal>
0.0000

> <Gold.Chemscore.Lipo>
65.6368

> <Gold.Chemscore.Internal_Hbond>
0.0000

> <Gold.Chemscore.DEClash>
1.8828

> <Gold.Chemscore.DEInternal>
1.1229

> <Gold.Chemscore.Rot>
3.7095

> <Gold.Chemscore.Internal.Correction>
   9.000000E+99

> <Gold.Chemscore.Hbonds>
donor molecule, donor type, donor heavy atom, donor atom, acceptor molecule, acceptor atom, score
      L1  H    12    29       P1  8028  0.10
      L1  H    14    30       P1  8028  0.36
      P1  H  7997  8009       L1    17  0.04

> <Gold.Chemscore.Hbond.Weighted>
-3.6893

> <Gold.Chemscore.Metal.Weighted>
-0.0000

> <Gold.Chemscore.Lipo.Weighted>
-7.6795

> <Gold.Chemscore.Internal_Hbond.Weighted>
0.0000

> <Gold.Chemscore.DEClash.Weighted>
1.8828

> <Gold.Chemscore.DEInternal.Weighted>
1.1229

> <Gold.Chemscore.Rot.Weighted>
9.4964

> <Gold.Chemscore.Internal.Correction.Weighted>
   9.000000E+99

> <Gold.Protein.RotatedTorsions>
[ 6907 6896 6895 6894 ] final  -34.97 input  -60.11 | X-H torsion
[ 7974 7965 7964 7962 ] final  162.88 input  175.53 | X-H torsion
[ 8008 7997 7996 7995 ] final  122.10 input   59.86 | X-H torsion
[ 10167 10162 10161 10158 ] final -145.05 input  -65.29 | X-H torsion
[ 10718 10713 10712 10709 ] final  -19.43 input   66.30 | X-H torsion
[ 10763 10752 10751 10750 ] final   -3.88 input  -60.55 | X-H torsion
[ 11005 11000 10999 10996 ] final  154.95 input  -57.11 | X-H torsion

> <Gold.Protein.ActiveResidues>
 VAL166  LYS551  ARG553  GLY616  TRP617  ASP618  TYR619  PRO620  LYS621  CYS622 
 ASP623  PHE694  ASN695  SER759  ASP760  ASP761  ALA762  ILE779  LEU786  VAL792 
 PHE793  MET794  SER795  GLU796  ALA797  LYS798  CYS799  TRP800  GLU811  SER814 

> <Gold.Protein.RotatedAtoms>
  151.0458  134.9639  159.8185 H   0  0  0  0  0  0  0  0  0  0  0  0  # atno 6907 bound_to 6896
  152.5372  134.2600  159.8941 H   0  0  0  0  0  0  0  0  0  0  0  0  # atno 6908 bound_to 6896
  151.2614  133.4257  159.2650 H   0  0  0  0  0  0  0  0  0  0  0  0  # atno 6909 bound_to 6896
  144.7615  139.8103  143.6330 H   0  0  0  0  0  0  0  0  0  0  0  0  # atno 7974 bound_to 7965
  156.2714  140.2793  156.1414 H   0  0  0  0  0  0  0  0  0  0  0  0  # atno 8008 bound_to 7997
  155.0950  140.0389  157.2697 H   0  0  0  0  0  0  0  0  0  0  0  0  # atno 8009 bound_to 7997
  154.6860  140.2619  155.6866 H   0  0  0  0  0  0  0  0  0  0  0  0  # atno 8010 bound_to 7997
  139.7842  143.8058  152.2642 H   0  0  0  0  0  0  0  0  0  0  0  0  # atno 10167 bound_to 10162
  156.5457  130.4689  149.6476 H   0  0  0  0  0  0  0  0  0  0  0  0  # atno 10718 bound_to 10713
  153.3773  135.6997  153.6592 H   0  0  0  0  0  0  0  0  0  0  0  0  # atno 10763 bound_to 10752
  153.5218  135.3610  155.2636 H   0  0  0  0  0  0  0  0  0  0  0  0  # atno 10764 bound_to 10752
  154.8688  135.4159  154.3063 H   0  0  0  0  0  0  0  0  0  0  0  0  # atno 10765 bound_to 10752
  140.1536  134.8658  157.2486 H   0  0  0  0  0  0  0  0  0  0  0  0  # atno 11005 bound_to 11000
  146.1683  139.4824  142.9944 LP  0  0  0  0  0  0  0  0  0  0  0  0  # atno 17320 bound_to 7965
  145.6603  141.0242  143.1712 LP  0  0  0  0  0  0  0  0  0  0  0  0  # atno 17321 bound_to 7965
  139.8130  144.7328  150.9673 LP  0  0  0  0  0  0  0  0  0  0  0  0  # atno 17342 bound_to 10162
  140.7819  143.4233  151.0808 LP  0  0  0  0  0  0  0  0  0  0  0  0  # atno 17343 bound_to 10162
  156.2930  130.7135  151.1988 LP  0  0  0  0  0  0  0  0  0  0  0  0  # atno 17370 bound_to 10713
  157.7397  131.0526  150.5215 LP  0  0  0  0  0  0  0  0  0  0  0  0  # atno 17371 bound_to 10713
  140.2574  134.3611  155.7419 LP  0  0  0  0  0  0  0  0  0  0  0  0  # atno 17394 bound_to 11000
  141.2202  133.7350  156.9028 LP  0  0  0  0  0  0  0  0  0  0  0  0  # atno 17395 bound_to 11000

$$$$
