AV-unprocessed.smi:226|AV-procd|sdf|1725|dock6
  -GOLD-   2262020213D 1   1.00000     0.00000
 Structure written by MMmdl.
 54 58  0  0  0  0  0  0  0  0  1 V2000
  150.2548  140.8617  154.9163 O   0  0  0  0  0  0  0  0  0  0  0  0
  149.3841  139.9901  154.9095 C   0  0  0  0  0  0  0  0  0  0  0  0
  149.6426  138.6916  154.6983 N   0  0  0  0  0  0  0  0  0  0  0  0
  150.9337  138.1286  154.4723 C   0  0  0  0  0  0  0  0  0  0  0  0
  152.0910  138.6713  155.2824 C   0  0  0  0  0  0  0  0  0  0  0  0
  151.9766  139.0112  153.8219 C   0  0  0  0  0  0  0  0  0  0  0  0
  147.9055  140.3504  155.1440 C   0  0  2  0  0  0  0  0  0  0  0  0
  147.6522  140.7897  156.5968 C   0  0  0  0  0  0  0  0  0  0  0  0
  147.2854  139.4995  157.3280 C   0  0  0  0  0  0  0  0  0  0  0  0
  146.5249  138.7048  156.2671 C   0  0  0  0  0  0  0  0  0  0  0  0
  147.0214  139.1956  154.9851 N   0  0  0  0  0  0  0  0  0  0  0  0
  146.6215  138.6665  153.7950 C   0  0  0  0  0  0  0  0  0  0  0  0
  146.7883  139.4245  152.6786 N   0  0  0  0  0  0  0  0  0  0  0  0
  146.4180  138.9696  151.4795 C   0  0  0  0  0  0  0  0  0  0  0  0
  145.8629  137.7988  151.1691 N   0  0  0  0  0  0  0  0  0  0  0  0
  145.6876  137.0264  152.2783 C   0  0  0  0  0  0  0  0  0  0  0  0
  146.0411  137.3724  153.6163 C   0  0  0  0  0  0  0  0  0  0  0  0
  145.7256  136.3122  154.4607 N   0  0  0  0  0  0  0  0  0  0  0  0
  145.2205  135.4026  153.6746 C   0  0  0  0  0  0  0  0  0  0  0  0
  145.1328  135.7603  152.3500 N   0  0  0  0  0  0  0  0  0  0  0  0
  144.6603  134.9455  151.2685 C   0  0  0  0  0  0  0  0  0  0  0  0
  144.3496  133.4608  151.4780 C   0  0  0  0  0  0  0  0  0  0  0  0
  144.8850  133.1352  150.0662 C   0  0  0  0  0  0  0  0  0  0  0  0
  145.8367  131.9312  149.9915 C   0  0  0  0  0  0  0  0  0  0  0  0
  146.8765  132.0363  150.9429 O   0  0  0  0  0  0  0  0  0  0  0  0
  143.8423  132.9599  148.9394 C   0  0  0  0  0  0  0  0  0  0  0  0
  142.8591  131.9878  149.2328 O   0  0  0  0  0  0  0  0  0  0  0  0
  145.5941  134.5066  150.1356 C   0  0  0  0  0  0  0  0  0  0  0  0
  148.8635  138.0493  154.7105 H   0  0  0  0  0  0  0  0  0  0  0  0
  150.9813  137.0698  154.2211 H   0  0  0  0  0  0  0  0  0  0  0  0
  151.8839  139.4625  156.0004 H   0  0  0  0  0  0  0  0  0  0  0  0
  152.8698  137.9699  155.5754 H   0  0  0  0  0  0  0  0  0  0  0  0
  152.6779  138.5368  153.1386 H   0  0  0  0  0  0  0  0  0  0  0  0
  151.6922  140.0297  153.5639 H   0  0  0  0  0  0  0  0  0  0  0  0
  147.6083  141.1591  154.4755 H   0  0  0  0  0  0  0  0  0  0  0  0
  148.5013  141.3004  157.0536 H   0  0  0  0  0  0  0  0  0  0  0  0
  146.8060  141.4776  156.6270 H   0  0  0  0  0  0  0  0  0  0  0  0
  148.1937  138.9661  157.6119 H   0  0  0  0  0  0  0  0  0  0  0  0
  146.6994  139.6712  158.2313 H   0  0  0  0  0  0  0  0  0  0  0  0
  146.6887  137.6330  156.3873 H   0  0  0  0  0  0  0  0  0  0  0  0
  145.4539  138.9002  156.3357 H   0  0  0  0  0  0  0  0  0  0  0  0
  146.5898  139.6406  150.6508 H   0  0  0  0  0  0  0  0  0  0  0  0
  144.8914  134.4429  154.0457 H   0  0  0  0  0  0  0  0  0  0  0  0
  143.7887  135.4650  150.8687 H   0  0  0  0  0  0  0  0  0  0  0  0
  144.9550  133.0210  152.2725 H   0  0  0  0  0  0  0  0  0  0  0  0
  143.2921  133.2411  151.6288 H   0  0  0  0  0  0  0  0  0  0  0  0
  145.3029  130.9941  150.1527 H   0  0  0  0  0  0  0  0  0  0  0  0
  146.2965  131.8578  149.0054 H   0  0  0  0  0  0  0  0  0  0  0  0
  147.6016  131.5031  150.6539 H   0  0  0  0  0  0  0  0  0  0  0  0
  143.3268  133.9003  148.7416 H   0  0  0  0  0  0  0  0  0  0  0  0
  144.3218  132.6648  148.0055 H   0  0  0  0  0  0  0  0  0  0  0  0
  142.0594  132.4316  149.4710 H   0  0  0  0  0  0  0  0  0  0  0  0
  145.5152  135.1105  149.2312 H   0  0  0  0  0  0  0  0  0  0  0  0
  146.6333  134.4307  150.4602 H   0  0  0  0  0  0  0  0  0  0  0  0
  1  2  2  0  0  0  0
  2  3  1  0  0  0  0
  2  7  1  0  0  0  0
  3  4  1  0  0  0  0
  3 29  1  0  0  0  0
  4  6  1  0  0  0  0
  4  5  1  0  0  0  0
  4 30  1  0  0  0  0
  5  6  1  0  0  0  0
  5 31  1  0  0  0  0
  5 32  1  0  0  0  0
  6 33  1  0  0  0  0
  6 34  1  0  0  0  0
  7 11  1  0  0  0  0
  7  8  1  0  0  0  0
  7 35  1  0  0  0  0
  8  9  1  0  0  0  0
  8 36  1  0  0  0  0
  8 37  1  0  0  0  0
  9 10  1  0  0  0  0
  9 38  1  0  0  0  0
  9 39  1  0  0  0  0
 10 11  1  0  0  0  0
 10 40  1  0  0  0  0
 10 41  1  0  0  0  0
 11 12  1  0  0  0  0
 12 17  1  0  0  0  0
 12 13  2  0  0  0  0
 13 14  1  0  0  0  0
 14 15  2  0  0  0  0
 14 42  1  0  0  0  0
 15 16  1  0  0  0  0
 16 20  1  0  0  0  0
 16 17  2  0  0  0  0
 17 18  1  0  0  0  0
 18 19  2  0  0  0  0
 19 20  1  0  0  0  0
 19 43  1  0  0  0  0
 20 21  1  0  0  0  0
 21 28  1  0  0  0  0
 21 22  1  0  0  0  0
 21 44  1  0  0  0  0
 22 23  1  0  0  0  0
 22 45  1  0  0  0  0
 22 46  1  0  0  0  0
 23 24  1  0  0  0  0
 23 26  1  0  0  0  0
 23 28  1  0  0  0  0
 24 25  1  0  0  0  0
 24 47  1  0  0  0  0
 24 48  1  0  0  0  0
 25 49  1  0  0  0  0
 26 27  1  0  0  0  0
 26 50  1  0  0  0  0
 26 51  1  0  0  0  0
 27 52  1  0  0  0  0
 28 53  1  0  0  0  0
 28 54  1  0  0  0  0
M  END
> <s_m_source_file>
AV-unprocessed.smi

> <i_m_source_file_index>
226

> <i_lp_mmshare_version>
43012

> <i_f3d_flags>
0

> <s_epik_input>
W0NIMl0xW0NIMl1bQ0hdMVtOSF1DKD1PKVtDQEBIXTJbQ0gyXVtDSDJdW0NIMl1OMmMobltjSF1uMyljKGMzNCluW2NIXW40W0NIXShbQ0gyXTUpW0NIMl1DNShbQ0gyXVtPSF0pW0NIMl1bT0hd

> <s_epik_cmdline>
J2VwaWtfcHl0aG9uJywgJy1waCcsICc3LjAnLCAnLXRuJywgJzgnLCAnLW1hJywgJzIwMCcsICctbWV0YWxfYmluZGluZycsICctaW1hZScsICc8aW5maWxlLm1hZT4nLCAnLW9tYWUnLCAnPG91dGZpbGUubWFlPic=

> <r_lp_tautomer_probability>
1

> <r_epik_Ionization_Penalty>
0.000818715

> <r_epik_Ionization_Penalty_Charging>
0

> <r_epik_Ionization_Penalty_Neutral>
0.000818715

> <r_epik_State_Penalty>
0.000426447

> <r_epik_Charging_Adjusted_Penalty>
0.000426447

> <i_epik_Tot_Q>
0

> <i_epik_Tot_abs_Q>
0

> <r_epik_Metal_State_Penalty>
-0

> <b_epik_Metal_Only>
0

> <s_lp_Force_Field>
OPLS_2005

> <r_lp_Energy>
61.6174

> <b_lp_Chiralities_Consistent>
1

> <s_lp_Variant>
AV-unprocessed.smi:226-1

> <Gold.Version>
5.8.1

> <Gold.Id.Protein>
6NUR|6NUR_protein|mol2

> <Gold.PLP.Fitness>
48.8539

> <Gold.PLP.PLP>
-37.2308

> <Gold.PLP.part.hbond>
-4.9340

> <Gold.PLP.part.metal>
0.0000

> <Gold.PLP.part.buried>
-4.5024

> <Gold.PLP.part.nonpolar>
-30.9981

> <Gold.PLP.part.repulsive>
3.8569

> <Gold.PLP.ligand.clash>
0.0000

> <Gold.PLP.ligand.torsion>
0.9798

> <Gold.PLP.Chemscore.Hbond>
3.9263

> <Gold.PLP.Chemscore.CHOScore>
0.4246

> <Gold.PLP.Chemscore.Metal>
0.0000

> <Gold.Chemscore.Hbonds>
donor molecule, donor type, donor heavy atom, donor atom, acceptor molecule, acceptor atom, score
      L1  H    25    49       P1 10747  1.00
      L1  H    27    52       P1 10186  0.44
      P1  H  7989  7998       L1     1  0.78
      P1  H 10785 10796       L1    27  1.00

> <Gold.PLP.Chemscore.Internal.Correction>
0.5301

> <Gold.Rescore>
     Score         DG    S(hbond)    S(metal)    S(lipo)     H(rot)  DE(clash)    DE(int)     intcor
      9.78     -17.44       3.52        0.00      78.88       3.52       3.80       3.86       ----

> <Gold.Chemscore.Fitness>
9.7781

> <Gold.Chemscore.DG>
-17.4394

> <Gold.Chemscore.ZeroCoef>
-5.4800

> <Gold.Chemscore.Hbond>
3.5189

> <Gold.Chemscore.Metal>
0.0000

> <Gold.Chemscore.Lipo>
78.8795

> <Gold.Chemscore.Internal_Hbond>
0.0000

> <Gold.Chemscore.DEClash>
3.8001

> <Gold.Chemscore.DEInternal>
3.8613

> <Gold.Chemscore.Rot>
3.5244

> <Gold.Chemscore.Internal.Correction>
   9.000000E+99

> <Gold.Chemscore.Hbonds>
donor molecule, donor type, donor heavy atom, donor atom, acceptor molecule, acceptor atom, score
      L1  H    25    49       P1 10747  0.97
      L1  H    27    52       P1 10186  0.43
      P1  H  7989  7998       L1     1  0.75
      P1  H 10785 10796       L1    27  0.96

> <Gold.Chemscore.Hbond.Weighted>
-11.7530

> <Gold.Chemscore.Metal.Weighted>
-0.0000

> <Gold.Chemscore.Lipo.Weighted>
-9.2289

> <Gold.Chemscore.Internal_Hbond.Weighted>
0.0000

> <Gold.Chemscore.DEClash.Weighted>
3.8001

> <Gold.Chemscore.DEInternal.Weighted>
3.8613

> <Gold.Chemscore.Rot.Weighted>
9.0225

> <Gold.Chemscore.Internal.Correction.Weighted>
   9.000000E+99

> <Gold.Protein.RotatedTorsions>
[ 6907 6896 6895 6894 ] final  -82.07 input  -60.11 | X-H torsion
[ 7974 7965 7964 7962 ] final  154.55 input  175.53 | X-H torsion
[ 8008 7997 7996 7995 ] final -138.17 input   59.86 | X-H torsion
[ 10167 10162 10161 10158 ] final  -51.22 input  -65.29 | X-H torsion
[ 10718 10713 10712 10709 ] final -101.20 input   66.30 | X-H torsion
[ 10763 10752 10751 10750 ] final -113.92 input  -60.55 | X-H torsion
[ 11005 11000 10999 10996 ] final  -68.50 input  -57.11 | X-H torsion

> <Gold.Protein.ActiveResidues>
 VAL166  LYS551  ARG553  GLY616  TRP617  ASP618  TYR619  PRO620  LYS621  CYS622 
 ASP623  PHE694  ASN695  SER759  ASP760  ASP761  ALA762  ILE779  LEU786  VAL792 
 PHE793  MET794  SER795  GLU796  ALA797  LYS798  CYS799  TRP800  GLU811  SER814 

> <Gold.Protein.RotatedAtoms>
  150.6902  134.3721  159.4996 H   0  0  0  0  0  0  0  0  0  0  0  0  # atno 6907 bound_to 6896
  152.1536  134.8966  160.0555 H   0  0  0  0  0  0  0  0  0  0  0  0  # atno 6908 bound_to 6896
  152.0054  133.3806  159.4235 H   0  0  0  0  0  0  0  0  0  0  0  0  # atno 6909 bound_to 6896
  144.8081  139.6949  143.6153 H   0  0  0  0  0  0  0  0  0  0  0  0  # atno 7974 bound_to 7965
  155.4240  140.0520  157.3023 H   0  0  0  0  0  0  0  0  0  0  0  0  # atno 8008 bound_to 7997
  154.4890  140.2112  155.9550 H   0  0  0  0  0  0  0  0  0  0  0  0  # atno 8009 bound_to 7997
  156.1315  140.3171  155.8361 H   0  0  0  0  0  0  0  0  0  0  0  0  # atno 8010 bound_to 7997
  140.6599  143.2628  151.4472 H   0  0  0  0  0  0  0  0  0  0  0  0  # atno 10167 bound_to 10162
  156.0187  130.5362  150.6928 H   0  0  0  0  0  0  0  0  0  0  0  0  # atno 10718 bound_to 10713
  154.8418  135.4436  154.1425 H   0  0  0  0  0  0  0  0  0  0  0  0  # atno 10763 bound_to 10752
  153.2607  135.6936  153.7588 H   0  0  0  0  0  0  0  0  0  0  0  0  # atno 10764 bound_to 10752
  153.6865  135.3394  155.3167 H   0  0  0  0  0  0  0  0  0  0  0  0  # atno 10765 bound_to 10752
  141.1533  133.6742  156.6455 H   0  0  0  0  0  0  0  0  0  0  0  0  # atno 11005 bound_to 11000
  146.2376  139.5936  142.9513 LP  0  0  0  0  0  0  0  0  0  0  0  0  # atno 17320 bound_to 7965
  145.5389  141.0422  143.2341 LP  0  0  0  0  0  0  0  0  0  0  0  0  # atno 17321 bound_to 7965
  139.5830  144.1666  152.1993 LP  0  0  0  0  0  0  0  0  0  0  0  0  # atno 17342 bound_to 10162
  140.0997  144.5550  150.6997 LP  0  0  0  0  0  0  0  0  0  0  0  0  # atno 17343 bound_to 10162
  157.4605  131.0882  151.0750 LP  0  0  0  0  0  0  0  0  0  0  0  0  # atno 17370 bound_to 10713
  157.1239  130.6073  149.5512 LP  0  0  0  0  0  0  0  0  0  0  0  0  # atno 17371 bound_to 10713
  140.3360  134.7889  157.4362 LP  0  0  0  0  0  0  0  0  0  0  0  0  # atno 17394 bound_to 11000
  140.0977  134.5515  155.8382 LP  0  0  0  0  0  0  0  0  0  0  0  0  # atno 17395 bound_to 11000

$$$$
