AV-unprocessed.smi:1403|AV-procd|sdf|5699|dock7
  -GOLD-   22720 5333D 1   1.00000     0.00000
 Structure written by MMmdl.
 36 37  0  0  0  0  0  0  0  0  1 V2000
  151.3166  136.9449  155.4941 C   0  0  0  0  0  0  0  0  0  0  0  0
  151.4515  138.4742  155.4640 C   0  0  2  0  0  0  0  0  0  0  0  0
  151.2138  138.9925  156.8102 N   0  0  0  0  0  0  0  0  0  0  0  0
  152.1222  139.0822  157.7945 C   0  0  0  0  0  0  0  0  0  0  0  0
  153.2994  138.7449  157.6630 O   0  0  0  0  0  0  0  0  0  0  0  0
  151.6213  139.6739  159.1196 C   0  0  0  0  0  0  0  0  0  0  0  0
  151.5585  141.1426  159.1056 N   0  0  0  0  0  0  0  0  0  0  0  0
  150.7253  141.8003  158.2117 C   0  0  0  0  0  0  0  0  0  0  0  0
  150.6259  143.1488  158.1393 C   0  0  0  0  0  0  0  0  0  0  0  0
  151.4158  143.9964  159.0259 C   0  0  0  0  0  0  0  0  0  0  0  0
  151.3940  145.2250  159.0380 O   0  0  0  0  0  0  0  0  0  0  0  0
  152.2434  143.2976  159.9086 N   0  0  0  0  0  0  0  0  0  0  0  0
  152.3522  141.9083  159.9872 C   0  0  0  0  0  0  0  0  0  0  0  0
  153.1172  141.3928  160.8014 O   0  0  0  0  0  0  0  0  0  0  0  0
  150.4741  139.1181  154.4591 C   0  0  1  0  0  0  0  0  0  0  0  0
  149.0214  138.6589  154.5850 C   0  0  0  0  0  0  0  0  0  0  0  0
  148.2854  139.7819  153.8902 C   0  0  0  0  0  0  0  0  0  0  0  0
  149.1097  141.0083  154.2799 C   0  0  0  0  0  0  0  0  0  0  0  0
  150.3955  140.5251  154.6634 O   0  0  0  0  0  0  0  0  0  0  0  0
  152.8114  143.8427  160.5407 H   0  0  0  0  0  0  0  0  0  0  0  0
  151.5249  136.5115  154.5157 H   0  0  0  0  0  0  0  0  0  0  0  0
  150.3113  136.6392  155.7858 H   0  0  0  0  0  0  0  0  0  0  0  0
  152.0183  136.5033  156.2024 H   0  0  0  0  0  0  0  0  0  0  0  0
  152.4711  138.7067  155.1513 H   0  0  0  0  0  0  0  0  0  0  0  0
  150.2749  139.3043  157.0115 H   0  0  0  0  0  0  0  0  0  0  0  0
  150.6350  139.2550  159.3235 H   0  0  0  0  0  0  0  0  0  0  0  0
  152.2536  139.3336  159.9423 H   0  0  0  0  0  0  0  0  0  0  0  0
  150.1243  141.2129  157.5323 H   0  0  0  0  0  0  0  0  0  0  0  0
  149.9590  143.6030  157.4209 H   0  0  0  0  0  0  0  0  0  0  0  0
  150.8160  138.9447  153.4369 H   0  0  0  0  0  0  0  0  0  0  0  0
  148.8388  137.6853  154.1296 H   0  0  0  0  0  0  0  0  0  0  0  0
  148.7244  138.6090  155.6337 H   0  0  0  0  0  0  0  0  0  0  0  0
  148.3215  139.6358  152.8100 H   0  0  0  0  0  0  0  0  0  0  0  0
  147.2395  139.8583  154.1890 H   0  0  0  0  0  0  0  0  0  0  0  0
  149.1886  141.7195  153.4572 H   0  0  0  0  0  0  0  0  0  0  0  0
  148.6635  141.5237  155.1309 H   0  0  0  0  0  0  0  0  0  0  0  0
  1  2  1  0  0  0  0
  1 21  1  0  0  0  0
  1 22  1  0  0  0  0
  1 23  1  0  0  0  0
  2  3  1  0  0  0  0
  2 15  1  0  0  0  0
  2 24  1  0  0  0  0
  3  4  1  0  0  0  0
  3 25  1  0  0  0  0
  4  5  2  0  0  0  0
  4  6  1  0  0  0  0
  6  7  1  0  0  0  0
  6 26  1  0  0  0  0
  6 27  1  0  0  0  0
  7 13  1  0  0  0  0
  7  8  1  0  0  0  0
  8  9  2  0  0  0  0
  8 28  1  0  0  0  0
  9 10  1  0  0  0  0
  9 29  1  0  0  0  0
 10 11  2  0  0  0  0
 10 12  1  0  0  0  0
 12 20  1  0  0  0  0
 12 13  1  0  0  0  0
 13 14  2  0  0  0  0
 15 19  1  0  0  0  0
 15 16  1  0  0  0  0
 15 30  1  0  0  0  0
 16 17  1  0  0  0  0
 16 31  1  0  0  0  0
 16 32  1  0  0  0  0
 17 18  1  0  0  0  0
 17 33  1  0  0  0  0
 17 34  1  0  0  0  0
 18 19  1  0  0  0  0
 18 35  1  0  0  0  0
 18 36  1  0  0  0  0
M  END
> <s_m_source_file>
AV-unprocessed.smi

> <i_m_source_file_index>
1403

> <i_lp_mmshare_version>
43012

> <i_f3d_flags>
0

> <s_epik_input>
TzFbQ0gyXVtDSDJdW0NIMl1bQ0BIXTFbQ0BIXShbQ0gzXSlbTkhdQyg9TylbQ0gyXW4yW2NIXVtjSF1jKD1PKVtuSF1jMj1P

> <s_epik_cmdline>
J2VwaWtfcHl0aG9uJywgJy1waCcsICc3LjAnLCAnLXRuJywgJzgnLCAnLW1hJywgJzIwMCcsICctbWV0YWxfYmluZGluZycsICctaW1hZScsICc8aW5maWxlLm1hZT4nLCAnLW9tYWUnLCAnPG91dGZpbGUubWFlPic=

> <r_lp_tautomer_probability>
0.999537

> <r_epik_Ionization_Penalty>
0.00331407

> <r_epik_Ionization_Penalty_Charging>
0.00331405

> <r_epik_Ionization_Penalty_Neutral>
2.30132e-08

> <r_epik_State_Penalty>
0.00234266

> <r_epik_Charging_Adjusted_Penalty>
0.00565671

> <i_epik_Tot_Q>
0

> <i_epik_Tot_abs_Q>
0

> <r_epik_Metal_State_Penalty>
0.365604

> <b_epik_Metal_Only>
0

> <s_lp_Force_Field>
OPLS_2005

> <r_lp_Energy>
18.4227

> <b_lp_Chiralities_Consistent>
1

> <s_lp_Variant>
AV-unprocessed.smi:1403-3

> <Gold.Version>
5.8.1

> <Gold.Id.Protein>
6NUR|6NUR_protein|mol2

> <Gold.PLP.Fitness>
39.2958

> <Gold.PLP.PLP>
-34.9057

> <Gold.PLP.part.hbond>
-2.0000

> <Gold.PLP.part.metal>
0.0000

> <Gold.PLP.part.buried>
-5.0092

> <Gold.PLP.part.nonpolar>
-28.0690

> <Gold.PLP.part.repulsive>
0.2406

> <Gold.PLP.ligand.clash>
0.0000

> <Gold.PLP.ligand.torsion>
0.8130

> <Gold.PLP.Chemscore.Hbond>
2.0000

> <Gold.PLP.Chemscore.CHOScore>
0.0000

> <Gold.PLP.Chemscore.Metal>
0.0000

> <Gold.Chemscore.Hbonds>
donor molecule, donor type, donor heavy atom, donor atom, acceptor molecule, acceptor atom, score
      P1  H  7989  7998       L1    19  0.68
      P1  H  7997  8010       L1     5  1.00

> <Gold.PLP.Chemscore.Internal.Correction>
0.0160

> <Gold.Rescore>
     Score         DG    S(hbond)    S(metal)    S(lipo)     H(rot)  DE(clash)    DE(int)     intcor
     10.97     -11.71       1.51        0.00      54.80       2.04       0.12       0.62       ----

> <Gold.Chemscore.Fitness>
10.9681

> <Gold.Chemscore.DG>
-11.7110

> <Gold.Chemscore.ZeroCoef>
-5.4800

> <Gold.Chemscore.Hbond>
1.5090

> <Gold.Chemscore.Metal>
0.0000

> <Gold.Chemscore.Lipo>
54.8038

> <Gold.Chemscore.Internal_Hbond>
0.0000

> <Gold.Chemscore.DEClash>
0.1209

> <Gold.Chemscore.DEInternal>
0.6219

> <Gold.Chemscore.Rot>
2.0395

> <Gold.Chemscore.Internal.Correction>
   9.000000E+99

> <Gold.Chemscore.Hbonds>
donor molecule, donor type, donor heavy atom, donor atom, acceptor molecule, acceptor atom, score
      P1  H  7989  7998       L1    19  0.06
      P1  H  7997  8010       L1     5  0.97

> <Gold.Chemscore.Hbond.Weighted>
-5.0401

> <Gold.Chemscore.Metal.Weighted>
-0.0000

> <Gold.Chemscore.Lipo.Weighted>
-6.4120

> <Gold.Chemscore.Internal_Hbond.Weighted>
0.0000

> <Gold.Chemscore.DEClash.Weighted>
0.1209

> <Gold.Chemscore.DEInternal.Weighted>
0.6219

> <Gold.Chemscore.Rot.Weighted>
5.2211

> <Gold.Chemscore.Internal.Correction.Weighted>
   9.000000E+99

> <Gold.Protein.RotatedTorsions>
[ 6907 6896 6895 6894 ] final   95.56 input  -60.11 | X-H torsion
[ 7974 7965 7964 7962 ] final   47.42 input  175.53 | X-H torsion
[ 8008 7997 7996 7995 ] final   31.72 input   59.86 | X-H torsion
[ 10167 10162 10161 10158 ] final  -20.17 input  -65.29 | X-H torsion
[ 10718 10713 10712 10709 ] final -131.55 input   66.30 | X-H torsion
[ 10763 10752 10751 10750 ] final  -79.72 input  -60.55 | X-H torsion
[ 11005 11000 10999 10996 ] final  101.38 input  -57.11 | X-H torsion

> <Gold.Protein.ActiveResidues>
 VAL166  LYS551  ARG553  GLY616  TRP617  ASP618  TYR619  PRO620  LYS621  CYS622 
 ASP623  PHE694  ASN695  SER759  ASP760  ASP761  ALA762  ILE779  LEU786  VAL792 
 PHE793  MET794  SER795  GLU796  ALA797  LYS798  CYS799  TRP800  GLU811  SER814 

> <Gold.Protein.RotatedAtoms>
  152.5442  134.1022  159.8322 H   0  0  0  0  0  0  0  0  0  0  0  0  # atno 6907 bound_to 6896
  151.1098  133.5174  159.2613 H   0  0  0  0  0  0  0  0  0  0  0  0  # atno 6908 bound_to 6896
  151.1897  135.0406  159.8881 H   0  0  0  0  0  0  0  0  0  0  0  0  # atno 6909 bound_to 6896
  146.0299  139.4751  142.9844 H   0  0  0  0  0  0  0  0  0  0  0  0  # atno 7974 bound_to 7965
  155.1109  140.3239  155.4522 H   0  0  0  0  0  0  0  0  0  0  0  0  # atno 8008 bound_to 7997
  156.2691  140.2044  156.6181 H   0  0  0  0  0  0  0  0  0  0  0  0  # atno 8009 bound_to 7997
  154.6757  140.0531  157.0200 H   0  0  0  0  0  0  0  0  0  0  0  0  # atno 8010 bound_to 7997
  140.7274  143.4748  151.0197 H   0  0  0  0  0  0  0  0  0  0  0  0  # atno 10167 bound_to 10162
  156.2255  130.7005  151.0802 H   0  0  0  0  0  0  0  0  0  0  0  0  # atno 10718 bound_to 10713
  154.5422  135.5686  153.6849 H   0  0  0  0  0  0  0  0  0  0  0  0  # atno 10763 bound_to 10752
  152.9966  135.6230  154.2487 H   0  0  0  0  0  0  0  0  0  0  0  0  # atno 10764 bound_to 10752
  154.2418  135.2862  155.2830 H   0  0  0  0  0  0  0  0  0  0  0  0  # atno 10765 bound_to 10752
  139.8773  134.9181  156.4899 H   0  0  0  0  0  0  0  0  0  0  0  0  # atno 11005 bound_to 11000
  145.7057  141.0122  143.1480 LP  0  0  0  0  0  0  0  0  0  0  0  0  # atno 17320 bound_to 7965
  144.7026  139.8697  143.7440 LP  0  0  0  0  0  0  0  0  0  0  0  0  # atno 17321 bound_to 7965
  139.8443  143.7522  152.3179 LP  0  0  0  0  0  0  0  0  0  0  0  0  # atno 17342 bound_to 10162
  139.7682  144.7485  151.0263 LP  0  0  0  0  0  0  0  0  0  0  0  0  # atno 17343 bound_to 10162
  157.7108  131.0735  150.6506 LP  0  0  0  0  0  0  0  0  0  0  0  0  # atno 17370 bound_to 10713
  156.6571  130.4501  149.5700 LP  0  0  0  0  0  0  0  0  0  0  0  0  # atno 17371 bound_to 10713
  140.8666  133.8019  155.9320 LP  0  0  0  0  0  0  0  0  0  0  0  0  # atno 17394 bound_to 11000
  140.8995  134.2396  157.5049 LP  0  0  0  0  0  0  0  0  0  0  0  0  # atno 17395 bound_to 11000

$$$$
