AV-unprocessed.smi:36|AV-procd|sdf|293|dock6
  -GOLD-   2262016 83D 1   1.00000     0.00000
 Structure written by MMmdl.
 64 67  0  0  0  0  0  0  0  0  1 V2000
  148.2144  136.3755  160.8182 C   0  0  0  0  0  0  0  0  0  0  0  0
  146.8831  136.1586  160.0797 C   0  0  0  0  0  0  0  0  0  0  0  0
  145.7125  136.6080  160.9699 C   0  0  0  0  0  0  0  0  0  0  0  0
  146.8760  136.9626  158.7687 C   0  0  0  0  0  0  0  0  0  0  0  0
  146.6795  134.3034  159.6711 Si  0  0  0  0  0  0  0  0  0  0  0  0
  146.6606  133.2550  161.2568 C   0  0  0  0  0  0  0  0  0  0  0  0
  145.0848  133.9905  158.6862 C   0  0  0  0  0  0  0  0  0  0  0  0
  147.9922  133.8283  158.7118 O   0  0  0  0  0  0  0  0  0  0  0  0
  148.3741  134.4817  157.5174 C   0  0  0  0  0  0  0  0  0  0  0  0
  149.6592  133.8329  156.9634 C   0  0  2  0  0  0  0  0  0  0  0  0
  150.7667  134.6052  157.4340 O   0  0  0  0  0  0  0  0  0  0  0  0
  151.3449  135.3295  156.3872 C   0  0  2  0  0  0  0  0  0  0  0  0
  151.5102  136.7521  156.8085 N   0  0  0  0  0  0  0  0  0  0  0  0
  151.1098  137.8624  156.1585 C   0  0  0  0  0  0  0  0  0  0  0  0
  151.4021  139.0115  156.7636 N   0  0  0  0  0  0  0  0  0  0  0  0
  152.0564  138.5911  157.9172 C   0  0  0  0  0  0  0  0  0  0  0  0
  152.6446  139.3739  159.0261 C   0  0  0  0  0  0  0  0  0  0  0  0
  152.5607  140.6682  158.9632 N   0  0  0  0  0  0  0  0  0  0  0  0
  153.0893  141.4515  159.9816 C   0  0  0  0  0  0  0  0  0  0  0  0
  153.9649  141.1637  160.8026 O   0  0  0  0  0  0  0  0  0  0  0  0
  152.5356  142.8394  160.0099 C   0  0  0  0  0  0  0  0  0  0  0  0
  152.1081  143.4085  161.2287 C   0  0  0  0  0  0  0  0  0  0  0  0
  151.5853  144.7162  161.2530 C   0  0  0  0  0  0  0  0  0  0  0  0
  151.4888  145.4590  160.0606 C   0  0  0  0  0  0  0  0  0  0  0  0
  151.9130  144.8934  158.8425 C   0  0  0  0  0  0  0  0  0  0  0  0
  152.4344  143.5851  158.8163 C   0  0  0  0  0  0  0  0  0  0  0  0
  153.2058  138.5074  159.9737 N   0  0  0  0  0  0  0  0  0  0  0  0
  153.2198  137.1057  159.9024 C   0  0  0  0  0  0  0  0  0  0  0  0
  152.7035  136.4019  158.9304 N   0  0  0  0  0  0  0  0  0  0  0  0
  152.1320  137.2157  157.9626 C   0  0  0  0  0  0  0  0  0  0  0  0
  150.3933  135.2386  155.1991 C   0  0  0  0  0  0  0  0  0  0  0  0
  149.8040  133.8674  155.4327 C   0  0  2  0  0  0  0  0  0  0  0  0
  148.5983  133.6796  154.7197 O   0  0  0  0  0  0  0  0  0  0  0  0
  148.3608  137.4266  161.0692 H   0  0  0  0  0  0  0  0  0  0  0  0
  149.0626  136.0627  160.2090 H   0  0  0  0  0  0  0  0  0  0  0  0
  148.2506  135.8080  161.7487 H   0  0  0  0  0  0  0  0  0  0  0  0
  145.6926  136.0556  161.9095 H   0  0  0  0  0  0  0  0  0  0  0  0
  144.7542  136.4488  160.4742 H   0  0  0  0  0  0  0  0  0  0  0  0
  145.7847  137.6683  161.2150 H   0  0  0  0  0  0  0  0  0  0  0  0
  146.9701  138.0323  158.9589 H   0  0  0  0  0  0  0  0  0  0  0  0
  145.9503  136.8063  158.2135 H   0  0  0  0  0  0  0  0  0  0  0  0
  147.7017  136.6720  158.1187 H   0  0  0  0  0  0  0  0  0  0  0  0
  145.8262  133.5246  161.9038 H   0  0  0  0  0  0  0  0  0  0  0  0
  147.5748  133.3842  161.8354 H   0  0  0  0  0  0  0  0  0  0  0  0
  146.5656  132.1928  161.0323 H   0  0  0  0  0  0  0  0  0  0  0  0
  144.2009  134.2921  159.2477 H   0  0  0  0  0  0  0  0  0  0  0  0
  144.9673  132.9352  158.4410 H   0  0  0  0  0  0  0  0  0  0  0  0
  145.0789  134.5432  157.7471 H   0  0  0  0  0  0  0  0  0  0  0  0
  147.5561  134.3996  156.8016 H   0  0  0  0  0  0  0  0  0  0  0  0
  148.5163  135.5444  157.7137 H   0  0  0  0  0  0  0  0  0  0  0  0
  149.7398  132.8065  157.3203 H   0  0  0  0  0  0  0  0  0  0  0  0
  152.3503  134.9619  156.1780 H   0  0  0  0  0  0  0  0  0  0  0  0
  150.5903  137.8303  155.2121 H   0  0  0  0  0  0  0  0  0  0  0  0
  152.1788  142.8446  162.1476 H   0  0  0  0  0  0  0  0  0  0  0  0
  151.2581  145.1492  162.1866 H   0  0  0  0  0  0  0  0  0  0  0  0
  151.0883  146.4617  160.0801 H   0  0  0  0  0  0  0  0  0  0  0  0
  151.8389  145.4633  157.9280 H   0  0  0  0  0  0  0  0  0  0  0  0
  152.7572  143.1581  157.8775 H   0  0  0  0  0  0  0  0  0  0  0  0
  153.7109  136.6237  160.7486 H   0  0  0  0  0  0  0  0  0  0  0  0
  149.6302  136.0157  155.2717 H   0  0  0  0  0  0  0  0  0  0  0  0
  150.9266  135.3413  154.2536 H   0  0  0  0  0  0  0  0  0  0  0  0
  150.5217  133.1082  155.1178 H   0  0  0  0  0  0  0  0  0  0  0  0
  148.4981  134.3915  154.1063 H   0  0  0  0  0  0  0  0  0  0  0  0
  153.6403  138.9315  160.7807 H   0  0  0  0  0  0  0  0  0  0  0  0
  1  2  1  0  0  0  0
  1 34  1  0  0  0  0
  1 35  1  0  0  0  0
  1 36  1  0  0  0  0
  2  3  1  0  0  0  0
  2  4  1  0  0  0  0
  2  5  1  0  0  0  0
  3 37  1  0  0  0  0
  3 38  1  0  0  0  0
  3 39  1  0  0  0  0
  4 40  1  0  0  0  0
  4 41  1  0  0  0  0
  4 42  1  0  0  0  0
  5  6  1  0  0  0  0
  5  7  1  0  0  0  0
  5  8  1  0  0  0  0
  6 43  1  0  0  0  0
  6 44  1  0  0  0  0
  6 45  1  0  0  0  0
  7 46  1  0  0  0  0
  7 47  1  0  0  0  0
  7 48  1  0  0  0  0
  8  9  1  0  0  0  0
  9 10  1  0  0  0  0
  9 49  1  0  0  0  0
  9 50  1  0  0  0  0
 10 32  1  0  0  0  0
 10 11  1  0  0  0  0
 10 51  1  0  0  0  0
 11 12  1  0  0  0  0
 12 13  1  0  0  0  0
 12 31  1  0  0  0  0
 12 52  1  0  0  0  0
 13 30  1  0  0  0  0
 13 14  1  0  0  0  0
 14 15  2  0  0  0  0
 14 53  1  0  0  0  0
 15 16  1  0  0  0  0
 16 30  2  0  0  0  0
 16 17  1  0  0  0  0
 17 18  2  0  0  0  0
 17 27  1  0  0  0  0
 18 19  1  0  0  0  0
 19 20  2  0  0  0  0
 19 21  1  0  0  0  0
 21 26  1  0  0  0  0
 21 22  2  0  0  0  0
 22 23  1  0  0  0  0
 22 54  1  0  0  0  0
 23 24  2  0  0  0  0
 23 55  1  0  0  0  0
 24 25  1  0  0  0  0
 24 56  1  0  0  0  0
 25 26  2  0  0  0  0
 25 57  1  0  0  0  0
 26 58  1  0  0  0  0
 27 28  1  0  0  0  0
 27 64  1  0  0  0  0
 28 29  2  0  0  0  0
 28 59  1  0  0  0  0
 29 30  1  0  0  0  0
 31 32  1  0  0  0  0
 31 60  1  0  0  0  0
 31 61  1  0  0  0  0
 32 33  1  0  0  0  0
 32 62  1  0  0  0  0
 33 63  1  0  0  0  0
M  END
> <s_m_source_file>
AV-unprocessed.smi

> <i_m_source_file_index>
36

> <i_lp_mmshare_version>
43012

> <i_f3d_flags>
0

> <s_epik_input>
W0NIM11DKFtDSDNdKShbQ0gzXSlbU2ldKFtDSDNdKShbQ0gzXSlPW0NIMl1bQ0BASF0xT1tDQEhdKFtDSDJdW0NASF0xW09IXSluKFtjSF1uMiljKGMyMyluW2NIXW5jM1tOSF1DKD1PKWM0W2NIXVtjSF1bY0hdW2NIXVtjSF00

> <s_epik_cmdline>
J2VwaWtfcHl0aG9uJywgJy1waCcsICc3LjAnLCAnLXRuJywgJzgnLCAnLW1hJywgJzIwMCcsICctbWV0YWxfYmluZGluZycsICctaW1hZScsICc8aW5maWxlLm1hZT4nLCAnLW9tYWUnLCAnPG91dGZpbGUubWFlPic=

> <r_epik_Ionization_Penalty>
0.0850405

> <r_epik_Ionization_Penalty_Charging>
0.0850403

> <r_epik_Ionization_Penalty_Neutral>
1.47497e-07

> <r_epik_State_Penalty>
2.6133

> <r_epik_Charging_Adjusted_Penalty>
2.69834

> <i_epik_Tot_Q>
0

> <i_epik_Tot_abs_Q>
0

> <r_epik_Metal_State_Penalty>
2.92945

> <b_epik_Metal_Only>
0

> <s_epik_Chemistry_Notes>
This compound contains an acetal/aminal-like group ( X-CH(R)-Y where X, Y are N, S, or O) that may be acid/base labile, releasing an aldehyde.

> <s_lp_Force_Field>
OPLS_2005

> <r_lp_Energy>
48.5801

> <b_lp_Chiralities_Consistent>
1

> <s_lp_Variant>
AV-unprocessed.smi:36-15

> <Gold.Version>
5.8.1

> <Gold.Id.Protein>
6NUR|6NUR_protein|mol2

> <Gold.PLP.Fitness>
50.8655

> <Gold.PLP.PLP>
-50.3678

> <Gold.PLP.part.hbond>
-2.0000

> <Gold.PLP.part.metal>
0.0000

> <Gold.PLP.part.buried>
-4.6559

> <Gold.PLP.part.nonpolar>
-43.5992

> <Gold.PLP.part.repulsive>
0.0647

> <Gold.PLP.ligand.clash>
0.0000

> <Gold.PLP.ligand.torsion>
1.5577

> <Gold.PLP.Chemscore.Hbond>
1.0624

> <Gold.PLP.Chemscore.CHOScore>
0.0000

> <Gold.PLP.Chemscore.Metal>
0.0000

> <Gold.Chemscore.Hbonds>
donor molecule, donor type, donor heavy atom, donor atom, acceptor molecule, acceptor atom, score
      P1  H  6896  6907       L1    29  0.65
      P1  H  6896  6909       L1    11  0.41

> <Gold.PLP.Chemscore.Internal.Correction>
0.4259

> <Gold.Rescore>
     Score         DG    S(hbond)    S(metal)    S(lipo)     H(rot)  DE(clash)    DE(int)     intcor
     13.67     -15.68       0.78        0.00     124.16       2.70       0.09       1.92       ----

> <Gold.Chemscore.Fitness>
13.6669

> <Gold.Chemscore.DG>
-15.6791

> <Gold.Chemscore.ZeroCoef>
-5.4800

> <Gold.Chemscore.Hbond>
0.7768

> <Gold.Chemscore.Metal>
0.0000

> <Gold.Chemscore.Lipo>
124.1631

> <Gold.Chemscore.Internal_Hbond>
0.0000

> <Gold.Chemscore.DEClash>
0.0944

> <Gold.Chemscore.DEInternal>
1.9177

> <Gold.Chemscore.Rot>
2.7041

> <Gold.Chemscore.Internal.Correction>
   9.000000E+99

> <Gold.Chemscore.Hbonds>
donor molecule, donor type, donor heavy atom, donor atom, acceptor molecule, acceptor atom, score
      P1  H  6896  6907       L1    29  0.11
      P1  H  6896  6909       L1    11  0.09

> <Gold.Chemscore.Hbond.Weighted>
-2.5945

> <Gold.Chemscore.Metal.Weighted>
-0.0000

> <Gold.Chemscore.Lipo.Weighted>
-14.5271

> <Gold.Chemscore.Internal_Hbond.Weighted>
0.0000

> <Gold.Chemscore.DEClash.Weighted>
0.0944

> <Gold.Chemscore.DEInternal.Weighted>
1.9177

> <Gold.Chemscore.Rot.Weighted>
6.9225

> <Gold.Chemscore.Internal.Correction.Weighted>
   9.000000E+99

> <Gold.Protein.RotatedTorsions>
[ 6907 6896 6895 6894 ] final   19.94 input  -60.11 | X-H torsion
[ 7974 7965 7964 7962 ] final -112.57 input  175.53 | X-H torsion
[ 8008 7997 7996 7995 ] final  -49.05 input   59.86 | X-H torsion
[ 10167 10162 10161 10158 ] final  -62.85 input  -65.29 | X-H torsion
[ 10718 10713 10712 10709 ] final   77.80 input   66.30 | X-H torsion
[ 10763 10752 10751 10750 ] final -177.84 input  -60.55 | X-H torsion
[ 11005 11000 10999 10996 ] final  -10.06 input  -57.11 | X-H torsion

> <Gold.Protein.ActiveResidues>
 VAL166  LYS551  ARG553  GLY616  TRP617  ASP618  TYR619  PRO620  LYS621  CYS622 
 ASP623  PHE694  ASN695  SER759  ASP760  ASP761  ALA762  ILE779  LEU786  VAL792 
 PHE793  MET794  SER795  GLU796  ALA797  LYS798  CYS799  TRP800  GLU811  SER814 

> <Gold.Protein.RotatedAtoms>
  151.8887  135.0425  160.0495 H   0  0  0  0  0  0  0  0  0  0  0  0  # atno 6907 bound_to 6896
  152.2453  133.5165  159.5302 H   0  0  0  0  0  0  0  0  0  0  0  0  # atno 6908 bound_to 6896
  150.7066  134.0949  159.3987 H   0  0  0  0  0  0  0  0  0  0  0  0  # atno 6909 bound_to 6896
  145.1425  140.8785  143.3694 H   0  0  0  0  0  0  0  0  0  0  0  0  # atno 7974 bound_to 7965
  154.4038  140.1306  156.4439 H   0  0  0  0  0  0  0  0  0  0  0  0  # atno 8008 bound_to 7997
  155.7432  140.3489  155.5094 H   0  0  0  0  0  0  0  0  0  0  0  0  # atno 8009 bound_to 7997
  155.9020  140.1021  157.1333 H   0  0  0  0  0  0  0  0  0  0  0  0  # atno 8010 bound_to 7997
  140.5911  143.2342  151.6138 H   0  0  0  0  0  0  0  0  0  0  0  0  # atno 10167 bound_to 10162
  157.6723  130.9839  150.1694 H   0  0  0  0  0  0  0  0  0  0  0  0  # atno 10718 bound_to 10713
  154.5552  135.2816  155.0971 H   0  0  0  0  0  0  0  0  0  0  0  0  # atno 10763 bound_to 10752
  154.2402  135.6358  153.5208 H   0  0  0  0  0  0  0  0  0  0  0  0  # atno 10764 bound_to 10752
  153.0014  135.5558  154.6130 H   0  0  0  0  0  0  0  0  0  0  0  0  # atno 10765 bound_to 10752
  140.7407  133.8673  155.8965 H   0  0  0  0  0  0  0  0  0  0  0  0  # atno 11005 bound_to 11000
  145.0517  139.3176  143.5925 LP  0  0  0  0  0  0  0  0  0  0  0  0  # atno 17320 bound_to 7965
  146.3503  139.9928  142.8684 LP  0  0  0  0  0  0  0  0  0  0  0  0  # atno 17321 bound_to 7965
  139.5228  144.3152  152.0958 LP  0  0  0  0  0  0  0  0  0  0  0  0  # atno 17342 bound_to 10162
  140.2317  144.4362  150.6297 LP  0  0  0  0  0  0  0  0  0  0  0  0  # atno 17343 bound_to 10162
  156.2452  130.3695  149.8293 LP  0  0  0  0  0  0  0  0  0  0  0  0  # atno 17370 bound_to 10713
  156.6081  130.8575  151.3448 LP  0  0  0  0  0  0  0  0  0  0  0  0  # atno 17371 bound_to 10713
  140.9839  134.1368  157.4469 LP  0  0  0  0  0  0  0  0  0  0  0  0  # atno 17394 bound_to 11000
  139.8807  135.0019  156.6096 LP  0  0  0  0  0  0  0  0  0  0  0  0  # atno 17395 bound_to 11000

$$$$
