AV-unprocessed.smi:84|AV-procd|sdf|809|dock1
  -GOLD-   2262017203D 1   1.00000     0.00000
 Structure written by MMmdl.
 51 55  0  0  0  0  0  0  0  0  1 V2000
  151.6795  140.0553  154.9901 O   0  0  0  0  0  0  0  0  0  0  0  0
  150.5639  140.3125  155.4365 C   0  0  0  0  0  0  0  0  0  0  0  0
  149.7640  139.3603  156.3109 C   0  0  0  0  0  0  0  0  0  0  0  0
  148.3419  139.9588  156.2519 C   0  0  2  0  0  0  0  0  0  0  0  0
  147.5228  139.7214  157.5273 C   0  0  0  0  0  0  0  0  0  0  0  0
  146.9280  138.3313  157.3105 C   0  0  0  0  0  0  0  0  0  0  0  0
  146.7134  138.2408  155.8736 N   0  0  0  0  0  0  0  0  0  0  0  0
  146.3398  137.0816  155.2726 C   0  0  0  0  0  0  0  0  0  0  0  0
  146.1673  135.9744  156.0426 N   0  0  0  0  0  0  0  0  0  0  0  0
  145.7993  134.8144  155.4918 C   0  0  0  0  0  0  0  0  0  0  0  0
  145.5507  134.5415  154.2105 N   0  0  0  0  0  0  0  0  0  0  0  0
  145.7117  135.6479  153.4301 C   0  0  0  0  0  0  0  0  0  0  0  0
  146.0930  136.9472  153.8739 C   0  0  0  0  0  0  0  0  0  0  0  0
  146.1196  137.8191  152.7903 N   0  0  0  0  0  0  0  0  0  0  0  0
  145.7807  137.0795  151.7703 C   0  0  0  0  0  0  0  0  0  0  0  0
  145.5441  135.7555  152.0607 N   0  0  0  0  0  0  0  0  0  0  0  0
  145.1224  134.7331  151.1489 C   0  0  0  0  0  0  0  0  0  0  0  0
  144.1711  133.6218  151.6018 C   0  0  0  0  0  0  0  0  0  0  0  0
  144.8621  132.6475  150.6192 C   0  0  0  0  0  0  0  0  0  0  0  0
  145.0976  131.2024  151.1019 C   0  0  0  0  0  0  0  0  0  0  0  0
  146.1590  130.5668  150.4180 O   0  0  0  0  0  0  0  0  0  0  0  0
  144.2265  132.5609  149.2187 C   0  0  0  0  0  0  0  0  0  0  0  0
  142.8980  132.0832  149.2807 O   0  0  0  0  0  0  0  0  0  0  0  0
  146.0685  133.6106  150.7080 C   0  0  0  0  0  0  0  0  0  0  0  0
  147.4945  139.2510  155.1726 C   0  0  0  0  0  0  0  0  0  0  0  0
  148.5980  141.4424  155.9137 C   0  0  0  0  0  0  0  0  0  0  0  0
  149.8819  141.4396  155.2386 N   0  0  0  0  0  0  0  0  0  0  0  0
  149.8153  138.3323  155.9498 H   0  0  0  0  0  0  0  0  0  0  0  0
  150.1749  139.3892  157.3207 H   0  0  0  0  0  0  0  0  0  0  0  0
  148.1087  139.7937  158.4441 H   0  0  0  0  0  0  0  0  0  0  0  0
  146.7167  140.4539  157.5909 H   0  0  0  0  0  0  0  0  0  0  0  0
  147.6330  137.5615  157.6283 H   0  0  0  0  0  0  0  0  0  0  0  0
  145.9982  138.1995  157.8649 H   0  0  0  0  0  0  0  0  0  0  0  0
  145.6893  133.9862  156.1763 H   0  0  0  0  0  0  0  0  0  0  0  0
  145.6980  137.4845  150.7723 H   0  0  0  0  0  0  0  0  0  0  0  0
  144.7148  135.2562  150.2824 H   0  0  0  0  0  0  0  0  0  0  0  0
  144.3140  133.3602  152.6515 H   0  0  0  0  0  0  0  0  0  0  0  0
  143.1197  133.8220  151.3946 H   0  0  0  0  0  0  0  0  0  0  0  0
  145.3329  131.1770  152.1662 H   0  0  0  0  0  0  0  0  0  0  0  0
  144.2012  130.5972  150.9635 H   0  0  0  0  0  0  0  0  0  0  0  0
  146.9716  130.9698  150.6836 H   0  0  0  0  0  0  0  0  0  0  0  0
  144.2070  133.5349  148.7293 H   0  0  0  0  0  0  0  0  0  0  0  0
  144.8037  131.9050  148.5659 H   0  0  0  0  0  0  0  0  0  0  0  0
  142.3139  132.8253  149.3177 H   0  0  0  0  0  0  0  0  0  0  0  0
  146.5765  133.7974  149.7613 H   0  0  0  0  0  0  0  0  0  0  0  0
  146.7865  133.3439  151.4849 H   0  0  0  0  0  0  0  0  0  0  0  0
  146.7977  139.9428  154.6986 H   0  0  0  0  0  0  0  0  0  0  0  0
  148.1215  138.8211  154.3905 H   0  0  0  0  0  0  0  0  0  0  0  0
  147.8187  141.8823  155.2908 H   0  0  0  0  0  0  0  0  0  0  0  0
  148.6839  142.0440  156.8198 H   0  0  0  0  0  0  0  0  0  0  0  0
  150.2146  142.2187  154.6889 H   0  0  0  0  0  0  0  0  0  0  0  0
  1  2  2  0  0  0  0
  2 27  1  0  0  0  0
  2  3  1  0  0  0  0
  3  4  1  0  0  0  0
  3 28  1  0  0  0  0
  3 29  1  0  0  0  0
  4 25  1  0  0  0  0
  4  5  1  0  0  0  0
  4 26  1  0  0  0  0
  5  6  1  0  0  0  0
  5 30  1  0  0  0  0
  5 31  1  0  0  0  0
  6  7  1  0  0  0  0
  6 32  1  0  0  0  0
  6 33  1  0  0  0  0
  7  8  1  0  0  0  0
  7 25  1  0  0  0  0
  8 13  1  0  0  0  0
  8  9  2  0  0  0  0
  9 10  1  0  0  0  0
 10 11  2  0  0  0  0
 10 34  1  0  0  0  0
 11 12  1  0  0  0  0
 12 16  1  0  0  0  0
 12 13  2  0  0  0  0
 13 14  1  0  0  0  0
 14 15  2  0  0  0  0
 15 16  1  0  0  0  0
 15 35  1  0  0  0  0
 16 17  1  0  0  0  0
 17 24  1  0  0  0  0
 17 18  1  0  0  0  0
 17 36  1  0  0  0  0
 18 19  1  0  0  0  0
 18 37  1  0  0  0  0
 18 38  1  0  0  0  0
 19 20  1  0  0  0  0
 19 22  1  0  0  0  0
 19 24  1  0  0  0  0
 20 21  1  0  0  0  0
 20 39  1  0  0  0  0
 20 40  1  0  0  0  0
 21 41  1  0  0  0  0
 22 23  1  0  0  0  0
 22 42  1  0  0  0  0
 22 43  1  0  0  0  0
 23 44  1  0  0  0  0
 24 45  1  0  0  0  0
 24 46  1  0  0  0  0
 25 47  1  0  0  0  0
 25 48  1  0  0  0  0
 26 27  1  0  0  0  0
 26 49  1  0  0  0  0
 26 50  1  0  0  0  0
 27 51  1  0  0  0  0
M  END
> <s_m_source_file>
AV-unprocessed.smi

> <i_m_source_file_index>
84

> <i_lp_mmshare_version>
43012

> <i_f3d_flags>
0

> <s_epik_input>
W0NIMl0xW05IXUMoPU8pW0NIMl1bQ0BdMTJbQ0gyXVtDSDJdTihbQ0gyXTIpYyhuW2NIXW4zKWMoYzM0KW5bY0hdbjRbQ0hdKFtDSDJdNSlbQ0gyXUM1KFtDSDJdW09IXSlbQ0gyXVtPSF0=

> <s_epik_cmdline>
J2VwaWtfcHl0aG9uJywgJy1waCcsICc3LjAnLCAnLXRuJywgJzgnLCAnLW1hJywgJzIwMCcsICctbWV0YWxfYmluZGluZycsICctaW1hZScsICc8aW5maWxlLm1hZT4nLCAnLW9tYWUnLCAnPG91dGZpbGUubWFlPic=

> <r_lp_tautomer_probability>
1

> <r_epik_Ionization_Penalty>
0.00201507

> <r_epik_Ionization_Penalty_Charging>
0

> <r_epik_Ionization_Penalty_Neutral>
0.00201507

> <r_epik_State_Penalty>
0.00133787

> <r_epik_Charging_Adjusted_Penalty>
0.00133787

> <i_epik_Tot_Q>
0

> <i_epik_Tot_abs_Q>
0

> <r_epik_Metal_State_Penalty>
-0

> <b_epik_Metal_Only>
0

> <s_lp_Force_Field>
OPLS_2005

> <r_lp_Energy>
68.8544

> <b_lp_Chiralities_Consistent>
1

> <s_lp_Variant>
AV-unprocessed.smi:84-2

> <Gold.Version>
5.8.1

> <Gold.Id.Protein>
6NUR|6NUR_protein|mol2

> <Gold.PLP.Fitness>
43.6490

> <Gold.PLP.PLP>
-30.9277

> <Gold.PLP.part.hbond>
-5.0000

> <Gold.PLP.part.metal>
0.0000

> <Gold.PLP.part.buried>
-4.7589

> <Gold.PLP.part.nonpolar>
-23.1584

> <Gold.PLP.part.repulsive>
0.5353

> <Gold.PLP.ligand.clash>
0.0000

> <Gold.PLP.ligand.torsion>
0.9990

> <Gold.PLP.Chemscore.Hbond>
3.6784

> <Gold.PLP.Chemscore.CHOScore>
0.9769

> <Gold.PLP.Chemscore.Metal>
0.0000

> <Gold.Chemscore.Hbonds>
donor molecule, donor type, donor heavy atom, donor atom, acceptor molecule, acceptor atom, score
      L1  H    21    41       P1 10747  0.75
      L1  H    23    44       P1 10186  0.91
      P1  H  7989  7998       L1     1  1.00
      P1  H 10785 10796       L1    23  0.99
      L1  C    15    35       P1 10171  0.97

> <Gold.PLP.Chemscore.Internal.Correction>
0.7535

> <Gold.Rescore>
     Score         DG    S(hbond)    S(metal)    S(lipo)     H(rot)  DE(clash)    DE(int)     intcor
     12.82     -14.38       2.76        0.00      62.14       2.96       0.65       0.91       ----

> <Gold.Chemscore.Fitness>
12.8175

> <Gold.Chemscore.DG>
-14.3766

> <Gold.Chemscore.ZeroCoef>
-5.4800

> <Gold.Chemscore.Hbond>
2.7594

> <Gold.Chemscore.Metal>
0.0000

> <Gold.Chemscore.Lipo>
62.1410

> <Gold.Chemscore.Internal_Hbond>
0.0000

> <Gold.Chemscore.DEClash>
0.6512

> <Gold.Chemscore.DEInternal>
0.9079

> <Gold.Chemscore.Rot>
2.9649

> <Gold.Chemscore.Internal.Correction>
   9.000000E+99

> <Gold.Chemscore.Hbonds>
donor molecule, donor type, donor heavy atom, donor atom, acceptor molecule, acceptor atom, score
      L1  H    21    41       P1 10747  0.71
      L1  H    23    44       P1 10186  0.87
      P1  H  7989  7998       L1     1  0.33
      P1  H 10785 10796       L1    23  0.24

> <Gold.Chemscore.Hbond.Weighted>
-9.2163

> <Gold.Chemscore.Metal.Weighted>
-0.0000

> <Gold.Chemscore.Lipo.Weighted>
-7.2705

> <Gold.Chemscore.Internal_Hbond.Weighted>
0.0000

> <Gold.Chemscore.DEClash.Weighted>
0.6512

> <Gold.Chemscore.DEInternal.Weighted>
0.9079

> <Gold.Chemscore.Rot.Weighted>
7.5902

> <Gold.Chemscore.Internal.Correction.Weighted>
   9.000000E+99

> <Gold.Protein.RotatedTorsions>
[ 6907 6896 6895 6894 ] final  103.55 input  -60.11 | X-H torsion
[ 7974 7965 7964 7962 ] final  100.41 input  175.53 | X-H torsion
[ 8008 7997 7996 7995 ] final -170.50 input   59.86 | X-H torsion
[ 10167 10162 10161 10158 ] final -143.95 input  -65.29 | X-H torsion
[ 10718 10713 10712 10709 ] final   51.57 input   66.30 | X-H torsion
[ 10763 10752 10751 10750 ] final   41.36 input  -60.55 | X-H torsion
[ 11005 11000 10999 10996 ] final   61.89 input  -57.11 | X-H torsion

> <Gold.Protein.ActiveResidues>
 VAL166  LYS551  ARG553  GLY616  TRP617  ASP618  TYR619  PRO620  LYS621  CYS622 
 ASP623  PHE694  ASN695  SER759  ASP760  ASP761  ALA762  ILE779  LEU786  VAL792 
 PHE793  MET794  SER795  GLU796  ALA797  LYS798  CYS799  TRP800  GLU811  SER814 

> <Gold.Protein.RotatedAtoms>
  152.5292  133.9808  159.7805 H   0  0  0  0  0  0  0  0  0  0  0  0  # atno 6907 bound_to 6896
  151.0062  133.6000  159.2695 H   0  0  0  0  0  0  0  0  0  0  0  0  # atno 6908 bound_to 6896
  151.3091  135.0796  159.9319 H   0  0  0  0  0  0  0  0  0  0  0  0  # atno 6909 bound_to 6896
  145.3859  139.2371  143.3378 H   0  0  0  0  0  0  0  0  0  0  0  0  # atno 7974 bound_to 7965
  155.9192  140.1071  157.1220 H   0  0  0  0  0  0  0  0  0  0  0  0  # atno 8008 bound_to 7997
  154.4051  140.1259  156.4723 H   0  0  0  0  0  0  0  0  0  0  0  0  # atno 8009 bound_to 7997
  155.7216  140.3469  155.5021 H   0  0  0  0  0  0  0  0  0  0  0  0  # atno 8010 bound_to 7997
  139.7945  143.7919  152.2653 H   0  0  0  0  0  0  0  0  0  0  0  0  # atno 10167 bound_to 10162
  157.4993  130.8427  149.8297 H   0  0  0  0  0  0  0  0  0  0  0  0  # atno 10718 bound_to 10713
  152.9910  135.6164  154.2775 H   0  0  0  0  0  0  0  0  0  0  0  0  # atno 10763 bound_to 10752
  154.2506  135.2785  155.2820 H   0  0  0  0  0  0  0  0  0  0  0  0  # atno 10764 bound_to 10752
  154.5291  135.5793  153.6801 H   0  0  0  0  0  0  0  0  0  0  0  0  # atno 10765 bound_to 10752
  140.0130  134.6267  155.9752 H   0  0  0  0  0  0  0  0  0  0  0  0  # atno 11005 bound_to 11000
  146.2820  140.4534  142.8772 LP  0  0  0  0  0  0  0  0  0  0  0  0  # atno 17320 bound_to 7965
  144.8474  140.6950  143.6190 LP  0  0  0  0  0  0  0  0  0  0  0  0  # atno 17321 bound_to 7965
  139.8021  144.7370  150.9811 LP  0  0  0  0  0  0  0  0  0  0  0  0  # atno 17342 bound_to 10162
  140.7820  143.4335  151.0659 LP  0  0  0  0  0  0  0  0  0  0  0  0  # atno 17343 bound_to 10162
  156.0219  130.3792  150.1936 LP  0  0  0  0  0  0  0  0  0  0  0  0  # atno 17370 bound_to 10713
  157.0125  130.9955  151.3362 LP  0  0  0  0  0  0  0  0  0  0  0  0  # atno 17371 bound_to 10713
  141.1724  133.6538  156.4700 LP  0  0  0  0  0  0  0  0  0  0  0  0  # atno 17394 bound_to 11000
  140.4521  134.6919  157.5044 LP  0  0  0  0  0  0  0  0  0  0  0  0  # atno 17395 bound_to 11000

$$$$
