AV-unprocessed.smi:2011|AV-procd|sdf|8154|dock4
  -GOLD-   2272010393D 1   1.00000     0.00000
 Structure written by MMmdl.
 25 26  0  0  0  0  0  0  0  0  2 V2000
  151.0876  141.0425  157.4525 O   0  0  0  0  0  0  0  0  0  0  0  0
  152.1904  140.5508  157.7034 C   0  0  0  0  0  0  0  0  0  0  0  0
  152.8368  140.9005  158.8234 N   0  0  0  0  0  0  0  0  0  0  0  0
  152.3452  141.8484  159.8145 C   0  0  0  0  0  0  0  0  0  0  0  0
  152.6261  143.2785  159.3695 C   0  0  0  0  0  0  0  0  0  0  0  0
  152.1425  144.4512  160.2354 C   0  0  0  0  0  0  0  0  0  0  0  0
  151.8900  145.2394  158.9472 C   0  0  0  0  0  0  0  0  0  0  0  0
  151.8159  143.8951  158.2187 C   0  0  0  0  0  0  0  0  0  0  0  0
  152.8596  139.6529  156.9444 N   0  5  0  0  0  0  0  0  0  0  0  0
  152.2010  138.9247  156.0277 C   0  0  0  0  0  0  0  0  0  0  0  0
  152.5913  137.6889  155.6763 N   0  0  0  0  0  0  0  0  0  0  0  0
  151.7715  137.1089  154.7175 N   0  0  0  0  0  0  0  0  0  0  0  0
  150.7740  137.9235  154.3744 C   0  0  0  0  0  0  0  0  0  0  0  0
  150.7427  139.4705  155.1942 S   0  0  0  0  0  0  0  0  0  0  0  0
  153.7380  140.4796  158.9956 H   0  0  0  0  0  0  0  0  0  0  0  0
  151.2745  141.6957  159.9582 H   0  0  0  0  0  0  0  0  0  0  0  0
  152.8265  141.6489  160.7728 H   0  0  0  0  0  0  0  0  0  0  0  0
  153.6896  143.4168  159.1626 H   0  0  0  0  0  0  0  0  0  0  0  0
  151.2227  144.2270  160.7781 H   0  0  0  0  0  0  0  0  0  0  0  0
  152.9019  144.8776  160.8913 H   0  0  0  0  0  0  0  0  0  0  0  0
  150.9653  145.8167  158.9380 H   0  0  0  0  0  0  0  0  0  0  0  0
  152.7488  145.8398  158.6426 H   0  0  0  0  0  0  0  0  0  0  0  0
  152.3125  143.8709  157.2483 H   0  0  0  0  0  0  0  0  0  0  0  0
  150.7991  143.5029  158.1591 H   0  0  0  0  0  0  0  0  0  0  0  0
  150.0502  137.6104  153.6371 H   0  0  0  0  0  0  0  0  0  0  0  0
  1  2  2  0  0  0  0
  2  3  1  0  0  0  0
  2  9  1  0  0  0  0
  3  4  1  0  0  0  0
  3 15  1  0  0  0  0
  4  5  1  0  0  0  0
  4 16  1  0  0  0  0
  4 17  1  0  0  0  0
  5  8  1  0  0  0  0
  5  6  1  0  0  0  0
  5 18  1  0  0  0  0
  6  7  1  0  0  0  0
  6 19  1  0  0  0  0
  6 20  1  0  0  0  0
  7  8  1  0  0  0  0
  7 21  1  0  0  0  0
  7 22  1  0  0  0  0
  8 23  1  0  0  0  0
  8 24  1  0  0  0  0
  9 10  1  0  0  0  0
 10 14  1  0  0  0  0
 10 11  2  0  0  0  0
 11 12  1  0  0  0  0
 12 13  2  0  0  0  0
 13 14  1  0  0  0  0
 13 25  1  0  0  0  0
M  CHG  1   9  -1
M  END
> <s_m_source_file>
AV-unprocessed.smi

> <i_m_source_file_index>
2011

> <i_lp_mmshare_version>
43012

> <i_f3d_flags>
0

> <s_epik_input>
czFbY0hdbm5jMVtOSF1DKD1PKVtOSF1bQ0gyXVtDSF0yW0NIMl1bQ0gyXVtDSDJdMg==

> <s_epik_cmdline>
J2VwaWtfcHl0aG9uJywgJy1waCcsICc3LjAnLCAnLXRuJywgJzgnLCAnLW1hJywgJzIwMCcsICctbWV0YWxfYmluZGluZycsICctaW1hZScsICc8aW5maWxlLm1hZT4nLCAnLW9tYWUnLCAnPG91dGZpbGUubWFlPic=

> <r_lp_tautomer_probability>
1

> <r_epik_Ionization_Penalty>
4.51229

> <r_epik_Ionization_Penalty_Charging>
4.46823

> <r_epik_Ionization_Penalty_Neutral>
0.0440628

> <r_epik_State_Penalty>
4.46792

> <r_epik_Charging_Adjusted_Penalty>
8.93614

> <i_epik_Tot_Q>
-1

> <i_epik_Tot_abs_Q>
1

> <r_epik_Metal_State_Penalty>
0.803637

> <b_epik_Metal_Only>
1

> <s_lp_Force_Field>
OPLS_2005

> <r_lp_Energy>
10.4468

> <b_lp_Chiralities_Consistent>
1

> <s_lp_Variant>
AV-unprocessed.smi:2011-2

> <Gold.Version>
5.8.1

> <Gold.Id.Protein>
6NUR|6NUR_protein|mol2

> <Gold.PLP.Fitness>
44.5090

> <Gold.PLP.PLP>
-33.2293

> <Gold.PLP.part.hbond>
-3.0000

> <Gold.PLP.part.metal>
0.0000

> <Gold.PLP.part.buried>
-3.5668

> <Gold.PLP.part.nonpolar>
-27.3516

> <Gold.PLP.part.repulsive>
0.2485

> <Gold.PLP.ligand.clash>
0.0000

> <Gold.PLP.ligand.torsion>
0.4578

> <Gold.PLP.Chemscore.Hbond>
2.9760

> <Gold.PLP.Chemscore.CHOScore>
1.0666

> <Gold.PLP.Chemscore.Metal>
0.0000

> <Gold.Chemscore.Hbonds>
donor molecule, donor type, donor heavy atom, donor atom, acceptor molecule, acceptor atom, score
      P1  H  7997  8008       L1     9  2.00
      P1  H 10752 10765       L1    12  0.80
      L1  C    13    25       P1  7948  1.00
      L1  C    13    25       P1  7949  0.01

> <Gold.PLP.Chemscore.Internal.Correction>
0.0675

> <Gold.Rescore>
     Score         DG    S(hbond)    S(metal)    S(lipo)     H(rot)  DE(clash)    DE(int)     intcor
     14.24     -16.26       1.58        0.00      76.07       1.32       0.02       2.01       ----

> <Gold.Chemscore.Fitness>
14.2389

> <Gold.Chemscore.DG>
-16.2600

> <Gold.Chemscore.ZeroCoef>
-5.4800

> <Gold.Chemscore.Hbond>
1.5782

> <Gold.Chemscore.Metal>
0.0000

> <Gold.Chemscore.Lipo>
76.0697

> <Gold.Chemscore.Internal_Hbond>
0.0000

> <Gold.Chemscore.DEClash>
0.0153

> <Gold.Chemscore.DEInternal>
2.0059

> <Gold.Chemscore.Rot>
1.3247

> <Gold.Chemscore.Internal.Correction>
   9.000000E+99

> <Gold.Chemscore.Hbonds>
donor molecule, donor type, donor heavy atom, donor atom, acceptor molecule, acceptor atom, score
      P1  H  7997  8008       L1     9  0.81
      P1  H 10752 10765       L1    12  0.11

> <Gold.Chemscore.Hbond.Weighted>
-5.2711

> <Gold.Chemscore.Metal.Weighted>
-0.0000

> <Gold.Chemscore.Lipo.Weighted>
-8.9002

> <Gold.Chemscore.Internal_Hbond.Weighted>
0.0000

> <Gold.Chemscore.DEClash.Weighted>
0.0153

> <Gold.Chemscore.DEInternal.Weighted>
2.0059

> <Gold.Chemscore.Rot.Weighted>
3.3912

> <Gold.Chemscore.Internal.Correction.Weighted>
   9.000000E+99

> <Gold.Protein.RotatedTorsions>
[ 6907 6896 6895 6894 ] final    4.11 input  -60.11 | X-H torsion
[ 7974 7965 7964 7962 ] final  -40.40 input  175.53 | X-H torsion
[ 8008 7997 7996 7995 ] final  -53.28 input   59.86 | X-H torsion
[ 10167 10162 10161 10158 ] final  -77.10 input  -65.29 | X-H torsion
[ 10718 10713 10712 10709 ] final   80.58 input   66.30 | X-H torsion
[ 10763 10752 10751 10750 ] final  161.94 input  -60.55 | X-H torsion
[ 11005 11000 10999 10996 ] final   35.79 input  -57.11 | X-H torsion

> <Gold.Protein.ActiveResidues>
 VAL166  LYS551  ARG553  GLY616  TRP617  ASP618  TYR619  PRO620  LYS621  CYS622 
 ASP623  PHE694  ASN695  SER759  ASP760  ASP761  ALA762  ILE779  LEU786  VAL792 
 PHE793  MET794  SER795  GLU796  ALA797  LYS798  CYS799  TRP800  GLU811  SER814 

> <Gold.Protein.RotatedAtoms>
  151.6360  135.1018  160.0131 H   0  0  0  0  0  0  0  0  0  0  0  0  # atno 6907 bound_to 6896
  152.4080  133.6915  159.6382 H   0  0  0  0  0  0  0  0  0  0  0  0  # atno 6908 bound_to 6896
  150.7973  133.8591  159.3268 H   0  0  0  0  0  0  0  0  0  0  0  0  # atno 6909 bound_to 6896
  146.0308  140.6733  142.9133 H   0  0  0  0  0  0  0  0  0  0  0  0  # atno 7974 bound_to 7965
  154.4129  140.1203  156.5129 H   0  0  0  0  0  0  0  0  0  0  0  0  # atno 8008 bound_to 7997
  155.6781  140.3496  155.4825 H   0  0  0  0  0  0  0  0  0  0  0  0  # atno 8009 bound_to 7997
  155.9575  140.1116  157.0914 H   0  0  0  0  0  0  0  0  0  0  0  0  # atno 8010 bound_to 7997
  140.4800  143.2404  151.8073 H   0  0  0  0  0  0  0  0  0  0  0  0  # atno 10167 bound_to 10162
  157.6810  130.9966  150.2100 H   0  0  0  0  0  0  0  0  0  0  0  0  # atno 10718 bound_to 10713
  154.2707  135.2766  155.2739 H   0  0  0  0  0  0  0  0  0  0  0  0  # atno 10763 bound_to 10752
  154.5304  135.5731  153.6757 H   0  0  0  0  0  0  0  0  0  0  0  0  # atno 10764 bound_to 10752
  152.9945  135.6226  154.2862 H   0  0  0  0  0  0  0  0  0  0  0  0  # atno 10765 bound_to 10752
  140.2391  134.3437  155.7933 H   0  0  0  0  0  0  0  0  0  0  0  0  # atno 11005 bound_to 11000
  144.7030  140.3733  143.7141 LP  0  0  0  0  0  0  0  0  0  0  0  0  # atno 17320 bound_to 7965
  145.7043  139.1669  143.2575 LP  0  0  0  0  0  0  0  0  0  0  0  0  # atno 17321 bound_to 7965
  139.4832  144.4785  151.9337 LP  0  0  0  0  0  0  0  0  0  0  0  0  # atno 17342 bound_to 10162
  140.3870  144.2664  150.5903 LP  0  0  0  0  0  0  0  0  0  0  0  0  # atno 17343 bound_to 10162
  156.2773  130.3729  149.7971 LP  0  0  0  0  0  0  0  0  0  0  0  0  # atno 17370 bound_to 10713
  156.5670  130.8408  151.3345 LP  0  0  0  0  0  0  0  0  0  0  0  0  # atno 17371 bound_to 10713
  141.2212  133.7288  156.8855 LP  0  0  0  0  0  0  0  0  0  0  0  0  # atno 17394 bound_to 11000
  140.1672  134.9125  157.2788 LP  0  0  0  0  0  0  0  0  0  0  0  0  # atno 17395 bound_to 11000

$$$$
