AV-unprocessed.smi:1627|AV-procd|sdf|6518|dock1
  -GOLD-   22720 7193D 1   1.00000     0.00000
 Structure written by MMmdl.
 44 45  0  0  0  0  0  0  0  0  2 V2000
  146.7855  138.7675  151.4516 C   0  0  0  0  0  0  0  0  0  0  0  0
  147.1422  138.2912  152.8675 C   0  0  2  0  0  0  0  0  0  0  0  0
  145.9853  137.6620  153.4121 O   0  0  0  0  0  0  0  0  0  0  0  0
  145.9715  136.2393  153.3455 C   0  0  0  0  0  0  0  0  0  0  0  0
  145.0377  135.7933  152.2140 C   0  0  0  0  0  0  0  0  0  0  0  0
  145.6282  136.0218  151.0417 F   0  0  0  0  0  0  0  0  0  0  0  0
  144.7808  134.4897  152.3172 F   0  0  0  0  0  0  0  0  0  0  0  0
  143.8967  136.4807  152.2592 F   0  0  0  0  0  0  0  0  0  0  0  0
  147.5801  139.4663  153.7570 C   0  0  0  0  0  0  0  0  0  0  0  0
  146.7989  140.3941  153.9620 O   0  0  0  0  0  0  0  0  0  0  0  0
  148.8241  139.3801  154.2654 N   0  0  0  0  0  0  0  0  0  0  0  0
  149.5191  140.2832  155.1175 C   0  0  0  0  0  0  0  0  0  0  0  0
  150.4332  139.7292  156.0406 C   0  0  0  0  0  0  0  0  0  0  0  0
  151.1457  140.5728  156.9174 C   0  0  0  0  0  0  0  0  0  0  0  0
  150.9307  141.9683  156.8610 C   0  0  0  0  0  0  0  0  0  0  0  0
  151.5863  142.8851  157.6931 N   0  0  0  0  0  0  0  0  0  0  0  0
  152.4856  142.2441  158.6492 C   0  0  0  0  0  0  0  0  0  0  0  0
  153.3184  143.2933  159.4064 C   0  0  0  0  0  0  0  0  0  0  0  0
  152.4113  144.3444  160.0661 C   0  0  0  0  0  0  0  0  0  0  0  0
  151.4710  144.9643  159.0202 C   0  0  0  0  0  0  0  0  0  0  0  0
  150.6822  143.8727  158.2770 C   0  0  0  0  0  0  0  0  0  0  0  0
  150.0476  142.4624  155.9673 N   0  3  0  0  0  0  0  0  0  0  0  0
  149.3449  141.6900  155.1102 C   0  0  0  0  0  0  0  0  0  0  0  0
  147.6279  139.2746  150.9800 H   0  0  0  0  0  0  0  0  0  0  0  0
  145.9405  139.4572  151.4591 H   0  0  0  0  0  0  0  0  0  0  0  0
  146.5136  137.9233  150.8178 H   0  0  0  0  0  0  0  0  0  0  0  0
  147.9497  137.5605  152.7885 H   0  0  0  0  0  0  0  0  0  0  0  0
  146.9796  135.8667  153.1581 H   0  0  0  0  0  0  0  0  0  0  0  0
  145.6331  135.8061  154.2875 H   0  0  0  0  0  0  0  0  0  0  0  0
  149.3491  138.5642  153.9852 H   0  0  0  0  0  0  0  0  0  0  0  0
  150.5911  138.6612  156.0802 H   0  0  0  0  0  0  0  0  0  0  0  0
  151.8460  140.1497  157.6231 H   0  0  0  0  0  0  0  0  0  0  0  0
  151.9038  141.6528  159.3577 H   0  0  0  0  0  0  0  0  0  0  0  0
  153.1485  141.5542  158.1252 H   0  0  0  0  0  0  0  0  0  0  0  0
  153.9387  142.8066  160.1596 H   0  0  0  0  0  0  0  0  0  0  0  0
  154.0022  143.7858  158.7134 H   0  0  0  0  0  0  0  0  0  0  0  0
  151.8241  143.8785  160.8583 H   0  0  0  0  0  0  0  0  0  0  0  0
  153.0140  145.1204  160.5392 H   0  0  0  0  0  0  0  0  0  0  0  0
  150.7838  145.6623  159.4993 H   0  0  0  0  0  0  0  0  0  0  0  0
  152.0538  145.5452  158.3041 H   0  0  0  0  0  0  0  0  0  0  0  0
  150.0748  144.3246  157.4916 H   0  0  0  0  0  0  0  0  0  0  0  0
  149.9972  143.3785  158.9673 H   0  0  0  0  0  0  0  0  0  0  0  0
  148.6744  142.2381  154.4670 H   0  0  0  0  0  0  0  0  0  0  0  0
  149.9010  143.4719  155.9393 H   0  0  0  0  0  0  0  0  0  0  0  0
  1  2  1  0  0  0  0
  1 24  1  0  0  0  0
  1 25  1  0  0  0  0
  1 26  1  0  0  0  0
  2  3  1  0  0  0  0
  2  9  1  0  0  0  0
  2 27  1  0  0  0  0
  3  4  1  0  0  0  0
  4  5  1  0  0  0  0
  4 28  1  0  0  0  0
  4 29  1  0  0  0  0
  5  6  1  0  0  0  0
  5  7  1  0  0  0  0
  5  8  1  0  0  0  0
  9 10  2  0  0  0  0
  9 11  1  0  0  0  0
 11 12  1  0  0  0  0
 11 30  1  0  0  0  0
 12 23  1  0  0  0  0
 12 13  2  0  0  0  0
 13 14  1  0  0  0  0
 13 31  1  0  0  0  0
 14 15  2  0  0  0  0
 14 32  1  0  0  0  0
 15 16  1  0  0  0  0
 15 22  1  0  0  0  0
 16 21  1  0  0  0  0
 16 17  1  0  0  0  0
 17 18  1  0  0  0  0
 17 33  1  0  0  0  0
 17 34  1  0  0  0  0
 18 19  1  0  0  0  0
 18 35  1  0  0  0  0
 18 36  1  0  0  0  0
 19 20  1  0  0  0  0
 19 37  1  0  0  0  0
 19 38  1  0  0  0  0
 20 21  1  0  0  0  0
 20 39  1  0  0  0  0
 20 40  1  0  0  0  0
 21 41  1  0  0  0  0
 21 42  1  0  0  0  0
 22 23  2  0  0  0  0
 22 44  1  0  0  0  0
 23 43  1  0  0  0  0
M  CHG  1  22   1
M  END
> <s_m_source_file>
AV-unprocessed.smi

> <i_m_source_file_index>
1627

> <i_lp_mmshare_version>
43012

> <i_f3d_flags>
0

> <s_epik_input>
RkMoRikoRilbQ0gyXU9bQ0BASF0oW0NIM10pQyg9TylbTkhdYzFbY0hdW2NIXWMobltjSF0xKU4yW0NIMl1bQ0gyXVtDSDJdW0NIMl1bQ0gyXTI=

> <s_epik_cmdline>
J2VwaWtfcHl0aG9uJywgJy1waCcsICc3LjAnLCAnLXRuJywgJzgnLCAnLW1hJywgJzIwMCcsICctbWV0YWxfYmluZGluZycsICctaW1hZScsICc8aW5maWxlLm1hZT4nLCAnLW9tYWUnLCAnPG91dGZpbGUubWFlPic=

> <r_lp_tautomer_probability>
0.999994

> <r_epik_Ionization_Penalty>
1.93197

> <r_epik_Ionization_Penalty_Charging>
1.93197

> <r_epik_Ionization_Penalty_Neutral>
3.16684e-06

> <r_epik_State_Penalty>
2.05557

> <r_epik_Charging_Adjusted_Penalty>
3.98754

> <i_epik_Tot_Q>
1

> <i_epik_Tot_abs_Q>
1

> <r_epik_Metal_State_Penalty>
2.08108

> <b_epik_Metal_Only>
0

> <s_lp_Force_Field>
OPLS_2005

> <r_lp_Energy>
33.3851

> <b_lp_Chiralities_Consistent>
1

> <s_lp_Variant>
AV-unprocessed.smi:1627-3

> <Gold.Version>
5.8.1

> <Gold.Id.Protein>
6NUR|6NUR_protein|mol2

> <Gold.PLP.Fitness>
44.2097

> <Gold.PLP.PLP>
-40.7981

> <Gold.PLP.part.hbond>
-1.2205

> <Gold.PLP.part.metal>
0.0000

> <Gold.PLP.part.buried>
-0.9934

> <Gold.PLP.part.nonpolar>
-39.5777

> <Gold.PLP.part.repulsive>
0.5735

> <Gold.PLP.ligand.clash>
0.0000

> <Gold.PLP.ligand.torsion>
1.3936

> <Gold.PLP.Chemscore.Hbond>
2.0000

> <Gold.PLP.Chemscore.CHOScore>
0.0000

> <Gold.PLP.Chemscore.Metal>
0.0000

> <Gold.Chemscore.Hbonds>
donor molecule, donor type, donor heavy atom, donor atom, acceptor molecule, acceptor atom, score
      L1  H    22    44       P1  8028  1.95

> <Gold.PLP.Chemscore.Internal.Correction>
0.1988

> <Gold.Rescore>
     Score         DG    S(hbond)    S(metal)    S(lipo)     H(rot)  DE(clash)    DE(int)     intcor
     14.03     -15.93       0.88        0.00     105.83       1.90       0.17       1.74       ----

> <Gold.Chemscore.Fitness>
14.0278

> <Gold.Chemscore.DG>
-15.9346

> <Gold.Chemscore.ZeroCoef>
-5.4800

> <Gold.Chemscore.Hbond>
0.8797

> <Gold.Chemscore.Metal>
0.0000

> <Gold.Chemscore.Lipo>
105.8311

> <Gold.Chemscore.Internal_Hbond>
0.0000

> <Gold.Chemscore.DEClash>
0.1692

> <Gold.Chemscore.DEInternal>
1.7375

> <Gold.Chemscore.Rot>
1.9007

> <Gold.Chemscore.Internal.Correction>
   9.000000E+99

> <Gold.Chemscore.Hbonds>
donor molecule, donor type, donor heavy atom, donor atom, acceptor molecule, acceptor atom, score
      L1  H    22    44       P1  8028  0.93

> <Gold.Chemscore.Hbond.Weighted>
-2.9380

> <Gold.Chemscore.Metal.Weighted>
-0.0000

> <Gold.Chemscore.Lipo.Weighted>
-12.3822

> <Gold.Chemscore.Internal_Hbond.Weighted>
0.0000

> <Gold.Chemscore.DEClash.Weighted>
0.1692

> <Gold.Chemscore.DEInternal.Weighted>
1.7375

> <Gold.Chemscore.Rot.Weighted>
4.8657

> <Gold.Chemscore.Internal.Correction.Weighted>
   9.000000E+99

> <Gold.Protein.RotatedTorsions>
[ 6907 6896 6895 6894 ] final  -99.38 input  -60.11 | X-H torsion
[ 7974 7965 7964 7962 ] final   66.32 input  175.53 | X-H torsion
[ 8008 7997 7996 7995 ] final  108.50 input   59.86 | X-H torsion
[ 10167 10162 10161 10158 ] final  120.37 input  -65.29 | X-H torsion
[ 10718 10713 10712 10709 ] final  -19.52 input   66.30 | X-H torsion
[ 10763 10752 10751 10750 ] final  122.92 input  -60.55 | X-H torsion
[ 11005 11000 10999 10996 ] final -175.88 input  -57.11 | X-H torsion

> <Gold.Protein.ActiveResidues>
 VAL166  LYS551  ARG553  GLY616  TRP617  ASP618  TYR619  PRO620  LYS621  CYS622 
 ASP623  PHE694  ASN695  SER759  ASP760  ASP761  ALA762  ILE779  LEU786  VAL792 
 PHE793  MET794  SER795  GLU796  ALA797  LYS798  CYS799  TRP800  GLU811  SER814 

> <Gold.Protein.RotatedAtoms>
  150.7078  134.1050  159.3979 H   0  0  0  0  0  0  0  0  0  0  0  0  # atno 6907 bound_to 6896
  151.9036  135.0366  160.0518 H   0  0  0  0  0  0  0  0  0  0  0  0  # atno 6908 bound_to 6896
  152.2394  133.5087  159.5298 H   0  0  0  0  0  0  0  0  0  0  0  0  # atno 6909 bound_to 6896
  145.8280  139.3122  143.1004 H   0  0  0  0  0  0  0  0  0  0  0  0  # atno 7974 bound_to 7965
  156.1908  140.3075  155.9328 H   0  0  0  0  0  0  0  0  0  0  0  0  # atno 8008 bound_to 7997
  155.3179  140.0454  157.3055 H   0  0  0  0  0  0  0  0  0  0  0  0  # atno 8009 bound_to 7997
  154.5449  140.2273  155.8588 H   0  0  0  0  0  0  0  0  0  0  0  0  # atno 8010 bound_to 7997
  139.5986  144.7049  151.3116 H   0  0  0  0  0  0  0  0  0  0  0  0  # atno 10167 bound_to 10162
  156.5445  130.4686  149.6482 H   0  0  0  0  0  0  0  0  0  0  0  0  # atno 10718 bound_to 10713
  153.6373  135.3385  155.3060 H   0  0  0  0  0  0  0  0  0  0  0  0  # atno 10763 bound_to 10752
  154.8567  135.4310  154.2042 H   0  0  0  0  0  0  0  0  0  0  0  0  # atno 10764 bound_to 10752
  153.2952  135.7020  153.7329 H   0  0  0  0  0  0  0  0  0  0  0  0  # atno 10765 bound_to 10752
  140.4584  134.6278  157.4832 H   0  0  0  0  0  0  0  0  0  0  0  0  # atno 11005 bound_to 11000
  145.9602  140.8841  143.0214 LP  0  0  0  0  0  0  0  0  0  0  0  0  # atno 17320 bound_to 7965
  144.6742  140.1802  143.7406 LP  0  0  0  0  0  0  0  0  0  0  0  0  # atno 17321 bound_to 7965
  140.7232  143.7078  150.7793 LP  0  0  0  0  0  0  0  0  0  0  0  0  # atno 17342 bound_to 10162
  140.0650  143.5117  152.2609 LP  0  0  0  0  0  0  0  0  0  0  0  0  # atno 17343 bound_to 10162
  156.2941  130.7140  151.1996 LP  0  0  0  0  0  0  0  0  0  0  0  0  # atno 17370 bound_to 10713
  157.7399  131.0523  150.5201 LP  0  0  0  0  0  0  0  0  0  0  0  0  # atno 17371 bound_to 10713
  139.9961  134.6908  155.9607 LP  0  0  0  0  0  0  0  0  0  0  0  0  # atno 17394 bound_to 11000
  141.1633  133.6538  156.4391 LP  0  0  0  0  0  0  0  0  0  0  0  0  # atno 17395 bound_to 11000

$$$$
