AV-unprocessed.smi:130|AV-procd|sdf|1159|dock8
  -GOLD-   2262018293D 1   1.00000     0.00000
 Structure written by MMmdl.
 44 47  0  0  0  0  0  0  0  0  1 V2000
  150.2192  139.6066  158.0602 O   0  0  0  0  0  0  0  0  0  0  0  0
  151.2772  139.4413  158.6687 C   0  0  0  0  0  0  0  0  0  0  0  0
  151.7883  138.0016  158.8968 C   0  0  0  0  0  0  0  0  0  0  0  0
  150.8346  136.9558  158.4635 N   0  0  0  0  0  0  0  0  0  0  0  0
  151.1534  136.1735  157.3254 C   0  0  0  0  0  0  0  0  0  0  0  0
  152.1936  136.3606  156.6926 O   0  0  0  0  0  0  0  0  0  0  0  0
  150.1811  135.1440  156.9755 C   0  0  0  0  0  0  0  0  0  0  0  0
  150.4045  134.3504  155.9144 F   0  0  0  0  0  0  0  0  0  0  0  0
  149.0601  134.9711  157.7052 C   0  0  0  0  0  0  0  0  0  0  0  0
  148.7607  135.7436  158.8122 N   0  0  0  0  0  0  0  0  0  0  0  0
  147.5057  135.5022  159.6197 C   0  0  2  0  0  0  0  0  0  0  0  0
  147.8605  135.2805  161.0948 C   0  0  0  0  0  0  0  0  0  0  0  0
  147.8988  133.7701  161.1851 C   0  0  0  0  0  0  0  0  0  0  0  0
  146.8043  133.3768  160.2002 C   0  0  0  0  0  0  0  0  0  0  0  0
  146.8810  134.3404  159.1535 O   0  0  0  0  0  0  0  0  0  0  0  0
  149.6590  136.7513  159.2251 C   0  0  0  0  0  0  0  0  0  0  0  0
  149.4302  137.4260  160.2315 O   0  0  0  0  0  0  0  0  0  0  0  0
  152.0243  140.4641  159.1542 N   0  0  0  0  0  0  0  0  0  0  0  0
  153.2838  140.2706  159.8941 C   0  0  0  0  0  0  0  0  0  0  0  0
  153.7829  141.6806  160.2789 C   0  0  0  0  0  0  0  0  0  0  0  0
  152.7412  142.5826  159.6859 C   0  0  0  0  0  0  0  0  0  0  0  0
  152.7195  143.9872  159.7344 C   0  0  0  0  0  0  0  0  0  0  0  0
  151.6487  144.6605  159.1099 C   0  0  0  0  0  0  0  0  0  0  0  0
  150.6299  143.9299  158.4562 C   0  0  0  0  0  0  0  0  0  0  0  0
  150.6670  142.5186  158.4177 C   0  0  0  0  0  0  0  0  0  0  0  0
  151.7436  141.8523  159.0464 C   0  0  0  0  0  0  0  0  0  0  0  0
  152.7420  137.8791  158.3814 H   0  0  0  0  0  0  0  0  0  0  0  0
  152.0353  137.8763  159.9518 H   0  0  0  0  0  0  0  0  0  0  0  0
  148.3797  134.1883  157.4047 H   0  0  0  0  0  0  0  0  0  0  0  0
  146.8554  136.3605  159.4445 H   0  0  0  0  0  0  0  0  0  0  0  0
  148.7948  135.7678  161.3770 H   0  0  0  0  0  0  0  0  0  0  0  0
  147.0537  135.6796  161.7107 H   0  0  0  0  0  0  0  0  0  0  0  0
  148.8657  133.3954  160.8477 H   0  0  0  0  0  0  0  0  0  0  0  0
  147.7199  133.3964  162.1938 H   0  0  0  0  0  0  0  0  0  0  0  0
  146.9240  132.3622  159.8200 H   0  0  0  0  0  0  0  0  0  0  0  0
  145.8242  133.4506  160.6731 H   0  0  0  0  0  0  0  0  0  0  0  0
  153.1235  139.6684  160.7893 H   0  0  0  0  0  0  0  0  0  0  0  0
  154.0220  139.7660  159.2693 H   0  0  0  0  0  0  0  0  0  0  0  0
  153.8297  141.8139  161.3602 H   0  0  0  0  0  0  0  0  0  0  0  0
  154.7635  141.8960  159.8535 H   0  0  0  0  0  0  0  0  0  0  0  0
  153.5022  144.5369  160.2360 H   0  0  0  0  0  0  0  0  0  0  0  0
  151.6069  145.7393  159.1306 H   0  0  0  0  0  0  0  0  0  0  0  0
  149.8153  144.4559  157.9809 H   0  0  0  0  0  0  0  0  0  0  0  0
  149.8757  141.9901  157.9104 H   0  0  0  0  0  0  0  0  0  0  0  0
  1  2  2  0  0  0  0
  2  3  1  0  0  0  0
  2 18  1  0  0  0  0
  3  4  1  0  0  0  0
  3 27  1  0  0  0  0
  3 28  1  0  0  0  0
  4 16  1  0  0  0  0
  4  5  1  0  0  0  0
  5  6  2  0  0  0  0
  5  7  1  0  0  0  0
  7  8  1  0  0  0  0
  7  9  2  0  0  0  0
  9 10  1  0  0  0  0
  9 29  1  0  0  0  0
 10 11  1  0  0  0  0
 10 16  1  0  0  0  0
 11 15  1  0  0  0  0
 11 12  1  0  0  0  0
 11 30  1  0  0  0  0
 12 13  1  0  0  0  0
 12 31  1  0  0  0  0
 12 32  1  0  0  0  0
 13 14  1  0  0  0  0
 13 33  1  0  0  0  0
 13 34  1  0  0  0  0
 14 15  1  0  0  0  0
 14 35  1  0  0  0  0
 14 36  1  0  0  0  0
 16 17  2  0  0  0  0
 18 26  1  0  0  0  0
 18 19  1  0  0  0  0
 19 20  1  0  0  0  0
 19 37  1  0  0  0  0
 19 38  1  0  0  0  0
 20 21  1  0  0  0  0
 20 39  1  0  0  0  0
 20 40  1  0  0  0  0
 21 26  2  0  0  0  0
 21 22  1  0  0  0  0
 22 23  2  0  0  0  0
 22 41  1  0  0  0  0
 23 24  1  0  0  0  0
 23 42  1  0  0  0  0
 24 25  2  0  0  0  0
 24 43  1  0  0  0  0
 25 26  1  0  0  0  0
 25 44  1  0  0  0  0
M  END
> <s_m_source_file>
AV-unprocessed.smi

> <i_m_source_file_index>
130

> <i_lp_mmshare_version>
43012

> <i_f3d_flags>
0

> <s_epik_input>
W2NIXTFbY0hdW2NIXVtjSF1jKGMxMilOKFtDSDJdW0NIMl0yKUMoPU8pW0NIMl1uM2MoPU8pYyhGKVtjSF1uKGMzPU8pW0NAQEhdNFtDSDJdW0NIMl1bQ0gyXU80

> <s_epik_cmdline>
J2VwaWtfcHl0aG9uJywgJy1waCcsICc3LjAnLCAnLXRuJywgJzgnLCAnLW1hJywgJzIwMCcsICctbWV0YWxfYmluZGluZycsICctaW1hZScsICc8aW5maWxlLm1hZT4nLCAnLW9tYWUnLCAnPG91dGZpbGUubWFlPic=

> <r_lp_tautomer_probability>
1

> <r_epik_Ionization_Penalty>
1.67926e-06

> <r_epik_Ionization_Penalty_Charging>
3.62822e-09

> <r_epik_Ionization_Penalty_Neutral>
1.67563e-06

> <r_epik_State_Penalty>
-0

> <r_epik_Charging_Adjusted_Penalty>
3.62822e-09

> <i_epik_Tot_Q>
0

> <i_epik_Tot_abs_Q>
0

> <r_epik_Metal_State_Penalty>
-0

> <b_epik_Metal_Only>
0

> <s_epik_Chemistry_Notes>
This compound contains an acetal/aminal-like group ( X-CH(R)-Y where X, Y are N, S, or O) that may be acid/base labile, releasing an aldehyde.

> <s_lp_Force_Field>
OPLS_2005

> <r_lp_Energy>
53.4857

> <b_lp_Chiralities_Consistent>
1

> <s_lp_Variant>
AV-unprocessed.smi:130-1

> <Gold.Version>
5.8.1

> <Gold.Id.Protein>
6NUR|6NUR_protein|mol2

> <Gold.PLP.Fitness>
46.8415

> <Gold.PLP.PLP>
-43.5094

> <Gold.PLP.part.hbond>
-2.3422

> <Gold.PLP.part.metal>
0.0000

> <Gold.PLP.part.buried>
-5.6433

> <Gold.PLP.part.nonpolar>
-36.5222

> <Gold.PLP.part.repulsive>
0.0000

> <Gold.PLP.ligand.clash>
0.0000

> <Gold.PLP.ligand.torsion>
0.2436

> <Gold.PLP.Chemscore.Hbond>
1.2696

> <Gold.PLP.Chemscore.CHOScore>
0.0000

> <Gold.PLP.Chemscore.Metal>
0.0000

> <Gold.Chemscore.Hbonds>
donor molecule, donor type, donor heavy atom, donor atom, acceptor molecule, acceptor atom, score
      P1  H  6931  6943       L1    17  0.30
      P1  H 10752 10763       L1     6  0.78

> <Gold.PLP.Chemscore.Internal.Correction>
0.0103

> <Gold.Rescore>
     Score         DG    S(hbond)    S(metal)    S(lipo)     H(rot)  DE(clash)    DE(int)     intcor
     15.90     -18.62       1.22        0.00     111.99       1.57       0.00       2.72       ----

> <Gold.Chemscore.Fitness>
15.9031

> <Gold.Chemscore.DG>
-18.6250

> <Gold.Chemscore.ZeroCoef>
-5.4800

> <Gold.Chemscore.Hbond>
1.2164

> <Gold.Chemscore.Metal>
0.0000

> <Gold.Chemscore.Lipo>
111.9861

> <Gold.Chemscore.Internal_Hbond>
0.0000

> <Gold.Chemscore.DEClash>
0.0038

> <Gold.Chemscore.DEInternal>
2.7180

> <Gold.Chemscore.Rot>
1.5704

> <Gold.Chemscore.Internal.Correction>
   9.000000E+99

> <Gold.Chemscore.Hbonds>
donor molecule, donor type, donor heavy atom, donor atom, acceptor molecule, acceptor atom, score
      P1  H  6931  6943       L1    17  0.30
      P1  H 10752 10763       L1     6  0.76

> <Gold.Chemscore.Hbond.Weighted>
-4.0629

> <Gold.Chemscore.Metal.Weighted>
-0.0000

> <Gold.Chemscore.Lipo.Weighted>
-13.1024

> <Gold.Chemscore.Internal_Hbond.Weighted>
0.0000

> <Gold.Chemscore.DEClash.Weighted>
0.0038

> <Gold.Chemscore.DEInternal.Weighted>
2.7180

> <Gold.Chemscore.Rot.Weighted>
4.0203

> <Gold.Chemscore.Internal.Correction.Weighted>
   9.000000E+99

> <Gold.Protein.RotatedTorsions>
[ 6907 6896 6895 6894 ] final  -81.40 input  -60.11 | X-H torsion
[ 7974 7965 7964 7962 ] final -129.39 input  175.53 | X-H torsion
[ 8008 7997 7996 7995 ] final  114.20 input   59.86 | X-H torsion
[ 10167 10162 10161 10158 ] final -153.62 input  -65.29 | X-H torsion
[ 10718 10713 10712 10709 ] final  101.09 input   66.30 | X-H torsion
[ 10763 10752 10751 10750 ] final   83.08 input  -60.55 | X-H torsion
[ 11005 11000 10999 10996 ] final  -82.01 input  -57.11 | X-H torsion

> <Gold.Protein.ActiveResidues>
 VAL166  LYS551  ARG553  GLY616  TRP617  ASP618  TYR619  PRO620  LYS621  CYS622 
 ASP623  PHE694  ASN695  SER759  ASP760  ASP761  ALA762  ILE779  LEU786  VAL792 
 PHE793  MET794  SER795  GLU796  ALA797  LYS798  CYS799  TRP800  GLU811  SER814 

> <Gold.Protein.RotatedAtoms>
  150.6913  134.3823  159.5039 H   0  0  0  0  0  0  0  0  0  0  0  0  # atno 6907 bound_to 6896
  152.1624  134.8899  160.0550 H   0  0  0  0  0  0  0  0  0  0  0  0  # atno 6908 bound_to 6896
  151.9955  133.3771  159.4198 H   0  0  0  0  0  0  0  0  0  0  0  0  # atno 6909 bound_to 6896
  144.9576  140.7413  143.4749 H   0  0  0  0  0  0  0  0  0  0  0  0  # atno 7974 bound_to 7965
  156.2306  140.2964  156.0179 H   0  0  0  0  0  0  0  0  0  0  0  0  # atno 8008 bound_to 7997
  155.2235  140.0416  157.2969 H   0  0  0  0  0  0  0  0  0  0  0  0  # atno 8009 bound_to 7997
  154.5989  140.2421  155.7826 H   0  0  0  0  0  0  0  0  0  0  0  0  # atno 8010 bound_to 7997
  139.7082  143.9152  152.2457 H   0  0  0  0  0  0  0  0  0  0  0  0  # atno 10167 bound_to 10162
  157.6838  131.0716  150.5200 H   0  0  0  0  0  0  0  0  0  0  0  0  # atno 10718 bound_to 10713
  153.1259  135.4704  154.9271 H   0  0  0  0  0  0  0  0  0  0  0  0  # atno 10763 bound_to 10752
  154.7619  135.3134  154.8363 H   0  0  0  0  0  0  0  0  0  0  0  0  # atno 10764 bound_to 10752
  153.8917  135.6884  153.4814 H   0  0  0  0  0  0  0  0  0  0  0  0  # atno 10765 bound_to 10752
  141.1665  133.7224  156.8508 H   0  0  0  0  0  0  0  0  0  0  0  0  # atno 11005 bound_to 11000
  145.2748  139.1941  143.4822 LP  0  0  0  0  0  0  0  0  0  0  0  0  # atno 17320 bound_to 7965
  146.3342  140.2700  142.8605 LP  0  0  0  0  0  0  0  0  0  0  0  0  # atno 17321 bound_to 7965
  139.9013  144.6910  150.8662 LP  0  0  0  0  0  0  0  0  0  0  0  0  # atno 17342 bound_to 10162
  140.7727  143.3511  151.2012 LP  0  0  0  0  0  0  0  0  0  0  0  0  # atno 17343 bound_to 10162
  156.5514  130.4232  149.6106 LP  0  0  0  0  0  0  0  0  0  0  0  0  # atno 17370 bound_to 10713
  156.2900  130.7118  151.1965 LP  0  0  0  0  0  0  0  0  0  0  0  0  # atno 17371 bound_to 10713
  140.1917  134.8961  157.3068 LP  0  0  0  0  0  0  0  0  0  0  0  0  # atno 17394 bound_to 11000
  140.2283  134.3940  155.7533 LP  0  0  0  0  0  0  0  0  0  0  0  0  # atno 17395 bound_to 11000

$$$$
