AV-unprocessed.smi:1830|AV-procd|sdf|7450|dock4
  -GOLD-   22720 9143D 1   1.00000     0.00000
 Structure written by MMmdl.
 54 57  0  0  0  0  0  0  0  0  3 V2000
  146.5781  137.3339  153.3272 O   0  0  0  0  0  0  0  0  0  0  0  0
  145.7483  138.2342  153.2031 C   0  0  0  0  0  0  0  0  0  0  0  0
  144.5224  138.0445  152.6959 N   0  0  0  0  0  0  0  0  0  0  0  0
  144.0056  136.7649  152.2212 C   0  0  0  0  0  0  0  0  0  0  0  0
  144.3933  135.6003  153.1600 C   0  0  2  0  0  0  0  0  0  0  0  0
  145.6063  134.7877  152.6447 C   0  0  0  0  0  0  0  0  0  0  0  0
  145.1725  133.9255  151.5299 N   0  3  1  0  0  0  0  0  0  0  0  0
  146.1788  133.0630  150.8869 C   0  0  0  0  0  0  0  0  0  0  0  0
  145.3686  131.9145  150.2535 C   0  0  0  0  0  0  0  0  0  0  0  0
  143.9200  132.1088  150.7362 C   0  0  0  0  0  0  0  0  0  0  0  0
  144.0760  133.0424  151.9327 C   0  0  2  0  0  0  0  0  0  0  0  0
  142.8699  133.8951  152.3428 C   0  0  0  0  0  0  0  0  0  0  0  0
  143.2739  134.7396  153.4243 O   0  0  0  0  0  0  0  0  0  0  0  0
  145.9482  139.5210  153.5336 N   0  0  0  0  0  0  0  0  0  0  0  0
  147.1318  140.1152  154.0567 C   0  0  0  0  0  0  0  0  0  0  0  0
  148.3314  139.3694  154.1897 C   0  0  0  0  0  0  0  0  0  0  0  0
  149.4930  139.9887  154.6874 C   0  0  0  0  0  0  0  0  0  0  0  0
  149.4379  141.3453  155.0499 C   0  0  0  0  0  0  0  0  0  0  0  0
  148.2771  142.0223  154.9320 N   0  3  0  0  0  0  0  0  0  0  0  0
  147.1217  141.4781  154.4743 C   0  0  0  0  0  0  0  0  0  0  0  0
  145.9783  142.3073  154.4195 N   0  0  0  0  0  0  0  0  0  0  0  0
  145.9332  143.4440  153.5071 C   0  0  0  0  0  0  0  0  0  0  0  0
  144.7381  144.2728  153.9687 C   0  0  0  0  0  0  0  0  0  0  0  0
  144.7744  144.0857  155.4827 C   0  0  0  0  0  0  0  0  0  0  0  0
  145.2970  142.6561  155.6623 C   0  0  0  0  0  0  0  0  0  0  0  0
  143.9037  138.8394  152.6287 H   0  0  0  0  0  0  0  0  0  0  0  0
  142.9236  136.8485  152.1244 H   0  0  0  0  0  0  0  0  0  0  0  0
  144.3798  136.5734  151.2139 H   0  0  0  0  0  0  0  0  0  0  0  0
  144.6815  136.0323  154.1187 H   0  0  0  0  0  0  0  0  0  0  0  0
  146.4101  135.4489  152.3192 H   0  0  0  0  0  0  0  0  0  0  0  0
  146.0081  134.1670  153.4472 H   0  0  0  0  0  0  0  0  0  0  0  0
  146.7606  133.6212  150.1530 H   0  0  0  0  0  0  0  0  0  0  0  0
  146.8660  132.6680  151.6369 H   0  0  0  0  0  0  0  0  0  0  0  0
  145.4220  131.9359  149.1646 H   0  0  0  0  0  0  0  0  0  0  0  0
  145.7618  130.9518  150.5823 H   0  0  0  0  0  0  0  0  0  0  0  0
  143.3313  132.5919  149.9549 H   0  0  0  0  0  0  0  0  0  0  0  0
  143.4295  131.1699  150.9950 H   0  0  0  0  0  0  0  0  0  0  0  0
  144.4011  132.4496  152.7906 H   0  0  0  0  0  0  0  0  0  0  0  0
  142.4927  134.4850  151.5070 H   0  0  0  0  0  0  0  0  0  0  0  0
  142.0513  133.2586  152.6783 H   0  0  0  0  0  0  0  0  0  0  0  0
  145.2121  140.1642  153.2819 H   0  0  0  0  0  0  0  0  0  0  0  0
  148.3776  138.3250  153.9209 H   0  0  0  0  0  0  0  0  0  0  0  0
  150.4125  139.4304  154.7871 H   0  0  0  0  0  0  0  0  0  0  0  0
  150.2780  141.9040  155.4365 H   0  0  0  0  0  0  0  0  0  0  0  0
  146.8441  144.0382  153.5910 H   0  0  0  0  0  0  0  0  0  0  0  0
  145.8254  143.1205  152.4713 H   0  0  0  0  0  0  0  0  0  0  0  0
  144.8013  145.3178  153.6633 H   0  0  0  0  0  0  0  0  0  0  0  0
  143.8151  143.8551  153.5640 H   0  0  0  0  0  0  0  0  0  0  0  0
  145.4802  144.7926  155.9212 H   0  0  0  0  0  0  0  0  0  0  0  0
  143.8045  144.2446  155.9550 H   0  0  0  0  0  0  0  0  0  0  0  0
  144.4614  141.9713  155.8096 H   0  0  0  0  0  0  0  0  0  0  0  0
  145.9570  142.5814  156.5279 H   0  0  0  0  0  0  0  0  0  0  0  0
  144.8067  134.5263  150.8052 H   0  0  0  0  0  0  0  0  0  0  0  0
  148.2669  143.0028  155.2132 H   0  0  0  0  0  0  0  0  0  0  0  0
  1  2  2  0  0  0  0
  2  3  1  0  0  0  0
  2 14  1  0  0  0  0
  3  4  1  0  0  0  0
  3 26  1  0  0  0  0
  4  5  1  0  0  0  0
  4 27  1  0  0  0  0
  4 28  1  0  0  0  0
  5 13  1  0  0  0  0
  5  6  1  0  0  0  0
  5 29  1  0  0  0  0
  6  7  1  0  0  0  0
  6 30  1  0  0  0  0
  6 31  1  0  0  0  0
  7 11  1  0  0  0  0
  7  8  1  0  0  0  0
  7 53  1  0  0  0  0
  8  9  1  0  0  0  0
  8 32  1  0  0  0  0
  8 33  1  0  0  0  0
  9 10  1  0  0  0  0
  9 34  1  0  0  0  0
  9 35  1  0  0  0  0
 10 11  1  0  0  0  0
 10 36  1  0  0  0  0
 10 37  1  0  0  0  0
 11 12  1  0  0  0  0
 11 38  1  0  0  0  0
 12 13  1  0  0  0  0
 12 39  1  0  0  0  0
 12 40  1  0  0  0  0
 14 15  1  0  0  0  0
 14 41  1  0  0  0  0
 15 20  1  0  0  0  0
 15 16  2  0  0  0  0
 16 17  1  0  0  0  0
 16 42  1  0  0  0  0
 17 18  2  0  0  0  0
 17 43  1  0  0  0  0
 18 19  1  0  0  0  0
 18 44  1  0  0  0  0
 19 20  2  0  0  0  0
 19 54  1  0  0  0  0
 20 21  1  0  0  0  0
 21 25  1  0  0  0  0
 21 22  1  0  0  0  0
 22 23  1  0  0  0  0
 22 45  1  0  0  0  0
 22 46  1  0  0  0  0
 23 24  1  0  0  0  0
 23 47  1  0  0  0  0
 23 48  1  0  0  0  0
 24 25  1  0  0  0  0
 24 49  1  0  0  0  0
 24 50  1  0  0  0  0
 25 51  1  0  0  0  0
 25 52  1  0  0  0  0
M  CHG  1   7   1
M  CHG  1  19   1
M  END
> <s_m_source_file>
AV-unprocessed.smi

> <i_m_source_file_index>
1830

> <i_lp_mmshare_version>
43012

> <i_f3d_flags>
0

> <s_epik_input>
W0NIMl0xW0NIMl1bQ0gyXVtDQEhdKE4xMilbQ0gyXU9bQ0BASF0oW0NIMl0yKVtDSDJdW05IXUMoPU8pW05IXWMzW2NIXVtjSF1bY0hdbmMzTjRbQ0gyXVtDSDJdW0NIMl1bQ0gyXTQ=

> <s_epik_cmdline>
J2VwaWtfcHl0aG9uJywgJy1waCcsICc3LjAnLCAnLXRuJywgJzgnLCAnLW1hJywgJzIwMCcsICctbWV0YWxfYmluZGluZycsICctaW1hZScsICc8aW5maWxlLm1hZT4nLCAnLW9tYWUnLCAnPG91dGZpbGUubWFlPic=

> <r_lp_tautomer_probability>
0.999994

> <r_epik_Ionization_Penalty>
1.29113

> <r_epik_Ionization_Penalty_Charging>
1.29111

> <r_epik_Ionization_Penalty_Neutral>
1.88144e-05

> <r_epik_State_Penalty>
1.32676

> <r_epik_Charging_Adjusted_Penalty>
2.61787

> <i_epik_Tot_Q>
2

> <i_epik_Tot_abs_Q>
2

> <r_epik_Metal_State_Penalty>
1.40425

> <b_epik_Metal_Only>
0

> <s_lp_Force_Field>
OPLS_2005

> <r_lp_Energy>
76.6475

> <b_lp_Chiralities_Consistent>
1

> <s_lp_Variant>
AV-unprocessed.smi:1830-19

> <Gold.Version>
5.8.1

> <Gold.Id.Protein>
6NUR|6NUR_protein|mol2

> <Gold.PLP.Fitness>
53.3687

> <Gold.PLP.PLP>
-42.8424

> <Gold.PLP.part.hbond>
-4.0000

> <Gold.PLP.part.metal>
0.0000

> <Gold.PLP.part.buried>
-5.6069

> <Gold.PLP.part.nonpolar>
-35.3137

> <Gold.PLP.part.repulsive>
2.9044

> <Gold.PLP.ligand.clash>
0.0000

> <Gold.PLP.ligand.torsion>
0.9355

> <Gold.PLP.Chemscore.Hbond>
4.0000

> <Gold.PLP.Chemscore.CHOScore>
0.0000

> <Gold.PLP.Chemscore.Metal>
0.0000

> <Gold.Chemscore.Hbonds>
donor molecule, donor type, donor heavy atom, donor atom, acceptor molecule, acceptor atom, score
      L1  H     3    26       P1 10175  1.00
      L1  H    14    41       P1 10175  0.99
      L1  H    19    54       P1  8028  2.00

> <Gold.PLP.Chemscore.Internal.Correction>
0.3974

> <Gold.Rescore>
     Score         DG    S(hbond)    S(metal)    S(lipo)     H(rot)  DE(clash)    DE(int)     intcor
     18.48     -23.19       2.92        0.00      99.22       1.43       2.39       2.33       ----

> <Gold.Chemscore.Fitness>
18.4755

> <Gold.Chemscore.DG>
-23.1905

> <Gold.Chemscore.ZeroCoef>
-5.4800

> <Gold.Chemscore.Hbond>
2.9213

> <Gold.Chemscore.Metal>
0.0000

> <Gold.Chemscore.Lipo>
99.2172

> <Gold.Chemscore.Internal_Hbond>
0.0000

> <Gold.Chemscore.DEClash>
2.3897

> <Gold.Chemscore.DEInternal>
2.3253

> <Gold.Chemscore.Rot>
1.4278

> <Gold.Chemscore.Internal.Correction>
   9.000000E+99

> <Gold.Chemscore.Hbonds>
donor molecule, donor type, donor heavy atom, donor atom, acceptor molecule, acceptor atom, score
      L1  H     3    26       P1 10175  0.96
      L1  H    14    41       P1 10175  0.94
      L1  H    19    54       P1  8028  0.98

> <Gold.Chemscore.Hbond.Weighted>
-9.7572

> <Gold.Chemscore.Metal.Weighted>
-0.0000

> <Gold.Chemscore.Lipo.Weighted>
-11.6084

> <Gold.Chemscore.Internal_Hbond.Weighted>
0.0000

> <Gold.Chemscore.DEClash.Weighted>
2.3897

> <Gold.Chemscore.DEInternal.Weighted>
2.3253

> <Gold.Chemscore.Rot.Weighted>
3.6551

> <Gold.Chemscore.Internal.Correction.Weighted>
   9.000000E+99

> <Gold.Protein.RotatedTorsions>
[ 6907 6896 6895 6894 ] final  -71.78 input  -60.11 | X-H torsion
[ 7974 7965 7964 7962 ] final -145.78 input  175.53 | X-H torsion
[ 8008 7997 7996 7995 ] final -105.43 input   59.86 | X-H torsion
[ 10167 10162 10161 10158 ] final   -8.06 input  -65.29 | X-H torsion
[ 10718 10713 10712 10709 ] final  -40.01 input   66.30 | X-H torsion
[ 10763 10752 10751 10750 ] final  -35.21 input  -60.55 | X-H torsion
[ 11005 11000 10999 10996 ] final   48.65 input  -57.11 | X-H torsion

> <Gold.Protein.ActiveResidues>
 VAL166  LYS551  ARG553  GLY616  TRP617  ASP618  TYR619  PRO620  LYS621  CYS622 
 ASP623  PHE694  ASN695  SER759  ASP760  ASP761  ALA762  ILE779  LEU786  VAL792 
 PHE793  MET794  SER795  GLU796  ALA797  LYS798  CYS799  TRP800  GLU811  SER814 

> <Gold.Protein.RotatedAtoms>
  150.7198  134.5259  159.5676 H   0  0  0  0  0  0  0  0  0  0  0  0  # atno 6907 bound_to 6896
  152.2803  134.7832  160.0407 H   0  0  0  0  0  0  0  0  0  0  0  0  # atno 6908 bound_to 6896
  151.8481  133.3400  159.3701 H   0  0  0  0  0  0  0  0  0  0  0  0  # atno 6909 bound_to 6896
  144.8204  140.5540  143.5582 H   0  0  0  0  0  0  0  0  0  0  0  0  # atno 7974 bound_to 7965
  154.8998  140.0413  157.1886 H   0  0  0  0  0  0  0  0  0  0  0  0  # atno 8008 bound_to 7997
  154.8455  140.2921  155.5610 H   0  0  0  0  0  0  0  0  0  0  0  0  # atno 8009 bound_to 7997
  156.2994  140.2474  156.3405 H   0  0  0  0  0  0  0  0  0  0  0  0  # atno 8010 bound_to 7997
  140.7047  143.6011  150.8796 H   0  0  0  0  0  0  0  0  0  0  0  0  # atno 10167 bound_to 10162
  156.2860  130.4222  149.8287 H   0  0  0  0  0  0  0  0  0  0  0  0  # atno 10718 bound_to 10713
  153.8595  135.6841  153.4784 H   0  0  0  0  0  0  0  0  0  0  0  0  # atno 10763 bound_to 10752
  153.1350  135.4681  154.9406 H   0  0  0  0  0  0  0  0  0  0  0  0  # atno 10764 bound_to 10752
  154.7765  135.3255  154.8030 H   0  0  0  0  0  0  0  0  0  0  0  0  # atno 10765 bound_to 10752
  140.1172  134.4877  155.8628 H   0  0  0  0  0  0  0  0  0  0  0  0  # atno 11005 bound_to 11000
  145.5118  139.1479  143.3600 LP  0  0  0  0  0  0  0  0  0  0  0  0  # atno 17320 bound_to 7965
  146.2509  140.5259  142.8894 LP  0  0  0  0  0  0  0  0  0  0  0  0  # atno 17321 bound_to 7965
  139.9736  143.6029  152.2966 LP  0  0  0  0  0  0  0  0  0  0  0  0  # atno 17342 bound_to 10162
  139.6625  144.7662  151.1936 LP  0  0  0  0  0  0  0  0  0  0  0  0  # atno 17343 bound_to 10162
  156.5717  130.8427  151.3358 LP  0  0  0  0  0  0  0  0  0  0  0  0  # atno 17370 bound_to 10713
  157.7329  130.9722  150.1949 LP  0  0  0  0  0  0  0  0  0  0  0  0  # atno 17371 bound_to 10713
  141.2144  133.6747  156.6819 LP  0  0  0  0  0  0  0  0  0  0  0  0  # atno 17394 bound_to 11000
  140.3013  134.8161  157.4100 LP  0  0  0  0  0  0  0  0  0  0  0  0  # atno 17395 bound_to 11000

$$$$
