AV-unprocessed.smi:199|AV-procd|sdf|1565|dock1
  -GOLD-   2262019443D 1   1.00000     0.00000
 Structure written by MMmdl.
 51 55  0  0  0  0  0  0  0  0  1 V2000
  153.1031  138.6780  154.7455 C   0  0  0  0  0  0  0  0  0  0  0  0
  152.1510  138.7614  155.9497 C   0  0  1  0  0  0  0  0  0  0  0  0
  152.6013  139.7381  156.8776 O   0  0  0  0  0  0  0  0  0  0  0  0
  151.5087  140.0359  157.7275 C   0  0  0  0  0  0  0  0  0  0  0  0
  150.3472  140.1581  156.7489 C   0  0  0  0  0  0  0  0  0  0  0  0
  150.6728  139.1335  155.6575 C   0  0  1  0  0  0  0  0  0  0  0  0
  150.5289  139.7714  154.3989 O   0  0  0  0  0  0  0  0  0  0  0  0
  149.7168  137.9153  155.6962 C   0  0  0  0  0  0  0  0  0  0  0  0
  149.4499  137.4277  157.0415 N   0  0  0  0  0  0  0  0  0  0  0  0
  150.3798  137.0258  157.9729 C   0  0  0  0  0  0  0  0  0  0  0  0
  149.8887  136.6362  159.1165 N   0  0  0  0  0  0  0  0  0  0  0  0
  148.5131  136.7610  158.9617 C   0  0  0  0  0  0  0  0  0  0  0  0
  147.3880  136.5131  159.8009 C   0  0  0  0  0  0  0  0  0  0  0  0
  147.4845  136.0379  161.0728 N   0  0  0  0  0  0  0  0  0  0  0  0
  147.0498  136.8409  162.2086 C   0  0  2  0  0  0  0  0  0  0  0  0
  147.5370  136.0041  163.4027 C   0  0  0  0  0  0  0  0  0  0  0  0
  147.3338  134.5783  162.8685 C   0  0  0  0  0  0  0  0  0  0  0  0
  146.7371  134.8550  161.4744 C   0  0  1  0  0  0  0  0  0  0  0  0
  145.2787  135.3739  161.5658 C   0  0  1  0  0  0  0  0  0  0  0  0
  144.2650  134.5068  162.3354 C   0  0  0  0  0  0  0  0  0  0  0  0
  144.4018  133.1510  161.9677 O   0  0  0  0  0  0  0  0  0  0  0  0
  145.5073  136.7764  162.1580 C   0  0  0  0  0  0  0  0  0  0  0  0
  146.1592  136.7971  159.2924 N   0  0  0  0  0  0  0  0  0  0  0  0
  146.0305  137.2601  158.0463 C   0  0  0  0  0  0  0  0  0  0  0  0
  146.9841  137.5193  157.1511 N   0  0  0  0  0  0  0  0  0  0  0  0
  148.2223  137.2603  157.6594 C   0  0  0  0  0  0  0  0  0  0  0  0
  152.7565  137.9410  154.0205 H   0  0  0  0  0  0  0  0  0  0  0  0
  154.1027  138.3827  155.0645 H   0  0  0  0  0  0  0  0  0  0  0  0
  153.1919  139.6382  154.2369 H   0  0  0  0  0  0  0  0  0  0  0  0
  152.1852  137.8102  156.4820 H   0  0  0  0  0  0  0  0  0  0  0  0
  151.3485  139.2137  158.4269 H   0  0  0  0  0  0  0  0  0  0  0  0
  151.6776  140.9489  158.2987 H   0  0  0  0  0  0  0  0  0  0  0  0
  149.3827  139.9915  157.2298 H   0  0  0  0  0  0  0  0  0  0  0  0
  150.3375  141.1719  156.3448 H   0  0  0  0  0  0  0  0  0  0  0  0
  150.1375  139.1592  153.7950 H   0  0  0  0  0  0  0  0  0  0  0  0
  148.7646  138.1736  155.2311 H   0  0  0  0  0  0  0  0  0  0  0  0
  150.1255  137.0913  155.1098 H   0  0  0  0  0  0  0  0  0  0  0  0
  151.4426  137.0391  157.7800 H   0  0  0  0  0  0  0  0  0  0  0  0
  147.4412  137.8588  162.2286 H   0  0  0  0  0  0  0  0  0  0  0  0
  148.5924  136.1900  163.6063 H   0  0  0  0  0  0  0  0  0  0  0  0
  146.9744  136.2017  164.3158 H   0  0  0  0  0  0  0  0  0  0  0  0
  148.2961  134.0733  162.7741 H   0  0  0  0  0  0  0  0  0  0  0  0
  146.7049  133.9611  163.5082 H   0  0  0  0  0  0  0  0  0  0  0  0
  146.8393  133.9951  160.8148 H   0  0  0  0  0  0  0  0  0  0  0  0
  144.8992  135.4942  160.5492 H   0  0  0  0  0  0  0  0  0  0  0  0
  144.3730  134.6068  163.4146 H   0  0  0  0  0  0  0  0  0  0  0  0
  143.2509  134.8256  162.0949 H   0  0  0  0  0  0  0  0  0  0  0  0
  143.5700  132.8425  161.6422 H   0  0  0  0  0  0  0  0  0  0  0  0
  145.0556  136.9096  163.1419 H   0  0  0  0  0  0  0  0  0  0  0  0
  145.0976  137.5421  161.4981 H   0  0  0  0  0  0  0  0  0  0  0  0
  145.0188  137.4502  157.7201 H   0  0  0  0  0  0  0  0  0  0  0  0
  1  2  1  0  0  0  0
  1 27  1  0  0  0  0
  1 28  1  0  0  0  0
  1 29  1  0  0  0  0
  2  6  1  0  0  0  0
  2  3  1  0  0  0  0
  2 30  1  0  0  0  0
  3  4  1  0  0  0  0
  4  5  1  0  0  0  0
  4 31  1  0  0  0  0
  4 32  1  0  0  0  0
  5  6  1  0  0  0  0
  5 33  1  0  0  0  0
  5 34  1  0  0  0  0
  6  7  1  0  0  0  0
  6  8  1  0  0  0  0
  7 35  1  0  0  0  0
  8  9  1  0  0  0  0
  8 36  1  0  0  0  0
  8 37  1  0  0  0  0
  9 26  1  0  0  0  0
  9 10  1  0  0  0  0
 10 11  2  0  0  0  0
 10 38  1  0  0  0  0
 11 12  1  0  0  0  0
 12 26  2  0  0  0  0
 12 13  1  0  0  0  0
 13 14  1  0  0  0  0
 13 23  2  0  0  0  0
 14 18  1  0  0  0  0
 14 15  1  0  0  0  0
 15 22  1  0  0  0  0
 15 16  1  0  0  0  0
 15 39  1  0  0  0  0
 16 17  1  0  0  0  0
 16 40  1  0  0  0  0
 16 41  1  0  0  0  0
 17 18  1  0  0  0  0
 17 42  1  0  0  0  0
 17 43  1  0  0  0  0
 18 19  1  0  0  0  0
 18 44  1  0  0  0  0
 19 20  1  0  0  0  0
 19 22  1  0  0  0  0
 19 45  1  0  0  0  0
 20 21  1  0  0  0  0
 20 46  1  0  0  0  0
 20 47  1  0  0  0  0
 21 48  1  0  0  0  0
 22 49  1  0  0  0  0
 22 50  1  0  0  0  0
 23 24  1  0  0  0  0
 24 25  2  0  0  0  0
 24 51  1  0  0  0  0
 25 26  1  0  0  0  0
M  END
> <s_m_source_file>
AV-unprocessed.smi

> <i_m_source_file_index>
199

> <i_lp_mmshare_version>
43012

> <i_f3d_flags>
0

> <s_epik_input>
W0NIMl0xW0NIMl1PW0NAQEhdKFtDSDNdKVtDQEBdMShbT0hdKVtDSDJdbihbY0hdbjIpYyhjMjMpbltjSF1uYzNOKFtDQEBIXTQ1KVtDQEhdKFtDSDJdW0NIMl00KVtDQEhdKFtDSDJdNSlbQ0gyXVtPSF0=

> <s_epik_cmdline>
J2VwaWtfcHl0aG9uJywgJy1waCcsICc3LjAnLCAnLXRuJywgJzgnLCAnLW1hJywgJzIwMCcsICctbWV0YWxfYmluZGluZycsICctaW1hZScsICc8aW5maWxlLm1hZT4nLCAnLW9tYWUnLCAnPG91dGZpbGUubWFlPic=

> <r_lp_tautomer_probability>
1

> <r_epik_Ionization_Penalty>
0.00583903

> <r_epik_Ionization_Penalty_Charging>
0

> <r_epik_Ionization_Penalty_Neutral>
0.00583903

> <r_epik_State_Penalty>
-0

> <r_epik_Charging_Adjusted_Penalty>
0

> <i_epik_Tot_Q>
0

> <i_epik_Tot_abs_Q>
0

> <r_epik_Metal_State_Penalty>
-0

> <b_epik_Metal_Only>
0

> <s_lp_Force_Field>
OPLS_2005

> <r_lp_Energy>
84.4473

> <b_lp_Chiralities_Consistent>
1

> <s_lp_Variant>
AV-unprocessed.smi:199-6

> <Gold.Version>
5.8.1

> <Gold.Id.Protein>
6NUR|6NUR_protein|mol2

> <Gold.PLP.Fitness>
46.5327

> <Gold.PLP.PLP>
-38.2786

> <Gold.PLP.part.hbond>
-2.9591

> <Gold.PLP.part.metal>
0.0000

> <Gold.PLP.part.buried>
-7.7059

> <Gold.PLP.part.nonpolar>
-28.4806

> <Gold.PLP.part.repulsive>
0.0000

> <Gold.PLP.ligand.clash>
0.0000

> <Gold.PLP.ligand.torsion>
0.3847

> <Gold.PLP.Chemscore.Hbond>
2.9750

> <Gold.PLP.Chemscore.CHOScore>
0.0000

> <Gold.PLP.Chemscore.Metal>
0.0000

> <Gold.Chemscore.Hbonds>
donor molecule, donor type, donor heavy atom, donor atom, acceptor molecule, acceptor atom, score
      P1  H  6896  6909       L1    11  0.88
      P1  H  7989  7998       L1     7  1.00
      P1  H  7997  8010       L1     3  1.00

> <Gold.PLP.Chemscore.Internal.Correction>
0.0984

> <Gold.Rescore>
     Score         DG    S(hbond)    S(metal)    S(lipo)     H(rot)  DE(clash)    DE(int)     intcor
     14.51     -17.69       2.71        0.00      94.28       3.07       0.32       2.85       ----

> <Gold.Chemscore.Fitness>
14.5148

> <Gold.Chemscore.DG>
-17.6864

> <Gold.Chemscore.ZeroCoef>
-5.4800

> <Gold.Chemscore.Hbond>
2.7074

> <Gold.Chemscore.Metal>
0.0000

> <Gold.Chemscore.Lipo>
94.2774

> <Gold.Chemscore.Internal_Hbond>
0.0000

> <Gold.Chemscore.DEClash>
0.3215

> <Gold.Chemscore.DEInternal>
2.8501

> <Gold.Chemscore.Rot>
3.0729

> <Gold.Chemscore.Internal.Correction>
   9.000000E+99

> <Gold.Chemscore.Hbonds>
donor molecule, donor type, donor heavy atom, donor atom, acceptor molecule, acceptor atom, score
      P1  H  6896  6909       L1    11  0.60
      P1  H  7989  7998       L1     7  0.70
      P1  H  7997  8010       L1     3  0.43

> <Gold.Chemscore.Hbond.Weighted>
-9.0427

> <Gold.Chemscore.Metal.Weighted>
-0.0000

> <Gold.Chemscore.Lipo.Weighted>
-11.0305

> <Gold.Chemscore.Internal_Hbond.Weighted>
0.0000

> <Gold.Chemscore.DEClash.Weighted>
0.3215

> <Gold.Chemscore.DEInternal.Weighted>
2.8501

> <Gold.Chemscore.Rot.Weighted>
7.8667

> <Gold.Chemscore.Internal.Correction.Weighted>
   9.000000E+99

> <Gold.Protein.RotatedTorsions>
[ 6907 6896 6895 6894 ] final   75.20 input  -60.11 | X-H torsion
[ 7974 7965 7964 7962 ] final  143.82 input  175.53 | X-H torsion
[ 8008 7997 7996 7995 ] final   80.90 input   59.86 | X-H torsion
[ 10167 10162 10161 10158 ] final -172.83 input  -65.29 | X-H torsion
[ 10718 10713 10712 10709 ] final  134.76 input   66.30 | X-H torsion
[ 10763 10752 10751 10750 ] final   21.92 input  -60.55 | X-H torsion
[ 11005 11000 10999 10996 ] final  -64.68 input  -57.11 | X-H torsion

> <Gold.Protein.ActiveResidues>
 VAL166  LYS551  ARG553  GLY616  TRP617  ASP618  TYR619  PRO620  LYS621  CYS622 
 ASP623  PHE694  ASN695  SER759  ASP760  ASP761  ALA762  ILE779  LEU786  VAL792 
 PHE793  MET794  SER795  GLU796  ALA797  LYS798  CYS799  TRP800  GLU811  SER814 

> <Gold.Protein.RotatedAtoms>
  152.5014  134.4156  159.9463 H   0  0  0  0  0  0  0  0  0  0  0  0  # atno 6907 bound_to 6896
  151.4127  133.3716  159.2754 H   0  0  0  0  0  0  0  0  0  0  0  0  # atno 6908 bound_to 6896
  150.9280  134.8718  159.7592 H   0  0  0  0  0  0  0  0  0  0  0  0  # atno 6909 bound_to 6896
  144.8888  139.5589  143.5808 H   0  0  0  0  0  0  0  0  0  0  0  0  # atno 7974 bound_to 7965
  155.8898  140.3439  155.5948 H   0  0  0  0  0  0  0  0  0  0  0  0  # atno 8008 bound_to 7997
  155.7624  140.0834  157.2168 H   0  0  0  0  0  0  0  0  0  0  0  0  # atno 8009 bound_to 7997
  154.4032  140.1533  156.2835 H   0  0  0  0  0  0  0  0  0  0  0  0  # atno 8010 bound_to 7997
  139.5722  144.1615  152.1400 H   0  0  0  0  0  0  0  0  0  0  0  0  # atno 10167 bound_to 10162
  157.4639  131.1075  150.9886 H   0  0  0  0  0  0  0  0  0  0  0  0  # atno 10718 bound_to 10713
  153.0956  135.6659  153.9769 H   0  0  0  0  0  0  0  0  0  0  0  0  # atno 10763 bound_to 10752
  153.9354  135.2999  155.3446 H   0  0  0  0  0  0  0  0  0  0  0  0  # atno 10764 bound_to 10752
  154.7374  135.5095  153.9139 H   0  0  0  0  0  0  0  0  0  0  0  0  # atno 10765 bound_to 10752
  141.1432  133.6669  156.5870 H   0  0  0  0  0  0  0  0  0  0  0  0  # atno 11005 bound_to 11000
  146.3041  139.7522  142.9069 LP  0  0  0  0  0  0  0  0  0  0  0  0  # atno 17320 bound_to 7965
  145.3820  141.0360  143.3172 LP  0  0  0  0  0  0  0  0  0  0  0  0  # atno 17321 bound_to 7965
  140.1150  144.5423  150.6900 LP  0  0  0  0  0  0  0  0  0  0  0  0  # atno 17342 bound_to 10162
  140.7006  143.2432  151.4875 LP  0  0  0  0  0  0  0  0  0  0  0  0  # atno 17343 bound_to 10162
  157.0673  130.5850  149.5396 LP  0  0  0  0  0  0  0  0  0  0  0  0  # atno 17370 bound_to 10713
  156.0041  130.5125  150.7769 LP  0  0  0  0  0  0  0  0  0  0  0  0  # atno 17371 bound_to 10713
  140.3793  134.7537  157.4651 LP  0  0  0  0  0  0  0  0  0  0  0  0  # atno 17394 bound_to 11000
  140.0650  134.5942  155.8706 LP  0  0  0  0  0  0  0  0  0  0  0  0  # atno 17395 bound_to 11000

$$$$
