AV-unprocessed.smi:1835|AV-procd|sdf|7474|dock7
  -GOLD-   22720 9173D 1   1.00000     0.00000
 Structure written by MMmdl.
 41 42  0  0  0  0  0  0  0  0  1 V2000
  152.2769  137.2273  156.4290 C   0  0  0  0  0  0  0  0  0  0  0  0
  151.0478  136.8010  155.5866 C   0  0  1  0  0  0  0  0  0  0  0  0
  150.6734  137.9654  154.6233 C   0  0  0  0  0  0  0  0  0  0  0  0
  150.2174  139.1689  155.3137 N   0  0  0  0  0  0  0  0  0  0  0  0
  150.9467  140.2816  155.4854 C   0  0  0  0  0  0  0  0  0  0  0  0
  152.0944  140.4072  155.0557 O   0  0  0  0  0  0  0  0  0  0  0  0
  150.2577  141.4261  156.2424 C   0  0  0  0  0  0  0  0  0  0  0  0
  151.0644  141.9612  157.3520 N   0  0  0  0  0  0  0  0  0  0  0  0
  151.2204  143.3604  157.4142 C   0  0  0  0  0  0  0  0  0  0  0  0
  151.9387  143.9523  158.3814 C   0  0  0  0  0  0  0  0  0  0  0  0
  152.5615  143.1148  159.3788 C   0  0  0  0  0  0  0  0  0  0  0  0
  152.4216  141.7751  159.3266 C   0  0  0  0  0  0  0  0  0  0  0  0
  151.6401  141.1235  158.2690 C   0  0  0  0  0  0  0  0  0  0  0  0
  151.5112  139.9001  158.2111 O   0  0  0  0  0  0  0  0  0  0  0  0
  151.2486  135.5075  154.8920 N   0  0  0  0  0  0  0  0  0  0  0  0
  151.4806  134.3983  155.8248 C   0  0  0  0  0  0  0  0  0  0  0  0
  151.6611  133.0463  155.1132 C   0  0  0  0  0  0  0  0  0  0  0  0
  150.5208  132.7729  154.3112 O   0  0  0  0  0  0  0  0  0  0  0  0
  150.2997  133.7843  153.3384 C   0  0  0  0  0  0  0  0  0  0  0  0
  150.1143  135.1442  154.0339 C   0  0  0  0  0  0  0  0  0  0  0  0
  152.1429  138.2019  156.8967 H   0  0  0  0  0  0  0  0  0  0  0  0
  153.1768  137.2794  155.8152 H   0  0  0  0  0  0  0  0  0  0  0  0
  152.4696  136.5430  157.2539 H   0  0  0  0  0  0  0  0  0  0  0  0
  150.2156  136.6782  156.2812 H   0  0  0  0  0  0  0  0  0  0  0  0
  151.5358  138.2319  154.0116 H   0  0  0  0  0  0  0  0  0  0  0  0
  149.8819  137.6869  153.9294 H   0  0  0  0  0  0  0  0  0  0  0  0
  149.2816  139.1505  155.6926 H   0  0  0  0  0  0  0  0  0  0  0  0
  150.0241  142.2145  155.5254 H   0  0  0  0  0  0  0  0  0  0  0  0
  149.2899  141.0833  156.6138 H   0  0  0  0  0  0  0  0  0  0  0  0
  150.7292  143.9140  156.6273 H   0  0  0  0  0  0  0  0  0  0  0  0
  152.0508  145.0262  158.4106 H   0  0  0  0  0  0  0  0  0  0  0  0
  153.1432  143.5645  160.1699 H   0  0  0  0  0  0  0  0  0  0  0  0
  152.8954  141.1644  160.0813 H   0  0  0  0  0  0  0  0  0  0  0  0
  152.3810  134.5713  156.4113 H   0  0  0  0  0  0  0  0  0  0  0  0
  150.6507  134.3278  156.5295 H   0  0  0  0  0  0  0  0  0  0  0  0
  152.5596  133.0519  154.4941 H   0  0  0  0  0  0  0  0  0  0  0  0
  151.7813  132.2471  155.8445 H   0  0  0  0  0  0  0  0  0  0  0  0
  151.1373  133.8183  152.6396 H   0  0  0  0  0  0  0  0  0  0  0  0
  149.4111  133.5318  152.7597 H   0  0  0  0  0  0  0  0  0  0  0  0
  149.1957  135.1273  154.6227 H   0  0  0  0  0  0  0  0  0  0  0  0
  149.9727  135.8810  153.2464 H   0  0  0  0  0  0  0  0  0  0  0  0
  1  2  1  0  0  0  0
  1 21  1  0  0  0  0
  1 22  1  0  0  0  0
  1 23  1  0  0  0  0
  2  3  1  0  0  0  0
  2 15  1  0  0  0  0
  2 24  1  0  0  0  0
  3  4  1  0  0  0  0
  3 25  1  0  0  0  0
  3 26  1  0  0  0  0
  4  5  1  0  0  0  0
  4 27  1  0  0  0  0
  5  6  2  0  0  0  0
  5  7  1  0  0  0  0
  7  8  1  0  0  0  0
  7 28  1  0  0  0  0
  7 29  1  0  0  0  0
  8 13  1  0  0  0  0
  8  9  1  0  0  0  0
  9 10  2  0  0  0  0
  9 30  1  0  0  0  0
 10 11  1  0  0  0  0
 10 31  1  0  0  0  0
 11 12  2  0  0  0  0
 11 32  1  0  0  0  0
 12 13  1  0  0  0  0
 12 33  1  0  0  0  0
 13 14  2  0  0  0  0
 15 20  1  0  0  0  0
 15 16  1  0  0  0  0
 16 17  1  0  0  0  0
 16 34  1  0  0  0  0
 16 35  1  0  0  0  0
 17 18  1  0  0  0  0
 17 36  1  0  0  0  0
 17 37  1  0  0  0  0
 18 19  1  0  0  0  0
 19 20  1  0  0  0  0
 19 38  1  0  0  0  0
 19 39  1  0  0  0  0
 20 40  1  0  0  0  0
 20 41  1  0  0  0  0
M  END
> <s_m_source_file>
AV-unprocessed.smi

> <i_m_source_file_index>
1835

> <i_lp_mmshare_version>
43012

> <i_f3d_flags>
0

> <s_epik_input>
W0NIMl0xW0NIMl1PW0NIMl1bQ0gyXU4xW0NASF0oW0NIM10pW0NIMl1bTkhdQyg9TylbQ0gyXW4yW2NIXVtjSF1bY0hdW2NIXWMyPU8=

> <s_epik_cmdline>
J2VwaWtfcHl0aG9uJywgJy1waCcsICc3LjAnLCAnLXRuJywgJzgnLCAnLW1hJywgJzIwMCcsICctbWV0YWxfYmluZGluZycsICctaW1hZScsICc8aW5maWxlLm1hZT4nLCAnLW9tYWUnLCAnPG91dGZpbGUubWFlPic=

> <r_lp_tautomer_probability>
1

> <r_epik_Ionization_Penalty>
0.237383

> <r_epik_Ionization_Penalty_Charging>
3.58805e-07

> <r_epik_Ionization_Penalty_Neutral>
0.237382

> <r_epik_State_Penalty>
0.228245

> <r_epik_Charging_Adjusted_Penalty>
0.228245

> <i_epik_Tot_Q>
0

> <i_epik_Tot_abs_Q>
0

> <r_epik_Metal_State_Penalty>
0.22822

> <b_epik_Metal_Only>
0

> <s_lp_Force_Field>
OPLS_2005

> <r_lp_Energy>
38.1368

> <b_lp_Chiralities_Consistent>
1

> <s_lp_Variant>
AV-unprocessed.smi:1835-2

> <Gold.Version>
5.8.1

> <Gold.Id.Protein>
6NUR|6NUR_protein|mol2

> <Gold.PLP.Fitness>
42.3295

> <Gold.PLP.PLP>
-36.0441

> <Gold.PLP.part.hbond>
-1.6441

> <Gold.PLP.part.metal>
0.0000

> <Gold.PLP.part.buried>
-3.1510

> <Gold.PLP.part.nonpolar>
-29.4459

> <Gold.PLP.part.repulsive>
0.1749

> <Gold.PLP.ligand.clash>
0.0000

> <Gold.PLP.ligand.torsion>
0.3468

> <Gold.PLP.Chemscore.Hbond>
1.3105

> <Gold.PLP.Chemscore.CHOScore>
1.0000

> <Gold.PLP.Chemscore.Metal>
0.0000

> <Gold.Chemscore.Hbonds>
donor molecule, donor type, donor heavy atom, donor atom, acceptor molecule, acceptor atom, score
      P1  H  7989  7998       L1     6  0.54
      P1  H 10752 10764       L1    15  0.35
      L1  C     9    30       P1  8028  1.00

> <Gold.PLP.Chemscore.Internal.Correction>
0.0474

> <Gold.Rescore>
     Score         DG    S(hbond)    S(metal)    S(lipo)     H(rot)  DE(clash)    DE(int)     intcor
     12.27     -14.08       0.96        0.00      87.55       1.89       0.03       1.77       ----

> <Gold.Chemscore.Fitness>
12.2736

> <Gold.Chemscore.DG>
-14.0807

> <Gold.Chemscore.ZeroCoef>
-5.4800

> <Gold.Chemscore.Hbond>
0.9554

> <Gold.Chemscore.Metal>
0.0000

> <Gold.Chemscore.Lipo>
87.5524

> <Gold.Chemscore.Internal_Hbond>
0.0000

> <Gold.Chemscore.DEClash>
0.0333

> <Gold.Chemscore.DEInternal>
1.7738

> <Gold.Chemscore.Rot>
1.8882

> <Gold.Chemscore.Internal.Correction>
   9.000000E+99

> <Gold.Chemscore.Hbonds>
donor molecule, donor type, donor heavy atom, donor atom, acceptor molecule, acceptor atom, score
      P1  H  7989  7998       L1     6  0.09
      P1  H  7997  8008       L1     6  0.01

> <Gold.Chemscore.Hbond.Weighted>
-3.1909

> <Gold.Chemscore.Metal.Weighted>
-0.0000

> <Gold.Chemscore.Lipo.Weighted>
-10.2436

> <Gold.Chemscore.Internal_Hbond.Weighted>
0.0000

> <Gold.Chemscore.DEClash.Weighted>
0.0333

> <Gold.Chemscore.DEInternal.Weighted>
1.7738

> <Gold.Chemscore.Rot.Weighted>
4.8338

> <Gold.Chemscore.Internal.Correction.Weighted>
   9.000000E+99

> <Gold.Protein.RotatedTorsions>
[ 6907 6896 6895 6894 ] final   21.98 input  -60.11 | X-H torsion
[ 7974 7965 7964 7962 ] final -138.51 input  175.53 | X-H torsion
[ 8008 7997 7996 7995 ] final  -27.71 input   59.86 | X-H torsion
[ 10167 10162 10161 10158 ] final  106.19 input  -65.29 | X-H torsion
[ 10718 10713 10712 10709 ] final   29.34 input   66.30 | X-H torsion
[ 10763 10752 10751 10750 ] final  -54.45 input  -60.55 | X-H torsion
[ 11005 11000 10999 10996 ] final  -44.37 input  -57.11 | X-H torsion

> <Gold.Protein.ActiveResidues>
 VAL166  LYS551  ARG553  GLY616  TRP617  ASP618  TYR619  PRO620  LYS621  CYS622 
 ASP623  PHE694  ASN695  SER759  ASP760  ASP761  ALA762  ILE779  LEU786  VAL792 
 PHE793  MET794  SER795  GLU796  ALA797  LYS798  CYS799  TRP800  GLU811  SER814 

> <Gold.Protein.RotatedAtoms>
  151.9201  135.0302  160.0521 H   0  0  0  0  0  0  0  0  0  0  0  0  # atno 6907 bound_to 6896
  152.2206  133.4976  159.5169 H   0  0  0  0  0  0  0  0  0  0  0  0  # atno 6908 bound_to 6896
  150.6999  134.1264  159.4096 H   0  0  0  0  0  0  0  0  0  0  0  0  # atno 6909 bound_to 6896
  144.8752  140.6426  143.5241 H   0  0  0  0  0  0  0  0  0  0  0  0  # atno 7974 bound_to 7965
  154.4365  140.1865  156.0974 H   0  0  0  0  0  0  0  0  0  0  0  0  # atno 8008 bound_to 7997
  156.0318  140.3329  155.7122 H   0  0  0  0  0  0  0  0  0  0  0  0  # atno 8009 bound_to 7997
  155.5828  140.0623  157.2769 H   0  0  0  0  0  0  0  0  0  0  0  0  # atno 8010 bound_to 7997
  139.7030  144.7091  151.1154 H   0  0  0  0  0  0  0  0  0  0  0  0  # atno 10167 bound_to 10162
  157.2453  130.7089  149.6378 H   0  0  0  0  0  0  0  0  0  0  0  0  # atno 10718 bound_to 10713
  154.1750  135.6453  153.5019 H   0  0  0  0  0  0  0  0  0  0  0  0  # atno 10763 bound_to 10752
  153.0074  135.5392  154.6574 H   0  0  0  0  0  0  0  0  0  0  0  0  # atno 10764 bound_to 10752
  154.5923  135.2935  155.0595 H   0  0  0  0  0  0  0  0  0  0  0  0  # atno 10765 bound_to 10752
  141.0446  133.6766  156.2863 H   0  0  0  0  0  0  0  0  0  0  0  0  # atno 11005 bound_to 11000
  145.4056  139.1589  143.4154 LP  0  0  0  0  0  0  0  0  0  0  0  0  # atno 17320 bound_to 7965
  146.2958  140.4156  142.8722 LP  0  0  0  0  0  0  0  0  0  0  0  0  # atno 17321 bound_to 7965
  140.7714  143.5398  150.9326 LP  0  0  0  0  0  0  0  0  0  0  0  0  # atno 17342 bound_to 10162
  139.9080  143.6755  152.3120 LP  0  0  0  0  0  0  0  0  0  0  0  0  # atno 17343 bound_to 10162
  155.9668  130.4445  150.5463 LP  0  0  0  0  0  0  0  0  0  0  0  0  # atno 17370 bound_to 10713
  157.3336  131.0704  151.1842 LP  0  0  0  0  0  0  0  0  0  0  0  0  # atno 17371 bound_to 10713
  140.6171  134.5399  157.5542 LP  0  0  0  0  0  0  0  0  0  0  0  0  # atno 17394 bound_to 11000
  139.9301  134.7979  156.0954 LP  0  0  0  0  0  0  0  0  0  0  0  0  # atno 17395 bound_to 11000

$$$$
