AV-unprocessed.smi:3147|AV-procd|sdf|11988|dock6
  -GOLD-   2272017393D 1   1.00000     0.00000
 Structure written by MMmdl.
 37 38  0  0  0  0  0  0  0  0  2 V2000
  146.5076  138.7443  152.1882 C   0  0  0  0  0  0  0  0  0  0  0  0
  147.6137  139.2313  153.0635 C   0  0  0  0  0  0  0  0  0  0  0  0
  148.7149  138.4611  153.3303 N   0  3  0  0  0  0  0  0  0  0  0  0
  149.5606  139.1117  154.1301 C   0  0  0  0  0  0  0  0  0  0  0  0
  149.0105  140.3036  154.3854 N   0  0  0  0  0  0  0  0  0  0  0  0
  149.6823  141.2990  155.2355 C   0  0  0  0  0  0  0  0  0  0  0  0
  150.9180  140.7350  155.9470 C   0  0  0  0  0  0  0  0  0  0  0  0
  151.8537  140.2525  155.3070 O   0  0  0  0  0  0  0  0  0  0  0  0
  150.9041  140.8034  157.2862 N   0  0  0  0  0  0  0  0  0  0  0  0
  151.9633  140.3136  158.1614 C   0  0  0  0  0  0  0  0  0  0  0  0
  152.0714  141.1517  159.4466 C   0  0  1  0  0  0  0  0  0  0  0  0
  153.4127  141.0105  160.1615 C   0  0  0  0  0  0  0  0  0  0  0  0
  153.4549  142.2837  160.9753 C   0  0  0  0  0  0  0  0  0  0  0  0
  152.8133  143.2930  160.0258 C   0  0  0  0  0  0  0  0  0  0  0  0
  151.9705  142.5425  159.1537 O   0  0  0  0  0  0  0  0  0  0  0  0
  147.7998  140.4170  153.7382 C   0  0  0  0  0  0  0  0  0  0  0  0
  146.9463  141.6413  153.8248 C   0  0  0  0  0  0  0  0  0  0  0  0
  145.7313  139.5022  152.0864 H   0  0  0  0  0  0  0  0  0  0  0  0
  146.0592  137.8460  152.6128 H   0  0  0  0  0  0  0  0  0  0  0  0
  146.8906  138.5077  151.1952 H   0  0  0  0  0  0  0  0  0  0  0  0
  150.5047  138.7475  154.4943 H   0  0  0  0  0  0  0  0  0  0  0  0
  149.9678  142.1494  154.6156 H   0  0  0  0  0  0  0  0  0  0  0  0
  148.9634  141.6634  155.9713 H   0  0  0  0  0  0  0  0  0  0  0  0
  150.0977  141.2134  157.7352 H   0  0  0  0  0  0  0  0  0  0  0  0
  151.7831  139.2659  158.4078 H   0  0  0  0  0  0  0  0  0  0  0  0
  152.9049  140.3445  157.6124 H   0  0  0  0  0  0  0  0  0  0  0  0
  151.2722  140.8931  160.1430 H   0  0  0  0  0  0  0  0  0  0  0  0
  153.4768  140.1096  160.7723 H   0  0  0  0  0  0  0  0  0  0  0  0
  154.2342  140.9981  159.4438 H   0  0  0  0  0  0  0  0  0  0  0  0
  152.8450  142.1721  161.8727 H   0  0  0  0  0  0  0  0  0  0  0  0
  154.4627  142.5659  161.2809 H   0  0  0  0  0  0  0  0  0  0  0  0
  152.2493  144.0574  160.5614 H   0  0  0  0  0  0  0  0  0  0  0  0
  153.5742  143.7931  159.4258 H   0  0  0  0  0  0  0  0  0  0  0  0
  146.1284  141.5944  153.1067 H   0  0  0  0  0  0  0  0  0  0  0  0
  147.5363  142.5325  153.6096 H   0  0  0  0  0  0  0  0  0  0  0  0
  146.5232  141.7348  154.8249 H   0  0  0  0  0  0  0  0  0  0  0  0
  148.8707  137.5284  152.9689 H   0  0  0  0  0  0  0  0  0  0  0  0
  1  2  1  0  0  0  0
  1 18  1  0  0  0  0
  1 19  1  0  0  0  0
  1 20  1  0  0  0  0
  2 16  2  0  0  0  0
  2  3  1  0  0  0  0
  3  4  2  0  0  0  0
  3 37  1  0  0  0  0
  4  5  1  0  0  0  0
  4 21  1  0  0  0  0
  5  6  1  0  0  0  0
  5 16  1  0  0  0  0
  6  7  1  0  0  0  0
  6 22  1  0  0  0  0
  6 23  1  0  0  0  0
  7  8  2  0  0  0  0
  7  9  1  0  0  0  0
  9 10  1  0  0  0  0
  9 24  1  0  0  0  0
 10 11  1  0  0  0  0
 10 25  1  0  0  0  0
 10 26  1  0  0  0  0
 11 15  1  0  0  0  0
 11 12  1  0  0  0  0
 11 27  1  0  0  0  0
 12 13  1  0  0  0  0
 12 28  1  0  0  0  0
 12 29  1  0  0  0  0
 13 14  1  0  0  0  0
 13 30  1  0  0  0  0
 13 31  1  0  0  0  0
 14 15  1  0  0  0  0
 14 32  1  0  0  0  0
 14 33  1  0  0  0  0
 16 17  1  0  0  0  0
 17 34  1  0  0  0  0
 17 35  1  0  0  0  0
 17 36  1  0  0  0  0
M  CHG  1   3   1
M  END
> <s_m_source_file>
AV-unprocessed.smi

> <i_m_source_file_index>
3147

> <i_lp_mmshare_version>
43012

> <i_f3d_flags>
0

> <s_epik_input>
W0NIM11jMW5bY0hdbihjMVtDSDNdKVtDSDJdQyg9TylbTkhdW0NIMl1bQ0BASF0yW0NIMl1bQ0gyXVtDSDJdTzI=

> <s_epik_cmdline>
J2VwaWtfcHl0aG9uJywgJy1waCcsICc3LjAnLCAnLXRuJywgJzgnLCAnLW1hJywgJzIwMCcsICctbWV0YWxfYmluZGluZycsICctaW1hZScsICc8aW5maWxlLm1hZT4nLCAnLW9tYWUnLCAnPG91dGZpbGUubWFlPic=

> <r_lp_tautomer_probability>
1

> <r_epik_Ionization_Penalty>
0.131257

> <r_epik_Ionization_Penalty_Charging>
0

> <r_epik_Ionization_Penalty_Neutral>
0.131257

> <r_epik_State_Penalty>
0.12065

> <r_epik_Charging_Adjusted_Penalty>
0.12065

> <i_epik_Tot_Q>
1

> <i_epik_Tot_abs_Q>
1

> <r_epik_Metal_State_Penalty>
0.448684

> <b_epik_Metal_Only>
0

> <s_lp_Force_Field>
OPLS_2005

> <r_lp_Energy>
19.5729

> <b_lp_Chiralities_Consistent>
1

> <s_lp_Variant>
AV-unprocessed.smi:3147-2

> <Gold.Version>
5.8.1

> <Gold.Id.Protein>
6NUR|6NUR_protein|mol2

> <Gold.PLP.Fitness>
47.4365

> <Gold.PLP.PLP>
-39.7741

> <Gold.PLP.part.hbond>
-3.0000

> <Gold.PLP.part.metal>
0.0000

> <Gold.PLP.part.buried>
-1.9891

> <Gold.PLP.part.nonpolar>
-35.6011

> <Gold.PLP.part.repulsive>
0.1159

> <Gold.PLP.ligand.clash>
0.0000

> <Gold.PLP.ligand.torsion>
0.4222

> <Gold.PLP.Chemscore.Hbond>
2.8320

> <Gold.PLP.Chemscore.CHOScore>
0.0000

> <Gold.PLP.Chemscore.Metal>
0.0000

> <Gold.Chemscore.Hbonds>
donor molecule, donor type, donor heavy atom, donor atom, acceptor molecule, acceptor atom, score
      L1  H     3    37       P1  7948  2.00
      P1  H  7989  7998       L1     8  0.82

> <Gold.PLP.Chemscore.Internal.Correction>
0.0109

> <Gold.Rescore>
     Score         DG    S(hbond)    S(metal)    S(lipo)     H(rot)  DE(clash)    DE(int)     intcor
     14.85     -16.65       1.78        0.00      83.04       1.76       0.09       1.71       ----

> <Gold.Chemscore.Fitness>
14.8476

> <Gold.Chemscore.DG>
-16.6500

> <Gold.Chemscore.ZeroCoef>
-5.4800

> <Gold.Chemscore.Hbond>
1.7825

> <Gold.Chemscore.Metal>
0.0000

> <Gold.Chemscore.Lipo>
83.0444

> <Gold.Chemscore.Internal_Hbond>
0.0000

> <Gold.Chemscore.DEClash>
0.0910

> <Gold.Chemscore.DEInternal>
1.7114

> <Gold.Chemscore.Rot>
1.7577

> <Gold.Chemscore.Internal.Correction>
   9.000000E+99

> <Gold.Chemscore.Hbonds>
donor molecule, donor type, donor heavy atom, donor atom, acceptor molecule, acceptor atom, score
      L1  H     3    37       P1  7948  0.99
      P1  H  7989  7998       L1     8  0.49

> <Gold.Chemscore.Hbond.Weighted>
-5.9536

> <Gold.Chemscore.Metal.Weighted>
-0.0000

> <Gold.Chemscore.Lipo.Weighted>
-9.7162

> <Gold.Chemscore.Internal_Hbond.Weighted>
0.0000

> <Gold.Chemscore.DEClash.Weighted>
0.0910

> <Gold.Chemscore.DEInternal.Weighted>
1.7114

> <Gold.Chemscore.Rot.Weighted>
4.4998

> <Gold.Chemscore.Internal.Correction.Weighted>
   9.000000E+99

> <Gold.Protein.RotatedTorsions>
[ 6907 6896 6895 6894 ] final  164.95 input  -60.11 | X-H torsion
[ 7974 7965 7964 7962 ] final -167.98 input  175.53 | X-H torsion
[ 8008 7997 7996 7995 ] final  -37.14 input   59.86 | X-H torsion
[ 10167 10162 10161 10158 ] final   82.20 input  -65.29 | X-H torsion
[ 10718 10713 10712 10709 ] final   35.28 input   66.30 | X-H torsion
[ 10763 10752 10751 10750 ] final  -56.24 input  -60.55 | X-H torsion
[ 11005 11000 10999 10996 ] final   47.91 input  -57.11 | X-H torsion

> <Gold.Protein.ActiveResidues>
 VAL166  LYS551  ARG553  GLY616  TRP617  ASP618  TYR619  PRO620  LYS621  CYS622 
 ASP623  PHE694  ASN695  SER759  ASP760  ASP761  ALA762  ILE779  LEU786  VAL792 
 PHE793  MET794  SER795  GLU796  ALA797  LYS798  CYS799  TRP800  GLU811  SER814 

> <Gold.Protein.RotatedAtoms>
  151.9019  133.3540  159.3833 H   0  0  0  0  0  0  0  0  0  0  0  0  # atno 6907 bound_to 6896
  150.7078  134.4819  159.5484 H   0  0  0  0  0  0  0  0  0  0  0  0  # atno 6908 bound_to 6896
  152.2409  134.8229  160.0511 H   0  0  0  0  0  0  0  0  0  0  0  0  # atno 6909 bound_to 6896
  144.7212  140.2438  143.6288 H   0  0  0  0  0  0  0  0  0  0  0  0  # atno 7974 bound_to 7965
  154.4059  140.1612  156.2488 H   0  0  0  0  0  0  0  0  0  0  0  0  # atno 8008 bound_to 7997
  155.9137  140.3425  155.6096 H   0  0  0  0  0  0  0  0  0  0  0  0  # atno 8009 bound_to 7997
  155.7305  140.0780  157.2281 H   0  0  0  0  0  0  0  0  0  0  0  0  # atno 8010 bound_to 7997
  139.9313  144.6150  150.8342 H   0  0  0  0  0  0  0  0  0  0  0  0  # atno 10167 bound_to 10162
  157.3207  130.7447  149.6783 H   0  0  0  0  0  0  0  0  0  0  0  0  # atno 10718 bound_to 10713
  154.2035  135.6407  153.5094 H   0  0  0  0  0  0  0  0  0  0  0  0  # atno 10763 bound_to 10752
  153.0006  135.5457  154.6291 H   0  0  0  0  0  0  0  0  0  0  0  0  # atno 10764 bound_to 10752
  154.5709  135.2917  155.0801 H   0  0  0  0  0  0  0  0  0  0  0  0  # atno 10765 bound_to 10752
  140.1238  134.4795  155.8576 H   0  0  0  0  0  0  0  0  0  0  0  0  # atno 11005 bound_to 11000
  145.8294  139.2079  143.1891 LP  0  0  0  0  0  0  0  0  0  0  0  0  # atno 17320 bound_to 7965
  146.0444  140.8133  142.9813 LP  0  0  0  0  0  0  0  0  0  0  0  0  # atno 17321 bound_to 7965
  140.7636  143.3228  151.2583 LP  0  0  0  0  0  0  0  0  0  0  0  0  # atno 17342 bound_to 10162
  139.6780  143.9904  152.2792 LP  0  0  0  0  0  0  0  0  0  0  0  0  # atno 17343 bound_to 10162
  155.9685  130.4224  150.4514 LP  0  0  0  0  0  0  0  0  0  0  0  0  # atno 17370 bound_to 10713
  157.2529  131.0550  151.2368 LP  0  0  0  0  0  0  0  0  0  0  0  0  # atno 17371 bound_to 10713
  141.2157  133.6770  156.6938 LP  0  0  0  0  0  0  0  0  0  0  0  0  # atno 17394 bound_to 11000
  140.2931  134.8224  157.4034 LP  0  0  0  0  0  0  0  0  0  0  0  0  # atno 17395 bound_to 11000

$$$$
