AV-unprocessed.smi:2403|AV-procd|sdf|9510|dock7
  -GOLD-   2272013143D 1   1.00000     0.00000
 Structure written by MMmdl.
 48 50  0  0  0  0  0  0  0  0  2 V2000
  150.9494  144.9765  158.3265 C   0  0  0  0  0  0  0  0  0  0  0  0
  151.5211  143.5911  158.5737 C   0  0  0  0  0  0  0  0  0  0  0  0
  152.5965  143.4313  159.4758 C   0  0  0  0  0  0  0  0  0  0  0  0
  153.1249  142.1456  159.7024 C   0  0  0  0  0  0  0  0  0  0  0  0
  152.6039  141.0833  159.0540 N   0  3  0  0  0  0  0  0  0  0  0  0
  151.5766  141.1867  158.1843 C   0  0  0  0  0  0  0  0  0  0  0  0
  150.9891  142.4496  157.9211 C   0  0  0  0  0  0  0  0  0  0  0  0
  149.9178  142.6189  156.9996 N   0  0  0  0  0  0  0  0  0  0  0  0
  149.1806  141.6662  156.4043 C   0  0  0  0  0  0  0  0  0  0  0  0
  149.3228  140.4553  156.5723 O   0  0  0  0  0  0  0  0  0  0  0  0
  148.2308  142.2053  155.6194 N   0  0  0  0  0  0  0  0  0  0  0  0
  147.2012  141.5008  154.8321 C   0  0  0  0  0  0  0  0  0  0  0  0
  145.9726  142.3963  154.4997 C   0  0  0  0  0  0  0  0  0  0  0  0
  144.8495  142.0689  154.8855 O   0  0  0  0  0  0  0  0  0  0  0  0
  146.1781  143.5082  153.7744 N   0  0  0  0  0  0  0  0  0  0  0  0
  145.1473  144.4571  153.3841 C   0  0  0  0  0  0  0  0  0  0  0  0
  144.2718  144.9089  154.5339 C   0  0  0  0  0  0  0  0  0  0  0  0
  142.8243  145.2740  154.3029 C   0  0  0  0  0  0  0  0  0  0  0  0
  143.8268  146.3475  154.6537 C   0  0  0  0  0  0  0  0  0  0  0  0
  147.8443  141.0322  153.5046 C   0  0  0  0  0  0  0  0  0  0  0  0
  147.2215  139.6762  153.1800 C   0  0  0  0  0  0  0  0  0  0  0  0
  147.0484  139.0190  154.5425 C   0  0  0  0  0  0  0  0  0  0  0  0
  146.7760  140.1666  155.5235 C   0  0  0  0  0  0  0  0  0  0  0  0
  151.4447  145.7274  158.9428 H   0  0  0  0  0  0  0  0  0  0  0  0
  149.8850  144.9976  158.5628 H   0  0  0  0  0  0  0  0  0  0  0  0
  151.0772  145.2600  157.2815 H   0  0  0  0  0  0  0  0  0  0  0  0
  153.0163  144.2836  159.9902 H   0  0  0  0  0  0  0  0  0  0  0  0
  153.9457  141.9371  160.3734 H   0  0  0  0  0  0  0  0  0  0  0  0
  151.2761  140.2562  157.7263 H   0  0  0  0  0  0  0  0  0  0  0  0
  149.6265  143.5724  156.8402 H   0  0  0  0  0  0  0  0  0  0  0  0
  148.2034  143.2127  155.5612 H   0  0  0  0  0  0  0  0  0  0  0  0
  147.1224  143.7152  153.4844 H   0  0  0  0  0  0  0  0  0  0  0  0
  145.6162  145.3264  152.9204 H   0  0  0  0  0  0  0  0  0  0  0  0
  144.5065  144.0006  152.6282 H   0  0  0  0  0  0  0  0  0  0  0  0
  144.4781  144.3908  155.4688 H   0  0  0  0  0  0  0  0  0  0  0  0
  142.4510  145.2517  153.2810 H   0  0  0  0  0  0  0  0  0  0  0  0
  142.1058  144.9878  155.0686 H   0  0  0  0  0  0  0  0  0  0  0  0
  143.7782  146.7754  155.6529 H   0  0  0  0  0  0  0  0  0  0  0  0
  144.1197  147.0375  153.8648 H   0  0  0  0  0  0  0  0  0  0  0  0
  147.7126  141.7399  152.6843 H   0  0  0  0  0  0  0  0  0  0  0  0
  148.9206  140.8992  153.6289 H   0  0  0  0  0  0  0  0  0  0  0  0
  146.2481  139.8160  152.7083 H   0  0  0  0  0  0  0  0  0  0  0  0
  147.8367  139.0823  152.5034 H   0  0  0  0  0  0  0  0  0  0  0  0
  146.2552  138.2708  154.5444 H   0  0  0  0  0  0  0  0  0  0  0  0
  147.9753  138.5157  154.8208 H   0  0  0  0  0  0  0  0  0  0  0  0
  147.3211  139.9769  156.4487 H   0  0  0  0  0  0  0  0  0  0  0  0
  145.7211  140.1707  155.8020 H   0  0  0  0  0  0  0  0  0  0  0  0
  153.0056  140.1610  159.2251 H   0  0  0  0  0  0  0  0  0  0  0  0
  1  2  1  0  0  0  0
  1 24  1  0  0  0  0
  1 25  1  0  0  0  0
  1 26  1  0  0  0  0
  2  7  1  0  0  0  0
  2  3  2  0  0  0  0
  3  4  1  0  0  0  0
  3 27  1  0  0  0  0
  4  5  2  0  0  0  0
  4 28  1  0  0  0  0
  5  6  1  0  0  0  0
  5 48  1  0  0  0  0
  6  7  2  0  0  0  0
  6 29  1  0  0  0  0
  7  8  1  0  0  0  0
  8  9  1  0  0  0  0
  8 30  1  0  0  0  0
  9 10  2  0  0  0  0
  9 11  1  0  0  0  0
 11 12  1  0  0  0  0
 11 31  1  0  0  0  0
 12 23  1  0  0  0  0
 12 13  1  0  0  0  0
 12 20  1  0  0  0  0
 13 14  2  0  0  0  0
 13 15  1  0  0  0  0
 15 16  1  0  0  0  0
 15 32  1  0  0  0  0
 16 17  1  0  0  0  0
 16 33  1  0  0  0  0
 16 34  1  0  0  0  0
 17 19  1  0  0  0  0
 17 18  1  0  0  0  0
 17 35  1  0  0  0  0
 18 19  1  0  0  0  0
 18 36  1  0  0  0  0
 18 37  1  0  0  0  0
 19 38  1  0  0  0  0
 19 39  1  0  0  0  0
 20 21  1  0  0  0  0
 20 40  1  0  0  0  0
 20 41  1  0  0  0  0
 21 22  1  0  0  0  0
 21 42  1  0  0  0  0
 21 43  1  0  0  0  0
 22 23  1  0  0  0  0
 22 44  1  0  0  0  0
 22 45  1  0  0  0  0
 23 46  1  0  0  0  0
 23 47  1  0  0  0  0
M  CHG  1   5   1
M  END
> <s_m_source_file>
AV-unprocessed.smi

> <i_m_source_file_index>
2403

> <i_lp_mmshare_version>
43012

> <i_f3d_flags>
0

> <s_epik_input>
W0NIM11jMVtjSF1bY0hdbltjSF1jMVtOSF1DKD1PKVtOSF1DMihbQ0gyXVtDSDJdW0NIMl1bQ0gyXTIpQyg9TylbTkhdW0NIMl1bQ0hdM1tDSDJdW0NIMl0z

> <s_epik_cmdline>
J2VwaWtfcHl0aG9uJywgJy1waCcsICc3LjAnLCAnLXRuJywgJzgnLCAnLW1hJywgJzIwMCcsICctbWV0YWxfYmluZGluZycsICctaW1hZScsICc8aW5maWxlLm1hZT4nLCAnLW9tYWUnLCAnPG91dGZpbGUubWFlPic=

> <r_epik_Ionization_Penalty>
2.03963

> <r_epik_Ionization_Penalty_Charging>
2.03961

> <r_epik_Ionization_Penalty_Neutral>
1.99712e-05

> <r_epik_State_Penalty>
2.17125

> <r_epik_Charging_Adjusted_Penalty>
4.21085

> <i_epik_Tot_Q>
1

> <i_epik_Tot_abs_Q>
1

> <r_epik_Metal_State_Penalty>
2.19001

> <b_epik_Metal_Only>
0

> <s_lp_Force_Field>
OPLS_2005

> <r_lp_Energy>
38.2062

> <b_lp_Chiralities_Consistent>
1

> <s_lp_Variant>
AV-unprocessed.smi:2403-2

> <Gold.Version>
5.8.1

> <Gold.Id.Protein>
6NUR|6NUR_protein|mol2

> <Gold.PLP.Fitness>
45.3744

> <Gold.PLP.PLP>
-41.1659

> <Gold.PLP.part.hbond>
-2.0000

> <Gold.PLP.part.metal>
0.0000

> <Gold.PLP.part.buried>
-5.0249

> <Gold.PLP.part.nonpolar>
-33.9108

> <Gold.PLP.part.repulsive>
0.5322

> <Gold.PLP.ligand.clash>
0.0000

> <Gold.PLP.ligand.torsion>
1.0920

> <Gold.PLP.Chemscore.Hbond>
1.9120

> <Gold.PLP.Chemscore.CHOScore>
0.0000

> <Gold.PLP.Chemscore.Metal>
0.0000

> <Gold.Chemscore.Hbonds>
donor molecule, donor type, donor heavy atom, donor atom, acceptor molecule, acceptor atom, score
      L1  H     8    30       P1  8028  0.93
      L1  H    11    31       P1  8028  1.00

> <Gold.PLP.Chemscore.Internal.Correction>
0.6565

> <Gold.Rescore>
     Score         DG    S(hbond)    S(metal)    S(lipo)     H(rot)  DE(clash)    DE(int)     intcor
     16.80     -20.83       1.91        0.00     112.41       1.63       0.21       3.83       ----

> <Gold.Chemscore.Fitness>
16.7977

> <Gold.Chemscore.DG>
-20.8303

> <Gold.Chemscore.ZeroCoef>
-5.4800

> <Gold.Chemscore.Hbond>
1.9065

> <Gold.Chemscore.Metal>
0.0000

> <Gold.Chemscore.Lipo>
112.4077

> <Gold.Chemscore.Internal_Hbond>
0.0000

> <Gold.Chemscore.DEClash>
0.2067

> <Gold.Chemscore.DEInternal>
3.8259

> <Gold.Chemscore.Rot>
1.6286

> <Gold.Chemscore.Internal.Correction>
   9.000000E+99

> <Gold.Chemscore.Hbonds>
donor molecule, donor type, donor heavy atom, donor atom, acceptor molecule, acceptor atom, score
      L1  H     8    30       P1  8028  0.88
      L1  H    11    31       P1  8028  0.86

> <Gold.Chemscore.Hbond.Weighted>
-6.3679

> <Gold.Chemscore.Metal.Weighted>
-0.0000

> <Gold.Chemscore.Lipo.Weighted>
-13.1517

> <Gold.Chemscore.Internal_Hbond.Weighted>
0.0000

> <Gold.Chemscore.DEClash.Weighted>
0.2067

> <Gold.Chemscore.DEInternal.Weighted>
3.8259

> <Gold.Chemscore.Rot.Weighted>
4.1692

> <Gold.Chemscore.Internal.Correction.Weighted>
   9.000000E+99

> <Gold.Protein.RotatedTorsions>
[ 6907 6896 6895 6894 ] final  -35.90 input  -60.11 | X-H torsion
[ 7974 7965 7964 7962 ] final -172.99 input  175.53 | X-H torsion
[ 8008 7997 7996 7995 ] final  160.27 input   59.86 | X-H torsion
[ 10167 10162 10161 10158 ] final   -3.12 input  -65.29 | X-H torsion
[ 10718 10713 10712 10709 ] final  101.38 input   66.30 | X-H torsion
[ 10763 10752 10751 10750 ] final  -12.43 input  -60.55 | X-H torsion
[ 11005 11000 10999 10996 ] final  -87.22 input  -57.11 | X-H torsion

> <Gold.Protein.ActiveResidues>
 VAL166  LYS551  ARG553  GLY616  TRP617  ASP618  TYR619  PRO620  LYS621  CYS622 
 ASP623  PHE694  ASN695  SER759  ASP760  ASP761  ALA762  ILE779  LEU786  VAL792 
 PHE793  MET794  SER795  GLU796  ALA797  LYS798  CYS799  TRP800  GLU811  SER814 

> <Gold.Protein.RotatedAtoms>
  151.0339  134.9559  159.8125 H   0  0  0  0  0  0  0  0  0  0  0  0  # atno 6907 bound_to 6896
  152.5351  134.2745  159.8994 H   0  0  0  0  0  0  0  0  0  0  0  0  # atno 6908 bound_to 6896
  151.2755  133.4192  159.2658 H   0  0  0  0  0  0  0  0  0  0  0  0  # atno 6909 bound_to 6896
  144.7141  140.1689  143.6369 H   0  0  0  0  0  0  0  0  0  0  0  0  # atno 7974 bound_to 7965
  156.2184  140.1809  156.7535 H   0  0  0  0  0  0  0  0  0  0  0  0  # atno 8008 bound_to 7997
  154.5826  140.0663  156.9155 H   0  0  0  0  0  0  0  0  0  0  0  0  # atno 8009 bound_to 7997
  155.2475  140.3326  155.4288 H   0  0  0  0  0  0  0  0  0  0  0  0  # atno 8010 bound_to 7997
  140.6878  143.6576  150.8294 H   0  0  0  0  0  0  0  0  0  0  0  0  # atno 10167 bound_to 10162
  157.6830  131.0724  150.5244 H   0  0  0  0  0  0  0  0  0  0  0  0  # atno 10718 bound_to 10713
  153.4983  135.7017  153.5846 H   0  0  0  0  0  0  0  0  0  0  0  0  # atno 10763 bound_to 10752
  153.3988  135.3877  155.1974 H   0  0  0  0  0  0  0  0  0  0  0  0  # atno 10764 bound_to 10752
  154.8712  135.3876  154.4451 H   0  0  0  0  0  0  0  0  0  0  0  0  # atno 10765 bound_to 10752
  141.1620  133.7499  156.9275 H   0  0  0  0  0  0  0  0  0  0  0  0  # atno 11005 bound_to 11000
  145.8962  139.2404  143.1520 LP  0  0  0  0  0  0  0  0  0  0  0  0  # atno 17320 bound_to 7965
  145.9855  140.8646  143.0092 LP  0  0  0  0  0  0  0  0  0  0  0  0  # atno 17321 bound_to 7965
  140.0286  143.5467  152.2770 LP  0  0  0  0  0  0  0  0  0  0  0  0  # atno 17342 bound_to 10162
  139.6252  144.7636  151.2654 LP  0  0  0  0  0  0  0  0  0  0  0  0  # atno 17343 bound_to 10162
  156.5556  130.4242  149.6087 LP  0  0  0  0  0  0  0  0  0  0  0  0  # atno 17370 bound_to 10713
  156.2865  130.7100  151.1938 LP  0  0  0  0  0  0  0  0  0  0  0  0  # atno 17371 bound_to 10713
  140.1409  134.9294  157.2465 LP  0  0  0  0  0  0  0  0  0  0  0  0  # atno 17394 bound_to 11000
  140.2838  134.3319  155.7335 LP  0  0  0  0  0  0  0  0  0  0  0  0  # atno 17395 bound_to 11000

$$$$
