AV-unprocessed.smi:1367|AV-procd|sdf|5573|dock6
  -GOLD-   22720 5163D 1   1.00000     0.00000
 Structure written by MMmdl.
 30 30  0  0  0  0  0  0  0  0  1 V2000
  146.2392  138.1710  152.4839 C   0  0  0  0  0  0  0  0  0  0  0  0
  147.1268  139.1998  153.1500 C   0  0  0  0  0  0  0  0  0  0  0  0
  146.5141  140.4286  153.3318 N   0  0  0  0  0  0  0  0  0  0  0  0
  147.2464  141.4337  153.9384 C   0  0  0  0  0  0  0  0  0  0  0  0
  146.5003  142.7466  154.1005 C   0  0  0  0  0  0  0  0  0  0  0  0
  148.5264  141.2267  154.3398 C   0  0  0  0  0  0  0  0  0  0  0  0
  149.3678  142.3118  155.0123 C   0  0  0  0  0  0  0  0  0  0  0  0
  150.0862  141.8947  156.2970 C   0  0  0  0  0  0  0  0  0  0  0  0
  150.0308  140.7268  156.6805 O   0  0  0  0  0  0  0  0  0  0  0  0
  150.7544  142.8568  156.9509 N   0  0  0  0  0  0  0  0  0  0  0  0
  151.4564  142.6822  158.2175 C   0  0  0  0  0  0  0  0  0  0  0  0
  151.8877  144.0279  158.8255 C   0  0  0  0  0  0  0  0  0  0  0  0
  152.5899  143.8004  159.9346 F   0  0  0  0  0  0  0  0  0  0  0  0
  152.6540  144.6988  157.9651 F   0  0  0  0  0  0  0  0  0  0  0  0
  150.8275  144.7723  159.1396 F   0  0  0  0  0  0  0  0  0  0  0  0
  149.1306  139.8927  154.1098 C   0  0  0  0  0  0  0  0  0  0  0  0
  150.2917  139.6469  154.4342 O   0  0  0  0  0  0  0  0  0  0  0  0
  148.3428  138.9053  153.4968 N   0  0  0  0  0  0  0  0  0  0  0  0
  145.5654  140.6263  153.0478 H   0  0  0  0  0  0  0  0  0  0  0  0
  146.7347  137.2003  152.4364 H   0  0  0  0  0  0  0  0  0  0  0  0
  145.9969  138.4807  151.4669 H   0  0  0  0  0  0  0  0  0  0  0  0
  145.3094  138.0507  153.0409 H   0  0  0  0  0  0  0  0  0  0  0  0
  146.4339  143.0212  155.1535 H   0  0  0  0  0  0  0  0  0  0  0  0
  145.4849  142.6822  153.7077 H   0  0  0  0  0  0  0  0  0  0  0  0
  147.0144  143.5459  153.5665 H   0  0  0  0  0  0  0  0  0  0  0  0
  148.7667  143.1955  155.2277 H   0  0  0  0  0  0  0  0  0  0  0  0
  150.1159  142.6566  154.2975 H   0  0  0  0  0  0  0  0  0  0  0  0
  150.7484  143.7873  156.5590 H   0  0  0  0  0  0  0  0  0  0  0  0
  150.8400  142.1237  158.9239 H   0  0  0  0  0  0  0  0  0  0  0  0
  152.3370  142.0681  158.0270 H   0  0  0  0  0  0  0  0  0  0  0  0
  1 20  1  0  0  0  0
  1 21  1  0  0  0  0
  1 22  1  0  0  0  0
  1  2  1  0  0  0  0
  2  3  1  0  0  0  0
  2 18  2  0  0  0  0
  3  4  1  0  0  0  0
  3 19  1  0  0  0  0
  4  6  2  0  0  0  0
  4  5  1  0  0  0  0
  5 23  1  0  0  0  0
  5 24  1  0  0  0  0
  5 25  1  0  0  0  0
  6 16  1  0  0  0  0
  6  7  1  0  0  0  0
  7  8  1  0  0  0  0
  7 26  1  0  0  0  0
  7 27  1  0  0  0  0
  8  9  2  0  0  0  0
  8 10  1  0  0  0  0
 10 11  1  0  0  0  0
 10 28  1  0  0  0  0
 11 12  1  0  0  0  0
 11 29  1  0  0  0  0
 11 30  1  0  0  0  0
 12 13  1  0  0  0  0
 12 14  1  0  0  0  0
 12 15  1  0  0  0  0
 16 17  2  0  0  0  0
 16 18  1  0  0  0  0
M  END
> <s_m_source_file>
AV-unprocessed.smi

> <i_m_source_file_index>
1367

> <i_lp_mmshare_version>
43012

> <i_f3d_flags>
0

> <s_epik_input>
W0NIM11jMW5jKFtDSDNdKWMoYyg9TylbbkhdMSlbQ0gyXUMoPU8pW05IXVtDSDJdQyhGKShGKUY=

> <s_epik_cmdline>
J2VwaWtfcHl0aG9uJywgJy1waCcsICc3LjAnLCAnLXRuJywgJzgnLCAnLW1hJywgJzIwMCcsICctbWV0YWxfYmluZGluZycsICctaW1hZScsICc8aW5maWxlLm1hZT4nLCAnLW9tYWUnLCAnPG91dGZpbGUubWFlPic=

> <r_lp_tautomer_probability>
0.156392

> <r_epik_Ionization_Penalty>
0.0162169

> <r_epik_Ionization_Penalty_Charging>
0.0161253

> <r_epik_Ionization_Penalty_Neutral>
9.15634e-05

> <r_epik_State_Penalty>
1.51104

> <r_epik_Charging_Adjusted_Penalty>
1.52717

> <i_epik_Tot_Q>
0

> <i_epik_Tot_abs_Q>
0

> <r_epik_Metal_State_Penalty>
1.71038

> <b_epik_Metal_Only>
0

> <s_lp_Force_Field>
OPLS_2005

> <r_lp_Energy>
7.37455

> <b_lp_Chiralities_Consistent>
1

> <s_lp_Variant>
AV-unprocessed.smi:1367-2

> <Gold.Version>
5.8.1

> <Gold.Id.Protein>
6NUR|6NUR_protein|mol2

> <Gold.PLP.Fitness>
45.0302

> <Gold.PLP.PLP>
-38.7781

> <Gold.PLP.part.hbond>
-3.0000

> <Gold.PLP.part.metal>
0.0000

> <Gold.PLP.part.buried>
0.7025

> <Gold.PLP.part.nonpolar>
-38.0057

> <Gold.PLP.part.repulsive>
1.9636

> <Gold.PLP.ligand.clash>
0.0000

> <Gold.PLP.ligand.torsion>
0.1914

> <Gold.PLP.Chemscore.Hbond>
2.2097

> <Gold.PLP.Chemscore.CHOScore>
0.0000

> <Gold.PLP.Chemscore.Metal>
0.0000

> <Gold.Chemscore.Hbonds>
donor molecule, donor type, donor heavy atom, donor atom, acceptor molecule, acceptor atom, score
      L1  H     3    19       P1 10175  1.00
      L1  H    10    28       P1  8028  0.22
      P1  H  7989  7998       L1    17  0.99

> <Gold.PLP.Chemscore.Internal.Correction>
0.0059

> <Gold.Rescore>
     Score         DG    S(hbond)    S(metal)    S(lipo)     H(rot)  DE(clash)    DE(int)     intcor
     11.39     -14.07       2.16        0.00      53.28       1.90       2.05       0.63       ----

> <Gold.Chemscore.Fitness>
11.3925

> <Gold.Chemscore.DG>
-14.0708

> <Gold.Chemscore.ZeroCoef>
-5.4800

> <Gold.Chemscore.Hbond>
2.1596

> <Gold.Chemscore.Metal>
0.0000

> <Gold.Chemscore.Lipo>
53.2777

> <Gold.Chemscore.Internal_Hbond>
0.0000

> <Gold.Chemscore.DEClash>
2.0456

> <Gold.Chemscore.DEInternal>
0.6327

> <Gold.Chemscore.Rot>
1.8968

> <Gold.Chemscore.Internal.Correction>
   9.000000E+99

> <Gold.Chemscore.Hbonds>
donor molecule, donor type, donor heavy atom, donor atom, acceptor molecule, acceptor atom, score
      L1  H     3    19       P1 10175  0.77
      L1  H    10    28       P1  8028  0.22
      P1  H  7989  7998       L1    17  0.76

> <Gold.Chemscore.Hbond.Weighted>
-7.2132

> <Gold.Chemscore.Metal.Weighted>
-0.0000

> <Gold.Chemscore.Lipo.Weighted>
-6.2335

> <Gold.Chemscore.Internal_Hbond.Weighted>
0.0000

> <Gold.Chemscore.DEClash.Weighted>
2.0456

> <Gold.Chemscore.DEInternal.Weighted>
0.6327

> <Gold.Chemscore.Rot.Weighted>
4.8559

> <Gold.Chemscore.Internal.Correction.Weighted>
   9.000000E+99

> <Gold.Protein.RotatedTorsions>
[ 6907 6896 6895 6894 ] final  -52.10 input  -60.11 | X-H torsion
[ 7974 7965 7964 7962 ] final  161.69 input  175.53 | X-H torsion
[ 8008 7997 7996 7995 ] final  173.59 input   59.86 | X-H torsion
[ 10167 10162 10161 10158 ] final   82.91 input  -65.29 | X-H torsion
[ 10718 10713 10712 10709 ] final -116.49 input   66.30 | X-H torsion
[ 10763 10752 10751 10750 ] final   67.85 input  -60.55 | X-H torsion
[ 11005 11000 10999 10996 ] final   85.53 input  -57.11 | X-H torsion

> <Gold.Protein.ActiveResidues>
 VAL166  LYS551  ARG553  GLY616  TRP617  ASP618  TYR619  PRO620  LYS621  CYS622 
 ASP623  PHE694  ASN695  SER759  ASP760  ASP761  ALA762  ILE779  LEU786  VAL792 
 PHE793  MET794  SER795  GLU796  ALA797  LYS798  CYS799  TRP800  GLU811  SER814 

> <Gold.Protein.RotatedAtoms>
  150.8549  134.7885  159.7037 H   0  0  0  0  0  0  0  0  0  0  0  0  # atno 6907 bound_to 6896
  152.4604  134.5195  159.9788 H   0  0  0  0  0  0  0  0  0  0  0  0  # atno 6908 bound_to 6896
  151.5309  133.3411  159.2953 H   0  0  0  0  0  0  0  0  0  0  0  0  # atno 6909 bound_to 6896
  144.7673  139.7933  143.6310 H   0  0  0  0  0  0  0  0  0  0  0  0  # atno 7974 bound_to 7965
  156.1060  140.1456  156.9403 H   0  0  0  0  0  0  0  0  0  0  0  0  # atno 8008 bound_to 7997
  154.4734  140.0902  156.7247 H   0  0  0  0  0  0  0  0  0  0  0  0  # atno 8009 bound_to 7997
  155.4678  140.3440  155.4323 H   0  0  0  0  0  0  0  0  0  0  0  0  # atno 8010 bound_to 7997
  139.9239  144.6195  150.8412 H   0  0  0  0  0  0  0  0  0  0  0  0  # atno 10167 bound_to 10162
  156.0967  130.6138  150.9042 H   0  0  0  0  0  0  0  0  0  0  0  0  # atno 10718 bound_to 10713
  153.0206  135.5269  154.7043 H   0  0  0  0  0  0  0  0  0  0  0  0  # atno 10763 bound_to 10752
  154.6143  135.2882  155.0400 H   0  0  0  0  0  0  0  0  0  0  0  0  # atno 10764 bound_to 10752
  154.1410  135.6578  153.4994 H   0  0  0  0  0  0  0  0  0  0  0  0  # atno 10765 bound_to 10752
  139.8969  134.8293  156.2595 H   0  0  0  0  0  0  0  0  0  0  0  0  # atno 11005 bound_to 11000
  146.1792  139.4976  142.9878 LP  0  0  0  0  0  0  0  0  0  0  0  0  # atno 17320 bound_to 7965
  145.6430  141.0280  143.1801 LP  0  0  0  0  0  0  0  0  0  0  0  0  # atno 17321 bound_to 7965
  140.7655  143.3277  151.2478 LP  0  0  0  0  0  0  0  0  0  0  0  0  # atno 17342 bound_to 10162
  139.6838  143.9808  152.2823 LP  0  0  0  0  0  0  0  0  0  0  0  0  # atno 17343 bound_to 10162
  157.6129  131.0935  150.8762 LP  0  0  0  0  0  0  0  0  0  0  0  0  # atno 17370 bound_to 10713
  156.8898  130.5209  149.5287 LP  0  0  0  0  0  0  0  0  0  0  0  0  # atno 17371 bound_to 10713
  141.0172  133.7062  156.1208 LP  0  0  0  0  0  0  0  0  0  0  0  0  # atno 17394 bound_to 11000
  140.7285  134.4281  157.5568 LP  0  0  0  0  0  0  0  0  0  0  0  0  # atno 17395 bound_to 11000

$$$$
