AV-unprocessed.smi:862|AV-procd|sdf|3979|dock4
  -GOLD-   22720 1453D 1   1.00000     0.00000
 Structure written by MMmdl.
 44 46  0  0  0  0  0  0  0  0  2 V2000
  143.1927  134.2099  154.3083 N   0  0  0  0  0  0  0  0  0  0  0  0
  143.5868  134.9286  153.2526 C   0  0  0  0  0  0  0  0  0  0  0  0
  143.6148  134.4355  152.1266 O   0  0  0  0  0  0  0  0  0  0  0  0
  143.8998  136.2226  153.5161 N   0  0  0  0  0  0  0  0  0  0  0  0
  144.1317  136.8044  154.8486 C   0  0  0  0  0  0  0  0  0  0  0  0
  145.6444  137.0211  155.0360 C   0  0  0  0  0  0  0  0  0  0  0  0
  146.2231  137.9190  153.9222 C   0  0  0  0  0  0  0  0  0  0  0  0
  147.6942  138.0019  154.0549 N   0  3  0  0  0  0  0  0  0  0  0  0
  148.2940  139.3202  153.7504 C   0  0  1  0  0  0  0  0  0  0  0  0
  147.2748  140.4636  153.7828 C   0  0  0  0  0  0  0  0  0  0  0  0
  148.0959  141.7301  154.0641 C   0  0  0  0  0  0  0  0  0  0  0  0
  149.4473  141.2611  154.6267 C   0  0  0  0  0  0  0  0  0  0  0  0
  149.3170  139.7420  154.8099 C   0  0  2  0  0  0  0  0  0  0  0  0
  150.5808  139.0289  154.7029 N   0  0  0  0  0  0  0  0  0  0  0  0
  151.7910  139.3966  155.2774 C   0  0  0  0  0  0  0  0  0  0  0  0
  152.7053  138.4282  154.9292 C   0  0  0  0  0  0  0  0  0  0  0  0
  152.0844  137.4575  154.1480 N   0  0  0  0  0  0  0  0  0  0  0  0
  150.8306  137.8796  154.0563 C   0  0  0  0  0  0  0  0  0  0  0  0
  145.8098  137.3965  152.5269 C   0  0  0  0  0  0  0  0  0  0  0  0
  144.2909  137.1565  152.4528 C   0  0  0  0  0  0  0  0  0  0  0  0
  142.9339  133.2418  154.1833 H   0  0  0  0  0  0  0  0  0  0  0  0
  143.1441  134.6356  155.2222 H   0  0  0  0  0  0  0  0  0  0  0  0
  143.6065  137.7580  154.9193 H   0  0  0  0  0  0  0  0  0  0  0  0
  143.7430  136.1995  155.6674 H   0  0  0  0  0  0  0  0  0  0  0  0
  145.8351  137.4675  156.0126 H   0  0  0  0  0  0  0  0  0  0  0  0
  146.1483  136.0532  155.0344 H   0  0  0  0  0  0  0  0  0  0  0  0
  145.8045  138.9169  154.0588 H   0  0  0  0  0  0  0  0  0  0  0  0
  147.9444  137.7649  155.0043 H   0  0  0  0  0  0  0  0  0  0  0  0
  148.7768  139.3016  152.7729 H   0  0  0  0  0  0  0  0  0  0  0  0
  146.7022  140.5410  152.8579 H   0  0  0  0  0  0  0  0  0  0  0  0
  146.5645  140.3085  154.5966 H   0  0  0  0  0  0  0  0  0  0  0  0
  148.2518  142.2988  153.1466 H   0  0  0  0  0  0  0  0  0  0  0  0
  147.5748  142.3828  154.7650 H   0  0  0  0  0  0  0  0  0  0  0  0
  150.2344  141.5067  153.9130 H   0  0  0  0  0  0  0  0  0  0  0  0
  149.6964  141.7589  155.5643 H   0  0  0  0  0  0  0  0  0  0  0  0
  148.8996  139.5540  155.8012 H   0  0  0  0  0  0  0  0  0  0  0  0
  151.9012  140.2923  155.8709 H   0  0  0  0  0  0  0  0  0  0  0  0
  153.7532  138.3545  155.1807 H   0  0  0  0  0  0  0  0  0  0  0  0
  150.0752  137.3359  153.5079 H   0  0  0  0  0  0  0  0  0  0  0  0
  146.1000  138.1019  151.7483 H   0  0  0  0  0  0  0  0  0  0  0  0
  146.3334  136.4640  152.3091 H   0  0  0  0  0  0  0  0  0  0  0  0
  144.0172  136.7985  151.4592 H   0  0  0  0  0  0  0  0  0  0  0  0
  143.7550  138.0977  152.5832 H   0  0  0  0  0  0  0  0  0  0  0  0
  148.0992  137.3124  153.4377 H   0  0  0  0  0  0  0  0  0  0  0  0
  1  2  1  0  0  0  0
  1 21  1  0  0  0  0
  1 22  1  0  0  0  0
  2  3  2  0  0  0  0
  2  4  1  0  0  0  0
  4 20  1  0  0  0  0
  4  5  1  0  0  0  0
  5  6  1  0  0  0  0
  5 23  1  0  0  0  0
  5 24  1  0  0  0  0
  6  7  1  0  0  0  0
  6 25  1  0  0  0  0
  6 26  1  0  0  0  0
  7  8  1  0  0  0  0
  7 19  1  0  0  0  0
  7 27  1  0  0  0  0
  8  9  1  0  0  0  0
  8 28  1  0  0  0  0
  8 44  1  0  0  0  0
  9 13  1  0  0  0  0
  9 10  1  0  0  0  0
  9 29  1  0  0  0  0
 10 11  1  0  0  0  0
 10 30  1  0  0  0  0
 10 31  1  0  0  0  0
 11 12  1  0  0  0  0
 11 32  1  0  0  0  0
 11 33  1  0  0  0  0
 12 13  1  0  0  0  0
 12 34  1  0  0  0  0
 12 35  1  0  0  0  0
 13 14  1  0  0  0  0
 13 36  1  0  0  0  0
 14 18  1  0  0  0  0
 14 15  1  0  0  0  0
 15 16  2  0  0  0  0
 15 37  1  0  0  0  0
 16 17  1  0  0  0  0
 16 38  1  0  0  0  0
 17 18  2  0  0  0  0
 18 39  1  0  0  0  0
 19 20  1  0  0  0  0
 19 40  1  0  0  0  0
 19 41  1  0  0  0  0
 20 42  1  0  0  0  0
 20 43  1  0  0  0  0
M  CHG  1   8   1
M  END
> <s_m_source_file>
AV-unprocessed.smi

> <i_m_source_file_index>
862

> <i_lp_mmshare_version>
43012

> <i_f3d_flags>
0

> <s_epik_input>
W05IMl1DKD1PKU4xW0NIMl1bQ0gyXVtDSF0oW0NIMl1bQ0gyXTEpW05IXVtDQEBIXTJbQ0gyXVtDSDJdW0NIMl1bQ0BIXTJuM1tjSF1bY0hdbltjSF0z

> <s_epik_cmdline>
J2VwaWtfcHl0aG9uJywgJy1waCcsICc3LjAnLCAnLXRuJywgJzgnLCAnLW1hJywgJzIwMCcsICctbWV0YWxfYmluZGluZycsICctaW1hZScsICc8aW5maWxlLm1hZT4nLCAnLW9tYWUnLCAnPG91dGZpbGUubWFlPic=

> <r_lp_tautomer_probability>
1

> <r_epik_Ionization_Penalty>
0.0731506

> <r_epik_Ionization_Penalty_Charging>
0.0731

> <r_epik_Ionization_Penalty_Neutral>
5.05966e-05

> <r_epik_State_Penalty>
0.128895

> <r_epik_Charging_Adjusted_Penalty>
0.201995

> <i_epik_Tot_Q>
1

> <i_epik_Tot_abs_Q>
1

> <r_epik_Metal_State_Penalty>
0.113934

> <b_epik_Metal_Only>
0

> <s_lp_Force_Field>
OPLS_2005

> <r_lp_Energy>
55.4297

> <b_lp_Chiralities_Consistent>
1

> <s_lp_Variant>
AV-unprocessed.smi:862-4

> <Gold.Version>
5.8.1

> <Gold.Id.Protein>
6NUR|6NUR_protein|mol2

> <Gold.PLP.Fitness>
43.1553

> <Gold.PLP.PLP>
-32.3619

> <Gold.PLP.part.hbond>
-2.8474

> <Gold.PLP.part.metal>
0.0000

> <Gold.PLP.part.buried>
-0.2968

> <Gold.PLP.part.nonpolar>
-30.1016

> <Gold.PLP.part.repulsive>
0.3241

> <Gold.PLP.ligand.clash>
0.0000

> <Gold.PLP.ligand.torsion>
1.6084

> <Gold.PLP.Chemscore.Hbond>
3.6110

> <Gold.PLP.Chemscore.CHOScore>
1.0407

> <Gold.PLP.Chemscore.Metal>
0.0000

> <Gold.Chemscore.Hbonds>
donor molecule, donor type, donor heavy atom, donor atom, acceptor molecule, acceptor atom, score
      L1  H     1    21       P1 10957  1.00
      L1  H     8    44       P1  7948  1.72
      P1  H 10752 10764       L1    17  0.88
      L1  C    18    39       P1  7948  1.00
      L1  C    18    39       P1  7949  0.04

> <Gold.PLP.Chemscore.Internal.Correction>
0.0550

> <Gold.Rescore>
     Score         DG    S(hbond)    S(metal)    S(lipo)     H(rot)  DE(clash)    DE(int)     intcor
     15.09     -17.02       2.49        0.00      63.55       1.64       0.23       1.69       ----

> <Gold.Chemscore.Fitness>
15.0941

> <Gold.Chemscore.DG>
-17.0158

> <Gold.Chemscore.ZeroCoef>
-5.4800

> <Gold.Chemscore.Hbond>
2.4854

> <Gold.Chemscore.Metal>
0.0000

> <Gold.Chemscore.Lipo>
63.5542

> <Gold.Chemscore.Internal_Hbond>
0.0000

> <Gold.Chemscore.DEClash>
0.2271

> <Gold.Chemscore.DEInternal>
1.6945

> <Gold.Chemscore.Rot>
1.6411

> <Gold.Chemscore.Internal.Correction>
   9.000000E+99

> <Gold.Chemscore.Hbonds>
donor molecule, donor type, donor heavy atom, donor atom, acceptor molecule, acceptor atom, score
      L1  H     1    21       P1 10957  0.95
      L1  H     8    44       P1  7948  0.84
      P1  H 10752 10764       L1    17  0.75

> <Gold.Chemscore.Hbond.Weighted>
-8.3013

> <Gold.Chemscore.Metal.Weighted>
-0.0000

> <Gold.Chemscore.Lipo.Weighted>
-7.4358

> <Gold.Chemscore.Internal_Hbond.Weighted>
0.0000

> <Gold.Chemscore.DEClash.Weighted>
0.2271

> <Gold.Chemscore.DEInternal.Weighted>
1.6945

> <Gold.Chemscore.Rot.Weighted>
4.2013

> <Gold.Chemscore.Internal.Correction.Weighted>
   9.000000E+99

> <Gold.Protein.RotatedTorsions>
[ 6907 6896 6895 6894 ] final  176.96 input  -60.11 | X-H torsion
[ 7974 7965 7964 7962 ] final -157.06 input  175.53 | X-H torsion
[ 8008 7997 7996 7995 ] final   80.77 input   59.86 | X-H torsion
[ 10167 10162 10161 10158 ] final -166.07 input  -65.29 | X-H torsion
[ 10718 10713 10712 10709 ] final   57.91 input   66.30 | X-H torsion
[ 10763 10752 10751 10750 ] final  -82.23 input  -60.55 | X-H torsion
[ 11005 11000 10999 10996 ] final   39.94 input  -57.11 | X-H torsion

> <Gold.Protein.ActiveResidues>
 VAL166  LYS551  ARG553  GLY616  TRP617  ASP618  TYR619  PRO620  LYS621  CYS622 
 ASP623  PHE694  ASN695  SER759  ASP760  ASP761  ALA762  ILE779  LEU786  VAL792 
 PHE793  MET794  SER795  GLU796  ALA797  LYS798  CYS799  TRP800  GLU811  SER814 

> <Gold.Protein.RotatedAtoms>
  151.7117  133.3312  159.3292 H   0  0  0  0  0  0  0  0  0  0  0  0  # atno 6907 bound_to 6896
  150.7691  134.6526  159.6306 H   0  0  0  0  0  0  0  0  0  0  0  0  # atno 6908 bound_to 6896
  152.3707  134.6741  160.0229 H   0  0  0  0  0  0  0  0  0  0  0  0  # atno 6909 bound_to 6896
  144.7565  140.4023  143.6008 H   0  0  0  0  0  0  0  0  0  0  0  0  # atno 7974 bound_to 7965
  155.8881  140.3440  155.5936 H   0  0  0  0  0  0  0  0  0  0  0  0  # atno 8008 bound_to 7997
  155.7643  140.0837  157.2159 H   0  0  0  0  0  0  0  0  0  0  0  0  # atno 8009 bound_to 7997
  154.4030  140.1530  156.2856 H   0  0  0  0  0  0  0  0  0  0  0  0  # atno 8010 bound_to 7997
  139.6139  144.0759  152.1869 H   0  0  0  0  0  0  0  0  0  0  0  0  # atno 10167 bound_to 10162
  157.5553  130.8796  149.9026 H   0  0  0  0  0  0  0  0  0  0  0  0  # atno 10718 bound_to 10713
  154.5732  135.5599  153.7114 H   0  0  0  0  0  0  0  0  0  0  0  0  # atno 10763 bound_to 10752
  153.0055  135.6302  154.2086 H   0  0  0  0  0  0  0  0  0  0  0  0  # atno 10764 bound_to 10752
  154.2026  135.2877  155.2965 H   0  0  0  0  0  0  0  0  0  0  0  0  # atno 10765 bound_to 10752
  140.1979  134.3906  155.8111 H   0  0  0  0  0  0  0  0  0  0  0  0  # atno 11005 bound_to 11000
  145.6762  139.1609  143.2727 LP  0  0  0  0  0  0  0  0  0  0  0  0  # atno 17320 bound_to 7965
  146.1581  140.6828  142.9290 LP  0  0  0  0  0  0  0  0  0  0  0  0  # atno 17321 bound_to 7965
  140.0384  144.6026  150.7431 LP  0  0  0  0  0  0  0  0  0  0  0  0  # atno 17342 bound_to 10162
  140.7338  143.2721  151.3855 LP  0  0  0  0  0  0  0  0  0  0  0  0  # atno 17343 bound_to 10162
  156.0613  130.3699  150.0976 LP  0  0  0  0  0  0  0  0  0  0  0  0  # atno 17370 bound_to 10713
  156.9145  130.9662  151.3558 LP  0  0  0  0  0  0  0  0  0  0  0  0  # atno 17371 bound_to 10713
  141.2227  133.7079  156.8208 LP  0  0  0  0  0  0  0  0  0  0  0  0  # atno 17394 bound_to 11000
  140.2086  134.8844  157.3249 LP  0  0  0  0  0  0  0  0  0  0  0  0  # atno 17395 bound_to 11000

$$$$
