AV-unprocessed.smi:84|AV-procd|sdf|809|dock4
  -GOLD-   2262017203D 1   1.00000     0.00000
 Structure written by MMmdl.
 51 55  0  0  0  0  0  0  0  0  1 V2000
  151.0724  133.1362  157.2537 O   0  0  0  0  0  0  0  0  0  0  0  0
  151.0288  131.9083  157.2374 C   0  0  0  0  0  0  0  0  0  0  0  0
  151.2891  131.0703  155.9959 C   0  0  0  0  0  0  0  0  0  0  0  0
  150.7255  129.6891  156.3943 C   0  0  2  0  0  0  0  0  0  0  0  0
  151.4569  128.5138  155.7327 C   0  0  0  0  0  0  0  0  0  0  0  0
  150.7645  128.3860  154.3771 C   0  0  0  0  0  0  0  0  0  0  0  0
  149.3853  128.7780  154.6279 N   0  0  0  0  0  0  0  0  0  0  0  0
  148.4894  128.9450  153.6209 C   0  0  0  0  0  0  0  0  0  0  0  0
  148.1360  127.8632  152.8769 N   0  0  0  0  0  0  0  0  0  0  0  0
  147.2575  127.9833  151.8779 C   0  0  0  0  0  0  0  0  0  0  0  0
  146.6167  129.0746  151.4577 N   0  0  0  0  0  0  0  0  0  0  0  0
  146.9569  130.1642  152.2034 C   0  0  0  0  0  0  0  0  0  0  0  0
  147.8697  130.1886  153.2972 C   0  0  0  0  0  0  0  0  0  0  0  0
  147.9302  131.4748  153.8235 N   0  0  0  0  0  0  0  0  0  0  0  0
  147.1089  132.1672  153.0832 C   0  0  0  0  0  0  0  0  0  0  0  0
  146.5013  131.4640  152.0686 N   0  0  0  0  0  0  0  0  0  0  0  0
  145.5325  131.9579  151.1347 C   0  0  0  0  0  0  0  0  0  0  0  0
  145.8636  133.1310  150.2077 C   0  0  0  0  0  0  0  0  0  0  0  0
  144.3838  133.5771  150.2648 C   0  0  0  0  0  0  0  0  0  0  0  0
  144.1025  135.0903  150.3525 C   0  0  0  0  0  0  0  0  0  0  0  0
  145.0167  135.8581  149.5955 O   0  0  0  0  0  0  0  0  0  0  0  0
  143.4800  133.0105  149.1533 C   0  0  0  0  0  0  0  0  0  0  0  0
  143.5293  133.8081  147.9878 O   0  0  0  0  0  0  0  0  0  0  0  0
  144.3261  132.7856  151.5919 C   0  0  0  0  0  0  0  0  0  0  0  0
  149.2804  129.5180  155.8782 C   0  0  0  0  0  0  0  0  0  0  0  0
  150.7967  129.7109  157.9356 C   0  0  0  0  0  0  0  0  0  0  0  0
  150.7555  131.1204  158.2763 N   0  0  0  0  0  0  0  0  0  0  0  0
  150.8123  131.4922  155.1102 H   0  0  0  0  0  0  0  0  0  0  0  0
  152.3650  131.0346  155.8212 H   0  0  0  0  0  0  0  0  0  0  0  0
  152.5339  128.6606  155.6466 H   0  0  0  0  0  0  0  0  0  0  0  0
  151.2920  127.6031  156.3105 H   0  0  0  0  0  0  0  0  0  0  0  0
  151.2164  129.0657  153.6530 H   0  0  0  0  0  0  0  0  0  0  0  0
  150.8290  127.3702  153.9856 H   0  0  0  0  0  0  0  0  0  0  0  0
  147.0374  127.0745  151.3374 H   0  0  0  0  0  0  0  0  0  0  0  0
  146.9275  133.2176  153.2586 H   0  0  0  0  0  0  0  0  0  0  0  0
  145.2085  131.0920  150.5554 H   0  0  0  0  0  0  0  0  0  0  0  0
  146.5530  133.8392  150.6702 H   0  0  0  0  0  0  0  0  0  0  0  0
  146.2211  132.8337  149.2216 H   0  0  0  0  0  0  0  0  0  0  0  0
  143.1009  135.3254  149.9917 H   0  0  0  0  0  0  0  0  0  0  0  0
  144.1531  135.4341  151.3861 H   0  0  0  0  0  0  0  0  0  0  0  0
  145.1582  135.4259  148.7670 H   0  0  0  0  0  0  0  0  0  0  0  0
  143.7762  131.9985  148.8764 H   0  0  0  0  0  0  0  0  0  0  0  0
  142.4438  132.9428  149.4869 H   0  0  0  0  0  0  0  0  0  0  0  0
  144.3828  134.2108  147.9360 H   0  0  0  0  0  0  0  0  0  0  0  0
  143.4144  132.2063  151.7408 H   0  0  0  0  0  0  0  0  0  0  0  0
  144.5473  133.3900  152.4729 H   0  0  0  0  0  0  0  0  0  0  0  0
  148.6804  128.9244  156.5685 H   0  0  0  0  0  0  0  0  0  0  0  0
  148.7853  130.4812  155.7494 H   0  0  0  0  0  0  0  0  0  0  0  0
  149.9852  129.1598  158.4115 H   0  0  0  0  0  0  0  0  0  0  0  0
  151.7403  129.2954  158.2925 H   0  0  0  0  0  0  0  0  0  0  0  0
  150.5497  131.4542  159.2069 H   0  0  0  0  0  0  0  0  0  0  0  0
  1  2  2  0  0  0  0
  2 27  1  0  0  0  0
  2  3  1  0  0  0  0
  3  4  1  0  0  0  0
  3 28  1  0  0  0  0
  3 29  1  0  0  0  0
  4 25  1  0  0  0  0
  4  5  1  0  0  0  0
  4 26  1  0  0  0  0
  5  6  1  0  0  0  0
  5 30  1  0  0  0  0
  5 31  1  0  0  0  0
  6  7  1  0  0  0  0
  6 32  1  0  0  0  0
  6 33  1  0  0  0  0
  7  8  1  0  0  0  0
  7 25  1  0  0  0  0
  8 13  1  0  0  0  0
  8  9  2  0  0  0  0
  9 10  1  0  0  0  0
 10 11  2  0  0  0  0
 10 34  1  0  0  0  0
 11 12  1  0  0  0  0
 12 16  1  0  0  0  0
 12 13  2  0  0  0  0
 13 14  1  0  0  0  0
 14 15  2  0  0  0  0
 15 16  1  0  0  0  0
 15 35  1  0  0  0  0
 16 17  1  0  0  0  0
 17 24  1  0  0  0  0
 17 18  1  0  0  0  0
 17 36  1  0  0  0  0
 18 19  1  0  0  0  0
 18 37  1  0  0  0  0
 18 38  1  0  0  0  0
 19 20  1  0  0  0  0
 19 22  1  0  0  0  0
 19 24  1  0  0  0  0
 20 21  1  0  0  0  0
 20 39  1  0  0  0  0
 20 40  1  0  0  0  0
 21 41  1  0  0  0  0
 22 23  1  0  0  0  0
 22 42  1  0  0  0  0
 22 43  1  0  0  0  0
 23 44  1  0  0  0  0
 24 45  1  0  0  0  0
 24 46  1  0  0  0  0
 25 47  1  0  0  0  0
 25 48  1  0  0  0  0
 26 27  1  0  0  0  0
 26 49  1  0  0  0  0
 26 50  1  0  0  0  0
 27 51  1  0  0  0  0
M  END
> <s_m_source_file>
AV-unprocessed.smi

> <i_m_source_file_index>
84

> <i_lp_mmshare_version>
43012

> <i_f3d_flags>
0

> <s_epik_input>
W0NIMl0xW05IXUMoPU8pW0NIMl1bQ0BdMTJbQ0gyXVtDSDJdTihbQ0gyXTIpYyhuW2NIXW4zKWMoYzM0KW5bY0hdbjRbQ0hdKFtDSDJdNSlbQ0gyXUM1KFtDSDJdW09IXSlbQ0gyXVtPSF0=

> <s_epik_cmdline>
J2VwaWtfcHl0aG9uJywgJy1waCcsICc3LjAnLCAnLXRuJywgJzgnLCAnLW1hJywgJzIwMCcsICctbWV0YWxfYmluZGluZycsICctaW1hZScsICc8aW5maWxlLm1hZT4nLCAnLW9tYWUnLCAnPG91dGZpbGUubWFlPic=

> <r_lp_tautomer_probability>
1

> <r_epik_Ionization_Penalty>
0.00201507

> <r_epik_Ionization_Penalty_Charging>
0

> <r_epik_Ionization_Penalty_Neutral>
0.00201507

> <r_epik_State_Penalty>
0.00133787

> <r_epik_Charging_Adjusted_Penalty>
0.00133787

> <i_epik_Tot_Q>
0

> <i_epik_Tot_abs_Q>
0

> <r_epik_Metal_State_Penalty>
-0

> <b_epik_Metal_Only>
0

> <s_lp_Force_Field>
OPLS_2005

> <r_lp_Energy>
68.8544

> <b_lp_Chiralities_Consistent>
1

> <s_lp_Variant>
AV-unprocessed.smi:84-2

> <Gold.Version>
5.8.1

> <Gold.Id.Protein>
6NUR|6NUR_protein|mol2

> <Gold.PLP.Fitness>
44.6932

> <Gold.PLP.PLP>
-37.2793

> <Gold.PLP.part.hbond>
-6.2395

> <Gold.PLP.part.metal>
0.0000

> <Gold.PLP.part.buried>
2.1845

> <Gold.PLP.part.nonpolar>
-33.2846

> <Gold.PLP.part.repulsive>
0.3624

> <Gold.PLP.ligand.clash>
0.0000

> <Gold.PLP.ligand.torsion>
1.8613

> <Gold.PLP.Chemscore.Hbond>
3.4980

> <Gold.PLP.Chemscore.CHOScore>
0.0000

> <Gold.PLP.Chemscore.Metal>
0.0000

> <Gold.Chemscore.Hbonds>
donor molecule, donor type, donor heavy atom, donor atom, acceptor molecule, acceptor atom, score
      L1  H    21    41       P1  7921  1.00
      L1  H    23    44       P1  7921  1.00
      P1  H  6896  6908       L1     1  0.88
      P1  H 10192 10197       L1    23  0.59

> <Gold.PLP.Chemscore.Internal.Correction>
0.6425

> <Gold.Rescore>
     Score         DG    S(hbond)    S(metal)    S(lipo)     H(rot)  DE(clash)    DE(int)     intcor
     12.04     -16.80       2.97        0.00      76.91       2.96       2.73       2.03       ----

> <Gold.Chemscore.Fitness>
12.0403

> <Gold.Chemscore.DG>
-16.8017

> <Gold.Chemscore.ZeroCoef>
-5.4800

> <Gold.Chemscore.Hbond>
2.9680

> <Gold.Chemscore.Metal>
0.0000

> <Gold.Chemscore.Lipo>
76.9131

> <Gold.Chemscore.Internal_Hbond>
0.0000

> <Gold.Chemscore.DEClash>
2.7265

> <Gold.Chemscore.DEInternal>
2.0348

> <Gold.Chemscore.Rot>
2.9649

> <Gold.Chemscore.Internal.Correction>
   9.000000E+99

> <Gold.Chemscore.Hbonds>
donor molecule, donor type, donor heavy atom, donor atom, acceptor molecule, acceptor atom, score
      L1  H    21    41       P1  7921  0.94
      L1  H    23    44       P1  7921  1.00
      P1  H  6896  6908       L1     1  0.22
      P1  H 10192 10197       L1    23  0.43

> <Gold.Chemscore.Hbond.Weighted>
-9.9130

> <Gold.Chemscore.Metal.Weighted>
-0.0000

> <Gold.Chemscore.Lipo.Weighted>
-8.9988

> <Gold.Chemscore.Internal_Hbond.Weighted>
0.0000

> <Gold.Chemscore.DEClash.Weighted>
2.7265

> <Gold.Chemscore.DEInternal.Weighted>
2.0348

> <Gold.Chemscore.Rot.Weighted>
7.5902

> <Gold.Chemscore.Internal.Correction.Weighted>
   9.000000E+99

> <Gold.Protein.RotatedTorsions>
[ 6907 6896 6895 6894 ] final   91.13 input  -60.11 | X-H torsion
[ 7974 7965 7964 7962 ] final -154.05 input  175.53 | X-H torsion
[ 8008 7997 7996 7995 ] final  152.84 input   59.86 | X-H torsion
[ 10167 10162 10161 10158 ] final   31.68 input  -65.29 | X-H torsion
[ 10718 10713 10712 10709 ] final -104.86 input   66.30 | X-H torsion
[ 10763 10752 10751 10750 ] final   61.76 input  -60.55 | X-H torsion
[ 11005 11000 10999 10996 ] final  -81.28 input  -57.11 | X-H torsion

> <Gold.Protein.ActiveResidues>
 VAL166  LYS551  ARG553  GLY616  TRP617  ASP618  TYR619  PRO620  LYS621  CYS622 
 ASP623  PHE694  ASN695  SER759  ASP760  ASP761  ALA762  ILE779  LEU786  VAL792 
 PHE793  MET794  SER795  GLU796  ALA797  LYS798  CYS799  TRP800  GLU811  SER814 

> <Gold.Protein.RotatedAtoms>
  152.5448  134.1705  159.8594 H   0  0  0  0  0  0  0  0  0  0  0  0  # atno 6907 bound_to 6896
  151.1715  133.4774  159.2601 H   0  0  0  0  0  0  0  0  0  0  0  0  # atno 6908 bound_to 6896
  151.1270  135.0121  159.8620 H   0  0  0  0  0  0  0  0  0  0  0  0  # atno 6909 bound_to 6896
  144.7709  140.4441  143.5908 H   0  0  0  0  0  0  0  0  0  0  0  0  # atno 7974 bound_to 7965
  156.2610  140.2010  156.6396 H   0  0  0  0  0  0  0  0  0  0  0  0  # atno 8008 bound_to 7997
  154.6619  140.0560  157.0097 H   0  0  0  0  0  0  0  0  0  0  0  0  # atno 8009 bound_to 7997
  155.1263  140.3229  155.4488 H   0  0  0  0  0  0  0  0  0  0  0  0  # atno 8010 bound_to 7997
  140.4567  144.0967  150.6203 H   0  0  0  0  0  0  0  0  0  0  0  0  # atno 10167 bound_to 10162
  156.0321  130.5535  150.7456 H   0  0  0  0  0  0  0  0  0  0  0  0  # atno 10718 bound_to 10713
  152.9961  135.5489  154.6086 H   0  0  0  0  0  0  0  0  0  0  0  0  # atno 10763 bound_to 10752
  154.5411  135.2820  155.1096 H   0  0  0  0  0  0  0  0  0  0  0  0  # atno 10764 bound_to 10752
  154.2373  135.6422  153.5248 H   0  0  0  0  0  0  0  0  0  0  0  0  # atno 10765 bound_to 10752
  141.1667  133.7189  156.8400 H   0  0  0  0  0  0  0  0  0  0  0  0  # atno 11005 bound_to 11000
  145.6327  139.1538  143.2960 LP  0  0  0  0  0  0  0  0  0  0  0  0  # atno 17320 bound_to 7965
  146.1854  140.6429  142.9170 LP  0  0  0  0  0  0  0  0  0  0  0  0  # atno 17321 bound_to 7965
  140.4142  143.2642  151.9795 LP  0  0  0  0  0  0  0  0  0  0  0  0  # atno 17342 bound_to 10162
  139.4802  144.5888  151.7807 LP  0  0  0  0  0  0  0  0  0  0  0  0  # atno 17343 bound_to 10162
  157.5014  131.0919  151.0310 LP  0  0  0  0  0  0  0  0  0  0  0  0  # atno 17370 bound_to 10713
  157.0690  130.5856  149.5399 LP  0  0  0  0  0  0  0  0  0  0  0  0  # atno 17371 bound_to 10713
  140.1990  134.8911  157.3147 LP  0  0  0  0  0  0  0  0  0  0  0  0  # atno 17394 bound_to 11000
  140.2208  134.4026  155.7567 LP  0  0  0  0  0  0  0  0  0  0  0  0  # atno 17395 bound_to 11000

$$$$
