AV-unprocessed.smi:1586|AV-procd|sdf|6376|dock10
  -GOLD-   22720 7 03D 1   1.00000     0.00000
 Structure written by MMmdl.
 47 48  0  0  0  0  0  0  0  0  2 V2000
  142.1479  134.7375  152.9450 C   0  0  0  0  0  0  0  0  0  0  0  0
  143.3385  134.3078  152.0756 C   0  0  0  0  0  0  0  0  0  0  0  0
  144.3053  135.3932  151.8932 N   0  0  0  0  0  0  0  0  0  0  0  0
  145.0355  135.7876  153.0987 C   0  0  0  0  0  0  0  0  0  0  0  0
  146.0176  134.6980  153.5764 C   0  0  0  0  0  0  0  0  0  0  0  0
  147.0016  134.3383  152.5158 N   0  3  0  0  0  0  0  0  0  0  0  0
  147.9998  133.2966  152.9338 C   0  0  1  0  0  0  0  0  0  0  0  0
  148.9062  133.8084  154.0811 C   0  0  0  0  0  0  0  0  0  0  0  0
  147.3247  131.9597  153.3433 C   0  0  0  0  0  0  0  0  0  0  0  0
  147.7927  130.8336  152.5408 N   0  0  0  0  0  0  0  0  0  0  0  0
  147.5350  129.5453  152.8055 C   0  0  0  0  0  0  0  0  0  0  0  0
  146.8544  129.1717  153.7612 O   0  0  0  0  0  0  0  0  0  0  0  0
  148.1122  128.7370  151.9005 N   0  0  0  0  0  0  0  0  0  0  0  0
  148.0890  127.3194  151.8673 C   0  0  0  0  0  0  0  0  0  0  0  0
  148.4853  126.6121  150.7013 C   0  0  0  0  0  0  0  0  0  0  0  0
  148.3298  125.3047  151.0671 C   0  0  0  0  0  0  0  0  0  0  0  0
  148.5591  124.0174  150.3517 C   0  0  0  0  0  0  0  0  0  0  0  0
  147.8772  125.2215  152.3479 O   0  0  0  0  0  0  0  0  0  0  0  0
  147.7237  126.5173  152.8555 N   0  0  0  0  0  0  0  0  0  0  0  0
  146.2704  133.9910  151.2636 C   0  0  0  0  0  0  0  0  0  0  0  0
  145.2847  135.1028  150.8480 C   0  0  0  0  0  0  0  0  0  0  0  0
  141.3851  133.9588  152.9563 H   0  0  0  0  0  0  0  0  0  0  0  0
  141.6841  135.6467  152.5608 H   0  0  0  0  0  0  0  0  0  0  0  0
  142.4396  134.9153  153.9797 H   0  0  0  0  0  0  0  0  0  0  0  0
  143.8050  133.4163  152.4929 H   0  0  0  0  0  0  0  0  0  0  0  0
  142.9538  134.0240  151.0951 H   0  0  0  0  0  0  0  0  0  0  0  0
  145.5896  136.7018  152.8812 H   0  0  0  0  0  0  0  0  0  0  0  0
  144.3408  136.0468  153.8968 H   0  0  0  0  0  0  0  0  0  0  0  0
  146.5270  135.1120  154.4443 H   0  0  0  0  0  0  0  0  0  0  0  0
  145.4869  133.8081  153.9164 H   0  0  0  0  0  0  0  0  0  0  0  0
  148.6376  133.0917  152.0721 H   0  0  0  0  0  0  0  0  0  0  0  0
  149.5837  133.0385  154.4488 H   0  0  0  0  0  0  0  0  0  0  0  0
  148.3132  134.1510  154.9298 H   0  0  0  0  0  0  0  0  0  0  0  0
  149.5531  134.6260  153.7665 H   0  0  0  0  0  0  0  0  0  0  0  0
  147.4983  131.7718  154.4045 H   0  0  0  0  0  0  0  0  0  0  0  0
  146.2467  131.9917  153.1914 H   0  0  0  0  0  0  0  0  0  0  0  0
  148.3567  131.0503  151.7319 H   0  0  0  0  0  0  0  0  0  0  0  0
  148.6353  129.1820  151.1610 H   0  0  0  0  0  0  0  0  0  0  0  0
  148.8289  126.9964  149.7524 H   0  0  0  0  0  0  0  0  0  0  0  0
  148.6355  124.1783  149.2762 H   0  0  0  0  0  0  0  0  0  0  0  0
  147.7394  123.3217  150.5315 H   0  0  0  0  0  0  0  0  0  0  0  0
  149.4829  123.5477  150.6897 H   0  0  0  0  0  0  0  0  0  0  0  0
  146.9653  133.8720  150.4349 H   0  0  0  0  0  0  0  0  0  0  0  0
  145.7577  133.0356  151.3816 H   0  0  0  0  0  0  0  0  0  0  0  0
  144.7673  134.8249  149.9289 H   0  0  0  0  0  0  0  0  0  0  0  0
  145.8374  136.0158  150.6215 H   0  0  0  0  0  0  0  0  0  0  0  0
  147.5250  135.1793  152.3185 H   0  0  0  0  0  0  0  0  0  0  0  0
  1  2  1  0  0  0  0
  1 22  1  0  0  0  0
  1 23  1  0  0  0  0
  1 24  1  0  0  0  0
  2  3  1  0  0  0  0
  2 25  1  0  0  0  0
  2 26  1  0  0  0  0
  3 21  1  0  0  0  0
  3  4  1  0  0  0  0
  4  5  1  0  0  0  0
  4 27  1  0  0  0  0
  4 28  1  0  0  0  0
  5  6  1  0  0  0  0
  5 29  1  0  0  0  0
  5 30  1  0  0  0  0
  6  7  1  0  0  0  0
  6 20  1  0  0  0  0
  6 47  1  0  0  0  0
  7  8  1  0  0  0  0
  7  9  1  0  0  0  0
  7 31  1  0  0  0  0
  8 32  1  0  0  0  0
  8 33  1  0  0  0  0
  8 34  1  0  0  0  0
  9 10  1  0  0  0  0
  9 35  1  0  0  0  0
  9 36  1  0  0  0  0
 10 11  1  0  0  0  0
 10 37  1  0  0  0  0
 11 12  2  0  0  0  0
 11 13  1  0  0  0  0
 13 14  1  0  0  0  0
 13 38  1  0  0  0  0
 14 19  2  0  0  0  0
 14 15  1  0  0  0  0
 15 16  2  0  0  0  0
 15 39  1  0  0  0  0
 16 17  1  0  0  0  0
 16 18  1  0  0  0  0
 17 40  1  0  0  0  0
 17 41  1  0  0  0  0
 17 42  1  0  0  0  0
 18 19  1  0  0  0  0
 20 21  1  0  0  0  0
 20 43  1  0  0  0  0
 20 44  1  0  0  0  0
 21 45  1  0  0  0  0
 21 46  1  0  0  0  0
M  CHG  1   6   1
M  END
> <s_m_source_file>
AV-unprocessed.smi

> <i_m_source_file_index>
1586

> <i_lp_mmshare_version>
43012

> <i_f3d_flags>
0

> <s_epik_input>
W0NIM11bQ0gyXU4xW0NIMl1bQ0gyXU4oW0NIMl1bQ0gyXTEpW0NASF0oW0NIM10pW0NIMl1bTkhdQyg9TylbTkhdYzJbY0hdYyhbQ0gzXSlvbjI=

> <s_epik_cmdline>
J2VwaWtfcHl0aG9uJywgJy1waCcsICc3LjAnLCAnLXRuJywgJzgnLCAnLW1hJywgJzIwMCcsICctbWV0YWxfYmluZGluZycsICctaW1hZScsICc8aW5maWxlLm1hZT4nLCAnLW9tYWUnLCAnPG91dGZpbGUubWFlPic=

> <r_epik_Ionization_Penalty>
0.153363

> <r_epik_Ionization_Penalty_Charging>
0.151842

> <r_epik_Ionization_Penalty_Neutral>
0.00152029

> <r_epik_State_Penalty>
0.985235

> <r_epik_Charging_Adjusted_Penalty>
1.13708

> <i_epik_Tot_Q>
1

> <i_epik_Tot_abs_Q>
1

> <r_epik_Metal_State_Penalty>
0.996168

> <b_epik_Metal_Only>
0

> <s_lp_Force_Field>
OPLS_2005

> <r_lp_Energy>
21.483

> <b_lp_Chiralities_Consistent>
1

> <s_lp_Variant>
AV-unprocessed.smi:1586-4

> <Gold.Version>
5.8.1

> <Gold.Id.Protein>
6NUR|6NUR_protein|mol2

> <Gold.PLP.Fitness>
46.1258

> <Gold.PLP.PLP>
-37.6637

> <Gold.PLP.part.hbond>
-4.3447

> <Gold.PLP.part.metal>
0.0000

> <Gold.PLP.part.buried>
-4.4458

> <Gold.PLP.part.nonpolar>
-28.6481

> <Gold.PLP.part.repulsive>
0.3809

> <Gold.PLP.ligand.clash>
0.0000

> <Gold.PLP.ligand.torsion>
0.9296

> <Gold.PLP.Chemscore.Hbond>
3.4176

> <Gold.PLP.Chemscore.CHOScore>
0.0000

> <Gold.PLP.Chemscore.Metal>
0.0000

> <Gold.Chemscore.Hbonds>
donor molecule, donor type, donor heavy atom, donor atom, acceptor molecule, acceptor atom, score
      L1  H     6    47       P1  7948  2.00
      L1  H    10    37       P1 10747  1.00
      L1  H    13    38       P1 10747  0.37

> <Gold.PLP.Chemscore.Internal.Correction>
0.0686

> <Gold.Rescore>
     Score         DG    S(hbond)    S(metal)    S(lipo)     H(rot)  DE(clash)    DE(int)     intcor
     12.85     -14.96       1.95        0.00      64.07       1.76       0.01       2.09       ----

> <Gold.Chemscore.Fitness>
12.8502

> <Gold.Chemscore.DG>
-14.9589

> <Gold.Chemscore.ZeroCoef>
-5.4800

> <Gold.Chemscore.Hbond>
1.9455

> <Gold.Chemscore.Metal>
0.0000

> <Gold.Chemscore.Lipo>
64.0684

> <Gold.Chemscore.Internal_Hbond>
0.0000

> <Gold.Chemscore.DEClash>
0.0147

> <Gold.Chemscore.DEInternal>
2.0941

> <Gold.Chemscore.Rot>
1.7637

> <Gold.Chemscore.Internal.Correction>
   9.000000E+99

> <Gold.Chemscore.Hbonds>
donor molecule, donor type, donor heavy atom, donor atom, acceptor molecule, acceptor atom, score
      L1  H     6    47       P1  7948  0.98
      L1  H    10    37       P1 10747  0.97
      L1  H    13    38       P1 10747  0.01

> <Gold.Chemscore.Hbond.Weighted>
-6.4980

> <Gold.Chemscore.Metal.Weighted>
-0.0000

> <Gold.Chemscore.Lipo.Weighted>
-7.4960

> <Gold.Chemscore.Internal_Hbond.Weighted>
0.0000

> <Gold.Chemscore.DEClash.Weighted>
0.0147

> <Gold.Chemscore.DEInternal.Weighted>
2.0941

> <Gold.Chemscore.Rot.Weighted>
4.5150

> <Gold.Chemscore.Internal.Correction.Weighted>
   9.000000E+99

> <Gold.Protein.RotatedTorsions>
[ 6907 6896 6895 6894 ] final   -7.14 input  -60.11 | X-H torsion
[ 7974 7965 7964 7962 ] final  166.49 input  175.53 | X-H torsion
[ 8008 7997 7996 7995 ] final  -43.96 input   59.86 | X-H torsion
[ 10167 10162 10161 10158 ] final   95.07 input  -65.29 | X-H torsion
[ 10718 10713 10712 10709 ] final -166.50 input   66.30 | X-H torsion
[ 10763 10752 10751 10750 ] final  -53.91 input  -60.55 | X-H torsion
[ 11005 11000 10999 10996 ] final -132.04 input  -57.11 | X-H torsion

> <Gold.Protein.ActiveResidues>
 VAL166  LYS551  ARG553  GLY616  TRP617  ASP618  TYR619  PRO620  LYS621  CYS622 
 ASP623  PHE694  ASN695  SER759  ASP760  ASP761  ALA762  ILE779  LEU786  VAL792 
 PHE793  MET794  SER795  GLU796  ALA797  LYS798  CYS799  TRP800  GLU811  SER814 

> <Gold.Protein.RotatedAtoms>
  151.4544  135.1033  159.9706 H   0  0  0  0  0  0  0  0  0  0  0  0  # atno 6907 bound_to 6896
  152.4876  133.8411  159.7163 H   0  0  0  0  0  0  0  0  0  0  0  0  # atno 6908 bound_to 6896
  150.9000  133.7071  159.2908 H   0  0  0  0  0  0  0  0  0  0  0  0  # atno 6909 bound_to 6896
  144.7460  139.8623  143.6382 H   0  0  0  0  0  0  0  0  0  0  0  0  # atno 7974 bound_to 7965
  154.3997  140.1434  156.3605 H   0  0  0  0  0  0  0  0  0  0  0  0  # atno 8008 bound_to 7997
  155.8185  140.3470  155.5479 H   0  0  0  0  0  0  0  0  0  0  0  0  # atno 8009 bound_to 7997
  155.8312  140.0912  157.1782 H   0  0  0  0  0  0  0  0  0  0  0  0  # atno 8010 bound_to 7997
  139.8024  144.6808  150.9748 H   0  0  0  0  0  0  0  0  0  0  0  0  # atno 10167 bound_to 10162
  156.6687  130.9075  151.3040 H   0  0  0  0  0  0  0  0  0  0  0  0  # atno 10718 bound_to 10713
  154.1663  135.6466  153.4998 H   0  0  0  0  0  0  0  0  0  0  0  0  # atno 10763 bound_to 10752
  153.0096  135.5373  154.6658 H   0  0  0  0  0  0  0  0  0  0  0  0  # atno 10764 bound_to 10752
  154.5986  135.2941  155.0532 H   0  0  0  0  0  0  0  0  0  0  0  0  # atno 10765 bound_to 10752
  140.9205  134.1450  157.4318 H   0  0  0  0  0  0  0  0  0  0  0  0  # atno 11005 bound_to 11000
  146.1339  139.4380  143.0151 LP  0  0  0  0  0  0  0  0  0  0  0  0  # atno 17320 bound_to 7965
  145.7121  141.0103  143.1448 LP  0  0  0  0  0  0  0  0  0  0  0  0  # atno 17321 bound_to 7965
  140.7820  143.4268  151.0755 LP  0  0  0  0  0  0  0  0  0  0  0  0  # atno 17342 bound_to 10162
  139.7939  143.8179  152.3155 LP  0  0  0  0  0  0  0  0  0  0  0  0  # atno 17343 bound_to 10162
  157.7084  130.9412  150.1008 LP  0  0  0  0  0  0  0  0  0  0  0  0  # atno 17370 bound_to 10713
  156.1955  130.3657  149.8855 LP  0  0  0  0  0  0  0  0  0  0  0  0  # atno 17371 bound_to 10713
  139.8774  134.9969  156.5821 LP  0  0  0  0  0  0  0  0  0  0  0  0  # atno 17394 bound_to 11000
  140.7994  133.8518  155.8713 LP  0  0  0  0  0  0  0  0  0  0  0  0  # atno 17395 bound_to 11000

$$$$
