AV-unprocessed.smi:1878|AV-procd|sdf|7626|dock1
  -GOLD-   22720 9353D 1   1.00000     0.00000
 Structure written by MMmdl.
 35 36  0  0  0  0  0  0  0  0  1 V2000
  146.5713  139.1933  154.4117 O   0  0  0  0  0  0  0  0  0  0  0  0
  147.2916  138.4049  153.7998 C   0  0  0  0  0  0  0  0  0  0  0  0
  146.8218  137.4867  152.9446 N   0  0  0  0  0  0  0  0  0  0  0  0
  145.4111  137.2687  152.6388 C   0  0  0  0  0  0  0  0  0  0  0  0
  145.1190  135.8014  152.2816 C   0  0  0  0  0  0  0  0  0  0  0  0
  145.6944  135.0088  153.1849 F   0  0  0  0  0  0  0  0  0  0  0  0
  143.8046  135.5776  152.2935 F   0  0  0  0  0  0  0  0  0  0  0  0
  145.6051  135.4968  151.0783 F   0  0  0  0  0  0  0  0  0  0  0  0
  148.6325  138.3541  153.8784 N   0  0  0  0  0  0  0  0  0  0  0  0
  149.5018  139.1478  154.6744 C   0  0  0  0  0  0  0  0  0  0  0  0
  150.9041  138.9696  154.7429 C   0  0  0  0  0  0  0  0  0  0  0  0
  151.6608  139.8332  155.5578 C   0  0  0  0  0  0  0  0  0  0  0  0
  150.9985  140.8534  156.2709 C   0  0  0  0  0  0  0  0  0  0  0  0
  151.7562  141.7082  157.0857 N   0  0  0  0  0  0  0  0  0  0  0  0
  151.0433  142.8529  157.6284 C   0  0  0  0  0  0  0  0  0  0  0  0
  151.9343  143.3914  158.7506 C   0  0  0  0  0  0  0  0  0  0  0  0
  152.8229  142.2068  159.1499 C   0  0  0  0  0  0  0  0  0  0  0  0
  152.3990  141.0661  158.2204 C   0  0  0  0  0  0  0  0  0  0  0  0
  149.6587  141.0385  156.1980 N   0  0  0  0  0  0  0  0  0  0  0  0
  148.9388  140.2071  155.4155 C   0  0  0  0  0  0  0  0  0  0  0  0
  147.4844  136.8809  152.4832 H   0  0  0  0  0  0  0  0  0  0  0  0
  144.7832  137.5905  153.4715 H   0  0  0  0  0  0  0  0  0  0  0  0
  145.1513  137.9098  151.7960 H   0  0  0  0  0  0  0  0  0  0  0  0
  149.0903  137.7067  153.2535 H   0  0  0  0  0  0  0  0  0  0  0  0
  151.4140  138.2026  154.1811 H   0  0  0  0  0  0  0  0  0  0  0  0
  152.7324  139.7154  155.6284 H   0  0  0  0  0  0  0  0  0  0  0  0
  150.8661  143.6060  156.8600 H   0  0  0  0  0  0  0  0  0  0  0  0
  150.0767  142.5486  158.0322 H   0  0  0  0  0  0  0  0  0  0  0  0
  152.5530  144.2104  158.3818 H   0  0  0  0  0  0  0  0  0  0  0  0
  151.3445  143.7703  159.5858 H   0  0  0  0  0  0  0  0  0  0  0  0
  153.8717  142.4582  158.9881 H   0  0  0  0  0  0  0  0  0  0  0  0
  152.7046  141.9335  160.1987 H   0  0  0  0  0  0  0  0  0  0  0  0
  151.6985  140.4054  158.7333 H   0  0  0  0  0  0  0  0  0  0  0  0
  153.2539  140.4689  157.9019 H   0  0  0  0  0  0  0  0  0  0  0  0
  147.8746  140.3921  155.3856 H   0  0  0  0  0  0  0  0  0  0  0  0
  1  2  2  0  0  0  0
  2  3  1  0  0  0  0
  2  9  1  0  0  0  0
  3  4  1  0  0  0  0
  3 21  1  0  0  0  0
  4  5  1  0  0  0  0
  4 22  1  0  0  0  0
  4 23  1  0  0  0  0
  5  6  1  0  0  0  0
  5  7  1  0  0  0  0
  5  8  1  0  0  0  0
  9 10  1  0  0  0  0
  9 24  1  0  0  0  0
 10 20  1  0  0  0  0
 10 11  2  0  0  0  0
 11 12  1  0  0  0  0
 11 25  1  0  0  0  0
 12 13  2  0  0  0  0
 12 26  1  0  0  0  0
 13 14  1  0  0  0  0
 13 19  1  0  0  0  0
 14 18  1  0  0  0  0
 14 15  1  0  0  0  0
 15 16  1  0  0  0  0
 15 27  1  0  0  0  0
 15 28  1  0  0  0  0
 16 17  1  0  0  0  0
 16 29  1  0  0  0  0
 16 30  1  0  0  0  0
 17 18  1  0  0  0  0
 17 31  1  0  0  0  0
 17 32  1  0  0  0  0
 18 33  1  0  0  0  0
 18 34  1  0  0  0  0
 19 20  2  0  0  0  0
 20 35  1  0  0  0  0
M  END
> <s_m_source_file>
AV-unprocessed.smi

> <i_m_source_file_index>
1878

> <i_lp_mmshare_version>
43012

> <i_f3d_flags>
0

> <s_epik_input>
RkMoRikoRilbQ0gyXVtOSF1DKD1PKVtOSF1jMVtjSF1bY0hdYyhuW2NIXTEpTjJbQ0gyXVtDSDJdW0NIMl1bQ0gyXTI=

> <s_epik_cmdline>
J2VwaWtfcHl0aG9uJywgJy1waCcsICc3LjAnLCAnLXRuJywgJzgnLCAnLW1hJywgJzIwMCcsICctbWV0YWxfYmluZGluZycsICctaW1hZScsICc8aW5maWxlLm1hZT4nLCAnLW9tYWUnLCAnPG91dGZpbGUubWFlPic=

> <r_lp_tautomer_probability>
1

> <r_epik_Ionization_Penalty>
0.0792036

> <r_epik_Ionization_Penalty_Charging>
0

> <r_epik_Ionization_Penalty_Neutral>
0.0792036

> <r_epik_State_Penalty>
0.0695266

> <r_epik_Charging_Adjusted_Penalty>
0.0695266

> <i_epik_Tot_Q>
0

> <i_epik_Tot_abs_Q>
0

> <r_epik_Metal_State_Penalty>
0.068466

> <b_epik_Metal_Only>
0

> <s_lp_Force_Field>
OPLS_2005

> <r_lp_Energy>
32.2563

> <b_lp_Chiralities_Consistent>
1

> <s_lp_Variant>
AV-unprocessed.smi:1878-1

> <Gold.Version>
5.8.1

> <Gold.Id.Protein>
6NUR|6NUR_protein|mol2

> <Gold.PLP.Fitness>
39.7214

> <Gold.PLP.PLP>
-34.5367

> <Gold.PLP.part.hbond>
-2.6475

> <Gold.PLP.part.metal>
0.0000

> <Gold.PLP.part.buried>
-2.3739

> <Gold.PLP.part.nonpolar>
-31.5501

> <Gold.PLP.part.repulsive>
0.3213

> <Gold.PLP.ligand.clash>
0.0000

> <Gold.PLP.ligand.torsion>
0.4146

> <Gold.PLP.Chemscore.Hbond>
1.9920

> <Gold.PLP.Chemscore.CHOScore>
0.0000

> <Gold.PLP.Chemscore.Metal>
0.0000

> <Gold.Chemscore.Hbonds>
donor molecule, donor type, donor heavy atom, donor atom, acceptor molecule, acceptor atom, score
      L1  H     3    21       P1  7948  1.00
      L1  H     9    24       P1  7948  1.00

> <Gold.PLP.Chemscore.Internal.Correction>
0.0378

> <Gold.Rescore>
     Score         DG    S(hbond)    S(metal)    S(lipo)     H(rot)  DE(clash)    DE(int)     intcor
     15.05     -16.84       1.87        0.00      72.89       1.33       0.14       1.65       ----

> <Gold.Chemscore.Fitness>
15.0492

> <Gold.Chemscore.DG>
-16.8428

> <Gold.Chemscore.ZeroCoef>
-5.4800

> <Gold.Chemscore.Hbond>
1.8695

> <Gold.Chemscore.Metal>
0.0000

> <Gold.Chemscore.Lipo>
72.8874

> <Gold.Chemscore.Internal_Hbond>
0.0000

> <Gold.Chemscore.DEClash>
0.1388

> <Gold.Chemscore.DEInternal>
1.6547

> <Gold.Chemscore.Rot>
1.3317

> <Gold.Chemscore.Internal.Correction>
   9.000000E+99

> <Gold.Chemscore.Hbonds>
donor molecule, donor type, donor heavy atom, donor atom, acceptor molecule, acceptor atom, score
      L1  H     3    21       P1  7948  1.00
      L1  H     9    24       P1  7948  0.90

> <Gold.Chemscore.Hbond.Weighted>
-6.2442

> <Gold.Chemscore.Metal.Weighted>
-0.0000

> <Gold.Chemscore.Lipo.Weighted>
-8.5278

> <Gold.Chemscore.Internal_Hbond.Weighted>
0.0000

> <Gold.Chemscore.DEClash.Weighted>
0.1388

> <Gold.Chemscore.DEInternal.Weighted>
1.6547

> <Gold.Chemscore.Rot.Weighted>
3.4092

> <Gold.Chemscore.Internal.Correction.Weighted>
   9.000000E+99

> <Gold.Protein.RotatedTorsions>
[ 6907 6896 6895 6894 ] final   22.89 input  -60.11 | X-H torsion
[ 7974 7965 7964 7962 ] final  -41.89 input  175.53 | X-H torsion
[ 8008 7997 7996 7995 ] final  102.40 input   59.86 | X-H torsion
[ 10167 10162 10161 10158 ] final  135.81 input  -65.29 | X-H torsion
[ 10718 10713 10712 10709 ] final  -17.65 input   66.30 | X-H torsion
[ 10763 10752 10751 10750 ] final  116.47 input  -60.55 | X-H torsion
[ 11005 11000 10999 10996 ] final   34.89 input  -57.11 | X-H torsion

> <Gold.Protein.ActiveResidues>
 VAL166  LYS551  ARG553  GLY616  TRP617  ASP618  TYR619  PRO620  LYS621  CYS622 
 ASP623  PHE694  ASN695  SER759  ASP760  ASP761  ALA762  ILE779  LEU786  VAL792 
 PHE793  MET794  SER795  GLU796  ALA797  LYS798  CYS799  TRP800  GLU811  SER814 

> <Gold.Protein.RotatedAtoms>
  151.9340  135.0243  160.0530 H   0  0  0  0  0  0  0  0  0  0  0  0  # atno 6907 bound_to 6896
  152.2094  133.4895  159.5110 H   0  0  0  0  0  0  0  0  0  0  0  0  # atno 6908 bound_to 6896
  150.6972  134.1404  159.4145 H   0  0  0  0  0  0  0  0  0  0  0  0  # atno 6909 bound_to 6896
  146.0168  140.6898  142.9197 H   0  0  0  0  0  0  0  0  0  0  0  0  # atno 7974 bound_to 7965
  156.1389  140.3182  155.8465 H   0  0  0  0  0  0  0  0  0  0  0  0  # atno 8008 bound_to 7997
  155.4191  140.0511  157.3044 H   0  0  0  0  0  0  0  0  0  0  0  0  # atno 8009 bound_to 7997
  154.4960  140.2111  155.9459 H   0  0  0  0  0  0  0  0  0  0  0  0  # atno 8010 bound_to 7997
  139.5203  144.6497  151.5337 H   0  0  0  0  0  0  0  0  0  0  0  0  # atno 10167 bound_to 10162
  156.5706  130.4748  149.6364 H   0  0  0  0  0  0  0  0  0  0  0  0  # atno 10718 bound_to 10713
  153.5377  135.3565  155.2704 H   0  0  0  0  0  0  0  0  0  0  0  0  # atno 10763 bound_to 10752
  154.8720  135.4083  154.3079 H   0  0  0  0  0  0  0  0  0  0  0  0  # atno 10764 bound_to 10752
  153.3780  135.7067  153.6654 H   0  0  0  0  0  0  0  0  0  0  0  0  # atno 10765 bound_to 10752
  140.2482  134.3334  155.7900 H   0  0  0  0  0  0  0  0  0  0  0  0  # atno 11005 bound_to 11000
  144.6974  140.3496  143.7184 LP  0  0  0  0  0  0  0  0  0  0  0  0  # atno 17320 bound_to 7965
  145.7255  139.1721  143.2460 LP  0  0  0  0  0  0  0  0  0  0  0  0  # atno 17321 bound_to 7965
  140.6297  143.9099  150.6595 LP  0  0  0  0  0  0  0  0  0  0  0  0  # atno 17342 bound_to 10162
  140.2400  143.3671  152.1495 LP  0  0  0  0  0  0  0  0  0  0  0  0  # atno 17343 bound_to 10162
  156.2718  130.7021  151.1820 LP  0  0  0  0  0  0  0  0  0  0  0  0  # atno 17370 bound_to 10713
  157.7349  131.0577  150.5500 LP  0  0  0  0  0  0  0  0  0  0  0  0  # atno 17371 bound_to 10713
  141.2204  133.7338  156.8995 LP  0  0  0  0  0  0  0  0  0  0  0  0  # atno 17394 bound_to 11000
  140.1584  134.9182  157.2684 LP  0  0  0  0  0  0  0  0  0  0  0  0  # atno 17395 bound_to 11000

$$$$
