AV-unprocessed.smi:101|AV-procd|sdf|926|dock1
  -GOLD-   2262017433D 1   1.00000     0.00000
 Structure written by MMmdl.
 44 46  0  0  0  0  0  0  0  0  1 V2000
  146.3531  137.8015  158.5336 C   0  0  0  0  0  0  0  0  0  0  0  0
  146.2662  139.1695  157.8774 C   0  0  0  0  0  0  0  0  0  0  0  0
  147.2536  139.6607  157.0855 C   0  0  0  0  0  0  0  0  0  0  0  0
  147.2018  140.9062  156.4739 N   0  0  0  0  0  0  0  0  0  0  0  0
  148.3235  141.3972  155.5875 C   0  0  1  0  0  0  0  0  0  0  0  0
  149.5039  141.4369  156.3346 O   0  0  0  0  0  0  0  0  0  0  0  0
  150.5524  140.7854  155.6254 C   0  0  1  0  0  0  0  0  0  0  0  0
  151.5730  140.2160  156.6169 C   0  0  0  0  0  0  0  0  0  0  0  0
  151.8272  141.1781  157.6269 O   0  0  0  0  0  0  0  0  0  0  0  0
  152.6730  140.8906  158.6349 C   0  0  0  0  0  0  0  0  0  0  0  0
  153.4334  139.9203  158.6316 O   0  0  0  0  0  0  0  0  0  0  0  0
  152.5934  141.8704  159.7566 C   0  0  0  0  0  0  0  0  0  0  0  0
  151.9010  143.0887  159.5648 C   0  0  0  0  0  0  0  0  0  0  0  0
  151.8092  144.0333  160.6055 C   0  0  0  0  0  0  0  0  0  0  0  0
  152.4091  143.7712  161.8509 C   0  0  0  0  0  0  0  0  0  0  0  0
  153.1011  142.5631  162.0542 C   0  0  0  0  0  0  0  0  0  0  0  0
  153.1937  141.6171  161.0146 C   0  0  0  0  0  0  0  0  0  0  0  0
  149.8150  139.7143  154.8245 C   0  0  2  0  0  0  0  0  0  0  0  0
  150.5647  139.2247  153.7285 O   0  0  0  0  0  0  0  0  0  0  0  0
  148.5334  140.4289  154.4111 C   0  0  2  0  0  0  0  0  0  0  0  0
  148.6668  141.1342  153.1902 O   0  0  0  0  0  0  0  0  0  0  0  0
  146.0569  141.7117  156.6412 C   0  0  0  0  0  0  0  0  0  0  0  0
  145.9241  142.8070  156.0963 O   0  0  0  0  0  0  0  0  0  0  0  0
  145.0455  141.2105  157.4586 N   0  0  0  0  0  0  0  0  0  0  0  0
  145.0640  139.9749  158.1101 C   0  0  0  0  0  0  0  0  0  0  0  0
  144.1082  139.6430  158.8095 O   0  0  0  0  0  0  0  0  0  0  0  0
  144.2266  141.7870  157.5866 H   0  0  0  0  0  0  0  0  0  0  0  0
  147.2876  137.2946  158.2911 H   0  0  0  0  0  0  0  0  0  0  0  0
  145.5318  137.1661  158.2003 H   0  0  0  0  0  0  0  0  0  0  0  0
  146.2955  137.8952  159.6186 H   0  0  0  0  0  0  0  0  0  0  0  0
  148.1221  139.0396  156.9218 H   0  0  0  0  0  0  0  0  0  0  0  0
  148.0682  142.4163  155.2898 H   0  0  0  0  0  0  0  0  0  0  0  0
  151.0207  141.5011  154.9471 H   0  0  0  0  0  0  0  0  0  0  0  0
  151.2060  139.2853  157.0524 H   0  0  0  0  0  0  0  0  0  0  0  0
  152.5073  139.9927  156.1001 H   0  0  0  0  0  0  0  0  0  0  0  0
  151.4325  143.3123  158.6172 H   0  0  0  0  0  0  0  0  0  0  0  0
  151.2773  144.9600  160.4473 H   0  0  0  0  0  0  0  0  0  0  0  0
  152.3392  144.4956  162.6488 H   0  0  0  0  0  0  0  0  0  0  0  0
  153.5632  142.3607  163.0092 H   0  0  0  0  0  0  0  0  0  0  0  0
  153.7332  140.7007  161.2044 H   0  0  0  0  0  0  0  0  0  0  0  0
  149.5606  138.8796  155.4794 H   0  0  0  0  0  0  0  0  0  0  0  0
  150.0243  139.2631  152.9542 H   0  0  0  0  0  0  0  0  0  0  0  0
  147.6971  139.7347  154.3161 H   0  0  0  0  0  0  0  0  0  0  0  0
  148.6974  140.5071  152.4835 H   0  0  0  0  0  0  0  0  0  0  0  0
  1  2  1  0  0  0  0
  1 28  1  0  0  0  0
  1 29  1  0  0  0  0
  1 30  1  0  0  0  0
  2 25  1  0  0  0  0
  2  3  2  0  0  0  0
  3  4  1  0  0  0  0
  3 31  1  0  0  0  0
  4  5  1  0  0  0  0
  4 22  1  0  0  0  0
  5 20  1  0  0  0  0
  5  6  1  0  0  0  0
  5 32  1  0  0  0  0
  6  7  1  0  0  0  0
  7  8  1  0  0  0  0
  7 18  1  0  0  0  0
  7 33  1  0  0  0  0
  8  9  1  0  0  0  0
  8 34  1  0  0  0  0
  8 35  1  0  0  0  0
  9 10  1  0  0  0  0
 10 11  2  0  0  0  0
 10 12  1  0  0  0  0
 12 17  1  0  0  0  0
 12 13  2  0  0  0  0
 13 14  1  0  0  0  0
 13 36  1  0  0  0  0
 14 15  2  0  0  0  0
 14 37  1  0  0  0  0
 15 16  1  0  0  0  0
 15 38  1  0  0  0  0
 16 17  2  0  0  0  0
 16 39  1  0  0  0  0
 17 40  1  0  0  0  0
 18 19  1  0  0  0  0
 18 20  1  0  0  0  0
 18 41  1  0  0  0  0
 19 42  1  0  0  0  0
 20 21  1  0  0  0  0
 20 43  1  0  0  0  0
 21 44  1  0  0  0  0
 22 23  2  0  0  0  0
 22 24  1  0  0  0  0
 24 27  1  0  0  0  0
 24 25  1  0  0  0  0
 25 26  2  0  0  0  0
M  END
> <s_m_source_file>
AV-unprocessed.smi

> <i_m_source_file_index>
101

> <i_lp_mmshare_version>
43012

> <i_f3d_flags>
0

> <s_epik_input>
Tz1jMVtuSF1jKD1PKW4oW2NIXWMxW0NIM10pW0NAQEhdMk9bQ0BIXShbQ0BASF0oW09IXSlbQ0BIXTJbT0hdKVtDSDJdT0MoPU8pYzNbY0hdW2NIXVtjSF1bY0hdW2NIXTM=

> <s_epik_cmdline>
J2VwaWtfcHl0aG9uJywgJy1waCcsICc3LjAnLCAnLXRuJywgJzgnLCAnLW1hJywgJzIwMCcsICctbWV0YWxfYmluZGluZycsICctaW1hZScsICc8aW5maWxlLm1hZT4nLCAnLW9tYWUnLCAnPG91dGZpbGUubWFlPic=

> <r_lp_tautomer_probability>
0.999537

> <r_epik_Ionization_Penalty>
0.00263537

> <r_epik_Ionization_Penalty_Charging>
0.00263428

> <r_epik_Ionization_Penalty_Neutral>
1.09111e-06

> <r_epik_State_Penalty>
0.00183335

> <r_epik_Charging_Adjusted_Penalty>
0.00446763

> <i_epik_Tot_Q>
0

> <i_epik_Tot_abs_Q>
0

> <r_epik_Metal_State_Penalty>
1.00528

> <b_epik_Metal_Only>
0

> <s_epik_Chemistry_Notes>
This compound has an ester and may undergo hydrolysis at high or low pH. This compound contains an acetal/aminal-like group ( X-CH(R)-Y where X, Y are N, S, or O) that may be acid/base labile, releasing an aldehyde.

> <s_lp_Force_Field>
OPLS_2005

> <r_lp_Energy>
34.5485

> <b_lp_Chiralities_Consistent>
1

> <s_lp_Variant>
AV-unprocessed.smi:101-14

> <Gold.Version>
5.8.1

> <Gold.Id.Protein>
6NUR|6NUR_protein|mol2

> <Gold.PLP.Fitness>
54.2313

> <Gold.PLP.PLP>
-41.7699

> <Gold.PLP.part.hbond>
-4.8290

> <Gold.PLP.part.metal>
0.0000

> <Gold.PLP.part.buried>
-2.7093

> <Gold.PLP.part.nonpolar>
-33.2629

> <Gold.PLP.part.repulsive>
0.2686

> <Gold.PLP.ligand.clash>
0.0000

> <Gold.PLP.ligand.torsion>
0.3990

> <Gold.PLP.Chemscore.Hbond>
4.4048

> <Gold.PLP.Chemscore.CHOScore>
0.0000

> <Gold.PLP.Chemscore.Metal>
0.0000

> <Gold.Chemscore.Hbonds>
donor molecule, donor type, donor heavy atom, donor atom, acceptor molecule, acceptor atom, score
      L1  H    19    42       P1  7957  1.00
      L1  H    21    44       P1  7957  0.85
      P1  H  7989  7998       L1    19  0.74
      P1  H  7997  8009       L1    11  1.00
      P1  H  8011  8017       L1    21  0.75

> <Gold.PLP.Chemscore.Internal.Correction>
0.0451

> <Gold.Rescore>
     Score         DG    S(hbond)    S(metal)    S(lipo)     H(rot)  DE(clash)    DE(int)     intcor
     16.21     -17.07       2.80        0.00      91.81       3.32       0.49       0.38       ----

> <Gold.Chemscore.Fitness>
16.2091

> <Gold.Chemscore.DG>
-17.0729

> <Gold.Chemscore.ZeroCoef>
-5.4800

> <Gold.Chemscore.Hbond>
2.7975

> <Gold.Chemscore.Metal>
0.0000

> <Gold.Chemscore.Lipo>
91.8057

> <Gold.Chemscore.Internal_Hbond>
0.0000

> <Gold.Chemscore.DEClash>
0.4857

> <Gold.Chemscore.DEInternal>
0.3781

> <Gold.Chemscore.Rot>
3.3172

> <Gold.Chemscore.Internal.Correction>
   9.000000E+99

> <Gold.Chemscore.Hbonds>
donor molecule, donor type, donor heavy atom, donor atom, acceptor molecule, acceptor atom, score
      L1  H    19    42       P1  7957  0.87
      L1  H    21    44       P1  7957  0.85
      P1  H  7989  7998       L1    19  0.02
      P1  H  7997  8009       L1    11  0.67
      P1  H  8011  8017       L1    21  0.09

> <Gold.Chemscore.Hbond.Weighted>
-9.3436

> <Gold.Chemscore.Metal.Weighted>
-0.0000

> <Gold.Chemscore.Lipo.Weighted>
-10.7413

> <Gold.Chemscore.Internal_Hbond.Weighted>
0.0000

> <Gold.Chemscore.DEClash.Weighted>
0.4857

> <Gold.Chemscore.DEInternal.Weighted>
0.3781

> <Gold.Chemscore.Rot.Weighted>
8.4920

> <Gold.Chemscore.Internal.Correction.Weighted>
   9.000000E+99

> <Gold.Protein.RotatedTorsions>
[ 6907 6896 6895 6894 ] final -108.07 input  -60.11 | X-H torsion
[ 7974 7965 7964 7962 ] final   99.53 input  175.53 | X-H torsion
[ 8008 7997 7996 7995 ] final  151.11 input   59.86 | X-H torsion
[ 10167 10162 10161 10158 ] final   22.96 input  -65.29 | X-H torsion
[ 10718 10713 10712 10709 ] final  -38.96 input   66.30 | X-H torsion
[ 10763 10752 10751 10750 ] final  -30.73 input  -60.55 | X-H torsion
[ 11005 11000 10999 10996 ] final   -5.23 input  -57.11 | X-H torsion

> <Gold.Protein.ActiveResidues>
 VAL166  LYS551  ARG553  GLY616  TRP617  ASP618  TYR619  PRO620  LYS621  CYS622 
 ASP623  PHE694  ASN695  SER759  ASP760  ASP761  ALA762  ILE779  LEU786  VAL792 
 PHE793  MET794  SER795  GLU796  ALA797  LYS798  CYS799  TRP800  GLU811  SER814 

> <Gold.Protein.RotatedAtoms>
  150.7480  133.9731  159.3552 H   0  0  0  0  0  0  0  0  0  0  0  0  # atno 6907 bound_to 6896
  151.7667  135.0794  160.0363 H   0  0  0  0  0  0  0  0  0  0  0  0  # atno 6908 bound_to 6896
  152.3367  133.5982  159.5883 H   0  0  0  0  0  0  0  0  0  0  0  0  # atno 6909 bound_to 6896
  145.3976  139.2353  143.3318 H   0  0  0  0  0  0  0  0  0  0  0  0  # atno 7974 bound_to 7965
  156.2688  140.2056  156.6124 H   0  0  0  0  0  0  0  0  0  0  0  0  # atno 8008 bound_to 7997
  154.6821  140.0539  157.0300 H   0  0  0  0  0  0  0  0  0  0  0  0  # atno 8009 bound_to 7997
  155.0986  140.3203  155.4556 H   0  0  0  0  0  0  0  0  0  0  0  0  # atno 8010 bound_to 7997
  140.5307  143.9846  150.6464 H   0  0  0  0  0  0  0  0  0  0  0  0  # atno 10167 bound_to 10162
  156.2979  130.4236  149.8173 H   0  0  0  0  0  0  0  0  0  0  0  0  # atno 10718 bound_to 10713
  153.7858  135.6901  153.4880 H   0  0  0  0  0  0  0  0  0  0  0  0  # atno 10763 bound_to 10752
  153.1782  135.4516  154.9991 H   0  0  0  0  0  0  0  0  0  0  0  0  # atno 10764 bound_to 10752
  154.8064  135.3358  154.7357 H   0  0  0  0  0  0  0  0  0  0  0  0  # atno 10765 bound_to 10752
  140.6889  133.9088  155.8605 H   0  0  0  0  0  0  0  0  0  0  0  0  # atno 11005 bound_to 11000
  146.2767  140.4669  142.8792 LP  0  0  0  0  0  0  0  0  0  0  0  0  # atno 17320 bound_to 7965
  144.8396  140.6837  143.6238 LP  0  0  0  0  0  0  0  0  0  0  0  0  # atno 17321 bound_to 7965
  140.3220  143.3131  152.0774 LP  0  0  0  0  0  0  0  0  0  0  0  0  # atno 17342 bound_to 10162
  139.4953  144.6567  151.6556 LP  0  0  0  0  0  0  0  0  0  0  0  0  # atno 17343 bound_to 10162
  156.5562  130.8363  151.3315 LP  0  0  0  0  0  0  0  0  0  0  0  0  # atno 17370 bound_to 10713
  157.7360  130.9771  150.2112 LP  0  0  0  0  0  0  0  0  0  0  0  0  # atno 17371 bound_to 10713
  141.0257  134.0826  157.4071 LP  0  0  0  0  0  0  0  0  0  0  0  0  # atno 17394 bound_to 11000
  139.8929  135.0127  156.6872 LP  0  0  0  0  0  0  0  0  0  0  0  0  # atno 17395 bound_to 11000

$$$$
