AV-unprocessed.smi:2273|AV-procd|sdf|9165|dock5
  -GOLD-   2272012373D 1   1.00000     0.00000
 Structure written by MMmdl.
 53 54  0  0  0  0  0  0  0  0  1 V2000
  152.1840  137.9872  154.2998 C   0  0  0  0  0  0  0  0  0  0  0  0
  152.6489  138.2564  155.7391 C   0  0  0  0  0  0  0  0  0  0  0  0
  152.1688  139.6082  156.3257 C   0  0  0  0  0  0  0  0  0  0  0  0
  152.4182  139.6799  157.8532 C   0  0  0  0  0  0  0  0  0  0  0  0
  151.6813  138.6087  158.6718 C   0  0  0  0  0  0  0  0  0  0  0  0
  150.6847  139.9023  155.9819 C   0  0  1  0  0  0  0  0  0  0  0  0
  150.0535  141.0463  156.8035 C   0  0  0  0  0  0  0  0  0  0  0  0
  148.5795  141.2415  156.4061 C   0  0  1  0  0  0  0  0  0  0  0  0
  147.9984  142.4003  157.0871 N   0  0  0  0  0  0  0  0  0  0  0  0
  146.9331  142.4360  157.9082 C   0  0  0  0  0  0  0  0  0  0  0  0
  146.2851  141.4218  158.1625 O   0  0  0  0  0  0  0  0  0  0  0  0
  146.6382  143.6627  158.3845 N   0  0  0  0  0  0  0  0  0  0  0  0
  145.5533  143.9968  159.2090 C   0  0  0  0  0  0  0  0  0  0  0  0
  144.5852  144.8168  158.7215 C   0  0  0  0  0  0  0  0  0  0  0  0
  144.6276  145.3478  157.2973 C   0  0  0  0  0  0  0  0  0  0  0  0
  143.4718  145.1760  159.5747 C   0  0  0  0  0  0  0  0  0  0  0  0
  143.4218  144.7029  160.8270 C   0  0  0  0  0  0  0  0  0  0  0  0
  144.4310  143.8778  161.3436 N   0  0  0  0  0  0  0  0  0  0  0  0
  144.2947  143.4278  162.7312 C   0  0  0  0  0  0  0  0  0  0  0  0
  145.5268  143.5216  160.6134 C   0  0  0  0  0  0  0  0  0  0  0  0
  146.4355  142.8602  161.1206 O   0  0  0  0  0  0  0  0  0  0  0  0
  148.4958  141.4359  154.8850 C   0  0  0  0  0  0  0  0  0  0  0  0
  149.2122  140.2910  154.1505 C   0  0  0  0  0  0  0  0  0  0  0  0
  150.5630  140.1914  154.5906 O   0  0  0  0  0  0  0  0  0  0  0  0
  152.4637  136.9799  153.9905 H   0  0  0  0  0  0  0  0  0  0  0  0
  152.6324  138.6766  153.5858 H   0  0  0  0  0  0  0  0  0  0  0  0
  151.1003  138.0690  154.2138 H   0  0  0  0  0  0  0  0  0  0  0  0
  152.2790  137.4321  156.3450 H   0  0  0  0  0  0  0  0  0  0  0  0
  153.7366  138.1943  155.7894 H   0  0  0  0  0  0  0  0  0  0  0  0
  152.7680  140.3931  155.8621 H   0  0  0  0  0  0  0  0  0  0  0  0
  153.4878  139.6275  158.0593 H   0  0  0  0  0  0  0  0  0  0  0  0
  152.0925  140.6452  158.2368 H   0  0  0  0  0  0  0  0  0  0  0  0
  151.8176  138.7837  159.7393 H   0  0  0  0  0  0  0  0  0  0  0  0
  152.0486  137.6047  158.4632 H   0  0  0  0  0  0  0  0  0  0  0  0
  150.6101  138.6263  158.4701 H   0  0  0  0  0  0  0  0  0  0  0  0
  150.1004  139.0078  156.1954 H   0  0  0  0  0  0  0  0  0  0  0  0
  150.1365  140.8237  157.8668 H   0  0  0  0  0  0  0  0  0  0  0  0
  150.5872  141.9816  156.6400 H   0  0  0  0  0  0  0  0  0  0  0  0
  148.0124  140.3442  156.6609 H   0  0  0  0  0  0  0  0  0  0  0  0
  148.4526  143.2842  156.9075 H   0  0  0  0  0  0  0  0  0  0  0  0
  147.1653  144.4397  158.0142 H   0  0  0  0  0  0  0  0  0  0  0  0
  143.7564  145.9661  157.0798 H   0  0  0  0  0  0  0  0  0  0  0  0
  144.6408  144.5251  156.5817 H   0  0  0  0  0  0  0  0  0  0  0  0
  145.5182  145.9578  157.1433 H   0  0  0  0  0  0  0  0  0  0  0  0
  142.6809  145.8137  159.2076 H   0  0  0  0  0  0  0  0  0  0  0  0
  142.6158  144.9338  161.5083 H   0  0  0  0  0  0  0  0  0  0  0  0
  144.3862  142.3424  162.7969 H   0  0  0  0  0  0  0  0  0  0  0  0
  143.3314  143.6949  163.1673 H   0  0  0  0  0  0  0  0  0  0  0  0
  145.0723  143.8732  163.3533 H   0  0  0  0  0  0  0  0  0  0  0  0
  147.4543  141.4887  154.5659 H   0  0  0  0  0  0  0  0  0  0  0  0
  148.9573  142.3841  154.6053 H   0  0  0  0  0  0  0  0  0  0  0  0
  148.6966  139.3432  154.3121 H   0  0  0  0  0  0  0  0  0  0  0  0
  149.2063  140.4746  153.0760 H   0  0  0  0  0  0  0  0  0  0  0  0
  1  2  1  0  0  0  0
  1 25  1  0  0  0  0
  1 26  1  0  0  0  0
  1 27  1  0  0  0  0
  2  3  1  0  0  0  0
  2 28  1  0  0  0  0
  2 29  1  0  0  0  0
  3  4  1  0  0  0  0
  3  6  1  0  0  0  0
  3 30  1  0  0  0  0
  4  5  1  0  0  0  0
  4 31  1  0  0  0  0
  4 32  1  0  0  0  0
  5 33  1  0  0  0  0
  5 34  1  0  0  0  0
  5 35  1  0  0  0  0
  6 24  1  0  0  0  0
  6  7  1  0  0  0  0
  6 36  1  0  0  0  0
  7  8  1  0  0  0  0
  7 37  1  0  0  0  0
  7 38  1  0  0  0  0
  8  9  1  0  0  0  0
  8 22  1  0  0  0  0
  8 39  1  0  0  0  0
  9 10  1  0  0  0  0
  9 40  1  0  0  0  0
 10 11  2  0  0  0  0
 10 12  1  0  0  0  0
 12 13  1  0  0  0  0
 12 41  1  0  0  0  0
 13 20  1  0  0  0  0
 13 14  2  0  0  0  0
 14 15  1  0  0  0  0
 14 16  1  0  0  0  0
 15 42  1  0  0  0  0
 15 43  1  0  0  0  0
 15 44  1  0  0  0  0
 16 17  2  0  0  0  0
 16 45  1  0  0  0  0
 17 18  1  0  0  0  0
 17 46  1  0  0  0  0
 18 19  1  0  0  0  0
 18 20  1  0  0  0  0
 19 47  1  0  0  0  0
 19 48  1  0  0  0  0
 19 49  1  0  0  0  0
 20 21  2  0  0  0  0
 22 23  1  0  0  0  0
 22 50  1  0  0  0  0
 22 51  1  0  0  0  0
 23 24  1  0  0  0  0
 23 52  1  0  0  0  0
 23 53  1  0  0  0  0
M  END
> <s_m_source_file>
AV-unprocessed.smi

> <i_m_source_file_index>
2273

> <i_lp_mmshare_version>
43012

> <i_f3d_flags>
0

> <s_epik_input>
W0NIM11bQ0gyXVtDSF0oW0NIMl1bQ0gzXSlbQ0BASF0xW0NIMl1bQ0BIXShbQ0gyXVtDSDJdTzEpW05IXUMoPU8pW05IXWMyYyhbQ0gzXSlbY0hdW2NIXW4oW0NIM10pYzI9Tw==

> <s_epik_cmdline>
J2VwaWtfcHl0aG9uJywgJy1waCcsICc3LjAnLCAnLXRuJywgJzgnLCAnLW1hJywgJzIwMCcsICctbWV0YWxfYmluZGluZycsICctaW1hZScsICc8aW5maWxlLm1hZT4nLCAnLW9tYWUnLCAnPG91dGZpbGUubWFlPic=

> <r_lp_tautomer_probability>
1

> <r_epik_Ionization_Penalty>
2.66245e-05

> <r_epik_Ionization_Penalty_Charging>
6.91055e-06

> <r_epik_Ionization_Penalty_Neutral>
1.97139e-05

> <r_epik_State_Penalty>
-0

> <r_epik_Charging_Adjusted_Penalty>
6.91055e-06

> <i_epik_Tot_Q>
0

> <i_epik_Tot_abs_Q>
0

> <r_epik_Metal_State_Penalty>
-0

> <b_epik_Metal_Only>
0

> <s_lp_Force_Field>
OPLS_2005

> <r_lp_Energy>
39.8716

> <b_lp_Chiralities_Consistent>
1

> <s_lp_Variant>
AV-unprocessed.smi:2273-2

> <Gold.Version>
5.8.1

> <Gold.Id.Protein>
6NUR|6NUR_protein|mol2

> <Gold.PLP.Fitness>
48.6295

> <Gold.PLP.PLP>
-36.4598

> <Gold.PLP.part.hbond>
-5.0000

> <Gold.PLP.part.metal>
0.0000

> <Gold.PLP.part.buried>
-1.3221

> <Gold.PLP.part.nonpolar>
-29.9221

> <Gold.PLP.part.repulsive>
0.1614

> <Gold.PLP.ligand.clash>
0.0000

> <Gold.PLP.ligand.torsion>
0.9784

> <Gold.PLP.Chemscore.Hbond>
4.4742

> <Gold.PLP.Chemscore.CHOScore>
0.0000

> <Gold.PLP.Chemscore.Metal>
0.0000

> <Gold.Chemscore.Hbonds>
donor molecule, donor type, donor heavy atom, donor atom, acceptor molecule, acceptor atom, score
      L1  H     9    40       P1  8028  0.99
      L1  H    12    41       P1  8029  1.00
      P1  H  6933  6944       L1    21  0.61
      P1  H  6934  6946       L1    21  0.76
      P1  H  7989  7998       L1    24  1.00

> <Gold.PLP.Chemscore.Internal.Correction>
0.7040

> <Gold.Rescore>
     Score         DG    S(hbond)    S(metal)    S(lipo)     H(rot)  DE(clash)    DE(int)     intcor
     19.78     -23.53       3.32        0.00      90.59       1.42       1.28       2.47       ----

> <Gold.Chemscore.Fitness>
19.7820

> <Gold.Chemscore.DG>
-23.5337

> <Gold.Chemscore.ZeroCoef>
-5.4800

> <Gold.Chemscore.Hbond>
3.3231

> <Gold.Chemscore.Metal>
0.0000

> <Gold.Chemscore.Lipo>
90.5904

> <Gold.Chemscore.Internal_Hbond>
0.0000

> <Gold.Chemscore.DEClash>
1.2811

> <Gold.Chemscore.DEInternal>
2.4706

> <Gold.Chemscore.Rot>
1.4236

> <Gold.Chemscore.Internal.Correction>
   9.000000E+99

> <Gold.Chemscore.Hbonds>
donor molecule, donor type, donor heavy atom, donor atom, acceptor molecule, acceptor atom, score
      L1  H     9    40       P1  8028  0.28
      L1  H    12    41       P1  8029  0.45
      P1  H  6933  6944       L1    21  0.61
      P1  H  6934  6946       L1    21  0.73
      P1  H  7989  7998       L1    24  0.82

> <Gold.Chemscore.Hbond.Weighted>
-11.0991

> <Gold.Chemscore.Metal.Weighted>
-0.0000

> <Gold.Chemscore.Lipo.Weighted>
-10.5991

> <Gold.Chemscore.Internal_Hbond.Weighted>
0.0000

> <Gold.Chemscore.DEClash.Weighted>
1.2811

> <Gold.Chemscore.DEInternal.Weighted>
2.4706

> <Gold.Chemscore.Rot.Weighted>
3.6445

> <Gold.Chemscore.Internal.Correction.Weighted>
   9.000000E+99

> <Gold.Protein.RotatedTorsions>
[ 6907 6896 6895 6894 ] final -177.58 input  -60.11 | X-H torsion
[ 7974 7965 7964 7962 ] final  130.94 input  175.53 | X-H torsion
[ 8008 7997 7996 7995 ] final  -17.60 input   59.86 | X-H torsion
[ 10167 10162 10161 10158 ] final  -17.30 input  -65.29 | X-H torsion
[ 10718 10713 10712 10709 ] final  -77.01 input   66.30 | X-H torsion
[ 10763 10752 10751 10750 ] final   48.63 input  -60.55 | X-H torsion
[ 11005 11000 10999 10996 ] final -162.43 input  -57.11 | X-H torsion

> <Gold.Protein.ActiveResidues>
 VAL166  LYS551  ARG553  GLY616  TRP617  ASP618  TYR619  PRO620  LYS621  CYS622 
 ASP623  PHE694  ASN695  SER759  ASP760  ASP761  ALA762  ILE779  LEU786  VAL792 
 PHE793  MET794  SER795  GLU796  ALA797  LYS798  CYS799  TRP800  GLU811  SER814 

> <Gold.Protein.RotatedAtoms>
  151.6233  133.3337  159.3092 H   0  0  0  0  0  0  0  0  0  0  0  0  # atno 6907 bound_to 6896
  150.8095  134.7244  159.6686 H   0  0  0  0  0  0  0  0  0  0  0  0  # atno 6908 bound_to 6896
  152.4191  134.5993  160.0047 H   0  0  0  0  0  0  0  0  0  0  0  0  # atno 6909 bound_to 6896
  145.0126  139.4206  143.5237 H   0  0  0  0  0  0  0  0  0  0  0  0  # atno 7974 bound_to 7965
  154.4966  140.2138  155.9433 H   0  0  0  0  0  0  0  0  0  0  0  0  # atno 8008 bound_to 7997
  156.1379  140.3185  155.8417 H   0  0  0  0  0  0  0  0  0  0  0  0  # atno 8009 bound_to 7997
  155.4176  140.0494  157.3018 H   0  0  0  0  0  0  0  0  0  0  0  0  # atno 8010 bound_to 7997
  140.7245  143.5029  150.9846 H   0  0  0  0  0  0  0  0  0  0  0  0  # atno 10167 bound_to 10162
  156.0158  130.4480  150.3280 H   0  0  0  0  0  0  0  0  0  0  0  0  # atno 10718 bound_to 10713
  152.9791  135.5938  154.3957 H   0  0  0  0  0  0  0  0  0  0  0  0  # atno 10763 bound_to 10752
  154.3608  135.2767  155.2323 H   0  0  0  0  0  0  0  0  0  0  0  0  # atno 10764 bound_to 10752
  154.4321  135.6033  153.6130 H   0  0  0  0  0  0  0  0  0  0  0  0  # atno 10765 bound_to 10752
  140.6093  134.4866  157.5214 H   0  0  0  0  0  0  0  0  0  0  0  0  # atno 11005 bound_to 11000
  146.3472  139.9578  142.8721 LP  0  0  0  0  0  0  0  0  0  0  0  0  # atno 17320 bound_to 7965
  145.2003  140.9851  143.4160 LP  0  0  0  0  0  0  0  0  0  0  0  0  # atno 17321 bound_to 7965
  139.8739  143.7157  152.3164 LP  0  0  0  0  0  0  0  0  0  0  0  0  # atno 17342 bound_to 10162
  139.7416  144.7558  151.0644 LP  0  0  0  0  0  0  0  0  0  0  0  0  # atno 17343 bound_to 10162
  157.1378  131.0288  151.2941 LP  0  0  0  0  0  0  0  0  0  0  0  0  # atno 17370 bound_to 10713
  157.4497  130.7591  149.7140 LP  0  0  0  0  0  0  0  0  0  0  0  0  # atno 17371 bound_to 10713
  139.9199  134.8170  156.1245 LP  0  0  0  0  0  0  0  0  0  0  0  0  # atno 17394 bound_to 11000
  141.0819  133.6750  156.2354 LP  0  0  0  0  0  0  0  0  0  0  0  0  # atno 17395 bound_to 11000

$$$$
