AV-unprocessed.smi:194|AV-procd|sdf|1523|dock6
  -GOLD-   2262019363D 1   1.00000     0.00000
 Structure written by MMmdl.
 53 55  0  0  0  0  0  0  0  0  1 V2000
  147.4014  137.2185  163.1401 C   0  0  0  0  0  0  0  0  0  0  0  0
  146.3908  136.6911  162.0942 C   0  0  1  0  0  0  0  0  0  0  0  0
  144.9421  136.8407  162.6178 C   0  0  0  0  0  0  0  0  0  0  0  0
  143.8557  135.4987  161.9263 S   0  0  2  0  0  0  0  0  0  0  0  0
  142.3088  136.0040  162.8139 C   0  0  0  0  0  0  0  0  0  0  0  0
  144.3060  134.1781  162.5534 O   0  0  0  0  0  0  0  0  0  0  0  0
  146.5713  137.2837  160.7587 N   0  0  0  0  0  0  0  0  0  0  0  0
  145.3856  137.4154  159.9170 C   0  0  0  0  0  0  0  0  0  0  0  0
  147.6033  136.7975  160.0334 C   0  0  0  0  0  0  0  0  0  0  0  0
  148.7682  137.4895  160.0668 N   0  0  0  0  0  0  0  0  0  0  0  0
  149.8234  137.0512  159.3736 C   0  0  0  0  0  0  0  0  0  0  0  0
  149.9219  135.9701  158.5966 N   0  0  0  0  0  0  0  0  0  0  0  0
  148.7457  135.2804  158.5503 C   0  0  0  0  0  0  0  0  0  0  0  0
  147.5458  135.6201  159.2357 C   0  0  0  0  0  0  0  0  0  0  0  0
  146.5588  134.6822  158.9604 N   0  0  0  0  0  0  0  0  0  0  0  0
  147.1456  133.8301  158.1652 C   0  0  0  0  0  0  0  0  0  0  0  0
  148.4544  134.1213  157.8505 N   0  0  0  0  0  0  0  0  0  0  0  0
  149.3388  133.3382  156.9992 C   0  0  0  0  0  0  0  0  0  0  0  0
  148.7124  132.8015  155.6761 C   0  0  0  0  0  0  0  0  0  0  0  0
  148.0061  133.9467  154.8901 C   0  0  0  0  0  0  0  0  0  0  0  0
  148.8807  134.9742  154.4700 O   0  0  0  0  0  0  0  0  0  0  0  0
  149.7723  132.0755  154.8085 C   0  0  0  0  0  0  0  0  0  0  0  0
  149.1445  131.2624  153.6639 C   0  0  0  0  0  0  0  0  0  0  0  0
  148.2408  130.3037  154.1974 O   0  0  0  0  0  0  0  0  0  0  0  0
  147.1497  130.8976  154.8885 C   0  0  0  0  0  0  0  0  0  0  0  0
  147.6612  131.7349  156.0775 C   0  0  0  0  0  0  0  0  0  0  0  0
  147.1881  136.8112  164.1288 H   0  0  0  0  0  0  0  0  0  0  0  0
  147.3750  138.3057  163.2164 H   0  0  0  0  0  0  0  0  0  0  0  0
  148.4251  136.9319  162.8990 H   0  0  0  0  0  0  0  0  0  0  0  0
  146.5672  135.6201  161.9918 H   0  0  0  0  0  0  0  0  0  0  0  0
  144.9022  136.8173  163.7065 H   0  0  0  0  0  0  0  0  0  0  0  0
  144.5392  137.8078  162.3155 H   0  0  0  0  0  0  0  0  0  0  0  0
  142.0317  137.0241  162.5479 H   0  0  0  0  0  0  0  0  0  0  0  0
  142.4547  135.9519  163.8929 H   0  0  0  0  0  0  0  0  0  0  0  0
  141.4873  135.3409  162.5432 H   0  0  0  0  0  0  0  0  0  0  0  0
  145.6451  137.6688  158.8876 H   0  0  0  0  0  0  0  0  0  0  0  0
  144.7381  138.2089  160.2891 H   0  0  0  0  0  0  0  0  0  0  0  0
  144.8151  136.4862  159.9047 H   0  0  0  0  0  0  0  0  0  0  0  0
  150.7169  137.6527  159.4533 H   0  0  0  0  0  0  0  0  0  0  0  0
  146.6326  132.9640  157.7733 H   0  0  0  0  0  0  0  0  0  0  0  0
  150.2055  133.9623  156.7763 H   0  0  0  0  0  0  0  0  0  0  0  0
  149.7224  132.5064  157.5915 H   0  0  0  0  0  0  0  0  0  0  0  0
  147.5207  133.5733  153.9904 H   0  0  0  0  0  0  0  0  0  0  0  0
  147.2158  134.3899  155.4966 H   0  0  0  0  0  0  0  0  0  0  0  0
  148.7816  135.0911  153.5375 H   0  0  0  0  0  0  0  0  0  0  0  0
  150.5010  132.7775  154.4030 H   0  0  0  0  0  0  0  0  0  0  0  0
  150.3389  131.3871  155.4361 H   0  0  0  0  0  0  0  0  0  0  0  0
  148.6363  131.9070  152.9459 H   0  0  0  0  0  0  0  0  0  0  0  0
  149.9240  130.7351  153.1138 H   0  0  0  0  0  0  0  0  0  0  0  0
  146.5487  131.4921  154.2007 H   0  0  0  0  0  0  0  0  0  0  0  0
  146.4992  130.1022  155.2528 H   0  0  0  0  0  0  0  0  0  0  0  0
  148.1002  131.0449  156.7997 H   0  0  0  0  0  0  0  0  0  0  0  0
  146.8192  132.2046  156.5871 H   0  0  0  0  0  0  0  0  0  0  0  0
  1  2  1  0  0  0  0
  1 27  1  0  0  0  0
  1 28  1  0  0  0  0
  1 29  1  0  0  0  0
  2  3  1  0  0  0  0
  2  7  1  0  0  0  0
  2 30  1  0  0  0  0
  3  4  1  0  0  0  0
  3 31  1  0  0  0  0
  3 32  1  0  0  0  0
  4  5  1  0  0  0  0
  4  6  2  0  0  0  0
  5 33  1  0  0  0  0
  5 34  1  0  0  0  0
  5 35  1  0  0  0  0
  7  8  1  0  0  0  0
  7  9  1  0  0  0  0
  8 36  1  0  0  0  0
  8 37  1  0  0  0  0
  8 38  1  0  0  0  0
  9 14  1  0  0  0  0
  9 10  2  0  0  0  0
 10 11  1  0  0  0  0
 11 12  2  0  0  0  0
 11 39  1  0  0  0  0
 12 13  1  0  0  0  0
 13 17  1  0  0  0  0
 13 14  2  0  0  0  0
 14 15  1  0  0  0  0
 15 16  2  0  0  0  0
 16 17  1  0  0  0  0
 16 40  1  0  0  0  0
 17 18  1  0  0  0  0
 18 19  1  0  0  0  0
 18 41  1  0  0  0  0
 18 42  1  0  0  0  0
 19 26  1  0  0  0  0
 19 20  1  0  0  0  0
 19 22  1  0  0  0  0
 20 21  1  0  0  0  0
 20 43  1  0  0  0  0
 20 44  1  0  0  0  0
 21 45  1  0  0  0  0
 22 23  1  0  0  0  0
 22 46  1  0  0  0  0
 22 47  1  0  0  0  0
 23 24  1  0  0  0  0
 23 48  1  0  0  0  0
 23 49  1  0  0  0  0
 24 25  1  0  0  0  0
 25 26  1  0  0  0  0
 25 50  1  0  0  0  0
 25 51  1  0  0  0  0
 26 52  1  0  0  0  0
 26 53  1  0  0  0  0
M  END
> <s_m_source_file>
AV-unprocessed.smi

> <i_m_source_file_index>
194

> <i_lp_mmshare_version>
43012

> <i_f3d_flags>
0

> <s_epik_input>
W0NIM11bU0BAXSg9TylbQ0gyXVtDQEBIXShbQ0gzXSlOKFtDSDNdKWMobltjSF1uMSljKGMxMiluW2NIXW4yW0NIMl1DMyhbQ0gyXVtPSF0pW0NIMl1bQ0gyXU9bQ0gyXVtDSDJdMw==

> <s_epik_cmdline>
J2VwaWtfcHl0aG9uJywgJy1waCcsICc3LjAnLCAnLXRuJywgJzgnLCAnLW1hJywgJzIwMCcsICctbWV0YWxfYmluZGluZycsICctaW1hZScsICc8aW5maWxlLm1hZT4nLCAnLW9tYWUnLCAnPG91dGZpbGUubWFlPic=

> <r_lp_tautomer_probability>
1

> <r_epik_Ionization_Penalty>
0.00101625

> <r_epik_Ionization_Penalty_Charging>
0

> <r_epik_Ionization_Penalty_Neutral>
0.00101625

> <r_epik_State_Penalty>
0.000568005

> <r_epik_Charging_Adjusted_Penalty>
0.000568005

> <i_epik_Tot_Q>
0

> <i_epik_Tot_abs_Q>
0

> <r_epik_Metal_State_Penalty>
-0

> <b_epik_Metal_Only>
0

> <s_lp_Force_Field>
OPLS_2005

> <r_lp_Energy>
31.3732

> <b_lp_Chiralities_Consistent>
1

> <s_lp_Variant>
AV-unprocessed.smi:194-4

> <Gold.Version>
5.8.1

> <Gold.Id.Protein>
6NUR|6NUR_protein|mol2

> <Gold.PLP.Fitness>
36.1714

> <Gold.PLP.PLP>
-28.4504

> <Gold.PLP.part.hbond>
-5.0000

> <Gold.PLP.part.metal>
0.0000

> <Gold.PLP.part.buried>
-3.2730

> <Gold.PLP.part.nonpolar>
-21.1826

> <Gold.PLP.part.repulsive>
0.1262

> <Gold.PLP.ligand.clash>
0.0000

> <Gold.PLP.ligand.torsion>
1.6539

> <Gold.PLP.Chemscore.Hbond>
3.4480

> <Gold.PLP.Chemscore.CHOScore>
0.0000

> <Gold.PLP.Chemscore.Metal>
0.0000

> <Gold.Chemscore.Hbonds>
donor molecule, donor type, donor heavy atom, donor atom, acceptor molecule, acceptor atom, score
      L1  H    21    45       P1  7948  1.00
      P1  H  6896  6907       L1    12  0.75
      P1  H  6931  6943       L1    10  0.42
      P1  H  6934  6947       L1     7  0.90

> <Gold.PLP.Chemscore.Internal.Correction>
0.6849

> <Gold.Rescore>
     Score         DG    S(hbond)    S(metal)    S(lipo)     H(rot)  DE(clash)    DE(int)     intcor
      8.02      -9.83       1.79        0.00      58.53       3.31       0.26       1.55       ----

> <Gold.Chemscore.Fitness>
8.0196

> <Gold.Chemscore.DG>
-9.8297

> <Gold.Chemscore.ZeroCoef>
-5.4800

> <Gold.Chemscore.Hbond>
1.7888

> <Gold.Chemscore.Metal>
0.0000

> <Gold.Chemscore.Lipo>
58.5303

> <Gold.Chemscore.Internal_Hbond>
0.0000

> <Gold.Chemscore.DEClash>
0.2640

> <Gold.Chemscore.DEInternal>
1.5461

> <Gold.Chemscore.Rot>
3.3098

> <Gold.Chemscore.Internal.Correction>
   9.000000E+99

> <Gold.Chemscore.Hbonds>
donor molecule, donor type, donor heavy atom, donor atom, acceptor molecule, acceptor atom, score
      L1  H    21    45       P1  7948  0.60
      P1  H  6896  6907       L1    12  0.04
      P1  H  6931  6943       L1    10  0.30
      P1  H  6934  6947       L1     7  0.05

> <Gold.Chemscore.Hbond.Weighted>
-5.9746

> <Gold.Chemscore.Metal.Weighted>
-0.0000

> <Gold.Chemscore.Lipo.Weighted>
-6.8480

> <Gold.Chemscore.Internal_Hbond.Weighted>
0.0000

> <Gold.Chemscore.DEClash.Weighted>
0.2640

> <Gold.Chemscore.DEInternal.Weighted>
1.5461

> <Gold.Chemscore.Rot.Weighted>
8.4730

> <Gold.Chemscore.Internal.Correction.Weighted>
   9.000000E+99

> <Gold.Protein.RotatedTorsions>
[ 6907 6896 6895 6894 ] final  -57.86 input  -60.11 | X-H torsion
[ 7974 7965 7964 7962 ] final  150.05 input  175.53 | X-H torsion
[ 8008 7997 7996 7995 ] final  113.54 input   59.86 | X-H torsion
[ 10167 10162 10161 10158 ] final  -79.62 input  -65.29 | X-H torsion
[ 10718 10713 10712 10709 ] final  146.67 input   66.30 | X-H torsion
[ 10763 10752 10751 10750 ] final  137.54 input  -60.55 | X-H torsion
[ 11005 11000 10999 10996 ] final   67.77 input  -57.11 | X-H torsion

> <Gold.Protein.ActiveResidues>
 VAL166  LYS551  ARG553  GLY616  TRP617  ASP618  TYR619  PRO620  LYS621  CYS622 
 ASP623  PHE694  ASN695  SER759  ASP760  ASP761  ALA762  ILE779  LEU786  VAL792 
 PHE793  MET794  SER795  GLU796  ALA797  LYS798  CYS799  TRP800  GLU811  SER814 

> <Gold.Protein.RotatedAtoms>
  150.8053  134.7173  159.6637 H   0  0  0  0  0  0  0  0  0  0  0  0  # atno 6907 bound_to 6896
  152.4172  134.6017  160.0012 H   0  0  0  0  0  0  0  0  0  0  0  0  # atno 6908 bound_to 6896
  151.6243  133.3299  159.3131 H   0  0  0  0  0  0  0  0  0  0  0  0  # atno 6909 bound_to 6896
  144.8393  139.6358  143.6024 H   0  0  0  0  0  0  0  0  0  0  0  0  # atno 7974 bound_to 7965
  156.2264  140.2977  156.0078 H   0  0  0  0  0  0  0  0  0  0  0  0  # atno 8008 bound_to 7997
  155.2344  140.0420  157.2984 H   0  0  0  0  0  0  0  0  0  0  0  0  # atno 8009 bound_to 7997
  154.5923  140.2404  155.7912 H   0  0  0  0  0  0  0  0  0  0  0  0  # atno 8010 bound_to 7997
  140.4577  143.2463  151.8395 H   0  0  0  0  0  0  0  0  0  0  0  0  # atno 10167 bound_to 10162
  157.3304  131.0919  151.1167 H   0  0  0  0  0  0  0  0  0  0  0  0  # atno 10718 bound_to 10713
  153.8748  135.3051  155.3443 H   0  0  0  0  0  0  0  0  0  0  0  0  # atno 10763 bound_to 10752
  154.7789  135.4846  153.9805 H   0  0  0  0  0  0  0  0  0  0  0  0  # atno 10764 bound_to 10752
  153.1385  135.6819  153.9161 H   0  0  0  0  0  0  0  0  0  0  0  0  # atno 10765 bound_to 10752
  139.9751  134.6836  156.0370 H   0  0  0  0  0  0  0  0  0  0  0  0  # atno 11005 bound_to 11000
  146.2687  139.6583  142.9311 LP  0  0  0  0  0  0  0  0  0  0  0  0  # atno 17320 bound_to 7965
  145.4728  141.0436  143.2689 LP  0  0  0  0  0  0  0  0  0  0  0  0  # atno 17321 bound_to 7965
  139.4803  144.5045  151.9016 LP  0  0  0  0  0  0  0  0  0  0  0  0  # atno 17342 bound_to 10162
  140.4131  144.2342  150.5888 LP  0  0  0  0  0  0  0  0  0  0  0  0  # atno 17343 bound_to 10162
  157.2418  130.6573  149.5893 LP  0  0  0  0  0  0  0  0  0  0  0  0  # atno 17370 bound_to 10713
  155.9695  130.4566  150.5931 LP  0  0  0  0  0  0  0  0  0  0  0  0  # atno 17371 bound_to 10713
  141.1428  133.6561  156.3781 LP  0  0  0  0  0  0  0  0  0  0  0  0  # atno 17394 bound_to 11000
  140.5212  134.6303  157.5318 LP  0  0  0  0  0  0  0  0  0  0  0  0  # atno 17395 bound_to 11000

$$$$
