AV-unprocessed.smi:2451|AV-procd|sdf|9683|dock1
  -GOLD-   2272013323D 1   1.00000     0.00000
 Structure written by MMmdl.
 37 38  0  0  0  0  0  0  0  0  2 V2000
  150.5456  145.3214  160.1073 C   0  0  0  0  0  0  0  0  0  0  0  0
  151.2144  143.9700  160.4143 C   0  0  2  0  0  0  0  0  0  0  0  0
  152.1839  144.0838  161.6178 C   0  0  0  0  0  0  0  0  0  0  0  0
  152.7831  142.6988  161.9462 C   0  0  0  0  0  0  0  0  0  0  0  0
  153.4155  141.9969  160.7177 C   0  0  0  0  0  0  0  0  0  0  0  0
  152.4422  141.8890  159.5168 C   0  0  2  0  0  0  0  0  0  0  0  0
  153.0878  141.2639  158.3705 N   0  5  0  0  0  0  0  0  0  0  0  0
  152.1949  140.4903  157.2583 S   0  0  0  0  0  0  0  0  0  0  0  0
  153.0098  139.7456  156.2838 O   0  0  0  0  0  0  0  0  0  0  0  0
  151.0583  139.7791  157.8656 O   0  0  0  0  0  0  0  0  0  0  0  0
  151.4647  141.9214  156.3465 C   0  0  0  0  0  0  0  0  0  0  0  0
  150.5075  141.4450  155.2869 C   0  0  0  0  0  0  0  0  0  0  0  0
  149.1485  141.8165  155.0867 C   0  0  0  0  0  0  0  0  0  0  0  0
  148.7745  141.0880  153.9952 C   0  0  0  0  0  0  0  0  0  0  0  0
  149.8052  140.3203  153.5607 O   0  0  0  0  0  0  0  0  0  0  0  0
  150.9059  140.5520  154.3936 N   0  0  0  0  0  0  0  0  0  0  0  0
  151.8882  143.3091  159.1623 C   0  0  2  0  0  0  0  0  0  0  0  0
  152.9343  144.2487  158.4996 C   0  0  0  0  0  0  0  0  0  0  0  0
  151.2778  146.1016  159.9005 H   0  0  0  0  0  0  0  0  0  0  0  0
  149.9474  145.6578  160.9546 H   0  0  0  0  0  0  0  0  0  0  0  0
  149.8802  145.2444  159.2471 H   0  0  0  0  0  0  0  0  0  0  0  0
  150.3939  143.3210  160.7317 H   0  0  0  0  0  0  0  0  0  0  0  0
  152.9846  144.7890  161.3933 H   0  0  0  0  0  0  0  0  0  0  0  0
  151.6624  144.4766  162.4910 H   0  0  0  0  0  0  0  0  0  0  0  0
  153.5353  142.8066  162.7281 H   0  0  0  0  0  0  0  0  0  0  0  0
  152.0043  142.0638  162.3735 H   0  0  0  0  0  0  0  0  0  0  0  0
  154.3138  142.5389  160.4201 H   0  0  0  0  0  0  0  0  0  0  0  0
  153.7522  141.0035  161.0148 H   0  0  0  0  0  0  0  0  0  0  0  0
  151.5894  141.2925  159.8442 H   0  0  0  0  0  0  0  0  0  0  0  0
  150.9496  142.5444  157.0780 H   0  0  0  0  0  0  0  0  0  0  0  0
  152.2720  142.5177  155.9227 H   0  0  0  0  0  0  0  0  0  0  0  0
  148.5488  142.5159  155.6501 H   0  0  0  0  0  0  0  0  0  0  0  0
  147.8537  141.0080  153.4367 H   0  0  0  0  0  0  0  0  0  0  0  0
  151.1018  143.1599  158.4207 H   0  0  0  0  0  0  0  0  0  0  0  0
  153.7565  144.5023  159.1696 H   0  0  0  0  0  0  0  0  0  0  0  0
  152.4772  145.1857  158.1845 H   0  0  0  0  0  0  0  0  0  0  0  0
  153.3696  143.8211  157.5948 H   0  0  0  0  0  0  0  0  0  0  0  0
  1  2  1  0  0  0  0
  1 19  1  0  0  0  0
  1 20  1  0  0  0  0
  1 21  1  0  0  0  0
  2 17  1  0  0  0  0
  2  3  1  0  0  0  0
  2 22  1  0  0  0  0
  3  4  1  0  0  0  0
  3 23  1  0  0  0  0
  3 24  1  0  0  0  0
  4  5  1  0  0  0  0
  4 25  1  0  0  0  0
  4 26  1  0  0  0  0
  5  6  1  0  0  0  0
  5 27  1  0  0  0  0
  5 28  1  0  0  0  0
  6  7  1  0  0  0  0
  6 17  1  0  0  0  0
  6 29  1  0  0  0  0
  7  8  1  0  0  0  0
  8  9  2  0  0  0  0
  8 10  2  0  0  0  0
  8 11  1  0  0  0  0
 11 12  1  0  0  0  0
 11 30  1  0  0  0  0
 11 31  1  0  0  0  0
 12 16  2  0  0  0  0
 12 13  1  0  0  0  0
 13 14  2  0  0  0  0
 13 32  1  0  0  0  0
 14 15  1  0  0  0  0
 14 33  1  0  0  0  0
 15 16  1  0  0  0  0
 17 18  1  0  0  0  0
 17 34  1  0  0  0  0
 18 35  1  0  0  0  0
 18 36  1  0  0  0  0
 18 37  1  0  0  0  0
M  CHG  1   7  -1
M  END
> <s_m_source_file>
AV-unprocessed.smi

> <i_m_source_file_index>
2451

> <i_lp_mmshare_version>
43012

> <i_f3d_flags>
0

> <s_epik_input>
W0NIM11bQ0BASF0xW0NIMl1bQ0gyXVtDSDJdW0NASF0oW0NASF0xW0NIM10pW05IXVMoPU8pKD1PKVtDSDJdYzJbY0hdW2NIXW9uMg==

> <s_epik_cmdline>
J2VwaWtfcHl0aG9uJywgJy1waCcsICc3LjAnLCAnLXRuJywgJzgnLCAnLW1hJywgJzIwMCcsICctbWV0YWxfYmluZGluZycsICctaW1hZScsICc8aW5maWxlLm1hZT4nLCAnLW9tYWUnLCAnPG91dGZpbGUubWFlPic=

> <r_lp_tautomer_probability>
1

> <r_epik_Ionization_Penalty>
5.22693

> <r_epik_Ionization_Penalty_Charging>
5.22693

> <r_epik_Ionization_Penalty_Neutral>
2.67702e-10

> <r_epik_State_Penalty>
5.22685

> <r_epik_Charging_Adjusted_Penalty>
10.4538

> <i_epik_Tot_Q>
-1

> <i_epik_Tot_abs_Q>
1

> <r_epik_Metal_State_Penalty>
1.28716

> <b_epik_Metal_Only>
1

> <s_lp_Force_Field>
OPLS_2005

> <r_lp_Energy>
15.3168

> <b_lp_Chiralities_Consistent>
1

> <s_lp_Variant>
AV-unprocessed.smi:2451-15

> <Gold.Version>
5.8.1

> <Gold.Id.Protein>
6NUR|6NUR_protein|mol2

> <Gold.PLP.Fitness>
45.7405

> <Gold.PLP.PLP>
-40.4943

> <Gold.PLP.part.hbond>
-2.5663

> <Gold.PLP.part.metal>
0.0000

> <Gold.PLP.part.buried>
-5.0572

> <Gold.PLP.part.nonpolar>
-34.5919

> <Gold.PLP.part.repulsive>
1.7295

> <Gold.PLP.ligand.clash>
0.0000

> <Gold.PLP.ligand.torsion>
0.8898

> <Gold.PLP.Chemscore.Hbond>
2.0000

> <Gold.PLP.Chemscore.CHOScore>
0.0000

> <Gold.PLP.Chemscore.Metal>
0.0000

> <Gold.Chemscore.Hbonds>
donor molecule, donor type, donor heavy atom, donor atom, acceptor molecule, acceptor atom, score
      P1  H  7989  7998       L1    16  0.11
      P1  H  7997  8009       L1     9  0.73

> <Gold.PLP.Chemscore.Internal.Correction>
1.0258

> <Gold.Rescore>
     Score         DG    S(hbond)    S(metal)    S(lipo)     H(rot)  DE(clash)    DE(int)     intcor
     19.15     -20.37       1.62        0.00     111.64       1.40       0.27       0.96       ----

> <Gold.Chemscore.Fitness>
19.1461

> <Gold.Chemscore.DG>
-20.3718

> <Gold.Chemscore.ZeroCoef>
-5.4800

> <Gold.Chemscore.Hbond>
1.6197

> <Gold.Chemscore.Metal>
0.0000

> <Gold.Chemscore.Lipo>
111.6444

> <Gold.Chemscore.Internal_Hbond>
0.0000

> <Gold.Chemscore.DEClash>
0.2665

> <Gold.Chemscore.DEInternal>
0.9592

> <Gold.Chemscore.Rot>
1.3986

> <Gold.Chemscore.Internal.Correction>
   9.000000E+99

> <Gold.Chemscore.Hbonds>
donor molecule, donor type, donor heavy atom, donor atom, acceptor molecule, acceptor atom, score
      P1  H  7989  7998       L1    16  0.01
      P1  H  7997  8009       L1     9  0.36

> <Gold.Chemscore.Hbond.Weighted>
-5.4098

> <Gold.Chemscore.Metal.Weighted>
-0.0000

> <Gold.Chemscore.Lipo.Weighted>
-13.0624

> <Gold.Chemscore.Internal_Hbond.Weighted>
0.0000

> <Gold.Chemscore.DEClash.Weighted>
0.2665

> <Gold.Chemscore.DEInternal.Weighted>
0.9592

> <Gold.Chemscore.Rot.Weighted>
3.5804

> <Gold.Chemscore.Internal.Correction.Weighted>
   9.000000E+99

> <Gold.Protein.RotatedTorsions>
[ 6907 6896 6895 6894 ] final  146.05 input  -60.11 | X-H torsion
[ 7974 7965 7964 7962 ] final  -16.28 input  175.53 | X-H torsion
[ 8008 7997 7996 7995 ] final -177.85 input   59.86 | X-H torsion
[ 10167 10162 10161 10158 ] final -104.42 input  -65.29 | X-H torsion
[ 10718 10713 10712 10709 ] final   49.91 input   66.30 | X-H torsion
[ 10763 10752 10751 10750 ] final  170.91 input  -60.55 | X-H torsion
[ 11005 11000 10999 10996 ] final   74.34 input  -57.11 | X-H torsion

> <Gold.Protein.ActiveResidues>
 VAL166  LYS551  ARG553  GLY616  TRP617  ASP618  TYR619  PRO620  LYS621  CYS622 
 ASP623  PHE694  ASN695  SER759  ASP760  ASP761  ALA762  ILE779  LEU786  VAL792 
 PHE793  MET794  SER795  GLU796  ALA797  LYS798  CYS799  TRP800  GLU811  SER814 

> <Gold.Protein.RotatedAtoms>
  152.1729  133.4656  159.4918 H   0  0  0  0  0  0  0  0  0  0  0  0  # atno 6907 bound_to 6896
  150.6922  134.1930  159.4301 H   0  0  0  0  0  0  0  0  0  0  0  0  # atno 6908 bound_to 6896
  151.9838  135.0014  160.0609 H   0  0  0  0  0  0  0  0  0  0  0  0  # atno 6909 bound_to 6896
  146.1994  140.3614  142.8429 H   0  0  0  0  0  0  0  0  0  0  0  0  # atno 7974 bound_to 7965
  156.0119  140.1242  157.0445 H   0  0  0  0  0  0  0  0  0  0  0  0  # atno 8008 bound_to 7997
  154.4279  140.1086  156.5911 H   0  0  0  0  0  0  0  0  0  0  0  0  # atno 8009 bound_to 7997
  155.6068  140.3471  155.4612 H   0  0  0  0  0  0  0  0  0  0  0  0  # atno 8010 bound_to 7997
  140.2095  143.3757  152.1062 H   0  0  0  0  0  0  0  0  0  0  0  0  # atno 10167 bound_to 10162
  157.4833  130.8329  149.8118 H   0  0  0  0  0  0  0  0  0  0  0  0  # atno 10718 bound_to 10713
  154.4044  135.2755  155.2076 H   0  0  0  0  0  0  0  0  0  0  0  0  # atno 10763 bound_to 10752
  154.4089  135.6027  153.5944 H   0  0  0  0  0  0  0  0  0  0  0  0  # atno 10764 bound_to 10752
  152.9831  135.5944  154.4316 H   0  0  0  0  0  0  0  0  0  0  0  0  # atno 10765 bound_to 10752
  139.9396  134.7424  156.1135 H   0  0  0  0  0  0  0  0  0  0  0  0  # atno 11005 bound_to 11000
  144.8651  140.7194  143.6083 LP  0  0  0  0  0  0  0  0  0  0  0  0  # atno 17320 bound_to 7965
  145.3534  139.1700  143.4422 LP  0  0  0  0  0  0  0  0  0  0  0  0  # atno 17321 bound_to 7965
  139.5185  144.7007  151.5501 LP  0  0  0  0  0  0  0  0  0  0  0  0  # atno 17342 bound_to 10162
  140.6333  143.9032  150.6625 LP  0  0  0  0  0  0  0  0  0  0  0  0  # atno 17343 bound_to 10162
  156.0133  130.3824  150.2193 LP  0  0  0  0  0  0  0  0  0  0  0  0  # atno 17370 bound_to 10713
  157.0379  131.0026  151.3292 LP  0  0  0  0  0  0  0  0  0  0  0  0  # atno 17371 bound_to 10713
  141.1025  133.6672  156.2786 LP  0  0  0  0  0  0  0  0  0  0  0  0  # atno 17394 bound_to 11000
  140.5986  134.5577  157.5513 LP  0  0  0  0  0  0  0  0  0  0  0  0  # atno 17395 bound_to 11000

$$$$
