AV-unprocessed.smi:671|AV-procd|sdf|3288|dock4
  -GOLD-   22720 0243D 1   1.00000     0.00000
 Structure written by MMmdl.
 50 51  0  0  0  0  0  0  0  0  2 V2000
  142.3516  134.8343  152.9572 C   0  0  0  0  0  0  0  0  0  0  0  0
  143.3885  134.2942  152.0304 C   0  0  0  0  0  0  0  0  0  0  0  0
  143.1275  133.8138  150.7850 N   0  3  0  0  0  0  0  0  0  0  0  0
  144.2600  133.3966  150.2016 N   0  0  0  0  0  0  0  0  0  0  0  0
  144.1922  132.8421  148.8496 C   0  0  0  0  0  0  0  0  0  0  0  0
  145.3193  133.5887  151.0384 C   0  0  0  0  0  0  0  0  0  0  0  0
  146.7335  133.2340  150.7112 C   0  0  0  0  0  0  0  0  0  0  0  0
  144.7724  134.1594  152.1952 C   0  0  0  0  0  0  0  0  0  0  0  0
  145.5489  134.5569  153.4192 C   0  0  0  0  0  0  0  0  0  0  0  0
  145.3566  136.0404  153.8076 C   0  0  1  0  0  0  0  0  0  0  0  0
  145.0481  136.2240  155.3017 C   0  0  0  0  0  0  0  0  0  0  0  0
  146.5576  136.8111  153.4755 N   0  0  0  0  0  0  0  0  0  0  0  0
  146.8859  138.0548  153.8726 C   0  0  0  0  0  0  0  0  0  0  0  0
  146.1551  138.7134  154.6093 O   0  0  0  0  0  0  0  0  0  0  0  0
  148.0628  138.4976  153.3996 N   0  0  0  0  0  0  0  0  0  0  0  0
  148.6830  139.7854  153.6955 C   0  0  1  0  0  0  0  0  0  0  0  0
  147.6376  140.9155  153.6195 C   0  0  0  0  0  0  0  0  0  0  0  0
  147.4633  141.4345  155.0477 C   0  0  0  0  0  0  0  0  0  0  0  0
  148.8069  141.1575  155.7135 C   0  0  0  0  0  0  0  0  0  0  0  0
  149.2368  139.8059  155.1364 C   0  0  2  0  0  0  0  0  0  0  0  0
  150.7486  139.5552  155.2212 C   0  0  0  0  0  0  0  0  0  0  0  0
  142.3859  134.3060  153.9102 H   0  0  0  0  0  0  0  0  0  0  0  0
  141.3550  134.7151  152.5311 H   0  0  0  0  0  0  0  0  0  0  0  0
  142.5251  135.8947  153.1400 H   0  0  0  0  0  0  0  0  0  0  0  0
  145.0764  132.2343  148.6570 H   0  0  0  0  0  0  0  0  0  0  0  0
  144.1484  133.6606  148.1307 H   0  0  0  0  0  0  0  0  0  0  0  0
  143.3018  132.2193  148.7527 H   0  0  0  0  0  0  0  0  0  0  0  0
  147.4123  133.5787  151.4899 H   0  0  0  0  0  0  0  0  0  0  0  0
  147.0305  133.6953  149.7692 H   0  0  0  0  0  0  0  0  0  0  0  0
  146.8378  132.1529  150.6194 H   0  0  0  0  0  0  0  0  0  0  0  0
  145.2768  133.9236  154.2643 H   0  0  0  0  0  0  0  0  0  0  0  0
  146.6062  134.3542  153.2443 H   0  0  0  0  0  0  0  0  0  0  0  0
  144.5107  136.4508  153.2537 H   0  0  0  0  0  0  0  0  0  0  0  0
  144.1209  135.7241  155.5819 H   0  0  0  0  0  0  0  0  0  0  0  0
  144.9327  137.2794  155.5504 H   0  0  0  0  0  0  0  0  0  0  0  0
  145.8473  135.8216  155.9254 H   0  0  0  0  0  0  0  0  0  0  0  0
  147.2098  136.3563  152.8527 H   0  0  0  0  0  0  0  0  0  0  0  0
  148.5813  137.8824  152.7906 H   0  0  0  0  0  0  0  0  0  0  0  0
  149.4827  140.0073  152.9863 H   0  0  0  0  0  0  0  0  0  0  0  0
  148.0216  141.7175  152.9875 H   0  0  0  0  0  0  0  0  0  0  0  0
  146.6874  140.5978  153.1873 H   0  0  0  0  0  0  0  0  0  0  0  0
  147.1868  142.4888  155.0804 H   0  0  0  0  0  0  0  0  0  0  0  0
  146.6800  140.8688  155.5531 H   0  0  0  0  0  0  0  0  0  0  0  0
  149.5203  141.9331  155.4302 H   0  0  0  0  0  0  0  0  0  0  0  0
  148.7410  141.1475  156.8020 H   0  0  0  0  0  0  0  0  0  0  0  0
  148.7306  139.0355  155.7218 H   0  0  0  0  0  0  0  0  0  0  0  0
  151.3085  140.3107  154.6688 H   0  0  0  0  0  0  0  0  0  0  0  0
  151.0058  138.5802  154.8062 H   0  0  0  0  0  0  0  0  0  0  0  0
  151.0914  139.5773  156.2560 H   0  0  0  0  0  0  0  0  0  0  0  0
  142.2376  133.7479  150.3072 H   0  0  0  0  0  0  0  0  0  0  0  0
  1  2  1  0  0  0  0
  1 22  1  0  0  0  0
  1 23  1  0  0  0  0
  1 24  1  0  0  0  0
  2  8  1  0  0  0  0
  2  3  2  0  0  0  0
  3  4  1  0  0  0  0
  3 50  1  0  0  0  0
  4  5  1  0  0  0  0
  4  6  1  0  0  0  0
  5 25  1  0  0  0  0
  5 26  1  0  0  0  0
  5 27  1  0  0  0  0
  6  7  1  0  0  0  0
  6  8  2  0  0  0  0
  7 28  1  0  0  0  0
  7 29  1  0  0  0  0
  7 30  1  0  0  0  0
  8  9  1  0  0  0  0
  9 10  1  0  0  0  0
  9 31  1  0  0  0  0
  9 32  1  0  0  0  0
 10 11  1  0  0  0  0
 10 12  1  0  0  0  0
 10 33  1  0  0  0  0
 11 34  1  0  0  0  0
 11 35  1  0  0  0  0
 11 36  1  0  0  0  0
 12 13  1  0  0  0  0
 12 37  1  0  0  0  0
 13 14  2  0  0  0  0
 13 15  1  0  0  0  0
 15 16  1  0  0  0  0
 15 38  1  0  0  0  0
 16 20  1  0  0  0  0
 16 17  1  0  0  0  0
 16 39  1  0  0  0  0
 17 18  1  0  0  0  0
 17 40  1  0  0  0  0
 17 41  1  0  0  0  0
 18 19  1  0  0  0  0
 18 42  1  0  0  0  0
 18 43  1  0  0  0  0
 19 20  1  0  0  0  0
 19 44  1  0  0  0  0
 19 45  1  0  0  0  0
 20 21  1  0  0  0  0
 20 46  1  0  0  0  0
 21 47  1  0  0  0  0
 21 48  1  0  0  0  0
 21 49  1  0  0  0  0
M  CHG  1   3   1
M  END
> <s_m_source_file>
AV-unprocessed.smi

> <i_m_source_file_index>
671

> <i_lp_mmshare_version>
43012

> <i_f3d_flags>
0

> <s_epik_input>
W0NIM11jMW5uKFtDSDNdKWMoW0NIM10pYzFbQ0gyXVtDQEhdKFtDSDNdKVtOSF1DKD1PKVtOSF1bQ0BASF0yW0NIMl1bQ0gyXVtDSDJdW0NASF0yW0NIM10=

> <s_epik_cmdline>
J2VwaWtfcHl0aG9uJywgJy1waCcsICc3LjAnLCAnLXRuJywgJzgnLCAnLW1hJywgJzIwMCcsICctbWV0YWxfYmluZGluZycsICctaW1hZScsICc8aW5maWxlLm1hZT4nLCAnLW9tYWUnLCAnPG91dGZpbGUubWFlPic=

> <r_lp_tautomer_probability>
1

> <r_epik_Ionization_Penalty>
2.28705

> <r_epik_Ionization_Penalty_Charging>
2.28698

> <r_epik_Ionization_Penalty_Neutral>
6.23157e-05

> <r_epik_State_Penalty>
2.43671

> <r_epik_Charging_Adjusted_Penalty>
4.72369

> <i_epik_Tot_Q>
1

> <i_epik_Tot_abs_Q>
1

> <r_epik_Metal_State_Penalty>
2.44911

> <b_epik_Metal_Only>
0

> <s_lp_Force_Field>
OPLS_2005

> <r_lp_Energy>
34.8229

> <b_lp_Chiralities_Consistent>
1

> <s_lp_Variant>
AV-unprocessed.smi:671-16

> <Gold.Version>
5.8.1

> <Gold.Id.Protein>
6NUR|6NUR_protein|mol2

> <Gold.PLP.Fitness>
42.5036

> <Gold.PLP.PLP>
-33.1753

> <Gold.PLP.part.hbond>
-4.0000

> <Gold.PLP.part.metal>
0.0000

> <Gold.PLP.part.buried>
1.4260

> <Gold.PLP.part.nonpolar>
-30.1875

> <Gold.PLP.part.repulsive>
0.1428

> <Gold.PLP.ligand.clash>
0.0000

> <Gold.PLP.ligand.torsion>
1.0535

> <Gold.PLP.Chemscore.Hbond>
3.7920

> <Gold.PLP.Chemscore.CHOScore>
0.0000

> <Gold.PLP.Chemscore.Metal>
0.0000

> <Gold.Chemscore.Hbonds>
donor molecule, donor type, donor heavy atom, donor atom, acceptor molecule, acceptor atom, score
      L1  H     3    50       P1 10186  2.00
      L1  H    12    37       P1  7948  1.00
      L1  H    15    38       P1  7948  1.00

> <Gold.PLP.Chemscore.Internal.Correction>
0.0593

> <Gold.Rescore>
     Score         DG    S(hbond)    S(metal)    S(lipo)     H(rot)  DE(clash)    DE(int)     intcor
     15.02     -21.23       2.73        0.00      89.54       1.51       1.85       4.36       ----

> <Gold.Chemscore.Fitness>
15.0172

> <Gold.Chemscore.DG>
-21.2303

> <Gold.Chemscore.ZeroCoef>
-5.4800

> <Gold.Chemscore.Hbond>
2.7330

> <Gold.Chemscore.Metal>
0.0000

> <Gold.Chemscore.Lipo>
89.5447

> <Gold.Chemscore.Internal_Hbond>
0.0000

> <Gold.Chemscore.DEClash>
1.8533

> <Gold.Chemscore.DEInternal>
4.3597

> <Gold.Chemscore.Rot>
1.5057

> <Gold.Chemscore.Internal.Correction>
   9.000000E+99

> <Gold.Chemscore.Hbonds>
donor molecule, donor type, donor heavy atom, donor atom, acceptor molecule, acceptor atom, score
      L1  H     3    50       P1 10186  0.92
      L1  H    12    37       P1  7948  0.94
      L1  H    15    38       P1  7948  0.99

> <Gold.Chemscore.Hbond.Weighted>
-9.1282

> <Gold.Chemscore.Metal.Weighted>
-0.0000

> <Gold.Chemscore.Lipo.Weighted>
-10.4767

> <Gold.Chemscore.Internal_Hbond.Weighted>
0.0000

> <Gold.Chemscore.DEClash.Weighted>
1.8533

> <Gold.Chemscore.DEInternal.Weighted>
4.3597

> <Gold.Chemscore.Rot.Weighted>
3.8547

> <Gold.Chemscore.Internal.Correction.Weighted>
   9.000000E+99

> <Gold.Protein.RotatedTorsions>
[ 6907 6896 6895 6894 ] final  -18.21 input  -60.11 | X-H torsion
[ 7974 7965 7964 7962 ] final   83.81 input  175.53 | X-H torsion
[ 8008 7997 7996 7995 ] final  -33.84 input   59.86 | X-H torsion
[ 10167 10162 10161 10158 ] final   37.88 input  -65.29 | X-H torsion
[ 10718 10713 10712 10709 ] final -179.18 input   66.30 | X-H torsion
[ 10763 10752 10751 10750 ] final   39.48 input  -60.55 | X-H torsion
[ 11005 11000 10999 10996 ] final  -91.58 input  -57.11 | X-H torsion

> <Gold.Protein.ActiveResidues>
 VAL166  LYS551  ARG553  GLY616  TRP617  ASP618  TYR619  PRO620  LYS621  CYS622 
 ASP623  PHE694  ASN695  SER759  ASP760  ASP761  ALA762  ILE779  LEU786  VAL792 
 PHE793  MET794  SER795  GLU796  ALA797  LYS798  CYS799  TRP800  GLU811  SER814 

> <Gold.Protein.RotatedAtoms>
  151.2816  135.0715  159.9171 H   0  0  0  0  0  0  0  0  0  0  0  0  # atno 6907 bound_to 6896
  152.5333  134.0024  159.7911 H   0  0  0  0  0  0  0  0  0  0  0  0  # atno 6908 bound_to 6896
  151.0279  133.5766  159.2694 H   0  0  0  0  0  0  0  0  0  0  0  0  # atno 6909 bound_to 6896
  145.6070  139.2362  143.2214 H   0  0  0  0  0  0  0  0  0  0  0  0  # atno 7974 bound_to 7965
  154.4137  140.1700  156.1953 H   0  0  0  0  0  0  0  0  0  0  0  0  # atno 8008 bound_to 7997
  155.9569  140.3396  155.6433 H   0  0  0  0  0  0  0  0  0  0  0  0  # atno 8009 bound_to 7997
  155.6798  140.0721  157.2479 H   0  0  0  0  0  0  0  0  0  0  0  0  # atno 8010 bound_to 7997
  140.3990  144.1749  150.6133 H   0  0  0  0  0  0  0  0  0  0  0  0  # atno 10167 bound_to 10162
  156.8553  130.9733  151.3088 H   0  0  0  0  0  0  0  0  0  0  0  0  # atno 10718 bound_to 10713
  152.9966  135.6219  154.2472 H   0  0  0  0  0  0  0  0  0  0  0  0  # atno 10763 bound_to 10752
  154.2212  135.2796  155.2926 H   0  0  0  0  0  0  0  0  0  0  0  0  # atno 10764 bound_to 10752
  154.5527  135.5728  153.6995 H   0  0  0  0  0  0  0  0  0  0  0  0  # atno 10765 bound_to 10752
  141.1541  133.7765  156.9900 H   0  0  0  0  0  0  0  0  0  0  0  0  # atno 11005 bound_to 11000
  146.1533  140.6894  142.9312 LP  0  0  0  0  0  0  0  0  0  0  0  0  # atno 17320 bound_to 7965
  144.7286  140.4601  143.6955 LP  0  0  0  0  0  0  0  0  0  0  0  0  # atno 17321 bound_to 7965
  140.4759  143.2396  151.9023 LP  0  0  0  0  0  0  0  0  0  0  0  0  # atno 17342 bound_to 10162
  139.4785  144.5320  151.8652 LP  0  0  0  0  0  0  0  0  0  0  0  0  # atno 17343 bound_to 10162
  157.6280  130.8707  149.9224 LP  0  0  0  0  0  0  0  0  0  0  0  0  # atno 17370 bound_to 10713
  156.0806  130.3673  150.0589 LP  0  0  0  0  0  0  0  0  0  0  0  0  # atno 17371 bound_to 10713
  140.1009  134.9536  157.1921 LP  0  0  0  0  0  0  0  0  0  0  0  0  # atno 17394 bound_to 11000
  140.3320  134.2800  155.7226 LP  0  0  0  0  0  0  0  0  0  0  0  0  # atno 17395 bound_to 11000

$$$$
