AV-unprocessed.smi:2934|AV-procd|sdf|11255|dock3
  -GOLD-   2272016143D 1   1.00000     0.00000
 Structure written by MMmdl.
 44 45  0  0  0  0  0  0  0  0  2 V2000
  141.3481  135.6764  153.8551 C   0  0  0  0  0  0  0  0  0  0  0  0
  142.8078  135.5445  153.8811 N   0  0  0  0  0  0  0  0  0  0  0  0
  143.4751  135.9719  154.9861 C   0  0  0  0  0  0  0  0  0  0  0  0
  142.9067  136.4813  155.9536 O   0  0  0  0  0  0  0  0  0  0  0  0
  144.8131  135.8197  154.9398 N   0  0  0  0  0  0  0  0  0  0  0  0
  145.7522  136.1591  156.0074 C   0  0  0  0  0  0  0  0  0  0  0  0
  145.5170  135.3354  157.2901 C   0  0  0  0  0  0  0  0  0  0  0  0
  146.7219  135.3099  158.2367 C   0  0  0  0  0  0  0  0  0  0  0  0
  147.2891  134.2460  158.4865 O   0  0  0  0  0  0  0  0  0  0  0  0
  147.1112  136.4894  158.7430 N   0  0  0  0  0  0  0  0  0  0  0  0
  148.2269  136.6797  159.6661 C   0  0  0  0  0  0  0  0  0  0  0  0
  147.9670  135.9490  160.9973 C   0  0  0  0  0  0  0  0  0  0  0  0
  148.2945  136.9548  162.1019 C   0  0  0  0  0  0  0  0  0  0  0  0
  147.9759  138.3107  161.4808 C   0  0  0  0  0  0  0  0  0  0  0  0
  148.4177  138.1676  160.0238 C   0  0  0  0  0  0  0  0  0  0  0  0
  143.4363  134.9909  152.7243 C   0  0  0  0  0  0  0  0  0  0  0  0
  143.8757  135.8037  151.6507 C   0  0  0  0  0  0  0  0  0  0  0  0
  144.4998  135.2082  150.5355 C   0  0  0  0  0  0  0  0  0  0  0  0
  144.6798  133.8108  150.5102 C   0  0  0  0  0  0  0  0  0  0  0  0
  144.2339  133.0444  151.6050 C   0  0  0  0  0  0  0  0  0  0  0  0
  143.6410  133.6533  152.6555 N   0  3  0  0  0  0  0  0  0  0  0  0
  140.9142  135.2487  152.9503 H   0  0  0  0  0  0  0  0  0  0  0  0
  141.0561  136.7266  153.8987 H   0  0  0  0  0  0  0  0  0  0  0  0
  140.8939  135.1584  154.7011 H   0  0  0  0  0  0  0  0  0  0  0  0
  145.2109  135.4125  154.1060 H   0  0  0  0  0  0  0  0  0  0  0  0
  146.7569  135.9587  155.6349 H   0  0  0  0  0  0  0  0  0  0  0  0
  145.7297  137.2252  156.2403 H   0  0  0  0  0  0  0  0  0  0  0  0
  144.6610  135.7370  157.8340 H   0  0  0  0  0  0  0  0  0  0  0  0
  145.2482  134.3135  157.0191 H   0  0  0  0  0  0  0  0  0  0  0  0
  146.5937  137.3150  158.4779 H   0  0  0  0  0  0  0  0  0  0  0  0
  149.1448  136.2943  159.2178 H   0  0  0  0  0  0  0  0  0  0  0  0
  146.9172  135.6627  161.0811 H   0  0  0  0  0  0  0  0  0  0  0  0
  148.5567  135.0362  161.0882 H   0  0  0  0  0  0  0  0  0  0  0  0
  147.7349  136.7696  163.0191 H   0  0  0  0  0  0  0  0  0  0  0  0
  149.3570  136.9034  162.3433 H   0  0  0  0  0  0  0  0  0  0  0  0
  146.9009  138.4907  161.5236 H   0  0  0  0  0  0  0  0  0  0  0  0
  148.4735  139.1351  161.9923 H   0  0  0  0  0  0  0  0  0  0  0  0
  149.4752  138.4223  159.9431 H   0  0  0  0  0  0  0  0  0  0  0  0
  147.8754  138.8476  159.3654 H   0  0  0  0  0  0  0  0  0  0  0  0
  143.7428  136.8754  151.6805 H   0  0  0  0  0  0  0  0  0  0  0  0
  144.8385  135.8175  149.7105 H   0  0  0  0  0  0  0  0  0  0  0  0
  145.1560  133.3344  149.6656 H   0  0  0  0  0  0  0  0  0  0  0  0
  144.3335  131.9707  151.6723 H   0  0  0  0  0  0  0  0  0  0  0  0
  143.3286  133.0735  153.4350 H   0  0  0  0  0  0  0  0  0  0  0  0
  1  2  1  0  0  0  0
  1 22  1  0  0  0  0
  1 23  1  0  0  0  0
  1 24  1  0  0  0  0
  2  3  1  0  0  0  0
  2 16  1  0  0  0  0
  3  4  2  0  0  0  0
  3  5  1  0  0  0  0
  5  6  1  0  0  0  0
  5 25  1  0  0  0  0
  6  7  1  0  0  0  0
  6 26  1  0  0  0  0
  6 27  1  0  0  0  0
  7  8  1  0  0  0  0
  7 28  1  0  0  0  0
  7 29  1  0  0  0  0
  8  9  2  0  0  0  0
  8 10  1  0  0  0  0
 10 11  1  0  0  0  0
 10 30  1  0  0  0  0
 11 15  1  0  0  0  0
 11 12  1  0  0  0  0
 11 31  1  0  0  0  0
 12 13  1  0  0  0  0
 12 32  1  0  0  0  0
 12 33  1  0  0  0  0
 13 14  1  0  0  0  0
 13 34  1  0  0  0  0
 13 35  1  0  0  0  0
 14 15  1  0  0  0  0
 14 36  1  0  0  0  0
 14 37  1  0  0  0  0
 15 38  1  0  0  0  0
 15 39  1  0  0  0  0
 16 21  1  0  0  0  0
 16 17  2  0  0  0  0
 17 18  1  0  0  0  0
 17 40  1  0  0  0  0
 18 19  2  0  0  0  0
 18 41  1  0  0  0  0
 19 20  1  0  0  0  0
 19 42  1  0  0  0  0
 20 21  2  0  0  0  0
 20 43  1  0  0  0  0
 21 44  1  0  0  0  0
M  CHG  1  21   1
M  END
> <s_m_source_file>
AV-unprocessed.smi

> <i_m_source_file_index>
2934

> <i_lp_mmshare_version>
43012

> <i_f3d_flags>
0

> <s_epik_input>
bjFbY0hdW2NIXVtjSF1bY0hdYzFOKFtDSDNdKUMoPU8pW05IXVtDSDJdW0NIMl1DKD1PKVtOSF1bQ0hdMltDSDJdW0NIMl1bQ0gyXVtDSDJdMg==

> <s_epik_cmdline>
J2VwaWtfcHl0aG9uJywgJy1waCcsICc3LjAnLCAnLXRuJywgJzgnLCAnLW1hJywgJzIwMCcsICctbWV0YWxfYmluZGluZycsICctaW1hZScsICc8aW5maWxlLm1hZT4nLCAnLW9tYWUnLCAnPG91dGZpbGUubWFlPic=

> <r_epik_Ionization_Penalty>
0.416827

> <r_epik_Ionization_Penalty_Charging>
0.416808

> <r_epik_Ionization_Penalty_Neutral>
1.8964e-05

> <r_epik_State_Penalty>
0.417222

> <r_epik_Charging_Adjusted_Penalty>
0.83403

> <i_epik_Tot_Q>
1

> <i_epik_Tot_abs_Q>
1

> <r_epik_Metal_State_Penalty>
0.655167

> <b_epik_Metal_Only>
0

> <s_lp_Force_Field>
OPLS_2005

> <r_lp_Energy>
36.0061

> <b_lp_Chiralities_Consistent>
1

> <s_lp_Variant>
AV-unprocessed.smi:2934-2

> <Gold.Version>
5.8.1

> <Gold.Id.Protein>
6NUR|6NUR_protein|mol2

> <Gold.PLP.Fitness>
39.2351

> <Gold.PLP.PLP>
-34.8688

> <Gold.PLP.part.hbond>
-1.7832

> <Gold.PLP.part.metal>
0.0000

> <Gold.PLP.part.buried>
-5.9651

> <Gold.PLP.part.nonpolar>
-26.8525

> <Gold.PLP.part.repulsive>
0.0271

> <Gold.PLP.ligand.clash>
0.4734

> <Gold.PLP.ligand.torsion>
1.6054

> <Gold.PLP.Chemscore.Hbond>
2.0000

> <Gold.PLP.Chemscore.CHOScore>
0.0000

> <Gold.PLP.Chemscore.Metal>
0.0000

> <Gold.Chemscore.Hbonds>
donor molecule, donor type, donor heavy atom, donor atom, acceptor molecule, acceptor atom, score
      L1  H    21    44       P1 10957  2.00

> <Gold.PLP.Chemscore.Internal.Correction>
2.0504

> <Gold.Rescore>
     Score         DG    S(hbond)    S(metal)    S(lipo)     H(rot)  DE(clash)    DE(int)     intcor
     10.86     -12.38       0.98        0.00      69.53       1.76       0.00       1.52       ----

> <Gold.Chemscore.Fitness>
10.8565

> <Gold.Chemscore.DG>
-12.3784

> <Gold.Chemscore.ZeroCoef>
-5.4800

> <Gold.Chemscore.Hbond>
0.9810

> <Gold.Chemscore.Metal>
0.0000

> <Gold.Chemscore.Lipo>
69.5336

> <Gold.Chemscore.Internal_Hbond>
0.0000

> <Gold.Chemscore.DEClash>
0.0000

> <Gold.Chemscore.DEInternal>
1.5219

> <Gold.Chemscore.Rot>
1.7631

> <Gold.Chemscore.Internal.Correction>
   9.000000E+99

> <Gold.Chemscore.Hbonds>
donor molecule, donor type, donor heavy atom, donor atom, acceptor molecule, acceptor atom, score
      L1  H    21    44       P1 10957  0.86

> <Gold.Chemscore.Hbond.Weighted>
-3.2764

> <Gold.Chemscore.Metal.Weighted>
-0.0000

> <Gold.Chemscore.Lipo.Weighted>
-8.1354

> <Gold.Chemscore.Internal_Hbond.Weighted>
0.0000

> <Gold.Chemscore.DEClash.Weighted>
0.0000

> <Gold.Chemscore.DEInternal.Weighted>
1.5219

> <Gold.Chemscore.Rot.Weighted>
4.5135

> <Gold.Chemscore.Internal.Correction.Weighted>
   9.000000E+99

> <Gold.Protein.RotatedTorsions>
[ 6907 6896 6895 6894 ] final  161.93 input  -60.11 | X-H torsion
[ 7974 7965 7964 7962 ] final -141.25 input  175.53 | X-H torsion
[ 8008 7997 7996 7995 ] final  113.99 input   59.86 | X-H torsion
[ 10167 10162 10161 10158 ] final -156.24 input  -65.29 | X-H torsion
[ 10718 10713 10712 10709 ] final   62.97 input   66.30 | X-H torsion
[ 10763 10752 10751 10750 ] final  -18.76 input  -60.55 | X-H torsion
[ 11005 11000 10999 10996 ] final -117.26 input  -57.11 | X-H torsion

> <Gold.Protein.ActiveResidues>
 VAL166  LYS551  ARG553  GLY616  TRP617  ASP618  TYR619  PRO620  LYS621  CYS622 
 ASP623  PHE694  ASN695  SER759  ASP760  ASP761  ALA762  ILE779  LEU786  VAL792 
 PHE793  MET794  SER795  GLU796  ALA797  LYS798  CYS799  TRP800  GLU811  SER814 

> <Gold.Protein.RotatedAtoms>
  151.9482  133.3658  159.3989 H   0  0  0  0  0  0  0  0  0  0  0  0  # atno 6907 bound_to 6896
  150.6985  134.4368  159.5283 H   0  0  0  0  0  0  0  0  0  0  0  0  # atno 6908 bound_to 6896
  152.2037  134.8565  160.0556 H   0  0  0  0  0  0  0  0  0  0  0  0  # atno 6909 bound_to 6896
  144.8534  140.6103  143.5375 H   0  0  0  0  0  0  0  0  0  0  0  0  # atno 7974 bound_to 7965
  156.2293  140.2968  156.0147 H   0  0  0  0  0  0  0  0  0  0  0  0  # atno 8008 bound_to 7997
  155.2269  140.0417  157.2974 H   0  0  0  0  0  0  0  0  0  0  0  0  # atno 8009 bound_to 7997
  154.5968  140.2416  155.7853 H   0  0  0  0  0  0  0  0  0  0  0  0  # atno 8010 bound_to 7997
  139.6866  143.9490  152.2364 H   0  0  0  0  0  0  0  0  0  0  0  0  # atno 10167 bound_to 10162
  157.5938  130.9080  149.9656 H   0  0  0  0  0  0  0  0  0  0  0  0  # atno 10718 bound_to 10713
  153.5942  135.7001  153.5410 H   0  0  0  0  0  0  0  0  0  0  0  0  # atno 10763 bound_to 10752
  153.3152  135.4090  155.1369 H   0  0  0  0  0  0  0  0  0  0  0  0  # atno 10764 bound_to 10752
  154.8595  135.3682  154.5475 H   0  0  0  0  0  0  0  0  0  0  0  0  # atno 10765 bound_to 10752
  141.0367  133.9899  157.3060 H   0  0  0  0  0  0  0  0  0  0  0  0  # atno 11005 bound_to 11000
  145.4454  139.1530  143.3947 LP  0  0  0  0  0  0  0  0  0  0  0  0  # atno 17320 bound_to 7965
  146.2803  140.4578  142.8779 LP  0  0  0  0  0  0  0  0  0  0  0  0  # atno 17321 bound_to 7965
  139.9295  144.6750  150.8377 LP  0  0  0  0  0  0  0  0  0  0  0  0  # atno 17342 bound_to 10162
  140.7670  143.3318  151.2393 LP  0  0  0  0  0  0  0  0  0  0  0  0  # atno 17343 bound_to 10162
  156.0997  130.3656  150.0240 LP  0  0  0  0  0  0  0  0  0  0  0  0  # atno 17370 bound_to 10713
  156.8357  130.9408  151.3635 LP  0  0  0  0  0  0  0  0  0  0  0  0  # atno 17371 bound_to 10713
  139.9246  135.0201  156.8187 LP  0  0  0  0  0  0  0  0  0  0  0  0  # atno 17394 bound_to 11000
  140.6309  133.9906  155.7662 LP  0  0  0  0  0  0  0  0  0  0  0  0  # atno 17395 bound_to 11000

$$$$
