AV-unprocessed.smi:1954|AV-procd|sdf|7895|dock7
  -GOLD-   2272010 53D 1   1.00000     0.00000
 Structure written by MMmdl.
 44 46  0  0  0  0  0  0  0  0  1 V2000
  144.6512  136.9772  152.2435 O   0  0  0  0  0  0  0  0  0  0  0  0
  145.8613  136.7505  152.2250 C   0  0  0  0  0  0  0  0  0  0  0  0
  146.7844  137.6157  152.6685 N   0  0  0  0  0  0  0  0  0  0  0  0
  146.5155  138.9354  153.2389 C   0  0  0  0  0  0  0  0  0  0  0  0
  146.7450  138.9866  154.7862 C   0  0  2  0  0  0  0  0  0  0  0  0
  148.1816  139.2722  155.0892 N   0  0  0  0  0  0  0  0  0  0  0  0
  148.6166  140.6647  154.9073 C   0  0  0  0  0  0  0  0  0  0  0  0
  150.0820  140.8803  155.3217 C   0  0  0  0  0  0  0  0  0  0  0  0
  150.9235  139.9993  154.5903 O   0  0  0  0  0  0  0  0  0  0  0  0
  150.5845  138.6360  154.8024 C   0  0  0  0  0  0  0  0  0  0  0  0
  149.1248  138.3938  154.3834 C   0  0  0  0  0  0  0  0  0  0  0  0
  146.2400  137.6451  155.3938 C   0  0  0  0  0  0  0  0  0  0  0  0
  144.7109  137.5972  155.3104 C   0  0  0  0  0  0  0  0  0  0  0  0
  144.1110  139.2917  155.5030 S   0  0  0  0  0  0  0  0  0  0  0  0
  145.7650  140.0289  155.3837 C   0  0  0  0  0  0  0  0  0  0  0  0
  146.4341  135.6222  151.7705 N   0  0  0  0  0  0  0  0  0  0  0  0
  145.8001  134.4709  151.2321 C   0  0  0  0  0  0  0  0  0  0  0  0
  146.4346  133.2435  151.5294 C   0  0  0  0  0  0  0  0  0  0  0  0
  145.8845  132.0427  151.0407 C   0  0  0  0  0  0  0  0  0  0  0  0
  144.7116  132.0999  150.2673 C   0  0  0  0  0  0  0  0  0  0  0  0
  144.1424  133.3625  150.0187 C   0  0  0  0  0  0  0  0  0  0  0  0
  144.6680  134.5146  150.4856 N   0  0  0  0  0  0  0  0  0  0  0  0
  147.7535  137.3365  152.6241 H   0  0  0  0  0  0  0  0  0  0  0  0
  147.1582  139.6493  152.7258 H   0  0  0  0  0  0  0  0  0  0  0  0
  145.5129  139.2644  152.9664 H   0  0  0  0  0  0  0  0  0  0  0  0
  148.4980  140.9724  153.8691 H   0  0  0  0  0  0  0  0  0  0  0  0
  148.0226  141.3433  155.5147 H   0  0  0  0  0  0  0  0  0  0  0  0
  150.3840  141.9085  155.1219 H   0  0  0  0  0  0  0  0  0  0  0  0
  150.2089  140.7126  156.3925 H   0  0  0  0  0  0  0  0  0  0  0  0
  151.2553  138.0079  154.2163 H   0  0  0  0  0  0  0  0  0  0  0  0
  150.7341  138.3733  155.8509 H   0  0  0  0  0  0  0  0  0  0  0  0
  148.9057  137.3461  154.5766 H   0  0  0  0  0  0  0  0  0  0  0  0
  149.0360  138.5405  153.3065 H   0  0  0  0  0  0  0  0  0  0  0  0
  146.6985  136.7696  154.9346 H   0  0  0  0  0  0  0  0  0  0  0  0
  146.4653  137.5840  156.4560 H   0  0  0  0  0  0  0  0  0  0  0  0
  144.3852  137.2155  154.3428 H   0  0  0  0  0  0  0  0  0  0  0  0
  144.2841  136.9470  156.0745 H   0  0  0  0  0  0  0  0  0  0  0  0
  146.0481  140.3097  156.3969 H   0  0  0  0  0  0  0  0  0  0  0  0
  145.7252  140.9492  154.8003 H   0  0  0  0  0  0  0  0  0  0  0  0
  147.4415  135.5822  151.8134 H   0  0  0  0  0  0  0  0  0  0  0  0
  147.3358  133.2176  152.1249 H   0  0  0  0  0  0  0  0  0  0  0  0
  146.3551  131.0948  151.2561 H   0  0  0  0  0  0  0  0  0  0  0  0
  144.2601  131.2008  149.8750 H   0  0  0  0  0  0  0  0  0  0  0  0
  143.2413  133.4505  149.4300 H   0  0  0  0  0  0  0  0  0  0  0  0
  1  2  2  0  0  0  0
  2  3  1  0  0  0  0
  2 16  1  0  0  0  0
  3  4  1  0  0  0  0
  3 23  1  0  0  0  0
  4  5  1  0  0  0  0
  4 24  1  0  0  0  0
  4 25  1  0  0  0  0
  5 15  1  0  0  0  0
  5  6  1  0  0  0  0
  5 12  1  0  0  0  0
  6 11  1  0  0  0  0
  6  7  1  0  0  0  0
  7  8  1  0  0  0  0
  7 26  1  0  0  0  0
  7 27  1  0  0  0  0
  8  9  1  0  0  0  0
  8 28  1  0  0  0  0
  8 29  1  0  0  0  0
  9 10  1  0  0  0  0
 10 11  1  0  0  0  0
 10 30  1  0  0  0  0
 10 31  1  0  0  0  0
 11 32  1  0  0  0  0
 11 33  1  0  0  0  0
 12 13  1  0  0  0  0
 12 34  1  0  0  0  0
 12 35  1  0  0  0  0
 13 14  1  0  0  0  0
 13 36  1  0  0  0  0
 13 37  1  0  0  0  0
 14 15  1  0  0  0  0
 15 38  1  0  0  0  0
 15 39  1  0  0  0  0
 16 17  1  0  0  0  0
 16 40  1  0  0  0  0
 17 22  1  0  0  0  0
 17 18  2  0  0  0  0
 18 19  1  0  0  0  0
 18 41  1  0  0  0  0
 19 20  2  0  0  0  0
 19 42  1  0  0  0  0
 20 21  1  0  0  0  0
 20 43  1  0  0  0  0
 21 22  2  0  0  0  0
 21 44  1  0  0  0  0
M  END
> <s_m_source_file>
AV-unprocessed.smi

> <i_m_source_file_index>
1954

> <i_lp_mmshare_version>
43012

> <i_f3d_flags>
0

> <s_epik_input>
bjFbY0hdW2NIXVtjSF1bY0hdYzFbTkhdQyg9TylbTkhdW0NIMl1bQ0BdMihbQ0gyXVtDSDJdU1tDSDJdMilOM1tDSDJdW0NIMl1PW0NIMl1bQ0gyXTM=

> <s_epik_cmdline>
J2VwaWtfcHl0aG9uJywgJy1waCcsICc3LjAnLCAnLXRuJywgJzgnLCAnLW1hJywgJzIwMCcsICctbWV0YWxfYmluZGluZycsICctaW1hZScsICc8aW5maWxlLm1hZT4nLCAnLW9tYWUnLCAnPG91dGZpbGUubWFlPic=

> <r_epik_Ionization_Penalty>
0.0195535

> <r_epik_Ionization_Penalty_Charging>
0

> <r_epik_Ionization_Penalty_Neutral>
0.0195535

> <r_epik_State_Penalty>
0.0155843

> <r_epik_Charging_Adjusted_Penalty>
0.0155843

> <i_epik_Tot_Q>
0

> <i_epik_Tot_abs_Q>
0

> <r_epik_Metal_State_Penalty>
0.0155842

> <b_epik_Metal_Only>
0

> <s_lp_Force_Field>
OPLS_2005

> <r_lp_Energy>
55.0934

> <b_lp_Chiralities_Consistent>
1

> <s_lp_Variant>
AV-unprocessed.smi:1954-2

> <Gold.Version>
5.8.1

> <Gold.Id.Protein>
6NUR|6NUR_protein|mol2

> <Gold.PLP.Fitness>
39.7867

> <Gold.PLP.PLP>
-29.9570

> <Gold.PLP.part.hbond>
-3.0000

> <Gold.PLP.part.metal>
0.0000

> <Gold.PLP.part.buried>
-6.2667

> <Gold.PLP.part.nonpolar>
-22.7774

> <Gold.PLP.part.repulsive>
0.9574

> <Gold.PLP.ligand.clash>
0.0000

> <Gold.PLP.ligand.torsion>
1.0113

> <Gold.PLP.Chemscore.Hbond>
2.9280

> <Gold.PLP.Chemscore.CHOScore>
1.0000

> <Gold.PLP.Chemscore.Metal>
0.0000

> <Gold.Chemscore.Hbonds>
donor molecule, donor type, donor heavy atom, donor atom, acceptor molecule, acceptor atom, score
      L1  H     3    23       P1  7948  0.91
      L1  H    16    40       P1  7948  1.00
      P1  H  7989  7998       L1     9  1.00
      L1  C    21    44       P1 10186  1.00

> <Gold.PLP.Chemscore.Internal.Correction>
0.0684

> <Gold.Rescore>
     Score         DG    S(hbond)    S(metal)    S(lipo)     H(rot)  DE(clash)    DE(int)     intcor
     16.31     -19.30       2.88        0.00      68.62       1.49       0.04       2.95       ----

> <Gold.Chemscore.Fitness>
16.3099

> <Gold.Chemscore.DG>
-19.3036

> <Gold.Chemscore.ZeroCoef>
-5.4800

> <Gold.Chemscore.Hbond>
2.8802

> <Gold.Chemscore.Metal>
0.0000

> <Gold.Chemscore.Lipo>
68.6196

> <Gold.Chemscore.Internal_Hbond>
0.0000

> <Gold.Chemscore.DEClash>
0.0438

> <Gold.Chemscore.DEInternal>
2.9500

> <Gold.Chemscore.Rot>
1.4940

> <Gold.Chemscore.Internal.Correction>
   9.000000E+99

> <Gold.Chemscore.Hbonds>
donor molecule, donor type, donor heavy atom, donor atom, acceptor molecule, acceptor atom, score
      L1  H     3    23       P1  7948  0.90
      L1  H    16    40       P1  7948  0.97
      P1  H  7989  7998       L1     9  0.58

> <Gold.Chemscore.Hbond.Weighted>
-9.6198

> <Gold.Chemscore.Metal.Weighted>
-0.0000

> <Gold.Chemscore.Lipo.Weighted>
-8.0285

> <Gold.Chemscore.Internal_Hbond.Weighted>
0.0000

> <Gold.Chemscore.DEClash.Weighted>
0.0438

> <Gold.Chemscore.DEInternal.Weighted>
2.9500

> <Gold.Chemscore.Rot.Weighted>
3.8246

> <Gold.Chemscore.Internal.Correction.Weighted>
   9.000000E+99

> <Gold.Protein.RotatedTorsions>
[ 6907 6896 6895 6894 ] final -133.27 input  -60.11 | X-H torsion
[ 7974 7965 7964 7962 ] final   68.13 input  175.53 | X-H torsion
[ 8008 7997 7996 7995 ] final   -1.94 input   59.86 | X-H torsion
[ 10167 10162 10161 10158 ] final -155.92 input  -65.29 | X-H torsion
[ 10718 10713 10712 10709 ] final   28.72 input   66.30 | X-H torsion
[ 10763 10752 10751 10750 ] final  -84.30 input  -60.55 | X-H torsion
[ 11005 11000 10999 10996 ] final -107.56 input  -57.11 | X-H torsion

> <Gold.Protein.ActiveResidues>
 VAL166  LYS551  ARG553  GLY616  TRP617  ASP618  TYR619  PRO620  LYS621  CYS622 
 ASP623  PHE694  ASN695  SER759  ASP760  ASP761  ALA762  ILE779  LEU786  VAL792 
 PHE793  MET794  SER795  GLU796  ALA797  LYS798  CYS799  TRP800  GLU811  SER814 

> <Gold.Protein.RotatedAtoms>
  150.9720  133.6334  159.2736 H   0  0  0  0  0  0  0  0  0  0  0  0  # atno 6907 bound_to 6896
  151.3619  135.0904  159.9447 H   0  0  0  0  0  0  0  0  0  0  0  0  # atno 6908 bound_to 6896
  152.5186  133.9292  159.7627 H   0  0  0  0  0  0  0  0  0  0  0  0  # atno 6909 bound_to 6896
  145.8063  139.3009  143.1125 H   0  0  0  0  0  0  0  0  0  0  0  0  # atno 7974 bound_to 7965
  154.6412  140.2547  155.7320 H   0  0  0  0  0  0  0  0  0  0  0  0  # atno 8008 bound_to 7997
  156.2529  140.2887  156.0726 H   0  0  0  0  0  0  0  0  0  0  0  0  # atno 8009 bound_to 7997
  155.1594  140.0384  157.2829 H   0  0  0  0  0  0  0  0  0  0  0  0  # atno 8010 bound_to 7997
  139.6892  143.9450  152.2376 H   0  0  0  0  0  0  0  0  0  0  0  0  # atno 10167 bound_to 10162
  157.2371  130.7051  149.6341 H   0  0  0  0  0  0  0  0  0  0  0  0  # atno 10718 bound_to 10713
  154.5979  135.5525  153.7344 H   0  0  0  0  0  0  0  0  0  0  0  0  # atno 10763 bound_to 10752
  153.0143  135.6359  154.1756 H   0  0  0  0  0  0  0  0  0  0  0  0  # atno 10764 bound_to 10752
  154.1696  135.2893  155.3065 H   0  0  0  0  0  0  0  0  0  0  0  0  # atno 10765 bound_to 10752
  141.0947  133.8992  157.1991 H   0  0  0  0  0  0  0  0  0  0  0  0  # atno 11005 bound_to 11000
  145.9824  140.8671  143.0107 LP  0  0  0  0  0  0  0  0  0  0  0  0  # atno 17320 bound_to 7965
  144.6762  140.2099  143.7378 LP  0  0  0  0  0  0  0  0  0  0  0  0  # atno 17321 bound_to 7965
  139.9261  144.6770  150.8411 LP  0  0  0  0  0  0  0  0  0  0  0  0  # atno 17342 bound_to 10162
  140.7677  143.3341  151.2347 LP  0  0  0  0  0  0  0  0  0  0  0  0  # atno 17343 bound_to 10162
  155.9672  130.4470  150.5562 LP  0  0  0  0  0  0  0  0  0  0  0  0  # atno 17370 bound_to 10713
  157.3417  131.0718  151.1783 LP  0  0  0  0  0  0  0  0  0  0  0  0  # atno 17371 bound_to 10713
  139.9781  135.0107  156.9682 LP  0  0  0  0  0  0  0  0  0  0  0  0  # atno 17394 bound_to 11000
  140.5168  134.0947  155.7282 LP  0  0  0  0  0  0  0  0  0  0  0  0  # atno 17395 bound_to 11000

$$$$
