AV-unprocessed.smi:53|AV-procd|sdf|518|dock4
  -GOLD-   2262016393D 1   1.00000     0.00000
 Structure written by MMmdl.
 30 31  0  0  0  0  0  0  0  0  1 V2000
  139.2273  138.1784  153.7636 N   0  0  0  0  0  0  0  0  0  0  0  0
  140.3990  137.5519  153.5866 C   0  0  0  0  0  0  0  0  0  0  0  0
  141.4829  138.2122  152.8965 C   0  0  0  0  0  0  0  0  0  0  0  0
  142.6339  137.5176  152.7592 C   0  0  0  0  0  0  0  0  0  0  0  0
  142.7928  136.2330  153.2693 N   0  0  0  0  0  0  0  0  0  0  0  0
  144.0739  135.4327  153.0905 C   0  0  1  0  0  0  0  0  0  0  0  0
  143.8106  134.2938  152.3251 O   0  0  0  0  0  0  0  0  0  0  0  0
  144.1137  134.5571  150.9590 C   0  0  2  0  0  0  0  0  0  0  0  0
  144.2066  133.2548  150.1454 C   0  0  0  0  0  0  0  0  0  0  0  0
  142.9180  132.7060  149.9689 O   0  0  0  0  0  0  0  0  0  0  0  0
  145.4084  135.3659  151.0794 C   0  0  2  0  0  0  0  0  0  0  0  0
  146.5230  134.5037  151.2501 O   0  0  0  0  0  0  0  0  0  0  0  0
  145.1381  136.2385  152.3067 C   0  0  2  0  0  0  0  0  0  0  0  0
  146.3132  136.4964  153.0537 O   0  0  0  0  0  0  0  0  0  0  0  0
  141.6986  135.6046  153.9134 C   0  0  0  0  0  0  0  0  0  0  0  0
  141.7725  134.4523  154.3375 O   0  0  0  0  0  0  0  0  0  0  0  0
  140.5420  136.3247  154.0465 N   0  0  0  0  0  0  0  0  0  0  0  0
  144.3716  135.1391  154.0991 H   0  0  0  0  0  0  0  0  0  0  0  0
  143.3479  135.2076  150.5324 H   0  0  0  0  0  0  0  0  0  0  0  0
  145.5858  135.9714  150.1901 H   0  0  0  0  0  0  0  0  0  0  0  0
  144.7095  137.1873  151.9806 H   0  0  0  0  0  0  0  0  0  0  0  0
  138.4700  137.7130  154.2423 H   0  0  0  0  0  0  0  0  0  0  0  0
  139.1060  139.1204  153.4200 H   0  0  0  0  0  0  0  0  0  0  0  0
  141.4096  139.2129  152.4954 H   0  0  0  0  0  0  0  0  0  0  0  0
  143.4359  138.0103  152.2308 H   0  0  0  0  0  0  0  0  0  0  0  0
  144.6137  133.4584  149.1546 H   0  0  0  0  0  0  0  0  0  0  0  0
  144.8632  132.5291  150.6262 H   0  0  0  0  0  0  0  0  0  0  0  0
  142.3355  133.3937  149.6843 H   0  0  0  0  0  0  0  0  0  0  0  0
  147.2957  135.0368  151.3611 H   0  0  0  0  0  0  0  0  0  0  0  0
  147.0413  136.5487  152.4535 H   0  0  0  0  0  0  0  0  0  0  0  0
  1  2  1  0  0  0  0
  1 22  1  0  0  0  0
  1 23  1  0  0  0  0
  2 17  2  0  0  0  0
  2  3  1  0  0  0  0
  3  4  2  0  0  0  0
  3 24  1  0  0  0  0
  4  5  1  0  0  0  0
  4 25  1  0  0  0  0
  5  6  1  0  0  0  0
  5 15  1  0  0  0  0
  6 18  1  0  0  0  0
  6 13  1  0  0  0  0
  6  7  1  0  0  0  0
  7  8  1  0  0  0  0
  8 19  1  0  0  0  0
  8  9  1  0  0  0  0
  8 11  1  0  0  0  0
  9 10  1  0  0  0  0
  9 26  1  0  0  0  0
  9 27  1  0  0  0  0
 10 28  1  0  0  0  0
 11 20  1  0  0  0  0
 11 12  1  0  0  0  0
 11 13  1  0  0  0  0
 12 29  1  0  0  0  0
 13 21  1  0  0  0  0
 13 14  1  0  0  0  0
 14 30  1  0  0  0  0
 15 16  2  0  0  0  0
 15 17  1  0  0  0  0
M  END
> <s_m_source_file>
AV-unprocessed.smi

> <i_m_source_file_index>
53

> <i_lp_mmshare_version>
43012

> <i_f3d_flags>
0

> <s_epik_input>
W05IMl1jMVtjSF1bY0hdbihjKD1PKW4xKVtDQEBIXTJPW0NASF0oW0NIMl1bT0hdKVtDQEBIXShbT0hdKVtDQEBIXTJbT0hd

> <s_epik_cmdline>
J2VwaWtfcHl0aG9uJywgJy1waCcsICc3LjAnLCAnLXRuJywgJzgnLCAnLW1hJywgJzIwMCcsICctbWV0YWxfYmluZGluZycsICctaW1hZScsICc8aW5maWxlLm1hZT4nLCAnLW9tYWUnLCAnPG91dGZpbGUubWFlPic=

> <r_lp_tautomer_probability>
0.99996

> <r_epik_Ionization_Penalty>
0.00069087

> <r_epik_Ionization_Penalty_Charging>
2.61959e-08

> <r_epik_Ionization_Penalty_Neutral>
0.000690844

> <r_epik_State_Penalty>
1.15523e-05

> <r_epik_Charging_Adjusted_Penalty>
1.15785e-05

> <i_epik_Tot_Q>
0

> <i_epik_Tot_abs_Q>
0

> <r_epik_Metal_State_Penalty>
-0

> <b_epik_Metal_Only>
0

> <s_epik_Chemistry_Notes>
This compound contains an acetal/aminal-like group ( X-CH(R)-Y where X, Y are N, S, or O) that may be acid/base labile, releasing an aldehyde.

> <s_lp_Force_Field>
OPLS_2005

> <r_lp_Energy>
34.5248

> <b_lp_Chiralities_Consistent>
1

> <s_lp_Variant>
AV-unprocessed.smi:53-6

> <Gold.Version>
5.8.1

> <Gold.Id.Protein>
6NUR|6NUR_protein|mol2

> <Gold.PLP.Fitness>
42.3950

> <Gold.PLP.PLP>
-25.2095

> <Gold.PLP.part.hbond>
-4.4947

> <Gold.PLP.part.metal>
0.0000

> <Gold.PLP.part.buried>
-4.7488

> <Gold.PLP.part.nonpolar>
-17.3922

> <Gold.PLP.part.repulsive>
2.2636

> <Gold.PLP.ligand.clash>
0.0000

> <Gold.PLP.ligand.torsion>
0.0624

> <Gold.PLP.Chemscore.Hbond>
3.9750

> <Gold.PLP.Chemscore.CHOScore>
1.7853

> <Gold.PLP.Chemscore.Metal>
0.0000

> <Gold.Chemscore.Hbonds>
donor molecule, donor type, donor heavy atom, donor atom, acceptor molecule, acceptor atom, score
      L1  H    10    28       P1 10186  1.00
      L1  H    12    29       P1  7948  0.96
      L1  H    14    30       P1  7948  1.00
      P1  H 11000 11005       L1    16  0.99
      L1  C     4    25       P1 10171  1.00
      L1  C     4    25       P1 10175  0.76

> <Gold.PLP.Chemscore.Internal.Correction>
0.0293

> <Gold.Rescore>
     Score         DG    S(hbond)    S(metal)    S(lipo)     H(rot)  DE(clash)    DE(int)     intcor
      9.32     -11.87       3.58        0.00      33.73       3.71       1.24       1.31       ----

> <Gold.Chemscore.Fitness>
9.3209

> <Gold.Chemscore.DG>
-11.8726

> <Gold.Chemscore.ZeroCoef>
-5.4800

> <Gold.Chemscore.Hbond>
3.5756

> <Gold.Chemscore.Metal>
0.0000

> <Gold.Chemscore.Lipo>
33.7322

> <Gold.Chemscore.Internal_Hbond>
0.0000

> <Gold.Chemscore.DEClash>
1.2388

> <Gold.Chemscore.DEInternal>
1.3129

> <Gold.Chemscore.Rot>
3.7095

> <Gold.Chemscore.Internal.Correction>
   9.000000E+99

> <Gold.Chemscore.Hbonds>
donor molecule, donor type, donor heavy atom, donor atom, acceptor molecule, acceptor atom, score
      L1  H    10    28       P1 10186  1.00
      L1  H    12    29       P1  7948  0.60
      L1  H    14    30       P1  7948  0.93
      P1  H 11000 11005       L1    16  0.91

> <Gold.Chemscore.Hbond.Weighted>
-11.9424

> <Gold.Chemscore.Metal.Weighted>
-0.0000

> <Gold.Chemscore.Lipo.Weighted>
-3.9467

> <Gold.Chemscore.Internal_Hbond.Weighted>
0.0000

> <Gold.Chemscore.DEClash.Weighted>
1.2388

> <Gold.Chemscore.DEInternal.Weighted>
1.3129

> <Gold.Chemscore.Rot.Weighted>
9.4964

> <Gold.Chemscore.Internal.Correction.Weighted>
   9.000000E+99

> <Gold.Protein.RotatedTorsions>
[ 6907 6896 6895 6894 ] final  175.78 input  -60.11 | X-H torsion
[ 7974 7965 7964 7962 ] final  -83.46 input  175.53 | X-H torsion
[ 8008 7997 7996 7995 ] final  -94.50 input   59.86 | X-H torsion
[ 10167 10162 10161 10158 ] final -174.49 input  -65.29 | X-H torsion
[ 10718 10713 10712 10709 ] final  -82.68 input   66.30 | X-H torsion
[ 10763 10752 10751 10750 ] final  145.26 input  -60.55 | X-H torsion
[ 11005 11000 10999 10996 ] final   -6.26 input  -57.11 | X-H torsion

> <Gold.Protein.ActiveResidues>
 VAL166  LYS551  ARG553  GLY616  TRP617  ASP618  TYR619  PRO620  LYS621  CYS622 
 ASP623  PHE694  ASN695  SER759  ASP760  ASP761  ALA762  ILE779  LEU786  VAL792 
 PHE793  MET794  SER795  GLU796  ALA797  LYS798  CYS799  TRP800  GLU811  SER814 

> <Gold.Protein.RotatedAtoms>
  151.7307  133.3317  159.3339 H   0  0  0  0  0  0  0  0  0  0  0  0  # atno 6907 bound_to 6896
  150.7614  134.6366  159.6224 H   0  0  0  0  0  0  0  0  0  0  0  0  # atno 6908 bound_to 6896
  152.3594  134.6896  160.0263 H   0  0  0  0  0  0  0  0  0  0  0  0  # atno 6909 bound_to 6896
  145.5197  140.9532  143.1662 H   0  0  0  0  0  0  0  0  0  0  0  0  # atno 7974 bound_to 7965
  154.7492  140.0488  157.0879 H   0  0  0  0  0  0  0  0  0  0  0  0  # atno 8008 bound_to 7997
  155.0078  140.3132  155.4822 H   0  0  0  0  0  0  0  0  0  0  0  0  # atno 8009 bound_to 7997
  156.2881  140.2189  156.5191 H   0  0  0  0  0  0  0  0  0  0  0  0  # atno 8010 bound_to 7997
  139.5631  144.1821  152.1270 H   0  0  0  0  0  0  0  0  0  0  0  0  # atno 10167 bound_to 10162
  156.0029  130.4642  150.4142 H   0  0  0  0  0  0  0  0  0  0  0  0  # atno 10718 bound_to 10713
  154.0024  135.2922  155.3401 H   0  0  0  0  0  0  0  0  0  0  0  0  # atno 10763 bound_to 10752
  154.7151  135.5133  153.8729 H   0  0  0  0  0  0  0  0  0  0  0  0  # atno 10764 bound_to 10752
  153.0760  135.6663  154.0264 H   0  0  0  0  0  0  0  0  0  0  0  0  # atno 10765 bound_to 10752
  140.7001  133.8997  155.8677 H   0  0  0  0  0  0  0  0  0  0  0  0  # atno 11005 bound_to 11000
  144.7682  139.6795  143.7206 LP  0  0  0  0  0  0  0  0  0  0  0  0  # atno 17320 bound_to 7965
  146.2114  139.5472  142.9679 LP  0  0  0  0  0  0  0  0  0  0  0  0  # atno 17321 bound_to 7965
  140.1338  144.5264  150.6786 LP  0  0  0  0  0  0  0  0  0  0  0  0  # atno 17342 bound_to 10162
  140.6913  143.2377  151.5124 LP  0  0  0  0  0  0  0  0  0  0  0  0  # atno 17343 bound_to 10162
  157.2203  131.0481  151.2550 LP  0  0  0  0  0  0  0  0  0  0  0  0  # atno 17370 bound_to 10713
  157.3807  130.7229  149.6628 LP  0  0  0  0  0  0  0  0  0  0  0  0  # atno 17371 bound_to 10713
  141.0170  134.0941  157.4161 LP  0  0  0  0  0  0  0  0  0  0  0  0  # atno 17394 bound_to 11000
  139.8899  135.0108  156.6706 LP  0  0  0  0  0  0  0  0  0  0  0  0  # atno 17395 bound_to 11000

$$$$
