AV-unprocessed.smi:110|AV-procd|sdf|1074|dock5
  -GOLD-   2262018163D 1   1.00000     0.00000
 Structure written by MMmdl.
 46 50  0  0  0  0  0  0  0  0  1 V2000
  144.0485  142.3482  154.6171 O   0  0  0  0  0  0  0  0  0  0  0  0
  145.4055  142.6710  154.4011 C   0  0  0  0  0  0  0  0  0  0  0  0
  146.2299  141.3877  154.2109 C   0  0  2  0  0  0  0  0  0  0  0  0
  146.9799  141.1679  155.4038 O   0  0  0  0  0  0  0  0  0  0  0  0
  148.2605  140.7430  155.0797 C   0  0  2  0  0  0  0  0  0  0  0  0
  149.1807  141.0871  156.2039 N   0  0  0  0  0  0  0  0  0  0  0  0
  149.0153  142.0144  157.2086 C   0  0  0  0  0  0  0  0  0  0  0  0
  150.0052  142.0957  158.0560 N   0  0  0  0  0  0  0  0  0  0  0  0
  150.9253  141.1556  157.6032 C   0  0  0  0  0  0  0  0  0  0  0  0
  152.2064  140.7149  158.0463 C   0  0  0  0  0  0  0  0  0  0  0  0
  152.8494  141.2352  159.1236 N   0  0  0  0  0  0  0  0  0  0  0  0
  153.6816  140.3552  159.9586 C   0  0  0  0  0  0  0  0  0  0  0  0
  153.8391  141.0191  161.3380 C   0  0  0  0  0  0  0  0  0  0  0  0
  153.1516  142.3233  161.1039 C   0  0  0  0  0  0  0  0  0  0  0  0
  153.0381  143.3954  162.0059 C   0  0  0  0  0  0  0  0  0  0  0  0
  152.3543  144.5536  161.5800 C   0  0  0  0  0  0  0  0  0  0  0  0
  151.8092  144.6214  160.2772 C   0  0  0  0  0  0  0  0  0  0  0  0
  151.9357  143.5314  159.3880 C   0  0  0  0  0  0  0  0  0  0  0  0
  152.6084  142.3690  159.8229 C   0  0  0  0  0  0  0  0  0  0  0  0
  152.8119  139.7397  157.3197 N   0  0  0  0  0  0  0  0  0  0  0  0
  152.2133  139.2253  156.2418 C   0  0  0  0  0  0  0  0  0  0  0  0
  151.0271  139.5378  155.7180 N   0  0  0  0  0  0  0  0  0  0  0  0
  150.4104  140.5165  156.4400 C   0  0  0  0  0  0  0  0  0  0  0  0
  148.6224  141.4599  153.7781 C   0  0  2  0  0  0  0  0  0  0  0  0
  149.1310  142.7655  153.9853 O   0  0  0  0  0  0  0  0  0  0  0  0
  147.2716  141.5058  153.0755 C   0  0  1  0  0  0  0  0  0  0  0  0
  147.1483  140.3955  152.2075 O   0  0  0  0  0  0  0  0  0  0  0  0
  145.5696  140.5359  154.0358 H   0  0  0  0  0  0  0  0  0  0  0  0
  148.2846  139.6554  154.9967 H   0  0  0  0  0  0  0  0  0  0  0  0
  149.3715  140.8836  153.2330 H   0  0  0  0  0  0  0  0  0  0  0  0
  147.1502  142.4117  152.4797 H   0  0  0  0  0  0  0  0  0  0  0  0
  143.7811  141.7187  153.9649 H   0  0  0  0  0  0  0  0  0  0  0  0
  145.4513  143.2863  153.5022 H   0  0  0  0  0  0  0  0  0  0  0  0
  145.7898  143.2717  155.2261 H   0  0  0  0  0  0  0  0  0  0  0  0
  148.1343  142.6338  157.2943 H   0  0  0  0  0  0  0  0  0  0  0  0
  153.2355  139.3640  160.0519 H   0  0  0  0  0  0  0  0  0  0  0  0
  154.6591  140.2396  159.4896 H   0  0  0  0  0  0  0  0  0  0  0  0
  153.3308  140.4578  162.1225 H   0  0  0  0  0  0  0  0  0  0  0  0
  154.8846  141.1632  161.6122 H   0  0  0  0  0  0  0  0  0  0  0  0
  153.4655  143.3363  162.9960 H   0  0  0  0  0  0  0  0  0  0  0  0
  152.2526  145.3946  162.2500 H   0  0  0  0  0  0  0  0  0  0  0  0
  151.2959  145.5163  159.9575 H   0  0  0  0  0  0  0  0  0  0  0  0
  151.5284  143.6040  158.3908 H   0  0  0  0  0  0  0  0  0  0  0  0
  152.7652  138.4545  155.7245 H   0  0  0  0  0  0  0  0  0  0  0  0
  149.4192  142.8343  154.8826 H   0  0  0  0  0  0  0  0  0  0  0  0
  148.0092  140.1600  151.8965 H   0  0  0  0  0  0  0  0  0  0  0  0
  1  2  1  0  0  0  0
  1 32  1  0  0  0  0
  2  3  1  0  0  0  0
  2 33  1  0  0  0  0
  2 34  1  0  0  0  0
  3 28  1  0  0  0  0
  3 26  1  0  0  0  0
  3  4  1  0  0  0  0
  4  5  1  0  0  0  0
  5 29  1  0  0  0  0
  5  6  1  0  0  0  0
  5 24  1  0  0  0  0
  6 23  1  0  0  0  0
  6  7  1  0  0  0  0
  7  8  2  0  0  0  0
  7 35  1  0  0  0  0
  8  9  1  0  0  0  0
  9 23  2  0  0  0  0
  9 10  1  0  0  0  0
 10 11  1  0  0  0  0
 10 20  2  0  0  0  0
 11 19  1  0  0  0  0
 11 12  1  0  0  0  0
 12 13  1  0  0  0  0
 12 36  1  0  0  0  0
 12 37  1  0  0  0  0
 13 14  1  0  0  0  0
 13 38  1  0  0  0  0
 13 39  1  0  0  0  0
 14 19  2  0  0  0  0
 14 15  1  0  0  0  0
 15 16  2  0  0  0  0
 15 40  1  0  0  0  0
 16 17  1  0  0  0  0
 16 41  1  0  0  0  0
 17 18  2  0  0  0  0
 17 42  1  0  0  0  0
 18 19  1  0  0  0  0
 18 43  1  0  0  0  0
 20 21  1  0  0  0  0
 21 22  2  0  0  0  0
 21 44  1  0  0  0  0
 22 23  1  0  0  0  0
 24 30  1  0  0  0  0
 24 25  1  0  0  0  0
 24 26  1  0  0  0  0
 25 45  1  0  0  0  0
 26 31  1  0  0  0  0
 26 27  1  0  0  0  0
 27 46  1  0  0  0  0
M  END
> <s_m_source_file>
AV-unprocessed.smi

> <i_m_source_file_index>
110

> <i_lp_mmshare_version>
43012

> <i_f3d_flags>
0

> <s_epik_input>
W09IXVtDSDJdW0NASF0xT1tDQEhdKFtDQEhdKFtPSF0pW0NAQEhdMVtPSF0pbihbY0hdbjIpYyhjMjMpbltjSF1uYzNOKFtDSDJdW0NIMl00KWMoYzQ1KVtjSF1bY0hdW2NIXVtjSF01

> <s_epik_cmdline>
J2VwaWtfcHl0aG9uJywgJy1waCcsICc3LjAnLCAnLXRuJywgJzgnLCAnLW1hJywgJzIwMCcsICctbWV0YWxfYmluZGluZycsICctaW1hZScsICc8aW5maWxlLm1hZT4nLCAnLW9tYWUnLCAnPG91dGZpbGUubWFlPic=

> <r_lp_tautomer_probability>
1

> <r_epik_Ionization_Penalty>
0.00068475

> <r_epik_Ionization_Penalty_Charging>
0

> <r_epik_Ionization_Penalty_Neutral>
0.00068475

> <r_epik_State_Penalty>
0.000417442

> <r_epik_Charging_Adjusted_Penalty>
0.000417442

> <i_epik_Tot_Q>
0

> <i_epik_Tot_abs_Q>
0

> <r_epik_Metal_State_Penalty>
-0

> <b_epik_Metal_Only>
0

> <s_epik_Chemistry_Notes>
This compound contains an acetal/aminal-like group ( X-CH(R)-Y where X, Y are N, S, or O) that may be acid/base labile, releasing an aldehyde.

> <s_lp_Force_Field>
OPLS_2005

> <r_lp_Energy>
59.3181

> <b_lp_Chiralities_Consistent>
1

> <s_lp_Variant>
AV-unprocessed.smi:110-12

> <Gold.Version>
5.8.1

> <Gold.Id.Protein>
6NUR|6NUR_protein|mol2

> <Gold.PLP.Fitness>
60.7770

> <Gold.PLP.PLP>
-51.3681

> <Gold.PLP.part.hbond>
-6.6028

> <Gold.PLP.part.metal>
0.0000

> <Gold.PLP.part.buried>
-1.1454

> <Gold.PLP.part.nonpolar>
-41.8053

> <Gold.PLP.part.repulsive>
0.1643

> <Gold.PLP.ligand.clash>
0.0032

> <Gold.PLP.ligand.torsion>
1.5166

> <Gold.PLP.Chemscore.Hbond>
4.1120

> <Gold.PLP.Chemscore.CHOScore>
0.0000

> <Gold.PLP.Chemscore.Metal>
0.0000

> <Gold.Chemscore.Hbonds>
donor molecule, donor type, donor heavy atom, donor atom, acceptor molecule, acceptor atom, score
      L1  H     1    32       P1 10175  0.45
      L1  H    25    45       P1  8028  0.15
      L1  H    27    46       P1  7957  1.00
      P1  H  7997  8008       L1    20  0.85
      P1  H  8022  8030       L1    25  0.84
      L1  C     7    35       P1  8028  0.20

> <Gold.PLP.Chemscore.Internal.Correction>
0.1095

> <Gold.Rescore>
     Score         DG    S(hbond)    S(metal)    S(lipo)     H(rot)  DE(clash)    DE(int)     intcor
     14.71     -18.88       2.57        0.00     115.12       3.38       1.09       3.07       ----

> <Gold.Chemscore.Fitness>
14.7116

> <Gold.Chemscore.DG>
-18.8759

> <Gold.Chemscore.ZeroCoef>
-5.4800

> <Gold.Chemscore.Hbond>
2.5716

> <Gold.Chemscore.Metal>
0.0000

> <Gold.Chemscore.Lipo>
115.1187

> <Gold.Chemscore.Internal_Hbond>
0.0000

> <Gold.Chemscore.DEClash>
1.0913

> <Gold.Chemscore.DEInternal>
3.0730

> <Gold.Chemscore.Rot>
3.3837

> <Gold.Chemscore.Internal.Correction>
   9.000000E+99

> <Gold.Chemscore.Hbonds>
donor molecule, donor type, donor heavy atom, donor atom, acceptor molecule, acceptor atom, score
      L1  H     1    32       P1 10175  0.02
      L1  H    25    45       P1  8028  0.15
      L1  H    27    46       P1  7957  1.00
      P1  H  7997  8008       L1    20  0.14
      P1  H  8022  8030       L1    25  0.24

> <Gold.Chemscore.Hbond.Weighted>
-8.5892

> <Gold.Chemscore.Metal.Weighted>
-0.0000

> <Gold.Chemscore.Lipo.Weighted>
-13.4689

> <Gold.Chemscore.Internal_Hbond.Weighted>
0.0000

> <Gold.Chemscore.DEClash.Weighted>
1.0913

> <Gold.Chemscore.DEInternal.Weighted>
3.0730

> <Gold.Chemscore.Rot.Weighted>
8.6622

> <Gold.Chemscore.Internal.Correction.Weighted>
   9.000000E+99

> <Gold.Protein.RotatedTorsions>
[ 6907 6896 6895 6894 ] final -176.60 input  -60.11 | X-H torsion
[ 7974 7965 7964 7962 ] final  -21.64 input  175.53 | X-H torsion
[ 8008 7997 7996 7995 ] final  -54.08 input   59.86 | X-H torsion
[ 10167 10162 10161 10158 ] final  -39.80 input  -65.29 | X-H torsion
[ 10718 10713 10712 10709 ] final    5.23 input   66.30 | X-H torsion
[ 10763 10752 10751 10750 ] final   61.09 input  -60.55 | X-H torsion
[ 11005 11000 10999 10996 ] final  105.62 input  -57.11 | X-H torsion

> <Gold.Protein.ActiveResidues>
 VAL166  LYS551  ARG553  GLY616  TRP617  ASP618  TYR619  PRO620  LYS621  CYS622 
 ASP623  PHE694  ASN695  SER759  ASP760  ASP761  ALA762  ILE779  LEU786  VAL792 
 PHE793  MET794  SER795  GLU796  ALA797  LYS798  CYS799  TRP800  GLU811  SER814 

> <Gold.Protein.RotatedAtoms>
  151.6074  133.3350  159.3059 H   0  0  0  0  0  0  0  0  0  0  0  0  # atno 6907 bound_to 6896
  150.8175  134.7368  159.6754 H   0  0  0  0  0  0  0  0  0  0  0  0  # atno 6908 bound_to 6896
  152.4270  134.5855  160.0011 H   0  0  0  0  0  0  0  0  0  0  0  0  # atno 6909 bound_to 6896
  146.1721  140.4370  142.8528 H   0  0  0  0  0  0  0  0  0  0  0  0  # atno 7974 bound_to 7965
  154.4152  140.1185  156.5257 H   0  0  0  0  0  0  0  0  0  0  0  0  # atno 8008 bound_to 7997
  155.6657  140.3496  155.4780 H   0  0  0  0  0  0  0  0  0  0  0  0  # atno 8009 bound_to 7997
  155.9676  140.1135  157.0831 H   0  0  0  0  0  0  0  0  0  0  0  0  # atno 8010 bound_to 7997
  140.7053  143.3192  151.2833 H   0  0  0  0  0  0  0  0  0  0  0  0  # atno 10167 bound_to 10162
  156.9043  130.5733  149.5647 H   0  0  0  0  0  0  0  0  0  0  0  0  # atno 10718 bound_to 10713
  152.9940  135.5513  154.5979 H   0  0  0  0  0  0  0  0  0  0  0  0  # atno 10763 bound_to 10752
  154.5326  135.2814  155.1168 H   0  0  0  0  0  0  0  0  0  0  0  0  # atno 10764 bound_to 10752
  154.2477  135.6404  153.5282 H   0  0  0  0  0  0  0  0  0  0  0  0  # atno 10765 bound_to 10752
  139.8804  134.9342  156.5541 H   0  0  0  0  0  0  0  0  0  0  0  0  # atno 11005 bound_to 11000
  144.8179  140.6500  143.6372 LP  0  0  0  0  0  0  0  0  0  0  0  0  # atno 17320 bound_to 7965
  145.4312  139.1549  143.4021 LP  0  0  0  0  0  0  0  0  0  0  0  0  # atno 17321 bound_to 7965
  139.6641  144.0137  152.2711 LP  0  0  0  0  0  0  0  0  0  0  0  0  # atno 17342 bound_to 10162
  139.9714  144.6491  150.7986 LP  0  0  0  0  0  0  0  0  0  0  0  0  # atno 17343 bound_to 10162
  156.0566  130.5627  150.9105 LP  0  0  0  0  0  0  0  0  0  0  0  0  # atno 17370 bound_to 10713
  157.6007  131.0941  150.8965 LP  0  0  0  0  0  0  0  0  0  0  0  0  # atno 17371 bound_to 10713
  140.8218  133.8348  155.8903 LP  0  0  0  0  0  0  0  0  0  0  0  0  # atno 17394 bound_to 11000
  140.9411  134.1899  157.4797 LP  0  0  0  0  0  0  0  0  0  0  0  0  # atno 17395 bound_to 11000

$$$$
