AV-unprocessed.smi:61|AV-procd|sdf|600|dock1
  -GOLD-   2262016493D 1   1.00000     0.00000
 Structure written by MMmdl.
 29 30  0  0  0  0  0  0  0  0  2 V2000
  149.1083  134.9284  154.4563 N   0  0  0  0  0  0  0  0  0  0  0  0
  148.0859  134.0488  154.1969 C   0  0  0  0  0  0  0  0  0  0  0  0
  147.7144  133.2027  155.1631 N   0  0  0  0  0  0  0  0  0  0  0  0
  146.7135  132.3351  154.9170 C   0  0  0  0  0  0  0  0  0  0  0  0
  146.0569  132.3049  153.6755 C   0  0  0  0  0  0  0  0  0  0  0  0
  146.4931  133.2285  152.6999 C   0  0  0  0  0  0  0  0  0  0  0  0
  145.9358  133.3193  151.4158 N   0  0  0  0  0  0  0  0  0  0  0  0
  145.9236  132.0577  150.6840 C   0  0  0  0  0  0  0  0  0  0  0  0
  144.6354  132.0437  149.8488 C   0  0  0  0  0  0  0  0  0  0  0  0
  144.1032  133.4713  149.9509 C   0  0  0  0  0  0  0  0  0  0  0  0
  144.6058  133.9091  151.3267 C   0  0  2  0  0  0  0  0  0  0  0  0
  144.6208  135.4338  151.5402 C   0  0  0  0  0  0  0  0  0  0  0  0
  145.1343  136.0770  150.3938 O   0  0  0  0  0  0  0  0  0  0  0  0
  147.5087  134.0802  152.9876 N   0  3  0  0  0  0  0  0  0  0  0  0
  149.4129  135.5808  153.7479 H   0  0  0  0  0  0  0  0  0  0  0  0
  149.5690  134.9333  155.3549 H   0  0  0  0  0  0  0  0  0  0  0  0
  146.4370  131.6610  155.7142 H   0  0  0  0  0  0  0  0  0  0  0  0
  145.2606  131.6000  153.4864 H   0  0  0  0  0  0  0  0  0  0  0  0
  146.7982  132.0276  150.0334 H   0  0  0  0  0  0  0  0  0  0  0  0
  145.9727  131.1908  151.3445 H   0  0  0  0  0  0  0  0  0  0  0  0
  144.8046  131.7313  148.8179 H   0  0  0  0  0  0  0  0  0  0  0  0
  143.9193  131.3517  150.2938 H   0  0  0  0  0  0  0  0  0  0  0  0
  144.5452  134.0895  149.1678 H   0  0  0  0  0  0  0  0  0  0  0  0
  143.0184  133.5269  149.8560 H   0  0  0  0  0  0  0  0  0  0  0  0
  143.9659  133.4542  152.0838 H   0  0  0  0  0  0  0  0  0  0  0  0
  143.6131  135.8108  151.7177 H   0  0  0  0  0  0  0  0  0  0  0  0
  145.2241  135.7019  152.4081 H   0  0  0  0  0  0  0  0  0  0  0  0
  144.8365  136.9743  150.3915 H   0  0  0  0  0  0  0  0  0  0  0  0
  147.8240  134.7431  152.2794 H   0  0  0  0  0  0  0  0  0  0  0  0
  1  2  1  0  0  0  0
  1 15  1  0  0  0  0
  1 16  1  0  0  0  0
  2 14  1  0  0  0  0
  2  3  2  0  0  0  0
  3  4  1  0  0  0  0
  4  5  2  0  0  0  0
  4 17  1  0  0  0  0
  5  6  1  0  0  0  0
  5 18  1  0  0  0  0
  6  7  1  0  0  0  0
  6 14  2  0  0  0  0
  7 11  1  0  0  0  0
  7  8  1  0  0  0  0
  8  9  1  0  0  0  0
  8 19  1  0  0  0  0
  8 20  1  0  0  0  0
  9 10  1  0  0  0  0
  9 21  1  0  0  0  0
  9 22  1  0  0  0  0
 10 11  1  0  0  0  0
 10 23  1  0  0  0  0
 10 24  1  0  0  0  0
 11 12  1  0  0  0  0
 11 25  1  0  0  0  0
 12 13  1  0  0  0  0
 12 26  1  0  0  0  0
 12 27  1  0  0  0  0
 13 28  1  0  0  0  0
 14 29  1  0  0  0  0
M  CHG  1  14   1
M  END
> <s_m_source_file>
AV-unprocessed.smi

> <i_m_source_file_index>
61

> <i_lp_mmshare_version>
43012

> <i_f3d_flags>
0

> <s_epik_input>
W05IMl1jMW5bY0hdW2NIXWMobjEpTjJbQ0gyXVtDSDJdW0NIMl1bQ0BIXTJbQ0gyXVtPSF0=

> <s_epik_cmdline>
J2VwaWtfcHl0aG9uJywgJy1waCcsICc3LjAnLCAnLXRuJywgJzgnLCAnLW1hJywgJzIwMCcsICctbWV0YWxfYmluZGluZycsICctaW1hZScsICc8aW5maWxlLm1hZT4nLCAnLW9tYWUnLCAnPG91dGZpbGUubWFlPic=

> <r_lp_tautomer_probability>
0.424989

> <r_epik_Ionization_Penalty>
0.696162

> <r_epik_Ionization_Penalty_Charging>
0.696158

> <r_epik_Ionization_Penalty_Neutral>
4.43138e-06

> <r_epik_State_Penalty>
0.906374

> <r_epik_Charging_Adjusted_Penalty>
1.60253

> <i_epik_Tot_Q>
1

> <i_epik_Tot_abs_Q>
1

> <r_epik_Metal_State_Penalty>
1.16703

> <b_epik_Metal_Only>
0

> <s_lp_Force_Field>
OPLS_2005

> <r_lp_Energy>
27.4593

> <b_lp_Chiralities_Consistent>
1

> <s_lp_Variant>
AV-unprocessed.smi:61-6

> <Gold.Version>
5.8.1

> <Gold.Id.Protein>
6NUR|6NUR_protein|mol2

> <Gold.PLP.Fitness>
34.9650

> <Gold.PLP.PLP>
-21.7437

> <Gold.PLP.part.hbond>
-3.5340

> <Gold.PLP.part.metal>
0.0000

> <Gold.PLP.part.buried>
-4.3633

> <Gold.PLP.part.nonpolar>
-15.2353

> <Gold.PLP.part.repulsive>
0.1745

> <Gold.PLP.ligand.clash>
0.0000

> <Gold.PLP.ligand.torsion>
0.2912

> <Gold.PLP.Chemscore.Hbond>
4.5840

> <Gold.PLP.Chemscore.CHOScore>
0.0000

> <Gold.PLP.Chemscore.Metal>
0.0000

> <Gold.Chemscore.Hbonds>
donor molecule, donor type, donor heavy atom, donor atom, acceptor molecule, acceptor atom, score
      L1  H     1    15       P1  7948  1.70
      L1  H    13    28       P1 10171  1.00
      L1  H    14    29       P1  7948  1.92

> <Gold.PLP.Chemscore.Internal.Correction>
0.0518

> <Gold.Rescore>
     Score         DG    S(hbond)    S(metal)    S(lipo)     H(rot)  DE(clash)    DE(int)     intcor
     14.36     -14.68       2.60        0.00      47.82       1.98       0.01       0.31       ----

> <Gold.Chemscore.Fitness>
14.3591

> <Gold.Chemscore.DG>
-14.6831

> <Gold.Chemscore.ZeroCoef>
-5.4800

> <Gold.Chemscore.Hbond>
2.6008

> <Gold.Chemscore.Metal>
0.0000

> <Gold.Chemscore.Lipo>
47.8209

> <Gold.Chemscore.Internal_Hbond>
0.0000

> <Gold.Chemscore.DEClash>
0.0149

> <Gold.Chemscore.DEInternal>
0.3091

> <Gold.Chemscore.Rot>
1.9838

> <Gold.Chemscore.Internal.Correction>
   9.000000E+99

> <Gold.Chemscore.Hbonds>
donor molecule, donor type, donor heavy atom, donor atom, acceptor molecule, acceptor atom, score
      L1  H     1    15       P1  7948  0.31
      L1  H    13    28       P1 10171  0.98
      L1  H    14    29       P1  7948  0.60

> <Gold.Chemscore.Hbond.Weighted>
-8.6866

> <Gold.Chemscore.Metal.Weighted>
-0.0000

> <Gold.Chemscore.Lipo.Weighted>
-5.5950

> <Gold.Chemscore.Internal_Hbond.Weighted>
0.0000

> <Gold.Chemscore.DEClash.Weighted>
0.0149

> <Gold.Chemscore.DEInternal.Weighted>
0.3091

> <Gold.Chemscore.Rot.Weighted>
5.0786

> <Gold.Chemscore.Internal.Correction.Weighted>
   9.000000E+99

> <Gold.Protein.RotatedTorsions>
[ 6907 6896 6895 6894 ] final  -47.37 input  -60.11 | X-H torsion
[ 7974 7965 7964 7962 ] final  108.87 input  175.53 | X-H torsion
[ 8008 7997 7996 7995 ] final  -55.63 input   59.86 | X-H torsion
[ 10167 10162 10161 10158 ] final -141.48 input  -65.29 | X-H torsion
[ 10718 10713 10712 10709 ] final  173.83 input   66.30 | X-H torsion
[ 10763 10752 10751 10750 ] final -161.34 input  -60.55 | X-H torsion
[ 11005 11000 10999 10996 ] final -163.82 input  -57.11 | X-H torsion

> <Gold.Protein.ActiveResidues>
 VAL166  LYS551  ARG553  GLY616  TRP617  ASP618  TYR619  PRO620  LYS621  CYS622 
 ASP623  PHE694  ASN695  SER759  ASP760  ASP761  ALA762  ILE779  LEU786  VAL792 
 PHE793  MET794  SER795  GLU796  ALA797  LYS798  CYS799  TRP800  GLU811  SER814 

> <Gold.Protein.RotatedAtoms>
  150.9014  134.8427  159.7362 H   0  0  0  0  0  0  0  0  0  0  0  0  # atno 6907 bound_to 6896
  152.4895  134.4496  159.9580 H   0  0  0  0  0  0  0  0  0  0  0  0  # atno 6908 bound_to 6896
  151.4547  133.3569  159.2835 H   0  0  0  0  0  0  0  0  0  0  0  0  # atno 6909 bound_to 6896
  145.2751  139.2652  143.3945 H   0  0  0  0  0  0  0  0  0  0  0  0  # atno 7974 bound_to 7965
  154.4201  140.1148  156.5508 H   0  0  0  0  0  0  0  0  0  0  0  0  # atno 8008 bound_to 7997
  155.6412  140.3496  155.4696 H   0  0  0  0  0  0  0  0  0  0  0  0  # atno 8009 bound_to 7997
  155.9869  140.1171  157.0664 H   0  0  0  0  0  0  0  0  0  0  0  0  # atno 8010 bound_to 7997
  139.8181  143.7611  152.2665 H   0  0  0  0  0  0  0  0  0  0  0  0  # atno 10167 bound_to 10162
  156.9586  131.0053  151.2932 H   0  0  0  0  0  0  0  0  0  0  0  0  # atno 10718 bound_to 10713
  154.7312  135.3047  154.8889 H   0  0  0  0  0  0  0  0  0  0  0  0  # atno 10763 bound_to 10752
  153.9731  135.6739  153.4752 H   0  0  0  0  0  0  0  0  0  0  0  0  # atno 10764 bound_to 10752
  153.0920  135.4955  154.8628 H   0  0  0  0  0  0  0  0  0  0  0  0  # atno 10765 bound_to 10752
  140.5939  134.5017  157.5196 H   0  0  0  0  0  0  0  0  0  0  0  0  # atno 11005 bound_to 11000
  146.3234  140.3204  142.8633 LP  0  0  0  0  0  0  0  0  0  0  0  0  # atno 17320 bound_to 7965
  144.9301  140.7965  143.5694 LP  0  0  0  0  0  0  0  0  0  0  0  0  # atno 17321 bound_to 7965
  139.7781  144.7454  151.0127 LP  0  0  0  0  0  0  0  0  0  0  0  0  # atno 17342 bound_to 10162
  140.7815  143.4572  151.0329 LP  0  0  0  0  0  0  0  0  0  0  0  0  # atno 17343 bound_to 10162
  157.5673  130.8286  149.8345 LP  0  0  0  0  0  0  0  0  0  0  0  0  # atno 17370 bound_to 10713
  156.0332  130.3758  150.1631 LP  0  0  0  0  0  0  0  0  0  0  0  0  # atno 17371 bound_to 10713
  139.9262  134.8052  156.1062 LP  0  0  0  0  0  0  0  0  0  0  0  0  # atno 17394 bound_to 11000
  141.0917  133.6712  156.2555 LP  0  0  0  0  0  0  0  0  0  0  0  0  # atno 17395 bound_to 11000

$$$$
