AV-unprocessed.smi:1313|AV-procd|sdf|5452|dock5
  -GOLD-   22720 5 23D 1   1.00000     0.00000
 Structure written by MMmdl.
 36 37  0  0  0  0  0  0  0  0  2 V2000
  148.0918  135.8228  160.1100 C   0  0  0  0  0  0  0  0  0  0  0  0
  148.8405  136.9040  159.3605 C   0  0  0  0  0  0  0  0  0  0  0  0
  148.1833  137.8403  158.7899 N   0  0  0  0  0  0  0  0  0  0  0  0
  148.8748  138.8461  158.0936 C   0  0  0  0  0  0  0  0  0  0  0  0
  148.0111  139.9170  157.4493 C   0  0  0  0  0  0  0  0  0  0  0  0
  150.2370  138.8431  158.0167 C   0  0  0  0  0  0  0  0  0  0  0  0
  151.0356  139.9120  157.2716 C   0  0  0  0  0  0  0  0  0  0  0  0
  152.1425  140.5839  158.0855 C   0  0  0  0  0  0  0  0  0  0  0  0
  153.1881  139.9790  158.3216 O   0  0  0  0  0  0  0  0  0  0  0  0
  151.8995  141.8323  158.5136 N   0  0  0  0  0  0  0  0  0  0  0  0
  152.8074  142.6321  159.3306 C   0  0  0  0  0  0  0  0  0  0  0  0
  153.0974  141.9319  160.6718 C   0  0  0  0  0  0  0  0  0  0  0  0
  152.9466  143.0070  161.7489 C   0  0  0  0  0  0  0  0  0  0  0  0
  151.8941  143.9559  161.1849 C   0  0  0  0  0  0  0  0  0  0  0  0
  152.1970  144.0031  159.6863 C   0  0  0  0  0  0  0  0  0  0  0  0
  150.9569  137.7477  158.6915 C   0  0  0  0  0  0  0  0  0  0  0  0
  152.1861  137.7008  158.6634 O   0  0  0  0  0  0  0  0  0  0  0  0
  150.2134  136.8064  159.3400 N   0  5  0  0  0  0  0  0  0  0  0  0
  147.0225  136.0358  160.1449 H   0  0  0  0  0  0  0  0  0  0  0  0
  148.4581  135.7486  161.1345 H   0  0  0  0  0  0  0  0  0  0  0  0
  148.2335  134.8587  159.6211 H   0  0  0  0  0  0  0  0  0  0  0  0
  148.2019  139.9762  156.3778 H   0  0  0  0  0  0  0  0  0  0  0  0
  148.2146  140.8907  157.8952 H   0  0  0  0  0  0  0  0  0  0  0  0
  146.9507  139.7024  157.5866 H   0  0  0  0  0  0  0  0  0  0  0  0
  151.4826  139.5016  156.3658 H   0  0  0  0  0  0  0  0  0  0  0  0
  150.3423  140.6718  156.9092 H   0  0  0  0  0  0  0  0  0  0  0  0
  151.0131  142.2510  158.2718 H   0  0  0  0  0  0  0  0  0  0  0  0
  153.7453  142.7818  158.7922 H   0  0  0  0  0  0  0  0  0  0  0  0
  152.3680  141.1418  160.8585 H   0  0  0  0  0  0  0  0  0  0  0  0
  154.0845  141.4690  160.6912 H   0  0  0  0  0  0  0  0  0  0  0  0
  152.6664  142.5948  162.7186 H   0  0  0  0  0  0  0  0  0  0  0  0
  153.8909  143.5391  161.8726 H   0  0  0  0  0  0  0  0  0  0  0  0
  150.8995  143.5378  161.3469 H   0  0  0  0  0  0  0  0  0  0  0  0
  151.9226  144.9414  161.6508 H   0  0  0  0  0  0  0  0  0  0  0  0
  152.9346  144.7831  159.4928 H   0  0  0  0  0  0  0  0  0  0  0  0
  151.3110  144.2511  159.1000 H   0  0  0  0  0  0  0  0  0  0  0  0
  1  2  1  0  0  0  0
  1 19  1  0  0  0  0
  1 20  1  0  0  0  0
  1 21  1  0  0  0  0
  2 18  1  0  0  0  0
  2  3  2  0  0  0  0
  3  4  1  0  0  0  0
  4  5  1  0  0  0  0
  4  6  2  0  0  0  0
  5 22  1  0  0  0  0
  5 23  1  0  0  0  0
  5 24  1  0  0  0  0
  6  7  1  0  0  0  0
  6 16  1  0  0  0  0
  7  8  1  0  0  0  0
  7 25  1  0  0  0  0
  7 26  1  0  0  0  0
  8  9  2  0  0  0  0
  8 10  1  0  0  0  0
 10 11  1  0  0  0  0
 10 27  1  0  0  0  0
 11 15  1  0  0  0  0
 11 12  1  0  0  0  0
 11 28  1  0  0  0  0
 12 13  1  0  0  0  0
 12 29  1  0  0  0  0
 12 30  1  0  0  0  0
 13 14  1  0  0  0  0
 13 31  1  0  0  0  0
 13 32  1  0  0  0  0
 14 15  1  0  0  0  0
 14 33  1  0  0  0  0
 14 34  1  0  0  0  0
 15 35  1  0  0  0  0
 15 36  1  0  0  0  0
 16 17  2  0  0  0  0
 16 18  1  0  0  0  0
M  CHG  1  18  -1
M  END
> <s_m_source_file>
AV-unprocessed.smi

> <i_m_source_file_index>
1313

> <i_lp_mmshare_version>
43012

> <i_f3d_flags>
0

> <s_epik_input>
W0NIM11jMW5jKFtDSDNdKWMoYyg9TylbbkhdMSlbQ0gyXUMoPU8pW05IXVtDSF0yW0NIMl1bQ0gyXVtDSDJdW0NIMl0y

> <s_epik_cmdline>
J2VwaWtfcHl0aG9uJywgJy1waCcsICc3LjAnLCAnLXRuJywgJzgnLCAnLW1hJywgJzIwMCcsICctbWV0YWxfYmluZGluZycsICctaW1hZScsICc8aW5maWxlLm1hZT4nLCAnLW9tYWUnLCAnPG91dGZpbGUubWFlPic=

> <r_lp_tautomer_probability>
0.839158

> <r_epik_Ionization_Penalty>
6.62586

> <r_epik_Ionization_Penalty_Charging>
7.38068e-08

> <r_epik_Ionization_Penalty_Neutral>
6.62586

> <r_epik_State_Penalty>
4.443

> <r_epik_Charging_Adjusted_Penalty>
4.443

> <i_epik_Tot_Q>
-1

> <i_epik_Tot_abs_Q>
1

> <r_epik_Metal_State_Penalty>
0.804085

> <b_epik_Metal_Only>
1

> <s_lp_Force_Field>
OPLS_2005

> <r_lp_Energy>
23.3314

> <b_lp_Chiralities_Consistent>
1

> <s_lp_Variant>
AV-unprocessed.smi:1313-3

> <Gold.Version>
5.8.1

> <Gold.Id.Protein>
6NUR|6NUR_protein|mol2

> <Gold.PLP.Fitness>
43.9803

> <Gold.PLP.PLP>
-35.4491

> <Gold.PLP.part.hbond>
-2.3188

> <Gold.PLP.part.metal>
0.0000

> <Gold.PLP.part.buried>
-5.1036

> <Gold.PLP.part.nonpolar>
-27.3005

> <Gold.PLP.part.repulsive>
0.0825

> <Gold.PLP.ligand.clash>
0.0000

> <Gold.PLP.ligand.torsion>
0.2366

> <Gold.PLP.Chemscore.Hbond>
3.0000

> <Gold.PLP.Chemscore.CHOScore>
0.0000

> <Gold.PLP.Chemscore.Metal>
0.0000

> <Gold.Chemscore.Hbonds>
donor molecule, donor type, donor heavy atom, donor atom, acceptor molecule, acceptor atom, score
      P1  H  6896  6907       L1    18  1.92
      P1  H  7997  8009       L1     9  0.99

> <Gold.PLP.Chemscore.Internal.Correction>
0.0044

> <Gold.Rescore>
     Score         DG    S(hbond)    S(metal)    S(lipo)     H(rot)  DE(clash)    DE(int)     intcor
     14.98     -16.95       1.93        0.00      75.30       1.48       0.28       1.69       ----

> <Gold.Chemscore.Fitness>
14.9825

> <Gold.Chemscore.DG>
-16.9493

> <Gold.Chemscore.ZeroCoef>
-5.4800

> <Gold.Chemscore.Hbond>
1.9288

> <Gold.Chemscore.Metal>
0.0000

> <Gold.Chemscore.Lipo>
75.2978

> <Gold.Chemscore.Internal_Hbond>
0.0000

> <Gold.Chemscore.DEClash>
0.2757

> <Gold.Chemscore.DEInternal>
1.6911

> <Gold.Chemscore.Rot>
1.4776

> <Gold.Chemscore.Internal.Correction>
   9.000000E+99

> <Gold.Chemscore.Hbonds>
donor molecule, donor type, donor heavy atom, donor atom, acceptor molecule, acceptor atom, score
      P1  H  6896  6907       L1    18  0.77
      P1  H  7997  8009       L1     9  0.92

> <Gold.Chemscore.Hbond.Weighted>
-6.4422

> <Gold.Chemscore.Metal.Weighted>
-0.0000

> <Gold.Chemscore.Lipo.Weighted>
-8.8098

> <Gold.Chemscore.Internal_Hbond.Weighted>
0.0000

> <Gold.Chemscore.DEClash.Weighted>
0.2757

> <Gold.Chemscore.DEInternal.Weighted>
1.6911

> <Gold.Chemscore.Rot.Weighted>
3.7827

> <Gold.Chemscore.Internal.Correction.Weighted>
   9.000000E+99

> <Gold.Protein.RotatedTorsions>
[ 6907 6896 6895 6894 ] final  -46.64 input  -60.11 | X-H torsion
[ 7974 7965 7964 7962 ] final  144.46 input  175.53 | X-H torsion
[ 8008 7997 7996 7995 ] final  142.29 input   59.86 | X-H torsion
[ 10167 10162 10161 10158 ] final  174.16 input  -65.29 | X-H torsion
[ 10718 10713 10712 10709 ] final -146.76 input   66.30 | X-H torsion
[ 10763 10752 10751 10750 ] final   24.18 input  -60.55 | X-H torsion
[ 11005 11000 10999 10996 ] final   49.48 input  -57.11 | X-H torsion

> <Gold.Protein.ActiveResidues>
 VAL166  LYS551  ARG553  GLY616  TRP617  ASP618  TYR619  PRO620  LYS621  CYS622 
 ASP623  PHE694  ASN695  SER759  ASP760  ASP761  ALA762  ILE779  LEU786  VAL792 
 PHE793  MET794  SER795  GLU796  ALA797  LYS798  CYS799  TRP800  GLU811  SER814 

> <Gold.Protein.RotatedAtoms>
  150.9091  134.8508  159.7412 H   0  0  0  0  0  0  0  0  0  0  0  0  # atno 6907 bound_to 6896
  152.4935  134.4386  159.9546 H   0  0  0  0  0  0  0  0  0  0  0  0  # atno 6908 bound_to 6896
  151.4430  133.3599  159.2819 H   0  0  0  0  0  0  0  0  0  0  0  0  # atno 6909 bound_to 6896
  144.8834  139.5665  143.5832 H   0  0  0  0  0  0  0  0  0  0  0  0  # atno 7974 bound_to 7965
  156.2952  140.2292  156.4704 H   0  0  0  0  0  0  0  0  0  0  0  0  # atno 8008 bound_to 7997
  154.7940  140.0452  157.1244 H   0  0  0  0  0  0  0  0  0  0  0  0  # atno 8009 bound_to 7997
  154.9611  140.3054  155.5034 H   0  0  0  0  0  0  0  0  0  0  0  0  # atno 8010 bound_to 7997
  139.5132  144.3178  152.0231 H   0  0  0  0  0  0  0  0  0  0  0  0  # atno 10167 bound_to 10162
  156.3990  130.7924  151.2133 H   0  0  0  0  0  0  0  0  0  0  0  0  # atno 10718 bound_to 10713
  153.0783  135.6611  154.0099 H   0  0  0  0  0  0  0  0  0  0  0  0  # atno 10763 bound_to 10752
  153.9728  135.2963  155.3427 H   0  0  0  0  0  0  0  0  0  0  0  0  # atno 10764 bound_to 10752
  154.7176  135.5178  153.8833 H   0  0  0  0  0  0  0  0  0  0  0  0  # atno 10765 bound_to 10752
  140.1099  134.4968  155.8686 H   0  0  0  0  0  0  0  0  0  0  0  0  # atno 11005 bound_to 11000
  146.3009  139.7423  142.9092 LP  0  0  0  0  0  0  0  0  0  0  0  0  # atno 17320 bound_to 7965
  145.3913  141.0373  143.3122 LP  0  0  0  0  0  0  0  0  0  0  0  0  # atno 17321 bound_to 7965
  140.2620  144.4056  150.6182 LP  0  0  0  0  0  0  0  0  0  0  0  0  # atno 17342 bound_to 10162
  140.6150  143.2172  151.6810 LP  0  0  0  0  0  0  0  0  0  0  0  0  # atno 17343 bound_to 10162
  157.7503  131.0292  150.4084 LP  0  0  0  0  0  0  0  0  0  0  0  0  # atno 17370 bound_to 10713
  156.4360  130.3982  149.6728 LP  0  0  0  0  0  0  0  0  0  0  0  0  # atno 17371 bound_to 10713
  141.2128  133.6724  156.6685 LP  0  0  0  0  0  0  0  0  0  0  0  0  # atno 17394 bound_to 11000
  140.3105  134.8090  157.4172 LP  0  0  0  0  0  0  0  0  0  0  0  0  # atno 17395 bound_to 11000

$$$$
