AV-unprocessed.smi:2226|AV-procd|sdf|9003|dock4
  -GOLD-   2272012213D 1   1.00000     0.00000
 Structure written by MMmdl.
 40 42  0  0  0  0  0  0  0  0  2 V2000
  142.0030  142.0060  160.2365 C   0  0  0  0  0  0  0  0  0  0  0  0
  143.2581  142.7895  160.1470 N   0  3  2  0  0  0  0  0  0  0  0  0
  144.1068  142.7490  161.3627 C   0  0  2  0  0  0  0  0  0  0  0  0
  143.4563  143.5336  162.5302 C   0  0  0  0  0  0  0  0  0  0  0  0
  143.0305  144.9678  162.1628 C   0  0  0  0  0  0  0  0  0  0  0  0
  142.3826  145.0527  160.7676 C   0  0  0  0  0  0  0  0  0  0  0  0
  143.0879  144.1901  159.6901 C   0  0  1  0  0  0  0  0  0  0  0  0
  144.4576  144.7316  159.2192 C   0  0  0  0  0  0  0  0  0  0  0  0
  145.6012  144.5647  160.2490 C   0  0  2  0  0  0  0  0  0  0  0  0
  146.8876  144.6776  159.5626 N   0  0  0  0  0  0  0  0  0  0  0  0
  148.0942  144.4641  160.1094 C   0  0  0  0  0  0  0  0  0  0  0  0
  148.2637  144.1394  161.2847 O   0  0  0  0  0  0  0  0  0  0  0  0
  149.0752  144.6510  159.2107 N   0  0  0  0  0  0  0  0  0  0  0  0
  150.4714  144.5183  159.4183 C   0  0  0  0  0  0  0  0  0  0  0  0
  151.4383  144.8961  158.5810 N   0  0  0  0  0  0  0  0  0  0  0  0
  152.6159  144.5568  159.2310 C   0  0  0  0  0  0  0  0  0  0  0  0
  152.2906  143.9879  160.4355 C   0  0  0  0  0  0  0  0  0  0  0  0
  150.9284  143.9567  160.5686 O   0  0  0  0  0  0  0  0  0  0  0  0
  145.5359  143.2067  160.9893 C   0  0  0  0  0  0  0  0  0  0  0  0
  141.3219  142.3997  160.9901 H   0  0  0  0  0  0  0  0  0  0  0  0
  142.2211  140.9679  160.4882 H   0  0  0  0  0  0  0  0  0  0  0  0
  141.4840  142.0104  159.2776 H   0  0  0  0  0  0  0  0  0  0  0  0
  144.1884  141.7077  161.6774 H   0  0  0  0  0  0  0  0  0  0  0  0
  142.5746  142.9901  162.8706 H   0  0  0  0  0  0  0  0  0  0  0  0
  144.1294  143.5575  163.3877 H   0  0  0  0  0  0  0  0  0  0  0  0
  142.3310  145.3418  162.9111 H   0  0  0  0  0  0  0  0  0  0  0  0
  143.8797  145.6426  162.2272 H   0  0  0  0  0  0  0  0  0  0  0  0
  141.3442  144.7308  160.8508 H   0  0  0  0  0  0  0  0  0  0  0  0
  142.3372  146.0933  160.4453 H   0  0  0  0  0  0  0  0  0  0  0  0
  142.4420  144.1776  158.8110 H   0  0  0  0  0  0  0  0  0  0  0  0
  144.7261  144.1907  158.3101 H   0  0  0  0  0  0  0  0  0  0  0  0
  144.3704  145.7780  158.9240 H   0  0  0  0  0  0  0  0  0  0  0  0
  145.5229  145.3618  160.9833 H   0  0  0  0  0  0  0  0  0  0  0  0
  146.8568  144.9406  158.5884 H   0  0  0  0  0  0  0  0  0  0  0  0
  148.7968  144.9165  158.2777 H   0  0  0  0  0  0  0  0  0  0  0  0
  153.5836  144.7449  158.7899 H   0  0  0  0  0  0  0  0  0  0  0  0
  152.8678  143.5826  161.2535 H   0  0  0  0  0  0  0  0  0  0  0  0
  146.1690  143.2342  161.8770 H   0  0  0  0  0  0  0  0  0  0  0  0
  145.9658  142.4379  160.3449 H   0  0  0  0  0  0  0  0  0  0  0  0
  143.7940  142.3301  159.4246 H   0  0  0  0  0  0  0  0  0  0  0  0
  1  2  1  0  0  0  0
  1 20  1  0  0  0  0
  1 21  1  0  0  0  0
  1 22  1  0  0  0  0
  2  7  1  0  0  0  0
  2  3  1  0  0  0  0
  2 40  1  0  0  0  0
  3 19  1  0  0  0  0
  3  4  1  0  0  0  0
  3 23  1  0  0  0  0
  4  5  1  0  0  0  0
  4 24  1  0  0  0  0
  4 25  1  0  0  0  0
  5  6  1  0  0  0  0
  5 26  1  0  0  0  0
  5 27  1  0  0  0  0
  6  7  1  0  0  0  0
  6 28  1  0  0  0  0
  6 29  1  0  0  0  0
  7  8  1  0  0  0  0
  7 30  1  0  0  0  0
  8  9  1  0  0  0  0
  8 31  1  0  0  0  0
  8 32  1  0  0  0  0
  9 10  1  0  0  0  0
  9 19  1  0  0  0  0
  9 33  1  0  0  0  0
 10 11  1  0  0  0  0
 10 34  1  0  0  0  0
 11 12  2  0  0  0  0
 11 13  1  0  0  0  0
 13 14  1  0  0  0  0
 13 35  1  0  0  0  0
 14 18  1  0  0  0  0
 14 15  2  0  0  0  0
 15 16  1  0  0  0  0
 16 17  2  0  0  0  0
 16 36  1  0  0  0  0
 17 18  1  0  0  0  0
 17 37  1  0  0  0  0
 19 38  1  0  0  0  0
 19 39  1  0  0  0  0
M  CHG  1   2   1
M  END
> <s_m_source_file>
AV-unprocessed.smi

> <i_m_source_file_index>
2226

> <i_lp_mmshare_version>
43012

> <i_f3d_flags>
0

> <s_epik_input>
W0NIMl0xW0NIMl1bQ0gyXVtDQEhdKE4oW0NIM10pW0NIXTEyKVtDSDJdW0NASF0oW0NIMl0yKVtOSF1DKD1PKVtOSF1jM25bY0hdW2NIXW8z

> <s_epik_cmdline>
J2VwaWtfcHl0aG9uJywgJy1waCcsICc3LjAnLCAnLXRuJywgJzgnLCAnLW1hJywgJzIwMCcsICctbWV0YWxfYmluZGluZycsICctaW1hZScsICc8aW5maWxlLm1hZT4nLCAnLW9tYWUnLCAnPG91dGZpbGUubWFlPic=

> <r_lp_tautomer_probability>
0.785861

> <r_epik_Ionization_Penalty>
0.000929358

> <r_epik_Ionization_Penalty_Charging>
0.000890041

> <r_epik_Ionization_Penalty_Neutral>
3.93161e-05

> <r_epik_State_Penalty>
0.0312137

> <r_epik_Charging_Adjusted_Penalty>
0.0321037

> <i_epik_Tot_Q>
1

> <i_epik_Tot_abs_Q>
1

> <r_epik_Metal_State_Penalty>
0.0605703

> <b_epik_Metal_Only>
0

> <s_lp_Force_Field>
OPLS_2005

> <r_lp_Energy>
34.3269

> <b_lp_Chiralities_Consistent>
1

> <s_lp_Variant>
AV-unprocessed.smi:2226-3

> <Gold.Version>
5.8.1

> <Gold.Id.Protein>
6NUR|6NUR_protein|mol2

> <Gold.PLP.Fitness>
37.9759

> <Gold.PLP.PLP>
-29.5141

> <Gold.PLP.part.hbond>
-3.7855

> <Gold.PLP.part.metal>
0.0000

> <Gold.PLP.part.buried>
-1.7057

> <Gold.PLP.part.nonpolar>
-24.2701

> <Gold.PLP.part.repulsive>
0.6520

> <Gold.PLP.ligand.clash>
0.0000

> <Gold.PLP.ligand.torsion>
0.0920

> <Gold.PLP.Chemscore.Hbond>
2.8800

> <Gold.PLP.Chemscore.CHOScore>
0.0000

> <Gold.PLP.Chemscore.Metal>
0.0000

> <Gold.Chemscore.Hbonds>
donor molecule, donor type, donor heavy atom, donor atom, acceptor molecule, acceptor atom, score
      L1  H    10    34       P1  8029  0.83
      L1  H    13    35       P1  8029  0.98
      P1  H  6933  6944       L1    12  1.00

> <Gold.PLP.Chemscore.Internal.Correction>
0.0057

> <Gold.Rescore>
     Score         DG    S(hbond)    S(metal)    S(lipo)     H(rot)  DE(clash)    DE(int)     intcor
     16.65     -20.70       2.88        0.00      69.65       1.00       1.35       2.70       ----

> <Gold.Chemscore.Fitness>
16.6491

> <Gold.Chemscore.DG>
-20.6989

> <Gold.Chemscore.ZeroCoef>
-5.4800

> <Gold.Chemscore.Hbond>
2.8830

> <Gold.Chemscore.Metal>
0.0000

> <Gold.Chemscore.Lipo>
69.6544

> <Gold.Chemscore.Internal_Hbond>
0.0000

> <Gold.Chemscore.DEClash>
1.3461

> <Gold.Chemscore.DEInternal>
2.7037

> <Gold.Chemscore.Rot>
1.0000

> <Gold.Chemscore.Internal.Correction>
   9.000000E+99

> <Gold.Chemscore.Hbonds>
donor molecule, donor type, donor heavy atom, donor atom, acceptor molecule, acceptor atom, score
      L1  H    10    34       P1  8029  0.81
      L1  H    13    35       P1  8029  0.69
      P1  H  6933  6944       L1    12  0.78

> <Gold.Chemscore.Hbond.Weighted>
-9.6293

> <Gold.Chemscore.Metal.Weighted>
-0.0000

> <Gold.Chemscore.Lipo.Weighted>
-8.1496

> <Gold.Chemscore.Internal_Hbond.Weighted>
0.0000

> <Gold.Chemscore.DEClash.Weighted>
1.3461

> <Gold.Chemscore.DEInternal.Weighted>
2.7037

> <Gold.Chemscore.Rot.Weighted>
2.5600

> <Gold.Chemscore.Internal.Correction.Weighted>
   9.000000E+99

> <Gold.Protein.RotatedTorsions>
[ 6907 6896 6895 6894 ] final -130.23 input  -60.11 | X-H torsion
[ 7974 7965 7964 7962 ] final   13.69 input  175.53 | X-H torsion
[ 8008 7997 7996 7995 ] final  178.71 input   59.86 | X-H torsion
[ 10167 10162 10161 10158 ] final   72.85 input  -65.29 | X-H torsion
[ 10718 10713 10712 10709 ] final  157.91 input   66.30 | X-H torsion
[ 10763 10752 10751 10750 ] final   56.45 input  -60.55 | X-H torsion
[ 11005 11000 10999 10996 ] final -103.77 input  -57.11 | X-H torsion

> <Gold.Protein.ActiveResidues>
 VAL166  LYS551  ARG553  GLY616  TRP617  ASP618  TYR619  PRO620  LYS621  CYS622 
 ASP623  PHE694  ASN695  SER759  ASP760  ASP761  ALA762  ILE779  LEU786  VAL792 
 PHE793  MET794  SER795  GLU796  ALA797  LYS798  CYS799  TRP800  GLU811  SER814 

> <Gold.Protein.RotatedAtoms>
  150.9374  133.6696  159.2797 H   0  0  0  0  0  0  0  0  0  0  0  0  # atno 6907 bound_to 6896
  151.4097  135.0982  159.9591 H   0  0  0  0  0  0  0  0  0  0  0  0  # atno 6908 bound_to 6896
  152.5054  133.8850  159.7420 H   0  0  0  0  0  0  0  0  0  0  0  0  # atno 6909 bound_to 6896
  146.2323  139.9151  142.8518 H   0  0  0  0  0  0  0  0  0  0  0  0  # atno 7974 bound_to 7965
  156.0516  140.1327  157.0043 H   0  0  0  0  0  0  0  0  0  0  0  0  # atno 8008 bound_to 7997
  154.4438  140.1009  156.6455 H   0  0  0  0  0  0  0  0  0  0  0  0  # atno 8009 bound_to 7997
  155.5514  140.3463  155.4472 H   0  0  0  0  0  0  0  0  0  0  0  0  # atno 8010 bound_to 7997
  140.0308  144.5467  150.7508 H   0  0  0  0  0  0  0  0  0  0  0  0  # atno 10167 bound_to 10162
  157.1851  131.0641  151.2110 H   0  0  0  0  0  0  0  0  0  0  0  0  # atno 10718 bound_to 10713
  152.9832  135.5676  154.5230 H   0  0  0  0  0  0  0  0  0  0  0  0  # atno 10763 bound_to 10752
  154.4715  135.2785  155.1641 H   0  0  0  0  0  0  0  0  0  0  0  0  # atno 10764 bound_to 10752
  154.3187  135.6273  153.5551 H   0  0  0  0  0  0  0  0  0  0  0  0  # atno 10765 bound_to 10752
  141.1131  133.8667  157.1527 H   0  0  0  0  0  0  0  0  0  0  0  0  # atno 11005 bound_to 11000
  145.2191  140.9927  143.4056 LP  0  0  0  0  0  0  0  0  0  0  0  0  # atno 17320 bound_to 7965
  144.9625  139.3964  143.6348 LP  0  0  0  0  0  0  0  0  0  0  0  0  # atno 17321 bound_to 7965
  140.7303  143.2681  151.3976 LP  0  0  0  0  0  0  0  0  0  0  0  0  # atno 17342 bound_to 10162
  139.6077  144.1162  152.2266 LP  0  0  0  0  0  0  0  0  0  0  0  0  # atno 17343 bound_to 10162
  157.3915  130.7284  149.6701 LP  0  0  0  0  0  0  0  0  0  0  0  0  # atno 17370 bound_to 10713
  155.9719  130.4145  150.4136 LP  0  0  0  0  0  0  0  0  0  0  0  0  # atno 17371 bound_to 10713
  140.0036  135.0017  157.0244 LP  0  0  0  0  0  0  0  0  0  0  0  0  # atno 17394 bound_to 11000
  140.4721  134.1376  155.7204 LP  0  0  0  0  0  0  0  0  0  0  0  0  # atno 17395 bound_to 11000

$$$$
