AV-unprocessed.smi:658|AV-procd|sdf|3230|dock6
  -GOLD-   22720 0173D 1   1.00000     0.00000
 Structure written by MMmdl.
 38 38  0  0  0  0  0  0  0  0  2 V2000
  145.8882  136.6445  150.5255 C   0  0  0  0  0  0  0  0  0  0  0  0
  145.3843  135.9930  151.8242 C   0  0  2  0  0  0  0  0  0  0  0  0
  146.5240  135.2992  152.4696 N   0  3  0  0  0  0  0  0  0  0  0  0
  146.4346  135.1732  153.9390 C   0  0  0  0  0  0  0  0  0  0  0  0
  147.6380  134.4036  154.4953 C   0  0  0  0  0  0  0  0  0  0  0  0
  148.4141  135.2089  155.5466 C   0  0  0  0  0  0  0  0  0  0  0  0
  150.0190  134.4045  155.9695 S   0  0  0  0  0  0  0  0  0  0  0  0
  150.0034  133.0129  154.9596 N   0  0  0  0  0  0  0  0  0  0  0  0
  151.1250  135.2629  155.5185 O   0  0  0  0  0  0  0  0  0  0  0  0
  149.9508  133.9306  157.3597 O   0  0  0  0  0  0  0  0  0  0  0  0
  144.2091  135.0067  151.5789 C   0  0  2  0  0  0  0  0  0  0  0  0
  143.4967  134.5655  152.8720 C   0  0  0  0  0  0  0  0  0  0  0  0
  144.6475  133.8328  150.8322 N   0  0  0  0  0  0  0  0  0  0  0  0
  144.1478  133.3169  149.6520 C   0  0  0  0  0  0  0  0  0  0  0  0
  144.8600  132.1881  149.3649 C   0  0  0  0  0  0  0  0  0  0  0  0
  145.7789  132.0843  150.4454 C   0  0  0  0  0  0  0  0  0  0  0  0
  145.6424  133.0625  151.3260 N   0  0  0  0  0  0  0  0  0  0  0  0
  145.1290  137.2807  150.0710 H   0  0  0  0  0  0  0  0  0  0  0  0
  146.1813  135.8938  149.7905 H   0  0  0  0  0  0  0  0  0  0  0  0
  146.7558  137.2767  150.7171 H   0  0  0  0  0  0  0  0  0  0  0  0
  145.0414  136.7972  152.4782 H   0  0  0  0  0  0  0  0  0  0  0  0
  146.6008  134.3759  152.0666 H   0  0  0  0  0  0  0  0  0  0  0  0
  146.3873  136.1697  154.3800 H   0  0  0  0  0  0  0  0  0  0  0  0
  145.5140  134.6574  154.2113 H   0  0  0  0  0  0  0  0  0  0  0  0
  147.2944  133.4685  154.9396 H   0  0  0  0  0  0  0  0  0  0  0  0
  148.3058  134.1326  153.6768 H   0  0  0  0  0  0  0  0  0  0  0  0
  148.6386  136.2030  155.1588 H   0  0  0  0  0  0  0  0  0  0  0  0
  147.8408  135.3377  156.4652 H   0  0  0  0  0  0  0  0  0  0  0  0
  150.3941  132.1858  155.4107 H   0  0  0  0  0  0  0  0  0  0  0  0
  150.3497  133.1957  154.0180 H   0  0  0  0  0  0  0  0  0  0  0  0
  143.4626  135.5190  150.9683 H   0  0  0  0  0  0  0  0  0  0  0  0
  142.9901  135.3993  153.3571 H   0  0  0  0  0  0  0  0  0  0  0  0
  144.1954  134.1370  153.5909 H   0  0  0  0  0  0  0  0  0  0  0  0
  142.7346  133.8143  152.6605 H   0  0  0  0  0  0  0  0  0  0  0  0
  143.3354  133.7890  149.1192 H   0  0  0  0  0  0  0  0  0  0  0  0
  144.7417  131.5346  148.5132 H   0  0  0  0  0  0  0  0  0  0  0  0
  146.5327  131.3299  150.6170 H   0  0  0  0  0  0  0  0  0  0  0  0
  147.3679  135.8118  152.2562 H   0  0  0  0  0  0  0  0  0  0  0  0
  1  2  1  0  0  0  0
  1 18  1  0  0  0  0
  1 19  1  0  0  0  0
  1 20  1  0  0  0  0
  2  3  1  0  0  0  0
  2 11  1  0  0  0  0
  2 21  1  0  0  0  0
  3  4  1  0  0  0  0
  3 22  1  0  0  0  0
  3 38  1  0  0  0  0
  4  5  1  0  0  0  0
  4 23  1  0  0  0  0
  4 24  1  0  0  0  0
  5  6  1  0  0  0  0
  5 25  1  0  0  0  0
  5 26  1  0  0  0  0
  6  7  1  0  0  0  0
  6 27  1  0  0  0  0
  6 28  1  0  0  0  0
  7  8  1  0  0  0  0
  7  9  2  0  0  0  0
  7 10  2  0  0  0  0
  8 29  1  0  0  0  0
  8 30  1  0  0  0  0
 11 12  1  0  0  0  0
 11 13  1  0  0  0  0
 11 31  1  0  0  0  0
 12 32  1  0  0  0  0
 12 33  1  0  0  0  0
 12 34  1  0  0  0  0
 13 17  1  0  0  0  0
 13 14  1  0  0  0  0
 14 15  2  0  0  0  0
 14 35  1  0  0  0  0
 15 16  1  0  0  0  0
 15 36  1  0  0  0  0
 16 17  2  0  0  0  0
 16 37  1  0  0  0  0
M  CHG  1   3   1
M  END
> <s_m_source_file>
AV-unprocessed.smi

> <i_m_source_file_index>
658

> <i_lp_mmshare_version>
43012

> <i_f3d_flags>
0

> <s_epik_input>
bjFbY0hdW2NIXVtjSF1uMVtDQEBIXShbQ0gzXSlbQ0BIXShbQ0gzXSlbTkhdW0NIMl1bQ0gyXVtDSDJdUyg9TykoPU8pW05IMl0=

> <s_epik_cmdline>
J2VwaWtfcHl0aG9uJywgJy1waCcsICc3LjAnLCAnLXRuJywgJzgnLCAnLW1hJywgJzIwMCcsICctbWV0YWxfYmluZGluZycsICctaW1hZScsICc8aW5maWxlLm1hZT4nLCAnLW9tYWUnLCAnPG91dGZpbGUubWFlPic=

> <r_lp_tautomer_probability>
1

> <r_epik_Ionization_Penalty>
0.00535781

> <r_epik_Ionization_Penalty_Charging>
0.00511015

> <r_epik_Ionization_Penalty_Neutral>
0.000247661

> <r_epik_State_Penalty>
-0

> <r_epik_Charging_Adjusted_Penalty>
0.00511015

> <i_epik_Tot_Q>
1

> <i_epik_Tot_abs_Q>
1

> <r_epik_Metal_State_Penalty>
0.149106

> <b_epik_Metal_Only>
0

> <s_lp_Force_Field>
OPLS_2005

> <r_lp_Energy>
8.18413

> <b_lp_Chiralities_Consistent>
1

> <s_lp_Variant>
AV-unprocessed.smi:658-1

> <Gold.Version>
5.8.1

> <Gold.Id.Protein>
6NUR|6NUR_protein|mol2

> <Gold.PLP.Fitness>
41.6186

> <Gold.PLP.PLP>
-25.3106

> <Gold.PLP.part.hbond>
-3.0000

> <Gold.PLP.part.metal>
0.0000

> <Gold.PLP.part.buried>
-3.2429

> <Gold.PLP.part.nonpolar>
-20.6843

> <Gold.PLP.part.repulsive>
0.2064

> <Gold.PLP.ligand.clash>
0.0000

> <Gold.PLP.ligand.torsion>
0.9388

> <Gold.PLP.Chemscore.Hbond>
3.9760

> <Gold.PLP.Chemscore.CHOScore>
2.0000

> <Gold.PLP.Chemscore.Metal>
0.0000

> <Gold.Chemscore.Hbonds>
donor molecule, donor type, donor heavy atom, donor atom, acceptor molecule, acceptor atom, score
      L1  H     3    38       P1  7948  2.00
      P1  H  6896  6907       L1    10  0.89
      P1  H 10752 10764       L1     9  1.00
      L1  C    14    35       P1 10186  1.00
      L1  C    16    37       P1 10747  1.00

> <Gold.PLP.Chemscore.Internal.Correction>
0.2578

> <Gold.Rescore>
     Score         DG    S(hbond)    S(metal)    S(lipo)     H(rot)  DE(clash)    DE(int)     intcor
     11.92     -14.29       2.86        0.00      62.10       3.13       0.16       2.21       ----

> <Gold.Chemscore.Fitness>
11.9213

> <Gold.Chemscore.DG>
-14.2897

> <Gold.Chemscore.ZeroCoef>
-5.4800

> <Gold.Chemscore.Hbond>
2.8624

> <Gold.Chemscore.Metal>
0.0000

> <Gold.Chemscore.Lipo>
62.0977

> <Gold.Chemscore.Internal_Hbond>
0.0000

> <Gold.Chemscore.DEClash>
0.1566

> <Gold.Chemscore.DEInternal>
2.2119

> <Gold.Chemscore.Rot>
3.1312

> <Gold.Chemscore.Internal.Correction>
   9.000000E+99

> <Gold.Chemscore.Hbonds>
donor molecule, donor type, donor heavy atom, donor atom, acceptor molecule, acceptor atom, score
      L1  H     3    38       P1  7948  1.00
      P1  H  6896  6907       L1    10  0.82
      P1  H 10752 10764       L1     9  0.92

> <Gold.Chemscore.Hbond.Weighted>
-9.5603

> <Gold.Chemscore.Metal.Weighted>
-0.0000

> <Gold.Chemscore.Lipo.Weighted>
-7.2654

> <Gold.Chemscore.Internal_Hbond.Weighted>
0.0000

> <Gold.Chemscore.DEClash.Weighted>
0.1566

> <Gold.Chemscore.DEInternal.Weighted>
2.2119

> <Gold.Chemscore.Rot.Weighted>
8.0160

> <Gold.Chemscore.Internal.Correction.Weighted>
   9.000000E+99

> <Gold.Protein.RotatedTorsions>
[ 6907 6896 6895 6894 ] final -111.87 input  -60.11 | X-H torsion
[ 7974 7965 7964 7962 ] final  -29.37 input  175.53 | X-H torsion
[ 8008 7997 7996 7995 ] final  -83.34 input   59.86 | X-H torsion
[ 10167 10162 10161 10158 ] final  107.14 input  -65.29 | X-H torsion
[ 10718 10713 10712 10709 ] final  117.33 input   66.30 | X-H torsion
[ 10763 10752 10751 10750 ] final  -46.97 input  -60.55 | X-H torsion
[ 11005 11000 10999 10996 ] final   39.61 input  -57.11 | X-H torsion

> <Gold.Protein.ActiveResidues>
 VAL166  LYS551  ARG553  GLY616  TRP617  ASP618  TYR619  PRO620  LYS621  CYS622 
 ASP623  PHE694  ASN695  SER759  ASP760  ASP761  ALA762  ILE779  LEU786  VAL792 
 PHE793  MET794  SER795  GLU796  ALA797  LYS798  CYS799  TRP800  GLU811  SER814 

> <Gold.Protein.RotatedAtoms>
  150.7719  133.9172  159.3386 H   0  0  0  0  0  0  0  0  0  0  0  0  # atno 6907 bound_to 6896
  151.7056  135.0920  160.0268 H   0  0  0  0  0  0  0  0  0  0  0  0  # atno 6908 bound_to 6896
  152.3741  133.6419  159.6145 H   0  0  0  0  0  0  0  0  0  0  0  0  # atno 6909 bound_to 6896
  146.1221  140.5403  142.8730 H   0  0  0  0  0  0  0  0  0  0  0  0  # atno 7974 bound_to 7965
  154.6180  140.0620  156.9579 H   0  0  0  0  0  0  0  0  0  0  0  0  # atno 8008 bound_to 7997
  155.1863  140.3303  155.4348 H   0  0  0  0  0  0  0  0  0  0  0  0  # atno 8009 bound_to 7997
  156.2415  140.1889  156.6956 H   0  0  0  0  0  0  0  0  0  0  0  0  # atno 8010 bound_to 7997
  139.6952  144.7102  151.1280 H   0  0  0  0  0  0  0  0  0  0  0  0  # atno 10167 bound_to 10162
  157.6103  131.1036  150.7599 H   0  0  0  0  0  0  0  0  0  0  0  0  # atno 10718 bound_to 10713
  154.0538  135.6627  153.4803 H   0  0  0  0  0  0  0  0  0  0  0  0  # atno 10763 bound_to 10752
  153.0453  135.5118  154.7725 H   0  0  0  0  0  0  0  0  0  0  0  0  # atno 10764 bound_to 10752
  154.6740  135.3034  154.9670 H   0  0  0  0  0  0  0  0  0  0  0  0  # atno 10765 bound_to 10752
  140.2011  134.3869  155.8096 H   0  0  0  0  0  0  0  0  0  0  0  0  # atno 11005 bound_to 11000
  144.7607  140.5415  143.6737 LP  0  0  0  0  0  0  0  0  0  0  0  0  # atno 17320 bound_to 7965
  145.5443  139.1475  143.3429 LP  0  0  0  0  0  0  0  0  0  0  0  0  # atno 17321 bound_to 7965
  140.7694  143.5502  150.9213 LP  0  0  0  0  0  0  0  0  0  0  0  0  # atno 17342 bound_to 10162
  139.9182  143.6638  152.3102 LP  0  0  0  0  0  0  0  0  0  0  0  0  # atno 17343 bound_to 10162
  156.7978  130.4911  149.5374 LP  0  0  0  0  0  0  0  0  0  0  0  0  # atno 17370 bound_to 10713
  156.1204  130.6105  151.0185 LP  0  0  0  0  0  0  0  0  0  0  0  0  # atno 17371 bound_to 10713
  141.2227  133.7094  156.8259 LP  0  0  0  0  0  0  0  0  0  0  0  0  # atno 17394 bound_to 11000
  140.2053  134.8867  157.3215 LP  0  0  0  0  0  0  0  0  0  0  0  0  # atno 17395 bound_to 11000

$$$$
