AV-unprocessed.smi:750|AV-procd|sdf|3590|dock5
  -GOLD-   22720 0583D 1   1.00000     0.00000
 Structure written by MMmdl.
 22 23  0  0  0  0  0  0  0  0  2 V2000
  149.8060  140.1422  158.2068 C   0  0  0  0  0  0  0  0  0  0  0  0
  150.8891  140.8509  157.3667 C   0  0  1  0  0  0  0  0  0  0  0  0
  151.3968  142.1392  158.0367 C   0  0  0  0  0  0  0  0  0  0  0  0
  151.9476  142.1467  159.3412 C   0  0  0  0  0  0  0  0  0  0  0  0
  152.3931  143.3620  159.8951 C   0  0  0  0  0  0  0  0  0  0  0  0
  152.2749  144.5336  159.1243 C   0  0  0  0  0  0  0  0  0  0  0  0
  151.7535  144.5502  157.8806 N   0  0  0  0  0  0  0  0  0  0  0  0
  151.3295  143.3796  157.3575 C   0  0  0  0  0  0  0  0  0  0  0  0
  151.9431  139.9037  157.0557 N   0  0  0  0  0  0  0  0  0  0  0  0
  152.0632  139.7146  155.7430 C   0  0  0  0  0  0  0  0  0  0  0  0
  152.9115  138.9592  155.2739 O   0  0  0  0  0  0  0  0  0  0  0  0
  151.1481  140.4501  155.0833 N   0  5  0  0  0  0  0  0  0  0  0  0
  150.3848  141.1542  155.9475 C   0  0  0  0  0  0  0  0  0  0  0  0
  149.4378  141.9089  155.7286 O   0  0  0  0  0  0  0  0  0  0  0  0
  148.9340  140.7762  158.3689 H   0  0  0  0  0  0  0  0  0  0  0  0
  150.1939  139.8593  159.1858 H   0  0  0  0  0  0  0  0  0  0  0  0
  149.4541  139.2315  157.7196 H   0  0  0  0  0  0  0  0  0  0  0  0
  152.0366  141.2427  159.9246 H   0  0  0  0  0  0  0  0  0  0  0  0
  152.8167  143.3942  160.8878 H   0  0  0  0  0  0  0  0  0  0  0  0
  152.6082  145.4826  159.5171 H   0  0  0  0  0  0  0  0  0  0  0  0
  150.9249  143.4403  156.3583 H   0  0  0  0  0  0  0  0  0  0  0  0
  152.5178  139.4601  157.7566 H   0  0  0  0  0  0  0  0  0  0  0  0
  1  2  1  0  0  0  0
  1 15  1  0  0  0  0
  1 16  1  0  0  0  0
  1 17  1  0  0  0  0
  2 13  1  0  0  0  0
  2  3  1  0  0  0  0
  2  9  1  0  0  0  0
  3  8  1  0  0  0  0
  3  4  2  0  0  0  0
  4  5  1  0  0  0  0
  4 18  1  0  0  0  0
  5  6  2  0  0  0  0
  5 19  1  0  0  0  0
  6  7  1  0  0  0  0
  6 20  1  0  0  0  0
  7  8  2  0  0  0  0
  8 21  1  0  0  0  0
  9 10  1  0  0  0  0
  9 22  1  0  0  0  0
 10 11  2  0  0  0  0
 10 12  1  0  0  0  0
 12 13  1  0  0  0  0
 13 14  2  0  0  0  0
M  CHG  1  12  -1
M  END
> <s_m_source_file>
AV-unprocessed.smi

> <i_m_source_file_index>
750

> <i_lp_mmshare_version>
43012

> <i_f3d_flags>
0

> <s_epik_input>
Tz1DMVtOSF1DKD1PKVtOSF1bQ0BAXTEoW0NIM10pYzJbY0hdW2NIXVtjSF1uW2NIXTI=

> <s_epik_cmdline>
J2VwaWtfcHl0aG9uJywgJy1waCcsICc3LjAnLCAnLXRuJywgJzgnLCAnLW1hJywgJzIwMCcsICctbWV0YWxfYmluZGluZycsICctaW1hZScsICc8aW5maWxlLm1hZT4nLCAnLW9tYWUnLCAnPG91dGZpbGUubWFlPic=

> <r_epik_Ionization_Penalty>
1.82311

> <r_epik_Ionization_Penalty_Charging>
1.82122

> <r_epik_Ionization_Penalty_Neutral>
0.00188516

> <r_epik_State_Penalty>
1.93645

> <r_epik_Charging_Adjusted_Penalty>
3.75767

> <i_epik_Tot_Q>
-1

> <i_epik_Tot_abs_Q>
1

> <r_epik_Metal_State_Penalty>
0.533589

> <b_epik_Metal_Only>
0

> <s_lp_Force_Field>
OPLS_2005

> <r_lp_Energy>
8.30846

> <b_lp_Chiralities_Consistent>
1

> <s_lp_Variant>
AV-unprocessed.smi:750-3

> <Gold.Version>
5.8.1

> <Gold.Id.Protein>
6NUR|6NUR_protein|mol2

> <Gold.PLP.Fitness>
37.1148

> <Gold.PLP.PLP>
-28.4942

> <Gold.PLP.part.hbond>
-2.0000

> <Gold.PLP.part.metal>
0.0000

> <Gold.PLP.part.buried>
-3.3432

> <Gold.PLP.part.nonpolar>
-22.9010

> <Gold.PLP.part.repulsive>
0.7958

> <Gold.PLP.ligand.clash>
0.0000

> <Gold.PLP.ligand.torsion>
0.0701

> <Gold.PLP.Chemscore.Hbond>
1.8928

> <Gold.PLP.Chemscore.CHOScore>
1.0000

> <Gold.PLP.Chemscore.Metal>
0.0000

> <Gold.Chemscore.Hbonds>
donor molecule, donor type, donor heavy atom, donor atom, acceptor molecule, acceptor atom, score
      P1  H  7989  7998       L1    12  1.00
      P1  H  7997  8009       L1    11  0.43
      L1  C     8    21       P1  8028  0.92

> <Gold.PLP.Chemscore.Internal.Correction>
0.0826

> <Gold.Rescore>
     Score         DG    S(hbond)    S(metal)    S(lipo)     H(rot)  DE(clash)    DE(int)     intcor
     12.54     -14.01       1.38        0.00      55.34       1.00       0.02       1.45       ----

> <Gold.Chemscore.Fitness>
12.5354

> <Gold.Chemscore.DG>
-14.0053

> <Gold.Chemscore.ZeroCoef>
-5.4800

> <Gold.Chemscore.Hbond>
1.3805

> <Gold.Chemscore.Metal>
0.0000

> <Gold.Chemscore.Lipo>
55.3362

> <Gold.Chemscore.Internal_Hbond>
0.0000

> <Gold.Chemscore.DEClash>
0.0202

> <Gold.Chemscore.DEInternal>
1.4496

> <Gold.Chemscore.Rot>
1.0000

> <Gold.Chemscore.Internal.Correction>
   9.000000E+99

> <Gold.Chemscore.Hbonds>
donor molecule, donor type, donor heavy atom, donor atom, acceptor molecule, acceptor atom, score
      P1  H  7989  7998       L1    12  0.81
      P1  H  7997  8009       L1    11  0.07

> <Gold.Chemscore.Hbond.Weighted>
-4.6109

> <Gold.Chemscore.Metal.Weighted>
-0.0000

> <Gold.Chemscore.Lipo.Weighted>
-6.4743

> <Gold.Chemscore.Internal_Hbond.Weighted>
0.0000

> <Gold.Chemscore.DEClash.Weighted>
0.0202

> <Gold.Chemscore.DEInternal.Weighted>
1.4496

> <Gold.Chemscore.Rot.Weighted>
2.5600

> <Gold.Chemscore.Internal.Correction.Weighted>
   9.000000E+99

> <Gold.Protein.RotatedTorsions>
[ 6907 6896 6895 6894 ] final  -52.64 input  -60.11 | X-H torsion
[ 7974 7965 7964 7962 ] final   52.47 input  175.53 | X-H torsion
[ 8008 7997 7996 7995 ] final -116.34 input   59.86 | X-H torsion
[ 10167 10162 10161 10158 ] final  154.64 input  -65.29 | X-H torsion
[ 10718 10713 10712 10709 ] final   96.90 input   66.30 | X-H torsion
[ 10763 10752 10751 10750 ] final  123.33 input  -60.55 | X-H torsion
[ 11005 11000 10999 10996 ] final -141.61 input  -57.11 | X-H torsion

> <Gold.Protein.ActiveResidues>
 VAL166  LYS551  ARG553  GLY616  TRP617  ASP618  TYR619  PRO620  LYS621  CYS622 
 ASP623  PHE694  ASN695  SER759  ASP760  ASP761  ALA762  ILE779  LEU786  VAL792 
 PHE793  MET794  SER795  GLU796  ALA797  LYS798  CYS799  TRP800  GLU811  SER814 

> <Gold.Protein.RotatedAtoms>
  150.8500  134.7821  159.7000 H   0  0  0  0  0  0  0  0  0  0  0  0  # atno 6907 bound_to 6896
  152.4567  134.5273  159.9810 H   0  0  0  0  0  0  0  0  0  0  0  0  # atno 6908 bound_to 6896
  151.5396  133.3397  159.2968 H   0  0  0  0  0  0  0  0  0  0  0  0  # atno 6909 bound_to 6896
  145.9810  139.4242  143.0132 H   0  0  0  0  0  0  0  0  0  0  0  0  # atno 7974 bound_to 7965
  155.0663  140.0393  157.2594 H   0  0  0  0  0  0  0  0  0  0  0  0  # atno 8008 bound_to 7997
  154.7018  140.2675  155.6688 H   0  0  0  0  0  0  0  0  0  0  0  0  # atno 8009 bound_to 7997
  156.2763  140.2739  156.1631 H   0  0  0  0  0  0  0  0  0  0  0  0  # atno 8010 bound_to 7997
  139.4823  144.5169  151.7937 H   0  0  0  0  0  0  0  0  0  0  0  0  # atno 10167 bound_to 10162
  157.6920  131.0592  150.4562 H   0  0  0  0  0  0  0  0  0  0  0  0  # atno 10718 bound_to 10713
  153.6438  135.3374  155.3079 H   0  0  0  0  0  0  0  0  0  0  0  0  # atno 10763 bound_to 10752
  154.8553  135.4325  154.1976 H   0  0  0  0  0  0  0  0  0  0  0  0  # atno 10764 bound_to 10752
  153.2902  135.7016  153.7375 H   0  0  0  0  0  0  0  0  0  0  0  0  # atno 10765 bound_to 10752
  140.8307  134.2520  157.4858 H   0  0  0  0  0  0  0  0  0  0  0  0  # atno 11005 bound_to 11000
  145.7769  140.9873  143.1119 LP  0  0  0  0  0  0  0  0  0  0  0  0  # atno 17320 bound_to 7965
  144.6861  139.9517  143.7478 LP  0  0  0  0  0  0  0  0  0  0  0  0  # atno 17321 bound_to 7965
  140.4679  144.1629  150.5914 LP  0  0  0  0  0  0  0  0  0  0  0  0  # atno 17342 bound_to 10162
  140.4414  143.2525  151.9467 LP  0  0  0  0  0  0  0  0  0  0  0  0  # atno 17343 bound_to 10162
  156.4909  130.4095  149.6407 LP  0  0  0  0  0  0  0  0  0  0  0  0  # atno 17370 bound_to 10713
  156.3417  130.7386  151.2332 LP  0  0  0  0  0  0  0  0  0  0  0  0  # atno 17371 bound_to 10713
  139.8705  134.9584  156.4300 LP  0  0  0  0  0  0  0  0  0  0  0  0  # atno 17394 bound_to 11000
  140.9001  133.7786  155.9670 LP  0  0  0  0  0  0  0  0  0  0  0  0  # atno 17395 bound_to 11000

$$$$
