AV-unprocessed.smi:1898|AV-procd|sdf|7701|dock7
  -GOLD-   22720 9443D 1   1.00000     0.00000
 Structure written by MMmdl.
 47 48  0  0  0  0  0  0  0  0  2 V2000
  146.3975  133.9058  151.9564 C   0  0  0  0  0  0  0  0  0  0  0  0
  146.5213  135.3542  151.8897 N   0  0  0  0  0  0  0  0  0  0  0  0
  145.5435  136.2095  152.2193 C   0  0  0  0  0  0  0  0  0  0  0  0
  144.4324  135.8465  152.6071 O   0  0  0  0  0  0  0  0  0  0  0  0
  145.8686  137.6997  152.0707 C   0  0  0  0  0  0  0  0  0  0  0  0
  146.9879  138.1389  152.9430 N   0  3  2  0  0  0  0  0  0  0  0  0
  146.8825  137.5982  154.3220 C   0  0  0  0  0  0  0  0  0  0  0  0
  148.1359  137.9384  155.1453 C   0  0  0  0  0  0  0  0  0  0  0  0
  148.3835  139.4549  155.1798 C   0  0  1  0  0  0  0  0  0  0  0  0
  149.6279  139.7394  155.8879 N   0  0  0  0  0  0  0  0  0  0  0  0
  149.8060  140.7368  156.7658 C   0  0  0  0  0  0  0  0  0  0  0  0
  148.9174  141.5281  157.0785 O   0  0  0  0  0  0  0  0  0  0  0  0
  151.0614  140.7375  157.2457 N   0  0  0  0  0  0  0  0  0  0  0  0
  151.6608  141.5995  158.2071 C   0  0  0  0  0  0  0  0  0  0  0  0
  151.2261  142.9215  158.4728 C   0  0  0  0  0  0  0  0  0  0  0  0
  151.9061  143.6828  159.4414 C   0  0  0  0  0  0  0  0  0  0  0  0
  153.0006  143.1003  160.1054 C   0  0  0  0  0  0  0  0  0  0  0  0
  153.4339  141.8480  159.8555 N   0  0  0  0  0  0  0  0  0  0  0  0
  152.7798  141.1117  158.9225 C   0  0  0  0  0  0  0  0  0  0  0  0
  153.2289  139.8303  158.6644 O   0  0  0  0  0  0  0  0  0  0  0  0
  154.0471  139.1876  159.6358 C   0  0  0  0  0  0  0  0  0  0  0  0
  148.4390  140.0034  153.7426 C   0  0  0  0  0  0  0  0  0  0  0  0
  147.1809  139.6138  152.9495 C   0  0  0  0  0  0  0  0  0  0  0  0
  147.3266  133.4380  151.6306 H   0  0  0  0  0  0  0  0  0  0  0  0
  145.5933  133.5534  151.3092 H   0  0  0  0  0  0  0  0  0  0  0  0
  146.1916  133.5803  152.9769 H   0  0  0  0  0  0  0  0  0  0  0  0
  147.4047  135.7270  151.5721 H   0  0  0  0  0  0  0  0  0  0  0  0
  146.0863  137.9424  151.0292 H   0  0  0  0  0  0  0  0  0  0  0  0
  144.9608  138.2432  152.3359 H   0  0  0  0  0  0  0  0  0  0  0  0
  145.9911  138.0008  154.8058 H   0  0  0  0  0  0  0  0  0  0  0  0
  146.7634  136.5146  154.2869 H   0  0  0  0  0  0  0  0  0  0  0  0
  148.0254  137.5539  156.1600 H   0  0  0  0  0  0  0  0  0  0  0  0
  148.9995  137.4296  154.7139 H   0  0  0  0  0  0  0  0  0  0  0  0
  147.5502  139.9232  155.7076 H   0  0  0  0  0  0  0  0  0  0  0  0
  150.4123  139.1337  155.6943 H   0  0  0  0  0  0  0  0  0  0  0  0
  151.6562  139.9889  156.9210 H   0  0  0  0  0  0  0  0  0  0  0  0
  150.3980  143.3753  157.9528 H   0  0  0  0  0  0  0  0  0  0  0  0
  151.5968  144.6927  159.6671 H   0  0  0  0  0  0  0  0  0  0  0  0
  153.5457  143.6562  160.8537 H   0  0  0  0  0  0  0  0  0  0  0  0
  154.3171  138.1942  159.2782 H   0  0  0  0  0  0  0  0  0  0  0  0
  153.5209  139.0664  160.5837 H   0  0  0  0  0  0  0  0  0  0  0  0
  154.9723  139.7397  159.8073 H   0  0  0  0  0  0  0  0  0  0  0  0
  148.5406  141.0893  153.7577 H   0  0  0  0  0  0  0  0  0  0  0  0
  149.3224  139.6175  153.2312 H   0  0  0  0  0  0  0  0  0  0  0  0
  147.2724  139.9863  151.9289 H   0  0  0  0  0  0  0  0  0  0  0  0
  146.3025  140.0954  153.3821 H   0  0  0  0  0  0  0  0  0  0  0  0
  147.8238  137.7351  152.5441 H   0  0  0  0  0  0  0  0  0  0  0  0
  1  2  1  0  0  0  0
  1 24  1  0  0  0  0
  1 25  1  0  0  0  0
  1 26  1  0  0  0  0
  2  3  1  0  0  0  0
  2 27  1  0  0  0  0
  3  4  2  0  0  0  0
  3  5  1  0  0  0  0
  5  6  1  0  0  0  0
  5 28  1  0  0  0  0
  5 29  1  0  0  0  0
  6 23  1  0  0  0  0
  6  7  1  0  0  0  0
  6 47  1  0  0  0  0
  7  8  1  0  0  0  0
  7 30  1  0  0  0  0
  7 31  1  0  0  0  0
  8  9  1  0  0  0  0
  8 32  1  0  0  0  0
  8 33  1  0  0  0  0
  9 10  1  0  0  0  0
  9 22  1  0  0  0  0
  9 34  1  0  0  0  0
 10 11  1  0  0  0  0
 10 35  1  0  0  0  0
 11 12  2  0  0  0  0
 11 13  1  0  0  0  0
 13 14  1  0  0  0  0
 13 36  1  0  0  0  0
 14 19  1  0  0  0  0
 14 15  2  0  0  0  0
 15 16  1  0  0  0  0
 15 37  1  0  0  0  0
 16 17  2  0  0  0  0
 16 38  1  0  0  0  0
 17 18  1  0  0  0  0
 17 39  1  0  0  0  0
 18 19  2  0  0  0  0
 19 20  1  0  0  0  0
 20 21  1  0  0  0  0
 21 40  1  0  0  0  0
 21 41  1  0  0  0  0
 21 42  1  0  0  0  0
 22 23  1  0  0  0  0
 22 43  1  0  0  0  0
 22 44  1  0  0  0  0
 23 45  1  0  0  0  0
 23 46  1  0  0  0  0
M  CHG  1   6   1
M  END
> <s_m_source_file>
AV-unprocessed.smi

> <i_m_source_file_index>
1898

> <i_lp_mmshare_version>
43012

> <i_f3d_flags>
0

> <s_epik_input>
W0NIM11bTkhdQyg9TylbQ0gyXU4xW0NIMl1bQ0gyXVtDSF0oW0NIMl1bQ0gyXTEpW05IXUMoPU8pW05IXWMyW2NIXVtjSF1bY0hdbmMyT1tDSDNd

> <s_epik_cmdline>
J2VwaWtfcHl0aG9uJywgJy1waCcsICc3LjAnLCAnLXRuJywgJzgnLCAnLW1hJywgJzIwMCcsICctbWV0YWxfYmluZGluZycsICctaW1hZScsICc8aW5maWxlLm1hZT4nLCAnLW9tYWUnLCAnPG91dGZpbGUubWFlPic=

> <r_lp_tautomer_probability>
1

> <r_epik_Ionization_Penalty>
0.838943

> <r_epik_Ionization_Penalty_Charging>
0.838844

> <r_epik_Ionization_Penalty_Neutral>
9.87395e-05

> <r_epik_State_Penalty>
0.8734

> <r_epik_Charging_Adjusted_Penalty>
1.71224

> <i_epik_Tot_Q>
1

> <i_epik_Tot_abs_Q>
1

> <r_epik_Metal_State_Penalty>
0.877926

> <b_epik_Metal_Only>
0

> <s_lp_Force_Field>
OPLS_2005

> <r_lp_Energy>
17.1521

> <b_lp_Chiralities_Consistent>
1

> <s_lp_Variant>
AV-unprocessed.smi:1898-2

> <Gold.Version>
5.8.1

> <Gold.Id.Protein>
6NUR|6NUR_protein|mol2

> <Gold.PLP.Fitness>
40.3066

> <Gold.PLP.PLP>
-29.7739

> <Gold.PLP.part.hbond>
-2.8845

> <Gold.PLP.part.metal>
0.0000

> <Gold.PLP.part.buried>
-2.5293

> <Gold.PLP.part.nonpolar>
-25.1784

> <Gold.PLP.part.repulsive>
0.3741

> <Gold.PLP.ligand.clash>
0.0000

> <Gold.PLP.ligand.torsion>
0.7488

> <Gold.PLP.Chemscore.Hbond>
4.0000

> <Gold.PLP.Chemscore.CHOScore>
0.0000

> <Gold.PLP.Chemscore.Metal>
0.0000

> <Gold.Chemscore.Hbonds>
donor molecule, donor type, donor heavy atom, donor atom, acceptor molecule, acceptor atom, score
      L1  H     2    27       P1  7948  1.00
      L1  H     6    47       P1  7948  2.00
      P1  H  7997  8008       L1    20  0.71

> <Gold.PLP.Chemscore.Internal.Correction>
0.0303

> <Gold.Rescore>
     Score         DG    S(hbond)    S(metal)    S(lipo)     H(rot)  DE(clash)    DE(int)     intcor
     14.64     -16.61       1.99        0.00      81.97       2.00       1.18       0.79       ----

> <Gold.Chemscore.Fitness>
14.6374

> <Gold.Chemscore.DG>
-16.6065

> <Gold.Chemscore.ZeroCoef>
-5.4800

> <Gold.Chemscore.Hbond>
1.9901

> <Gold.Chemscore.Metal>
0.0000

> <Gold.Chemscore.Lipo>
81.9653

> <Gold.Chemscore.Internal_Hbond>
0.0000

> <Gold.Chemscore.DEClash>
1.1805

> <Gold.Chemscore.DEInternal>
0.7886

> <Gold.Chemscore.Rot>
1.9963

> <Gold.Chemscore.Internal.Correction>
   9.000000E+99

> <Gold.Chemscore.Hbonds>
donor molecule, donor type, donor heavy atom, donor atom, acceptor molecule, acceptor atom, score
      L1  H     2    27       P1  7948  0.95
      L1  H     6    47       P1  7948  0.95
      P1  H  7997  8008       L1    20  0.12

> <Gold.Chemscore.Hbond.Weighted>
-6.6470

> <Gold.Chemscore.Metal.Weighted>
-0.0000

> <Gold.Chemscore.Lipo.Weighted>
-9.5899

> <Gold.Chemscore.Internal_Hbond.Weighted>
0.0000

> <Gold.Chemscore.DEClash.Weighted>
1.1805

> <Gold.Chemscore.DEInternal.Weighted>
0.7886

> <Gold.Chemscore.Rot.Weighted>
5.1105

> <Gold.Chemscore.Internal.Correction.Weighted>
   9.000000E+99

> <Gold.Protein.RotatedTorsions>
[ 6907 6896 6895 6894 ] final  151.98 input  -60.11 | X-H torsion
[ 7974 7965 7964 7962 ] final -100.23 input  175.53 | X-H torsion
[ 8008 7997 7996 7995 ] final  -83.61 input   59.86 | X-H torsion
[ 10167 10162 10161 10158 ] final  124.57 input  -65.29 | X-H torsion
[ 10718 10713 10712 10709 ] final  162.42 input   66.30 | X-H torsion
[ 10763 10752 10751 10750 ] final   44.91 input  -60.55 | X-H torsion
[ 11005 11000 10999 10996 ] final -104.45 input  -57.11 | X-H torsion

> <Gold.Protein.ActiveResidues>
 VAL166  LYS551  ARG553  GLY616  TRP617  ASP618  TYR619  PRO620  LYS621  CYS622 
 ASP623  PHE694  ASN695  SER759  ASP760  ASP761  ALA762  ILE779  LEU786  VAL792 
 PHE793  MET794  SER795  GLU796  ALA797  LYS798  CYS799  TRP800  GLU811  SER814 

> <Gold.Protein.RotatedAtoms>
  152.0931  133.4211  159.4552 H   0  0  0  0  0  0  0  0  0  0  0  0  # atno 6907 bound_to 6896
  150.6863  134.2848  159.4651 H   0  0  0  0  0  0  0  0  0  0  0  0  # atno 6908 bound_to 6896
  152.0701  134.9538  160.0625 H   0  0  0  0  0  0  0  0  0  0  0  0  # atno 6909 bound_to 6896
  145.2973  140.9368  143.2844 H   0  0  0  0  0  0  0  0  0  0  0  0  # atno 7974 bound_to 7965
  154.6210  140.0616  156.9614 H   0  0  0  0  0  0  0  0  0  0  0  0  # atno 8008 bound_to 7997
  155.1818  140.3300  155.4355 H   0  0  0  0  0  0  0  0  0  0  0  0  # atno 8009 bound_to 7997
  156.2431  140.1896  156.6914 H   0  0  0  0  0  0  0  0  0  0  0  0  # atno 8010 bound_to 7997
  139.5734  144.6951  151.3717 H   0  0  0  0  0  0  0  0  0  0  0  0  # atno 10167 bound_to 10162
  157.1228  131.0496  151.2407 H   0  0  0  0  0  0  0  0  0  0  0  0  # atno 10718 bound_to 10713
  152.9833  135.6056  154.3351 H   0  0  0  0  0  0  0  0  0  0  0  0  # atno 10763 bound_to 10752
  154.3052  135.2772  155.2594 H   0  0  0  0  0  0  0  0  0  0  0  0  # atno 10764 bound_to 10752
  154.4828  135.5912  153.6458 H   0  0  0  0  0  0  0  0  0  0  0  0  # atno 10765 bound_to 10752
  141.1100  133.8724  157.1612 H   0  0  0  0  0  0  0  0  0  0  0  0  # atno 11005 bound_to 11000
  144.9123  139.4513  143.6581 LP  0  0  0  0  0  0  0  0  0  0  0  0  # atno 17320 bound_to 7965
  146.3164  139.7938  142.8980 LP  0  0  0  0  0  0  0  0  0  0  0  0  # atno 17321 bound_to 7965
  140.7018  143.7613  150.7415 LP  0  0  0  0  0  0  0  0  0  0  0  0  # atno 17342 bound_to 10162
  140.1126  143.4685  152.2361 LP  0  0  0  0  0  0  0  0  0  0  0  0  # atno 17343 bound_to 10162
  157.4461  130.7572  149.7111 LP  0  0  0  0  0  0  0  0  0  0  0  0  # atno 17370 bound_to 10713
  155.9825  130.4009  150.3415 LP  0  0  0  0  0  0  0  0  0  0  0  0  # atno 17371 bound_to 10713
  139.9989  135.0036  157.0145 LP  0  0  0  0  0  0  0  0  0  0  0  0  # atno 17394 bound_to 11000
  140.4801  134.1298  155.7215 LP  0  0  0  0  0  0  0  0  0  0  0  0  # atno 17395 bound_to 11000

$$$$
