AV-unprocessed.smi:1066|AV-procd|sdf|4671|dock3
  -GOLD-   22720 3183D 1   1.00000     0.00000
 Structure written by MMmdl.
 38 40  0  0  0  0  0  0  0  0  2 V2000
  149.2515  135.1877  157.6588 C   0  0  0  0  0  0  0  0  0  0  0  0
  149.5790  133.8547  157.0499 C   0  0  0  0  0  0  0  0  0  0  0  0
  149.9513  132.8523  157.8355 N   0  0  0  0  0  0  0  0  0  0  0  0
  150.1872  131.7584  156.9947 O   0  0  0  0  0  0  0  0  0  0  0  0
  149.9370  132.1697  155.7308 C   0  0  0  0  0  0  0  0  0  0  0  0
  150.1179  131.1305  154.3729 Cl  0  0  0  0  0  0  0  0  0  0  0  0
  149.5490  133.4777  155.6753 C   0  0  0  0  0  0  0  0  0  0  0  0
  149.1846  134.3227  154.4813 C   0  0  0  0  0  0  0  0  0  0  0  0
  147.9206  133.7656  153.8277 C   0  0  0  0  0  0  0  0  0  0  0  0
  147.4150  132.7254  154.2480 O   0  0  0  0  0  0  0  0  0  0  0  0
  147.4143  134.4731  152.8067 N   0  0  0  0  0  0  0  0  0  0  0  0
  146.1966  134.1352  152.0802 C   0  0  1  0  0  0  0  0  0  0  0  0
  145.3275  135.3321  151.7060 C   0  0  0  0  0  0  0  0  0  0  0  0
  144.4766  134.7797  150.5572 C   0  0  0  0  0  0  0  0  0  0  0  0
  145.2781  133.7130  149.9066 N   0  3  2  0  0  0  0  0  0  0  0  0
  144.5221  132.4626  149.6752 C   0  0  0  0  0  0  0  0  0  0  0  0
  143.4299  132.2213  150.6897 C   0  0  0  0  0  0  0  0  0  0  0  0
  144.7175  131.4291  150.7586 C   0  0  0  0  0  0  0  0  0  0  0  0
  146.5031  133.5228  150.7142 C   0  0  0  0  0  0  0  0  0  0  0  0
  149.5529  136.0046  157.0027 H   0  0  0  0  0  0  0  0  0  0  0  0
  149.7603  135.3288  158.6131 H   0  0  0  0  0  0  0  0  0  0  0  0
  148.1800  135.2821  157.8352 H   0  0  0  0  0  0  0  0  0  0  0  0
  149.0158  135.3632  154.7618 H   0  0  0  0  0  0  0  0  0  0  0  0
  149.9897  134.3367  153.7455 H   0  0  0  0  0  0  0  0  0  0  0  0
  147.8989  135.3146  152.5287 H   0  0  0  0  0  0  0  0  0  0  0  0
  145.6069  133.4247  152.6635 H   0  0  0  0  0  0  0  0  0  0  0  0
  144.7255  135.7001  152.5375 H   0  0  0  0  0  0  0  0  0  0  0  0
  145.9487  136.1549  151.3480 H   0  0  0  0  0  0  0  0  0  0  0  0
  143.5517  134.3631  150.9598 H   0  0  0  0  0  0  0  0  0  0  0  0
  144.2021  135.5550  149.8416 H   0  0  0  0  0  0  0  0  0  0  0  0
  144.3905  132.1594  148.6376 H   0  0  0  0  0  0  0  0  0  0  0  0
  143.2621  132.9764  151.4559 H   0  0  0  0  0  0  0  0  0  0  0  0
  142.5388  131.6951  150.3531 H   0  0  0  0  0  0  0  0  0  0  0  0
  144.6737  130.3815  150.4672 H   0  0  0  0  0  0  0  0  0  0  0  0
  145.4055  131.6572  151.5710 H   0  0  0  0  0  0  0  0  0  0  0  0
  147.3123  134.0684  150.2259 H   0  0  0  0  0  0  0  0  0  0  0  0
  146.8080  132.4775  150.7843 H   0  0  0  0  0  0  0  0  0  0  0  0
  145.5713  134.0548  149.0022 H   0  0  0  0  0  0  0  0  0  0  0  0
  1  2  1  0  0  0  0
  1 20  1  0  0  0  0
  1 21  1  0  0  0  0
  1 22  1  0  0  0  0
  2  7  1  0  0  0  0
  2  3  2  0  0  0  0
  3  4  1  0  0  0  0
  4  5  1  0  0  0  0
  5  6  1  0  0  0  0
  5  7  2  0  0  0  0
  7  8  1  0  0  0  0
  8  9  1  0  0  0  0
  8 23  1  0  0  0  0
  8 24  1  0  0  0  0
  9 10  2  0  0  0  0
  9 11  1  0  0  0  0
 11 12  1  0  0  0  0
 11 25  1  0  0  0  0
 12 19  1  0  0  0  0
 12 13  1  0  0  0  0
 12 26  1  0  0  0  0
 13 14  1  0  0  0  0
 13 27  1  0  0  0  0
 13 28  1  0  0  0  0
 14 15  1  0  0  0  0
 14 29  1  0  0  0  0
 14 30  1  0  0  0  0
 15 16  1  0  0  0  0
 15 19  1  0  0  0  0
 15 38  1  0  0  0  0
 16 18  1  0  0  0  0
 16 17  1  0  0  0  0
 16 31  1  0  0  0  0
 17 18  1  0  0  0  0
 17 32  1  0  0  0  0
 17 33  1  0  0  0  0
 18 34  1  0  0  0  0
 18 35  1  0  0  0  0
 19 36  1  0  0  0  0
 19 37  1  0  0  0  0
M  CHG  1  15   1
M  END
> <s_m_source_file>
AV-unprocessed.smi

> <i_m_source_file_index>
1066

> <i_lp_mmshare_version>
43012

> <i_f3d_flags>
0

> <s_epik_input>
W0NIM11jMW5vYyhDbCljMVtDSDJdQyg9TylbTkhdW0NAQEhdMltDSDJdW0NIMl1OKFtDSDJdMilbQ0hdM1tDSDJdW0NIMl0z

> <s_epik_cmdline>
J2VwaWtfcHl0aG9uJywgJy1waCcsICc3LjAnLCAnLXRuJywgJzgnLCAnLW1hJywgJzIwMCcsICctbWV0YWxfYmluZGluZycsICctaW1hZScsICc8aW5maWxlLm1hZT4nLCAnLW9tYWUnLCAnPG91dGZpbGUubWFlPic=

> <r_epik_Ionization_Penalty>
0.00108138

> <r_epik_Ionization_Penalty_Charging>
0.00108128

> <r_epik_Ionization_Penalty_Neutral>
9.66632e-08

> <r_epik_State_Penalty>
0.000708577

> <r_epik_Charging_Adjusted_Penalty>
0.00178986

> <i_epik_Tot_Q>
1

> <i_epik_Tot_abs_Q>
1

> <r_epik_Metal_State_Penalty>
-0

> <b_epik_Metal_Only>
0

> <s_lp_Force_Field>
OPLS_2005

> <r_lp_Energy>
31.8821

> <b_lp_Chiralities_Consistent>
1

> <s_lp_Variant>
AV-unprocessed.smi:1066-4

> <Gold.Version>
5.8.1

> <Gold.Id.Protein>
6NUR|6NUR_protein|mol2

> <Gold.PLP.Fitness>
40.4157

> <Gold.PLP.PLP>
-32.4914

> <Gold.PLP.part.hbond>
-2.8682

> <Gold.PLP.part.metal>
0.0000

> <Gold.PLP.part.buried>
-3.9619

> <Gold.PLP.part.nonpolar>
-25.3946

> <Gold.PLP.part.repulsive>
0.1474

> <Gold.PLP.ligand.clash>
0.0000

> <Gold.PLP.ligand.torsion>
1.1657

> <Gold.PLP.Chemscore.Hbond>
2.9913

> <Gold.PLP.Chemscore.CHOScore>
0.0000

> <Gold.PLP.Chemscore.Metal>
0.0000

> <Gold.Chemscore.Hbonds>
donor molecule, donor type, donor heavy atom, donor atom, acceptor molecule, acceptor atom, score
      L1  H    11    25       P1  7948  0.98
      L1  H    15    38       P1  7921  1.00
      P1  H  6896  6909       L1     3  1.00

> <Gold.PLP.Chemscore.Internal.Correction>
1.2820

> <Gold.Rescore>
     Score         DG    S(hbond)    S(metal)    S(lipo)     H(rot)  DE(clash)    DE(int)     intcor
     18.15     -20.59       2.91        0.00      80.56       1.57       0.34       2.10       ----

> <Gold.Chemscore.Fitness>
18.1524

> <Gold.Chemscore.DG>
-20.5894

> <Gold.Chemscore.ZeroCoef>
-5.4800

> <Gold.Chemscore.Hbond>
2.9060

> <Gold.Chemscore.Metal>
0.0000

> <Gold.Chemscore.Lipo>
80.5598

> <Gold.Chemscore.Internal_Hbond>
0.0000

> <Gold.Chemscore.DEClash>
0.3367

> <Gold.Chemscore.DEInternal>
2.1004

> <Gold.Chemscore.Rot>
1.5711

> <Gold.Chemscore.Internal.Correction>
   9.000000E+99

> <Gold.Chemscore.Hbonds>
donor molecule, donor type, donor heavy atom, donor atom, acceptor molecule, acceptor atom, score
      L1  H    11    25       P1  7948  0.91
      L1  H    15    38       P1  7921  0.70
      P1  H  6896  6909       L1     3  0.35

> <Gold.Chemscore.Hbond.Weighted>
-9.7060

> <Gold.Chemscore.Metal.Weighted>
-0.0000

> <Gold.Chemscore.Lipo.Weighted>
-9.4255

> <Gold.Chemscore.Internal_Hbond.Weighted>
0.0000

> <Gold.Chemscore.DEClash.Weighted>
0.3367

> <Gold.Chemscore.DEInternal.Weighted>
2.1004

> <Gold.Chemscore.Rot.Weighted>
4.0221

> <Gold.Chemscore.Internal.Correction.Weighted>
   9.000000E+99

> <Gold.Protein.RotatedTorsions>
[ 6907 6896 6895 6894 ] final   -1.47 input  -60.11 | X-H torsion
[ 7974 7965 7964 7962 ] final  -17.67 input  175.53 | X-H torsion
[ 8008 7997 7996 7995 ] final -140.69 input   59.86 | X-H torsion
[ 10167 10162 10161 10158 ] final  -76.17 input  -65.29 | X-H torsion
[ 10718 10713 10712 10709 ] final   86.87 input   66.30 | X-H torsion
[ 10763 10752 10751 10750 ] final  -51.91 input  -60.55 | X-H torsion
[ 11005 11000 10999 10996 ] final -136.29 input  -57.11 | X-H torsion

> <Gold.Protein.ActiveResidues>
 VAL166  LYS551  ARG553  GLY616  TRP617  ASP618  TYR619  PRO620  LYS621  CYS622 
 ASP623  PHE694  ASN695  SER759  ASP760  ASP761  ALA762  ILE779  LEU786  VAL792 
 PHE793  MET794  SER795  GLU796  ALA797  LYS798  CYS799  TRP800  GLU811  SER814 

> <Gold.Protein.RotatedAtoms>
  151.5456  135.1068  159.9936 H   0  0  0  0  0  0  0  0  0  0  0  0  # atno 6907 bound_to 6896
  152.4515  133.7635  159.6770 H   0  0  0  0  0  0  0  0  0  0  0  0  # atno 6908 bound_to 6896
  150.8445  133.7816  159.3072 H   0  0  0  0  0  0  0  0  0  0  0  0  # atno 6909 bound_to 6896
  146.1930  140.3812  142.8451 H   0  0  0  0  0  0  0  0  0  0  0  0  # atno 7974 bound_to 7965
  155.4655  140.0549  157.2986 H   0  0  0  0  0  0  0  0  0  0  0  0  # atno 8008 bound_to 7997
  154.4720  140.2044  155.9926 H   0  0  0  0  0  0  0  0  0  0  0  0  # atno 8009 bound_to 7997
  156.1071  140.3210  155.8025 H   0  0  0  0  0  0  0  0  0  0  0  0  # atno 8010 bound_to 7997
  140.4880  143.2387  151.7953 H   0  0  0  0  0  0  0  0  0  0  0  0  # atno 10167 bound_to 10162
  157.6934  131.0233  150.3037 H   0  0  0  0  0  0  0  0  0  0  0  0  # atno 10718 bound_to 10713
  154.1341  135.6515  153.4928 H   0  0  0  0  0  0  0  0  0  0  0  0  # atno 10763 bound_to 10752
  153.0186  135.5300  154.6971 H   0  0  0  0  0  0  0  0  0  0  0  0  # atno 10764 bound_to 10752
  154.6214  135.2965  155.0292 H   0  0  0  0  0  0  0  0  0  0  0  0  # atno 10765 bound_to 10752
  140.8819  134.1921  157.4585 H   0  0  0  0  0  0  0  0  0  0  0  0  # atno 11005 bound_to 11000
  144.8524  140.7020  143.6160 LP  0  0  0  0  0  0  0  0  0  0  0  0  # atno 17320 bound_to 7965
  145.3733  139.1653  143.4320 LP  0  0  0  0  0  0  0  0  0  0  0  0  # atno 17321 bound_to 7965
  139.4845  144.4687  151.9452 LP  0  0  0  0  0  0  0  0  0  0  0  0  # atno 17342 bound_to 10162
  140.3773  144.2780  150.5912 LP  0  0  0  0  0  0  0  0  0  0  0  0  # atno 17343 bound_to 10162
  156.3549  130.3837  149.7298 LP  0  0  0  0  0  0  0  0  0  0  0  0  # atno 17370 bound_to 10713
  156.4764  130.8020  151.3036 LP  0  0  0  0  0  0  0  0  0  0  0  0  # atno 17371 bound_to 10713
  139.8720  134.9821  156.5142 LP  0  0  0  0  0  0  0  0  0  0  0  0  # atno 17394 bound_to 11000
  140.8451  133.8175  155.9113 LP  0  0  0  0  0  0  0  0  0  0  0  0  # atno 17395 bound_to 11000

$$$$
