AV-unprocessed.smi:2746|AV-procd|sdf|10575|dock6
  -GOLD-   2272015 23D 1   1.00000     0.00000
 Structure written by MMmdl.
 38 39  0  0  0  0  0  0  0  0  3 V2000
  146.9792  141.9719  153.7441 C   0  0  0  0  0  0  0  0  0  0  0  0
  147.7923  141.2320  154.5199 C   0  0  0  0  0  0  0  0  0  0  0  0
  149.3110  141.1446  154.4317 C   0  0  2  0  0  0  0  0  0  0  0  0
  149.7527  139.6756  154.3631 C   0  0  0  0  0  0  0  0  0  0  0  0
  150.0516  141.7990  155.5147 N   0  5  0  0  0  0  0  0  0  0  0  0
  150.0229  141.4108  156.8203 C   0  0  0  0  0  0  0  0  0  0  0  0
  149.4102  140.4793  157.3542 O   0  0  0  0  0  0  0  0  0  0  0  0
  150.8208  142.3277  157.7068 C   0  0  0  0  0  0  0  0  0  0  0  0
  151.4693  141.8876  158.8870 C   0  0  0  0  0  0  0  0  0  0  0  0
  152.1837  142.8035  159.6965 C   0  0  0  0  0  0  0  0  0  0  0  0
  152.8311  142.3520  160.8661 N   0  0  0  0  0  0  0  0  0  0  0  0
  152.9112  143.3154  161.9615 C   0  0  0  0  0  0  0  0  0  0  0  0
  153.3201  142.6093  163.2660 C   0  0  0  0  0  0  0  0  0  0  0  0
  154.5325  141.8898  163.0655 O   0  0  0  0  0  0  0  0  0  0  0  0
  154.3913  140.8802  162.0716 C   0  0  0  0  0  0  0  0  0  0  0  0
  154.0282  141.5286  160.7249 C   0  0  0  0  0  0  0  0  0  0  0  0
  152.2209  144.1606  159.2859 C   0  0  0  0  0  0  0  0  0  0  0  0
  151.5463  144.5535  158.1138 C   0  0  0  0  0  0  0  0  0  0  0  0
  150.8775  143.6385  157.3833 N   0  3  0  0  0  0  0  0  0  0  0  0
  147.3466  142.6042  152.9478 H   0  0  0  0  0  0  0  0  0  0  0  0
  145.9113  141.9520  153.9023 H   0  0  0  0  0  0  0  0  0  0  0  0
  147.3422  140.6275  155.2938 H   0  0  0  0  0  0  0  0  0  0  0  0
  149.5545  141.5870  153.4646 H   0  0  0  0  0  0  0  0  0  0  0  0
  149.2678  139.1578  153.5349 H   0  0  0  0  0  0  0  0  0  0  0  0
  149.5032  139.1404  155.2802 H   0  0  0  0  0  0  0  0  0  0  0  0
  150.8296  139.5926  154.2115 H   0  0  0  0  0  0  0  0  0  0  0  0
  151.4278  140.8433  159.1608 H   0  0  0  0  0  0  0  0  0  0  0  0
  153.6481  144.0777  161.7052 H   0  0  0  0  0  0  0  0  0  0  0  0
  151.9648  143.8313  162.1182 H   0  0  0  0  0  0  0  0  0  0  0  0
  153.4698  143.3429  164.0583 H   0  0  0  0  0  0  0  0  0  0  0  0
  152.5341  141.9320  163.6042 H   0  0  0  0  0  0  0  0  0  0  0  0
  155.3300  140.3332  161.9844 H   0  0  0  0  0  0  0  0  0  0  0  0
  153.6297  140.1596  162.3744 H   0  0  0  0  0  0  0  0  0  0  0  0
  153.8636  140.7484  159.9807 H   0  0  0  0  0  0  0  0  0  0  0  0
  154.8558  142.1481  160.3766 H   0  0  0  0  0  0  0  0  0  0  0  0
  152.7426  144.9129  159.8577 H   0  0  0  0  0  0  0  0  0  0  0  0
  151.5194  145.5672  157.7424 H   0  0  0  0  0  0  0  0  0  0  0  0
  150.3914  143.9428  156.5393 H   0  0  0  0  0  0  0  0  0  0  0  0
  1  2  2  0  0  0  0
  1 20  1  0  0  0  0
  1 21  1  0  0  0  0
  2  3  1  0  0  0  0
  2 22  1  0  0  0  0
  3  4  1  0  0  0  0
  3  5  1  0  0  0  0
  3 23  1  0  0  0  0
  4 24  1  0  0  0  0
  4 25  1  0  0  0  0
  4 26  1  0  0  0  0
  5  6  1  0  0  0  0
  6  7  2  0  0  0  0
  6  8  1  0  0  0  0
  8 19  1  0  0  0  0
  8  9  2  0  0  0  0
  9 10  1  0  0  0  0
  9 27  1  0  0  0  0
 10 11  1  0  0  0  0
 10 17  2  0  0  0  0
 11 16  1  0  0  0  0
 11 12  1  0  0  0  0
 12 13  1  0  0  0  0
 12 28  1  0  0  0  0
 12 29  1  0  0  0  0
 13 14  1  0  0  0  0
 13 30  1  0  0  0  0
 13 31  1  0  0  0  0
 14 15  1  0  0  0  0
 15 16  1  0  0  0  0
 15 32  1  0  0  0  0
 15 33  1  0  0  0  0
 16 34  1  0  0  0  0
 16 35  1  0  0  0  0
 17 18  1  0  0  0  0
 17 36  1  0  0  0  0
 18 19  2  0  0  0  0
 18 37  1  0  0  0  0
 19 38  1  0  0  0  0
M  CHG  1   5  -1
M  CHG  1  19   1
M  END
> <s_m_source_file>
AV-unprocessed.smi

> <i_m_source_file_index>
2746

> <i_lp_mmshare_version>
43012

> <i_f3d_flags>
0

> <s_epik_input>
W0NIMl09W0NIXVtDQEhdKFtDSDNdKVtOSF1DKD1PKWMxW2NIXWMoW2NIXVtjSF1uMSlOMltDSDJdW0NIMl1PW0NIMl1bQ0gyXTI=

> <s_epik_cmdline>
J2VwaWtfcHl0aG9uJywgJy1waCcsICc3LjAnLCAnLXRuJywgJzgnLCAnLW1hJywgJzIwMCcsICctbWV0YWxfYmluZGluZycsICctaW1hZScsICc8aW5maWxlLm1hZT4nLCAnLW9tYWUnLCAnPG91dGZpbGUubWFlPic=

> <r_lp_tautomer_probability>
1

> <r_epik_Ionization_Penalty>
4.23471

> <r_epik_Ionization_Penalty_Charging>
4.23471

> <r_epik_Ionization_Penalty_Neutral>
3.18831e-12

> <r_epik_State_Penalty>
4.68748

> <r_epik_Charging_Adjusted_Penalty>
8.92219

> <i_epik_Tot_Q>
0

> <i_epik_Tot_abs_Q>
2

> <r_epik_Metal_State_Penalty>
1.16626

> <b_epik_Metal_Only>
1

> <s_lp_Force_Field>
OPLS_2005

> <r_lp_Energy>
19.089

> <b_lp_Chiralities_Consistent>
1

> <s_lp_Variant>
AV-unprocessed.smi:2746-5

> <Gold.Version>
5.8.1

> <Gold.Id.Protein>
6NUR|6NUR_protein|mol2

> <Gold.PLP.Fitness>
51.4911

> <Gold.PLP.PLP>
-46.9076

> <Gold.PLP.part.hbond>
-2.0000

> <Gold.PLP.part.metal>
0.0000

> <Gold.PLP.part.buried>
-6.1663

> <Gold.PLP.part.nonpolar>
-38.7663

> <Gold.PLP.part.repulsive>
0.3654

> <Gold.PLP.ligand.clash>
0.0317

> <Gold.PLP.ligand.torsion>
1.0506

> <Gold.PLP.Chemscore.Hbond>
2.0000

> <Gold.PLP.Chemscore.CHOScore>
0.0000

> <Gold.PLP.Chemscore.Metal>
0.0000

> <Gold.Chemscore.Hbonds>
donor molecule, donor type, donor heavy atom, donor atom, acceptor molecule, acceptor atom, score
      L1  H    19    38       P1  8028  2.00

> <Gold.PLP.Chemscore.Internal.Correction>
0.7165

> <Gold.Rescore>
     Score         DG    S(hbond)    S(metal)    S(lipo)     H(rot)  DE(clash)    DE(int)     intcor
     17.68     -18.68       1.00        0.00     112.29       1.27       0.12       0.88       ----

> <Gold.Chemscore.Fitness>
17.6789

> <Gold.Chemscore.DG>
-18.6814

> <Gold.Chemscore.ZeroCoef>
-5.4800

> <Gold.Chemscore.Hbond>
0.9955

> <Gold.Chemscore.Metal>
0.0000

> <Gold.Chemscore.Lipo>
112.2937

> <Gold.Chemscore.Internal_Hbond>
0.0000

> <Gold.Chemscore.DEClash>
0.1219

> <Gold.Chemscore.DEInternal>
0.8805

> <Gold.Chemscore.Rot>
1.2742

> <Gold.Chemscore.Internal.Correction>
   9.000000E+99

> <Gold.Chemscore.Hbonds>
donor molecule, donor type, donor heavy atom, donor atom, acceptor molecule, acceptor atom, score
      L1  H    19    38       P1  8028  0.95

> <Gold.Chemscore.Hbond.Weighted>
-3.3249

> <Gold.Chemscore.Metal.Weighted>
-0.0000

> <Gold.Chemscore.Lipo.Weighted>
-13.1384

> <Gold.Chemscore.Internal_Hbond.Weighted>
0.0000

> <Gold.Chemscore.DEClash.Weighted>
0.1219

> <Gold.Chemscore.DEInternal.Weighted>
0.8805

> <Gold.Chemscore.Rot.Weighted>
3.2619

> <Gold.Chemscore.Internal.Correction.Weighted>
   9.000000E+99

> <Gold.Protein.RotatedTorsions>
[ 6907 6896 6895 6894 ] final -141.62 input  -60.11 | X-H torsion
[ 7974 7965 7964 7962 ] final   79.43 input  175.53 | X-H torsion
[ 8008 7997 7996 7995 ] final  119.87 input   59.86 | X-H torsion
[ 10167 10162 10161 10158 ] final  -95.58 input  -65.29 | X-H torsion
[ 10718 10713 10712 10709 ] final  106.66 input   66.30 | X-H torsion
[ 10763 10752 10751 10750 ] final -134.25 input  -60.55 | X-H torsion
[ 11005 11000 10999 10996 ] final   98.40 input  -57.11 | X-H torsion

> <Gold.Protein.ActiveResidues>
 VAL166  LYS551  ARG553  GLY616  TRP617  ASP618  TYR619  PRO620  LYS621  CYS622 
 ASP623  PHE694  ASN695  SER759  ASP760  ASP761  ALA762  ILE779  LEU786  VAL792 
 PHE793  MET794  SER795  GLU796  ALA797  LYS798  CYS799  TRP800  GLU811  SER814 

> <Gold.Protein.RotatedAtoms>
  151.0762  133.5426  159.2623 H   0  0  0  0  0  0  0  0  0  0  0  0  # atno 6907 bound_to 6896
  151.2347  135.0566  159.9011 H   0  0  0  0  0  0  0  0  0  0  0  0  # atno 6908 bound_to 6896
  152.5418  134.0546  159.8179 H   0  0  0  0  0  0  0  0  0  0  0  0  # atno 6909 bound_to 6896
  145.6644  139.2480  143.1904 H   0  0  0  0  0  0  0  0  0  0  0  0  # atno 7974 bound_to 7965
  156.2616  140.2843  156.1059 H   0  0  0  0  0  0  0  0  0  0  0  0  # atno 8008 bound_to 7997
  155.1309  140.0394  157.2792 H   0  0  0  0  0  0  0  0  0  0  0  0  # atno 8009 bound_to 7997
  154.6600  140.2564  155.7125 H   0  0  0  0  0  0  0  0  0  0  0  0  # atno 8010 bound_to 7997
  140.3026  143.3153  152.0232 H   0  0  0  0  0  0  0  0  0  0  0  0  # atno 10167 bound_to 10162
  157.6659  131.0855  150.6040 H   0  0  0  0  0  0  0  0  0  0  0  0  # atno 10718 bound_to 10713
  154.8722  135.3740  154.4706 H   0  0  0  0  0  0  0  0  0  0  0  0  # atno 10763 bound_to 10752
  153.5367  135.7027  153.5662 H   0  0  0  0  0  0  0  0  0  0  0  0  # atno 10764 bound_to 10752
  153.3842  135.3989  155.1843 H   0  0  0  0  0  0  0  0  0  0  0  0  # atno 10765 bound_to 10752
  139.8772  134.9047  156.4450 H   0  0  0  0  0  0  0  0  0  0  0  0  # atno 11005 bound_to 11000
  146.1098  140.7442  142.9508 LP  0  0  0  0  0  0  0  0  0  0  0  0  # atno 17320 bound_to 7965
  144.7078  140.3921  143.7104 LP  0  0  0  0  0  0  0  0  0  0  0  0  # atno 17321 bound_to 7965
  139.4911  144.6444  151.6809 LP  0  0  0  0  0  0  0  0  0  0  0  0  # atno 17342 bound_to 10162
  140.5637  144.0225  150.6182 LP  0  0  0  0  0  0  0  0  0  0  0  0  # atno 17343 bound_to 10162
  156.6340  130.4440  149.5776 LP  0  0  0  0  0  0  0  0  0  0  0  0  # atno 17370 bound_to 10713
  156.2260  130.6765  151.1416 LP  0  0  0  0  0  0  0  0  0  0  0  0  # atno 17371 bound_to 10713
  140.8972  133.7805  155.9639 LP  0  0  0  0  0  0  0  0  0  0  0  0  # atno 17394 bound_to 11000
  140.8690  134.2749  157.5199 LP  0  0  0  0  0  0  0  0  0  0  0  0  # atno 17395 bound_to 11000

$$$$
