AV-unprocessed.smi:2114|AV-procd|sdf|8618|dock3
  -GOLD-   2272011363D 1   1.00000     0.00000
 Structure written by MMmdl.
 47 48  0  0  0  0  0  0  0  0  1 V2000
  146.3867  138.6690  151.7957 C   0  0  0  0  0  0  0  0  0  0  0  0
  146.7067  139.9714  152.2520 O   0  0  0  0  0  0  0  0  0  0  0  0
  147.2486  139.9712  153.5633 C   0  0  0  0  0  0  0  0  0  0  0  0
  147.7719  141.3761  153.8990 C   0  0  1  0  0  0  0  0  0  0  0  0
  146.6208  142.3465  154.2098 C   0  0  0  0  0  0  0  0  0  0  0  0
  148.6860  141.2945  155.0347 N   0  0  0  0  0  0  0  0  0  0  0  0
  149.8431  140.6134  155.0568 C   0  0  0  0  0  0  0  0  0  0  0  0
  150.2964  140.0071  154.0857 O   0  0  0  0  0  0  0  0  0  0  0  0
  150.6111  140.6876  156.3442 C   0  0  0  0  0  0  0  0  0  0  0  0
  150.0885  141.3831  157.4542 C   0  0  0  0  0  0  0  0  0  0  0  0
  150.8450  141.4502  158.6398 C   0  0  0  0  0  0  0  0  0  0  0  0
  152.1140  140.8264  158.6857 C   0  0  0  0  0  0  0  0  0  0  0  0
  152.8866  140.8791  159.8656 N   0  0  0  0  0  0  0  0  0  0  0  0
  152.8039  142.0861  160.6847 C   0  0  0  0  0  0  0  0  0  0  0  0
  153.4675  141.8531  162.0545 C   0  0  2  0  0  0  0  0  0  0  0  0
  153.5075  143.1308  162.8990 C   0  0  0  0  0  0  0  0  0  0  0  0
  154.8055  141.4057  161.8548 O   0  0  0  0  0  0  0  0  0  0  0  0
  154.8662  140.1689  161.1496 C   0  0  2  0  0  0  0  0  0  0  0  0
  156.3324  139.7316  161.0735 C   0  0  0  0  0  0  0  0  0  0  0  0
  154.2432  140.3510  159.7528 C   0  0  0  0  0  0  0  0  0  0  0  0
  152.6234  140.1752  157.6113 N   0  0  0  0  0  0  0  0  0  0  0  0
  151.8940  140.1118  156.4774 C   0  0  0  0  0  0  0  0  0  0  0  0
  145.9784  138.7248  150.7866 H   0  0  0  0  0  0  0  0  0  0  0  0
  145.6389  138.1994  152.4359 H   0  0  0  0  0  0  0  0  0  0  0  0
  147.2722  138.0328  151.7659 H   0  0  0  0  0  0  0  0  0  0  0  0
  146.4727  139.6842  154.2751 H   0  0  0  0  0  0  0  0  0  0  0  0
  148.0517  139.2362  153.6422 H   0  0  0  0  0  0  0  0  0  0  0  0
  148.3143  141.7510  153.0289 H   0  0  0  0  0  0  0  0  0  0  0  0
  145.9337  142.4208  153.3665 H   0  0  0  0  0  0  0  0  0  0  0  0
  146.9929  143.3505  154.4160 H   0  0  0  0  0  0  0  0  0  0  0  0
  146.0479  142.0186  155.0778 H   0  0  0  0  0  0  0  0  0  0  0  0
  148.4072  141.7804  155.8750 H   0  0  0  0  0  0  0  0  0  0  0  0
  149.1200  141.8597  157.4066 H   0  0  0  0  0  0  0  0  0  0  0  0
  150.4527  141.9894  159.4892 H   0  0  0  0  0  0  0  0  0  0  0  0
  153.2952  142.9088  160.1630 H   0  0  0  0  0  0  0  0  0  0  0  0
  151.7604  142.3684  160.8314 H   0  0  0  0  0  0  0  0  0  0  0  0
  152.9144  141.0906  162.6059 H   0  0  0  0  0  0  0  0  0  0  0  0
  152.5021  143.5082  163.0873 H   0  0  0  0  0  0  0  0  0  0  0  0
  154.0723  143.9174  162.3980 H   0  0  0  0  0  0  0  0  0  0  0  0
  153.9786  142.9452  163.8644 H   0  0  0  0  0  0  0  0  0  0  0  0
  154.3081  139.4124  161.7046 H   0  0  0  0  0  0  0  0  0  0  0  0
  156.4312  138.7781  160.5540 H   0  0  0  0  0  0  0  0  0  0  0  0
  156.7545  139.6117  162.0715 H   0  0  0  0  0  0  0  0  0  0  0  0
  156.9367  140.4674  160.5423 H   0  0  0  0  0  0  0  0  0  0  0  0
  154.2603  139.3973  159.2272 H   0  0  0  0  0  0  0  0  0  0  0  0
  154.8406  141.0478  159.1634 H   0  0  0  0  0  0  0  0  0  0  0  0
  152.3595  139.5872  155.6559 H   0  0  0  0  0  0  0  0  0  0  0  0
  1  2  1  0  0  0  0
  1 23  1  0  0  0  0
  1 24  1  0  0  0  0
  1 25  1  0  0  0  0
  2  3  1  0  0  0  0
  3  4  1  0  0  0  0
  3 26  1  0  0  0  0
  3 27  1  0  0  0  0
  4  5  1  0  0  0  0
  4  6  1  0  0  0  0
  4 28  1  0  0  0  0
  5 29  1  0  0  0  0
  5 30  1  0  0  0  0
  5 31  1  0  0  0  0
  6  7  1  0  0  0  0
  6 32  1  0  0  0  0
  7  8  2  0  0  0  0
  7  9  1  0  0  0  0
  9 22  1  0  0  0  0
  9 10  2  0  0  0  0
 10 11  1  0  0  0  0
 10 33  1  0  0  0  0
 11 12  2  0  0  0  0
 11 34  1  0  0  0  0
 12 13  1  0  0  0  0
 12 21  1  0  0  0  0
 13 20  1  0  0  0  0
 13 14  1  0  0  0  0
 14 15  1  0  0  0  0
 14 35  1  0  0  0  0
 14 36  1  0  0  0  0
 15 16  1  0  0  0  0
 15 17  1  0  0  0  0
 15 37  1  0  0  0  0
 16 38  1  0  0  0  0
 16 39  1  0  0  0  0
 16 40  1  0  0  0  0
 17 18  1  0  0  0  0
 18 19  1  0  0  0  0
 18 20  1  0  0  0  0
 18 41  1  0  0  0  0
 19 42  1  0  0  0  0
 19 43  1  0  0  0  0
 19 44  1  0  0  0  0
 20 45  1  0  0  0  0
 20 46  1  0  0  0  0
 21 22  2  0  0  0  0
 22 47  1  0  0  0  0
M  END
> <s_m_source_file>
AV-unprocessed.smi

> <i_m_source_file_index>
2114

> <i_lp_mmshare_version>
43012

> <i_f3d_flags>
0

> <s_epik_input>
W0NIM11PW0NIMl1bQ0BIXShbQ0gzXSlbTkhdQyg9TyljMVtjSF1bY0hdYyhuW2NIXTEpTjJbQ0gyXVtDQEBIXShbQ0gzXSlPW0NAQEhdKFtDSDNdKVtDSDJdMg==

> <s_epik_cmdline>
J2VwaWtfcHl0aG9uJywgJy1waCcsICc3LjAnLCAnLXRuJywgJzgnLCAnLW1hJywgJzIwMCcsICctbWV0YWxfYmluZGluZycsICctaW1hZScsICc8aW5maWxlLm1hZT4nLCAnLW9tYWUnLCAnPG91dGZpbGUubWFlPic=

> <r_lp_tautomer_probability>
1

> <r_epik_Ionization_Penalty>
1.92915e-05

> <r_epik_Ionization_Penalty_Charging>
0

> <r_epik_Ionization_Penalty_Neutral>
1.92915e-05

> <r_epik_State_Penalty>
-0

> <r_epik_Charging_Adjusted_Penalty>
0

> <i_epik_Tot_Q>
0

> <i_epik_Tot_abs_Q>
0

> <r_epik_Metal_State_Penalty>
-0

> <b_epik_Metal_Only>
0

> <s_lp_Force_Field>
OPLS_2005

> <r_lp_Energy>
18.3403

> <b_lp_Chiralities_Consistent>
1

> <s_lp_Variant>
AV-unprocessed.smi:2114-2

> <Gold.Version>
5.8.1

> <Gold.Id.Protein>
6NUR|6NUR_protein|mol2

> <Gold.PLP.Fitness>
50.0016

> <Gold.PLP.PLP>
-44.8374

> <Gold.PLP.part.hbond>
-3.0000

> <Gold.PLP.part.metal>
0.0000

> <Gold.PLP.part.buried>
-5.1672

> <Gold.PLP.part.nonpolar>
-38.8294

> <Gold.PLP.part.repulsive>
2.5204

> <Gold.PLP.ligand.clash>
0.0000

> <Gold.PLP.ligand.torsion>
0.5778

> <Gold.PLP.Chemscore.Hbond>
1.9920

> <Gold.PLP.Chemscore.CHOScore>
0.0000

> <Gold.PLP.Chemscore.Metal>
0.0000

> <Gold.Chemscore.Hbonds>
donor molecule, donor type, donor heavy atom, donor atom, acceptor molecule, acceptor atom, score
      P1  H  7989  7998       L1     8  1.00
      P1  H  7997  8009       L1    21  1.00

> <Gold.PLP.Chemscore.Internal.Correction>
0.3438

> <Gold.Rescore>
     Score         DG    S(hbond)    S(metal)    S(lipo)     H(rot)  DE(clash)    DE(int)     intcor
     14.69     -17.15       1.02        0.00     103.85       1.52       1.71       0.76       ----

> <Gold.Chemscore.Fitness>
14.6874

> <Gold.Chemscore.DG>
-17.1535

> <Gold.Chemscore.ZeroCoef>
-5.4800

> <Gold.Chemscore.Hbond>
1.0242

> <Gold.Chemscore.Metal>
0.0000

> <Gold.Chemscore.Lipo>
103.8530

> <Gold.Chemscore.Internal_Hbond>
0.0000

> <Gold.Chemscore.DEClash>
1.7083

> <Gold.Chemscore.DEInternal>
0.7578

> <Gold.Chemscore.Rot>
1.5226

> <Gold.Chemscore.Internal.Correction>
   9.000000E+99

> <Gold.Chemscore.Hbonds>
donor molecule, donor type, donor heavy atom, donor atom, acceptor molecule, acceptor atom, score
      P1  H  7989  7998       L1     8  0.67
      P1  H  7997  8009       L1    21  0.27

> <Gold.Chemscore.Hbond.Weighted>
-3.4207

> <Gold.Chemscore.Metal.Weighted>
-0.0000

> <Gold.Chemscore.Lipo.Weighted>
-12.1508

> <Gold.Chemscore.Internal_Hbond.Weighted>
0.0000

> <Gold.Chemscore.DEClash.Weighted>
1.7083

> <Gold.Chemscore.DEInternal.Weighted>
0.7578

> <Gold.Chemscore.Rot.Weighted>
3.8980

> <Gold.Chemscore.Internal.Correction.Weighted>
   9.000000E+99

> <Gold.Protein.RotatedTorsions>
[ 6907 6896 6895 6894 ] final -132.05 input  -60.11 | X-H torsion
[ 7974 7965 7964 7962 ] final   10.15 input  175.53 | X-H torsion
[ 8008 7997 7996 7995 ] final  165.70 input   59.86 | X-H torsion
[ 10167 10162 10161 10158 ] final -131.35 input  -65.29 | X-H torsion
[ 10718 10713 10712 10709 ] final  -46.08 input   66.30 | X-H torsion
[ 10763 10752 10751 10750 ] final   82.58 input  -60.55 | X-H torsion
[ 11005 11000 10999 10996 ] final -145.27 input  -57.11 | X-H torsion

> <Gold.Protein.ActiveResidues>
 VAL166  LYS551  ARG553  GLY616  TRP617  ASP618  TYR619  PRO620  LYS621  CYS622 
 ASP623  PHE694  ASN695  SER759  ASP760  ASP761  ALA762  ILE779  LEU786  VAL792 
 PHE793  MET794  SER795  GLU796  ALA797  LYS798  CYS799  TRP800  GLU811  SER814 

> <Gold.Protein.RotatedAtoms>
  150.9579  133.6477  159.2759 H   0  0  0  0  0  0  0  0  0  0  0  0  # atno 6907 bound_to 6896
  151.3810  135.0938  159.9506 H   0  0  0  0  0  0  0  0  0  0  0  0  # atno 6908 bound_to 6896
  152.5136  133.9114  159.7544 H   0  0  0  0  0  0  0  0  0  0  0  0  # atno 6909 bound_to 6896
  146.2393  139.9677  142.8451 H   0  0  0  0  0  0  0  0  0  0  0  0  # atno 7974 bound_to 7965
  156.1779  140.1663  156.8329 H   0  0  0  0  0  0  0  0  0  0  0  0  # atno 8008 bound_to 7997
  154.5327  140.0753  156.8406 H   0  0  0  0  0  0  0  0  0  0  0  0  # atno 8009 bound_to 7997
  155.3374  140.3382  155.4241 H   0  0  0  0  0  0  0  0  0  0  0  0  # atno 8010 bound_to 7997
  139.9199  143.6395  152.2556 H   0  0  0  0  0  0  0  0  0  0  0  0  # atno 10167 bound_to 10162
  156.2219  130.4167  149.8982 H   0  0  0  0  0  0  0  0  0  0  0  0  # atno 10718 bound_to 10713
  153.1215  135.4723  154.9203 H   0  0  0  0  0  0  0  0  0  0  0  0  # atno 10763 bound_to 10752
  154.7580  135.3123  154.8436 H   0  0  0  0  0  0  0  0  0  0  0  0  # atno 10764 bound_to 10752
  153.8999  135.6876  153.4809 H   0  0  0  0  0  0  0  0  0  0  0  0  # atno 10765 bound_to 10752
  140.7939  134.2936  157.5003 H   0  0  0  0  0  0  0  0  0  0  0  0  # atno 11005 bound_to 11000
  145.1710  140.9721  143.4321 LP  0  0  0  0  0  0  0  0  0  0  0  0  # atno 17320 bound_to 7965
  145.0028  139.3582  143.6159 LP  0  0  0  0  0  0  0  0  0  0  0  0  # atno 17321 bound_to 7965
  139.6871  144.7650  151.1505 LP  0  0  0  0  0  0  0  0  0  0  0  0  # atno 17342 bound_to 10162
  140.7665  143.5642  150.9066 LP  0  0  0  0  0  0  0  0  0  0  0  0  # atno 17343 bound_to 10162
  156.6625  130.8788  151.3549 LP  0  0  0  0  0  0  0  0  0  0  0  0  # atno 17370 bound_to 10713
  157.7092  130.9420  150.1031 LP  0  0  0  0  0  0  0  0  0  0  0  0  # atno 17371 bound_to 10713
  139.8728  134.9391  156.3732 LP  0  0  0  0  0  0  0  0  0  0  0  0  # atno 17394 bound_to 11000
  140.9362  133.7546  156.0087 LP  0  0  0  0  0  0  0  0  0  0  0  0  # atno 17395 bound_to 11000

$$$$
