AV-unprocessed.smi:50|AV-procd|sdf|494|dock1
  -GOLD-   2262016363D 1   1.00000     0.00000
 Structure written by MMmdl.
 43 44  0  0  0  0  0  0  0  0  1 V2000
  145.3226  134.0091  151.0494 C   0  0  0  0  0  0  0  0  0  0  0  0
  146.0327  132.6865  150.6934 C   0  0  0  0  0  0  0  0  0  0  0  0
  145.3924  132.1071  149.4174 C   0  0  0  0  0  0  0  0  0  0  0  0
  146.0491  131.6439  151.8504 C   0  0  1  0  0  0  0  0  0  0  0  0
  146.6442  130.3865  151.3977 N   0  0  0  0  0  0  0  0  0  0  0  0
  146.7705  132.1619  153.1076 C   0  0  0  0  0  0  0  0  0  0  0  0
  146.2286  132.3213  154.2032 O   0  0  0  0  0  0  0  0  0  0  0  0
  148.0686  132.3892  152.8479 O   0  0  0  0  0  0  0  0  0  0  0  0
  148.9661  132.6324  153.9182 C   0  0  0  0  0  0  0  0  0  0  0  0
  148.8467  134.0914  154.3688 C   0  0  0  0  0  0  0  0  0  0  0  0
  148.7070  134.1399  155.7840 O   0  0  0  0  0  0  0  0  0  0  0  0
  148.5949  135.4148  156.3311 C   0  0  0  0  0  0  0  0  0  0  0  0
  149.8609  136.1115  156.1706 N   0  0  0  0  0  0  0  0  0  0  0  0
  151.1226  135.6473  156.4454 C   0  0  0  0  0  0  0  0  0  0  0  0
  152.0713  136.5026  156.1845 N   0  0  0  0  0  0  0  0  0  0  0  0
  151.3975  137.6208  155.7020 C   0  0  0  0  0  0  0  0  0  0  0  0
  151.9089  138.8828  155.2488 C   0  0  0  0  0  0  0  0  0  0  0  0
  153.0799  139.2501  155.1821 O   0  0  0  0  0  0  0  0  0  0  0  0
  150.8870  139.7550  154.8530 N   0  0  0  0  0  0  0  0  0  0  0  0
  149.5313  139.4375  154.8871 C   0  0  0  0  0  0  0  0  0  0  0  0
  148.6787  140.3865  154.4790 N   0  0  0  0  0  0  0  0  0  0  0  0
  149.0623  138.2718  155.2964 N   0  0  0  0  0  0  0  0  0  0  0  0
  150.0347  137.3943  155.6954 C   0  0  0  0  0  0  0  0  0  0  0  0
  145.0162  131.4301  152.1223 H   0  0  0  0  0  0  0  0  0  0  0  0
  151.1675  140.6679  154.5257 H   0  0  0  0  0  0  0  0  0  0  0  0
  144.3057  133.8288  151.3969 H   0  0  0  0  0  0  0  0  0  0  0  0
  145.2628  134.6692  150.1836 H   0  0  0  0  0  0  0  0  0  0  0  0
  145.8503  134.5619  151.8267 H   0  0  0  0  0  0  0  0  0  0  0  0
  147.0667  132.9363  150.4504 H   0  0  0  0  0  0  0  0  0  0  0  0
  144.3537  131.8272  149.5879 H   0  0  0  0  0  0  0  0  0  0  0  0
  145.9198  131.2222  149.0618 H   0  0  0  0  0  0  0  0  0  0  0  0
  145.4082  132.8337  148.6046 H   0  0  0  0  0  0  0  0  0  0  0  0
  146.1042  129.9653  150.6556 H   0  0  0  0  0  0  0  0  0  0  0  0
  147.5775  130.5252  151.0375 H   0  0  0  0  0  0  0  0  0  0  0  0
  148.7785  131.9545  154.7523 H   0  0  0  0  0  0  0  0  0  0  0  0
  149.9807  132.4440  153.5648 H   0  0  0  0  0  0  0  0  0  0  0  0
  149.7684  134.6185  154.1226 H   0  0  0  0  0  0  0  0  0  0  0  0
  148.0478  134.6004  153.8269 H   0  0  0  0  0  0  0  0  0  0  0  0
  147.8399  135.9625  155.7665 H   0  0  0  0  0  0  0  0  0  0  0  0
  148.2863  135.3919  157.3779 H   0  0  0  0  0  0  0  0  0  0  0  0
  151.3156  134.6609  156.8412 H   0  0  0  0  0  0  0  0  0  0  0  0
  149.0346  141.2790  154.1675 H   0  0  0  0  0  0  0  0  0  0  0  0
  147.6838  140.2141  154.4825 H   0  0  0  0  0  0  0  0  0  0  0  0
  1  2  1  0  0  0  0
  1 26  1  0  0  0  0
  1 27  1  0  0  0  0
  1 28  1  0  0  0  0
  2  3  1  0  0  0  0
  2  4  1  0  0  0  0
  2 29  1  0  0  0  0
  3 30  1  0  0  0  0
  3 31  1  0  0  0  0
  3 32  1  0  0  0  0
  4 24  1  0  0  0  0
  4  5  1  0  0  0  0
  4  6  1  0  0  0  0
  5 33  1  0  0  0  0
  5 34  1  0  0  0  0
  6  7  2  0  0  0  0
  6  8  1  0  0  0  0
  8  9  1  0  0  0  0
  9 10  1  0  0  0  0
  9 35  1  0  0  0  0
  9 36  1  0  0  0  0
 10 11  1  0  0  0  0
 10 37  1  0  0  0  0
 10 38  1  0  0  0  0
 11 12  1  0  0  0  0
 12 13  1  0  0  0  0
 12 39  1  0  0  0  0
 12 40  1  0  0  0  0
 13 23  1  0  0  0  0
 13 14  1  0  0  0  0
 14 15  2  0  0  0  0
 14 41  1  0  0  0  0
 15 16  1  0  0  0  0
 16 23  2  0  0  0  0
 16 17  1  0  0  0  0
 17 18  2  0  0  0  0
 17 19  1  0  0  0  0
 19 25  1  0  0  0  0
 19 20  1  0  0  0  0
 20 21  1  0  0  0  0
 20 22  2  0  0  0  0
 21 42  1  0  0  0  0
 21 43  1  0  0  0  0
 22 23  1  0  0  0  0
M  END
> <s_m_source_file>
AV-unprocessed.smi

> <i_m_source_file_index>
50

> <i_lp_mmshare_version>
43012

> <i_f3d_flags>
0

> <s_epik_input>
W0NIM11bQ0hdKFtDSDNdKVtDQEhdKFtOSDJdKUMoPU8pT1tDSDJdW0NIMl1PW0NIMl1uKFtjSF1uMSljKGMxMiluYyhbTkgyXSlbbkhdYzI9Tw==

> <s_epik_cmdline>
J2VwaWtfcHl0aG9uJywgJy1waCcsICc3LjAnLCAnLXRuJywgJzgnLCAnLW1hJywgJzIwMCcsICctbWV0YWxfYmluZGluZycsICctaW1hZScsICc8aW5maWxlLm1hZT4nLCAnLW9tYWUnLCAnPG91dGZpbGUubWFlPic=

> <r_lp_tautomer_probability>
0.99994

> <r_epik_Ionization_Penalty>
0.704142

> <r_epik_Ionization_Penalty_Charging>
0.00148332

> <r_epik_Ionization_Penalty_Neutral>
0.702658

> <r_epik_State_Penalty>
0.725442

> <r_epik_Charging_Adjusted_Penalty>
0.726926

> <i_epik_Tot_Q>
0

> <i_epik_Tot_abs_Q>
0

> <r_epik_Metal_State_Penalty>
1.04557

> <b_epik_Metal_Only>
0

> <s_epik_Chemistry_Notes>
This compound has an ester and may undergo hydrolysis at high or low pH. This compound contains an acetal/aminal-like group ( X-CH(R)-Y where X, Y are N, S, or O) that may be acid/base labile, releasing an aldehyde.

> <s_lp_Force_Field>
OPLS_2005

> <r_lp_Energy>
2.75991

> <b_lp_Chiralities_Consistent>
1

> <s_lp_Variant>
AV-unprocessed.smi:50-4

> <Gold.Version>
5.8.1

> <Gold.Id.Protein>
6NUR|6NUR_protein|mol2

> <Gold.PLP.Fitness>
40.8020

> <Gold.PLP.PLP>
-33.1246

> <Gold.PLP.part.hbond>
-4.0000

> <Gold.PLP.part.metal>
0.0000

> <Gold.PLP.part.buried>
-7.7723

> <Gold.PLP.part.nonpolar>
-24.4490

> <Gold.PLP.part.repulsive>
3.1537

> <Gold.PLP.ligand.clash>
0.0000

> <Gold.PLP.ligand.torsion>
0.7470

> <Gold.PLP.Chemscore.Hbond>
3.0000

> <Gold.PLP.Chemscore.CHOScore>
0.0000

> <Gold.PLP.Chemscore.Metal>
0.0000

> <Gold.Chemscore.Hbonds>
donor molecule, donor type, donor heavy atom, donor atom, acceptor molecule, acceptor atom, score
      L1  H     5    34       P1 10747  1.00
      P1  H  7997  8008       L1    18  1.00
      P1  H 10752 10764       L1    15  1.00

> <Gold.PLP.Chemscore.Internal.Correction>
0.1714

> <Gold.Rescore>
     Score         DG    S(hbond)    S(metal)    S(lipo)     H(rot)  DE(clash)    DE(int)     intcor
      7.38      -8.49       2.68        0.00      53.18       4.75       0.07       1.05       ----

> <Gold.Chemscore.Fitness>
7.3810

> <Gold.Chemscore.DG>
-8.4946

> <Gold.Chemscore.ZeroCoef>
-5.4800

> <Gold.Chemscore.Hbond>
2.6803

> <Gold.Chemscore.Metal>
0.0000

> <Gold.Chemscore.Lipo>
53.1843

> <Gold.Chemscore.Internal_Hbond>
0.0000

> <Gold.Chemscore.DEClash>
0.0679

> <Gold.Chemscore.DEInternal>
1.0457

> <Gold.Chemscore.Rot>
4.7501

> <Gold.Chemscore.Internal.Correction>
   9.000000E+99

> <Gold.Chemscore.Hbonds>
donor molecule, donor type, donor heavy atom, donor atom, acceptor molecule, acceptor atom, score
      L1  H     5    34       P1 10747  0.99
      P1  H  7997  8008       L1    18  1.00
      P1  H 10752 10764       L1    15  0.22

> <Gold.Chemscore.Hbond.Weighted>
-8.9523

> <Gold.Chemscore.Metal.Weighted>
-0.0000

> <Gold.Chemscore.Lipo.Weighted>
-6.2226

> <Gold.Chemscore.Internal_Hbond.Weighted>
0.0000

> <Gold.Chemscore.DEClash.Weighted>
0.0679

> <Gold.Chemscore.DEInternal.Weighted>
1.0457

> <Gold.Chemscore.Rot.Weighted>
12.1603

> <Gold.Chemscore.Internal.Correction.Weighted>
   9.000000E+99

> <Gold.Protein.RotatedTorsions>
[ 6907 6896 6895 6894 ] final  -88.78 input  -60.11 | X-H torsion
[ 7974 7965 7964 7962 ] final   -6.90 input  175.53 | X-H torsion
[ 8008 7997 7996 7995 ] final  -18.49 input   59.86 | X-H torsion
[ 10167 10162 10161 10158 ] final -128.92 input  -65.29 | X-H torsion
[ 10718 10713 10712 10709 ] final   44.76 input   66.30 | X-H torsion
[ 10763 10752 10751 10750 ] final  -45.96 input  -60.55 | X-H torsion
[ 11005 11000 10999 10996 ] final  -90.74 input  -57.11 | X-H torsion

> <Gold.Protein.ActiveResidues>
 VAL166  LYS551  ARG553  GLY616  TRP617  ASP618  TYR619  PRO620  LYS621  CYS622 
 ASP623  PHE694  ASN695  SER759  ASP760  ASP761  ALA762  ILE779  LEU786  VAL792 
 PHE793  MET794  SER795  GLU796  ALA797  LYS798  CYS799  TRP800  GLU811  SER814 

> <Gold.Protein.RotatedAtoms>
  150.6870  134.2688  159.4579 H   0  0  0  0  0  0  0  0  0  0  0  0  # atno 6907 bound_to 6896
  152.0612  134.9590  160.0584 H   0  0  0  0  0  0  0  0  0  0  0  0  # atno 6908 bound_to 6896
  152.1017  133.4218  159.4627 H   0  0  0  0  0  0  0  0  0  0  0  0  # atno 6909 bound_to 6896
  146.2320  140.2240  142.8338 H   0  0  0  0  0  0  0  0  0  0  0  0  # atno 7974 bound_to 7965
  154.4902  140.2114  155.9565 H   0  0  0  0  0  0  0  0  0  0  0  0  # atno 8008 bound_to 7997
  156.1294  140.3199  155.8295 H   0  0  0  0  0  0  0  0  0  0  0  0  # atno 8009 bound_to 7997
  155.4323  140.0504  157.3008 H   0  0  0  0  0  0  0  0  0  0  0  0  # atno 8010 bound_to 7997
  139.9452  143.6118  152.2492 H   0  0  0  0  0  0  0  0  0  0  0  0  # atno 10167 bound_to 10162
  157.4303  130.8021  149.7597 H   0  0  0  0  0  0  0  0  0  0  0  0  # atno 10718 bound_to 10713
  154.0372  135.6649  153.4786 H   0  0  0  0  0  0  0  0  0  0  0  0  # atno 10763 bound_to 10752
  153.0516  135.5081  154.7877 H   0  0  0  0  0  0  0  0  0  0  0  0  # atno 10764 bound_to 10752
  154.6841  135.3050  154.9537 H   0  0  0  0  0  0  0  0  0  0  0  0  # atno 10765 bound_to 10752
  141.1559  133.7711  156.9780 H   0  0  0  0  0  0  0  0  0  0  0  0  # atno 11005 bound_to 11000
  144.9610  140.8274  143.5514 LP  0  0  0  0  0  0  0  0  0  0  0  0  # atno 17320 bound_to 7965
  145.2211  139.2159  143.5092 LP  0  0  0  0  0  0  0  0  0  0  0  0  # atno 17321 bound_to 7965
  139.6672  144.7662  151.1851 LP  0  0  0  0  0  0  0  0  0  0  0  0  # atno 17342 bound_to 10162
  140.7599  143.5920  150.8787 LP  0  0  0  0  0  0  0  0  0  0  0  0  # atno 17343 bound_to 10162
  155.9911  130.3940  150.2999 LP  0  0  0  0  0  0  0  0  0  0  0  0  # atno 17370 bound_to 10713
  157.1156  131.0233  151.3030 LP  0  0  0  0  0  0  0  0  0  0  0  0  # atno 17371 bound_to 10713
  140.1085  134.9492  157.2030 LP  0  0  0  0  0  0  0  0  0  0  0  0  # atno 17394 bound_to 11000
  140.3225  134.2900  155.7243 LP  0  0  0  0  0  0  0  0  0  0  0  0  # atno 17395 bound_to 11000

$$$$
