AV-unprocessed.smi:2975|AV-procd|sdf|11356|dock10
  -GOLD-   2272016273D 1   1.00000     0.00000
 Structure written by MMmdl.
 39 41  0  0  0  0  0  0  0  0  1 V2000
  153.9111  137.5862  159.0427 C   0  0  0  0  0  0  0  0  0  0  0  0
  154.9379  138.5857  159.5942 C   0  0  1  0  0  0  0  0  0  0  0  0
  155.9359  138.7905  158.6162 O   0  0  0  0  0  0  0  0  0  0  0  0
  154.2938  139.8786  160.0136 C   0  0  0  0  0  0  0  0  0  0  0  0
  153.6931  140.6687  159.1203 N   0  0  0  0  0  0  0  0  0  0  0  0
  153.2355  141.7165  159.8919 C   0  0  0  0  0  0  0  0  0  0  0  0
  152.5063  142.8721  159.5311 C   0  0  0  0  0  0  0  0  0  0  0  0
  152.1426  143.8205  160.5092 C   0  0  0  0  0  0  0  0  0  0  0  0
  152.5025  143.6273  161.8586 C   0  0  0  0  0  0  0  0  0  0  0  0
  153.2306  142.4833  162.2381 C   0  0  0  0  0  0  0  0  0  0  0  0
  153.5913  141.5389  161.2577 C   0  0  0  0  0  0  0  0  0  0  0  0
  154.2935  140.3372  161.2945 N   0  0  0  0  0  0  0  0  0  0  0  0
  154.8852  139.7502  162.4902 C   0  0  0  0  0  0  0  0  0  0  0  0
  155.9319  140.6669  163.1387 C   0  0  0  0  0  0  0  0  0  0  0  0
  155.2869  141.6909  163.8838 O   0  0  0  0  0  0  0  0  0  0  0  0
  155.4162  141.6763  165.2570 C   0  0  0  0  0  0  0  0  0  0  0  0
  155.7104  140.5129  166.0136 C   0  0  0  0  0  0  0  0  0  0  0  0
  155.8346  140.5841  167.4147 C   0  0  0  0  0  0  0  0  0  0  0  0
  155.6643  141.8128  168.0780 C   0  0  0  0  0  0  0  0  0  0  0  0
  155.3694  142.9718  167.3371 C   0  0  0  0  0  0  0  0  0  0  0  0
  155.2460  142.9024  165.9359 C   0  0  0  0  0  0  0  0  0  0  0  0
  154.9519  144.0256  165.2391 F   0  0  0  0  0  0  0  0  0  0  0  0
  153.1260  137.3900  159.7728 H   0  0  0  0  0  0  0  0  0  0  0  0
  154.3818  136.6337  158.7975 H   0  0  0  0  0  0  0  0  0  0  0  0
  153.4313  137.9621  158.1385 H   0  0  0  0  0  0  0  0  0  0  0  0
  155.4297  138.1173  160.4435 H   0  0  0  0  0  0  0  0  0  0  0  0
  156.7582  138.9343  159.0595 H   0  0  0  0  0  0  0  0  0  0  0  0
  152.2257  143.0281  158.5001 H   0  0  0  0  0  0  0  0  0  0  0  0
  151.5848  144.7000  160.2227 H   0  0  0  0  0  0  0  0  0  0  0  0
  152.2196  144.3582  162.6019 H   0  0  0  0  0  0  0  0  0  0  0  0
  153.5071  142.3337  163.2711 H   0  0  0  0  0  0  0  0  0  0  0  0
  154.1066  139.4723  163.1993 H   0  0  0  0  0  0  0  0  0  0  0  0
  155.3618  138.8126  162.2029 H   0  0  0  0  0  0  0  0  0  0  0  0
  156.5642  140.0751  163.8023 H   0  0  0  0  0  0  0  0  0  0  0  0
  156.5683  141.0965  162.3633 H   0  0  0  0  0  0  0  0  0  0  0  0
  155.8503  139.5520  165.5429 H   0  0  0  0  0  0  0  0  0  0  0  0
  156.0624  139.6932  167.9816 H   0  0  0  0  0  0  0  0  0  0  0  0
  155.7594  141.8662  169.1525 H   0  0  0  0  0  0  0  0  0  0  0  0
  155.2361  143.9163  167.8439 H   0  0  0  0  0  0  0  0  0  0  0  0
  1  2  1  0  0  0  0
  1 23  1  0  0  0  0
  1 24  1  0  0  0  0
  1 25  1  0  0  0  0
  2  3  1  0  0  0  0
  2  4  1  0  0  0  0
  2 26  1  0  0  0  0
  3 27  1  0  0  0  0
  4 12  1  0  0  0  0
  4  5  2  0  0  0  0
  5  6  1  0  0  0  0
  6 11  2  0  0  0  0
  6  7  1  0  0  0  0
  7  8  2  0  0  0  0
  7 28  1  0  0  0  0
  8  9  1  0  0  0  0
  8 29  1  0  0  0  0
  9 10  2  0  0  0  0
  9 30  1  0  0  0  0
 10 11  1  0  0  0  0
 10 31  1  0  0  0  0
 11 12  1  0  0  0  0
 12 13  1  0  0  0  0
 13 14  1  0  0  0  0
 13 32  1  0  0  0  0
 13 33  1  0  0  0  0
 14 15  1  0  0  0  0
 14 34  1  0  0  0  0
 14 35  1  0  0  0  0
 15 16  1  0  0  0  0
 16 21  1  0  0  0  0
 16 17  2  0  0  0  0
 17 18  1  0  0  0  0
 17 36  1  0  0  0  0
 18 19  2  0  0  0  0
 18 37  1  0  0  0  0
 19 20  1  0  0  0  0
 19 38  1  0  0  0  0
 20 21  2  0  0  0  0
 20 39  1  0  0  0  0
 21 22  1  0  0  0  0
M  END
> <s_m_source_file>
AV-unprocessed.smi

> <i_m_source_file_index>
2975

> <i_lp_mmshare_version>
43012

> <i_f3d_flags>
0

> <s_epik_input>
W2NIXTFbY0hdW2NIXVtjSF1jKGMxMiluKGMobjIpW0NASF0oW0NIM10pW09IXSlbQ0gyXVtDSDJdT2MzW2NIXVtjSF1bY0hdW2NIXWMzRg==

> <s_epik_cmdline>
J2VwaWtfcHl0aG9uJywgJy1waCcsICc3LjAnLCAnLXRuJywgJzgnLCAnLW1hJywgJzIwMCcsICctbWV0YWxfYmluZGluZycsICctaW1hZScsICc8aW5maWxlLm1hZT4nLCAnLW9tYWUnLCAnPG91dGZpbGUubWFlPic=

> <r_lp_tautomer_probability>
1

> <r_epik_Ionization_Penalty>
0.0404035

> <r_epik_Ionization_Penalty_Charging>
0

> <r_epik_Ionization_Penalty_Neutral>
0.0404035

> <r_epik_State_Penalty>
0.0340039

> <r_epik_Charging_Adjusted_Penalty>
0.0340039

> <i_epik_Tot_Q>
0

> <i_epik_Tot_abs_Q>
0

> <r_epik_Metal_State_Penalty>
3.49976e-05

> <b_epik_Metal_Only>
0

> <s_lp_Force_Field>
OPLS_2005

> <r_lp_Energy>
14.7518

> <b_lp_Chiralities_Consistent>
1

> <s_lp_Variant>
AV-unprocessed.smi:2975-2

> <Gold.Version>
5.8.1

> <Gold.Id.Protein>
6NUR|6NUR_protein|mol2

> <Gold.PLP.Fitness>
53.2093

> <Gold.PLP.PLP>
-51.7421

> <Gold.PLP.part.hbond>
-2.8982

> <Gold.PLP.part.metal>
0.0000

> <Gold.PLP.part.buried>
-2.3516

> <Gold.PLP.part.nonpolar>
-45.6894

> <Gold.PLP.part.repulsive>
0.0000

> <Gold.PLP.ligand.clash>
0.0000

> <Gold.PLP.ligand.torsion>
0.7935

> <Gold.PLP.Chemscore.Hbond>
1.0000

> <Gold.PLP.Chemscore.CHOScore>
0.0000

> <Gold.PLP.Chemscore.Metal>
0.0000

> <Gold.Chemscore.Hbonds>
donor molecule, donor type, donor heavy atom, donor atom, acceptor molecule, acceptor atom, score
      P1  H  7997  8008       L1     3  1.00

> <Gold.PLP.Chemscore.Internal.Correction>
0.0541

> <Gold.Rescore>
     Score         DG    S(hbond)    S(metal)    S(lipo)     H(rot)  DE(clash)    DE(int)     intcor
     14.32     -17.91       0.97        0.00     126.91       2.21       1.30       2.29       ----

> <Gold.Chemscore.Fitness>
14.3177

> <Gold.Chemscore.DG>
-17.9060

> <Gold.Chemscore.ZeroCoef>
-5.4800

> <Gold.Chemscore.Hbond>
0.9657

> <Gold.Chemscore.Metal>
0.0000

> <Gold.Chemscore.Lipo>
126.9058

> <Gold.Chemscore.Internal_Hbond>
0.0000

> <Gold.Chemscore.DEClash>
1.2958

> <Gold.Chemscore.DEInternal>
2.2925

> <Gold.Chemscore.Rot>
2.2060

> <Gold.Chemscore.Internal.Correction>
   9.000000E+99

> <Gold.Chemscore.Hbonds>
donor molecule, donor type, donor heavy atom, donor atom, acceptor molecule, acceptor atom, score
      P1  H  7997  8008       L1     3  0.80

> <Gold.Chemscore.Hbond.Weighted>
-3.2253

> <Gold.Chemscore.Metal.Weighted>
-0.0000

> <Gold.Chemscore.Lipo.Weighted>
-14.8480

> <Gold.Chemscore.Internal_Hbond.Weighted>
0.0000

> <Gold.Chemscore.DEClash.Weighted>
1.2958

> <Gold.Chemscore.DEInternal.Weighted>
2.2925

> <Gold.Chemscore.Rot.Weighted>
5.6473

> <Gold.Chemscore.Internal.Correction.Weighted>
   9.000000E+99

> <Gold.Protein.RotatedTorsions>
[ 6907 6896 6895 6894 ] final  144.27 input  -60.11 | X-H torsion
[ 7974 7965 7964 7962 ] final  133.56 input  175.53 | X-H torsion
[ 8008 7997 7996 7995 ] final -138.12 input   59.86 | X-H torsion
[ 10167 10162 10161 10158 ] final   50.34 input  -65.29 | X-H torsion
[ 10718 10713 10712 10709 ] final  115.12 input   66.30 | X-H torsion
[ 10763 10752 10751 10750 ] final  178.24 input  -60.55 | X-H torsion
[ 11005 11000 10999 10996 ] final  -59.03 input  -57.11 | X-H torsion

> <Gold.Protein.ActiveResidues>
 VAL166  LYS551  ARG553  GLY616  TRP617  ASP618  TYR619  PRO620  LYS621  CYS622 
 ASP623  PHE694  ASN695  SER759  ASP760  ASP761  ALA762  ILE779  LEU786  VAL792 
 PHE793  MET794  SER795  GLU796  ALA797  LYS798  CYS799  TRP800  GLU811  SER814 

> <Gold.Protein.RotatedAtoms>
  152.1958  133.4805  159.5031 H   0  0  0  0  0  0  0  0  0  0  0  0  # atno 6907 bound_to 6896
  150.6960  134.1654  159.4201 H   0  0  0  0  0  0  0  0  0  0  0  0  # atno 6908 bound_to 6896
  151.9570  135.0141  160.0596 H   0  0  0  0  0  0  0  0  0  0  0  0  # atno 6909 bound_to 6896
  144.9852  139.4463  143.5366 H   0  0  0  0  0  0  0  0  0  0  0  0  # atno 7974 bound_to 7965
  155.4230  140.0520  157.3024 H   0  0  0  0  0  0  0  0  0  0  0  0  # atno 8008 bound_to 7997
  154.4894  140.2114  155.9541 H   0  0  0  0  0  0  0  0  0  0  0  0  # atno 8009 bound_to 7997
  156.1320  140.3170  155.8369 H   0  0  0  0  0  0  0  0  0  0  0  0  # atno 8010 bound_to 7997
  140.2734  144.3239  150.6283 H   0  0  0  0  0  0  0  0  0  0  0  0  # atno 10167 bound_to 10162
  157.6241  131.1008  150.7283 H   0  0  0  0  0  0  0  0  0  0  0  0  # atno 10718 bound_to 10713
  154.5051  135.2785  155.1389 H   0  0  0  0  0  0  0  0  0  0  0  0  # atno 10763 bound_to 10752
  154.3007  135.6248  153.5427 H   0  0  0  0  0  0  0  0  0  0  0  0  # atno 10764 bound_to 10752
  152.9909  135.5696  154.5503 H   0  0  0  0  0  0  0  0  0  0  0  0  # atno 10765 bound_to 10752
  141.1232  133.6614  156.5010 H   0  0  0  0  0  0  0  0  0  0  0  0  # atno 11005 bound_to 11000
  146.3418  139.9150  142.8775 LP  0  0  0  0  0  0  0  0  0  0  0  0  # atno 17320 bound_to 7965
  145.2363  140.9992  143.3961 LP  0  0  0  0  0  0  0  0  0  0  0  0  # atno 17321 bound_to 7965
  140.5871  143.2169  151.7322 LP  0  0  0  0  0  0  0  0  0  0  0  0  # atno 17342 bound_to 10162
  139.4982  144.3995  152.0196 LP  0  0  0  0  0  0  0  0  0  0  0  0  # atno 17343 bound_to 10162
  156.7635  130.4806  149.5432 LP  0  0  0  0  0  0  0  0  0  0  0  0  # atno 17370 bound_to 10713
  156.1403  130.6240  151.0458 LP  0  0  0  0  0  0  0  0  0  0  0  0  # atno 17371 bound_to 10713
  140.4446  134.6984  157.5009 LP  0  0  0  0  0  0  0  0  0  0  0  0  # atno 17394 bound_to 11000
  140.0206  134.6553  155.9245 LP  0  0  0  0  0  0  0  0  0  0  0  0  # atno 17395 bound_to 11000

$$$$
