AV-unprocessed.smi:1198|AV-procd|sdf|5010|dock8
  -GOLD-   22720 4 23D 1   1.00000     0.00000
 Structure written by MMmdl.
 40 41  0  0  0  0  0  0  0  0  2 V2000
  151.4191  142.0317  157.7308 C   0  0  0  0  0  0  0  0  0  0  0  0
  151.0480  141.8778  156.3653 O   0  0  0  0  0  0  0  0  0  0  0  0
  150.7577  140.6102  155.9038 C   0  0  0  0  0  0  0  0  0  0  0  0
  151.1651  139.5031  156.6741 C   0  0  0  0  0  0  0  0  0  0  0  0
  150.8723  138.2058  156.2117 C   0  0  0  0  0  0  0  0  0  0  0  0
  150.1846  138.0564  154.9836 C   0  0  0  0  0  0  0  0  0  0  0  0
  149.8108  136.8060  154.4209 N   0  0  0  0  0  0  0  0  0  0  0  0
  149.7809  135.5975  155.0081 C   0  0  0  0  0  0  0  0  0  0  0  0
  150.1395  135.3548  156.1601 O   0  0  0  0  0  0  0  0  0  0  0  0
  149.3182  134.6615  154.1671 N   0  0  0  0  0  0  0  0  0  0  0  0
  149.1788  133.2432  154.4817 C   0  0  0  0  0  0  0  0  0  0  0  0
  148.6629  132.4208  153.2840 C   0  0  2  0  0  0  0  0  0  0  0  0
  147.2182  132.7293  152.8962 C   0  0  0  0  0  0  0  0  0  0  0  0
  146.7612  131.4873  152.1208 C   0  0  0  0  0  0  0  0  0  0  0  0
  147.6931  130.3931  152.4813 N   0  3  2  0  0  0  0  0  0  0  0  0
  147.0354  129.1191  152.8388 C   0  0  0  0  0  0  0  0  0  0  0  0
  148.6178  130.9088  153.5116 C   0  0  0  0  0  0  0  0  0  0  0  0
  149.8106  139.2290  154.2950 C   0  0  0  0  0  0  0  0  0  0  0  0
  150.0883  140.4751  154.7323 N   0  0  0  0  0  0  0  0  0  0  0  0
  151.6142  143.0843  157.9352 H   0  0  0  0  0  0  0  0  0  0  0  0
  152.3288  141.4760  157.9624 H   0  0  0  0  0  0  0  0  0  0  0  0
  150.6208  141.7075  158.3997 H   0  0  0  0  0  0  0  0  0  0  0  0
  151.6895  139.6465  157.6074 H   0  0  0  0  0  0  0  0  0  0  0  0
  151.1671  137.3603  156.8133 H   0  0  0  0  0  0  0  0  0  0  0  0
  149.5738  136.8289  153.4397 H   0  0  0  0  0  0  0  0  0  0  0  0
  149.0576  134.9487  153.2349 H   0  0  0  0  0  0  0  0  0  0  0  0
  150.1550  132.8734  154.7967 H   0  0  0  0  0  0  0  0  0  0  0  0
  148.5130  133.1222  155.3377 H   0  0  0  0  0  0  0  0  0  0  0  0
  149.2909  132.6168  152.4132 H   0  0  0  0  0  0  0  0  0  0  0  0
  146.6070  132.8427  153.7928 H   0  0  0  0  0  0  0  0  0  0  0  0
  147.1251  133.6462  152.3134 H   0  0  0  0  0  0  0  0  0  0  0  0
  145.7230  131.2446  152.3525 H   0  0  0  0  0  0  0  0  0  0  0  0
  146.8286  131.6549  151.0455 H   0  0  0  0  0  0  0  0  0  0  0  0
  146.3972  129.2391  153.7152 H   0  0  0  0  0  0  0  0  0  0  0  0
  147.7812  128.3544  153.0582 H   0  0  0  0  0  0  0  0  0  0  0  0
  146.4201  128.7634  152.0117 H   0  0  0  0  0  0  0  0  0  0  0  0
  149.6003  130.4423  153.4331 H   0  0  0  0  0  0  0  0  0  0  0  0
  148.2208  130.6950  154.5057 H   0  0  0  0  0  0  0  0  0  0  0  0
  149.2725  139.1673  153.3603 H   0  0  0  0  0  0  0  0  0  0  0  0
  148.2524  130.2215  151.6576 H   0  0  0  0  0  0  0  0  0  0  0  0
  1  2  1  0  0  0  0
  1 20  1  0  0  0  0
  1 21  1  0  0  0  0
  1 22  1  0  0  0  0
  2  3  1  0  0  0  0
  3 19  1  0  0  0  0
  3  4  2  0  0  0  0
  4  5  1  0  0  0  0
  4 23  1  0  0  0  0
  5  6  2  0  0  0  0
  5 24  1  0  0  0  0
  6  7  1  0  0  0  0
  6 18  1  0  0  0  0
  7  8  1  0  0  0  0
  7 25  1  0  0  0  0
  8  9  2  0  0  0  0
  8 10  1  0  0  0  0
 10 11  1  0  0  0  0
 10 26  1  0  0  0  0
 11 12  1  0  0  0  0
 11 27  1  0  0  0  0
 11 28  1  0  0  0  0
 12 17  1  0  0  0  0
 12 13  1  0  0  0  0
 12 29  1  0  0  0  0
 13 14  1  0  0  0  0
 13 30  1  0  0  0  0
 13 31  1  0  0  0  0
 14 15  1  0  0  0  0
 14 32  1  0  0  0  0
 14 33  1  0  0  0  0
 15 16  1  0  0  0  0
 15 17  1  0  0  0  0
 15 40  1  0  0  0  0
 16 34  1  0  0  0  0
 16 35  1  0  0  0  0
 16 36  1  0  0  0  0
 17 37  1  0  0  0  0
 17 38  1  0  0  0  0
 18 19  2  0  0  0  0
 18 39  1  0  0  0  0
M  CHG  1  15   1
M  END
> <s_m_source_file>
AV-unprocessed.smi

> <i_m_source_file_index>
1198

> <i_lp_mmshare_version>
43012

> <i_f3d_flags>
0

> <s_epik_input>
W0NIM11PYzFbY0hdW2NIXWMoW2NIXW4xKVtOSF1DKD1PKVtOSF1bQ0gyXVtDQEBIXTJbQ0gyXVtDSDJdTihbQ0gzXSlbQ0gyXTI=

> <s_epik_cmdline>
J2VwaWtfcHl0aG9uJywgJy1waCcsICc3LjAnLCAnLXRuJywgJzgnLCAnLW1hJywgJzIwMCcsICctbWV0YWxfYmluZGluZycsICctaW1hZScsICc8aW5maWxlLm1hZT4nLCAnLW9tYWUnLCAnPG91dGZpbGUubWFlPic=

> <r_lp_tautomer_probability>
1

> <r_epik_Ionization_Penalty>
0.00131396

> <r_epik_Ionization_Penalty_Charging>
0.0012301

> <r_epik_Ionization_Penalty_Neutral>
8.38549e-05

> <r_epik_State_Penalty>
0.00081314

> <r_epik_Charging_Adjusted_Penalty>
0.00204324

> <i_epik_Tot_Q>
1

> <i_epik_Tot_abs_Q>
1

> <r_epik_Metal_State_Penalty>
-0

> <b_epik_Metal_Only>
0

> <s_lp_Force_Field>
OPLS_2005

> <r_lp_Energy>
30.1161

> <b_lp_Chiralities_Consistent>
1

> <s_lp_Variant>
AV-unprocessed.smi:1198-1

> <Gold.Version>
5.8.1

> <Gold.Id.Protein>
6NUR|6NUR_protein|mol2

> <Gold.PLP.Fitness>
43.8652

> <Gold.PLP.PLP>
-29.6109

> <Gold.PLP.part.hbond>
-4.0000

> <Gold.PLP.part.metal>
0.0000

> <Gold.PLP.part.buried>
-2.0686

> <Gold.PLP.part.nonpolar>
-23.1586

> <Gold.PLP.part.repulsive>
0.2447

> <Gold.PLP.ligand.clash>
0.0000

> <Gold.PLP.ligand.torsion>
0.2915

> <Gold.PLP.Chemscore.Hbond>
3.9440

> <Gold.PLP.Chemscore.CHOScore>
1.0000

> <Gold.PLP.Chemscore.Metal>
0.0000

> <Gold.Chemscore.Hbonds>
donor molecule, donor type, donor heavy atom, donor atom, acceptor molecule, acceptor atom, score
      L1  H     7    25       P1  7948  1.00
      L1  H    10    26       P1  7948  0.85
      L1  H    15    40       P1 10747  0.98
      P1  H  7989  7998       L1    19  0.75
      L1  C    18    39       P1  7957  1.00

> <Gold.PLP.Chemscore.Internal.Correction>
0.0051

> <Gold.Rescore>
     Score         DG    S(hbond)    S(metal)    S(lipo)     H(rot)  DE(clash)    DE(int)     intcor
     17.72     -19.05       2.94        0.00      65.22       1.51       0.01       1.32       ----

> <Gold.Chemscore.Fitness>
17.7202

> <Gold.Chemscore.DG>
-19.0530

> <Gold.Chemscore.ZeroCoef>
-5.4800

> <Gold.Chemscore.Hbond>
2.9404

> <Gold.Chemscore.Metal>
0.0000

> <Gold.Chemscore.Lipo>
65.2163

> <Gold.Chemscore.Internal_Hbond>
0.0000

> <Gold.Chemscore.DEClash>
0.0150

> <Gold.Chemscore.DEInternal>
1.3179

> <Gold.Chemscore.Rot>
1.5149

> <Gold.Chemscore.Internal.Correction>
   9.000000E+99

> <Gold.Chemscore.Hbonds>
donor molecule, donor type, donor heavy atom, donor atom, acceptor molecule, acceptor atom, score
      L1  H     7    25       P1  7948  0.74
      L1  H    10    26       P1  7948  0.14
      L1  H    15    40       P1 10747  0.88
      P1  H  7989  7998       L1    19  0.03

> <Gold.Chemscore.Hbond.Weighted>
-9.8208

> <Gold.Chemscore.Metal.Weighted>
-0.0000

> <Gold.Chemscore.Lipo.Weighted>
-7.6303

> <Gold.Chemscore.Internal_Hbond.Weighted>
0.0000

> <Gold.Chemscore.DEClash.Weighted>
0.0150

> <Gold.Chemscore.DEInternal.Weighted>
1.3179

> <Gold.Chemscore.Rot.Weighted>
3.8781

> <Gold.Chemscore.Internal.Correction.Weighted>
   9.000000E+99

> <Gold.Protein.RotatedTorsions>
[ 6907 6896 6895 6894 ] final  164.63 input  -60.11 | X-H torsion
[ 7974 7965 7964 7962 ] final  -82.31 input  175.53 | X-H torsion
[ 8008 7997 7996 7995 ] final -125.86 input   59.86 | X-H torsion
[ 10167 10162 10161 10158 ] final -123.60 input  -65.29 | X-H torsion
[ 10718 10713 10712 10709 ] final  172.87 input   66.30 | X-H torsion
[ 10763 10752 10751 10750 ] final   84.15 input  -60.55 | X-H torsion
[ 11005 11000 10999 10996 ] final  166.57 input  -57.11 | X-H torsion

> <Gold.Protein.ActiveResidues>
 VAL166  LYS551  ARG553  GLY616  TRP617  ASP618  TYR619  PRO620  LYS621  CYS622 
 ASP623  PHE694  ASN695  SER759  ASP760  ASP761  ALA762  ILE779  LEU786  VAL792 
 PHE793  MET794  SER795  GLU796  ALA797  LYS798  CYS799  TRP800  GLU811  SER814 

> <Gold.Protein.RotatedAtoms>
  151.9069  133.3551  159.3849 H   0  0  0  0  0  0  0  0  0  0  0  0  # atno 6907 bound_to 6896
  150.7067  134.4771  159.5462 H   0  0  0  0  0  0  0  0  0  0  0  0  # atno 6908 bound_to 6896
  152.2370  134.8266  160.0516 H   0  0  0  0  0  0  0  0  0  0  0  0  # atno 6909 bound_to 6896
  145.5350  140.9517  143.1582 H   0  0  0  0  0  0  0  0  0  0  0  0  # atno 7974 bound_to 7965
  155.2202  140.0421  157.2947 H   0  0  0  0  0  0  0  0  0  0  0  0  # atno 8008 bound_to 7997
  154.5954  140.2438  155.7834 H   0  0  0  0  0  0  0  0  0  0  0  0  # atno 8009 bound_to 7997
  156.2287  140.2946  156.0141 H   0  0  0  0  0  0  0  0  0  0  0  0  # atno 8010 bound_to 7997
  140.0017  143.5533  152.2300 H   0  0  0  0  0  0  0  0  0  0  0  0  # atno 10167 bound_to 10162
  156.9727  131.0095  151.2901 H   0  0  0  0  0  0  0  0  0  0  0  0  # atno 10718 bound_to 10713
  153.1356  135.4665  154.9416 H   0  0  0  0  0  0  0  0  0  0  0  0  # atno 10763 bound_to 10752
  154.7702  135.3156  154.8206 H   0  0  0  0  0  0  0  0  0  0  0  0  # atno 10764 bound_to 10752
  153.8740  135.6901  153.4826 H   0  0  0  0  0  0  0  0  0  0  0  0  # atno 10765 bound_to 10752
  140.2678  134.7851  157.3648 H   0  0  0  0  0  0  0  0  0  0  0  0  # atno 11005 bound_to 11000
  144.7606  139.6966  143.7236 LP  0  0  0  0  0  0  0  0  0  0  0  0  # atno 17320 bound_to 7965
  146.2019  139.5319  142.9737 LP  0  0  0  0  0  0  0  0  0  0  0  0  # atno 17321 bound_to 7965
  139.6267  144.7638  151.2624 LP  0  0  0  0  0  0  0  0  0  0  0  0  # atno 17342 bound_to 10162
  140.7416  143.6552  150.8213 LP  0  0  0  0  0  0  0  0  0  0  0  0  # atno 17343 bound_to 10162
  157.5581  130.8227  149.8231 LP  0  0  0  0  0  0  0  0  0  0  0  0  # atno 17370 bound_to 10713
  156.0276  130.3774  150.1778 LP  0  0  0  0  0  0  0  0  0  0  0  0  # atno 17371 bound_to 10713
  140.1402  134.4981  155.8037 LP  0  0  0  0  0  0  0  0  0  0  0  0  # atno 17394 bound_to 11000
  141.2182  133.6822  156.7197 LP  0  0  0  0  0  0  0  0  0  0  0  0  # atno 17395 bound_to 11000

$$$$
