AV-unprocessed.smi:3010|AV-procd|sdf|11456|dock6
  -GOLD-   2272016393D 1   1.00000     0.00000
 Structure written by MMmdl.
 38 40  0  0  0  0  0  0  0  0  1 V2000
  153.9083  140.8223  160.6768 C   0  0  0  0  0  0  0  0  0  0  0  0
  153.0766  141.2194  159.5250 N   0  0  0  0  0  0  0  0  0  0  0  0
  152.7759  140.2692  158.5845 C   0  0  0  0  0  0  0  0  0  0  0  0
  153.1604  139.0997  158.6191 O   0  0  0  0  0  0  0  0  0  0  0  0
  151.9300  140.7621  157.4923 C   0  0  0  0  0  0  0  0  0  0  0  0
  151.5028  142.0456  157.4140 C   0  0  0  0  0  0  0  0  0  0  0  0
  150.7237  142.2533  156.2813 N   0  0  0  0  0  0  0  0  0  0  0  0
  150.7231  141.0436  155.7199 C   0  0  0  0  0  0  0  0  0  0  0  0
  151.4201  140.0954  156.3783 N   0  0  0  0  0  0  0  0  0  0  0  0
  151.5725  138.7066  155.9695 C   0  0  0  0  0  0  0  0  0  0  0  0
  151.1541  138.4656  154.5050 C   0  0  1  0  0  0  0  0  0  0  0  0
  151.7805  137.3044  153.9939 O   0  0  0  0  0  0  0  0  0  0  0  0
  149.6403  138.4095  154.3705 C   0  0  0  0  0  0  0  0  0  0  0  0
  148.9018  137.3728  154.9835 C   0  0  0  0  0  0  0  0  0  0  0  0
  147.4992  137.3327  154.8622 C   0  0  0  0  0  0  0  0  0  0  0  0
  146.8265  138.3300  154.1306 C   0  0  0  0  0  0  0  0  0  0  0  0
  147.5570  139.3684  153.5217 C   0  0  0  0  0  0  0  0  0  0  0  0
  148.9599  139.4087  153.6419 C   0  0  0  0  0  0  0  0  0  0  0  0
  151.8830  142.9529  158.4336 N   0  0  0  0  0  0  0  0  0  0  0  0
  151.4106  144.3351  158.3094 C   0  0  0  0  0  0  0  0  0  0  0  0
  152.6633  142.5406  159.4869 C   0  0  0  0  0  0  0  0  0  0  0  0
  152.9874  143.3311  160.3775 O   0  0  0  0  0  0  0  0  0  0  0  0
  154.2054  139.7731  160.6902 H   0  0  0  0  0  0  0  0  0  0  0  0
  153.3743  141.0023  161.6114 H   0  0  0  0  0  0  0  0  0  0  0  0
  154.8298  141.4064  160.6994 H   0  0  0  0  0  0  0  0  0  0  0  0
  150.1997  140.8397  154.7972 H   0  0  0  0  0  0  0  0  0  0  0  0
  152.5993  138.3874  156.1417 H   0  0  0  0  0  0  0  0  0  0  0  0
  150.9582  138.0929  156.6297 H   0  0  0  0  0  0  0  0  0  0  0  0
  151.5177  139.2981  153.9006 H   0  0  0  0  0  0  0  0  0  0  0  0
  151.5200  137.1967  153.0919 H   0  0  0  0  0  0  0  0  0  0  0  0
  149.4083  136.6058  155.5513 H   0  0  0  0  0  0  0  0  0  0  0  0
  146.9394  136.5372  155.3320 H   0  0  0  0  0  0  0  0  0  0  0  0
  145.7507  138.2998  154.0383 H   0  0  0  0  0  0  0  0  0  0  0  0
  147.0412  140.1355  152.9628 H   0  0  0  0  0  0  0  0  0  0  0  0
  149.5107  140.2114  153.1739 H   0  0  0  0  0  0  0  0  0  0  0  0
  151.7010  144.9872  159.1335 H   0  0  0  0  0  0  0  0  0  0  0  0
  150.3218  144.3532  158.2531 H   0  0  0  0  0  0  0  0  0  0  0  0
  151.7998  144.7783  157.3923 H   0  0  0  0  0  0  0  0  0  0  0  0
  1  2  1  0  0  0  0
  1 23  1  0  0  0  0
  1 24  1  0  0  0  0
  1 25  1  0  0  0  0
  2 21  1  0  0  0  0
  2  3  1  0  0  0  0
  3  4  2  0  0  0  0
  3  5  1  0  0  0  0
  5  9  1  0  0  0  0
  5  6  2  0  0  0  0
  6  7  1  0  0  0  0
  6 19  1  0  0  0  0
  7  8  2  0  0  0  0
  8  9  1  0  0  0  0
  8 26  1  0  0  0  0
  9 10  1  0  0  0  0
 10 11  1  0  0  0  0
 10 27  1  0  0  0  0
 10 28  1  0  0  0  0
 11 12  1  0  0  0  0
 11 13  1  0  0  0  0
 11 29  1  0  0  0  0
 12 30  1  0  0  0  0
 13 18  1  0  0  0  0
 13 14  2  0  0  0  0
 14 15  1  0  0  0  0
 14 31  1  0  0  0  0
 15 16  2  0  0  0  0
 15 32  1  0  0  0  0
 16 17  1  0  0  0  0
 16 33  1  0  0  0  0
 17 18  2  0  0  0  0
 17 34  1  0  0  0  0
 18 35  1  0  0  0  0
 19 20  1  0  0  0  0
 19 21  1  0  0  0  0
 20 36  1  0  0  0  0
 20 37  1  0  0  0  0
 20 38  1  0  0  0  0
 21 22  2  0  0  0  0
M  END
> <s_m_source_file>
AV-unprocessed.smi

> <i_m_source_file_index>
3010

> <i_lp_mmshare_version>
43012

> <i_f3d_flags>
0

> <s_epik_input>
Tz1jMW4oW0NIM10pYyg9TyluKFtDSDNdKWMoYzEyKW5bY0hdbjJbQ0gyXVtDQEhdKFtPSF0pYzNbY0hdW2NIXVtjSF1bY0hdW2NIXTM=

> <s_epik_cmdline>
J2VwaWtfcHl0aG9uJywgJy1waCcsICc3LjAnLCAnLXRuJywgJzgnLCAnLW1hJywgJzIwMCcsICctbWV0YWxfYmluZGluZycsICctaW1hZScsICc8aW5maWxlLm1hZT4nLCAnLW9tYWUnLCAnPG91dGZpbGUubWFlPic=

> <r_lp_tautomer_probability>
1

> <r_epik_Ionization_Penalty>
1.43747e-06

> <r_epik_Ionization_Penalty_Charging>
3.74189e-09

> <r_epik_Ionization_Penalty_Neutral>
1.43373e-06

> <r_epik_State_Penalty>
-0

> <r_epik_Charging_Adjusted_Penalty>
3.74189e-09

> <i_epik_Tot_Q>
0

> <i_epik_Tot_abs_Q>
0

> <r_epik_Metal_State_Penalty>
-0

> <b_epik_Metal_Only>
0

> <s_lp_Force_Field>
OPLS_2005

> <r_lp_Energy>
36.4427

> <b_lp_Chiralities_Consistent>
1

> <s_lp_Variant>
AV-unprocessed.smi:3010-2

> <Gold.Version>
5.8.1

> <Gold.Id.Protein>
6NUR|6NUR_protein|mol2

> <Gold.PLP.Fitness>
44.2929

> <Gold.PLP.PLP>
-39.0743

> <Gold.PLP.part.hbond>
-2.0000

> <Gold.PLP.part.metal>
0.0000

> <Gold.PLP.part.buried>
-2.5430

> <Gold.PLP.part.nonpolar>
-35.1500

> <Gold.PLP.part.repulsive>
0.1172

> <Gold.PLP.ligand.clash>
0.0000

> <Gold.PLP.ligand.torsion>
0.4065

> <Gold.PLP.Chemscore.Hbond>
2.0000

> <Gold.PLP.Chemscore.CHOScore>
0.0000

> <Gold.PLP.Chemscore.Metal>
0.0000

> <Gold.Chemscore.Hbonds>
donor molecule, donor type, donor heavy atom, donor atom, acceptor molecule, acceptor atom, score
      L1  H    12    30       P1  7949  0.99
      P1  H 10752 10764       L1    12  1.00

> <Gold.PLP.Chemscore.Internal.Correction>
0.0315

> <Gold.Rescore>
     Score         DG    S(hbond)    S(metal)    S(lipo)     H(rot)  DE(clash)    DE(int)     intcor
      8.22     -10.92       0.87        0.00      68.69       2.15       2.21       0.48       ----

> <Gold.Chemscore.Fitness>
8.2219

> <Gold.Chemscore.DG>
-10.9169

> <Gold.Chemscore.ZeroCoef>
-5.4800

> <Gold.Chemscore.Hbond>
0.8676

> <Gold.Chemscore.Metal>
0.0000

> <Gold.Chemscore.Lipo>
68.6878

> <Gold.Chemscore.Internal_Hbond>
0.0000

> <Gold.Chemscore.DEClash>
2.2107

> <Gold.Chemscore.DEInternal>
0.4843

> <Gold.Chemscore.Rot>
2.1474

> <Gold.Chemscore.Internal.Correction>
   9.000000E+99

> <Gold.Chemscore.Hbonds>
donor molecule, donor type, donor heavy atom, donor atom, acceptor molecule, acceptor atom, score
      L1  H    12    30       P1  7949  0.79
      P1  H 10752 10764       L1    12  0.24

> <Gold.Chemscore.Hbond.Weighted>
-2.8978

> <Gold.Chemscore.Metal.Weighted>
-0.0000

> <Gold.Chemscore.Lipo.Weighted>
-8.0365

> <Gold.Chemscore.Internal_Hbond.Weighted>
0.0000

> <Gold.Chemscore.DEClash.Weighted>
2.2107

> <Gold.Chemscore.DEInternal.Weighted>
0.4843

> <Gold.Chemscore.Rot.Weighted>
5.4974

> <Gold.Chemscore.Internal.Correction.Weighted>
   9.000000E+99

> <Gold.Protein.RotatedTorsions>
[ 6907 6896 6895 6894 ] final -151.65 input  -60.11 | X-H torsion
[ 7974 7965 7964 7962 ] final   87.64 input  175.53 | X-H torsion
[ 8008 7997 7996 7995 ] final  -92.76 input   59.86 | X-H torsion
[ 10167 10162 10161 10158 ] final -151.61 input  -65.29 | X-H torsion
[ 10718 10713 10712 10709 ] final  -78.39 input   66.30 | X-H torsion
[ 10763 10752 10751 10750 ] final  -82.79 input  -60.55 | X-H torsion
[ 11005 11000 10999 10996 ] final -143.35 input  -57.11 | X-H torsion

> <Gold.Protein.ActiveResidues>
 VAL166  LYS551  ARG553  GLY616  TRP617  ASP618  TYR619  PRO620  LYS621  CYS622 
 ASP623  PHE694  ASN695  SER759  ASP760  ASP761  ALA762  ILE779  LEU786  VAL792 
 PHE793  MET794  SER795  GLU796  ALA797  LYS798  CYS799  TRP800  GLU811  SER814 

> <Gold.Protein.RotatedAtoms>
  151.2163  133.4527  159.2599 H   0  0  0  0  0  0  0  0  0  0  0  0  # atno 6907 bound_to 6896
  151.0928  134.9926  159.8421 H   0  0  0  0  0  0  0  0  0  0  0  0  # atno 6908 bound_to 6896
  152.5436  134.2095  159.8797 H   0  0  0  0  0  0  0  0  0  0  0  0  # atno 6909 bound_to 6896
  145.5563  139.2300  143.2484 H   0  0  0  0  0  0  0  0  0  0  0  0  # atno 7974 bound_to 7965
  154.7272  140.0505  157.0693 H   0  0  0  0  0  0  0  0  0  0  0  0  # atno 8008 bound_to 7997
  155.0349  140.3162  155.4726 H   0  0  0  0  0  0  0  0  0  0  0  0  # atno 8009 bound_to 7997
  156.2832  140.2143  156.5472 H   0  0  0  0  0  0  0  0  0  0  0  0  # atno 8010 bound_to 7997
  139.7252  143.8894  152.2517 H   0  0  0  0  0  0  0  0  0  0  0  0  # atno 10167 bound_to 10162
  156.0119  130.4517  150.3490 H   0  0  0  0  0  0  0  0  0  0  0  0  # atno 10718 bound_to 10713
  154.5800  135.5579  153.7176 H   0  0  0  0  0  0  0  0  0  0  0  0  # atno 10763 bound_to 10752
  153.0078  135.6318  154.1996 H   0  0  0  0  0  0  0  0  0  0  0  0  # atno 10764 bound_to 10752
  154.1936  135.2881  155.2994 H   0  0  0  0  0  0  0  0  0  0  0  0  # atno 10765 bound_to 10752
  140.8134  134.2717  157.4931 H   0  0  0  0  0  0  0  0  0  0  0  0  # atno 11005 bound_to 11000
  146.1882  140.6387  142.9158 LP  0  0  0  0  0  0  0  0  0  0  0  0  # atno 17320 bound_to 7965
  144.7504  140.5177  143.6805 LP  0  0  0  0  0  0  0  0  0  0  0  0  # atno 17321 bound_to 7965
  139.8801  144.7022  150.8887 LP  0  0  0  0  0  0  0  0  0  0  0  0  # atno 17342 bound_to 10162
  140.7761  143.3668  151.1724 LP  0  0  0  0  0  0  0  0  0  0  0  0  # atno 17343 bound_to 10162
  157.1582  131.0338  151.2853 LP  0  0  0  0  0  0  0  0  0  0  0  0  # atno 17370 bound_to 10713
  157.4333  130.7503  149.7008 LP  0  0  0  0  0  0  0  0  0  0  0  0  # atno 17371 bound_to 10713
  139.8712  134.9496  156.4030 LP  0  0  0  0  0  0  0  0  0  0  0  0  # atno 17394 bound_to 11000
  140.9174  133.7669  155.9864 LP  0  0  0  0  0  0  0  0  0  0  0  0  # atno 17395 bound_to 11000

$$$$
