AV-unprocessed.smi:1582|AV-procd|sdf|6361|dock4
  -GOLD-   22720 6583D 1   1.00000     0.00000
 Structure written by MMmdl.
 41 42  0  0  0  0  0  0  0  0  2 V2000
  150.4855  135.4640  156.3152 O   0  0  0  0  0  0  0  0  0  0  0  0
  149.9960  135.5608  155.1899 C   0  0  0  0  0  0  0  0  0  0  0  0
  149.3330  134.5659  154.5838 N   0  0  0  0  0  0  0  0  0  0  0  0
  149.1240  133.2340  155.1425 C   0  0  0  0  0  0  0  0  0  0  0  0
  147.7234  132.6772  154.8122 C   0  0  2  0  0  0  0  0  0  0  0  0
  147.1314  132.2172  156.0114 O   0  0  0  0  0  0  0  0  0  0  0  0
  147.8078  131.4674  153.8581 C   0  0  0  0  0  0  0  0  0  0  0  0
  147.1151  131.7051  152.5649 N   0  3  0  0  0  0  0  0  0  0  0  0
  147.1693  133.1320  152.1523 C   0  0  0  0  0  0  0  0  0  0  0  0
  146.5745  133.3299  150.7480 C   0  0  0  0  0  0  0  0  0  0  0  0
  145.1374  132.7984  150.6803 C   0  0  0  0  0  0  0  0  0  0  0  0
  145.1008  131.3346  151.1375 C   0  0  0  0  0  0  0  0  0  0  0  0
  145.7240  131.1780  152.5348 C   0  0  0  0  0  0  0  0  0  0  0  0
  150.0494  136.6565  154.4151 N   0  0  0  0  0  0  0  0  0  0  0  0
  150.6851  137.8890  154.7106 C   0  0  0  0  0  0  0  0  0  0  0  0
  150.3984  139.1227  154.0653 C   0  0  0  0  0  0  0  0  0  0  0  0
  151.1488  140.1048  154.5436 N   0  0  0  0  0  0  0  0  0  0  0  0
  151.9111  139.5101  155.4890 N   0  0  0  0  0  0  0  0  0  0  0  0
  151.6630  138.1621  155.6257 C   0  0  0  0  0  0  0  0  0  0  0  0
  152.5894  140.0316  156.0262 H   0  0  0  0  0  0  0  0  0  0  0  0
  148.9646  134.7351  153.6592 H   0  0  0  0  0  0  0  0  0  0  0  0
  149.8834  132.5999  154.6841 H   0  0  0  0  0  0  0  0  0  0  0  0
  149.3255  133.2138  156.2154 H   0  0  0  0  0  0  0  0  0  0  0  0
  147.1071  133.4655  154.3799 H   0  0  0  0  0  0  0  0  0  0  0  0
  147.3653  132.8121  156.7091 H   0  0  0  0  0  0  0  0  0  0  0  0
  148.8480  131.2028  153.6619 H   0  0  0  0  0  0  0  0  0  0  0  0
  147.3668  130.6040  154.3595 H   0  0  0  0  0  0  0  0  0  0  0  0
  146.6322  133.7428  152.8798 H   0  0  0  0  0  0  0  0  0  0  0  0
  148.2042  133.4764  152.1508 H   0  0  0  0  0  0  0  0  0  0  0  0
  146.5942  134.3867  150.4802 H   0  0  0  0  0  0  0  0  0  0  0  0
  147.1919  132.8127  150.0122 H   0  0  0  0  0  0  0  0  0  0  0  0
  144.4897  133.4016  151.3178 H   0  0  0  0  0  0  0  0  0  0  0  0
  144.7489  132.8873  149.6653 H   0  0  0  0  0  0  0  0  0  0  0  0
  144.0721  130.9727  151.1447 H   0  0  0  0  0  0  0  0  0  0  0  0
  145.6428  130.7132  150.4232 H   0  0  0  0  0  0  0  0  0  0  0  0
  145.7098  130.1241  152.8092 H   0  0  0  0  0  0  0  0  0  0  0  0
  145.1184  131.7042  153.2745 H   0  0  0  0  0  0  0  0  0  0  0  0
  149.6019  136.5993  153.5121 H   0  0  0  0  0  0  0  0  0  0  0  0
  149.6862  139.3337  153.2810 H   0  0  0  0  0  0  0  0  0  0  0  0
  152.1910  137.5468  156.3390 H   0  0  0  0  0  0  0  0  0  0  0  0
  147.6409  131.1936  151.8700 H   0  0  0  0  0  0  0  0  0  0  0  0
  1  2  2  0  0  0  0
  2  3  1  0  0  0  0
  2 14  1  0  0  0  0
  3  4  1  0  0  0  0
  3 21  1  0  0  0  0
  4  5  1  0  0  0  0
  4 22  1  0  0  0  0
  4 23  1  0  0  0  0
  5  6  1  0  0  0  0
  5  7  1  0  0  0  0
  5 24  1  0  0  0  0
  6 25  1  0  0  0  0
  7  8  1  0  0  0  0
  7 26  1  0  0  0  0
  7 27  1  0  0  0  0
  8 13  1  0  0  0  0
  8  9  1  0  0  0  0
  8 41  1  0  0  0  0
  9 10  1  0  0  0  0
  9 28  1  0  0  0  0
  9 29  1  0  0  0  0
 10 11  1  0  0  0  0
 10 30  1  0  0  0  0
 10 31  1  0  0  0  0
 11 12  1  0  0  0  0
 11 32  1  0  0  0  0
 11 33  1  0  0  0  0
 12 13  1  0  0  0  0
 12 34  1  0  0  0  0
 12 35  1  0  0  0  0
 13 36  1  0  0  0  0
 13 37  1  0  0  0  0
 14 15  1  0  0  0  0
 14 38  1  0  0  0  0
 15 19  2  0  0  0  0
 15 16  1  0  0  0  0
 16 17  2  0  0  0  0
 16 39  1  0  0  0  0
 17 18  1  0  0  0  0
 18 20  1  0  0  0  0
 18 19  1  0  0  0  0
 19 40  1  0  0  0  0
M  CHG  1   8   1
M  END
> <s_m_source_file>
AV-unprocessed.smi

> <i_m_source_file_index>
1582

> <i_lp_mmshare_version>
43012

> <i_f3d_flags>
0

> <s_epik_input>
W2NIXTFbbkhdbltjSF1jMVtOSF1DKD1PKVtOSF1bQ0gyXVtDQEhdKFtPSF0pW0NIMl1OMltDSDJdW0NIMl1bQ0gyXVtDSDJdW0NIMl0y

> <s_epik_cmdline>
J2VwaWtfcHl0aG9uJywgJy1waCcsICc3LjAnLCAnLXRuJywgJzgnLCAnLW1hJywgJzIwMCcsICctbWV0YWxfYmluZGluZycsICctaW1hZScsICc8aW5maWxlLm1hZT4nLCAnLW9tYWUnLCAnPG91dGZpbGUubWFlPic=

> <r_lp_tautomer_probability>
0.5

> <r_epik_Ionization_Penalty>
0.00519658

> <r_epik_Ionization_Penalty_Charging>
0.00515354

> <r_epik_Ionization_Penalty_Neutral>
4.30332e-05

> <r_epik_State_Penalty>
0.00375424

> <r_epik_Charging_Adjusted_Penalty>
0.00890779

> <i_epik_Tot_Q>
1

> <i_epik_Tot_abs_Q>
1

> <r_epik_Metal_State_Penalty>
-0

> <b_epik_Metal_Only>
0

> <s_lp_Force_Field>
OPLS_2005

> <r_lp_Energy>
21.997

> <b_lp_Chiralities_Consistent>
1

> <s_lp_Variant>
AV-unprocessed.smi:1582-1

> <Gold.Version>
5.8.1

> <Gold.Id.Protein>
6NUR|6NUR_protein|mol2

> <Gold.PLP.Fitness>
42.4998

> <Gold.PLP.PLP>
-33.8788

> <Gold.PLP.part.hbond>
-5.4253

> <Gold.PLP.part.metal>
0.0000

> <Gold.PLP.part.buried>
-4.7711

> <Gold.PLP.part.nonpolar>
-25.6656

> <Gold.PLP.part.repulsive>
0.4102

> <Gold.PLP.ligand.clash>
0.0000

> <Gold.PLP.ligand.torsion>
2.1127

> <Gold.PLP.Chemscore.Hbond>
3.3160

> <Gold.PLP.Chemscore.CHOScore>
0.9496

> <Gold.PLP.Chemscore.Metal>
0.0000

> <Gold.Chemscore.Hbonds>
donor molecule, donor type, donor heavy atom, donor atom, acceptor molecule, acceptor atom, score
      L1  H     3    21       P1  7948  0.29
      L1  H     8    41       P1 10747  0.81
      L1  H    14    38       P1  7948  1.00
      P1  H  7989  7998       L1    17  0.63
      L1  C    16    39       P1  7957  1.00

> <Gold.PLP.Chemscore.Internal.Correction>
0.0497

> <Gold.Rescore>
     Score         DG    S(hbond)    S(metal)    S(lipo)     H(rot)  DE(clash)    DE(int)     intcor
     12.52     -15.57       2.39        0.00      74.70       2.59       0.02       3.02       ----

> <Gold.Chemscore.Fitness>
12.5231

> <Gold.Chemscore.DG>
-15.5671

> <Gold.Chemscore.ZeroCoef>
-5.4800

> <Gold.Chemscore.Hbond>
2.3865

> <Gold.Chemscore.Metal>
0.0000

> <Gold.Chemscore.Lipo>
74.7033

> <Gold.Chemscore.Internal_Hbond>
0.0000

> <Gold.Chemscore.DEClash>
0.0234

> <Gold.Chemscore.DEInternal>
3.0206

> <Gold.Chemscore.Rot>
2.5876

> <Gold.Chemscore.Internal.Correction>
   9.000000E+99

> <Gold.Chemscore.Hbonds>
donor molecule, donor type, donor heavy atom, donor atom, acceptor molecule, acceptor atom, score
      L1  H     3    21       P1  7948  0.09
      L1  H     8    41       P1 10747  0.80
      L1  H    14    38       P1  7948  0.60
      P1  H  7989  7998       L1    17  0.46

> <Gold.Chemscore.Hbond.Weighted>
-7.9710

> <Gold.Chemscore.Metal.Weighted>
-0.0000

> <Gold.Chemscore.Lipo.Weighted>
-8.7403

> <Gold.Chemscore.Internal_Hbond.Weighted>
0.0000

> <Gold.Chemscore.DEClash.Weighted>
0.0234

> <Gold.Chemscore.DEInternal.Weighted>
3.0206

> <Gold.Chemscore.Rot.Weighted>
6.6242

> <Gold.Chemscore.Internal.Correction.Weighted>
   9.000000E+99

> <Gold.Protein.RotatedTorsions>
[ 6907 6896 6895 6894 ] final   26.31 input  -60.11 | X-H torsion
[ 7974 7965 7964 7962 ] final  101.82 input  175.53 | X-H torsion
[ 8008 7997 7996 7995 ] final   31.20 input   59.86 | X-H torsion
[ 10167 10162 10161 10158 ] final  -19.18 input  -65.29 | X-H torsion
[ 10718 10713 10712 10709 ] final  129.40 input   66.30 | X-H torsion
[ 10763 10752 10751 10750 ] final -103.55 input  -60.55 | X-H torsion
[ 11005 11000 10999 10996 ] final  138.69 input  -57.11 | X-H torsion

> <Gold.Protein.ActiveResidues>
 VAL166  LYS551  ARG553  GLY616  TRP617  ASP618  TYR619  PRO620  LYS621  CYS622 
 ASP623  PHE694  ASN695  SER759  ASP760  ASP761  ALA762  ILE779  LEU786  VAL792 
 PHE793  MET794  SER795  GLU796  ALA797  LYS798  CYS799  TRP800  GLU811  SER814 

> <Gold.Protein.RotatedAtoms>
  151.9855  135.0006  160.0559 H   0  0  0  0  0  0  0  0  0  0  0  0  # atno 6907 bound_to 6896
  152.1656  133.4605  159.4891 H   0  0  0  0  0  0  0  0  0  0  0  0  # atno 6908 bound_to 6896
  150.6894  134.1934  159.4337 H   0  0  0  0  0  0  0  0  0  0  0  0  # atno 6909 bound_to 6896
  145.3672  139.2405  143.3475 H   0  0  0  0  0  0  0  0  0  0  0  0  # atno 7974 bound_to 7965
  155.1025  140.3231  155.4543 H   0  0  0  0  0  0  0  0  0  0  0  0  # atno 8008 bound_to 7997
  156.2713  140.2058  156.6098 H   0  0  0  0  0  0  0  0  0  0  0  0  # atno 8009 bound_to 7997
  154.6818  140.0525  157.0260 H   0  0  0  0  0  0  0  0  0  0  0  0  # atno 8010 bound_to 7997
  140.7266  143.4844  151.0075 H   0  0  0  0  0  0  0  0  0  0  0  0  # atno 10167 bound_to 10162
  157.5157  131.1097  150.9228 H   0  0  0  0  0  0  0  0  0  0  0  0  # atno 10718 bound_to 10713
  154.7815  135.4819  153.9855 H   0  0  0  0  0  0  0  0  0  0  0  0  # atno 10763 bound_to 10752
  153.1501  135.6789  153.8903 H   0  0  0  0  0  0  0  0  0  0  0  0  # atno 10764 bound_to 10752
  153.8550  135.3162  155.3413 H   0  0  0  0  0  0  0  0  0  0  0  0  # atno 10765 bound_to 10752
  140.0202  134.9400  157.0458 H   0  0  0  0  0  0  0  0  0  0  0  0  # atno 11005 bound_to 11000
  146.2901  140.4317  142.8742 LP  0  0  0  0  0  0  0  0  0  0  0  0  # atno 17320 bound_to 7965
  144.8603  140.7129  143.6112 LP  0  0  0  0  0  0  0  0  0  0  0  0  # atno 17321 bound_to 7965
  139.8544  143.7395  152.3176 LP  0  0  0  0  0  0  0  0  0  0  0  0  # atno 17342 bound_to 10162
  139.7589  144.7512  151.0394 LP  0  0  0  0  0  0  0  0  0  0  0  0  # atno 17343 bound_to 10162
  156.9854  130.5543  149.5299 LP  0  0  0  0  0  0  0  0  0  0  0  0  # atno 17370 bound_to 10713
  156.0319  130.5409  150.8555 LP  0  0  0  0  0  0  0  0  0  0  0  0  # atno 17371 bound_to 10713
  140.4401  134.1690  155.7173 LP  0  0  0  0  0  0  0  0  0  0  0  0  # atno 17394 bound_to 11000
  141.1768  133.8496  157.1392 LP  0  0  0  0  0  0  0  0  0  0  0  0  # atno 17395 bound_to 11000

$$$$
