AV-unprocessed.smi:11|AV-procd|sdf|58|dock9
  -GOLD-   2262015173D 1   1.00000     0.00000
 Structure written by MMmdl.
 34 36  0  0  0  0  0  0  0  0  2 V2000
  148.0528  139.8902  155.5344 C   0  0  0  0  0  0  0  0  0  0  0  0
  149.2964  139.1946  156.1142 C   0  0  0  0  0  0  0  0  0  0  0  0
  150.6543  139.7032  155.5693 C   0  0  2  0  0  0  0  0  0  0  0  0
  150.6914  139.4850  154.1725 O   0  0  0  0  0  0  0  0  0  0  0  0
  151.8339  138.9818  156.2366 C   0  0  0  0  0  0  0  0  0  0  0  0
  152.0950  139.8172  157.4882 C   0  0  0  0  0  0  0  0  0  0  0  0
  151.7643  141.1802  157.0981 N   0  0  0  0  0  0  0  0  0  0  0  0
  151.6596  142.2109  158.0538 C   0  0  0  0  0  0  0  0  0  0  0  0
  150.8485  143.2661  157.7659 N   0  0  0  0  0  0  0  0  0  0  0  0
  150.6835  144.2993  158.6039 C   0  0  0  0  0  0  0  0  0  0  0  0
  151.2964  144.3731  159.7893 N   0  3  0  0  0  0  0  0  0  0  0  0
  152.1042  143.3357  160.1248 C   0  0  0  0  0  0  0  0  0  0  0  0
  152.8384  143.1560  161.2783 N   0  0  0  0  0  0  0  0  0  0  0  0
  153.5178  141.9515  161.2234 C   0  0  0  0  0  0  0  0  0  0  0  0
  153.2348  141.3327  160.0315 C   0  0  0  0  0  0  0  0  0  0  0  0
  152.3403  142.2008  159.3063 C   0  0  0  0  0  0  0  0  0  0  0  0
  150.9322  141.1821  155.9023 C   0  0  0  0  0  0  0  0  0  0  0  0
  152.8903  143.7860  162.0663 H   0  0  0  0  0  0  0  0  0  0  0  0
  147.1445  139.4513  155.9475 H   0  0  0  0  0  0  0  0  0  0  0  0
  148.0014  139.7827  154.4508 H   0  0  0  0  0  0  0  0  0  0  0  0
  148.0320  140.9541  155.7678 H   0  0  0  0  0  0  0  0  0  0  0  0
  149.2761  139.2966  157.1996 H   0  0  0  0  0  0  0  0  0  0  0  0
  149.2115  138.1253  155.9160 H   0  0  0  0  0  0  0  0  0  0  0  0
  151.2707  138.7596  153.9965 H   0  0  0  0  0  0  0  0  0  0  0  0
  151.6371  137.9324  156.4585 H   0  0  0  0  0  0  0  0  0  0  0  0
  152.7152  139.0230  155.5940 H   0  0  0  0  0  0  0  0  0  0  0  0
  151.4449  139.4942  158.3026 H   0  0  0  0  0  0  0  0  0  0  0  0
  153.1305  139.7345  157.8200 H   0  0  0  0  0  0  0  0  0  0  0  0
  150.0350  145.1210  158.3375 H   0  0  0  0  0  0  0  0  0  0  0  0
  154.1472  141.6294  162.0407 H   0  0  0  0  0  0  0  0  0  0  0  0
  153.6103  140.3763  159.6994 H   0  0  0  0  0  0  0  0  0  0  0  0
  151.4978  141.6602  155.1015 H   0  0  0  0  0  0  0  0  0  0  0  0
  150.0134  141.7486  156.0461 H   0  0  0  0  0  0  0  0  0  0  0  0
  151.1634  145.1640  160.4194 H   0  0  0  0  0  0  0  0  0  0  0  0
  1  2  1  0  0  0  0
  1 19  1  0  0  0  0
  1 20  1  0  0  0  0
  1 21  1  0  0  0  0
  2  3  1  0  0  0  0
  2 22  1  0  0  0  0
  2 23  1  0  0  0  0
  3 17  1  0  0  0  0
  3  4  1  0  0  0  0
  3  5  1  0  0  0  0
  4 24  1  0  0  0  0
  5  6  1  0  0  0  0
  5 25  1  0  0  0  0
  5 26  1  0  0  0  0
  6  7  1  0  0  0  0
  6 27  1  0  0  0  0
  6 28  1  0  0  0  0
  7  8  1  0  0  0  0
  7 17  1  0  0  0  0
  8 16  1  0  0  0  0
  8  9  2  0  0  0  0
  9 10  1  0  0  0  0
 10 11  2  0  0  0  0
 10 29  1  0  0  0  0
 11 12  1  0  0  0  0
 11 34  1  0  0  0  0
 12 16  2  0  0  0  0
 12 13  1  0  0  0  0
 13 18  1  0  0  0  0
 13 14  1  0  0  0  0
 14 15  2  0  0  0  0
 14 30  1  0  0  0  0
 15 16  1  0  0  0  0
 15 31  1  0  0  0  0
 17 32  1  0  0  0  0
 17 33  1  0  0  0  0
M  CHG  1  11   1
M  END
> <s_m_source_file>
AV-unprocessed.smi

> <i_m_source_file_index>
11

> <i_lp_mmshare_version>
43012

> <i_f3d_flags>
0

> <s_epik_input>
W0NIM11bQ0gyXVtDQEBdMShbT0hdKVtDSDJdW0NIMl1OKFtDSDJdMSljKG5bY0hdbjIpYyhjMjMpW2NIXVtjSF1bbkhdMw==

> <s_epik_cmdline>
J2VwaWtfcHl0aG9uJywgJy1waCcsICc3LjAnLCAnLXRuJywgJzgnLCAnLW1hJywgJzIwMCcsICctbWV0YWxfYmluZGluZycsICctaW1hZScsICc8aW5maWxlLm1hZT4nLCAnLW9tYWUnLCAnPG91dGZpbGUubWFlPic=

> <r_lp_tautomer_probability>
1.75997e-05

> <r_epik_Ionization_Penalty>
1.53257

> <r_epik_Ionization_Penalty_Charging>
1.53255

> <r_epik_Ionization_Penalty_Neutral>
1.78556e-05

> <r_epik_State_Penalty>
1.6253

> <r_epik_Charging_Adjusted_Penalty>
3.15785

> <i_epik_Tot_Q>
1

> <i_epik_Tot_abs_Q>
1

> <r_epik_Metal_State_Penalty>
1.66891

> <b_epik_Metal_Only>
0

> <s_lp_Force_Field>
OPLS_2005

> <r_lp_Energy>
33.3454

> <b_lp_Chiralities_Consistent>
1

> <s_lp_Variant>
AV-unprocessed.smi:11-4

> <Gold.Version>
5.8.1

> <Gold.Id.Protein>
6NUR|6NUR_protein|mol2

> <Gold.PLP.Fitness>
36.3588

> <Gold.PLP.PLP>
-30.3926

> <Gold.PLP.part.hbond>
-1.3161

> <Gold.PLP.part.metal>
0.0000

> <Gold.PLP.part.buried>
-4.7534

> <Gold.PLP.part.nonpolar>
-24.0586

> <Gold.PLP.part.repulsive>
0.3105

> <Gold.PLP.ligand.clash>
0.0000

> <Gold.PLP.ligand.torsion>
0.1595

> <Gold.PLP.Chemscore.Hbond>
1.0000

> <Gold.PLP.Chemscore.CHOScore>
1.0140

> <Gold.PLP.Chemscore.Metal>
0.0000

> <Gold.Chemscore.Hbonds>
donor molecule, donor type, donor heavy atom, donor atom, acceptor molecule, acceptor atom, score
      P1  H  7989  7998       L1     4  1.00
      L1  C    10    29       P1  8028  0.01
      L1  C    10    29       P1  8029  1.00

> <Gold.PLP.Chemscore.Internal.Correction>
0.2432

> <Gold.Rescore>
     Score         DG    S(hbond)    S(metal)    S(lipo)     H(rot)  DE(clash)    DE(int)     intcor
     11.72     -11.90       0.94        0.00      59.50       1.44       0.01       0.17       ----

> <Gold.Chemscore.Fitness>
11.7198

> <Gold.Chemscore.DG>
-11.8958

> <Gold.Chemscore.ZeroCoef>
-5.4800

> <Gold.Chemscore.Hbond>
0.9397

> <Gold.Chemscore.Metal>
0.0000

> <Gold.Chemscore.Lipo>
59.5025

> <Gold.Chemscore.Internal_Hbond>
0.0000

> <Gold.Chemscore.DEClash>
0.0086

> <Gold.Chemscore.DEInternal>
0.1674

> <Gold.Chemscore.Rot>
1.4392

> <Gold.Chemscore.Internal.Correction>
   9.000000E+99

> <Gold.Chemscore.Hbonds>
donor molecule, donor type, donor heavy atom, donor atom, acceptor molecule, acceptor atom, score
      P1  H  7989  7998       L1     4  0.17

> <Gold.Chemscore.Hbond.Weighted>
-3.1385

> <Gold.Chemscore.Metal.Weighted>
-0.0000

> <Gold.Chemscore.Lipo.Weighted>
-6.9618

> <Gold.Chemscore.Internal_Hbond.Weighted>
0.0000

> <Gold.Chemscore.DEClash.Weighted>
0.0086

> <Gold.Chemscore.DEInternal.Weighted>
0.1674

> <Gold.Chemscore.Rot.Weighted>
3.6844

> <Gold.Chemscore.Internal.Correction.Weighted>
   9.000000E+99

> <Gold.Protein.RotatedTorsions>
[ 6907 6896 6895 6894 ] final  -53.64 input  -60.11 | X-H torsion
[ 7974 7965 7964 7962 ] final  -52.32 input  175.53 | X-H torsion
[ 8008 7997 7996 7995 ] final  -12.04 input   59.86 | X-H torsion
[ 10167 10162 10161 10158 ] final   19.09 input  -65.29 | X-H torsion
[ 10718 10713 10712 10709 ] final  -73.18 input   66.30 | X-H torsion
[ 10763 10752 10751 10750 ] final  -26.54 input  -60.55 | X-H torsion
[ 11005 11000 10999 10996 ] final  -79.78 input  -57.11 | X-H torsion

> <Gold.Protein.ActiveResidues>
 VAL166  LYS551  ARG553  GLY616  TRP617  ASP618  TYR619  PRO620  LYS621  CYS622 
 ASP623  PHE694  ASN695  SER759  ASP760  ASP761  ALA762  ILE779  LEU786  VAL792 
 PHE793  MET794  SER795  GLU796  ALA797  LYS798  CYS799  TRP800  GLU811  SER814 

> <Gold.Protein.RotatedAtoms>
  150.8409  134.7700  159.6930 H   0  0  0  0  0  0  0  0  0  0  0  0  # atno 6907 bound_to 6896
  152.4496  134.5418  159.9851 H   0  0  0  0  0  0  0  0  0  0  0  0  # atno 6908 bound_to 6896
  151.5558  133.3372  159.2997 H   0  0  0  0  0  0  0  0  0  0  0  0  # atno 6909 bound_to 6896
  145.9093  140.7929  142.9703 H   0  0  0  0  0  0  0  0  0  0  0  0  # atno 7974 bound_to 7965
  154.5411  140.2286  155.8639 H   0  0  0  0  0  0  0  0  0  0  0  0  # atno 8008 bound_to 7997
  156.1859  140.3089  155.9200 H   0  0  0  0  0  0  0  0  0  0  0  0  # atno 8009 bound_to 7997
  155.3255  140.0442  157.3031 H   0  0  0  0  0  0  0  0  0  0  0  0  # atno 8010 bound_to 7997
  140.5605  143.9346  150.6639 H   0  0  0  0  0  0  0  0  0  0  0  0  # atno 10167 bound_to 10162
  156.0290  130.4388  150.2704 H   0  0  0  0  0  0  0  0  0  0  0  0  # atno 10718 bound_to 10713
  153.7176  135.6947  153.5021 H   0  0  0  0  0  0  0  0  0  0  0  0  # atno 10763 bound_to 10752
  153.2227  135.4364  155.0506 H   0  0  0  0  0  0  0  0  0  0  0  0  # atno 10764 bound_to 10752
  154.8295  135.3464  154.6711 H   0  0  0  0  0  0  0  0  0  0  0  0  # atno 10765 bound_to 10752
  141.1667  133.7121  156.8174 H   0  0  0  0  0  0  0  0  0  0  0  0  # atno 11005 bound_to 11000
  144.6742  140.1799  143.7406 LP  0  0  0  0  0  0  0  0  0  0  0  0  # atno 17320 bound_to 7965
  145.8692  139.2263  143.1671 LP  0  0  0  0  0  0  0  0  0  0  0  0  # atno 17321 bound_to 7965
  140.2795  143.3399  152.1164 LP  0  0  0  0  0  0  0  0  0  0  0  0  # atno 17342 bound_to 10162
  139.5068  144.6820  151.5984 LP  0  0  0  0  0  0  0  0  0  0  0  0  # atno 17343 bound_to 10162
  157.0807  131.0142  151.3157 LP  0  0  0  0  0  0  0  0  0  0  0  0  # atno 17370 bound_to 10713
  157.4929  130.7833  149.7526 LP  0  0  0  0  0  0  0  0  0  0  0  0  # atno 17371 bound_to 10713
  140.2144  134.8803  157.3309 LP  0  0  0  0  0  0  0  0  0  0  0  0  # atno 17394 bound_to 11000
  140.2053  134.4205  155.7641 LP  0  0  0  0  0  0  0  0  0  0  0  0  # atno 17395 bound_to 11000

$$$$
