AV-unprocessed.smi:1428|AV-procd|sdf|5816|dock2
  -GOLD-   22720 5473D 1   1.00000     0.00000
 Structure written by MMmdl.
 43 44  0  0  0  0  0  0  0  0  3 V2000
  151.6624  145.5388  159.9240 C   0  0  0  0  0  0  0  0  0  0  0  0
  151.4738  144.3890  159.1060 O   0  0  0  0  0  0  0  0  0  0  0  0
  152.2114  143.2535  159.3835 C   0  0  0  0  0  0  0  0  0  0  0  0
  153.0720  143.2854  160.4319 N   0  0  0  0  0  0  0  0  0  0  0  0
  153.7907  142.1783  160.7076 C   0  0  0  0  0  0  0  0  0  0  0  0
  153.6861  140.9882  159.9654 C   0  0  0  0  0  0  0  0  0  0  0  0
  152.7932  140.9516  158.8786 C   0  0  0  0  0  0  0  0  0  0  0  0
  152.0415  142.1111  158.5659 C   0  0  0  0  0  0  0  0  0  0  0  0
  151.1016  142.1881  157.4994 N   0  0  0  0  0  0  0  0  0  0  0  0
  150.3472  141.2152  156.9599 C   0  0  0  0  0  0  0  0  0  0  0  0
  150.3478  140.0340  157.3048 O   0  0  0  0  0  0  0  0  0  0  0  0
  149.5839  141.6914  155.9657 N   0  0  0  0  0  0  0  0  0  0  0  0
  148.6420  140.9020  155.1772 C   0  0  2  0  0  0  0  0  0  0  0  0
  149.3704  139.8082  154.3744 C   0  0  0  0  0  0  0  0  0  0  0  0
  148.3909  139.0385  153.4735 C   0  0  0  0  0  0  0  0  0  0  0  0
  147.6647  139.9610  152.5604 N   0  3  1  0  0  0  0  0  0  0  0  0
  146.8050  139.2563  151.5752 C   0  0  0  0  0  0  0  0  0  0  0  0
  146.1851  137.9990  152.1945 C   0  0  0  0  0  0  0  0  0  0  0  0
  146.4036  136.8975  151.4478 N   0  5  0  0  0  0  0  0  0  0  0  0
  145.5740  138.0823  153.2571 O   0  0  0  0  0  0  0  0  0  0  0  0
  146.9262  141.0085  153.3098 C   0  0  0  0  0  0  0  0  0  0  0  0
  147.8728  141.8182  154.2119 C   0  0  0  0  0  0  0  0  0  0  0  0
  151.0155  146.3420  159.5717 H   0  0  0  0  0  0  0  0  0  0  0  0
  152.6910  145.8992  159.8773 H   0  0  0  0  0  0  0  0  0  0  0  0
  151.4006  145.3355  160.9636 H   0  0  0  0  0  0  0  0  0  0  0  0
  154.4650  142.2409  161.5489 H   0  0  0  0  0  0  0  0  0  0  0  0
  154.2744  140.1212  160.2265 H   0  0  0  0  0  0  0  0  0  0  0  0
  152.6987  140.0332  158.3217 H   0  0  0  0  0  0  0  0  0  0  0  0
  151.0321  143.0943  157.0594 H   0  0  0  0  0  0  0  0  0  0  0  0
  149.6518  142.6742  155.7447 H   0  0  0  0  0  0  0  0  0  0  0  0
  147.9220  140.4320  155.8503 H   0  0  0  0  0  0  0  0  0  0  0  0
  150.1525  140.2559  153.7591 H   0  0  0  0  0  0  0  0  0  0  0  0
  149.8692  139.1110  155.0487 H   0  0  0  0  0  0  0  0  0  0  0  0
  148.9452  138.2968  152.8976 H   0  0  0  0  0  0  0  0  0  0  0  0
  147.6727  138.4895  154.0845 H   0  0  0  0  0  0  0  0  0  0  0  0
  146.0293  139.9253  151.1993 H   0  0  0  0  0  0  0  0  0  0  0  0
  147.3934  138.9461  150.7098 H   0  0  0  0  0  0  0  0  0  0  0  0
  147.3690  136.5683  151.3274 H   0  0  0  0  0  0  0  0  0  0  0  0
  146.4373  141.6860  152.6087 H   0  0  0  0  0  0  0  0  0  0  0  0
  146.1385  140.5446  153.9056 H   0  0  0  0  0  0  0  0  0  0  0  0
  147.3014  142.5590  154.7725 H   0  0  0  0  0  0  0  0  0  0  0  0
  148.5749  142.3750  153.5890 H   0  0  0  0  0  0  0  0  0  0  0  0
  148.3620  140.4409  152.0079 H   0  0  0  0  0  0  0  0  0  0  0  0
  1  2  1  0  0  0  0
  1 23  1  0  0  0  0
  1 24  1  0  0  0  0
  1 25  1  0  0  0  0
  2  3  1  0  0  0  0
  3  8  1  0  0  0  0
  3  4  2  0  0  0  0
  4  5  1  0  0  0  0
  5  6  2  0  0  0  0
  5 26  1  0  0  0  0
  6  7  1  0  0  0  0
  6 27  1  0  0  0  0
  7  8  2  0  0  0  0
  7 28  1  0  0  0  0
  8  9  1  0  0  0  0
  9 10  1  0  0  0  0
  9 29  1  0  0  0  0
 10 11  2  0  0  0  0
 10 12  1  0  0  0  0
 12 13  1  0  0  0  0
 12 30  1  0  0  0  0
 13 22  1  0  0  0  0
 13 14  1  0  0  0  0
 13 31  1  0  0  0  0
 14 15  1  0  0  0  0
 14 32  1  0  0  0  0
 14 33  1  0  0  0  0
 15 16  1  0  0  0  0
 15 34  1  0  0  0  0
 15 35  1  0  0  0  0
 16 17  1  0  0  0  0
 16 21  1  0  0  0  0
 16 43  1  0  0  0  0
 17 18  1  0  0  0  0
 17 36  1  0  0  0  0
 17 37  1  0  0  0  0
 18 19  1  0  0  0  0
 18 20  2  0  0  0  0
 19 38  1  0  0  0  0
 21 22  1  0  0  0  0
 21 39  1  0  0  0  0
 21 40  1  0  0  0  0
 22 41  1  0  0  0  0
 22 42  1  0  0  0  0
M  CHG  1  16   1
M  CHG  1  19  -1
M  END
> <s_m_source_file>
AV-unprocessed.smi

> <i_m_source_file_index>
1428

> <i_lp_mmshare_version>
43012

> <i_f3d_flags>
0

> <s_epik_input>
W0NIM11PYzFuW2NIXVtjSF1bY0hdYzFbTkhdQyg9TylbTkhdW0NIXTJbQ0gyXVtDSDJdTihbQ0gyXVtDSDJdMilbQ0gyXUMoPU8pW05IMl0=

> <s_epik_cmdline>
J2VwaWtfcHl0aG9uJywgJy1waCcsICc3LjAnLCAnLXRuJywgJzgnLCAnLW1hJywgJzIwMCcsICctbWV0YWxfYmluZGluZycsICctaW1hZScsICc8aW5maWxlLm1hZT4nLCAnLW9tYWUnLCAnPG91dGZpbGUubWFlPic=

> <r_lp_tautomer_probability>
1

> <r_epik_Ionization_Penalty>
5.72888

> <r_epik_Ionization_Penalty_Charging>
5.7288

> <r_epik_Ionization_Penalty_Neutral>
7.84403e-05

> <r_epik_State_Penalty>
6.54882

> <r_epik_Charging_Adjusted_Penalty>
12.2776

> <i_epik_Tot_Q>
0

> <i_epik_Tot_abs_Q>
2

> <r_epik_Metal_State_Penalty>
2.51301

> <b_epik_Metal_Only>
1

> <s_lp_Force_Field>
OPLS_2005

> <r_lp_Energy>
10.0981

> <b_lp_Chiralities_Consistent>
1

> <s_lp_Variant>
AV-unprocessed.smi:1428-4

> <Gold.Version>
5.8.1

> <Gold.Id.Protein>
6NUR|6NUR_protein|mol2

> <Gold.PLP.Fitness>
48.4764

> <Gold.PLP.PLP>
-42.3142

> <Gold.PLP.part.hbond>
-2.3230

> <Gold.PLP.part.metal>
0.0000

> <Gold.PLP.part.buried>
-3.5903

> <Gold.PLP.part.nonpolar>
-38.0483

> <Gold.PLP.part.repulsive>
0.6857

> <Gold.PLP.ligand.clash>
0.0000

> <Gold.PLP.ligand.torsion>
0.6098

> <Gold.PLP.Chemscore.Hbond>
2.4498

> <Gold.PLP.Chemscore.CHOScore>
0.0000

> <Gold.PLP.Chemscore.Metal>
0.0000

> <Gold.Chemscore.Hbonds>
donor molecule, donor type, donor heavy atom, donor atom, acceptor molecule, acceptor atom, score
      L1  H    12    30       P1  8028  0.62
      L1  H    16    43       P1  7957  0.75
      L1  H    19    38       P1  7948  1.00

> <Gold.PLP.Chemscore.Internal.Correction>
0.0326

> <Gold.Rescore>
     Score         DG    S(hbond)    S(metal)    S(lipo)     H(rot)  DE(clash)    DE(int)     intcor
     17.94     -19.46       2.71        0.00      92.27       2.29       0.03       1.48       ----

> <Gold.Chemscore.Fitness>
17.9408

> <Gold.Chemscore.DG>
-19.4561

> <Gold.Chemscore.ZeroCoef>
-5.4800

> <Gold.Chemscore.Hbond>
2.7068

> <Gold.Chemscore.Metal>
0.0000

> <Gold.Chemscore.Lipo>
92.2740

> <Gold.Chemscore.Internal_Hbond>
0.0000

> <Gold.Chemscore.DEClash>
0.0337

> <Gold.Chemscore.DEInternal>
1.4816

> <Gold.Chemscore.Rot>
2.2894

> <Gold.Chemscore.Internal.Correction>
   9.000000E+99

> <Gold.Chemscore.Hbonds>
donor molecule, donor type, donor heavy atom, donor atom, acceptor molecule, acceptor atom, score
      L1  H    12    30       P1  8028  0.59
      L1  H    16    43       P1  7957  0.70
      L1  H    19    38       P1  7948  0.98

> <Gold.Chemscore.Hbond.Weighted>
-9.0409

> <Gold.Chemscore.Metal.Weighted>
-0.0000

> <Gold.Chemscore.Lipo.Weighted>
-10.7961

> <Gold.Chemscore.Internal_Hbond.Weighted>
0.0000

> <Gold.Chemscore.DEClash.Weighted>
0.0337

> <Gold.Chemscore.DEInternal.Weighted>
1.4816

> <Gold.Chemscore.Rot.Weighted>
5.8608

> <Gold.Chemscore.Internal.Correction.Weighted>
   9.000000E+99

> <Gold.Protein.RotatedTorsions>
[ 6907 6896 6895 6894 ] final  -31.31 input  -60.11 | X-H torsion
[ 7974 7965 7964 7962 ] final -116.53 input  175.53 | X-H torsion
[ 8008 7997 7996 7995 ] final  -34.96 input   59.86 | X-H torsion
[ 10167 10162 10161 10158 ] final  -19.80 input  -65.29 | X-H torsion
[ 10718 10713 10712 10709 ] final -152.03 input   66.30 | X-H torsion
[ 10763 10752 10751 10750 ] final -141.81 input  -60.55 | X-H torsion
[ 11005 11000 10999 10996 ] final  -72.82 input  -57.11 | X-H torsion

> <Gold.Protein.ActiveResidues>
 VAL166  LYS551  ARG553  GLY616  TRP617  ASP618  TYR619  PRO620  LYS621  CYS622 
 ASP623  PHE694  ASN695  SER759  ASP760  ASP761  ALA762  ILE779  LEU786  VAL792 
 PHE793  MET794  SER795  GLU796  ALA797  LYS798  CYS799  TRP800  GLU811  SER814 

> <Gold.Protein.RotatedAtoms>
  151.0939  134.9932  159.8415 H   0  0  0  0  0  0  0  0  0  0  0  0  # atno 6907 bound_to 6896
  152.5431  134.2032  159.8730 H   0  0  0  0  0  0  0  0  0  0  0  0  # atno 6908 bound_to 6896
  151.2070  133.4533  159.2631 H   0  0  0  0  0  0  0  0  0  0  0  0  # atno 6909 bound_to 6896
  145.0957  140.8519  143.3956 H   0  0  0  0  0  0  0  0  0  0  0  0  # atno 7974 bound_to 7965
  154.4107  140.1670  156.2135 H   0  0  0  0  0  0  0  0  0  0  0  0  # atno 8008 bound_to 7997
  155.9424  140.3407  155.6315 H   0  0  0  0  0  0  0  0  0  0  0  0  # atno 8009 bound_to 7997
  155.6972  140.0741  157.2415 H   0  0  0  0  0  0  0  0  0  0  0  0  # atno 8010 bound_to 7997
  140.7271  143.4784  151.0151 H   0  0  0  0  0  0  0  0  0  0  0  0  # atno 10167 bound_to 10162
  156.4671  130.8241  151.2471 H   0  0  0  0  0  0  0  0  0  0  0  0  # atno 10718 bound_to 10713
  154.8532  135.3514  154.5927 H   0  0  0  0  0  0  0  0  0  0  0  0  # atno 10763 bound_to 10752
  153.6537  135.6993  153.5205 H   0  0  0  0  0  0  0  0  0  0  0  0  # atno 10764 bound_to 10752
  153.2873  135.4245  155.1092 H   0  0  0  0  0  0  0  0  0  0  0  0  # atno 10765 bound_to 10752
  141.1614  133.6859  156.7118 H   0  0  0  0  0  0  0  0  0  0  0  0  # atno 11005 bound_to 11000
  145.1013  139.2820  143.5684 LP  0  0  0  0  0  0  0  0  0  0  0  0  # atno 17320 bound_to 7965
  146.3531  140.0581  142.8631 LP  0  0  0  0  0  0  0  0  0  0  0  0  # atno 17321 bound_to 7965
  139.8481  143.7475  152.3179 LP  0  0  0  0  0  0  0  0  0  0  0  0  # atno 17342 bound_to 10162
  139.7647  144.7495  151.0312 LP  0  0  0  0  0  0  0  0  0  0  0  0  # atno 17343 bound_to 10162
  157.7494  131.0088  150.3243 LP  0  0  0  0  0  0  0  0  0  0  0  0  # atno 17370 bound_to 10713
  156.3656  130.3854  149.7216 LP  0  0  0  0  0  0  0  0  0  0  0  0  # atno 17371 bound_to 10713
  140.2881  134.8262  157.3993 LP  0  0  0  0  0  0  0  0  0  0  0  0  # atno 17394 bound_to 11000
  140.1371  134.5019  155.8060 LP  0  0  0  0  0  0  0  0  0  0  0  0  # atno 17395 bound_to 11000

$$$$
