AV-unprocessed.smi:1208|AV-procd|sdf|5063|dock6
  -GOLD-   22720 4103D 1   1.00000     0.00000
 Structure written by MMmdl.
 35 36  0  0  0  0  0  0  0  0  2 V2000
  151.2624  137.7935  156.6997 C   0  0  0  0  0  0  0  0  0  0  0  0
  150.6897  138.8910  157.6085 C   0  0  2  0  0  0  0  0  0  0  0  0
  149.3766  138.4702  158.0935 N   0  0  0  0  0  0  0  0  0  0  0  0
  149.1149  137.3712  158.8184 C   0  0  0  0  0  0  0  0  0  0  0  0
  149.9812  136.5702  159.1727 O   0  0  0  0  0  0  0  0  0  0  0  0
  147.6438  137.1735  159.2159 C   0  0  0  0  0  0  0  0  0  0  0  0
  147.4580  136.4572  160.4863 N   0  0  0  0  0  0  0  0  0  0  0  0
  147.8854  137.2137  161.6599 N   0  5  0  0  0  0  0  0  0  0  0  0
  147.7686  136.6488  162.8910 C   0  0  0  0  0  0  0  0  0  0  0  0
  148.1218  137.2175  163.9214 O   0  0  0  0  0  0  0  0  0  0  0  0
  147.1962  135.3157  162.9806 C   0  0  0  0  0  0  0  0  0  0  0  0
  146.7892  134.6496  161.8822 C   0  0  0  0  0  0  0  0  0  0  0  0
  146.8991  135.2145  160.5428 C   0  0  0  0  0  0  0  0  0  0  0  0
  146.5172  134.6166  159.5363 O   0  0  0  0  0  0  0  0  0  0  0  0
  150.5725  140.2446  156.8803 C   0  0  1  0  0  0  0  0  0  0  0  0
  149.9754  140.1623  155.4729 C   0  0  0  0  0  0  0  0  0  0  0  0
  149.4156  141.5540  155.2935 C   0  0  0  0  0  0  0  0  0  0  0  0
  148.8731  141.8475  156.6880 C   0  0  0  0  0  0  0  0  0  0  0  0
  149.7060  141.1267  157.5925 O   0  0  0  0  0  0  0  0  0  0  0  0
  152.2605  138.0547  156.3475 H   0  0  0  0  0  0  0  0  0  0  0  0
  150.6325  137.6324  155.8243 H   0  0  0  0  0  0  0  0  0  0  0  0
  151.3416  136.8453  157.2329 H   0  0  0  0  0  0  0  0  0  0  0  0
  151.3771  139.0189  158.4467 H   0  0  0  0  0  0  0  0  0  0  0  0
  148.5977  139.0683  157.8598 H   0  0  0  0  0  0  0  0  0  0  0  0
  147.1747  138.1580  159.2598 H   0  0  0  0  0  0  0  0  0  0  0  0
  147.1231  136.6365  158.4209 H   0  0  0  0  0  0  0  0  0  0  0  0
  147.0926  134.8503  163.9496 H   0  0  0  0  0  0  0  0  0  0  0  0
  146.3673  133.6623  161.9962 H   0  0  0  0  0  0  0  0  0  0  0  0
  151.5511  140.7239  156.8193 H   0  0  0  0  0  0  0  0  0  0  0  0
  150.7104  139.8960  154.7126 H   0  0  0  0  0  0  0  0  0  0  0  0
  149.1681  139.4288  155.4394 H   0  0  0  0  0  0  0  0  0  0  0  0
  150.2170  142.2510  155.0447 H   0  0  0  0  0  0  0  0  0  0  0  0
  148.6525  141.6147  154.5171 H   0  0  0  0  0  0  0  0  0  0  0  0
  148.8653  142.9136  156.9156 H   0  0  0  0  0  0  0  0  0  0  0  0
  147.8535  141.4726  156.7857 H   0  0  0  0  0  0  0  0  0  0  0  0
  1  2  1  0  0  0  0
  1 20  1  0  0  0  0
  1 21  1  0  0  0  0
  1 22  1  0  0  0  0
  2  3  1  0  0  0  0
  2 15  1  0  0  0  0
  2 23  1  0  0  0  0
  3  4  1  0  0  0  0
  3 24  1  0  0  0  0
  4  5  2  0  0  0  0
  4  6  1  0  0  0  0
  6 25  1  0  0  0  0
  6 26  1  0  0  0  0
  6  7  1  0  0  0  0
  7  8  1  0  0  0  0
  7 13  1  0  0  0  0
  8  9  1  0  0  0  0
  9 10  2  0  0  0  0
  9 11  1  0  0  0  0
 11 27  1  0  0  0  0
 11 12  2  0  0  0  0
 12 28  1  0  0  0  0
 12 13  1  0  0  0  0
 13 14  2  0  0  0  0
 15 19  1  0  0  0  0
 15 16  1  0  0  0  0
 15 29  1  0  0  0  0
 16 17  1  0  0  0  0
 16 30  1  0  0  0  0
 16 31  1  0  0  0  0
 17 18  1  0  0  0  0
 17 32  1  0  0  0  0
 17 33  1  0  0  0  0
 18 19  1  0  0  0  0
 18 34  1  0  0  0  0
 18 35  1  0  0  0  0
M  CHG  1   8  -1
M  END
> <s_m_source_file>
AV-unprocessed.smi

> <i_m_source_file_index>
1208

> <i_lp_mmshare_version>
43012

> <i_f3d_flags>
0

> <s_epik_input>
TzFbQ0gyXVtDSDJdW0NIMl1bQ0BIXTFbQ0BIXShbQ0gzXSlbTkhdQyg9TylbQ0gyXW4yW25IXWMoPU8pW2NIXVtjSF1jMj1P

> <s_epik_cmdline>
J2VwaWtfcHl0aG9uJywgJy1waCcsICc3LjAnLCAnLXRuJywgJzgnLCAnLW1hJywgJzIwMCcsICctbWV0YWxfYmluZGluZycsICctaW1hZScsICc8aW5maWxlLm1hZT4nLCAnLW9tYWUnLCAnPG91dGZpbGUubWFlPic=

> <r_lp_tautomer_probability>
1

> <r_epik_Ionization_Penalty>
0.0975494

> <r_epik_Ionization_Penalty_Charging>
0.0975494

> <r_epik_Ionization_Penalty_Neutral>
2.30132e-08

> <r_epik_State_Penalty>
0.034345

> <r_epik_Charging_Adjusted_Penalty>
0.131894

> <i_epik_Tot_Q>
-1

> <i_epik_Tot_abs_Q>
1

> <r_epik_Metal_State_Penalty>
0.034345

> <b_epik_Metal_Only>
0

> <s_lp_Force_Field>
OPLS_2005

> <r_lp_Energy>
33.2444

> <b_lp_Chiralities_Consistent>
1

> <s_lp_Variant>
AV-unprocessed.smi:1208-3

> <Gold.Version>
5.8.1

> <Gold.Id.Protein>
6NUR|6NUR_protein|mol2

> <Gold.PLP.Fitness>
42.3145

> <Gold.PLP.PLP>
-30.8160

> <Gold.PLP.part.hbond>
-4.0407

> <Gold.PLP.part.metal>
0.0000

> <Gold.PLP.part.buried>
-2.2068

> <Gold.PLP.part.nonpolar>
-25.2527

> <Gold.PLP.part.repulsive>
0.2349

> <Gold.PLP.ligand.clash>
0.0000

> <Gold.PLP.ligand.torsion>
0.7002

> <Gold.PLP.Chemscore.Hbond>
4.2886

> <Gold.PLP.Chemscore.CHOScore>
0.0000

> <Gold.PLP.Chemscore.Metal>
0.0000

> <Gold.Chemscore.Hbonds>
donor molecule, donor type, donor heavy atom, donor atom, acceptor molecule, acceptor atom, score
      P1  H  6896  6907       L1     5  1.00
      P1  H  6931  6943       L1     8  2.00
      P1  H  6934  6947       L1     8  0.87

> <Gold.PLP.Chemscore.Internal.Correction>
0.0332

> <Gold.Rescore>
     Score         DG    S(hbond)    S(metal)    S(lipo)     H(rot)  DE(clash)    DE(int)     intcor
     12.00     -13.08       2.07        0.00      49.38       1.99       0.36       0.72       ----

> <Gold.Chemscore.Fitness>
12.0038

> <Gold.Chemscore.DG>
-13.0768

> <Gold.Chemscore.ZeroCoef>
-5.4800

> <Gold.Chemscore.Hbond>
2.0732

> <Gold.Chemscore.Metal>
0.0000

> <Gold.Chemscore.Lipo>
49.3779

> <Gold.Chemscore.Internal_Hbond>
0.0000

> <Gold.Chemscore.DEClash>
0.3558

> <Gold.Chemscore.DEInternal>
0.7172

> <Gold.Chemscore.Rot>
1.9940

> <Gold.Chemscore.Internal.Correction>
   9.000000E+99

> <Gold.Chemscore.Hbonds>
donor molecule, donor type, donor heavy atom, donor atom, acceptor molecule, acceptor atom, score
      P1  H  6896  6907       L1     5  0.94
      P1  H  6931  6943       L1     8  0.28
      P1  H  6934  6947       L1     8  0.05

> <Gold.Chemscore.Hbond.Weighted>
-6.9243

> <Gold.Chemscore.Metal.Weighted>
-0.0000

> <Gold.Chemscore.Lipo.Weighted>
-5.7772

> <Gold.Chemscore.Internal_Hbond.Weighted>
0.0000

> <Gold.Chemscore.DEClash.Weighted>
0.3558

> <Gold.Chemscore.DEInternal.Weighted>
0.7172

> <Gold.Chemscore.Rot.Weighted>
5.1047

> <Gold.Chemscore.Internal.Correction.Weighted>
   9.000000E+99

> <Gold.Protein.RotatedTorsions>
[ 6907 6896 6895 6894 ] final  -24.10 input  -60.11 | X-H torsion
[ 7974 7965 7964 7962 ] final -117.01 input  175.53 | X-H torsion
[ 8008 7997 7996 7995 ] final -104.33 input   59.86 | X-H torsion
[ 10167 10162 10161 10158 ] final -147.66 input  -65.29 | X-H torsion
[ 10718 10713 10712 10709 ] final  171.09 input   66.30 | X-H torsion
[ 10763 10752 10751 10750 ] final  113.72 input  -60.55 | X-H torsion
[ 11005 11000 10999 10996 ] final  120.70 input  -57.11 | X-H torsion

> <Gold.Protein.ActiveResidues>
 VAL166  LYS551  ARG553  GLY616  TRP617  ASP618  TYR619  PRO620  LYS621  CYS622 
 ASP623  PHE694  ASN695  SER759  ASP760  ASP761  ALA762  ILE779  LEU786  VAL792 
 PHE793  MET794  SER795  GLU796  ALA797  LYS798  CYS799  TRP800  GLU811  SER814 

> <Gold.Protein.RotatedAtoms>
  151.1944  135.0416  159.8845 H   0  0  0  0  0  0  0  0  0  0  0  0  # atno 6907 bound_to 6896
  152.5437  134.0920  159.8291 H   0  0  0  0  0  0  0  0  0  0  0  0  # atno 6908 bound_to 6896
  151.1053  133.5166  159.2640 H   0  0  0  0  0  0  0  0  0  0  0  0  # atno 6909 bound_to 6896
  145.0902  140.8485  143.3987 H   0  0  0  0  0  0  0  0  0  0  0  0  # atno 7974 bound_to 7965
  154.8838  140.0418  157.1798 H   0  0  0  0  0  0  0  0  0  0  0  0  # atno 8008 bound_to 7997
  154.8612  140.2944  155.5517 H   0  0  0  0  0  0  0  0  0  0  0  0  # atno 8009 bound_to 7997
  156.2998  140.2446  156.3586 H   0  0  0  0  0  0  0  0  0  0  0  0  # atno 8010 bound_to 7997
  139.7602  143.8388  152.2605 H   0  0  0  0  0  0  0  0  0  0  0  0  # atno 10167 bound_to 10162
  156.9987  131.0169  151.2837 H   0  0  0  0  0  0  0  0  0  0  0  0  # atno 10718 bound_to 10713
  153.4967  135.3647  155.2519 H   0  0  0  0  0  0  0  0  0  0  0  0  # atno 10763 bound_to 10752
  154.8749  135.3990  154.3526 H   0  0  0  0  0  0  0  0  0  0  0  0  # atno 10764 bound_to 10752
  153.4155  135.7079  153.6396 H   0  0  0  0  0  0  0  0  0  0  0  0  # atno 10765 bound_to 10752
  139.9196  134.9636  156.7846 H   0  0  0  0  0  0  0  0  0  0  0  0  # atno 11005 bound_to 11000
  145.1075  139.2780  143.5654 LP  0  0  0  0  0  0  0  0  0  0  0  0  # atno 17320 bound_to 7965
  146.3531  140.0661  142.8626 LP  0  0  0  0  0  0  0  0  0  0  0  0  # atno 17321 bound_to 7965
  139.8392  144.7218  150.9352 LP  0  0  0  0  0  0  0  0  0  0  0  0  # atno 17342 bound_to 10162
  140.7806  143.3999  151.1167 LP  0  0  0  0  0  0  0  0  0  0  0  0  # atno 17343 bound_to 10162
  157.5406  130.8117  149.8024 LP  0  0  0  0  0  0  0  0  0  0  0  0  # atno 17370 bound_to 10713
  156.0179  130.3806  150.2052 LP  0  0  0  0  0  0  0  0  0  0  0  0  # atno 17371 bound_to 10713
  140.6516  133.9726  155.7758 LP  0  0  0  0  0  0  0  0  0  0  0  0  # atno 17394 bound_to 11000
  141.0704  134.0214  157.3534 LP  0  0  0  0  0  0  0  0  0  0  0  0  # atno 17395 bound_to 11000

$$$$
