AV-unprocessed.smi:3281|AV-procd|sdf|12556|dock2
  -GOLD-   2272018473D 1   1.00000     0.00000
 Structure written by MMmdl.
 37 38  0  0  0  0  0  0  0  0  2 V2000
  150.8309  135.0713  155.3576 C   0  0  0  0  0  0  0  0  0  0  0  0
  149.7483  136.1042  155.0276 C   0  0  0  0  0  0  0  0  0  0  0  0
  150.2397  137.5127  155.0915 C   0  0  0  0  0  0  0  0  0  0  0  0
  150.2969  138.4272  154.0689 C   0  0  0  0  0  0  0  0  0  0  0  0
  150.8065  139.6706  154.4509 N   0  0  0  0  0  0  0  0  0  0  0  0
  151.1517  139.7054  155.7396 C   0  0  0  0  0  0  0  0  0  0  0  0
  151.6885  140.9225  156.4147 C   0  0  0  0  0  0  0  0  0  0  0  0
  150.5780  141.8951  156.8307 C   0  0  0  0  0  0  0  0  0  0  0  0
  151.0246  143.2972  156.6927 N   0  3  0  0  0  0  0  0  0  0  0  0
  151.7227  143.8609  157.8700 C   0  0  2  0  0  0  0  0  0  0  0  0
  152.3573  142.7454  158.7307 C   0  0  0  0  0  0  0  0  0  0  0  0
  153.1320  143.2919  159.9418 C   0  0  0  0  0  0  0  0  0  0  0  0
  152.2411  144.0950  160.8986 C   0  0  0  0  0  0  0  0  0  0  0  0
  151.5437  145.5485  160.0711 S   0  0  0  0  0  0  0  0  0  0  0  0
  150.7280  144.7017  158.6907 C   0  0  0  0  0  0  0  0  0  0  0  0
  150.8369  138.1940  156.5831 S   0  0  0  0  0  0  0  0  0  0  0  0
  150.4321  134.0584  155.2972 H   0  0  0  0  0  0  0  0  0  0  0  0
  151.2207  135.2151  156.3656 H   0  0  0  0  0  0  0  0  0  0  0  0
  151.6667  135.1425  154.6610 H   0  0  0  0  0  0  0  0  0  0  0  0
  149.3501  135.9017  154.0328 H   0  0  0  0  0  0  0  0  0  0  0  0
  148.9121  135.9824  155.7167 H   0  0  0  0  0  0  0  0  0  0  0  0
  149.9934  138.2796  153.0428 H   0  0  0  0  0  0  0  0  0  0  0  0
  152.2622  140.6092  157.2878 H   0  0  0  0  0  0  0  0  0  0  0  0
  152.3896  141.4164  155.7402 H   0  0  0  0  0  0  0  0  0  0  0  0
  149.6946  141.7246  156.2154 H   0  0  0  0  0  0  0  0  0  0  0  0
  150.2923  141.7072  157.8667 H   0  0  0  0  0  0  0  0  0  0  0  0
  151.6693  143.3277  155.9156 H   0  0  0  0  0  0  0  0  0  0  0  0
  152.5080  144.5272  157.5087 H   0  0  0  0  0  0  0  0  0  0  0  0
  151.5835  142.0573  159.0741 H   0  0  0  0  0  0  0  0  0  0  0  0
  153.0464  142.1520  158.1306 H   0  0  0  0  0  0  0  0  0  0  0  0
  153.5811  142.4601  160.4852 H   0  0  0  0  0  0  0  0  0  0  0  0
  153.9602  143.9145  159.6004 H   0  0  0  0  0  0  0  0  0  0  0  0
  151.4281  143.4736  161.2755 H   0  0  0  0  0  0  0  0  0  0  0  0
  152.8171  144.4272  161.7626 H   0  0  0  0  0  0  0  0  0  0  0  0
  150.2591  145.4583  158.0607 H   0  0  0  0  0  0  0  0  0  0  0  0
  149.9274  144.0747  159.0853 H   0  0  0  0  0  0  0  0  0  0  0  0
  150.2307  143.8811  156.4716 H   0  0  0  0  0  0  0  0  0  0  0  0
  1  2  1  0  0  0  0
  1 17  1  0  0  0  0
  1 18  1  0  0  0  0
  1 19  1  0  0  0  0
  2  3  1  0  0  0  0
  2 20  1  0  0  0  0
  2 21  1  0  0  0  0
  3 16  1  0  0  0  0
  3  4  2  0  0  0  0
  4  5  1  0  0  0  0
  4 22  1  0  0  0  0
  5  6  2  0  0  0  0
  6  7  1  0  0  0  0
  6 16  1  0  0  0  0
  7  8  1  0  0  0  0
  7 23  1  0  0  0  0
  7 24  1  0  0  0  0
  8  9  1  0  0  0  0
  8 25  1  0  0  0  0
  8 26  1  0  0  0  0
  9 10  1  0  0  0  0
  9 27  1  0  0  0  0
  9 37  1  0  0  0  0
 10 15  1  0  0  0  0
 10 11  1  0  0  0  0
 10 28  1  0  0  0  0
 11 12  1  0  0  0  0
 11 29  1  0  0  0  0
 11 30  1  0  0  0  0
 12 13  1  0  0  0  0
 12 31  1  0  0  0  0
 12 32  1  0  0  0  0
 13 14  1  0  0  0  0
 13 33  1  0  0  0  0
 13 34  1  0  0  0  0
 14 15  1  0  0  0  0
 15 35  1  0  0  0  0
 15 36  1  0  0  0  0
M  CHG  1   9   1
M  END
> <s_m_source_file>
AV-unprocessed.smi

> <i_m_source_file_index>
3281

> <i_lp_mmshare_version>
43012

> <i_f3d_flags>
0

> <s_epik_input>
W0NIM11bQ0gyXWMxW2NIXW5jKHMxKVtDSDJdW0NIMl1bTkhdW0NAQEhdMltDSDJdW0NIMl1bQ0gyXVNbQ0gyXTI=

> <s_epik_cmdline>
J2VwaWtfcHl0aG9uJywgJy1waCcsICc3LjAnLCAnLXRuJywgJzgnLCAnLW1hJywgJzIwMCcsICctbWV0YWxfYmluZGluZycsICctaW1hZScsICc8aW5maWxlLm1hZT4nLCAnLW9tYWUnLCAnPG91dGZpbGUubWFlPic=

> <r_epik_Ionization_Penalty>
0.00827702

> <r_epik_Ionization_Penalty_Charging>
0.00826679

> <r_epik_Ionization_Penalty_Neutral>
1.02314e-05

> <r_epik_State_Penalty>
0.00622064

> <r_epik_Charging_Adjusted_Penalty>
0.0144874

> <i_epik_Tot_Q>
1

> <i_epik_Tot_abs_Q>
1

> <r_epik_Metal_State_Penalty>
0.0062521

> <b_epik_Metal_Only>
0

> <s_lp_Force_Field>
OPLS_2005

> <r_lp_Energy>
-1.10641

> <b_lp_Chiralities_Consistent>
1

> <s_lp_Variant>
AV-unprocessed.smi:3281-1

> <Gold.Version>
5.8.1

> <Gold.Id.Protein>
6NUR|6NUR_protein|mol2

> <Gold.PLP.Fitness>
50.3405

> <Gold.PLP.PLP>
-38.1994

> <Gold.PLP.part.hbond>
-2.0000

> <Gold.PLP.part.metal>
0.0000

> <Gold.PLP.part.buried>
-5.2651

> <Gold.PLP.part.nonpolar>
-31.7185

> <Gold.PLP.part.repulsive>
0.1649

> <Gold.PLP.ligand.clash>
0.4230

> <Gold.PLP.ligand.torsion>
1.2462

> <Gold.PLP.Chemscore.Hbond>
3.0000

> <Gold.PLP.Chemscore.CHOScore>
1.9914

> <Gold.PLP.Chemscore.Metal>
0.0000

> <Gold.Chemscore.Hbonds>
donor molecule, donor type, donor heavy atom, donor atom, acceptor molecule, acceptor atom, score
      L1  H     9    37       P1  8028  2.00
      P1  H  7989  7998       L1     5  1.00
      L1  C     4    22       P1  7948  0.99
      L1  C     4    22       P1  7957  0.86

> <Gold.PLP.Chemscore.Internal.Correction>
0.0823

> <Gold.Rescore>
     Score         DG    S(hbond)    S(metal)    S(lipo)     H(rot)  DE(clash)    DE(int)     intcor
     20.46     -21.52       1.97        0.00     111.02       1.38       0.01       1.04       ----

> <Gold.Chemscore.Fitness>
20.4633

> <Gold.Chemscore.DG>
-21.5160

> <Gold.Chemscore.ZeroCoef>
-5.4800

> <Gold.Chemscore.Hbond>
1.9672

> <Gold.Chemscore.Metal>
0.0000

> <Gold.Chemscore.Lipo>
111.0249

> <Gold.Chemscore.Internal_Hbond>
0.0000

> <Gold.Chemscore.DEClash>
0.0137

> <Gold.Chemscore.DEInternal>
1.0390

> <Gold.Chemscore.Rot>
1.3767

> <Gold.Chemscore.Internal.Correction>
   9.000000E+99

> <Gold.Chemscore.Hbonds>
donor molecule, donor type, donor heavy atom, donor atom, acceptor molecule, acceptor atom, score
      L1  H     9    37       P1  8028  1.00
      P1  H  7989  7998       L1     5  0.85

> <Gold.Chemscore.Hbond.Weighted>
-6.5704

> <Gold.Chemscore.Metal.Weighted>
-0.0000

> <Gold.Chemscore.Lipo.Weighted>
-12.9899

> <Gold.Chemscore.Internal_Hbond.Weighted>
0.0000

> <Gold.Chemscore.DEClash.Weighted>
0.0137

> <Gold.Chemscore.DEInternal.Weighted>
1.0390

> <Gold.Chemscore.Rot.Weighted>
3.5243

> <Gold.Chemscore.Internal.Correction.Weighted>
   9.000000E+99

> <Gold.Protein.RotatedTorsions>
[ 6907 6896 6895 6894 ] final  175.98 input  -60.11 | X-H torsion
[ 7974 7965 7964 7962 ] final  136.82 input  175.53 | X-H torsion
[ 8008 7997 7996 7995 ] final -165.47 input   59.86 | X-H torsion
[ 10167 10162 10161 10158 ] final  -54.52 input  -65.29 | X-H torsion
[ 10718 10713 10712 10709 ] final -175.39 input   66.30 | X-H torsion
[ 10763 10752 10751 10750 ] final   60.90 input  -60.55 | X-H torsion
[ 11005 11000 10999 10996 ] final  -34.14 input  -57.11 | X-H torsion

> <Gold.Protein.ActiveResidues>
 VAL166  LYS551  ARG553  GLY616  TRP617  ASP618  TYR619  PRO620  LYS621  CYS622 
 ASP623  PHE694  ASN695  SER759  ASP760  ASP761  ALA762  ILE779  LEU786  VAL792 
 PHE793  MET794  SER795  GLU796  ALA797  LYS798  CYS799  TRP800  GLU811  SER814 

> <Gold.Protein.RotatedAtoms>
  151.7274  133.3316  159.3331 H   0  0  0  0  0  0  0  0  0  0  0  0  # atno 6907 bound_to 6896
  150.7627  134.6394  159.6238 H   0  0  0  0  0  0  0  0  0  0  0  0  # atno 6908 bound_to 6896
  152.3613  134.6870  160.0258 H   0  0  0  0  0  0  0  0  0  0  0  0  # atno 6909 bound_to 6896
  144.9528  139.4799  143.5517 H   0  0  0  0  0  0  0  0  0  0  0  0  # atno 7974 bound_to 7965
  155.8503  140.0962  157.1679 H   0  0  0  0  0  0  0  0  0  0  0  0  # atno 8008 bound_to 7997
  154.3985  140.1384  156.3898 H   0  0  0  0  0  0  0  0  0  0  0  0  # atno 8009 bound_to 7997
  155.7968  140.3454  155.5383 H   0  0  0  0  0  0  0  0  0  0  0  0  # atno 8010 bound_to 7997
  140.6426  143.2516  151.4948 H   0  0  0  0  0  0  0  0  0  0  0  0  # atno 10167 bound_to 10162
  156.7992  130.9546  151.3119 H   0  0  0  0  0  0  0  0  0  0  0  0  # atno 10718 bound_to 10713
  152.9934  135.5520  154.5948 H   0  0  0  0  0  0  0  0  0  0  0  0  # atno 10763 bound_to 10752
  154.5302  135.2813  155.1189 H   0  0  0  0  0  0  0  0  0  0  0  0  # atno 10764 bound_to 10752
  154.2507  135.6399  153.5292 H   0  0  0  0  0  0  0  0  0  0  0  0  # atno 10765 bound_to 10752
  140.9692  133.7119  156.1496 H   0  0  0  0  0  0  0  0  0  0  0  0  # atno 11005 bound_to 11000
  146.3327  139.8625  142.8854 LP  0  0  0  0  0  0  0  0  0  0  0  0  # atno 17320 bound_to 7965
  145.2818  141.0141  143.3713 LP  0  0  0  0  0  0  0  0  0  0  0  0  # atno 17321 bound_to 7965
  139.5635  144.2098  152.1729 LP  0  0  0  0  0  0  0  0  0  0  0  0  # atno 17342 bound_to 10162
  140.1373  144.5234  150.6765 LP  0  0  0  0  0  0  0  0  0  0  0  0  # atno 17343 bound_to 10162
  157.6562  130.8926  149.9734 LP  0  0  0  0  0  0  0  0  0  0  0  0  # atno 17370 bound_to 10713
  156.1111  130.3650  150.0047 LP  0  0  0  0  0  0  0  0  0  0  0  0  # atno 17371 bound_to 10713
  140.7354  134.4209  157.5561 LP  0  0  0  0  0  0  0  0  0  0  0  0  # atno 17394 bound_to 11000
  139.8906  134.8801  156.2362 LP  0  0  0  0  0  0  0  0  0  0  0  0  # atno 17395 bound_to 11000

$$$$
