AV-unprocessed.smi:290|AV-procd|sdf|2228|dock10
  -GOLD-   2262022 83D 1   1.00000     0.00000
 Structure written by MMmdl.
 59 62  0  0  0  0  0  0  0  0  2 V2000
  151.5414  140.6722  156.7987 C   0  0  0  0  0  0  0  0  0  0  0  0
  151.1859  139.3931  156.0234 C   0  0  1  0  0  0  0  0  0  0  0  0
  150.8840  139.7015  154.6697 O   0  0  0  0  0  0  0  0  0  0  0  0
  150.9855  138.4957  153.9344 C   0  0  0  0  0  0  0  0  0  0  0  0
  152.2682  137.8812  154.4796 C   0  0  0  0  0  0  0  0  0  0  0  0
  152.2709  138.2846  155.9569 C   0  0  1  0  0  0  0  0  0  0  0  0
  153.5584  138.7870  156.2746 O   0  0  0  0  0  0  0  0  0  0  0  0
  151.9706  137.0824  156.8866 C   0  0  0  0  0  0  0  0  0  0  0  0
  150.6158  136.5689  156.7540 N   0  0  0  0  0  0  0  0  0  0  0  0
  149.9871  136.1846  155.5912 C   0  0  0  0  0  0  0  0  0  0  0  0
  148.7600  135.7652  155.7348 N   0  0  0  0  0  0  0  0  0  0  0  0
  148.5249  135.8581  157.1019 C   0  0  0  0  0  0  0  0  0  0  0  0
  147.4097  135.5671  157.9398 C   0  0  0  0  0  0  0  0  0  0  0  0
  146.2234  135.1077  157.4597 N   0  0  0  0  0  0  0  0  0  0  0  0
  145.7318  133.8461  158.0094 C   0  0  0  0  0  0  0  0  0  0  0  0
  145.0512  133.1019  156.8558 C   0  0  0  0  0  0  0  0  0  0  0  0
  144.7055  134.2303  155.8784 C   0  0  2  0  0  0  0  0  0  0  0  0
  144.4347  133.8138  154.4726 N   0  3  2  0  0  0  0  0  0  0  0  0
  145.6318  133.2246  153.8273 C   0  0  0  0  0  0  0  0  0  0  0  0
  143.7643  134.8299  153.6159 C   0  0  0  0  0  0  0  0  0  0  0  0
  142.4060  135.2546  154.1957 C   0  0  0  0  0  0  0  0  0  0  0  0
  141.4380  134.2600  153.9349 O   0  0  0  0  0  0  0  0  0  0  0  0
  145.8835  135.2013  156.0401 C   0  0  1  0  0  0  0  0  0  0  0  0
  145.5399  136.6377  155.6062 C   0  0  0  0  0  0  0  0  0  0  0  0
  147.5660  135.7726  159.2749 N   0  0  0  0  0  0  0  0  0  0  0  0
  148.7222  136.2341  159.7598 C   0  0  0  0  0  0  0  0  0  0  0  0
  149.8353  136.5537  159.0983 N   0  0  0  0  0  0  0  0  0  0  0  0
  149.6894  136.3488  157.7581 C   0  0  0  0  0  0  0  0  0  0  0  0
  143.8161  134.7366  156.2599 H   0  0  0  0  0  0  0  0  0  0  0  0
  146.7392  134.8524  155.4633 H   0  0  0  0  0  0  0  0  0  0  0  0
  151.7943  140.4466  157.8349 H   0  0  0  0  0  0  0  0  0  0  0  0
  150.6998  141.3649  156.8072 H   0  0  0  0  0  0  0  0  0  0  0  0
  152.3881  141.1911  156.3488 H   0  0  0  0  0  0  0  0  0  0  0  0
  150.2700  138.9769  156.4448 H   0  0  0  0  0  0  0  0  0  0  0  0
  150.1240  137.8596  154.1443 H   0  0  0  0  0  0  0  0  0  0  0  0
  151.0282  138.6790  152.8606 H   0  0  0  0  0  0  0  0  0  0  0  0
  152.3122  136.8030  154.3209 H   0  0  0  0  0  0  0  0  0  0  0  0
  153.1165  138.3219  153.9525 H   0  0  0  0  0  0  0  0  0  0  0  0
  154.1894  138.0930  156.1611 H   0  0  0  0  0  0  0  0  0  0  0  0
  152.6652  136.2663  156.6822 H   0  0  0  0  0  0  0  0  0  0  0  0
  152.1295  137.3609  157.9293 H   0  0  0  0  0  0  0  0  0  0  0  0
  150.4667  136.2314  154.6244 H   0  0  0  0  0  0  0  0  0  0  0  0
  146.5283  133.2418  158.4468 H   0  0  0  0  0  0  0  0  0  0  0  0
  145.0094  134.0697  158.7949 H   0  0  0  0  0  0  0  0  0  0  0  0
  145.7627  132.3978  156.4250 H   0  0  0  0  0  0  0  0  0  0  0  0
  144.1776  132.5361  157.1804 H   0  0  0  0  0  0  0  0  0  0  0  0
  146.4244  133.9663  153.7212 H   0  0  0  0  0  0  0  0  0  0  0  0
  145.3970  132.8361  152.8368 H   0  0  0  0  0  0  0  0  0  0  0  0
  146.0202  132.3940  154.4171 H   0  0  0  0  0  0  0  0  0  0  0  0
  144.3754  135.7232  153.4948 H   0  0  0  0  0  0  0  0  0  0  0  0
  143.6323  134.4251  152.6114 H   0  0  0  0  0  0  0  0  0  0  0  0
  142.4841  135.3813  155.2759 H   0  0  0  0  0  0  0  0  0  0  0  0
  142.0706  136.2078  153.7878 H   0  0  0  0  0  0  0  0  0  0  0  0
  141.8597  133.4137  153.9495 H   0  0  0  0  0  0  0  0  0  0  0  0
  145.2549  136.6683  154.5544 H   0  0  0  0  0  0  0  0  0  0  0  0
  146.3864  137.3123  155.7319 H   0  0  0  0  0  0  0  0  0  0  0  0
  144.7093  137.0396  156.1872 H   0  0  0  0  0  0  0  0  0  0  0  0
  148.7605  136.3681  160.8310 H   0  0  0  0  0  0  0  0  0  0  0  0
  143.7704  133.0568  154.5553 H   0  0  0  0  0  0  0  0  0  0  0  0
  1  2  1  0  0  0  0
  1 31  1  0  0  0  0
  1 32  1  0  0  0  0
  1 33  1  0  0  0  0
  2  6  1  0  0  0  0
  2  3  1  0  0  0  0
  2 34  1  0  0  0  0
  3  4  1  0  0  0  0
  4  5  1  0  0  0  0
  4 35  1  0  0  0  0
  4 36  1  0  0  0  0
  5  6  1  0  0  0  0
  5 37  1  0  0  0  0
  5 38  1  0  0  0  0
  6  7  1  0  0  0  0
  6  8  1  0  0  0  0
  7 39  1  0  0  0  0
  8  9  1  0  0  0  0
  8 40  1  0  0  0  0
  8 41  1  0  0  0  0
  9 28  1  0  0  0  0
  9 10  1  0  0  0  0
 10 11  2  0  0  0  0
 10 42  1  0  0  0  0
 11 12  1  0  0  0  0
 12 28  2  0  0  0  0
 12 13  1  0  0  0  0
 13 14  1  0  0  0  0
 13 25  2  0  0  0  0
 14 23  1  0  0  0  0
 14 15  1  0  0  0  0
 15 16  1  0  0  0  0
 15 43  1  0  0  0  0
 15 44  1  0  0  0  0
 16 17  1  0  0  0  0
 16 45  1  0  0  0  0
 16 46  1  0  0  0  0
 17 29  1  0  0  0  0
 17 18  1  0  0  0  0
 17 23  1  0  0  0  0
 18 19  1  0  0  0  0
 18 20  1  0  0  0  0
 18 59  1  0  0  0  0
 19 47  1  0  0  0  0
 19 48  1  0  0  0  0
 19 49  1  0  0  0  0
 20 21  1  0  0  0  0
 20 50  1  0  0  0  0
 20 51  1  0  0  0  0
 21 22  1  0  0  0  0
 21 52  1  0  0  0  0
 21 53  1  0  0  0  0
 22 54  1  0  0  0  0
 23 30  1  0  0  0  0
 23 24  1  0  0  0  0
 24 55  1  0  0  0  0
 24 56  1  0  0  0  0
 24 57  1  0  0  0  0
 25 26  1  0  0  0  0
 26 27  2  0  0  0  0
 26 58  1  0  0  0  0
 27 28  1  0  0  0  0
M  CHG  1  18   1
M  END
> <s_m_source_file>
AV-unprocessed.smi

> <i_m_source_file_index>
290

> <i_lp_mmshare_version>
43012

> <i_f3d_flags>
0

> <s_epik_input>
W0NIMl0xW0NIMl1PW0NAQEhdKFtDSDNdKVtDQEBdMShbT0hdKVtDSDJdbihbY0hdbjIpYyhjMjMpbltjSF1uYzNONFtDSDJdW0NIMl1bQ0BIXShbQ0BIXTRbQ0gzXSlOKFtDSDNdKVtDSDJdW0NIMl1bT0hd

> <s_epik_cmdline>
J2VwaWtfcHl0aG9uJywgJy1waCcsICc3LjAnLCAnLXRuJywgJzgnLCAnLW1hJywgJzIwMCcsICctbWV0YWxfYmluZGluZycsICctaW1hZScsICc8aW5maWxlLm1hZT4nLCAnLW9tYWUnLCAnPG91dGZpbGUubWFlPic=

> <r_lp_tautomer_probability>
1

> <r_epik_Ionization_Penalty>
0.0036983

> <r_epik_Ionization_Penalty_Charging>
0.0032725

> <r_epik_Ionization_Penalty_Neutral>
0.000425798

> <r_epik_State_Penalty>
-0

> <r_epik_Charging_Adjusted_Penalty>
0.0032725

> <i_epik_Tot_Q>
1

> <i_epik_Tot_abs_Q>
1

> <r_epik_Metal_State_Penalty>
-0

> <b_epik_Metal_Only>
0

> <s_lp_Force_Field>
OPLS_2005

> <r_lp_Energy>
60.2599

> <b_lp_Chiralities_Consistent>
1

> <s_lp_Variant>
AV-unprocessed.smi:290-14

> <Gold.Version>
5.8.1

> <Gold.Id.Protein>
6NUR|6NUR_protein|mol2

> <Gold.PLP.Fitness>
46.1272

> <Gold.PLP.PLP>
-26.6436

> <Gold.PLP.part.hbond>
-5.8211

> <Gold.PLP.part.metal>
0.0000

> <Gold.PLP.part.buried>
-6.2410

> <Gold.PLP.part.nonpolar>
-17.1127

> <Gold.PLP.part.repulsive>
0.1394

> <Gold.PLP.ligand.clash>
0.0000

> <Gold.PLP.ligand.torsion>
0.5488

> <Gold.PLP.Chemscore.Hbond>
6.6594

> <Gold.PLP.Chemscore.CHOScore>
0.0000

> <Gold.PLP.Chemscore.Metal>
0.0000

> <Gold.Chemscore.Hbonds>
donor molecule, donor type, donor heavy atom, donor atom, acceptor molecule, acceptor atom, score
      L1  H    18    59       P1 10957  2.00
      L1  H    22    54       P1 10957  1.00
      P1  H  6896  6909       L1    27  0.78
      P1  H  7989  7998       L1     3  1.00
      P1  H  7997  8010       L1     7  0.89
      P1  H 11000 11005       L1    22  0.99

> <Gold.PLP.Chemscore.Internal.Correction>
0.6031

> <Gold.Rescore>
     Score         DG    S(hbond)    S(metal)    S(lipo)     H(rot)  DE(clash)    DE(int)     intcor
     10.04     -14.90       3.65        0.00      56.49       3.67       1.01       3.85       ----

> <Gold.Chemscore.Fitness>
10.0387

> <Gold.Chemscore.DG>
-14.8964

> <Gold.Chemscore.ZeroCoef>
-5.4800

> <Gold.Chemscore.Hbond>
3.6502

> <Gold.Chemscore.Metal>
0.0000

> <Gold.Chemscore.Lipo>
56.4881

> <Gold.Chemscore.Internal_Hbond>
0.0000

> <Gold.Chemscore.DEClash>
1.0065

> <Gold.Chemscore.DEInternal>
3.8511

> <Gold.Chemscore.Rot>
3.6658

> <Gold.Chemscore.Internal.Correction>
   9.000000E+99

> <Gold.Chemscore.Hbonds>
donor molecule, donor type, donor heavy atom, donor atom, acceptor molecule, acceptor atom, score
      L1  H    18    59       P1 10957  1.00
      L1  H    22    54       P1 10957  0.95
      P1  H  6896  6909       L1    27  0.05
      P1  H  7989  7998       L1     3  0.26
      P1  H  7997  8010       L1     7  0.44
      P1  H 11000 11005       L1    22  0.08

> <Gold.Chemscore.Hbond.Weighted>
-12.1917

> <Gold.Chemscore.Metal.Weighted>
-0.0000

> <Gold.Chemscore.Lipo.Weighted>
-6.6091

> <Gold.Chemscore.Internal_Hbond.Weighted>
0.0000

> <Gold.Chemscore.DEClash.Weighted>
1.0065

> <Gold.Chemscore.DEInternal.Weighted>
3.8511

> <Gold.Chemscore.Rot.Weighted>
9.3844

> <Gold.Chemscore.Internal.Correction.Weighted>
   9.000000E+99

> <Gold.Protein.RotatedTorsions>
[ 6907 6896 6895 6894 ] final   79.12 input  -60.11 | X-H torsion
[ 7974 7965 7964 7962 ] final  135.66 input  175.53 | X-H torsion
[ 8008 7997 7996 7995 ] final   69.37 input   59.86 | X-H torsion
[ 10167 10162 10161 10158 ] final -128.37 input  -65.29 | X-H torsion
[ 10718 10713 10712 10709 ] final    7.22 input   66.30 | X-H torsion
[ 10763 10752 10751 10750 ] final   99.51 input  -60.55 | X-H torsion
[ 11005 11000 10999 10996 ] final   20.32 input  -57.11 | X-H torsion

> <Gold.Protein.ActiveResidues>
 VAL166  LYS551  ARG553  GLY616  TRP617  ASP618  TYR619  PRO620  LYS621  CYS622 
 ASP623  PHE694  ASN695  SER759  ASP760  ASP761  ALA762  ILE779  LEU786  VAL792 
 PHE793  MET794  SER795  GLU796  ALA797  LYS798  CYS799  TRP800  GLU811  SER814 

> <Gold.Protein.RotatedAtoms>
  152.5186  134.3560  159.9267 H   0  0  0  0  0  0  0  0  0  0  0  0  # atno 6907 bound_to 6896
  151.3511  133.3919  159.2688 H   0  0  0  0  0  0  0  0  0  0  0  0  # atno 6908 bound_to 6896
  150.9726  134.9115  159.7855 H   0  0  0  0  0  0  0  0  0  0  0  0  # atno 6909 bound_to 6896
  144.9642  139.4677  143.5465 H   0  0  0  0  0  0  0  0  0  0  0  0  # atno 7974 bound_to 7965
  155.7225  140.3493  155.5022 H   0  0  0  0  0  0  0  0  0  0  0  0  # atno 8008 bound_to 7997
  155.9256  140.1075  157.1194 H   0  0  0  0  0  0  0  0  0  0  0  0  # atno 8009 bound_to 7997
  154.4077  140.1241  156.4723 H   0  0  0  0  0  0  0  0  0  0  0  0  # atno 8010 bound_to 7997
  139.9510  143.6056  152.2475 H   0  0  0  0  0  0  0  0  0  0  0  0  # atno 10167 bound_to 10162
  156.9338  130.5835  149.5650 H   0  0  0  0  0  0  0  0  0  0  0  0  # atno 10718 bound_to 10713
  153.3023  135.4111  155.1263 H   0  0  0  0  0  0  0  0  0  0  0  0  # atno 10763 bound_to 10752
  154.8553  135.3544  154.5835 H   0  0  0  0  0  0  0  0  0  0  0  0  # atno 10764 bound_to 10752
  153.6260  135.7062  153.5351 H   0  0  0  0  0  0  0  0  0  0  0  0  # atno 10765 bound_to 10752
  140.4039  134.1689  155.7664 H   0  0  0  0  0  0  0  0  0  0  0  0  # atno 11005 bound_to 11000
  146.3362  139.8811  142.8824 LP  0  0  0  0  0  0  0  0  0  0  0  0  # atno 17320 bound_to 7965
  145.2655  141.0091  143.3802 LP  0  0  0  0  0  0  0  0  0  0  0  0  # atno 17321 bound_to 7965
  139.6629  144.7662  151.1929 LP  0  0  0  0  0  0  0  0  0  0  0  0  # atno 17342 bound_to 10162
  140.7583  143.5983  150.8725 LP  0  0  0  0  0  0  0  0  0  0  0  0  # atno 17343 bound_to 10162
  156.0435  130.5515  150.8827 LP  0  0  0  0  0  0  0  0  0  0  0  0  # atno 17370 bound_to 10713
  157.5830  131.0946  150.9241 LP  0  0  0  0  0  0  0  0  0  0  0  0  # atno 17371 bound_to 10713
  141.1846  133.8339  157.1132 LP  0  0  0  0  0  0  0  0  0  0  0  0  # atno 17394 bound_to 11000
  140.0316  134.9898  157.0792 LP  0  0  0  0  0  0  0  0  0  0  0  0  # atno 17395 bound_to 11000

$$$$
