AV-unprocessed.smi:765|AV-procd|sdf|3645|dock8
  -GOLD-   22720 1 53D 1   1.00000     0.00000
 Structure written by MMmdl.
 39 40  0  0  0  0  0  0  0  0  1 V2000
  152.2379  138.3745  154.3626 C   0  0  0  0  0  0  0  0  0  0  0  0
  151.2961  138.9941  155.4048 C   0  0  2  0  0  0  0  0  0  0  0  0
  150.2082  139.8546  154.7375 C   0  0  0  0  0  0  0  0  0  0  0  0
  149.2748  140.4902  155.7774 C   0  0  0  0  0  0  0  0  0  0  0  0
  150.0727  141.3057  156.8076 C   0  0  0  0  0  0  0  0  0  0  0  0
  151.1522  140.4584  157.5168 C   0  0  2  0  0  0  0  0  0  0  0  0
  150.4968  139.4103  158.3254 C   0  0  0  0  0  0  0  0  0  0  0  0
  149.9834  138.5885  158.9583 N   0  0  0  0  0  0  0  0  0  0  0  0
  151.9228  141.3673  158.3679 N   0  0  0  0  0  0  0  0  0  0  0  0
  153.0722  141.0960  159.0096 C   0  0  0  0  0  0  0  0  0  0  0  0
  153.6510  140.0122  158.9309 O   0  0  0  0  0  0  0  0  0  0  0  0
  153.6413  142.2287  159.8781 C   0  0  2  0  0  0  0  0  0  0  0  0
  153.7349  141.8539  161.3689 C   0  0  0  0  0  0  0  0  0  0  0  0
  152.8629  143.4472  159.6955 N   0  0  0  0  0  0  0  0  0  0  0  0
  152.7718  144.2598  158.5817 C   0  0  0  0  0  0  0  0  0  0  0  0
  151.9153  145.2781  158.8868 C   0  0  0  0  0  0  0  0  0  0  0  0
  151.5234  144.9995  160.2257 C   0  0  0  0  0  0  0  0  0  0  0  0
  152.0898  143.9042  160.7055 N   0  0  0  0  0  0  0  0  0  0  0  0
  152.0752  139.8255  156.4447 C   0  0  0  0  0  0  0  0  0  0  0  0
  152.7682  139.1429  153.7993 H   0  0  0  0  0  0  0  0  0  0  0  0
  151.6856  137.7610  153.6503 H   0  0  0  0  0  0  0  0  0  0  0  0
  152.9832  137.7359  154.8376 H   0  0  0  0  0  0  0  0  0  0  0  0
  150.8035  138.1716  155.9250 H   0  0  0  0  0  0  0  0  0  0  0  0
  150.6737  140.6401  154.1406 H   0  0  0  0  0  0  0  0  0  0  0  0
  149.6234  139.2476  154.0455 H   0  0  0  0  0  0  0  0  0  0  0  0
  148.5485  141.1327  155.2789 H   0  0  0  0  0  0  0  0  0  0  0  0
  148.7007  139.7122  156.2815 H   0  0  0  0  0  0  0  0  0  0  0  0
  150.5390  142.1529  156.3020 H   0  0  0  0  0  0  0  0  0  0  0  0
  149.3881  141.7300  157.5435 H   0  0  0  0  0  0  0  0  0  0  0  0
  151.5292  142.2874  158.5026 H   0  0  0  0  0  0  0  0  0  0  0  0
  154.6575  142.4189  159.5265 H   0  0  0  0  0  0  0  0  0  0  0  0
  154.3222  140.9464  161.5131 H   0  0  0  0  0  0  0  0  0  0  0  0
  152.7500  141.6867  161.8070 H   0  0  0  0  0  0  0  0  0  0  0  0
  154.2175  142.6485  161.9384 H   0  0  0  0  0  0  0  0  0  0  0  0
  153.3197  144.0478  157.6751 H   0  0  0  0  0  0  0  0  0  0  0  0
  151.6132  146.0964  158.2500 H   0  0  0  0  0  0  0  0  0  0  0  0
  150.8480  145.5561  160.8583 H   0  0  0  0  0  0  0  0  0  0  0  0
  152.8214  139.1887  156.9209 H   0  0  0  0  0  0  0  0  0  0  0  0
  152.6317  140.6116  155.9315 H   0  0  0  0  0  0  0  0  0  0  0  0
  1  2  1  0  0  0  0
  1 20  1  0  0  0  0
  1 21  1  0  0  0  0
  1 22  1  0  0  0  0
  2 19  1  0  0  0  0
  2  3  1  0  0  0  0
  2 23  1  0  0  0  0
  3  4  1  0  0  0  0
  3 24  1  0  0  0  0
  3 25  1  0  0  0  0
  4  5  1  0  0  0  0
  4 26  1  0  0  0  0
  4 27  1  0  0  0  0
  5  6  1  0  0  0  0
  5 28  1  0  0  0  0
  5 29  1  0  0  0  0
  6  7  1  0  0  0  0
  6  9  1  0  0  0  0
  6 19  1  0  0  0  0
  7  8  3  0  0  0  0
  9 10  1  0  0  0  0
  9 30  1  0  0  0  0
 10 11  2  0  0  0  0
 10 12  1  0  0  0  0
 12 13  1  0  0  0  0
 12 14  1  0  0  0  0
 12 31  1  0  0  0  0
 13 32  1  0  0  0  0
 13 33  1  0  0  0  0
 13 34  1  0  0  0  0
 14 18  1  0  0  0  0
 14 15  1  0  0  0  0
 15 16  2  0  0  0  0
 15 35  1  0  0  0  0
 16 17  1  0  0  0  0
 16 36  1  0  0  0  0
 17 18  2  0  0  0  0
 17 37  1  0  0  0  0
 19 38  1  0  0  0  0
 19 39  1  0  0  0  0
M  END
> <s_m_source_file>
AV-unprocessed.smi

> <i_m_source_file_index>
765

> <i_lp_mmshare_version>
43012

> <i_f3d_flags>
0

> <s_epik_input>
W0NIM11bQ0BASF0oW0NIMl0xKVtDSDJdW0NIMl1bQ0gyXVtDQEBdMShDI04pW05IXUMoPU8pW0NASF0oW0NIM10pbjJbY0hdW2NIXVtjSF1uMg==

> <s_epik_cmdline>
J2VwaWtfcHl0aG9uJywgJy1waCcsICc3LjAnLCAnLXRuJywgJzgnLCAnLW1hJywgJzIwMCcsICctbWV0YWxfYmluZGluZycsICctaW1hZScsICc8aW5maWxlLm1hZT4nLCAnLW9tYWUnLCAnPG91dGZpbGUubWFlPic=

> <r_lp_tautomer_probability>
1

> <r_epik_Ionization_Penalty>
2.71142e-05

> <r_epik_Ionization_Penalty_Charging>
0

> <r_epik_Ionization_Penalty_Neutral>
2.71142e-05

> <r_epik_State_Penalty>
-0

> <r_epik_Charging_Adjusted_Penalty>
0

> <i_epik_Tot_Q>
0

> <i_epik_Tot_abs_Q>
0

> <r_epik_Metal_State_Penalty>
-0

> <b_epik_Metal_Only>
0

> <s_lp_Force_Field>
OPLS_2005

> <r_lp_Energy>
10.9875

> <b_lp_Chiralities_Consistent>
1

> <s_lp_Variant>
AV-unprocessed.smi:765-3

> <Gold.Version>
5.8.1

> <Gold.Id.Protein>
6NUR|6NUR_protein|mol2

> <Gold.PLP.Fitness>
46.8665

> <Gold.PLP.PLP>
-44.7044

> <Gold.PLP.part.hbond>
-1.6068

> <Gold.PLP.part.metal>
0.0000

> <Gold.PLP.part.buried>
-5.0935

> <Gold.PLP.part.nonpolar>
-37.7483

> <Gold.PLP.part.repulsive>
0.1813

> <Gold.PLP.ligand.clash>
0.0000

> <Gold.PLP.ligand.torsion>
0.4517

> <Gold.PLP.Chemscore.Hbond>
1.0000

> <Gold.PLP.Chemscore.CHOScore>
0.0000

> <Gold.PLP.Chemscore.Metal>
0.0000

> <Gold.Chemscore.Hbonds>
donor molecule, donor type, donor heavy atom, donor atom, acceptor molecule, acceptor atom, score
      P1  H  7997  8008       L1    11  0.89

> <Gold.PLP.Chemscore.Internal.Correction>
0.0656

> <Gold.Rescore>
     Score         DG    S(hbond)    S(metal)    S(lipo)     H(rot)  DE(clash)    DE(int)     intcor
     14.89     -16.98       0.84        0.00     105.28       1.42       0.10       1.99       ----

> <Gold.Chemscore.Fitness>
14.8866

> <Gold.Chemscore.DG>
-16.9754

> <Gold.Chemscore.ZeroCoef>
-5.4800

> <Gold.Chemscore.Hbond>
0.8409

> <Gold.Chemscore.Metal>
0.0000

> <Gold.Chemscore.Lipo>
105.2809

> <Gold.Chemscore.Internal_Hbond>
0.0000

> <Gold.Chemscore.DEClash>
0.1035

> <Gold.Chemscore.DEInternal>
1.9853

> <Gold.Chemscore.Rot>
1.4183

> <Gold.Chemscore.Internal.Correction>
   9.000000E+99

> <Gold.Chemscore.Hbonds>
donor molecule, donor type, donor heavy atom, donor atom, acceptor molecule, acceptor atom, score
      P1  H  7997  8008       L1    11  0.51

> <Gold.Chemscore.Hbond.Weighted>
-2.8084

> <Gold.Chemscore.Metal.Weighted>
-0.0000

> <Gold.Chemscore.Lipo.Weighted>
-12.3179

> <Gold.Chemscore.Internal_Hbond.Weighted>
0.0000

> <Gold.Chemscore.DEClash.Weighted>
0.1035

> <Gold.Chemscore.DEInternal.Weighted>
1.9853

> <Gold.Chemscore.Rot.Weighted>
3.6309

> <Gold.Chemscore.Internal.Correction.Weighted>
   9.000000E+99

> <Gold.Protein.RotatedTorsions>
[ 6907 6896 6895 6894 ] final  -24.95 input  -60.11 | X-H torsion
[ 7974 7965 7964 7962 ] final   30.36 input  175.53 | X-H torsion
[ 8008 7997 7996 7995 ] final  -97.04 input   59.86 | X-H torsion
[ 10167 10162 10161 10158 ] final  145.56 input  -65.29 | X-H torsion
[ 10718 10713 10712 10709 ] final -119.63 input   66.30 | X-H torsion
[ 10763 10752 10751 10750 ] final   69.91 input  -60.55 | X-H torsion
[ 11005 11000 10999 10996 ] final -163.24 input  -57.11 | X-H torsion

> <Gold.Protein.ActiveResidues>
 VAL166  LYS551  ARG553  GLY616  TRP617  ASP618  TYR619  PRO620  LYS621  CYS622 
 ASP623  PHE694  ASN695  SER759  ASP760  ASP761  ALA762  ILE779  LEU786  VAL792 
 PHE793  MET794  SER795  GLU796  ALA797  LYS798  CYS799  TRP800  GLU811  SER814 

> <Gold.Protein.RotatedAtoms>
  151.1822  135.0366  159.8797 H   0  0  0  0  0  0  0  0  0  0  0  0  # atno 6907 bound_to 6896
  152.5444  134.1050  159.8344 H   0  0  0  0  0  0  0  0  0  0  0  0  # atno 6908 bound_to 6896
  151.1168  133.5086  159.2636 H   0  0  0  0  0  0  0  0  0  0  0  0  # atno 6909 bound_to 6896
  146.1616  139.6798  142.9029 H   0  0  0  0  0  0  0  0  0  0  0  0  # atno 7974 bound_to 7965
  154.7825  140.0466  157.1138 H   0  0  0  0  0  0  0  0  0  0  0  0  # atno 8008 bound_to 7997
  154.9688  140.3087  155.4977 H   0  0  0  0  0  0  0  0  0  0  0  0  # atno 8009 bound_to 7997
  156.2938  140.2257  156.4779 H   0  0  0  0  0  0  0  0  0  0  0  0  # atno 8010 bound_to 7997
  139.4924  144.5893  151.6714 H   0  0  0  0  0  0  0  0  0  0  0  0  # atno 10167 bound_to 10162
  156.1196  130.6312  150.9440 H   0  0  0  0  0  0  0  0  0  0  0  0  # atno 10718 bound_to 10713
  153.0312  135.5193  154.7360 H   0  0  0  0  0  0  0  0  0  0  0  0  # atno 10763 bound_to 10752
  154.6374  135.2908  155.0147 H   0  0  0  0  0  0  0  0  0  0  0  0  # atno 10764 bound_to 10752
  154.1077  135.6627  153.4932 H   0  0  0  0  0  0  0  0  0  0  0  0  # atno 10765 bound_to 10752
  140.6003  134.4954  157.5204 H   0  0  0  0  0  0  0  0  0  0  0  0  # atno 11005 bound_to 11000
  145.4573  141.0431  143.2771 LP  0  0  0  0  0  0  0  0  0  0  0  0  # atno 17320 bound_to 7965
  144.8035  139.6096  143.7061 LP  0  0  0  0  0  0  0  0  0  0  0  0  # atno 17321 bound_to 7965
  140.5516  144.0416  150.6129 LP  0  0  0  0  0  0  0  0  0  0  0  0  # atno 17342 bound_to 10162
  140.3472  143.2984  152.0526 LP  0  0  0  0  0  0  0  0  0  0  0  0  # atno 17343 bound_to 10162
  157.6379  131.0914  150.8311 LP  0  0  0  0  0  0  0  0  0  0  0  0  # atno 17370 bound_to 10713
  156.8409  130.5048  149.5321 LP  0  0  0  0  0  0  0  0  0  0  0  0  # atno 17371 bound_to 10713
  139.9235  134.8102  156.1139 LP  0  0  0  0  0  0  0  0  0  0  0  0  # atno 17394 bound_to 11000
  141.0876  133.6727  156.2470 LP  0  0  0  0  0  0  0  0  0  0  0  0  # atno 17395 bound_to 11000

$$$$
