AV-unprocessed.smi:667|AV-procd|sdf|3257|dock3
  -GOLD-   22720 0203D 1   1.00000     0.00000
 Structure written by MMmdl.
 48 49  0  0  0  0  0  0  0  0  1 V2000
  153.4712  140.5721  159.2205 C   0  0  0  0  0  0  0  0  0  0  0  0
  153.1326  141.7411  160.1009 C   0  0  0  0  0  0  0  0  0  0  0  0
  153.4051  141.6801  161.3937 N   0  0  0  0  0  0  0  0  0  0  0  0
  152.9982  142.8666  161.8882 N   0  0  0  0  0  0  0  0  0  0  0  0
  153.1572  143.1377  163.3038 C   0  0  0  0  0  0  0  0  0  0  0  0
  152.4614  143.6765  160.9062 C   0  0  0  0  0  0  0  0  0  0  0  0
  151.9386  145.0463  161.1983 C   0  0  0  0  0  0  0  0  0  0  0  0
  152.5355  142.9813  159.7285 C   0  0  0  0  0  0  0  0  0  0  0  0
  152.1004  143.4133  158.3514 C   0  0  0  0  0  0  0  0  0  0  0  0
  150.9974  142.4824  157.8488 C   0  0  0  0  0  0  0  0  0  0  0  0
  150.3605  141.7954  158.6473 O   0  0  0  0  0  0  0  0  0  0  0  0
  150.7779  142.4744  156.5248 N   0  0  0  0  0  0  0  0  0  0  0  0
  149.7598  141.6771  155.8495 C   0  0  0  0  0  0  0  0  0  0  0  0
  149.8963  140.1640  156.1538 C   0  0  2  0  0  0  0  0  0  0  0  0
  151.3478  139.7049  156.1867 C   0  0  0  0  0  0  0  0  0  0  0  0
  151.6466  139.3560  154.7263 C   0  0  0  0  0  0  0  0  0  0  0  0
  150.3828  139.2680  154.0742 O   0  0  0  0  0  0  0  0  0  0  0  0
  149.3514  139.2391  155.0521 C   0  0  2  0  0  0  0  0  0  0  0  0
  147.9765  139.5916  154.4401 C   0  0  0  0  0  0  0  0  0  0  0  0
  148.0575  140.8282  153.5283 C   0  0  0  0  0  0  0  0  0  0  0  0
  146.9265  139.8196  155.5395 C   0  0  0  0  0  0  0  0  0  0  0  0
  154.2882  140.8204  158.5427 H   0  0  0  0  0  0  0  0  0  0  0  0
  152.6138  140.2779  158.6148 H   0  0  0  0  0  0  0  0  0  0  0  0
  153.7763  139.7015  159.8026 H   0  0  0  0  0  0  0  0  0  0  0  0
  152.1905  143.0591  163.8013 H   0  0  0  0  0  0  0  0  0  0  0  0
  153.5513  144.1444  163.4457 H   0  0  0  0  0  0  0  0  0  0  0  0
  153.8488  142.4252  163.7559 H   0  0  0  0  0  0  0  0  0  0  0  0
  151.3673  145.4389  160.3577 H   0  0  0  0  0  0  0  0  0  0  0  0
  152.7585  145.7365  161.3963 H   0  0  0  0  0  0  0  0  0  0  0  0
  151.2832  145.0377  162.0692 H   0  0  0  0  0  0  0  0  0  0  0  0
  151.7339  144.4404  158.3500 H   0  0  0  0  0  0  0  0  0  0  0  0
  152.9313  143.3926  157.6458 H   0  0  0  0  0  0  0  0  0  0  0  0
  151.3477  143.0737  155.9454 H   0  0  0  0  0  0  0  0  0  0  0  0
  148.7787  142.0498  156.1448 H   0  0  0  0  0  0  0  0  0  0  0  0
  149.8436  141.8583  154.7776 H   0  0  0  0  0  0  0  0  0  0  0  0
  149.4063  139.9438  157.1031 H   0  0  0  0  0  0  0  0  0  0  0  0
  152.0405  140.4409  156.5954 H   0  0  0  0  0  0  0  0  0  0  0  0
  151.4304  138.8058  156.7991 H   0  0  0  0  0  0  0  0  0  0  0  0
  152.2412  140.1326  154.2445 H   0  0  0  0  0  0  0  0  0  0  0  0
  152.1890  138.4137  154.6461 H   0  0  0  0  0  0  0  0  0  0  0  0
  149.3065  138.2215  155.4465 H   0  0  0  0  0  0  0  0  0  0  0  0
  147.6311  138.7493  153.8406 H   0  0  0  0  0  0  0  0  0  0  0  0
  148.3957  141.7050  154.0815 H   0  0  0  0  0  0  0  0  0  0  0  0
  147.0833  141.0626  153.0988 H   0  0  0  0  0  0  0  0  0  0  0  0
  148.7473  140.6755  152.6985 H   0  0  0  0  0  0  0  0  0  0  0  0
  147.2084  140.6467  156.1920 H   0  0  0  0  0  0  0  0  0  0  0  0
  146.8037  138.9325  156.1615 H   0  0  0  0  0  0  0  0  0  0  0  0
  145.9514  140.0521  155.1103 H   0  0  0  0  0  0  0  0  0  0  0  0
  1  2  1  0  0  0  0
  1 22  1  0  0  0  0
  1 23  1  0  0  0  0
  1 24  1  0  0  0  0
  2  8  1  0  0  0  0
  2  3  2  0  0  0  0
  3  4  1  0  0  0  0
  4  5  1  0  0  0  0
  4  6  1  0  0  0  0
  5 25  1  0  0  0  0
  5 26  1  0  0  0  0
  5 27  1  0  0  0  0
  6  7  1  0  0  0  0
  6  8  2  0  0  0  0
  7 28  1  0  0  0  0
  7 29  1  0  0  0  0
  7 30  1  0  0  0  0
  8  9  1  0  0  0  0
  9 10  1  0  0  0  0
  9 31  1  0  0  0  0
  9 32  1  0  0  0  0
 10 11  2  0  0  0  0
 10 12  1  0  0  0  0
 12 13  1  0  0  0  0
 12 33  1  0  0  0  0
 13 14  1  0  0  0  0
 13 34  1  0  0  0  0
 13 35  1  0  0  0  0
 14 18  1  0  0  0  0
 14 15  1  0  0  0  0
 14 36  1  0  0  0  0
 15 16  1  0  0  0  0
 15 37  1  0  0  0  0
 15 38  1  0  0  0  0
 16 17  1  0  0  0  0
 16 39  1  0  0  0  0
 16 40  1  0  0  0  0
 17 18  1  0  0  0  0
 18 19  1  0  0  0  0
 18 41  1  0  0  0  0
 19 20  1  0  0  0  0
 19 21  1  0  0  0  0
 19 42  1  0  0  0  0
 20 43  1  0  0  0  0
 20 44  1  0  0  0  0
 20 45  1  0  0  0  0
 21 46  1  0  0  0  0
 21 47  1  0  0  0  0
 21 48  1  0  0  0  0
M  END
> <s_m_source_file>
AV-unprocessed.smi

> <i_m_source_file_index>
667

> <i_lp_mmshare_version>
43012

> <i_f3d_flags>
0

> <s_epik_input>
W0NIM11jMW5uKFtDSDNdKWMoW0NIM10pYzFbQ0gyXUMoPU8pW05IXVtDSDJdW0NAQEhdMltDSDJdW0NIMl1PW0NASF0yW0NIXShbQ0gzXSlbQ0gzXQ==

> <s_epik_cmdline>
J2VwaWtfcHl0aG9uJywgJy1waCcsICc3LjAnLCAnLXRuJywgJzgnLCAnLW1hJywgJzIwMCcsICctbWV0YWxfYmluZGluZycsICctaW1hZScsICc8aW5maWxlLm1hZT4nLCAnLW9tYWUnLCAnPG91dGZpbGUubWFlPic=

> <r_lp_tautomer_probability>
1

> <r_epik_Ionization_Penalty>
0.00315488

> <r_epik_Ionization_Penalty_Charging>
0

> <r_epik_Ionization_Penalty_Neutral>
0.00315488

> <r_epik_State_Penalty>
0.00222269

> <r_epik_Charging_Adjusted_Penalty>
0.00222269

> <i_epik_Tot_Q>
0

> <i_epik_Tot_abs_Q>
0

> <r_epik_Metal_State_Penalty>
-0

> <b_epik_Metal_Only>
0

> <s_lp_Force_Field>
OPLS_2005

> <r_lp_Energy>
17.3848

> <b_lp_Chiralities_Consistent>
1

> <s_lp_Variant>
AV-unprocessed.smi:667-3

> <Gold.Version>
5.8.1

> <Gold.Id.Protein>
6NUR|6NUR_protein|mol2

> <Gold.PLP.Fitness>
40.7476

> <Gold.PLP.PLP>
-42.0279

> <Gold.PLP.part.hbond>
-1.7395

> <Gold.PLP.part.metal>
0.0000

> <Gold.PLP.part.buried>
0.9567

> <Gold.PLP.part.nonpolar>
-41.2544

> <Gold.PLP.part.repulsive>
0.3135

> <Gold.PLP.ligand.clash>
0.0000

> <Gold.PLP.ligand.torsion>
0.6699

> <Gold.PLP.Chemscore.Hbond>
0.0000

> <Gold.PLP.Chemscore.CHOScore>
0.0000

> <Gold.PLP.Chemscore.Metal>
0.0000

> <Gold.PLP.Chemscore.Internal.Correction>
0.0595

> <Gold.Rescore>
     Score         DG    S(hbond)    S(metal)    S(lipo)     H(rot)  DE(clash)    DE(int)     intcor
     12.00     -16.00       0.00        0.00     123.20       1.52       2.09       1.91       ----

> <Gold.Chemscore.Fitness>
11.9972

> <Gold.Chemscore.DG>
-15.9996

> <Gold.Chemscore.ZeroCoef>
-5.4800

> <Gold.Chemscore.Hbond>
0.0000

> <Gold.Chemscore.Metal>
0.0000

> <Gold.Chemscore.Lipo>
123.1974

> <Gold.Chemscore.Internal_Hbond>
0.0000

> <Gold.Chemscore.DEClash>
2.0919

> <Gold.Chemscore.DEInternal>
1.9105

> <Gold.Chemscore.Rot>
1.5213

> <Gold.Chemscore.Internal.Correction>
   9.000000E+99

> <Gold.Chemscore.Hbond.Weighted>
-0.0000

> <Gold.Chemscore.Metal.Weighted>
-0.0000

> <Gold.Chemscore.Lipo.Weighted>
-14.4141

> <Gold.Chemscore.Internal_Hbond.Weighted>
0.0000

> <Gold.Chemscore.DEClash.Weighted>
2.0919

> <Gold.Chemscore.DEInternal.Weighted>
1.9105

> <Gold.Chemscore.Rot.Weighted>
3.8945

> <Gold.Chemscore.Internal.Correction.Weighted>
   9.000000E+99

> <Gold.Protein.RotatedTorsions>
[ 6907 6896 6895 6894 ] final  -60.09 input  -60.11 | X-H torsion
[ 7974 7965 7964 7962 ] final -156.26 input  175.53 | X-H torsion
[ 8008 7997 7996 7995 ] final  166.08 input   59.86 | X-H torsion
[ 10167 10162 10161 10158 ] final  -87.93 input  -65.29 | X-H torsion
[ 10718 10713 10712 10709 ] final -160.53 input   66.30 | X-H torsion
[ 10763 10752 10751 10750 ] final  -13.74 input  -60.55 | X-H torsion
[ 11005 11000 10999 10996 ] final  124.56 input  -57.11 | X-H torsion

> <Gold.Protein.ActiveResidues>
 VAL166  LYS551  ARG553  GLY616  TRP617  ASP618  TYR619  PRO620  LYS621  CYS622 
 ASP623  PHE694  ASN695  SER759  ASP760  ASP761  ALA762  ILE779  LEU786  VAL792 
 PHE793  MET794  SER795  GLU796  ALA797  LYS798  CYS799  TRP800  GLU811  SER814 

> <Gold.Protein.RotatedAtoms>
  150.7882  134.6883  159.6482 H   0  0  0  0  0  0  0  0  0  0  0  0  # atno 6907 bound_to 6896
  152.3982  134.6326  160.0089 H   0  0  0  0  0  0  0  0  0  0  0  0  # atno 6908 bound_to 6896
  151.6606  133.3280  159.3209 H   0  0  0  0  0  0  0  0  0  0  0  0  # atno 6909 bound_to 6896
  144.7601  140.4135  143.5983 H   0  0  0  0  0  0  0  0  0  0  0  0  # atno 7974 bound_to 7965
  156.1748  140.1653  156.8382 H   0  0  0  0  0  0  0  0  0  0  0  0  # atno 8008 bound_to 7997
  154.5295  140.0760  156.8353 H   0  0  0  0  0  0  0  0  0  0  0  0  # atno 8009 bound_to 7997
  155.3436  140.3386  155.4241 H   0  0  0  0  0  0  0  0  0  0  0  0  # atno 8010 bound_to 7997
  140.3796  143.2755  151.9400 H   0  0  0  0  0  0  0  0  0  0  0  0  # atno 10167 bound_to 10162
  156.5835  130.8739  151.2871 H   0  0  0  0  0  0  0  0  0  0  0  0  # atno 10718 bound_to 10713
  153.5179  135.7016  153.5747 H   0  0  0  0  0  0  0  0  0  0  0  0  # atno 10763 bound_to 10752
  153.3809  135.3920  155.1856 H   0  0  0  0  0  0  0  0  0  0  0  0  # atno 10764 bound_to 10752
  154.8697  135.3835  154.4665 H   0  0  0  0  0  0  0  0  0  0  0  0  # atno 10765 bound_to 10752
  139.9364  134.9639  156.8427 H   0  0  0  0  0  0  0  0  0  0  0  0  # atno 11005 bound_to 11000
  145.6647  139.1588  143.2789 LP  0  0  0  0  0  0  0  0  0  0  0  0  # atno 17320 bound_to 7965
  146.1655  140.6724  142.9257 LP  0  0  0  0  0  0  0  0  0  0  0  0  # atno 17321 bound_to 7965
  139.4796  144.5831  151.7899 LP  0  0  0  0  0  0  0  0  0  0  0  0  # atno 17342 bound_to 10162
  140.4951  144.1253  150.5958 LP  0  0  0  0  0  0  0  0  0  0  0  0  # atno 17343 bound_to 10162
  157.7321  130.9710  150.1911 LP  0  0  0  0  0  0  0  0  0  0  0  0  # atno 17370 bound_to 10713
  156.2611  130.3711  149.8129 LP  0  0  0  0  0  0  0  0  0  0  0  0  # atno 17371 bound_to 10713
  140.6064  134.0124  155.7558 LP  0  0  0  0  0  0  0  0  0  0  0  0  # atno 17394 bound_to 11000
  141.0980  133.9813  157.3127 LP  0  0  0  0  0  0  0  0  0  0  0  0  # atno 17395 bound_to 11000

$$$$
