AV-unprocessed.smi:2124|AV-procd|sdf|8658|dock5
  -GOLD-   2272011403D 1   1.00000     0.00000
 Structure written by MMmdl.
 47 49  0  0  0  0  0  0  0  0  1 V2000
  145.7183  138.8362  154.7901 C   0  0  0  0  0  0  0  0  0  0  0  0
  147.2239  138.9675  154.7133 C   0  0  0  0  0  0  0  0  0  0  0  0
  147.8989  137.7873  154.9774 N   0  0  0  0  0  0  0  0  0  0  0  0
  149.2805  137.8017  154.9050 C   0  0  0  0  0  0  0  0  0  0  0  0
  149.9393  136.4624  155.1860 C   0  0  0  0  0  0  0  0  0  0  0  0
  149.9565  138.9391  154.6016 C   0  0  0  0  0  0  0  0  0  0  0  0
  151.4795  138.9933  154.5000 C   0  0  0  0  0  0  0  0  0  0  0  0
  152.2129  139.3429  155.7960 C   0  0  0  0  0  0  0  0  0  0  0  0
  153.3013  138.8257  156.0458 O   0  0  0  0  0  0  0  0  0  0  0  0
  151.6063  140.2235  156.6075 N   0  0  0  0  0  0  0  0  0  0  0  0
  152.1261  140.7050  157.8853 C   0  0  2  0  0  0  0  0  0  0  0  0
  152.1295  139.5522  158.9029 C   0  0  0  0  0  0  0  0  0  0  0  0
  151.2794  141.9100  158.3588 C   0  0  2  0  0  0  0  0  0  0  0  0
  151.1772  143.0686  157.3401 C   0  0  0  0  0  0  0  0  0  0  0  0
  151.5198  144.3079  158.1872 C   0  0  2  0  0  0  0  0  0  0  0  0
  153.0329  144.3189  158.4708 C   0  0  0  0  0  0  0  0  0  0  0  0
  153.1915  143.1834  159.4982 C   0  0  0  0  0  0  0  0  0  0  0  0
  151.7526  142.6443  159.6387 C   0  0  1  0  0  0  0  0  0  0  0  0
  150.9467  143.9366  159.5503 C   0  0  0  0  0  0  0  0  0  0  0  0
  149.1799  140.1773  154.3550 C   0  0  0  0  0  0  0  0  0  0  0  0
  149.7339  141.2465  154.1025 O   0  0  0  0  0  0  0  0  0  0  0  0
  147.7791  140.1039  154.4199 N   0  0  0  0  0  0  0  0  0  0  0  0
  147.4355  136.9195  155.2050 H   0  0  0  0  0  0  0  0  0  0  0  0
  145.2313  139.7844  154.5585 H   0  0  0  0  0  0  0  0  0  0  0  0
  145.4137  138.5314  155.7916 H   0  0  0  0  0  0  0  0  0  0  0  0
  145.3657  138.0901  154.0773 H   0  0  0  0  0  0  0  0  0  0  0  0
  150.5103  136.1272  154.3203 H   0  0  0  0  0  0  0  0  0  0  0  0
  149.2026  135.6928  155.4188 H   0  0  0  0  0  0  0  0  0  0  0  0
  150.6154  136.5429  156.0364 H   0  0  0  0  0  0  0  0  0  0  0  0
  151.7896  139.7037  153.7332 H   0  0  0  0  0  0  0  0  0  0  0  0
  151.8335  138.0281  154.1359 H   0  0  0  0  0  0  0  0  0  0  0  0
  150.7135  140.5937  156.3152 H   0  0  0  0  0  0  0  0  0  0  0  0
  153.1539  141.0363  157.7340 H   0  0  0  0  0  0  0  0  0  0  0  0
  152.5661  139.8623  159.8522 H   0  0  0  0  0  0  0  0  0  0  0  0
  152.7156  138.7075  158.5396 H   0  0  0  0  0  0  0  0  0  0  0  0
  151.1185  139.1949  159.1013 H   0  0  0  0  0  0  0  0  0  0  0  0
  150.2684  141.5454  158.5516 H   0  0  0  0  0  0  0  0  0  0  0  0
  151.8627  142.9587  156.4987 H   0  0  0  0  0  0  0  0  0  0  0  0
  150.1661  143.1345  156.9365 H   0  0  0  0  0  0  0  0  0  0  0  0
  151.1474  145.2423  157.7667 H   0  0  0  0  0  0  0  0  0  0  0  0
  153.6249  144.1510  157.5703 H   0  0  0  0  0  0  0  0  0  0  0  0
  153.3424  145.2718  158.9017 H   0  0  0  0  0  0  0  0  0  0  0  0
  153.9122  142.4281  159.1878 H   0  0  0  0  0  0  0  0  0  0  0  0
  153.5391  143.5854  160.4508 H   0  0  0  0  0  0  0  0  0  0  0  0
  151.5878  142.0759  160.5545 H   0  0  0  0  0  0  0  0  0  0  0  0
  151.1922  144.6562  160.3336 H   0  0  0  0  0  0  0  0  0  0  0  0
  149.8669  143.7772  159.5375 H   0  0  0  0  0  0  0  0  0  0  0  0
  1 24  1  0  0  0  0
  1 25  1  0  0  0  0
  1 26  1  0  0  0  0
  1  2  1  0  0  0  0
  2  3  1  0  0  0  0
  2 22  2  0  0  0  0
  3  4  1  0  0  0  0
  3 23  1  0  0  0  0
  4  6  2  0  0  0  0
  4  5  1  0  0  0  0
  5 27  1  0  0  0  0
  5 28  1  0  0  0  0
  5 29  1  0  0  0  0
  6 20  1  0  0  0  0
  6  7  1  0  0  0  0
  7  8  1  0  0  0  0
  7 30  1  0  0  0  0
  7 31  1  0  0  0  0
  8  9  2  0  0  0  0
  8 10  1  0  0  0  0
 10 11  1  0  0  0  0
 10 32  1  0  0  0  0
 11 12  1  0  0  0  0
 11 13  1  0  0  0  0
 11 33  1  0  0  0  0
 12 34  1  0  0  0  0
 12 35  1  0  0  0  0
 12 36  1  0  0  0  0
 13 18  1  0  0  0  0
 13 14  1  0  0  0  0
 13 37  1  0  0  0  0
 14 15  1  0  0  0  0
 14 38  1  0  0  0  0
 14 39  1  0  0  0  0
 15 19  1  0  0  0  0
 15 16  1  0  0  0  0
 15 40  1  0  0  0  0
 16 17  1  0  0  0  0
 16 41  1  0  0  0  0
 16 42  1  0  0  0  0
 17 18  1  0  0  0  0
 17 43  1  0  0  0  0
 17 44  1  0  0  0  0
 18 19  1  0  0  0  0
 18 45  1  0  0  0  0
 19 46  1  0  0  0  0
 19 47  1  0  0  0  0
 20 21  2  0  0  0  0
 20 22  1  0  0  0  0
M  END
> <s_m_source_file>
AV-unprocessed.smi

> <i_m_source_file_index>
2124

> <i_lp_mmshare_version>
43012

> <i_f3d_flags>
0

> <s_epik_input>
W0NIM11jMW5jKFtDSDNdKWMoYyg9TylbbkhdMSlbQ0gyXUMoPU8pW05IXVtDQEhdKFtDSDNdKVtDQEhdKFtDSDJdW0NASF0yMylbQ0BIXShbQ0gyXTMpW0NIMl1bQ0gyXTI=

> <s_epik_cmdline>
J2VwaWtfcHl0aG9uJywgJy1waCcsICc3LjAnLCAnLXRuJywgJzgnLCAnLW1hJywgJzIwMCcsICctbWV0YWxfYmluZGluZycsICctaW1hZScsICc8aW5maWxlLm1hZT4nLCAnLW9tYWUnLCAnPG91dGZpbGUubWFlPic=

> <r_lp_tautomer_probability>
0.156392

> <r_epik_Ionization_Penalty>
0.0139374

> <r_epik_Ionization_Penalty_Charging>
0.0138122

> <r_epik_Ionization_Penalty_Neutral>
0.000125146

> <r_epik_State_Penalty>
1.15342

> <r_epik_Charging_Adjusted_Penalty>
1.16723

> <i_epik_Tot_Q>
0

> <i_epik_Tot_abs_Q>
0

> <r_epik_Metal_State_Penalty>
1.3173

> <b_epik_Metal_Only>
0

> <s_lp_Force_Field>
OPLS_2005

> <r_lp_Energy>
55.868

> <b_lp_Chiralities_Consistent>
1

> <s_lp_Variant>
AV-unprocessed.smi:2124-9

> <Gold.Version>
5.8.1

> <Gold.Id.Protein>
6NUR|6NUR_protein|mol2

> <Gold.PLP.Fitness>
45.4826

> <Gold.PLP.PLP>
-41.2988

> <Gold.PLP.part.hbond>
-3.0000

> <Gold.PLP.part.metal>
0.0000

> <Gold.PLP.part.buried>
-3.6484

> <Gold.PLP.part.nonpolar>
-34.3166

> <Gold.PLP.part.repulsive>
0.4044

> <Gold.PLP.ligand.clash>
0.0000

> <Gold.PLP.ligand.torsion>
0.8330

> <Gold.PLP.Chemscore.Hbond>
1.9428

> <Gold.PLP.Chemscore.CHOScore>
0.0000

> <Gold.PLP.Chemscore.Metal>
0.0000

> <Gold.Chemscore.Hbonds>
donor molecule, donor type, donor heavy atom, donor atom, acceptor molecule, acceptor atom, score
      P1  H  7989  7998       L1    21  0.37
      P1  H  7997  8010       L1     9  1.00
      P1  H  8011  8017       L1    21  0.57

> <Gold.PLP.Chemscore.Internal.Correction>
0.0216

> <Gold.Rescore>
     Score         DG    S(hbond)    S(metal)    S(lipo)     H(rot)  DE(clash)    DE(int)     intcor
     18.11     -20.33       1.77        0.00     112.65       1.65       1.50       0.72       ----

> <Gold.Chemscore.Fitness>
18.1131

> <Gold.Chemscore.DG>
-20.3306

> <Gold.Chemscore.ZeroCoef>
-5.4800

> <Gold.Chemscore.Hbond>
1.7673

> <Gold.Chemscore.Metal>
0.0000

> <Gold.Chemscore.Lipo>
112.6523

> <Gold.Chemscore.Internal_Hbond>
0.0000

> <Gold.Chemscore.DEClash>
1.4977

> <Gold.Chemscore.DEInternal>
0.7198

> <Gold.Chemscore.Rot>
1.6534

> <Gold.Chemscore.Internal.Correction>
   9.000000E+99

> <Gold.Chemscore.Hbonds>
donor molecule, donor type, donor heavy atom, donor atom, acceptor molecule, acceptor atom, score
      P1  H  7989  7998       L1    21  0.26
      P1  H  7997  8010       L1     9  0.48
      P1  H  8011  8017       L1    21  0.57

> <Gold.Chemscore.Hbond.Weighted>
-5.9029

> <Gold.Chemscore.Metal.Weighted>
-0.0000

> <Gold.Chemscore.Lipo.Weighted>
-13.1803

> <Gold.Chemscore.Internal_Hbond.Weighted>
0.0000

> <Gold.Chemscore.DEClash.Weighted>
1.4977

> <Gold.Chemscore.DEInternal.Weighted>
0.7198

> <Gold.Chemscore.Rot.Weighted>
4.2326

> <Gold.Chemscore.Internal.Correction.Weighted>
   9.000000E+99

> <Gold.Protein.RotatedTorsions>
[ 6907 6896 6895 6894 ] final  -34.82 input  -60.11 | X-H torsion
[ 7974 7965 7964 7962 ] final  165.74 input  175.53 | X-H torsion
[ 8008 7997 7996 7995 ] final   82.60 input   59.86 | X-H torsion
[ 10167 10162 10161 10158 ] final  -10.87 input  -65.29 | X-H torsion
[ 10718 10713 10712 10709 ] final -150.81 input   66.30 | X-H torsion
[ 10763 10752 10751 10750 ] final   45.18 input  -60.55 | X-H torsion
[ 11005 11000 10999 10996 ] final   47.43 input  -57.11 | X-H torsion

> <Gold.Protein.ActiveResidues>
 VAL166  LYS551  ARG553  GLY616  TRP617  ASP618  TYR619  PRO620  LYS621  CYS622 
 ASP623  PHE694  ASN695  SER759  ASP760  ASP761  ALA762  ILE779  LEU786  VAL792 
 PHE793  MET794  SER795  GLU796  ALA797  LYS798  CYS799  TRP800  GLU811  SER814 

> <Gold.Protein.RotatedAtoms>
  151.0477  134.9651  159.8194 H   0  0  0  0  0  0  0  0  0  0  0  0  # atno 6907 bound_to 6896
  152.5375  134.2577  159.8933 H   0  0  0  0  0  0  0  0  0  0  0  0  # atno 6908 bound_to 6896
  151.2591  133.4268  159.2649 H   0  0  0  0  0  0  0  0  0  0  0  0  # atno 6909 bound_to 6896
  144.7490  139.8514  143.6372 H   0  0  0  0  0  0  0  0  0  0  0  0  # atno 7974 bound_to 7965
  155.9128  140.3426  155.6112 H   0  0  0  0  0  0  0  0  0  0  0  0  # atno 8008 bound_to 7997
  155.7367  140.0802  157.2283 H   0  0  0  0  0  0  0  0  0  0  0  0  # atno 8009 bound_to 7997
  154.4058  140.1578  156.2557 H   0  0  0  0  0  0  0  0  0  0  0  0  # atno 8010 bound_to 7997
  140.7125  143.5701  150.9102 H   0  0  0  0  0  0  0  0  0  0  0  0  # atno 10167 bound_to 10162
  156.4511  130.8168  151.2399 H   0  0  0  0  0  0  0  0  0  0  0  0  # atno 10718 bound_to 10713
  152.9828  135.6047  154.3394 H   0  0  0  0  0  0  0  0  0  0  0  0  # atno 10763 bound_to 10752
  154.3092  135.2771  155.2576 H   0  0  0  0  0  0  0  0  0  0  0  0  # atno 10764 bound_to 10752
  154.4793  135.5921  153.6434 H   0  0  0  0  0  0  0  0  0  0  0  0  # atno 10765 bound_to 10752
  140.1279  134.4743  155.8544 H   0  0  0  0  0  0  0  0  0  0  0  0  # atno 11005 bound_to 11000
  146.1413  139.4471  143.0107 LP  0  0  0  0  0  0  0  0  0  0  0  0  # atno 17320 bound_to 7965
  145.7013  141.0135  143.1502 LP  0  0  0  0  0  0  0  0  0  0  0  0  # atno 17321 bound_to 7965
  139.9426  143.6364  152.3050 LP  0  0  0  0  0  0  0  0  0  0  0  0  # atno 17342 bound_to 10162
  139.6854  144.7652  151.1533 LP  0  0  0  0  0  0  0  0  0  0  0  0  # atno 17343 bound_to 10162
  157.7503  131.0137  150.3437 LP  0  0  0  0  0  0  0  0  0  0  0  0  # atno 17370 bound_to 10713
  156.3816  130.3881  149.7098 LP  0  0  0  0  0  0  0  0  0  0  0  0  # atno 17371 bound_to 10713
  141.2165  133.6785  156.7014 LP  0  0  0  0  0  0  0  0  0  0  0  0  # atno 17394 bound_to 11000
  140.2879  134.8264  157.3991 LP  0  0  0  0  0  0  0  0  0  0  0  0  # atno 17395 bound_to 11000

$$$$
