AV-unprocessed.smi:1033|AV-procd|sdf|4503|dock2
  -GOLD-   22720 2503D 1   1.00000     0.00000
 Structure written by MMmdl.
 57 59  0  0  0  0  0  0  0  0  3 V2000
  153.2858  142.5423  161.5743 C   0  0  0  0  0  0  0  0  0  0  0  0
  152.6627  142.2298  160.2243 C   0  0  0  0  0  0  0  0  0  0  0  0
  152.4895  140.8755  159.8586 C   0  0  0  0  0  0  0  0  0  0  0  0
  151.9161  140.6218  158.6183 C   0  0  0  0  0  0  0  0  0  0  0  0
  151.6171  139.4179  157.9762 N   0  3  0  0  0  0  0  0  0  0  0  0
  151.0559  139.6774  156.7626 C   0  0  0  0  0  0  0  0  0  0  0  0
  150.9935  141.0293  156.6211 N   0  0  0  0  0  0  0  0  0  0  0  0
  150.4839  141.8391  155.5072 C   0  0  0  0  0  0  0  0  0  0  0  0
  149.5435  141.0514  154.5743 C   0  0  1  0  0  0  0  0  0  0  0  0
  150.2950  140.0741  153.8816 O   0  0  0  0  0  0  0  0  0  0  0  0
  148.4289  140.3427  155.3684 C   0  0  0  0  0  0  0  0  0  0  0  0
  147.0633  140.8069  155.0930 N   0  0  0  0  0  0  0  0  0  0  0  0
  146.8873  141.2456  153.7089 C   0  0  0  0  0  0  0  0  0  0  0  0
  146.8868  140.0822  152.6961 C   0  0  0  0  0  0  0  0  0  0  0  0
  145.8286  139.0969  153.0372 N   0  3  0  0  0  0  0  0  0  0  0  0
  145.7462  137.9909  152.0490 C   0  0  0  0  0  0  0  0  0  0  0  0
  144.5428  137.0596  152.2956 C   0  0  2  0  0  0  0  0  0  0  0  0
  144.4113  135.9882  151.2058 C   0  0  0  0  0  0  0  0  0  0  0  0
  143.3548  137.8254  152.3052 O   0  0  0  0  0  0  0  0  0  0  0  0
  145.9767  138.6327  154.4429 C   0  0  0  0  0  0  0  0  0  0  0  0
  146.0088  139.8376  155.4056 C   0  0  0  0  0  0  0  0  0  0  0  0
  151.5188  141.6596  157.7534 C   0  0  0  0  0  0  0  0  0  0  0  0
  151.6828  142.9992  158.0967 C   0  0  0  0  0  0  0  0  0  0  0  0
  152.2655  143.2780  159.3537 C   0  0  0  0  0  0  0  0  0  0  0  0
  152.4585  144.7302  159.7562 C   0  0  0  0  0  0  0  0  0  0  0  0
  153.5213  141.6317  162.1260 H   0  0  0  0  0  0  0  0  0  0  0  0
  152.6021  143.1332  162.1843 H   0  0  0  0  0  0  0  0  0  0  0  0
  154.2117  143.1039  161.4476 H   0  0  0  0  0  0  0  0  0  0  0  0
  152.7905  140.0723  160.5154 H   0  0  0  0  0  0  0  0  0  0  0  0
  150.7240  138.9445  156.0413 H   0  0  0  0  0  0  0  0  0  0  0  0
  149.9616  142.6948  155.9377 H   0  0  0  0  0  0  0  0  0  0  0  0
  151.3353  142.2412  154.9568 H   0  0  0  0  0  0  0  0  0  0  0  0
  149.1227  141.7410  153.8444 H   0  0  0  0  0  0  0  0  0  0  0  0
  149.8591  139.8858  153.0642 H   0  0  0  0  0  0  0  0  0  0  0  0
  148.4943  139.2745  155.1560 H   0  0  0  0  0  0  0  0  0  0  0  0
  148.6423  140.4368  156.4326 H   0  0  0  0  0  0  0  0  0  0  0  0
  145.9435  141.7863  153.6249 H   0  0  0  0  0  0  0  0  0  0  0  0
  147.6638  141.9652  153.4463 H   0  0  0  0  0  0  0  0  0  0  0  0
  146.7062  140.4790  151.6964 H   0  0  0  0  0  0  0  0  0  0  0  0
  147.8599  139.5897  152.6668 H   0  0  0  0  0  0  0  0  0  0  0  0
  145.6645  138.4037  151.0421 H   0  0  0  0  0  0  0  0  0  0  0  0
  146.6787  137.4246  152.0690 H   0  0  0  0  0  0  0  0  0  0  0  0
  144.6339  136.5574  153.2580 H   0  0  0  0  0  0  0  0  0  0  0  0
  145.2988  135.3557  151.1700 H   0  0  0  0  0  0  0  0  0  0  0  0
  144.2822  136.4351  150.2193 H   0  0  0  0  0  0  0  0  0  0  0  0
  143.5542  135.3401  151.3928 H   0  0  0  0  0  0  0  0  0  0  0  0
  143.5680  138.7158  152.5414 H   0  0  0  0  0  0  0  0  0  0  0  0
  145.1404  137.9909  154.7164 H   0  0  0  0  0  0  0  0  0  0  0  0
  146.8781  138.0279  154.5465 H   0  0  0  0  0  0  0  0  0  0  0  0
  146.0949  139.4892  156.4334 H   0  0  0  0  0  0  0  0  0  0  0  0
  145.0436  140.3438  155.3568 H   0  0  0  0  0  0  0  0  0  0  0  0
  151.3796  143.7958  157.4339 H   0  0  0  0  0  0  0  0  0  0  0  0
  152.1179  145.4096  158.9741 H   0  0  0  0  0  0  0  0  0  0  0  0
  153.5121  144.9395  159.9428 H   0  0  0  0  0  0  0  0  0  0  0  0
  151.8945  144.9546  160.6617 H   0  0  0  0  0  0  0  0  0  0  0  0
  144.9520  139.5961  152.9819 H   0  0  0  0  0  0  0  0  0  0  0  0
  151.7832  138.4868  158.3357 H   0  0  0  0  0  0  0  0  0  0  0  0
  1  2  1  0  0  0  0
  1 26  1  0  0  0  0
  1 27  1  0  0  0  0
  1 28  1  0  0  0  0
  2 24  1  0  0  0  0
  2  3  2  0  0  0  0
  3  4  1  0  0  0  0
  3 29  1  0  0  0  0
  4 22  2  0  0  0  0
  4  5  1  0  0  0  0
  5  6  2  0  0  0  0
  5 57  1  0  0  0  0
  6  7  1  0  0  0  0
  6 30  1  0  0  0  0
  7  8  1  0  0  0  0
  7 22  1  0  0  0  0
  8  9  1  0  0  0  0
  8 31  1  0  0  0  0
  8 32  1  0  0  0  0
  9 10  1  0  0  0  0
  9 11  1  0  0  0  0
  9 33  1  0  0  0  0
 10 34  1  0  0  0  0
 11 12  1  0  0  0  0
 11 35  1  0  0  0  0
 11 36  1  0  0  0  0
 12 21  1  0  0  0  0
 12 13  1  0  0  0  0
 13 14  1  0  0  0  0
 13 37  1  0  0  0  0
 13 38  1  0  0  0  0
 14 15  1  0  0  0  0
 14 39  1  0  0  0  0
 14 40  1  0  0  0  0
 15 16  1  0  0  0  0
 15 20  1  0  0  0  0
 15 56  1  0  0  0  0
 16 17  1  0  0  0  0
 16 41  1  0  0  0  0
 16 42  1  0  0  0  0
 17 18  1  0  0  0  0
 17 19  1  0  0  0  0
 17 43  1  0  0  0  0
 18 44  1  0  0  0  0
 18 45  1  0  0  0  0
 18 46  1  0  0  0  0
 19 47  1  0  0  0  0
 20 21  1  0  0  0  0
 20 48  1  0  0  0  0
 20 49  1  0  0  0  0
 21 50  1  0  0  0  0
 21 51  1  0  0  0  0
 22 23  1  0  0  0  0
 23 24  2  0  0  0  0
 23 52  1  0  0  0  0
 24 25  1  0  0  0  0
 25 53  1  0  0  0  0
 25 54  1  0  0  0  0
 25 55  1  0  0  0  0
M  CHG  1   5   1
M  CHG  1  15   1
M  END
> <s_m_source_file>
AV-unprocessed.smi

> <i_m_source_file_index>
1033

> <i_lp_mmshare_version>
43012

> <i_f3d_flags>
0

> <s_epik_input>
W0NIM11jKFtjSF0xKWMoW0NIM10pW2NIXWMoYzEyKW4oW2NIXW4yKVtDSDJdW0NASF0oW09IXSlbQ0gyXU4zW0NIMl1bQ0gyXU4oW0NIMl1bQ0gyXTMpW0NIMl1bQ0BIXShbQ0gzXSlbT0hd

> <s_epik_cmdline>
J2VwaWtfcHl0aG9uJywgJy1waCcsICc3LjAnLCAnLXRuJywgJzgnLCAnLW1hJywgJzIwMCcsICctbWV0YWxfYmluZGluZycsICctaW1hZScsICc8aW5maWxlLm1hZT4nLCAnLW9tYWUnLCAnPG91dGZpbGUubWFlPic=

> <r_epik_Ionization_Penalty>
1.28617

> <r_epik_Ionization_Penalty_Charging>
1.23646

> <r_epik_Ionization_Penalty_Neutral>
0.0497112

> <r_epik_State_Penalty>
1.79157

> <r_epik_Charging_Adjusted_Penalty>
3.02803

> <i_epik_Tot_Q>
2

> <i_epik_Tot_abs_Q>
2

> <r_epik_Metal_State_Penalty>
5.81739

> <b_epik_Metal_Only>
0

> <s_lp_Force_Field>
OPLS_2005

> <r_lp_Energy>
41.025

> <b_lp_Chiralities_Consistent>
1

> <s_lp_Variant>
AV-unprocessed.smi:1033-14

> <Gold.Version>
5.8.1

> <Gold.Id.Protein>
6NUR|6NUR_protein|mol2

> <Gold.PLP.Fitness>
61.6639

> <Gold.PLP.PLP>
-49.2142

> <Gold.PLP.part.hbond>
-4.8551

> <Gold.PLP.part.metal>
0.0000

> <Gold.PLP.part.buried>
-1.8794

> <Gold.PLP.part.nonpolar>
-42.7711

> <Gold.PLP.part.repulsive>
0.1795

> <Gold.PLP.ligand.clash>
0.0000

> <Gold.PLP.ligand.torsion>
1.3488

> <Gold.PLP.Chemscore.Hbond>
4.9673

> <Gold.PLP.Chemscore.CHOScore>
0.0000

> <Gold.PLP.Chemscore.Metal>
0.0000

> <Gold.Chemscore.Hbonds>
donor molecule, donor type, donor heavy atom, donor atom, acceptor molecule, acceptor atom, score
      L1  H    10    34       P1  7957  1.00
      L1  H    15    56       P1 10175  2.00
      L1  H    19    47       P1 10175  1.00
      P1  H  7989  7998       L1    10  0.93

> <Gold.PLP.Chemscore.Internal.Correction>
0.2456

> <Gold.Rescore>
     Score         DG    S(hbond)    S(metal)    S(lipo)     H(rot)  DE(clash)    DE(int)     intcor
     20.67     -23.69       3.26        0.00     131.57       3.15       0.50       2.51       ----

> <Gold.Chemscore.Fitness>
20.6746

> <Gold.Chemscore.DG>
-23.6892

> <Gold.Chemscore.ZeroCoef>
-5.4800

> <Gold.Chemscore.Hbond>
3.2559

> <Gold.Chemscore.Metal>
0.0000

> <Gold.Chemscore.Lipo>
131.5732

> <Gold.Chemscore.Internal_Hbond>
0.0000

> <Gold.Chemscore.DEClash>
0.5027

> <Gold.Chemscore.DEInternal>
2.5120

> <Gold.Chemscore.Rot>
3.1483

> <Gold.Chemscore.Internal.Correction>
   9.000000E+99

> <Gold.Chemscore.Hbonds>
donor molecule, donor type, donor heavy atom, donor atom, acceptor molecule, acceptor atom, score
      L1  H    10    34       P1  7957  0.97
      L1  H    15    56       P1 10175  0.99
      L1  H    19    47       P1 10175  0.99
      P1  H  7989  7998       L1    10  0.17

> <Gold.Chemscore.Hbond.Weighted>
-10.8749

> <Gold.Chemscore.Metal.Weighted>
-0.0000

> <Gold.Chemscore.Lipo.Weighted>
-15.3941

> <Gold.Chemscore.Internal_Hbond.Weighted>
0.0000

> <Gold.Chemscore.DEClash.Weighted>
0.5027

> <Gold.Chemscore.DEInternal.Weighted>
2.5120

> <Gold.Chemscore.Rot.Weighted>
8.0597

> <Gold.Chemscore.Internal.Correction.Weighted>
   9.000000E+99

> <Gold.Protein.RotatedTorsions>
[ 6907 6896 6895 6894 ] final    2.94 input  -60.11 | X-H torsion
[ 7974 7965 7964 7962 ] final  -84.08 input  175.53 | X-H torsion
[ 8008 7997 7996 7995 ] final  -32.45 input   59.86 | X-H torsion
[ 10167 10162 10161 10158 ] final -149.16 input  -65.29 | X-H torsion
[ 10718 10713 10712 10709 ] final   19.45 input   66.30 | X-H torsion
[ 10763 10752 10751 10750 ] final  168.04 input  -60.55 | X-H torsion
[ 11005 11000 10999 10996 ] final  -14.95 input  -57.11 | X-H torsion

> <Gold.Protein.ActiveResidues>
 VAL166  LYS551  ARG553  GLY616  TRP617  ASP618  TYR619  PRO620  LYS621  CYS622 
 ASP623  PHE694  ASN695  SER759  ASP760  ASP761  ALA762  ILE779  LEU786  VAL792 
 PHE793  MET794  SER795  GLU796  ALA797  LYS798  CYS799  TRP800  GLU811  SER814 

> <Gold.Protein.RotatedAtoms>
  151.6170  135.1035  160.0093 H   0  0  0  0  0  0  0  0  0  0  0  0  # atno 6907 bound_to 6896
  152.4178  133.7063  159.6463 H   0  0  0  0  0  0  0  0  0  0  0  0  # atno 6908 bound_to 6896
  150.8066  133.8425  159.3224 H   0  0  0  0  0  0  0  0  0  0  0  0  # atno 6909 bound_to 6896
  145.5114  140.9539  143.1705 H   0  0  0  0  0  0  0  0  0  0  0  0  # atno 7974 bound_to 7965
  154.4180  140.1737  156.1728 H   0  0  0  0  0  0  0  0  0  0  0  0  # atno 8008 bound_to 7997
  155.9746  140.3383  155.6583 H   0  0  0  0  0  0  0  0  0  0  0  0  # atno 8009 bound_to 7997
  155.6580  140.0698  157.2554 H   0  0  0  0  0  0  0  0  0  0  0  0  # atno 8010 bound_to 7997
  139.7467  143.8580  152.2576 H   0  0  0  0  0  0  0  0  0  0  0  0  # atno 10167 bound_to 10162
  157.1106  130.6507  149.5896 H   0  0  0  0  0  0  0  0  0  0  0  0  # atno 10718 bound_to 10713
  154.3627  135.2753  155.2311 H   0  0  0  0  0  0  0  0  0  0  0  0  # atno 10763 bound_to 10752
  154.4492  135.5935  153.6184 H   0  0  0  0  0  0  0  0  0  0  0  0  # atno 10764 bound_to 10752
  152.9842  135.6037  154.3849 H   0  0  0  0  0  0  0  0  0  0  0  0  # atno 10765 bound_to 10752
  140.7917  133.8283  155.9385 H   0  0  0  0  0  0  0  0  0  0  0  0  # atno 11005 bound_to 11000
  144.7725  139.6702  143.7188 LP  0  0  0  0  0  0  0  0  0  0  0  0  # atno 17320 bound_to 7965
  146.2164  139.5557  142.9647 LP  0  0  0  0  0  0  0  0  0  0  0  0  # atno 17321 bound_to 7965
  139.8546  144.7147  150.9172 LP  0  0  0  0  0  0  0  0  0  0  0  0  # atno 17342 bound_to 10162
  140.7793  143.3869  151.1377 LP  0  0  0  0  0  0  0  0  0  0  0  0  # atno 17343 bound_to 10162
  155.9851  130.4880  150.7017 LP  0  0  0  0  0  0  0  0  0  0  0  0  # atno 17370 bound_to 10713
  157.4562  131.0878  151.0794 LP  0  0  0  0  0  0  0  0  0  0  0  0  # atno 17371 bound_to 10713
  140.9383  134.1933  157.4816 LP  0  0  0  0  0  0  0  0  0  0  0  0  # atno 17394 bound_to 11000
  139.8730  134.9861  156.5311 LP  0  0  0  0  0  0  0  0  0  0  0  0  # atno 17395 bound_to 11000

$$$$
