AV-unprocessed.smi:2886|AV-procd|sdf|11094|dock2
  -GOLD-   2272015563D 1   1.00000     0.00000
 Structure written by MMmdl.
 28 30  0  0  0  0  0  0  0  0  3 V2000
  151.9422  135.5661  157.3712 O   0  0  0  0  0  0  0  0  0  0  0  0
  151.9505  136.7239  156.9576 C   0  0  0  0  0  0  0  0  0  0  0  0
  151.8855  137.0456  155.6312 N   0  5  0  0  0  0  0  0  0  0  0  0
  151.8963  138.2931  155.2170 N   0  3  0  0  0  0  0  0  0  0  0  0
  151.9702  139.3392  156.0339 C   0  0  0  0  0  0  0  0  0  0  0  0
  152.0493  139.1426  157.4409 C   0  0  0  0  0  0  0  0  0  0  0  0
  152.1251  140.2047  158.3333 N   0  0  0  0  0  0  0  0  0  0  0  0
  152.1390  141.6330  158.0487 C   0  0  1  0  0  0  0  0  0  0  0  0
  150.7406  142.1940  157.7780 C   0  0  0  0  0  0  0  0  0  0  0  0
  150.6487  143.3181  158.8178 C   0  0  2  0  0  0  0  0  0  0  0  0
  151.5978  144.4831  158.5023 C   0  0  0  0  0  0  0  0  0  0  0  0
  152.9579  143.8858  158.8635 C   0  0  0  0  0  0  0  0  0  0  0  0
  152.5764  142.4565  159.2711 C   0  0  1  0  0  0  0  0  0  0  0  0
  151.3302  142.7090  159.9002 O   0  0  0  0  0  0  0  0  0  0  0  0
  152.0341  137.8571  157.8975 C   0  0  0  0  0  0  0  0  0  0  0  0
  152.1202  137.5167  159.5944 Cl  0  0  0  0  0  0  0  0  0  0  0  0
  151.8402  138.5123  154.2100 H   0  0  0  0  0  0  0  0  0  0  0  0
  151.9619  140.3208  155.5777 H   0  0  0  0  0  0  0  0  0  0  0  0
  152.3431  139.9702  159.2919 H   0  0  0  0  0  0  0  0  0  0  0  0
  152.8147  141.8394  157.2187 H   0  0  0  0  0  0  0  0  0  0  0  0
  150.6239  142.5589  156.7571 H   0  0  0  0  0  0  0  0  0  0  0  0
  149.9670  141.4466  157.9609 H   0  0  0  0  0  0  0  0  0  0  0  0
  149.6281  143.6265  159.0457 H   0  0  0  0  0  0  0  0  0  0  0  0
  151.5358  144.7957  157.4594 H   0  0  0  0  0  0  0  0  0  0  0  0
  151.3799  145.3463  159.1325 H   0  0  0  0  0  0  0  0  0  0  0  0
  153.6672  143.9106  158.0357 H   0  0  0  0  0  0  0  0  0  0  0  0
  153.3980  144.4211  159.7056 H   0  0  0  0  0  0  0  0  0  0  0  0
  153.3182  141.9691  159.9052 H   0  0  0  0  0  0  0  0  0  0  0  0
  1  2  2  0  0  0  0
  2  3  1  0  0  0  0
  2 15  1  0  0  0  0
  3  4  1  0  0  0  0
  4  5  2  0  0  0  0
  4 17  1  0  0  0  0
  5  6  1  0  0  0  0
  5 18  1  0  0  0  0
  6 15  2  0  0  0  0
  6  7  1  0  0  0  0
  7  8  1  0  0  0  0
  7 19  1  0  0  0  0
  8 13  1  0  0  0  0
  8  9  1  0  0  0  0
  8 20  1  0  0  0  0
  9 10  1  0  0  0  0
  9 21  1  0  0  0  0
  9 22  1  0  0  0  0
 10 14  1  0  0  0  0
 10 11  1  0  0  0  0
 10 23  1  0  0  0  0
 11 12  1  0  0  0  0
 11 24  1  0  0  0  0
 11 25  1  0  0  0  0
 12 13  1  0  0  0  0
 12 26  1  0  0  0  0
 12 27  1  0  0  0  0
 13 14  1  0  0  0  0
 13 28  1  0  0  0  0
 15 16  1  0  0  0  0
M  CHG  1   3  -1
M  CHG  1   4   1
M  END
> <s_m_source_file>
AV-unprocessed.smi

> <i_m_source_file_index>
2886

> <i_lp_mmshare_version>
43012

> <i_f3d_flags>
0

> <s_epik_input>
Tz1jMVtuSF1uW2NIXWMoYzFDbClbTkhdW0NASF0oW0NIMl1bQ0BASF0yMylbQ0BASF0oTzMpW0NIMl1bQ0gyXTI=

> <s_epik_cmdline>
J2VwaWtfcHl0aG9uJywgJy1waCcsICc3LjAnLCAnLXRuJywgJzgnLCAnLW1hJywgJzIwMCcsICctbWV0YWxfYmluZGluZycsICctaW1hZScsICc8aW5maWxlLm1hZT4nLCAnLW9tYWUnLCAnPG91dGZpbGUubWFlPic=

> <r_lp_tautomer_probability>
0.0138196

> <r_epik_Ionization_Penalty>
2.43027

> <r_epik_Ionization_Penalty_Charging>
2.43027

> <r_epik_Ionization_Penalty_Neutral>
1.33267e-06

> <r_epik_State_Penalty>
2.7044

> <r_epik_Charging_Adjusted_Penalty>
5.13467

> <i_epik_Tot_Q>
0

> <i_epik_Tot_abs_Q>
2

> <r_epik_Metal_State_Penalty>
2.98589

> <b_epik_Metal_Only>
0

> <s_lp_Force_Field>
OPLS_2005

> <r_lp_Energy>
57.4962

> <b_lp_Chiralities_Consistent>
1

> <s_lp_Variant>
AV-unprocessed.smi:2886-8

> <Gold.Version>
5.8.1

> <Gold.Id.Protein>
6NUR|6NUR_protein|mol2

> <Gold.PLP.Fitness>
33.0932

> <Gold.PLP.PLP>
-27.5279

> <Gold.PLP.part.hbond>
-2.8489

> <Gold.PLP.part.metal>
0.0000

> <Gold.PLP.part.buried>
-4.8598

> <Gold.PLP.part.nonpolar>
-20.6379

> <Gold.PLP.part.repulsive>
0.3037

> <Gold.PLP.ligand.clash>
0.0000

> <Gold.PLP.ligand.torsion>
0.2267

> <Gold.PLP.Chemscore.Hbond>
2.0000

> <Gold.PLP.Chemscore.CHOScore>
0.0000

> <Gold.PLP.Chemscore.Metal>
0.0000

> <Gold.Chemscore.Hbonds>
donor molecule, donor type, donor heavy atom, donor atom, acceptor molecule, acceptor atom, score
      P1  H 10752 10764       L1     3  1.42

> <Gold.PLP.Chemscore.Internal.Correction>
0.0188

> <Gold.Rescore>
     Score         DG    S(hbond)    S(metal)    S(lipo)     H(rot)  DE(clash)    DE(int)     intcor
     15.40     -15.66       0.85        0.00      84.47       1.00       0.02       0.24       ----

> <Gold.Chemscore.Fitness>
15.3992

> <Gold.Chemscore.DG>
-15.6585

> <Gold.Chemscore.ZeroCoef>
-5.4800

> <Gold.Chemscore.Hbond>
0.8549

> <Gold.Chemscore.Metal>
0.0000

> <Gold.Chemscore.Lipo>
84.4711

> <Gold.Chemscore.Internal_Hbond>
0.0000

> <Gold.Chemscore.DEClash>
0.0164

> <Gold.Chemscore.DEInternal>
0.2429

> <Gold.Chemscore.Rot>
1.0000

> <Gold.Chemscore.Internal.Correction>
   9.000000E+99

> <Gold.Chemscore.Hbonds>
donor molecule, donor type, donor heavy atom, donor atom, acceptor molecule, acceptor atom, score
      P1  H 10752 10764       L1     3  0.10

> <Gold.Chemscore.Hbond.Weighted>
-2.8554

> <Gold.Chemscore.Metal.Weighted>
-0.0000

> <Gold.Chemscore.Lipo.Weighted>
-9.8831

> <Gold.Chemscore.Internal_Hbond.Weighted>
0.0000

> <Gold.Chemscore.DEClash.Weighted>
0.0164

> <Gold.Chemscore.DEInternal.Weighted>
0.2429

> <Gold.Chemscore.Rot.Weighted>
2.5600

> <Gold.Chemscore.Internal.Correction.Weighted>
   9.000000E+99

> <Gold.Protein.RotatedTorsions>
[ 6907 6896 6895 6894 ] final  119.79 input  -60.11 | X-H torsion
[ 7974 7965 7964 7962 ] final   -0.50 input  175.53 | X-H torsion
[ 8008 7997 7996 7995 ] final   76.28 input   59.86 | X-H torsion
[ 10167 10162 10161 10158 ] final   97.27 input  -65.29 | X-H torsion
[ 10718 10713 10712 10709 ] final -124.70 input   66.30 | X-H torsion
[ 10763 10752 10751 10750 ] final  -34.33 input  -60.55 | X-H torsion
[ 11005 11000 10999 10996 ] final -174.19 input  -57.11 | X-H torsion

> <Gold.Protein.ActiveResidues>
 VAL166  LYS551  ARG553  GLY616  TRP617  ASP618  TYR619  PRO620  LYS621  CYS622 
 ASP623  PHE694  ASN695  SER759  ASP760  ASP761  ALA762  ILE779  LEU786  VAL792 
 PHE793  MET794  SER795  GLU796  ALA797  LYS798  CYS799  TRP800  GLU811  SER814 

> <Gold.Protein.RotatedAtoms>
  152.4446  133.7512  159.6694 H   0  0  0  0  0  0  0  0  0  0  0  0  # atno 6907 bound_to 6896
  150.8343  133.8029  159.3092 H   0  0  0  0  0  0  0  0  0  0  0  0  # atno 6908 bound_to 6896
  151.5673  135.1066  160.0038 H   0  0  0  0  0  0  0  0  0  0  0  0  # atno 6909 bound_to 6896
  146.2426  140.1279  142.8338 H   0  0  0  0  0  0  0  0  0  0  0  0  # atno 7974 bound_to 7965
  155.8251  140.3468  155.5538 H   0  0  0  0  0  0  0  0  0  0  0  0  # atno 8008 bound_to 7997
  155.8301  140.0926  157.1817 H   0  0  0  0  0  0  0  0  0  0  0  0  # atno 8009 bound_to 7997
  154.4004  140.1414  156.3591 H   0  0  0  0  0  0  0  0  0  0  0  0  # atno 8010 bound_to 7997
  139.7816  144.6886  151.0014 H   0  0  0  0  0  0  0  0  0  0  0  0  # atno 10167 bound_to 10162
  156.1610  130.6602  151.0050 H   0  0  0  0  0  0  0  0  0  0  0  0  # atno 10718 bound_to 10713
  153.8449  135.6854  153.4798 H   0  0  0  0  0  0  0  0  0  0  0  0  # atno 10763 bound_to 10752
  153.1431  135.4649  154.9524 H   0  0  0  0  0  0  0  0  0  0  0  0  # atno 10764 bound_to 10752
  154.7828  135.3274  154.7899 H   0  0  0  0  0  0  0  0  0  0  0  0  # atno 10765 bound_to 10752
  140.4773  134.6108  157.4906 H   0  0  0  0  0  0  0  0  0  0  0  0  # atno 11005 bound_to 11000
  145.0351  140.8902  143.5086 LP  0  0  0  0  0  0  0  0  0  0  0  0  # atno 17320 bound_to 7965
  145.1349  139.2608  143.5520 LP  0  0  0  0  0  0  0  0  0  0  0  0  # atno 17321 bound_to 7965
  140.7818  143.4477  151.0459 LP  0  0  0  0  0  0  0  0  0  0  0  0  # atno 17342 bound_to 10162
  139.8157  143.7889  152.3174 LP  0  0  0  0  0  0  0  0  0  0  0  0  # atno 17343 bound_to 10162
  157.6732  131.0856  150.7559 LP  0  0  0  0  0  0  0  0  0  0  0  0  # atno 17370 bound_to 10713
  156.7622  130.4802  149.5434 LP  0  0  0  0  0  0  0  0  0  0  0  0  # atno 17371 bound_to 10713
  139.9848  134.7079  155.9794 LP  0  0  0  0  0  0  0  0  0  0  0  0  # atno 17394 bound_to 11000
  141.1548  133.6544  156.4127 LP  0  0  0  0  0  0  0  0  0  0  0  0  # atno 17395 bound_to 11000

$$$$
