AV-unprocessed.smi:36|AV-procd|sdf|284|dock9
  -GOLD-   2262016 63D 1   1.00000     0.00000
 Structure written by MMmdl.
 64 67  0  0  0  0  0  0  0  0  1 V2000
  146.9595  135.4317  162.1085 C   0  0  0  0  0  0  0  0  0  0  0  0
  146.4349  134.0794  161.5983 C   0  0  0  0  0  0  0  0  0  0  0  0
  147.5756  133.0479  161.5841 C   0  0  0  0  0  0  0  0  0  0  0  0
  145.2990  133.5816  162.5073 C   0  0  0  0  0  0  0  0  0  0  0  0
  145.7631  134.2872  159.8221 Si  0  0  0  0  0  0  0  0  0  0  0  0
  145.3598  132.6056  159.0357 C   0  0  0  0  0  0  0  0  0  0  0  0
  144.2205  135.3969  159.7978 C   0  0  0  0  0  0  0  0  0  0  0  0
  146.9717  135.0257  158.8984 O   0  0  0  0  0  0  0  0  0  0  0  0
  148.3102  134.5790  158.8630 C   0  0  0  0  0  0  0  0  0  0  0  0
  148.7352  134.3981  157.4006 C   0  0  1  0  0  0  0  0  0  0  0  0
  148.1468  135.4007  156.5661 O   0  0  0  0  0  0  0  0  0  0  0  0
  149.1079  135.9600  155.7174 C   0  0  1  0  0  0  0  0  0  0  0  0
  149.5088  137.2937  156.2748 N   0  0  0  0  0  0  0  0  0  0  0  0
  148.9012  138.0542  157.2531 C   0  0  0  0  0  0  0  0  0  0  0  0
  149.4878  139.1889  157.5263 N   0  0  0  0  0  0  0  0  0  0  0  0
  150.5631  139.2314  156.6489 C   0  0  0  0  0  0  0  0  0  0  0  0
  151.5959  140.1732  156.4029 C   0  0  0  0  0  0  0  0  0  0  0  0
  151.6660  141.3123  157.1308 N   0  0  0  0  0  0  0  0  0  0  0  0
  152.0297  141.4612  158.5287 C   0  0  0  0  0  0  0  0  0  0  0  0
  152.4319  140.5145  159.2059 O   0  0  0  0  0  0  0  0  0  0  0  0
  151.9765  142.8572  159.0774 C   0  0  0  0  0  0  0  0  0  0  0  0
  151.7550  143.9501  158.2097 C   0  0  0  0  0  0  0  0  0  0  0  0
  151.7239  145.2650  158.7134 C   0  0  0  0  0  0  0  0  0  0  0  0
  151.9217  145.4989  160.0872 C   0  0  0  0  0  0  0  0  0  0  0  0
  152.1537  144.4171  160.9570 C   0  0  0  0  0  0  0  0  0  0  0  0
  152.1847  143.1015  160.4549 C   0  0  0  0  0  0  0  0  0  0  0  0
  152.4979  139.8726  155.4316 N   0  0  0  0  0  0  0  0  0  0  0  0
  152.3910  138.7320  154.7435 C   0  0  0  0  0  0  0  0  0  0  0  0
  151.4797  137.7647  154.8687 N   0  0  0  0  0  0  0  0  0  0  0  0
  150.5765  138.0554  155.8491 C   0  0  0  0  0  0  0  0  0  0  0  0
  150.2968  134.9984  155.7405 C   0  0  0  0  0  0  0  0  0  0  0  0
  150.2467  134.4982  157.1684 C   0  0  2  0  0  0  0  0  0  0  0  0
  150.8963  133.2496  157.2918 O   0  0  0  0  0  0  0  0  0  0  0  0
  147.3500  135.3467  163.1230 H   0  0  0  0  0  0  0  0  0  0  0  0
  146.1706  136.1842  162.1226 H   0  0  0  0  0  0  0  0  0  0  0  0
  147.7641  135.8099  161.4776 H   0  0  0  0  0  0  0  0  0  0  0  0
  148.4037  133.3788  160.9569 H   0  0  0  0  0  0  0  0  0  0  0  0
  147.2354  132.0857  161.1993 H   0  0  0  0  0  0  0  0  0  0  0  0
  147.9710  132.8804  162.5866 H   0  0  0  0  0  0  0  0  0  0  0  0
  145.6471  133.4282  163.5293 H   0  0  0  0  0  0  0  0  0  0  0  0
  144.8945  132.6332  162.1520 H   0  0  0  0  0  0  0  0  0  0  0  0
  144.4768  134.2964  162.5447 H   0  0  0  0  0  0  0  0  0  0  0  0
  144.5877  132.0771  159.5943 H   0  0  0  0  0  0  0  0  0  0  0  0
  146.2361  131.9589  158.9994 H   0  0  0  0  0  0  0  0  0  0  0  0
  144.9994  132.7194  158.0137 H   0  0  0  0  0  0  0  0  0  0  0  0
  143.4290  134.9954  160.4302 H   0  0  0  0  0  0  0  0  0  0  0  0
  143.8123  135.4929  158.7919 H   0  0  0  0  0  0  0  0  0  0  0  0
  144.4445  136.4022  160.1539 H   0  0  0  0  0  0  0  0  0  0  0  0
  148.9445  135.3187  159.3523 H   0  0  0  0  0  0  0  0  0  0  0  0
  148.4053  133.6460  159.4174 H   0  0  0  0  0  0  0  0  0  0  0  0
  148.3675  133.4404  157.0284 H   0  0  0  0  0  0  0  0  0  0  0  0
  148.7163  136.1804  154.7237 H   0  0  0  0  0  0  0  0  0  0  0  0
  148.0026  137.7470  157.7661 H   0  0  0  0  0  0  0  0  0  0  0  0
  151.4165  142.1617  156.6455 H   0  0  0  0  0  0  0  0  0  0  0  0
  151.6031  143.7871  157.1523 H   0  0  0  0  0  0  0  0  0  0  0  0
  151.5497  146.0951  158.0447 H   0  0  0  0  0  0  0  0  0  0  0  0
  151.8997  146.5074  160.4730 H   0  0  0  0  0  0  0  0  0  0  0  0
  152.3113  144.5969  162.0103 H   0  0  0  0  0  0  0  0  0  0  0  0
  152.3745  142.2870  161.1384 H   0  0  0  0  0  0  0  0  0  0  0  0
  153.1447  138.5713  153.9868 H   0  0  0  0  0  0  0  0  0  0  0  0
  150.0980  134.1918  155.0330 H   0  0  0  0  0  0  0  0  0  0  0  0
  151.2373  135.4789  155.4711 H   0  0  0  0  0  0  0  0  0  0  0  0
  150.7012  135.2274  157.8410 H   0  0  0  0  0  0  0  0  0  0  0  0
  151.6643  133.2565  156.7403 H   0  0  0  0  0  0  0  0  0  0  0  0
  1  2  1  0  0  0  0
  1 34  1  0  0  0  0
  1 35  1  0  0  0  0
  1 36  1  0  0  0  0
  2  3  1  0  0  0  0
  2  4  1  0  0  0  0
  2  5  1  0  0  0  0
  3 37  1  0  0  0  0
  3 38  1  0  0  0  0
  3 39  1  0  0  0  0
  4 40  1  0  0  0  0
  4 41  1  0  0  0  0
  4 42  1  0  0  0  0
  5  6  1  0  0  0  0
  5  7  1  0  0  0  0
  5  8  1  0  0  0  0
  6 43  1  0  0  0  0
  6 44  1  0  0  0  0
  6 45  1  0  0  0  0
  7 46  1  0  0  0  0
  7 47  1  0  0  0  0
  7 48  1  0  0  0  0
  8  9  1  0  0  0  0
  9 10  1  0  0  0  0
  9 49  1  0  0  0  0
  9 50  1  0  0  0  0
 10 32  1  0  0  0  0
 10 11  1  0  0  0  0
 10 51  1  0  0  0  0
 11 12  1  0  0  0  0
 12 13  1  0  0  0  0
 12 31  1  0  0  0  0
 12 52  1  0  0  0  0
 13 30  1  0  0  0  0
 13 14  1  0  0  0  0
 14 15  2  0  0  0  0
 14 53  1  0  0  0  0
 15 16  1  0  0  0  0
 16 30  2  0  0  0  0
 16 17  1  0  0  0  0
 17 18  1  0  0  0  0
 17 27  2  0  0  0  0
 18 19  1  0  0  0  0
 18 54  1  0  0  0  0
 19 20  2  0  0  0  0
 19 21  1  0  0  0  0
 21 26  1  0  0  0  0
 21 22  2  0  0  0  0
 22 23  1  0  0  0  0
 22 55  1  0  0  0  0
 23 24  2  0  0  0  0
 23 56  1  0  0  0  0
 24 25  1  0  0  0  0
 24 57  1  0  0  0  0
 25 26  2  0  0  0  0
 25 58  1  0  0  0  0
 26 59  1  0  0  0  0
 27 28  1  0  0  0  0
 28 29  2  0  0  0  0
 28 60  1  0  0  0  0
 29 30  1  0  0  0  0
 31 32  1  0  0  0  0
 31 61  1  0  0  0  0
 31 62  1  0  0  0  0
 32 33  1  0  0  0  0
 32 63  1  0  0  0  0
 33 64  1  0  0  0  0
M  END
> <s_m_source_file>
AV-unprocessed.smi

> <i_m_source_file_index>
36

> <i_lp_mmshare_version>
43012

> <i_f3d_flags>
0

> <s_epik_input>
W0NIM11DKFtDSDNdKShbQ0gzXSlbU2ldKFtDSDNdKShbQ0gzXSlPW0NIMl1bQ0BASF0xT1tDQEhdKFtDSDJdW0NASF0xW09IXSluKFtjSF1uMiljKGMyMyluW2NIXW5jM1tOSF1DKD1PKWM0W2NIXVtjSF1bY0hdW2NIXVtjSF00

> <s_epik_cmdline>
J2VwaWtfcHl0aG9uJywgJy1waCcsICc3LjAnLCAnLXRuJywgJzgnLCAnLW1hJywgJzIwMCcsICctbWV0YWxfYmluZGluZycsICctaW1hZScsICc8aW5maWxlLm1hZT4nLCAnLW9tYWUnLCAnPG91dGZpbGUubWFlPic=

> <r_lp_tautomer_probability>
1

> <r_epik_Ionization_Penalty>
0.00150433

> <r_epik_Ionization_Penalty_Charging>
0

> <r_epik_Ionization_Penalty_Neutral>
0.00150433

> <r_epik_State_Penalty>
0.00724046

> <r_epik_Charging_Adjusted_Penalty>
0.00724046

> <i_epik_Tot_Q>
0

> <i_epik_Tot_abs_Q>
0

> <r_epik_Metal_State_Penalty>
0.323355

> <b_epik_Metal_Only>
0

> <s_epik_Chemistry_Notes>
This compound contains an acetal/aminal-like group ( X-CH(R)-Y where X, Y are N, S, or O) that may be acid/base labile, releasing an aldehyde.

> <s_lp_Force_Field>
OPLS_2005

> <r_lp_Energy>
33.6094

> <b_lp_Chiralities_Consistent>
1

> <s_lp_Variant>
AV-unprocessed.smi:36-6

> <Gold.Version>
5.8.1

> <Gold.Id.Protein>
6NUR|6NUR_protein|mol2

> <Gold.PLP.Fitness>
52.8349

> <Gold.PLP.PLP>
-50.7026

> <Gold.PLP.part.hbond>
-2.9453

> <Gold.PLP.part.metal>
0.0000

> <Gold.PLP.part.buried>
-5.4374

> <Gold.PLP.part.nonpolar>
-42.3341

> <Gold.PLP.part.repulsive>
0.2304

> <Gold.PLP.ligand.clash>
0.0000

> <Gold.PLP.ligand.torsion>
1.7433

> <Gold.PLP.Chemscore.Hbond>
1.7069

> <Gold.PLP.Chemscore.CHOScore>
0.0000

> <Gold.PLP.Chemscore.Metal>
0.0000

> <Gold.Chemscore.Hbonds>
donor molecule, donor type, donor heavy atom, donor atom, acceptor molecule, acceptor atom, score
      P1  H  6896  6907       L1    33  0.68
      P1  H  7989  7998       L1    27  0.04
      P1  H  7997  8009       L1    27  1.00

> <Gold.PLP.Chemscore.Internal.Correction>
0.4981

> <Gold.Rescore>
     Score         DG    S(hbond)    S(metal)    S(lipo)     H(rot)  DE(clash)    DE(int)     intcor
     14.38     -16.34       1.35        0.00     113.37       2.70       0.14       1.81       ----

> <Gold.Chemscore.Fitness>
14.3825

> <Gold.Chemscore.DG>
-16.3351

> <Gold.Chemscore.ZeroCoef>
-5.4800

> <Gold.Chemscore.Hbond>
1.3513

> <Gold.Chemscore.Metal>
0.0000

> <Gold.Chemscore.Lipo>
113.3699

> <Gold.Chemscore.Internal_Hbond>
0.0000

> <Gold.Chemscore.DEClash>
0.1437

> <Gold.Chemscore.DEInternal>
1.8090

> <Gold.Chemscore.Rot>
2.7041

> <Gold.Chemscore.Internal.Correction>
   9.000000E+99

> <Gold.Chemscore.Hbonds>
donor molecule, donor type, donor heavy atom, donor atom, acceptor molecule, acceptor atom, score
      P1  H  6896  6907       L1    33  0.10
      P1  H  7997  8009       L1    27  0.62

> <Gold.Chemscore.Hbond.Weighted>
-4.5133

> <Gold.Chemscore.Metal.Weighted>
-0.0000

> <Gold.Chemscore.Lipo.Weighted>
-13.2643

> <Gold.Chemscore.Internal_Hbond.Weighted>
0.0000

> <Gold.Chemscore.DEClash.Weighted>
0.1437

> <Gold.Chemscore.DEInternal.Weighted>
1.8090

> <Gold.Chemscore.Rot.Weighted>
6.9225

> <Gold.Chemscore.Internal.Correction.Weighted>
   9.000000E+99

> <Gold.Protein.RotatedTorsions>
[ 6907 6896 6895 6894 ] final -163.91 input  -60.11 | X-H torsion
[ 7974 7965 7964 7962 ] final -172.02 input  175.53 | X-H torsion
[ 8008 7997 7996 7995 ] final -143.83 input   59.86 | X-H torsion
[ 10167 10162 10161 10158 ] final   27.50 input  -65.29 | X-H torsion
[ 10718 10713 10712 10709 ] final    7.29 input   66.30 | X-H torsion
[ 10763 10752 10751 10750 ] final  169.54 input  -60.55 | X-H torsion
[ 11005 11000 10999 10996 ] final  118.12 input  -57.11 | X-H torsion

> <Gold.Protein.ActiveResidues>
 VAL166  LYS551  ARG553  GLY616  TRP617  ASP618  TYR619  PRO620  LYS621  CYS622 
 ASP623  PHE694  ASN695  SER759  ASP760  ASP761  ALA762  ILE779  LEU786  VAL792 
 PHE793  MET794  SER795  GLU796  ALA797  LYS798  CYS799  TRP800  GLU811  SER814 

> <Gold.Protein.RotatedAtoms>
  151.4034  133.3750  159.2734 H   0  0  0  0  0  0  0  0  0  0  0  0  # atno 6907 bound_to 6896
  150.9416  134.8826  159.7626 H   0  0  0  0  0  0  0  0  0  0  0  0  # atno 6908 bound_to 6896
  152.5074  134.3985  159.9460 H   0  0  0  0  0  0  0  0  0  0  0  0  # atno 6909 bound_to 6896
  144.7150  140.1834  143.6356 H   0  0  0  0  0  0  0  0  0  0  0  0  # atno 7974 bound_to 7965
  155.5170  140.0588  157.2913 H   0  0  0  0  0  0  0  0  0  0  0  0  # atno 8008 bound_to 7997
  154.4531  140.1959  156.0407 H   0  0  0  0  0  0  0  0  0  0  0  0  # atno 8009 bound_to 7997
  156.0745  140.3255  155.7620 H   0  0  0  0  0  0  0  0  0  0  0  0  # atno 8010 bound_to 7997
  140.4933  144.0432  150.6305 H   0  0  0  0  0  0  0  0  0  0  0  0  # atno 10167 bound_to 10162
  156.9347  130.5839  149.5650 H   0  0  0  0  0  0  0  0  0  0  0  0  # atno 10718 bound_to 10713
  154.3847  135.2753  155.2191 H   0  0  0  0  0  0  0  0  0  0  0  0  # atno 10763 bound_to 10752
  154.4282  135.5983  153.6056 H   0  0  0  0  0  0  0  0  0  0  0  0  # atno 10764 bound_to 10752
  152.9833  135.5989  154.4094 H   0  0  0  0  0  0  0  0  0  0  0  0  # atno 10765 bound_to 10752
  139.9098  134.9617  156.7455 H   0  0  0  0  0  0  0  0  0  0  0  0  # atno 11005 bound_to 11000
  145.8835  139.2336  143.1591 LP  0  0  0  0  0  0  0  0  0  0  0  0  # atno 17320 bound_to 7965
  145.9972  140.8552  143.0037 LP  0  0  0  0  0  0  0  0  0  0  0  0  # atno 17321 bound_to 7965
  140.3707  143.2856  152.0281 LP  0  0  0  0  0  0  0  0  0  0  0  0  # atno 17342 bound_to 10162
  139.4856  144.6232  151.7215 LP  0  0  0  0  0  0  0  0  0  0  0  0  # atno 17343 bound_to 10162
  156.0431  130.5511  150.8818 LP  0  0  0  0  0  0  0  0  0  0  0  0  # atno 17370 bound_to 10713
  157.5824  131.0946  150.9250 LP  0  0  0  0  0  0  0  0  0  0  0  0  # atno 17371 bound_to 10713
  140.6815  133.9470  155.7913 LP  0  0  0  0  0  0  0  0  0  0  0  0  # atno 17394 bound_to 11000
  141.0507  134.0489  157.3787 LP  0  0  0  0  0  0  0  0  0  0  0  0  # atno 17395 bound_to 11000

$$$$
