AV-unprocessed.smi:1728|AV-procd|sdf|6968|dock2
  -GOLD-   22720 8183D 1   1.00000     0.00000
 Structure written by MMmdl.
 47 48  0  0  0  0  0  0  0  0  2 V2000
  151.5897  138.3531  154.3624 C   0  0  0  0  0  0  0  0  0  0  0  0
  150.2619  138.3187  153.8508 O   0  0  0  0  0  0  0  0  0  0  0  0
  149.4834  139.4556  153.9586 C   0  0  0  0  0  0  0  0  0  0  0  0
  150.0069  140.5377  154.5874 N   0  0  0  0  0  0  0  0  0  0  0  0
  149.2510  141.6499  154.6891 C   0  0  0  0  0  0  0  0  0  0  0  0
  147.9475  141.7453  154.1691 C   0  0  0  0  0  0  0  0  0  0  0  0
  147.4020  140.6245  153.5161 C   0  0  0  0  0  0  0  0  0  0  0  0
  148.1780  139.4439  153.4131 C   0  0  0  0  0  0  0  0  0  0  0  0
  147.7390  138.2568  152.7629 N   0  0  0  0  0  0  0  0  0  0  0  0
  146.4863  137.8213  152.5483 C   0  0  0  0  0  0  0  0  0  0  0  0
  145.4572  138.4005  152.8947 O   0  0  0  0  0  0  0  0  0  0  0  0
  146.4910  136.6393  151.9157 N   0  0  0  0  0  0  0  0  0  0  0  0
  145.3058  135.8782  151.5227 C   0  0  0  0  0  0  0  0  0  0  0  0
  145.4257  134.3488  151.8012 C   0  0  0  0  0  0  0  0  0  0  0  0
  144.0801  133.6525  151.4788 C   0  0  0  0  0  0  0  0  0  0  0  0
  146.4758  133.7052  150.8607 C   0  0  0  0  0  0  0  0  0  0  0  0
  145.8061  134.0819  153.2356 N   0  3  0  0  0  0  0  0  0  0  0  0
  144.9182  134.6912  154.2664 C   0  0  0  0  0  0  0  0  0  0  0  0
  145.5125  134.5039  155.6721 C   0  0  0  0  0  0  0  0  0  0  0  0
  145.7045  133.1206  155.9306 O   0  0  0  0  0  0  0  0  0  0  0  0
  146.6203  132.5393  155.0138 C   0  0  0  0  0  0  0  0  0  0  0  0
  146.0677  132.6562  153.5836 C   0  0  0  0  0  0  0  0  0  0  0  0
  152.0644  137.3858  154.1982 H   0  0  0  0  0  0  0  0  0  0  0  0
  151.5996  138.5479  155.4357 H   0  0  0  0  0  0  0  0  0  0  0  0
  152.1928  139.1080  153.8557 H   0  0  0  0  0  0  0  0  0  0  0  0
  149.7023  142.4908  155.1945 H   0  0  0  0  0  0  0  0  0  0  0  0
  147.3805  142.6594  154.2642 H   0  0  0  0  0  0  0  0  0  0  0  0
  146.4104  140.7026  153.0993 H   0  0  0  0  0  0  0  0  0  0  0  0
  148.4783  137.6324  152.4752 H   0  0  0  0  0  0  0  0  0  0  0  0
  147.3861  136.2376  151.6768 H   0  0  0  0  0  0  0  0  0  0  0  0
  144.4246  136.2984  152.0080 H   0  0  0  0  0  0  0  0  0  0  0  0
  145.1722  136.0611  150.4571 H   0  0  0  0  0  0  0  0  0  0  0  0
  143.8721  133.6518  150.4082 H   0  0  0  0  0  0  0  0  0  0  0  0
  143.2323  134.1489  151.9501 H   0  0  0  0  0  0  0  0  0  0  0  0
  144.0840  132.6114  151.8035 H   0  0  0  0  0  0  0  0  0  0  0  0
  146.1348  133.6870  149.8249 H   0  0  0  0  0  0  0  0  0  0  0  0
  146.6844  132.6726  151.1433 H   0  0  0  0  0  0  0  0  0  0  0  0
  147.4192  134.2505  150.8575 H   0  0  0  0  0  0  0  0  0  0  0  0
  144.7869  135.7592  154.1036 H   0  0  0  0  0  0  0  0  0  0  0  0
  143.9287  134.2354  154.2321 H   0  0  0  0  0  0  0  0  0  0  0  0
  146.4567  135.0417  155.7713 H   0  0  0  0  0  0  0  0  0  0  0  0
  144.8345  134.9106  156.4226 H   0  0  0  0  0  0  0  0  0  0  0  0
  147.5955  133.0219  155.0960 H   0  0  0  0  0  0  0  0  0  0  0  0
  146.7619  131.4907  155.2765 H   0  0  0  0  0  0  0  0  0  0  0  0
  145.1497  132.0732  153.5067 H   0  0  0  0  0  0  0  0  0  0  0  0
  146.7942  132.2054  152.9102 H   0  0  0  0  0  0  0  0  0  0  0  0
  146.6955  134.5466  153.3509 H   0  0  0  0  0  0  0  0  0  0  0  0
  1  2  1  0  0  0  0
  1 23  1  0  0  0  0
  1 24  1  0  0  0  0
  1 25  1  0  0  0  0
  2  3  1  0  0  0  0
  3  8  1  0  0  0  0
  3  4  2  0  0  0  0
  4  5  1  0  0  0  0
  5  6  2  0  0  0  0
  5 26  1  0  0  0  0
  6  7  1  0  0  0  0
  6 27  1  0  0  0  0
  7  8  2  0  0  0  0
  7 28  1  0  0  0  0
  8  9  1  0  0  0  0
  9 10  1  0  0  0  0
  9 29  1  0  0  0  0
 10 11  2  0  0  0  0
 10 12  1  0  0  0  0
 12 13  1  0  0  0  0
 12 30  1  0  0  0  0
 13 14  1  0  0  0  0
 13 31  1  0  0  0  0
 13 32  1  0  0  0  0
 14 15  1  0  0  0  0
 14 16  1  0  0  0  0
 14 17  1  0  0  0  0
 15 33  1  0  0  0  0
 15 34  1  0  0  0  0
 15 35  1  0  0  0  0
 16 36  1  0  0  0  0
 16 37  1  0  0  0  0
 16 38  1  0  0  0  0
 17 22  1  0  0  0  0
 17 18  1  0  0  0  0
 17 47  1  0  0  0  0
 18 19  1  0  0  0  0
 18 39  1  0  0  0  0
 18 40  1  0  0  0  0
 19 20  1  0  0  0  0
 19 41  1  0  0  0  0
 19 42  1  0  0  0  0
 20 21  1  0  0  0  0
 21 22  1  0  0  0  0
 21 43  1  0  0  0  0
 21 44  1  0  0  0  0
 22 45  1  0  0  0  0
 22 46  1  0  0  0  0
M  CHG  1  17   1
M  END
> <s_m_source_file>
AV-unprocessed.smi

> <i_m_source_file_index>
1728

> <i_lp_mmshare_version>
43012

> <i_f3d_flags>
0

> <s_epik_input>
W0NIM11PYzFuW2NIXVtjSF1bY0hdYzFbTkhdQyg9TylbTkhdW0NIMl1DKFtDSDNdKShbQ0gzXSlOMltDSDJdW0NIMl1PW0NIMl1bQ0gyXTI=

> <s_epik_cmdline>
J2VwaWtfcHl0aG9uJywgJy1waCcsICc3LjAnLCAnLXRuJywgJzgnLCAnLW1hJywgJzIwMCcsICctbWV0YWxfYmluZGluZycsICctaW1hZScsICc8aW5maWxlLm1hZT4nLCAnLW9tYWUnLCAnPG91dGZpbGUubWFlPic=

> <r_lp_tautomer_probability>
1

> <r_epik_Ionization_Penalty>
0.602608

> <r_epik_Ionization_Penalty_Charging>
0.602531

> <r_epik_Ionization_Penalty_Neutral>
7.74611e-05

> <r_epik_State_Penalty>
0.617039

> <r_epik_Charging_Adjusted_Penalty>
1.21957

> <i_epik_Tot_Q>
1

> <i_epik_Tot_abs_Q>
1

> <r_epik_Metal_State_Penalty>
0.617043

> <b_epik_Metal_Only>
0

> <s_lp_Force_Field>
OPLS_2005

> <r_lp_Energy>
27.5646

> <b_lp_Chiralities_Consistent>
1

> <s_lp_Variant>
AV-unprocessed.smi:1728-2

> <Gold.Version>
5.8.1

> <Gold.Id.Protein>
6NUR|6NUR_protein|mol2

> <Gold.PLP.Fitness>
40.2853

> <Gold.PLP.PLP>
-29.1520

> <Gold.PLP.part.hbond>
-3.7520

> <Gold.PLP.part.metal>
0.0000

> <Gold.PLP.part.buried>
0.5611

> <Gold.PLP.part.nonpolar>
-28.4330

> <Gold.PLP.part.repulsive>
3.4463

> <Gold.PLP.ligand.clash>
0.0000

> <Gold.PLP.ligand.torsion>
0.3308

> <Gold.PLP.Chemscore.Hbond>
2.8800

> <Gold.PLP.Chemscore.CHOScore>
1.0000

> <Gold.PLP.Chemscore.Metal>
0.0000

> <Gold.Chemscore.Hbonds>
donor molecule, donor type, donor heavy atom, donor atom, acceptor molecule, acceptor atom, score
      L1  H     9    29       P1  7948  1.00
      L1  H    12    30       P1  7948  1.00
      P1  H  7989  7998       L1     4  0.86
      L1  C     5    26       P1  8028  1.00

> <Gold.PLP.Chemscore.Internal.Correction>
0.1550

> <Gold.Rescore>
     Score         DG    S(hbond)    S(metal)    S(lipo)     H(rot)  DE(clash)    DE(int)     intcor
     12.78     -14.56       1.95        0.00      60.40       1.76       0.49       1.29       ----

> <Gold.Chemscore.Fitness>
12.7798

> <Gold.Chemscore.DG>
-14.5639

> <Gold.Chemscore.ZeroCoef>
-5.4800

> <Gold.Chemscore.Hbond>
1.9511

> <Gold.Chemscore.Metal>
0.0000

> <Gold.Chemscore.Lipo>
60.4010

> <Gold.Chemscore.Internal_Hbond>
0.0000

> <Gold.Chemscore.DEClash>
0.4891

> <Gold.Chemscore.DEInternal>
1.2949

> <Gold.Chemscore.Rot>
1.7577

> <Gold.Chemscore.Internal.Correction>
   9.000000E+99

> <Gold.Chemscore.Hbonds>
donor molecule, donor type, donor heavy atom, donor atom, acceptor molecule, acceptor atom, score
      L1  H     9    29       P1  7948  0.93
      L1  H    12    30       P1  7948  0.89
      P1  H  7989  7998       L1     4  0.19

> <Gold.Chemscore.Hbond.Weighted>
-6.5167

> <Gold.Chemscore.Metal.Weighted>
-0.0000

> <Gold.Chemscore.Lipo.Weighted>
-7.0669

> <Gold.Chemscore.Internal_Hbond.Weighted>
0.0000

> <Gold.Chemscore.DEClash.Weighted>
0.4891

> <Gold.Chemscore.DEInternal.Weighted>
1.2949

> <Gold.Chemscore.Rot.Weighted>
4.4997

> <Gold.Chemscore.Internal.Correction.Weighted>
   9.000000E+99

> <Gold.Protein.RotatedTorsions>
[ 6907 6896 6895 6894 ] final  142.95 input  -60.11 | X-H torsion
[ 7974 7965 7964 7962 ] final   13.50 input  175.53 | X-H torsion
[ 8008 7997 7996 7995 ] final   12.17 input   59.86 | X-H torsion
[ 10167 10162 10161 10158 ] final -169.86 input  -65.29 | X-H torsion
[ 10718 10713 10712 10709 ] final -161.21 input   66.30 | X-H torsion
[ 10763 10752 10751 10750 ] final    9.20 input  -60.55 | X-H torsion
[ 11005 11000 10999 10996 ] final   47.61 input  -57.11 | X-H torsion

> <Gold.Protein.ActiveResidues>
 VAL166  LYS551  ARG553  GLY616  TRP617  ASP618  TYR619  PRO620  LYS621  CYS622 
 ASP623  PHE694  ASN695  SER759  ASP760  ASP761  ALA762  ILE779  LEU786  VAL792 
 PHE793  MET794  SER795  GLU796  ALA797  LYS798  CYS799  TRP800  GLU811  SER814 

> <Gold.Protein.RotatedAtoms>
  152.2124  133.4921  159.5117 H   0  0  0  0  0  0  0  0  0  0  0  0  # atno 6907 bound_to 6896
  150.6993  134.1449  159.4128 H   0  0  0  0  0  0  0  0  0  0  0  0  # atno 6908 bound_to 6896
  151.9369  135.0231  160.0584 H   0  0  0  0  0  0  0  0  0  0  0  0  # atno 6909 bound_to 6896
  146.2328  139.9179  142.8514 H   0  0  0  0  0  0  0  0  0  0  0  0  # atno 7974 bound_to 7965
  154.8170  140.2877  155.5813 H   0  0  0  0  0  0  0  0  0  0  0  0  # atno 8008 bound_to 7997
  156.2994  140.2557  156.2999 H   0  0  0  0  0  0  0  0  0  0  0  0  # atno 8009 bound_to 7997
  154.9382  140.0382  157.2073 H   0  0  0  0  0  0  0  0  0  0  0  0  # atno 8010 bound_to 7997
  139.5897  144.1241  152.1619 H   0  0  0  0  0  0  0  0  0  0  0  0  # atno 10167 bound_to 10162
  156.5931  130.8778  151.2895 H   0  0  0  0  0  0  0  0  0  0  0  0  # atno 10718 bound_to 10713
  153.2166  135.6876  153.8050 H   0  0  0  0  0  0  0  0  0  0  0  0  # atno 10763 bound_to 10752
  153.7264  135.3259  155.3278 H   0  0  0  0  0  0  0  0  0  0  0  0  # atno 10764 bound_to 10752
  154.8249  135.4625  154.0996 H   0  0  0  0  0  0  0  0  0  0  0  0  # atno 10765 bound_to 10752
  140.1264  134.4763  155.8556 H   0  0  0  0  0  0  0  0  0  0  0  0  # atno 11005 bound_to 11000
  145.2165  140.9917  143.4070 LP  0  0  0  0  0  0  0  0  0  0  0  0  # atno 17320 bound_to 7965
  144.9646  139.3943  143.6339 LP  0  0  0  0  0  0  0  0  0  0  0  0  # atno 17321 bound_to 7965
  140.0812  144.5699  150.7121 LP  0  0  0  0  0  0  0  0  0  0  0  0  # atno 17342 bound_to 10162
  140.7162  143.2547  151.4426 LP  0  0  0  0  0  0  0  0  0  0  0  0  # atno 17343 bound_to 10162
  157.7299  130.9677  150.1806 LP  0  0  0  0  0  0  0  0  0  0  0  0  # atno 17370 bound_to 10713
  156.2533  130.3703  149.8209 LP  0  0  0  0  0  0  0  0  0  0  0  0  # atno 17371 bound_to 10713
  141.2162  133.6779  156.6985 LP  0  0  0  0  0  0  0  0  0  0  0  0  # atno 17394 bound_to 11000
  140.2899  134.8249  157.4007 LP  0  0  0  0  0  0  0  0  0  0  0  0  # atno 17395 bound_to 11000

$$$$
