AV-unprocessed.smi:1047|AV-procd|sdf|4595|dock4
  -GOLD-   22720 3 83D 1   1.00000     0.00000
 Structure written by MMmdl.
 55 57  0  0  0  0  0  0  0  0  1 V2000
  141.9778  143.3586  156.0608 C   0  0  0  0  0  0  0  0  0  0  0  0
  142.8771  144.5925  156.2231 C   0  0  0  0  0  0  0  0  0  0  0  0
  143.9663  144.6935  155.2533 N   0  0  0  0  0  0  0  0  0  0  0  0
  143.4579  145.0399  153.9308 C   0  0  0  0  0  0  0  0  0  0  0  0
  144.5854  145.1446  152.8906 C   0  0  0  0  0  0  0  0  0  0  0  0
  145.3135  143.9218  152.8573 O   0  0  0  0  0  0  0  0  0  0  0  0
  145.8842  143.5807  154.1186 C   0  0  2  0  0  0  0  0  0  0  0  0
  146.6529  142.2617  153.9584 C   0  0  0  0  0  0  0  0  0  0  0  0
  147.4597  141.9824  155.1415 N   0  0  0  0  0  0  0  0  0  0  0  0
  148.6151  141.1309  154.8765 C   0  0  0  0  0  0  0  0  0  0  0  0
  149.5867  141.1249  156.0689 C   0  0  1  0  0  0  0  0  0  0  0  0
  149.0368  140.3209  157.0952 O   0  0  0  0  0  0  0  0  0  0  0  0
  150.9672  140.5616  155.6805 C   0  0  0  0  0  0  0  0  0  0  0  0
  151.8521  140.4308  156.8243 N   0  0  0  0  0  0  0  0  0  0  0  0
  152.7448  139.4493  157.0574 C   0  0  0  0  0  0  0  0  0  0  0  0
  153.4530  139.5244  158.1807 N   0  0  0  0  0  0  0  0  0  0  0  0
  152.9622  140.6911  158.7421 C   0  0  0  0  0  0  0  0  0  0  0  0
  153.2970  141.3385  159.9515 C   0  0  0  0  0  0  0  0  0  0  0  0
  152.6586  142.5408  160.3311 C   0  0  0  0  0  0  0  0  0  0  0  0
  153.0494  143.2033  161.6404 C   0  0  0  0  0  0  0  0  0  0  0  0
  151.6679  143.1143  159.4938 C   0  0  0  0  0  0  0  0  0  0  0  0
  150.9717  144.4078  159.8783 C   0  0  0  0  0  0  0  0  0  0  0  0
  151.3198  142.4793  158.2832 C   0  0  0  0  0  0  0  0  0  0  0  0
  151.9619  141.2833  157.9170 C   0  0  0  0  0  0  0  0  0  0  0  0
  144.7474  143.4622  155.1536 C   0  0  0  0  0  0  0  0  0  0  0  0
  141.2656  143.2938  156.8836 H   0  0  0  0  0  0  0  0  0  0  0  0
  142.5663  142.4406  156.0600 H   0  0  0  0  0  0  0  0  0  0  0  0
  141.4009  143.3926  155.1369 H   0  0  0  0  0  0  0  0  0  0  0  0
  142.2658  145.4957  156.1913 H   0  0  0  0  0  0  0  0  0  0  0  0
  143.3035  144.5545  157.2265 H   0  0  0  0  0  0  0  0  0  0  0  0
  142.7365  144.2892  153.6039 H   0  0  0  0  0  0  0  0  0  0  0  0
  142.9219  145.9885  153.9765 H   0  0  0  0  0  0  0  0  0  0  0  0
  144.1718  145.3409  151.9013 H   0  0  0  0  0  0  0  0  0  0  0  0
  145.2573  145.9711  153.1276 H   0  0  0  0  0  0  0  0  0  0  0  0
  146.5726  144.3676  154.4343 H   0  0  0  0  0  0  0  0  0  0  0  0
  145.9451  141.4459  153.8063 H   0  0  0  0  0  0  0  0  0  0  0  0
  147.2790  142.3035  153.0662 H   0  0  0  0  0  0  0  0  0  0  0  0
  147.7637  142.8554  155.5611 H   0  0  0  0  0  0  0  0  0  0  0  0
  148.3025  140.1156  154.6286 H   0  0  0  0  0  0  0  0  0  0  0  0
  149.1373  141.5149  153.9991 H   0  0  0  0  0  0  0  0  0  0  0  0
  149.7150  142.1398  156.4487 H   0  0  0  0  0  0  0  0  0  0  0  0
  148.1506  140.0952  156.8582 H   0  0  0  0  0  0  0  0  0  0  0  0
  150.8644  139.5862  155.2021 H   0  0  0  0  0  0  0  0  0  0  0  0
  151.4502  141.2157  154.9534 H   0  0  0  0  0  0  0  0  0  0  0  0
  152.8792  138.6310  156.3651 H   0  0  0  0  0  0  0  0  0  0  0  0
  154.0517  140.9010  160.5885 H   0  0  0  0  0  0  0  0  0  0  0  0
  153.4603  144.1966  161.4577 H   0  0  0  0  0  0  0  0  0  0  0  0
  153.8028  142.6213  162.1723 H   0  0  0  0  0  0  0  0  0  0  0  0
  152.1819  143.3019  162.2933 H   0  0  0  0  0  0  0  0  0  0  0  0
  150.2387  144.7032  159.1273 H   0  0  0  0  0  0  0  0  0  0  0  0
  151.6961  145.2169  159.9755 H   0  0  0  0  0  0  0  0  0  0  0  0
  150.4491  144.2939  160.8283 H   0  0  0  0  0  0  0  0  0  0  0  0
  150.5657  142.9031  157.6366 H   0  0  0  0  0  0  0  0  0  0  0  0
  145.1830  143.2154  156.1213 H   0  0  0  0  0  0  0  0  0  0  0  0
  144.0940  142.6309  154.8833 H   0  0  0  0  0  0  0  0  0  0  0  0
  1  2  1  0  0  0  0
  1 26  1  0  0  0  0
  1 27  1  0  0  0  0
  1 28  1  0  0  0  0
  2  3  1  0  0  0  0
  2 29  1  0  0  0  0
  2 30  1  0  0  0  0
  3 25  1  0  0  0  0
  3  4  1  0  0  0  0
  4  5  1  0  0  0  0
  4 31  1  0  0  0  0
  4 32  1  0  0  0  0
  5  6  1  0  0  0  0
  5 33  1  0  0  0  0
  5 34  1  0  0  0  0
  6  7  1  0  0  0  0
  7  8  1  0  0  0  0
  7 25  1  0  0  0  0
  7 35  1  0  0  0  0
  8  9  1  0  0  0  0
  8 36  1  0  0  0  0
  8 37  1  0  0  0  0
  9 10  1  0  0  0  0
  9 38  1  0  0  0  0
 10 11  1  0  0  0  0
 10 39  1  0  0  0  0
 10 40  1  0  0  0  0
 11 12  1  0  0  0  0
 11 13  1  0  0  0  0
 11 41  1  0  0  0  0
 12 42  1  0  0  0  0
 13 14  1  0  0  0  0
 13 43  1  0  0  0  0
 13 44  1  0  0  0  0
 14 24  1  0  0  0  0
 14 15  1  0  0  0  0
 15 16  2  0  0  0  0
 15 45  1  0  0  0  0
 16 17  1  0  0  0  0
 17 24  2  0  0  0  0
 17 18  1  0  0  0  0
 18 19  2  0  0  0  0
 18 46  1  0  0  0  0
 19 20  1  0  0  0  0
 19 21  1  0  0  0  0
 20 47  1  0  0  0  0
 20 48  1  0  0  0  0
 20 49  1  0  0  0  0
 21 22  1  0  0  0  0
 21 23  2  0  0  0  0
 22 50  1  0  0  0  0
 22 51  1  0  0  0  0
 22 52  1  0  0  0  0
 23 24  1  0  0  0  0
 23 53  1  0  0  0  0
 25 54  1  0  0  0  0
 25 55  1  0  0  0  0
M  END
> <s_m_source_file>
AV-unprocessed.smi

> <i_m_source_file_index>
1047

> <i_lp_mmshare_version>
43012

> <i_f3d_flags>
0

> <s_epik_input>
W0NIM11bQ0gyXU4xW0NIMl1bQ0gyXU9bQ0BIXShbQ0gyXTEpW0NIMl1bTkhdW0NIMl1bQ0BIXShbT0hdKVtDSDJdbihbY0hdbjIpYyhjMjMpW2NIXWMoW0NIM10pYyhbY0hdMylbQ0gzXQ==

> <s_epik_cmdline>
J2VwaWtfcHl0aG9uJywgJy1waCcsICc3LjAnLCAnLXRuJywgJzgnLCAnLW1hJywgJzIwMCcsICctbWV0YWxfYmluZGluZycsICctaW1hZScsICc8aW5maWxlLm1hZT4nLCAnLW9tYWUnLCAnPG91dGZpbGUubWFlPic=

> <r_epik_Ionization_Penalty>
2.74124

> <r_epik_Ionization_Penalty_Charging>
0

> <r_epik_Ionization_Penalty_Neutral>
2.74124

> <r_epik_State_Penalty>
2.37482

> <r_epik_Charging_Adjusted_Penalty>
2.37482

> <i_epik_Tot_Q>
0

> <i_epik_Tot_abs_Q>
0

> <r_epik_Metal_State_Penalty>
2.25944

> <b_epik_Metal_Only>
0

> <s_lp_Force_Field>
OPLS_2005

> <r_lp_Energy>
34.1371

> <b_lp_Chiralities_Consistent>
1

> <s_lp_Variant>
AV-unprocessed.smi:1047-36

> <Gold.Version>
5.8.1

> <Gold.Id.Protein>
6NUR|6NUR_protein|mol2

> <Gold.PLP.Fitness>
50.5889

> <Gold.PLP.PLP>
-46.9781

> <Gold.PLP.part.hbond>
-2.1846

> <Gold.PLP.part.metal>
0.0000

> <Gold.PLP.part.buried>
-3.3721

> <Gold.PLP.part.nonpolar>
-39.7497

> <Gold.PLP.part.repulsive>
0.2814

> <Gold.PLP.ligand.clash>
0.0000

> <Gold.PLP.ligand.torsion>
0.7518

> <Gold.PLP.Chemscore.Hbond>
1.6528

> <Gold.PLP.Chemscore.CHOScore>
0.0000

> <Gold.PLP.Chemscore.Metal>
0.0000

> <Gold.Chemscore.Hbonds>
donor molecule, donor type, donor heavy atom, donor atom, acceptor molecule, acceptor atom, score
      L1  H     9    38       P1  8028  0.70
      P1  H  7997  8009       L1    16  0.45

> <Gold.PLP.Chemscore.Internal.Correction>
0.1560

> <Gold.Rescore>
     Score         DG    S(hbond)    S(metal)    S(lipo)     H(rot)  DE(clash)    DE(int)     intcor
     15.48     -16.76       0.52        0.00     136.91       2.52       0.60       0.68       ----

> <Gold.Chemscore.Fitness>
15.4798

> <Gold.Chemscore.DG>
-16.7604

> <Gold.Chemscore.ZeroCoef>
-5.4800

> <Gold.Chemscore.Hbond>
0.5157

> <Gold.Chemscore.Metal>
0.0000

> <Gold.Chemscore.Lipo>
136.9116

> <Gold.Chemscore.Internal_Hbond>
0.0000

> <Gold.Chemscore.DEClash>
0.6042

> <Gold.Chemscore.DEInternal>
0.6763

> <Gold.Chemscore.Rot>
2.5237

> <Gold.Chemscore.Internal.Correction>
   9.000000E+99

> <Gold.Chemscore.Hbonds>
donor molecule, donor type, donor heavy atom, donor atom, acceptor molecule, acceptor atom, score
      L1  H     9    38       P1  8028  0.44
      P1  H  7997  8009       L1    16  0.01

> <Gold.Chemscore.Hbond.Weighted>
-1.7223

> <Gold.Chemscore.Metal.Weighted>
-0.0000

> <Gold.Chemscore.Lipo.Weighted>
-16.0187

> <Gold.Chemscore.Internal_Hbond.Weighted>
0.0000

> <Gold.Chemscore.DEClash.Weighted>
0.6042

> <Gold.Chemscore.DEInternal.Weighted>
0.6763

> <Gold.Chemscore.Rot.Weighted>
6.4607

> <Gold.Chemscore.Internal.Correction.Weighted>
   9.000000E+99

> <Gold.Protein.RotatedTorsions>
[ 6907 6896 6895 6894 ] final -168.59 input  -60.11 | X-H torsion
[ 7974 7965 7964 7962 ] final   14.83 input  175.53 | X-H torsion
[ 8008 7997 7996 7995 ] final  135.19 input   59.86 | X-H torsion
[ 10167 10162 10161 10158 ] final -105.13 input  -65.29 | X-H torsion
[ 10718 10713 10712 10709 ] final   65.13 input   66.30 | X-H torsion
[ 10763 10752 10751 10750 ] final -154.00 input  -60.55 | X-H torsion
[ 11005 11000 10999 10996 ] final  -30.65 input  -57.11 | X-H torsion

> <Gold.Protein.ActiveResidues>
 VAL166  LYS551  ARG553  GLY616  TRP617  ASP618  TYR619  PRO620  LYS621  CYS622 
 ASP623  PHE694  ASN695  SER759  ASP760  ASP761  ALA762  ILE779  LEU786  VAL792 
 PHE793  MET794  SER795  GLU796  ALA797  LYS798  CYS799  TRP800  GLU811  SER814 

> <Gold.Protein.RotatedAtoms>
  151.4780  133.3553  159.2833 H   0  0  0  0  0  0  0  0  0  0  0  0  # atno 6907 bound_to 6896
  150.8916  134.8322  159.7308 H   0  0  0  0  0  0  0  0  0  0  0  0  # atno 6908 bound_to 6896
  152.4826  134.4691  159.9681 H   0  0  0  0  0  0  0  0  0  0  0  0  # atno 6909 bound_to 6896
  146.2295  139.8983  142.8543 H   0  0  0  0  0  0  0  0  0  0  0  0  # atno 7974 bound_to 7965
  156.3002  140.2477  156.3540 H   0  0  0  0  0  0  0  0  0  0  0  0  # atno 8008 bound_to 7997
  154.8939  140.0408  157.1874 H   0  0  0  0  0  0  0  0  0  0  0  0  # atno 8009 bound_to 7997
  154.8569  140.2914  155.5567 H   0  0  0  0  0  0  0  0  0  0  0  0  # atno 8010 bound_to 7997
  140.2019  143.3812  152.1123 H   0  0  0  0  0  0  0  0  0  0  0  0  # atno 10167 bound_to 10162
  157.6085  130.9197  149.9936 H   0  0  0  0  0  0  0  0  0  0  0  0  # atno 10718 bound_to 10713
  154.7889  135.3200  154.7823 H   0  0  0  0  0  0  0  0  0  0  0  0  # atno 10763 bound_to 10752
  153.8516  135.6861  153.4796 H   0  0  0  0  0  0  0  0  0  0  0  0  # atno 10764 bound_to 10752
  153.1551  135.4683  154.9633 H   0  0  0  0  0  0  0  0  0  0  0  0  # atno 10765 bound_to 10752
  140.9401  133.7284  156.1063 H   0  0  0  0  0  0  0  0  0  0  0  0  # atno 11005 bound_to 11000
  145.2348  140.9987  143.3970 LP  0  0  0  0  0  0  0  0  0  0  0  0  # atno 17320 bound_to 7965
  144.9500  139.4093  143.6407 LP  0  0  0  0  0  0  0  0  0  0  0  0  # atno 17321 bound_to 7965
  139.5214  144.7045  151.5394 LP  0  0  0  0  0  0  0  0  0  0  0  0  # atno 17342 bound_to 10162
  140.6385  143.8937  150.6669 LP  0  0  0  0  0  0  0  0  0  0  0  0  # atno 17343 bound_to 10162
  156.1180  130.3647  149.9936 LP  0  0  0  0  0  0  0  0  0  0  0  0  # atno 17370 bound_to 10713
  156.8022  130.9294  151.3646 LP  0  0  0  0  0  0  0  0  0  0  0  0  # atno 17371 bound_to 10713
  140.7746  134.3794  157.5500 LP  0  0  0  0  0  0  0  0  0  0  0  0  # atno 17394 bound_to 11000
  139.8818  134.9043  156.2875 LP  0  0  0  0  0  0  0  0  0  0  0  0  # atno 17395 bound_to 11000

$$$$
