AV-unprocessed.smi:1554|AV-procd|sdf|6256|dock9
  -GOLD-   22720 6443D 1   1.00000     0.00000
 Structure written by MMmdl.
 49 51  0  0  0  0  0  0  0  0  3 V2000
  152.2571  139.8467  156.0048 C   0  0  0  0  0  0  0  0  0  0  0  0
  150.8622  139.8944  155.4044 C   0  0  0  0  0  0  0  0  0  0  0  0
  150.1908  141.1368  155.3557 C   0  0  0  0  0  0  0  0  0  0  0  0
  148.9148  141.1474  154.8049 C   0  0  0  0  0  0  0  0  0  0  0  0
  148.0080  142.1927  154.6190 N   0  3  0  0  0  0  0  0  0  0  0  0
  146.8746  141.7137  154.0359 C   0  0  0  0  0  0  0  0  0  0  0  0
  147.0425  140.3760  153.8488 N   0  0  0  0  0  0  0  0  0  0  0  0
  146.1262  139.3895  153.2572 C   0  0  0  0  0  0  0  0  0  0  0  0
  146.7406  138.6418  152.0568 C   0  0  2  0  0  0  0  0  0  0  0  0
  147.1581  139.5745  151.0789 O   0  0  0  0  0  0  0  0  0  0  0  0
  145.7286  137.6728  151.4130 C   0  0  0  0  0  0  0  0  0  0  0  0
  146.0386  136.2464  151.6884 N   0  3  1  0  0  0  0  0  0  0  0  0
  145.8819  135.8639  153.1136 C   0  0  0  0  0  0  0  0  0  0  0  0
  146.2603  134.3874  153.3165 C   0  0  0  0  0  0  0  0  0  0  0  0
  145.4664  133.5692  152.4665 O   0  0  0  0  0  0  0  0  0  0  0  0
  145.6745  133.8607  151.0891 C   0  0  1  0  0  0  0  0  0  0  0  0
  144.8496  132.8704  150.2595 C   0  0  0  0  0  0  0  0  0  0  0  0
  145.2707  135.3231  150.8192 C   0  0  0  0  0  0  0  0  0  0  0  0
  148.3037  139.9786  154.3101 C   0  0  0  0  0  0  0  0  0  0  0  0
  148.9531  138.7467  154.3485 C   0  0  0  0  0  0  0  0  0  0  0  0
  150.2508  138.7144  154.9070 C   0  0  0  0  0  0  0  0  0  0  0  0
  150.9811  137.3834  154.9645 C   0  0  0  0  0  0  0  0  0  0  0  0
  152.5922  140.8369  156.3148 H   0  0  0  0  0  0  0  0  0  0  0  0
  152.9749  139.4646  155.2788 H   0  0  0  0  0  0  0  0  0  0  0  0
  152.2735  139.1999  156.8825 H   0  0  0  0  0  0  0  0  0  0  0  0
  150.6498  142.0390  155.7331 H   0  0  0  0  0  0  0  0  0  0  0  0
  146.0015  142.2918  153.7693 H   0  0  0  0  0  0  0  0  0  0  0  0
  145.8742  138.6780  154.0446 H   0  0  0  0  0  0  0  0  0  0  0  0
  145.1927  139.8827  152.9849 H   0  0  0  0  0  0  0  0  0  0  0  0
  147.6193  138.0996  152.4050 H   0  0  0  0  0  0  0  0  0  0  0  0
  148.1033  139.5860  151.0594 H   0  0  0  0  0  0  0  0  0  0  0  0
  144.7161  137.8926  151.7553 H   0  0  0  0  0  0  0  0  0  0  0  0
  145.7277  137.8427  150.3348 H   0  0  0  0  0  0  0  0  0  0  0  0
  146.5114  136.4843  153.7499 H   0  0  0  0  0  0  0  0  0  0  0  0
  144.8497  136.0291  153.4265 H   0  0  0  0  0  0  0  0  0  0  0  0
  147.3201  134.2243  153.1143 H   0  0  0  0  0  0  0  0  0  0  0  0
  146.0855  134.0943  154.3516 H   0  0  0  0  0  0  0  0  0  0  0  0
  146.7296  133.7201  150.8477 H   0  0  0  0  0  0  0  0  0  0  0  0
  144.9853  133.0441  149.1917 H   0  0  0  0  0  0  0  0  0  0  0  0
  143.7855  132.9587  150.4804 H   0  0  0  0  0  0  0  0  0  0  0  0
  145.1486  131.8429  150.4686 H   0  0  0  0  0  0  0  0  0  0  0  0
  144.2028  135.4607  150.9971 H   0  0  0  0  0  0  0  0  0  0  0  0
  145.4556  135.5660  149.7719 H   0  0  0  0  0  0  0  0  0  0  0  0
  148.4891  137.8463  153.9738 H   0  0  0  0  0  0  0  0  0  0  0  0
  150.3636  136.5719  154.5784 H   0  0  0  0  0  0  0  0  0  0  0  0
  151.2489  137.1359  155.9919 H   0  0  0  0  0  0  0  0  0  0  0  0
  151.8924  137.4219  154.3674 H   0  0  0  0  0  0  0  0  0  0  0  0
  147.0116  136.1153  151.4492 H   0  0  0  0  0  0  0  0  0  0  0  0
  148.1508  143.1632  154.8688 H   0  0  0  0  0  0  0  0  0  0  0  0
  1  2  1  0  0  0  0
  1 23  1  0  0  0  0
  1 24  1  0  0  0  0
  1 25  1  0  0  0  0
  2 21  1  0  0  0  0
  2  3  2  0  0  0  0
  3  4  1  0  0  0  0
  3 26  1  0  0  0  0
  4 19  2  0  0  0  0
  4  5  1  0  0  0  0
  5  6  2  0  0  0  0
  5 49  1  0  0  0  0
  6  7  1  0  0  0  0
  6 27  1  0  0  0  0
  7  8  1  0  0  0  0
  7 19  1  0  0  0  0
  8  9  1  0  0  0  0
  8 28  1  0  0  0  0
  8 29  1  0  0  0  0
  9 10  1  0  0  0  0
  9 11  1  0  0  0  0
  9 30  1  0  0  0  0
 10 31  1  0  0  0  0
 11 12  1  0  0  0  0
 11 32  1  0  0  0  0
 11 33  1  0  0  0  0
 12 18  1  0  0  0  0
 12 13  1  0  0  0  0
 12 48  1  0  0  0  0
 13 14  1  0  0  0  0
 13 34  1  0  0  0  0
 13 35  1  0  0  0  0
 14 15  1  0  0  0  0
 14 36  1  0  0  0  0
 14 37  1  0  0  0  0
 15 16  1  0  0  0  0
 16 17  1  0  0  0  0
 16 18  1  0  0  0  0
 16 38  1  0  0  0  0
 17 39  1  0  0  0  0
 17 40  1  0  0  0  0
 17 41  1  0  0  0  0
 18 42  1  0  0  0  0
 18 43  1  0  0  0  0
 19 20  1  0  0  0  0
 20 21  2  0  0  0  0
 20 44  1  0  0  0  0
 21 22  1  0  0  0  0
 22 45  1  0  0  0  0
 22 46  1  0  0  0  0
 22 47  1  0  0  0  0
M  CHG  1   5   1
M  CHG  1  12   1
M  END
> <s_m_source_file>
AV-unprocessed.smi

> <i_m_source_file_index>
1554

> <i_lp_mmshare_version>
43012

> <i_f3d_flags>
0

> <s_epik_input>
W0NIM11jKFtjSF0xKWMoW0NIM10pW2NIXWMoYzEyKW4oW2NIXW4yKVtDSDJdW0NASF0oW09IXSlbQ0gyXU4zW0NIMl1bQ0gyXU9bQ0BASF0oW0NIM10pW0NIMl0z

> <s_epik_cmdline>
J2VwaWtfcHl0aG9uJywgJy1waCcsICc3LjAnLCAnLXRuJywgJzgnLCAnLW1hJywgJzIwMCcsICctbWV0YWxfYmluZGluZycsICctaW1hZScsICc8aW5maWxlLm1hZT4nLCAnLW9tYWUnLCAnPG91dGZpbGUubWFlPic=

> <r_epik_Ionization_Penalty>
1.8848

> <r_epik_Ionization_Penalty_Charging>
1.88479

> <r_epik_Ionization_Penalty_Neutral>
1.42224e-05

> <r_epik_State_Penalty>
1.94551

> <r_epik_Charging_Adjusted_Penalty>
3.8303

> <i_epik_Tot_Q>
2

> <i_epik_Tot_abs_Q>
2

> <r_epik_Metal_State_Penalty>
5.95849

> <b_epik_Metal_Only>
0

> <s_lp_Force_Field>
OPLS_2005

> <r_lp_Energy>
29.8274

> <b_lp_Chiralities_Consistent>
1

> <s_lp_Variant>
AV-unprocessed.smi:1554-17

> <Gold.Version>
5.8.1

> <Gold.Id.Protein>
6NUR|6NUR_protein|mol2

> <Gold.PLP.Fitness>
51.2725

> <Gold.PLP.PLP>
-37.7526

> <Gold.PLP.part.hbond>
-3.7418

> <Gold.PLP.part.metal>
0.0000

> <Gold.PLP.part.buried>
7.2744

> <Gold.PLP.part.nonpolar>
-40.4057

> <Gold.PLP.part.repulsive>
0.3146

> <Gold.PLP.ligand.clash>
0.0000

> <Gold.PLP.ligand.torsion>
0.7546

> <Gold.PLP.Chemscore.Hbond>
5.0000

> <Gold.PLP.Chemscore.CHOScore>
0.0000

> <Gold.PLP.Chemscore.Metal>
0.0000

> <Gold.Chemscore.Hbonds>
donor molecule, donor type, donor heavy atom, donor atom, acceptor molecule, acceptor atom, score
      L1  H     5    49       P1  8028  2.00
      L1  H    10    31       P1  7957  0.96
      L1  H    12    48       P1  7948  2.00

> <Gold.PLP.Chemscore.Internal.Correction>
0.0292

> <Gold.Rescore>
     Score         DG    S(hbond)    S(metal)    S(lipo)     H(rot)  DE(clash)    DE(int)     intcor
     18.12     -20.38       2.94        0.00      89.77       2.11       1.51       0.76       ----

> <Gold.Chemscore.Fitness>
18.1191

> <Gold.Chemscore.DG>
-20.3842

> <Gold.Chemscore.ZeroCoef>
-5.4800

> <Gold.Chemscore.Hbond>
2.9368

> <Gold.Chemscore.Metal>
0.0000

> <Gold.Chemscore.Lipo>
89.7652

> <Gold.Chemscore.Internal_Hbond>
0.0000

> <Gold.Chemscore.DEClash>
1.5079

> <Gold.Chemscore.DEInternal>
0.7572

> <Gold.Chemscore.Rot>
2.1122

> <Gold.Chemscore.Internal.Correction>
   9.000000E+99

> <Gold.Chemscore.Hbonds>
donor molecule, donor type, donor heavy atom, donor atom, acceptor molecule, acceptor atom, score
      L1  H     5    49       P1  8028  0.96
      L1  H    10    31       P1  7957  0.68
      L1  H    12    48       P1  7948  0.97

> <Gold.Chemscore.Hbond.Weighted>
-9.8089

> <Gold.Chemscore.Metal.Weighted>
-0.0000

> <Gold.Chemscore.Lipo.Weighted>
-10.5025

> <Gold.Chemscore.Internal_Hbond.Weighted>
0.0000

> <Gold.Chemscore.DEClash.Weighted>
1.5079

> <Gold.Chemscore.DEInternal.Weighted>
0.7572

> <Gold.Chemscore.Rot.Weighted>
5.4073

> <Gold.Chemscore.Internal.Correction.Weighted>
   9.000000E+99

> <Gold.Protein.RotatedTorsions>
[ 6907 6896 6895 6894 ] final   33.05 input  -60.11 | X-H torsion
[ 7974 7965 7964 7962 ] final  136.53 input  175.53 | X-H torsion
[ 8008 7997 7996 7995 ] final  -55.23 input   59.86 | X-H torsion
[ 10167 10162 10161 10158 ] final  -25.79 input  -65.29 | X-H torsion
[ 10718 10713 10712 10709 ] final   91.68 input   66.30 | X-H torsion
[ 10763 10752 10751 10750 ] final -137.77 input  -60.55 | X-H torsion
[ 11005 11000 10999 10996 ] final  169.63 input  -57.11 | X-H torsion

> <Gold.Protein.ActiveResidues>
 VAL166  LYS551  ARG553  GLY616  TRP617  ASP618  TYR619  PRO620  LYS621  CYS622 
 ASP623  PHE694  ASN695  SER759  ASP760  ASP761  ALA762  ILE779  LEU786  VAL792 
 PHE793  MET794  SER795  GLU796  ALA797  LYS798  CYS799  TRP800  GLU811  SER814 

> <Gold.Protein.RotatedAtoms>
  152.0830  134.9458  160.0572 H   0  0  0  0  0  0  0  0  0  0  0  0  # atno 6907 bound_to 6896
  152.0739  133.4115  159.4479 H   0  0  0  0  0  0  0  0  0  0  0  0  # atno 6908 bound_to 6896
  150.6836  134.2980  159.4738 H   0  0  0  0  0  0  0  0  0  0  0  0  # atno 6909 bound_to 6896
  144.9555  139.4769  143.5505 H   0  0  0  0  0  0  0  0  0  0  0  0  # atno 7974 bound_to 7965
  154.4188  140.1158  156.5444 H   0  0  0  0  0  0  0  0  0  0  0  0  # atno 8008 bound_to 7997
  155.6475  140.3496  155.4717 H   0  0  0  0  0  0  0  0  0  0  0  0  # atno 8009 bound_to 7997
  155.9820  140.1162  157.0708 H   0  0  0  0  0  0  0  0  0  0  0  0  # atno 8010 bound_to 7997
  140.7285  143.4234  151.0914 H   0  0  0  0  0  0  0  0  0  0  0  0  # atno 10167 bound_to 10162
  157.6960  131.0416  150.3767 H   0  0  0  0  0  0  0  0  0  0  0  0  # atno 10718 bound_to 10713
  154.8654  135.3632  154.5276 H   0  0  0  0  0  0  0  0  0  0  0  0  # atno 10763 bound_to 10752
  153.5904  135.7016  153.5430 H   0  0  0  0  0  0  0  0  0  0  0  0  # atno 10764 bound_to 10752
  153.3379  135.4106  155.1510 H   0  0  0  0  0  0  0  0  0  0  0  0  # atno 10765 bound_to 10752
  140.2998  134.7605  157.3907 H   0  0  0  0  0  0  0  0  0  0  0  0  # atno 11005 bound_to 11000
  146.3336  139.8670  142.8846 LP  0  0  0  0  0  0  0  0  0  0  0  0  # atno 17320 bound_to 7965
  145.2778  141.0129  143.3735 LP  0  0  0  0  0  0  0  0  0  0  0  0  # atno 17321 bound_to 7965
  139.7883  143.8256  152.3148 LP  0  0  0  0  0  0  0  0  0  0  0  0  # atno 17342 bound_to 10162
  139.8230  144.7287  150.9547 LP  0  0  0  0  0  0  0  0  0  0  0  0  # atno 17343 bound_to 10162
  156.4186  130.3948  149.6841 LP  0  0  0  0  0  0  0  0  0  0  0  0  # atno 17370 bound_to 10713
  156.4100  130.7717  151.2730 LP  0  0  0  0  0  0  0  0  0  0  0  0  # atno 17371 bound_to 10713
  140.1120  134.5333  155.8258 LP  0  0  0  0  0  0  0  0  0  0  0  0  # atno 17394 bound_to 11000
  141.2130  133.6727  156.6706 LP  0  0  0  0  0  0  0  0  0  0  0  0  # atno 17395 bound_to 11000

$$$$
