AV-unprocessed.smi:2738|AV-procd|sdf|10548|dock3
  -GOLD-   2272014593D 1   1.00000     0.00000
 Structure written by MMmdl.
 32 33  0  0  0  0  0  0  0  0  1 V2000
  153.4443  142.1380  162.1736 C   0  0  0  0  0  0  0  0  0  0  0  0
  153.8840  141.1579  161.0787 C   0  0  0  0  0  0  0  0  0  0  0  0
  153.0098  141.2409  159.9113 N   0  0  0  0  0  0  0  0  0  0  0  0
  152.4672  140.2016  159.2341 C   0  0  0  0  0  0  0  0  0  0  0  0
  152.6235  139.0087  159.4937 O   0  0  0  0  0  0  0  0  0  0  0  0
  151.7374  140.7024  158.2099 N   0  0  0  0  0  0  0  0  0  0  0  0
  150.9902  139.9328  157.2173 C   0  0  0  0  0  0  0  0  0  0  0  0
  151.5954  140.0836  155.8081 C   0  0  2  0  0  0  0  0  0  0  0  0
  150.7967  139.3027  154.7561 C   0  0  0  0  0  0  0  0  0  0  0  0
  152.9059  139.5555  155.8094 O   0  0  0  0  0  0  0  0  0  0  0  0
  151.8387  142.1010  158.2147 C   0  0  0  0  0  0  0  0  0  0  0  0
  151.2953  143.0711  157.3545 C   0  0  0  0  0  0  0  0  0  0  0  0
  151.5988  144.4244  157.6328 C   0  0  0  0  0  0  0  0  0  0  0  0
  152.4206  144.7734  158.7360 C   0  0  0  0  0  0  0  0  0  0  0  0
  152.9573  143.7762  159.5841 C   0  0  0  0  0  0  0  0  0  0  0  0
  152.6384  142.4399  159.2861 C   0  0  0  0  0  0  0  0  0  0  0  0
  154.1023  142.0708  163.0401 H   0  0  0  0  0  0  0  0  0  0  0  0
  152.4293  141.9248  162.5097 H   0  0  0  0  0  0  0  0  0  0  0  0
  153.4705  143.1676  161.8154 H   0  0  0  0  0  0  0  0  0  0  0  0
  154.9142  141.3669  160.7865 H   0  0  0  0  0  0  0  0  0  0  0  0
  153.8815  140.1387  161.4660 H   0  0  0  0  0  0  0  0  0  0  0  0
  150.9207  138.8825  157.5062 H   0  0  0  0  0  0  0  0  0  0  0  0
  149.9646  140.3033  157.2196 H   0  0  0  0  0  0  0  0  0  0  0  0
  151.6326  141.1339  155.5157 H   0  0  0  0  0  0  0  0  0  0  0  0
  149.7748  139.6762  154.6850 H   0  0  0  0  0  0  0  0  0  0  0  0
  150.7465  138.2411  155.0013 H   0  0  0  0  0  0  0  0  0  0  0  0
  151.2489  139.3964  153.7683 H   0  0  0  0  0  0  0  0  0  0  0  0
  152.9677  138.9001  155.1310 H   0  0  0  0  0  0  0  0  0  0  0  0
  150.6745  142.7996  156.5134 H   0  0  0  0  0  0  0  0  0  0  0  0
  151.2015  145.2014  156.9964 H   0  0  0  0  0  0  0  0  0  0  0  0
  152.6411  145.8128  158.9297 H   0  0  0  0  0  0  0  0  0  0  0  0
  153.5870  144.0354  160.4222 H   0  0  0  0  0  0  0  0  0  0  0  0
  1  2  1  0  0  0  0
  1 17  1  0  0  0  0
  1 18  1  0  0  0  0
  1 19  1  0  0  0  0
  2  3  1  0  0  0  0
  2 20  1  0  0  0  0
  2 21  1  0  0  0  0
  3 16  1  0  0  0  0
  3  4  1  0  0  0  0
  4  5  2  0  0  0  0
  4  6  1  0  0  0  0
  6  7  1  0  0  0  0
  6 11  1  0  0  0  0
  7  8  1  0  0  0  0
  7 22  1  0  0  0  0
  7 23  1  0  0  0  0
  8  9  1  0  0  0  0
  8 10  1  0  0  0  0
  8 24  1  0  0  0  0
  9 25  1  0  0  0  0
  9 26  1  0  0  0  0
  9 27  1  0  0  0  0
 10 28  1  0  0  0  0
 11 16  2  0  0  0  0
 11 12  1  0  0  0  0
 12 13  2  0  0  0  0
 12 29  1  0  0  0  0
 13 14  1  0  0  0  0
 13 30  1  0  0  0  0
 14 15  2  0  0  0  0
 14 31  1  0  0  0  0
 15 16  1  0  0  0  0
 15 32  1  0  0  0  0
M  END
> <s_m_source_file>
AV-unprocessed.smi

> <i_m_source_file_index>
2738

> <i_lp_mmshare_version>
43012

> <i_f3d_flags>
0

> <s_epik_input>
W2NIXTFbY0hdW2NIXVtjSF1jKGMxMiluKFtDSDJdW0NIM10pYyg9TyluMltDSDJdW0NASF0oW0NIM10pW09IXQ==

> <s_epik_cmdline>
J2VwaWtfcHl0aG9uJywgJy1waCcsICc3LjAnLCAnLXRuJywgJzgnLCAnLW1hJywgJzIwMCcsICctbWV0YWxfYmluZGluZycsICctaW1hZScsICc8aW5maWxlLm1hZT4nLCAnLW9tYWUnLCAnPG91dGZpbGUubWFlPic=

> <r_lp_tautomer_probability>
1

> <r_epik_Ionization_Penalty>
5.28302e-08

> <r_epik_Ionization_Penalty_Charging>
2.52071e-09

> <r_epik_Ionization_Penalty_Neutral>
5.03095e-08

> <r_epik_State_Penalty>
-0

> <r_epik_Charging_Adjusted_Penalty>
2.52071e-09

> <i_epik_Tot_Q>
0

> <i_epik_Tot_abs_Q>
0

> <r_epik_Metal_State_Penalty>
-0

> <b_epik_Metal_Only>
0

> <s_lp_Force_Field>
OPLS_2005

> <r_lp_Energy>
38.1008

> <b_lp_Chiralities_Consistent>
1

> <s_lp_Variant>
AV-unprocessed.smi:2738-1

> <Gold.Version>
5.8.1

> <Gold.Id.Protein>
6NUR|6NUR_protein|mol2

> <Gold.PLP.Fitness>
46.9788

> <Gold.PLP.PLP>
-44.3084

> <Gold.PLP.part.hbond>
-1.0000

> <Gold.PLP.part.metal>
0.0000

> <Gold.PLP.part.buried>
-3.9073

> <Gold.PLP.part.nonpolar>
-39.2017

> <Gold.PLP.part.repulsive>
0.0000

> <Gold.PLP.ligand.clash>
0.0000

> <Gold.PLP.ligand.torsion>
0.1709

> <Gold.PLP.Chemscore.Hbond>
1.0000

> <Gold.PLP.Chemscore.CHOScore>
0.0000

> <Gold.PLP.Chemscore.Metal>
0.0000

> <Gold.Chemscore.Hbonds>
donor molecule, donor type, donor heavy atom, donor atom, acceptor molecule, acceptor atom, score
      P1  H  7997  8009       L1    10  1.00

> <Gold.PLP.Chemscore.Internal.Correction>
0.0123

> <Gold.Rescore>
     Score         DG    S(hbond)    S(metal)    S(lipo)     H(rot)  DE(clash)    DE(int)     intcor
     17.02     -17.18       0.98        0.00     111.59       1.81       0.08       0.09       ----

> <Gold.Chemscore.Fitness>
17.0158

> <Gold.Chemscore.DG>
-17.1843

> <Gold.Chemscore.ZeroCoef>
-5.4800

> <Gold.Chemscore.Hbond>
0.9833

> <Gold.Chemscore.Metal>
0.0000

> <Gold.Chemscore.Lipo>
111.5885

> <Gold.Chemscore.Internal_Hbond>
0.0000

> <Gold.Chemscore.DEClash>
0.0824

> <Gold.Chemscore.DEInternal>
0.0862

> <Gold.Chemscore.Rot>
1.8109

> <Gold.Chemscore.Internal.Correction>
   9.000000E+99

> <Gold.Chemscore.Hbonds>
donor molecule, donor type, donor heavy atom, donor atom, acceptor molecule, acceptor atom, score
      P1  H  7997  8009       L1    10  0.81

> <Gold.Chemscore.Hbond.Weighted>
-3.2843

> <Gold.Chemscore.Metal.Weighted>
-0.0000

> <Gold.Chemscore.Lipo.Weighted>
-13.0559

> <Gold.Chemscore.Internal_Hbond.Weighted>
0.0000

> <Gold.Chemscore.DEClash.Weighted>
0.0824

> <Gold.Chemscore.DEInternal.Weighted>
0.0862

> <Gold.Chemscore.Rot.Weighted>
4.6358

> <Gold.Chemscore.Internal.Correction.Weighted>
   9.000000E+99

> <Gold.Protein.RotatedTorsions>
[ 6907 6896 6895 6894 ] final   90.84 input  -60.11 | X-H torsion
[ 7974 7965 7964 7962 ] final -120.43 input  175.53 | X-H torsion
[ 8008 7997 7996 7995 ] final -155.15 input   59.86 | X-H torsion
[ 10167 10162 10161 10158 ] final   77.41 input  -65.29 | X-H torsion
[ 10718 10713 10712 10709 ] final  -35.85 input   66.30 | X-H torsion
[ 10763 10752 10751 10750 ] final  -52.36 input  -60.55 | X-H torsion
[ 11005 11000 10999 10996 ] final   82.55 input  -57.11 | X-H torsion

> <Gold.Protein.ActiveResidues>
 VAL166  LYS551  ARG553  GLY616  TRP617  ASP618  TYR619  PRO620  LYS621  CYS622 
 ASP623  PHE694  ASN695  SER759  ASP760  ASP761  ALA762  ILE779  LEU786  VAL792 
 PHE793  MET794  SER795  GLU796  ALA797  LYS798  CYS799  TRP800  GLU811  SER814 

> <Gold.Protein.RotatedAtoms>
  152.5447  134.1749  159.8611 H   0  0  0  0  0  0  0  0  0  0  0  0  # atno 6907 bound_to 6896
  151.1756  133.4750  159.2601 H   0  0  0  0  0  0  0  0  0  0  0  0  # atno 6908 bound_to 6896
  151.1230  135.0101  159.8603 H   0  0  0  0  0  0  0  0  0  0  0  0  # atno 6909 bound_to 6896
  145.0514  140.8221  143.4207 H   0  0  0  0  0  0  0  0  0  0  0  0  # atno 7974 bound_to 7965
  155.6974  140.0762  157.2424 H   0  0  0  0  0  0  0  0  0  0  0  0  # atno 8008 bound_to 7997
  154.4078  140.1653  156.2206 H   0  0  0  0  0  0  0  0  0  0  0  0  # atno 8009 bound_to 7997
  155.9398  140.3385  155.6320 H   0  0  0  0  0  0  0  0  0  0  0  0  # atno 8010 bound_to 7997
  139.9819  144.5820  150.7893 H   0  0  0  0  0  0  0  0  0  0  0  0  # atno 10167 bound_to 10162
  156.3338  130.4283  149.7848 H   0  0  0  0  0  0  0  0  0  0  0  0  # atno 10718 bound_to 10713
  154.1415  135.6504  153.4943 H   0  0  0  0  0  0  0  0  0  0  0  0  # atno 10763 bound_to 10752
  153.0164  135.5316  154.6900 H   0  0  0  0  0  0  0  0  0  0  0  0  # atno 10764 bound_to 10752
  154.6163  135.2959  155.0348 H   0  0  0  0  0  0  0  0  0  0  0  0  # atno 10765 bound_to 10752
  139.9060  134.8080  156.2190 H   0  0  0  0  0  0  0  0  0  0  0  0  # atno 11005 bound_to 11000
  145.1522  139.2507  143.5435 LP  0  0  0  0  0  0  0  0  0  0  0  0  # atno 17320 bound_to 7965
  146.3518  140.1228  142.8599 LP  0  0  0  0  0  0  0  0  0  0  0  0  # atno 17321 bound_to 7965
  140.7486  143.2925  151.3293 LP  0  0  0  0  0  0  0  0  0  0  0  0  # atno 17342 bound_to 10162
  139.6403  144.0551  152.2549 LP  0  0  0  0  0  0  0  0  0  0  0  0  # atno 17343 bound_to 10162
  156.5111  130.8172  151.3169 LP  0  0  0  0  0  0  0  0  0  0  0  0  # atno 17370 bound_to 10713
  157.7435  130.9913  150.2598 LP  0  0  0  0  0  0  0  0  0  0  0  0  # atno 17371 bound_to 10713
  141.0418  133.6934  156.1611 LP  0  0  0  0  0  0  0  0  0  0  0  0  # atno 17394 bound_to 11000
  140.6944  134.4631  157.5588 LP  0  0  0  0  0  0  0  0  0  0  0  0  # atno 17395 bound_to 11000

$$$$
