AV-unprocessed.smi:1310|AV-procd|sdf|5445|dock5
  -GOLD-   22720 5 13D 1   1.00000     0.00000
 Structure written by MMmdl.
 34 35  0  0  0  0  0  0  0  0  1 V2000
  146.2373  139.0417  152.0072 C   0  0  0  0  0  0  0  0  0  0  0  0
  147.0743  138.5672  153.0559 O   0  0  0  0  0  0  0  0  0  0  0  0
  147.7642  139.4921  153.8128 C   0  0  0  0  0  0  0  0  0  0  0  0
  148.8566  139.0511  154.5853 C   0  0  0  0  0  0  0  0  0  0  0  0
  149.5661  139.9876  155.3617 C   0  0  0  0  0  0  0  0  0  0  0  0
  149.1610  141.3443  155.3370 C   0  0  0  0  0  0  0  0  0  0  0  0
  149.7752  142.3930  156.0755 N   0  0  0  0  0  0  0  0  0  0  0  0
  150.8681  142.3661  156.8641 C   0  0  0  0  0  0  0  0  0  0  0  0
  151.5635  141.3749  157.0731 O   0  0  0  0  0  0  0  0  0  0  0  0
  151.1616  143.5497  157.4326 N   0  0  0  0  0  0  0  0  0  0  0  0
  152.2690  143.8722  158.3364 C   0  0  0  0  0  0  0  0  0  0  0  0
  152.2950  142.9012  159.5324 C   0  0  0  0  0  0  0  0  0  0  0  0
  152.4829  143.7692  160.7772 C   0  0  0  0  0  0  0  0  0  0  0  0
  151.8043  145.0870  160.4203 C   0  0  0  0  0  0  0  0  0  0  0  0
  152.1261  145.2859  158.9389 C   0  0  0  0  0  0  0  0  0  0  0  0
  148.0501  141.6799  154.5355 C   0  0  0  0  0  0  0  0  0  0  0  0
  147.3657  140.7876  153.7894 N   0  0  0  0  0  0  0  0  0  0  0  0
  145.7724  138.1934  151.5051 H   0  0  0  0  0  0  0  0  0  0  0  0
  146.8077  139.5960  151.2603 H   0  0  0  0  0  0  0  0  0  0  0  0
  145.4381  139.6768  152.3917 H   0  0  0  0  0  0  0  0  0  0  0  0
  149.1449  138.0102  154.5853 H   0  0  0  0  0  0  0  0  0  0  0  0
  150.3924  139.6378  155.9588 H   0  0  0  0  0  0  0  0  0  0  0  0
  149.3349  143.2962  155.9787 H   0  0  0  0  0  0  0  0  0  0  0  0
  150.5307  144.3113  157.2286 H   0  0  0  0  0  0  0  0  0  0  0  0
  153.2177  143.7969  157.8018 H   0  0  0  0  0  0  0  0  0  0  0  0
  151.3464  142.3677  159.6153 H   0  0  0  0  0  0  0  0  0  0  0  0
  153.0788  142.1491  159.4370 H   0  0  0  0  0  0  0  0  0  0  0  0
  152.0670  143.3114  161.6751 H   0  0  0  0  0  0  0  0  0  0  0  0
  153.5462  143.9397  160.9505 H   0  0  0  0  0  0  0  0  0  0  0  0
  150.7258  144.9916  160.5529 H   0  0  0  0  0  0  0  0  0  0  0  0
  152.1444  145.9179  161.0392 H   0  0  0  0  0  0  0  0  0  0  0  0
  153.0769  145.8122  158.8446 H   0  0  0  0  0  0  0  0  0  0  0  0
  151.3730  145.8981  158.4413 H   0  0  0  0  0  0  0  0  0  0  0  0
  147.6968  142.6998  154.4896 H   0  0  0  0  0  0  0  0  0  0  0  0
  1  2  1  0  0  0  0
  1 18  1  0  0  0  0
  1 19  1  0  0  0  0
  1 20  1  0  0  0  0
  2  3  1  0  0  0  0
  3 17  1  0  0  0  0
  3  4  2  0  0  0  0
  4  5  1  0  0  0  0
  4 21  1  0  0  0  0
  5  6  2  0  0  0  0
  5 22  1  0  0  0  0
  6  7  1  0  0  0  0
  6 16  1  0  0  0  0
  7  8  1  0  0  0  0
  7 23  1  0  0  0  0
  8  9  2  0  0  0  0
  8 10  1  0  0  0  0
 10 11  1  0  0  0  0
 10 24  1  0  0  0  0
 11 15  1  0  0  0  0
 11 12  1  0  0  0  0
 11 25  1  0  0  0  0
 12 13  1  0  0  0  0
 12 26  1  0  0  0  0
 12 27  1  0  0  0  0
 13 14  1  0  0  0  0
 13 28  1  0  0  0  0
 13 29  1  0  0  0  0
 14 15  1  0  0  0  0
 14 30  1  0  0  0  0
 14 31  1  0  0  0  0
 15 32  1  0  0  0  0
 15 33  1  0  0  0  0
 16 17  2  0  0  0  0
 16 34  1  0  0  0  0
M  END
> <s_m_source_file>
AV-unprocessed.smi

> <i_m_source_file_index>
1310

> <i_lp_mmshare_version>
43012

> <i_f3d_flags>
0

> <s_epik_input>
W0NIM11PYzFbY0hdW2NIXWMoW2NIXW4xKVtOSF1DKD1PKVtOSF1bQ0hdMltDSDJdW0NIMl1bQ0gyXVtDSDJdMg==

> <s_epik_cmdline>
J2VwaWtfcHl0aG9uJywgJy1waCcsICc3LjAnLCAnLXRuJywgJzgnLCAnLW1hJywgJzIwMCcsICctbWV0YWxfYmluZGluZycsICctaW1hZScsICc8aW5maWxlLm1hZT4nLCAnLW9tYWUnLCAnPG91dGZpbGUubWFlPic=

> <r_lp_tautomer_probability>
1

> <r_epik_Ionization_Penalty>
0.000100082

> <r_epik_Ionization_Penalty_Charging>
0

> <r_epik_Ionization_Penalty_Neutral>
0.000100082

> <r_epik_State_Penalty>
-0

> <r_epik_Charging_Adjusted_Penalty>
0

> <i_epik_Tot_Q>
0

> <i_epik_Tot_abs_Q>
0

> <r_epik_Metal_State_Penalty>
-0

> <b_epik_Metal_Only>
0

> <s_lp_Force_Field>
OPLS_2005

> <r_lp_Energy>
31.5118

> <b_lp_Chiralities_Consistent>
1

> <s_lp_Variant>
AV-unprocessed.smi:1310-1

> <Gold.Version>
5.8.1

> <Gold.Id.Protein>
6NUR|6NUR_protein|mol2

> <Gold.PLP.Fitness>
45.0158

> <Gold.PLP.PLP>
-39.3300

> <Gold.PLP.part.hbond>
-1.7207

> <Gold.PLP.part.metal>
0.0000

> <Gold.PLP.part.buried>
-2.2998

> <Gold.PLP.part.nonpolar>
-37.8753

> <Gold.PLP.part.repulsive>
1.9187

> <Gold.PLP.ligand.clash>
0.0000

> <Gold.PLP.ligand.torsion>
0.3005

> <Gold.PLP.Chemscore.Hbond>
1.2930

> <Gold.PLP.Chemscore.CHOScore>
0.8016

> <Gold.PLP.Chemscore.Metal>
0.0000

> <Gold.Chemscore.Hbonds>
donor molecule, donor type, donor heavy atom, donor atom, acceptor molecule, acceptor atom, score
      L1  H     7    23       P1  8028  0.99
      L1  H    10    24       P1  8028  0.28
      L1  C    16    34       P1  8028  0.79

> <Gold.PLP.Chemscore.Internal.Correction>
0.0029

> <Gold.Rescore>
     Score         DG    S(hbond)    S(metal)    S(lipo)     H(rot)  DE(clash)    DE(int)     intcor
     15.91     -19.85       1.92        0.00      95.13       1.23       1.50       2.44       ----

> <Gold.Chemscore.Fitness>
15.9128

> <Gold.Chemscore.DG>
-19.8546

> <Gold.Chemscore.ZeroCoef>
-5.4800

> <Gold.Chemscore.Hbond>
1.9153

> <Gold.Chemscore.Metal>
0.0000

> <Gold.Chemscore.Lipo>
95.1280

> <Gold.Chemscore.Internal_Hbond>
0.0000

> <Gold.Chemscore.DEClash>
1.4976

> <Gold.Chemscore.DEInternal>
2.4442

> <Gold.Chemscore.Rot>
1.2315

> <Gold.Chemscore.Internal.Correction>
   9.000000E+99

> <Gold.Chemscore.Hbonds>
donor molecule, donor type, donor heavy atom, donor atom, acceptor molecule, acceptor atom, score
      L1  H     7    23       P1  8028  0.92
      L1  H    10    24       P1  8028  0.23

> <Gold.Chemscore.Hbond.Weighted>
-6.3972

> <Gold.Chemscore.Metal.Weighted>
-0.0000

> <Gold.Chemscore.Lipo.Weighted>
-11.1300

> <Gold.Chemscore.Internal_Hbond.Weighted>
0.0000

> <Gold.Chemscore.DEClash.Weighted>
1.4976

> <Gold.Chemscore.DEInternal.Weighted>
2.4442

> <Gold.Chemscore.Rot.Weighted>
3.1526

> <Gold.Chemscore.Internal.Correction.Weighted>
   9.000000E+99

> <Gold.Protein.RotatedTorsions>
[ 6907 6896 6895 6894 ] final  -77.34 input  -60.11 | X-H torsion
[ 7974 7965 7964 7962 ] final  -75.77 input  175.53 | X-H torsion
[ 8008 7997 7996 7995 ] final  130.82 input   59.86 | X-H torsion
[ 10167 10162 10161 10158 ] final  -59.32 input  -65.29 | X-H torsion
[ 10718 10713 10712 10709 ] final   84.99 input   66.30 | X-H torsion
[ 10763 10752 10751 10750 ] final  102.35 input  -60.55 | X-H torsion
[ 11005 11000 10999 10996 ] final  -23.56 input  -57.11 | X-H torsion

> <Gold.Protein.ActiveResidues>
 VAL166  LYS551  ARG553  GLY616  TRP617  ASP618  TYR619  PRO620  LYS621  CYS622 
 ASP623  PHE694  ASN695  SER759  ASP760  ASP761  ALA762  ILE779  LEU786  VAL792 
 PHE793  MET794  SER795  GLU796  ALA797  LYS798  CYS799  TRP800  GLU811  SER814 

> <Gold.Protein.RotatedAtoms>
  150.7001  134.4437  159.5303 H   0  0  0  0  0  0  0  0  0  0  0  0  # atno 6907 bound_to 6896
  152.2143  134.8470  160.0503 H   0  0  0  0  0  0  0  0  0  0  0  0  # atno 6908 bound_to 6896
  151.9344  133.3585  159.3979 H   0  0  0  0  0  0  0  0  0  0  0  0  # atno 6909 bound_to 6896
  145.6216  140.9361  143.1135 H   0  0  0  0  0  0  0  0  0  0  0  0  # atno 7974 bound_to 7965
  156.2960  140.2586  156.2824 H   0  0  0  0  0  0  0  0  0  0  0  0  # atno 8008 bound_to 7997
  154.9589  140.0393  157.2199 H   0  0  0  0  0  0  0  0  0  0  0  0  # atno 8009 bound_to 7997
  154.7965  140.2821  155.5957 H   0  0  0  0  0  0  0  0  0  0  0  0  # atno 8010 bound_to 7997
  140.6142  143.2397  151.5637 H   0  0  0  0  0  0  0  0  0  0  0  0  # atno 10167 bound_to 10162
  157.6907  131.0156  150.2755 H   0  0  0  0  0  0  0  0  0  0  0  0  # atno 10718 bound_to 10713
  153.3384  135.4013  155.1552 H   0  0  0  0  0  0  0  0  0  0  0  0  # atno 10763 bound_to 10752
  154.8638  135.3627  154.5378 H   0  0  0  0  0  0  0  0  0  0  0  0  # atno 10764 bound_to 10752
  153.5821  135.7076  153.5518 H   0  0  0  0  0  0  0  0  0  0  0  0  # atno 10765 bound_to 10752
  140.8763  133.7685  156.0248 H   0  0  0  0  0  0  0  0  0  0  0  0  # atno 11005 bound_to 11000
  144.7229  139.7971  143.7375 LP  0  0  0  0  0  0  0  0  0  0  0  0  # atno 17320 bound_to 7965
  146.1426  139.4487  143.0099 LP  0  0  0  0  0  0  0  0  0  0  0  0  # atno 17321 bound_to 7965
  139.5385  144.2713  152.1302 LP  0  0  0  0  0  0  0  0  0  0  0  0  # atno 17342 bound_to 10162
  140.1918  144.4744  150.6475 LP  0  0  0  0  0  0  0  0  0  0  0  0  # atno 17343 bound_to 10162
  156.3311  130.3800  149.7490 LP  0  0  0  0  0  0  0  0  0  0  0  0  # atno 17370 bound_to 10713
  156.5030  130.8137  151.3140 LP  0  0  0  0  0  0  0  0  0  0  0  0  # atno 17371 bound_to 10713
  140.8514  134.2950  157.5274 LP  0  0  0  0  0  0  0  0  0  0  0  0  # atno 17394 bound_to 11000
  139.8716  134.9469  156.3953 LP  0  0  0  0  0  0  0  0  0  0  0  0  # atno 17395 bound_to 11000

$$$$
