AV-unprocessed.smi:507|AV-procd|sdf|2757|dock3
  -GOLD-   2262023223D 1   1.00000     0.00000
 Structure written by MMmdl.
 33 34  0  0  0  0  0  0  0  0  1 V2000
  152.8227  142.8092  161.6939 C   0  0  0  0  0  0  0  0  0  0  0  0
  152.4279  142.4394  160.2747 C   0  0  0  0  0  0  0  0  0  0  0  0
  152.5134  141.0890  159.8670 C   0  0  0  0  0  0  0  0  0  0  0  0
  152.1569  140.7043  158.5560 C   0  0  0  0  0  0  0  0  0  0  0  0
  152.1637  139.4591  157.9505 N   0  0  0  0  0  0  0  0  0  0  0  0
  151.7248  139.7521  156.7296 C   0  0  0  0  0  0  0  0  0  0  0  0
  151.4388  141.0427  156.4709 N   0  0  0  0  0  0  0  0  0  0  0  0
  150.9488  141.6014  155.2231 C   0  0  0  0  0  0  0  0  0  0  0  0
  149.6869  140.8821  154.7081 C   0  0  1  0  0  0  0  0  0  0  0  0
  149.2053  141.5696  153.5697 O   0  0  0  0  0  0  0  0  0  0  0  0
  149.9838  139.4273  154.3074 C   0  0  0  0  0  0  0  0  0  0  0  0
  149.0362  138.9130  153.3079 N   0  0  0  0  0  0  0  0  0  0  0  0
  151.7077  141.7157  157.6574 C   0  0  0  0  0  0  0  0  0  0  0  0
  151.6176  143.0622  158.0510 C   0  0  0  0  0  0  0  0  0  0  0  0
  151.9793  143.4296  159.3640 C   0  0  0  0  0  0  0  0  0  0  0  0
  151.8827  144.8871  159.7783 C   0  0  0  0  0  0  0  0  0  0  0  0
  153.1453  141.9340  162.2587 H   0  0  0  0  0  0  0  0  0  0  0  0
  151.9792  143.2549  162.2214 H   0  0  0  0  0  0  0  0  0  0  0  0
  153.6452  143.5247  161.6876 H   0  0  0  0  0  0  0  0  0  0  0  0
  152.8554  140.3346  160.5601 H   0  0  0  0  0  0  0  0  0  0  0  0
  151.6075  138.9847  155.9783 H   0  0  0  0  0  0  0  0  0  0  0  0
  150.7509  142.6647  155.3682 H   0  0  0  0  0  0  0  0  0  0  0  0
  151.7494  141.5312  154.4858 H   0  0  0  0  0  0  0  0  0  0  0  0
  148.9224  140.9065  155.4862 H   0  0  0  0  0  0  0  0  0  0  0  0
  149.4914  141.1057  152.7975 H   0  0  0  0  0  0  0  0  0  0  0  0
  151.0100  139.3311  153.9504 H   0  0  0  0  0  0  0  0  0  0  0  0
  149.9163  138.7951  155.1934 H   0  0  0  0  0  0  0  0  0  0  0  0
  149.0655  139.4882  152.4670 H   0  0  0  0  0  0  0  0  0  0  0  0
  149.2920  137.9668  153.0295 H   0  0  0  0  0  0  0  0  0  0  0  0
  151.2750  143.8055  157.3463 H   0  0  0  0  0  0  0  0  0  0  0  0
  151.5029  145.5072  158.9658 H   0  0  0  0  0  0  0  0  0  0  0  0
  152.8639  145.2689  160.0605 H   0  0  0  0  0  0  0  0  0  0  0  0
  151.2087  145.0000  160.6276 H   0  0  0  0  0  0  0  0  0  0  0  0
  1  2  1  0  0  0  0
  1 17  1  0  0  0  0
  1 18  1  0  0  0  0
  1 19  1  0  0  0  0
  2 15  1  0  0  0  0
  2  3  2  0  0  0  0
  3  4  1  0  0  0  0
  3 20  1  0  0  0  0
  4 13  2  0  0  0  0
  4  5  1  0  0  0  0
  5  6  2  0  0  0  0
  6  7  1  0  0  0  0
  6 21  1  0  0  0  0
  7  8  1  0  0  0  0
  7 13  1  0  0  0  0
  8  9  1  0  0  0  0
  8 22  1  0  0  0  0
  8 23  1  0  0  0  0
  9 10  1  0  0  0  0
  9 11  1  0  0  0  0
  9 24  1  0  0  0  0
 10 25  1  0  0  0  0
 11 12  1  0  0  0  0
 11 26  1  0  0  0  0
 11 27  1  0  0  0  0
 12 28  1  0  0  0  0
 12 29  1  0  0  0  0
 13 14  1  0  0  0  0
 14 15  2  0  0  0  0
 14 30  1  0  0  0  0
 15 16  1  0  0  0  0
 16 31  1  0  0  0  0
 16 32  1  0  0  0  0
 16 33  1  0  0  0  0
M  END
> <s_m_source_file>
AV-unprocessed.smi

> <i_m_source_file_index>
507

> <i_lp_mmshare_version>
43012

> <i_f3d_flags>
0

> <s_epik_input>
W0NIM11jKFtjSF0xKWMoW0NIM10pW2NIXWMoYzEyKW4oW2NIXW4yKVtDSDJdW0NASF0oW09IXSlbQ0gyXVtOSDJd

> <s_epik_cmdline>
J2VwaWtfcHl0aG9uJywgJy1waCcsICc3LjAnLCAnLXRuJywgJzgnLCAnLW1hJywgJzIwMCcsICctbWV0YWxfYmluZGluZycsICctaW1hZScsICc8aW5maWxlLm1hZT4nLCAnLW9tYWUnLCAnPG91dGZpbGUubWFlPic=

> <r_epik_Ionization_Penalty>
2.36719

> <r_epik_Ionization_Penalty_Charging>
0

> <r_epik_Ionization_Penalty_Neutral>
2.36719

> <r_epik_State_Penalty>
2.51088

> <r_epik_Charging_Adjusted_Penalty>
2.51088

> <i_epik_Tot_Q>
0

> <i_epik_Tot_abs_Q>
0

> <r_epik_Metal_State_Penalty>
2.40105

> <b_epik_Metal_Only>
0

> <s_lp_Force_Field>
OPLS_2005

> <r_lp_Energy>
13.0346

> <b_lp_Chiralities_Consistent>
1

> <s_lp_Variant>
AV-unprocessed.smi:507-6

> <Gold.Version>
5.8.1

> <Gold.Id.Protein>
6NUR|6NUR_protein|mol2

> <Gold.PLP.Fitness>
45.7027

> <Gold.PLP.PLP>
-37.3750

> <Gold.PLP.part.hbond>
-4.3661

> <Gold.PLP.part.metal>
0.0000

> <Gold.PLP.part.buried>
-2.8289

> <Gold.PLP.part.nonpolar>
-29.9613

> <Gold.PLP.part.repulsive>
0.0000

> <Gold.PLP.ligand.clash>
0.0000

> <Gold.PLP.ligand.torsion>
0.3416

> <Gold.PLP.Chemscore.Hbond>
3.0000

> <Gold.PLP.Chemscore.CHOScore>
0.0000

> <Gold.PLP.Chemscore.Metal>
0.0000

> <Gold.Chemscore.Hbonds>
donor molecule, donor type, donor heavy atom, donor atom, acceptor molecule, acceptor atom, score
      L1  H    10    25       P1  7957  1.00
      L1  H    12    28       P1  7957  0.96
      L1  H    12    29       P1  7948  0.86

> <Gold.PLP.Chemscore.Internal.Correction>
0.0109

> <Gold.Rescore>
     Score         DG    S(hbond)    S(metal)    S(lipo)     H(rot)  DE(clash)    DE(int)     intcor
     17.74     -21.47       2.95        0.00     100.51       2.20       2.30       1.42       ----

> <Gold.Chemscore.Fitness>
17.7429

> <Gold.Chemscore.DG>
-21.4662

> <Gold.Chemscore.ZeroCoef>
-5.4800

> <Gold.Chemscore.Hbond>
2.9536

> <Gold.Chemscore.Metal>
0.0000

> <Gold.Chemscore.Lipo>
100.5090

> <Gold.Chemscore.Internal_Hbond>
0.0000

> <Gold.Chemscore.DEClash>
2.3044

> <Gold.Chemscore.DEInternal>
1.4189

> <Gold.Chemscore.Rot>
2.2025

> <Gold.Chemscore.Internal.Correction>
   9.000000E+99

> <Gold.Chemscore.Hbonds>
donor molecule, donor type, donor heavy atom, donor atom, acceptor molecule, acceptor atom, score
      L1  H    10    25       P1  7957  0.99
      L1  H    12    28       P1  7957  0.90
      L1  H    12    29       P1  7948  0.78

> <Gold.Chemscore.Hbond.Weighted>
-9.8649

> <Gold.Chemscore.Metal.Weighted>
-0.0000

> <Gold.Chemscore.Lipo.Weighted>
-11.7596

> <Gold.Chemscore.Internal_Hbond.Weighted>
0.0000

> <Gold.Chemscore.DEClash.Weighted>
2.3044

> <Gold.Chemscore.DEInternal.Weighted>
1.4189

> <Gold.Chemscore.Rot.Weighted>
5.6383

> <Gold.Chemscore.Internal.Correction.Weighted>
   9.000000E+99

> <Gold.Protein.RotatedTorsions>
[ 6907 6896 6895 6894 ] final -143.74 input  -60.11 | X-H torsion
[ 7974 7965 7964 7962 ] final -157.99 input  175.53 | X-H torsion
[ 8008 7997 7996 7995 ] final  -57.67 input   59.86 | X-H torsion
[ 10167 10162 10161 10158 ] final  -14.60 input  -65.29 | X-H torsion
[ 10718 10713 10712 10709 ] final -177.05 input   66.30 | X-H torsion
[ 10763 10752 10751 10750 ] final -168.77 input  -60.55 | X-H torsion
[ 11005 11000 10999 10996 ] final  -13.67 input  -57.11 | X-H torsion

> <Gold.Protein.ActiveResidues>
 VAL166  LYS551  ARG553  GLY616  TRP617  ASP618  TYR619  PRO620  LYS621  CYS622 
 ASP623  PHE694  ASN695  SER759  ASP760  ASP761  ALA762  ILE779  LEU786  VAL792 
 PHE793  MET794  SER795  GLU796  ALA797  LYS798  CYS799  TRP800  GLU811  SER814 

> <Gold.Protein.RotatedAtoms>
  151.1045  133.5218  159.2608 H   0  0  0  0  0  0  0  0  0  0  0  0  # atno 6907 bound_to 6896
  151.2036  135.0452  159.8892 H   0  0  0  0  0  0  0  0  0  0  0  0  # atno 6908 bound_to 6896
  152.5445  134.0870  159.8314 H   0  0  0  0  0  0  0  0  0  0  0  0  # atno 6909 bound_to 6896
  144.7524  140.3891  143.6037 H   0  0  0  0  0  0  0  0  0  0  0  0  # atno 7974 bound_to 7965
  154.4277  140.1101  156.5835 H   0  0  0  0  0  0  0  0  0  0  0  0  # atno 8008 bound_to 7997
  155.6087  140.3494  155.4597 H   0  0  0  0  0  0  0  0  0  0  0  0  # atno 8009 bound_to 7997
  156.0116  140.1220  157.0438 H   0  0  0  0  0  0  0  0  0  0  0  0  # atno 8010 bound_to 7997
  140.7204  143.5305  150.9526 H   0  0  0  0  0  0  0  0  0  0  0  0  # atno 10167 bound_to 10162
  156.8238  130.9629  151.3110 H   0  0  0  0  0  0  0  0  0  0  0  0  # atno 10718 bound_to 10713
  154.6594  135.2922  154.9886 H   0  0  0  0  0  0  0  0  0  0  0  0  # atno 10763 bound_to 10752
  154.0951  135.6585  153.4863 H   0  0  0  0  0  0  0  0  0  0  0  0  # atno 10764 bound_to 10752
  153.0421  135.5229  154.7538 H   0  0  0  0  0  0  0  0  0  0  0  0  # atno 10765 bound_to 10752
  140.7785  133.8381  155.9271 H   0  0  0  0  0  0  0  0  0  0  0  0  # atno 11005 bound_to 11000
  145.6896  139.1636  143.2654 LP  0  0  0  0  0  0  0  0  0  0  0  0  # atno 17320 bound_to 7965
  146.1492  140.6949  142.9330 LP  0  0  0  0  0  0  0  0  0  0  0  0  # atno 17321 bound_to 7965
  139.9025  143.6818  152.3129 LP  0  0  0  0  0  0  0  0  0  0  0  0  # atno 17342 bound_to 10162
  139.7173  144.7609  151.1013 LP  0  0  0  0  0  0  0  0  0  0  0  0  # atno 17343 bound_to 10162
  157.6443  130.8831  149.9508 LP  0  0  0  0  0  0  0  0  0  0  0  0  # atno 17370 bound_to 10713
  156.0973  130.3658  150.0282 LP  0  0  0  0  0  0  0  0  0  0  0  0  # atno 17371 bound_to 10713
  140.9505  134.1785  157.4731 LP  0  0  0  0  0  0  0  0  0  0  0  0  # atno 17394 bound_to 11000
  139.8746  134.9907  156.5516 LP  0  0  0  0  0  0  0  0  0  0  0  0  # atno 17395 bound_to 11000

$$$$
