AV-unprocessed.smi:2518|AV-procd|sdf|9902|dock9
  -GOLD-   2272013543D 1   1.00000     0.00000
 Structure written by MMmdl.
 41 43  0  0  0  0  0  0  0  0  1 V2000
  150.9016  130.4347  154.7971 C   0  0  0  0  0  0  0  0  0  0  0  0
  150.5195  131.8990  154.8617 C   0  0  0  0  0  0  0  0  0  0  0  0
  149.4859  132.4015  154.0468 C   0  0  0  0  0  0  0  0  0  0  0  0
  149.1366  133.7640  154.1092 C   0  0  0  0  0  0  0  0  0  0  0  0
  149.8098  134.6439  154.9813 C   0  0  0  0  0  0  0  0  0  0  0  0
  149.4026  135.9609  154.9774 O   0  0  0  0  0  0  0  0  0  0  0  0
  150.2315  136.9215  155.6174 C   0  0  0  0  0  0  0  0  0  0  0  0
  151.0860  137.6364  154.5546 C   0  0  1  0  0  0  0  0  0  0  0  0
  150.2206  138.3248  153.6744 O   0  0  0  0  0  0  0  0  0  0  0  0
  152.0633  138.6787  155.1360 C   0  0  0  0  0  0  0  0  0  0  0  0
  151.3928  139.8600  155.6589 N   0  0  0  0  0  0  0  0  0  0  0  0
  150.4652  140.4925  154.8954 N   0  0  0  0  0  0  0  0  0  0  0  0
  150.0295  141.5165  155.6264 C   0  0  0  0  0  0  0  0  0  0  0  0
  150.6702  141.5766  156.8942 C   0  0  0  0  0  0  0  0  0  0  0  0
  150.5870  142.4587  158.0543 C   0  0  0  0  0  0  0  0  0  0  0  0
  151.3510  142.2083  159.0711 N   0  0  0  0  0  0  0  0  0  0  0  0
  152.2366  141.1244  159.0661 N   0  0  0  0  0  0  0  0  0  0  0  0
  153.0352  140.9814  160.2812 C   0  0  0  0  0  0  0  0  0  0  0  0
  152.3956  140.2459  158.0310 C   0  0  0  0  0  0  0  0  0  0  0  0
  153.1966  139.3112  158.0378 O   0  0  0  0  0  0  0  0  0  0  0  0
  151.5174  140.5182  156.8673 C   0  0  0  0  0  0  0  0  0  0  0  0
  150.8506  134.1321  155.7975 C   0  0  0  0  0  0  0  0  0  0  0  0
  151.2010  132.7692  155.7353 C   0  0  0  0  0  0  0  0  0  0  0  0
  150.0883  129.8336  154.3892 H   0  0  0  0  0  0  0  0  0  0  0  0
  151.1360  130.0543  155.7917 H   0  0  0  0  0  0  0  0  0  0  0  0
  151.7781  130.3021  154.1625 H   0  0  0  0  0  0  0  0  0  0  0  0
  148.9575  131.7452  153.3709 H   0  0  0  0  0  0  0  0  0  0  0  0
  148.3425  134.1386  153.4798 H   0  0  0  0  0  0  0  0  0  0  0  0
  149.6459  137.6422  156.1910 H   0  0  0  0  0  0  0  0  0  0  0  0
  150.8760  136.3853  156.3134 H   0  0  0  0  0  0  0  0  0  0  0  0
  151.6529  136.8996  153.9838 H   0  0  0  0  0  0  0  0  0  0  0  0
  149.8414  137.6996  153.0758 H   0  0  0  0  0  0  0  0  0  0  0  0
  152.6388  138.2321  155.9486 H   0  0  0  0  0  0  0  0  0  0  0  0
  152.7933  138.9833  154.3868 H   0  0  0  0  0  0  0  0  0  0  0  0
  149.2750  142.1717  155.2167 H   0  0  0  0  0  0  0  0  0  0  0  0
  149.8987  143.3037  158.0596 H   0  0  0  0  0  0  0  0  0  0  0  0
  152.8874  139.9962  160.7263 H   0  0  0  0  0  0  0  0  0  0  0  0
  152.7712  141.7254  161.0347 H   0  0  0  0  0  0  0  0  0  0  0  0
  154.0962  141.0997  160.0567 H   0  0  0  0  0  0  0  0  0  0  0  0
  151.3977  134.7644  156.4802 H   0  0  0  0  0  0  0  0  0  0  0  0
  151.9965  132.3937  156.3622 H   0  0  0  0  0  0  0  0  0  0  0  0
  1  2  1  0  0  0  0
  1 24  1  0  0  0  0
  1 25  1  0  0  0  0
  1 26  1  0  0  0  0
  2 23  1  0  0  0  0
  2  3  2  0  0  0  0
  3  4  1  0  0  0  0
  3 27  1  0  0  0  0
  4  5  2  0  0  0  0
  4 28  1  0  0  0  0
  5  6  1  0  0  0  0
  5 22  1  0  0  0  0
  6  7  1  0  0  0  0
  7  8  1  0  0  0  0
  7 29  1  0  0  0  0
  7 30  1  0  0  0  0
  8  9  1  0  0  0  0
  8 10  1  0  0  0  0
  8 31  1  0  0  0  0
  9 32  1  0  0  0  0
 10 11  1  0  0  0  0
 10 33  1  0  0  0  0
 10 34  1  0  0  0  0
 11 21  1  0  0  0  0
 11 12  1  0  0  0  0
 12 13  2  0  0  0  0
 13 14  1  0  0  0  0
 13 35  1  0  0  0  0
 14 21  2  0  0  0  0
 14 15  1  0  0  0  0
 15 16  2  0  0  0  0
 15 36  1  0  0  0  0
 16 17  1  0  0  0  0
 17 18  1  0  0  0  0
 17 19  1  0  0  0  0
 18 37  1  0  0  0  0
 18 38  1  0  0  0  0
 18 39  1  0  0  0  0
 19 20  2  0  0  0  0
 19 21  1  0  0  0  0
 22 23  2  0  0  0  0
 22 40  1  0  0  0  0
 23 41  1  0  0  0  0
M  END
> <s_m_source_file>
AV-unprocessed.smi

> <i_m_source_file_index>
2518

> <i_lp_mmshare_version>
43012

> <i_f3d_flags>
0

> <s_epik_input>
W0NIM11jMVtjSF1bY0hdYyhbY0hdW2NIXTEpT1tDSDJdW0NASF0oW09IXSlbQ0gyXW4obltjSF0yKWMoYzIzKWMoPU8pbihbQ0gzXSluW2NIXTM=

> <s_epik_cmdline>
J2VwaWtfcHl0aG9uJywgJy1waCcsICc3LjAnLCAnLXRuJywgJzgnLCAnLW1hJywgJzIwMCcsICctbWV0YWxfYmluZGluZycsICctaW1hZScsICc8aW5maWxlLm1hZT4nLCAnLW9tYWUnLCAnPG91dGZpbGUubWFlPic=

> <r_lp_tautomer_probability>
1

> <r_epik_Ionization_Penalty>
2.246e-06

> <r_epik_Ionization_Penalty_Charging>
1.41975e-10

> <r_epik_Ionization_Penalty_Neutral>
2.24586e-06

> <r_epik_State_Penalty>
-0

> <r_epik_Charging_Adjusted_Penalty>
1.41975e-10

> <i_epik_Tot_Q>
0

> <i_epik_Tot_abs_Q>
0

> <r_epik_Metal_State_Penalty>
-0

> <b_epik_Metal_Only>
0

> <s_lp_Force_Field>
OPLS_2005

> <r_lp_Energy>
31.8709

> <b_lp_Chiralities_Consistent>
1

> <s_lp_Variant>
AV-unprocessed.smi:2518-2

> <Gold.Version>
5.8.1

> <Gold.Id.Protein>
6NUR|6NUR_protein|mol2

> <Gold.PLP.Fitness>
57.6481

> <Gold.PLP.PLP>
-45.4737

> <Gold.PLP.part.hbond>
-4.2383

> <Gold.PLP.part.metal>
0.0000

> <Gold.PLP.part.buried>
-3.3904

> <Gold.PLP.part.nonpolar>
-37.4605

> <Gold.PLP.part.repulsive>
0.7938

> <Gold.PLP.ligand.clash>
0.0031

> <Gold.PLP.ligand.torsion>
0.5833

> <Gold.PLP.Chemscore.Hbond>
2.6832

> <Gold.PLP.Chemscore.CHOScore>
1.7529

> <Gold.PLP.Chemscore.Metal>
0.0000

> <Gold.Chemscore.Hbonds>
donor molecule, donor type, donor heavy atom, donor atom, acceptor molecule, acceptor atom, score
      L1  H     9    32       P1  7948  0.94
      P1  H  7989  7998       L1    12  0.80
      P1  H  7997  8009       L1    20  0.85
      L1  C    13    35       P1  8028  0.80

> <Gold.PLP.Chemscore.Internal.Correction>
0.0357

> <Gold.Rescore>
     Score         DG    S(hbond)    S(metal)    S(lipo)     H(rot)  DE(clash)    DE(int)     intcor
     14.08     -16.39       1.95        0.00      88.84       2.35       0.01       2.30       ----

> <Gold.Chemscore.Fitness>
14.0808

> <Gold.Chemscore.DG>
-16.3869

> <Gold.Chemscore.ZeroCoef>
-5.4800

> <Gold.Chemscore.Hbond>
1.9541

> <Gold.Chemscore.Metal>
0.0000

> <Gold.Chemscore.Lipo>
88.8351

> <Gold.Chemscore.Internal_Hbond>
0.0000

> <Gold.Chemscore.DEClash>
0.0053

> <Gold.Chemscore.DEInternal>
2.3009

> <Gold.Chemscore.Rot>
2.3490

> <Gold.Chemscore.Internal.Correction>
   9.000000E+99

> <Gold.Chemscore.Hbonds>
donor molecule, donor type, donor heavy atom, donor atom, acceptor molecule, acceptor atom, score
      L1  H     9    32       P1  7948  0.45
      P1  H  7989  7998       L1    12  0.11
      P1  H  7997  8009       L1    20  0.14

> <Gold.Chemscore.Hbond.Weighted>
-6.5267

> <Gold.Chemscore.Metal.Weighted>
-0.0000

> <Gold.Chemscore.Lipo.Weighted>
-10.3937

> <Gold.Chemscore.Internal_Hbond.Weighted>
0.0000

> <Gold.Chemscore.DEClash.Weighted>
0.0053

> <Gold.Chemscore.DEInternal.Weighted>
2.3009

> <Gold.Chemscore.Rot.Weighted>
6.0136

> <Gold.Chemscore.Internal.Correction.Weighted>
   9.000000E+99

> <Gold.Protein.RotatedTorsions>
[ 6907 6896 6895 6894 ] final  -74.09 input  -60.11 | X-H torsion
[ 7974 7965 7964 7962 ] final  -32.15 input  175.53 | X-H torsion
[ 8008 7997 7996 7995 ] final  172.03 input   59.86 | X-H torsion
[ 10167 10162 10161 10158 ] final  -63.15 input  -65.29 | X-H torsion
[ 10718 10713 10712 10709 ] final -113.40 input   66.30 | X-H torsion
[ 10763 10752 10751 10750 ] final   38.40 input  -60.55 | X-H torsion
[ 11005 11000 10999 10996 ] final   58.63 input  -57.11 | X-H torsion

> <Gold.Protein.ActiveResidues>
 VAL166  LYS551  ARG553  GLY616  TRP617  ASP618  TYR619  PRO620  LYS621  CYS622 
 ASP623  PHE694  ASN695  SER759  ASP760  ASP761  ALA762  ILE779  LEU786  VAL792 
 PHE793  MET794  SER795  GLU796  ALA797  LYS798  CYS799  TRP800  GLU811  SER814 

> <Gold.Protein.RotatedAtoms>
  150.7106  134.4920  159.5520 H   0  0  0  0  0  0  0  0  0  0  0  0  # atno 6907 bound_to 6896
  152.2536  134.8104  160.0451 H   0  0  0  0  0  0  0  0  0  0  0  0  # atno 6908 bound_to 6896
  151.8843  133.3467  159.3814 H   0  0  0  0  0  0  0  0  0  0  0  0  # atno 6909 bound_to 6896
  146.1012  140.5756  142.8820 H   0  0  0  0  0  0  0  0  0  0  0  0  # atno 7974 bound_to 7965
  156.1214  140.1496  156.9199 H   0  0  0  0  0  0  0  0  0  0  0  0  # atno 8008 bound_to 7997
  154.4838  140.0871  156.7482 H   0  0  0  0  0  0  0  0  0  0  0  0  # atno 8009 bound_to 7997
  155.4422  140.3431  155.4293 H   0  0  0  0  0  0  0  0  0  0  0  0  # atno 8010 bound_to 7997
  140.5890  143.2338  151.6179 H   0  0  0  0  0  0  0  0  0  0  0  0  # atno 10167 bound_to 10162
  156.0764  130.5971  150.8637 H   0  0  0  0  0  0  0  0  0  0  0  0  # atno 10718 bound_to 10713
  153.0002  135.6250  154.2298 H   0  0  0  0  0  0  0  0  0  0  0  0  # atno 10763 bound_to 10752
  154.2041  135.2803  155.2982 H   0  0  0  0  0  0  0  0  0  0  0  0  # atno 10764 bound_to 10752
  154.5660  135.5691  153.7110 H   0  0  0  0  0  0  0  0  0  0  0  0  # atno 10765 bound_to 10752
  140.0363  134.5938  155.9440 H   0  0  0  0  0  0  0  0  0  0  0  0  # atno 11005 bound_to 11000
  144.7434  140.5004  143.6852 LP  0  0  0  0  0  0  0  0  0  0  0  0  # atno 17320 bound_to 7965
  145.5850  139.1491  143.3214 LP  0  0  0  0  0  0  0  0  0  0  0  0  # atno 17321 bound_to 7965
  139.5216  144.3188  152.0928 LP  0  0  0  0  0  0  0  0  0  0  0  0  # atno 17342 bound_to 10162
  140.2350  144.4329  150.6284 LP  0  0  0  0  0  0  0  0  0  0  0  0  # atno 17343 bound_to 10162
  157.5862  131.0945  150.9193 LP  0  0  0  0  0  0  0  0  0  0  0  0  # atno 17370 bound_to 10713
  156.9378  130.5373  149.5280 LP  0  0  0  0  0  0  0  0  0  0  0  0  # atno 17371 bound_to 10713
  141.1859  133.6556  156.5217 LP  0  0  0  0  0  0  0  0  0  0  0  0  # atno 17394 bound_to 11000
  140.4142  134.7245  157.4853 LP  0  0  0  0  0  0  0  0  0  0  0  0  # atno 17395 bound_to 11000

$$$$
