AV-unprocessed.smi:1040|AV-procd|sdf|4526|dock9
  -GOLD-   22720 2543D 1   1.00000     0.00000
 Structure written by MMmdl.
 55 56  0  0  0  0  0  0  0  0  2 V2000
  155.0650  137.1618  157.7895 C   0  0  0  0  0  0  0  0  0  0  0  0
  153.8359  136.8426  158.6560 C   0  0  2  0  0  0  0  0  0  0  0  0
  152.8502  137.9177  158.5655 N   0  0  0  0  0  0  0  0  0  0  0  0
  153.1073  139.2277  158.6803 C   0  0  0  0  0  0  0  0  0  0  0  0
  154.2238  139.6874  158.9198 O   0  0  0  0  0  0  0  0  0  0  0  0
  151.9978  139.9570  158.4786 N   0  0  0  0  0  0  0  0  0  0  0  0
  151.8838  141.3738  158.4208 C   0  0  0  0  0  0  0  0  0  0  0  0
  152.6191  142.2339  159.2750 C   0  0  0  0  0  0  0  0  0  0  0  0
  152.4448  143.6290  159.1770 C   0  0  0  0  0  0  0  0  0  0  0  0
  151.5338  144.1417  158.2344 C   0  0  0  0  0  0  0  0  0  0  0  0
  150.8376  143.2954  157.4467 N   0  3  0  0  0  0  0  0  0  0  0  0
  150.9684  141.9476  157.5030 C   0  0  0  0  0  0  0  0  0  0  0  0
  150.1929  141.1591  156.6377 N   0  0  0  0  0  0  0  0  0  0  0  0
  148.8564  141.6982  156.4018 C   0  0  0  0  0  0  0  0  0  0  0  0
  147.9846  140.6790  155.6478 C   0  0  0  0  0  0  0  0  0  0  0  0
  148.6724  140.2203  154.3516 C   0  0  0  0  0  0  0  0  0  0  0  0
  150.0849  139.6938  154.6550 C   0  0  0  0  0  0  0  0  0  0  0  0
  150.9048  140.7368  155.4343 C   0  0  0  0  0  0  0  0  0  0  0  0
  154.1821  136.5432  160.1189 C   0  0  0  0  0  0  0  0  0  0  0  0
  154.1411  135.3865  160.5404 O   0  0  0  0  0  0  0  0  0  0  0  0
  154.5054  137.6058  160.8778 N   0  0  0  0  0  0  0  0  0  0  0  0
  154.8732  137.6360  162.2985 C   0  0  0  0  0  0  0  0  0  0  0  0
  153.6913  137.0343  163.0788 C   0  0  0  0  0  0  0  0  0  0  0  0
  155.1003  139.0870  162.7733 C   0  0  0  0  0  0  0  0  0  0  0  0
  156.1298  136.7778  162.5533 C   0  0  0  0  0  0  0  0  0  0  0  0
  155.8054  136.3631  157.8454 H   0  0  0  0  0  0  0  0  0  0  0  0
  155.5482  138.0852  158.1116 H   0  0  0  0  0  0  0  0  0  0  0  0
  154.7901  137.2780  156.7406 H   0  0  0  0  0  0  0  0  0  0  0  0
  153.3781  135.9349  158.2567 H   0  0  0  0  0  0  0  0  0  0  0  0
  151.9017  137.6344  158.3663 H   0  0  0  0  0  0  0  0  0  0  0  0
  151.1713  139.4417  158.2120 H   0  0  0  0  0  0  0  0  0  0  0  0
  153.3042  141.8452  160.0130 H   0  0  0  0  0  0  0  0  0  0  0  0
  152.9996  144.2963  159.8205 H   0  0  0  0  0  0  0  0  0  0  0  0
  151.3374  145.1946  158.0923 H   0  0  0  0  0  0  0  0  0  0  0  0
  148.3884  141.9545  157.3535 H   0  0  0  0  0  0  0  0  0  0  0  0
  148.9330  142.6203  155.8238 H   0  0  0  0  0  0  0  0  0  0  0  0
  147.7980  139.8149  156.2870 H   0  0  0  0  0  0  0  0  0  0  0  0
  147.0102  141.1136  155.4227 H   0  0  0  0  0  0  0  0  0  0  0  0
  148.0787  139.4477  153.8620 H   0  0  0  0  0  0  0  0  0  0  0  0
  148.7345  141.0559  153.6533 H   0  0  0  0  0  0  0  0  0  0  0  0
  150.0143  138.7751  155.2393 H   0  0  0  0  0  0  0  0  0  0  0  0
  150.5958  139.4328  153.7278 H   0  0  0  0  0  0  0  0  0  0  0  0
  151.0967  141.6042  154.8013 H   0  0  0  0  0  0  0  0  0  0  0  0
  151.8742  140.3176  155.7074 H   0  0  0  0  0  0  0  0  0  0  0  0
  154.4959  138.5040  160.4162 H   0  0  0  0  0  0  0  0  0  0  0  0
  153.8896  137.0207  164.1512 H   0  0  0  0  0  0  0  0  0  0  0  0
  153.4918  136.0070  162.7702 H   0  0  0  0  0  0  0  0  0  0  0  0
  152.7769  137.6083  162.9227 H   0  0  0  0  0  0  0  0  0  0  0  0
  154.2318  139.7134  162.5663 H   0  0  0  0  0  0  0  0  0  0  0  0
  155.9620  139.5475  162.2903 H   0  0  0  0  0  0  0  0  0  0  0  0
  155.2819  139.1246  163.8479 H   0  0  0  0  0  0  0  0  0  0  0  0
  156.3557  136.7216  163.6185 H   0  0  0  0  0  0  0  0  0  0  0  0
  157.0128  137.1857  162.0615 H   0  0  0  0  0  0  0  0  0  0  0  0
  155.9935  135.7574  162.1933 H   0  0  0  0  0  0  0  0  0  0  0  0
  150.1796  143.6913  156.7751 H   0  0  0  0  0  0  0  0  0  0  0  0
  1  2  1  0  0  0  0
  1 26  1  0  0  0  0
  1 27  1  0  0  0  0
  1 28  1  0  0  0  0
  2  3  1  0  0  0  0
  2 19  1  0  0  0  0
  2 29  1  0  0  0  0
  3  4  1  0  0  0  0
  3 30  1  0  0  0  0
  4  5  2  0  0  0  0
  4  6  1  0  0  0  0
  6  7  1  0  0  0  0
  6 31  1  0  0  0  0
  7 12  1  0  0  0  0
  7  8  2  0  0  0  0
  8  9  1  0  0  0  0
  8 32  1  0  0  0  0
  9 10  2  0  0  0  0
  9 33  1  0  0  0  0
 10 11  1  0  0  0  0
 10 34  1  0  0  0  0
 11 12  2  0  0  0  0
 11 55  1  0  0  0  0
 12 13  1  0  0  0  0
 13 18  1  0  0  0  0
 13 14  1  0  0  0  0
 14 15  1  0  0  0  0
 14 35  1  0  0  0  0
 14 36  1  0  0  0  0
 15 16  1  0  0  0  0
 15 37  1  0  0  0  0
 15 38  1  0  0  0  0
 16 17  1  0  0  0  0
 16 39  1  0  0  0  0
 16 40  1  0  0  0  0
 17 18  1  0  0  0  0
 17 41  1  0  0  0  0
 17 42  1  0  0  0  0
 18 43  1  0  0  0  0
 18 44  1  0  0  0  0
 19 20  2  0  0  0  0
 19 21  1  0  0  0  0
 21 22  1  0  0  0  0
 21 45  1  0  0  0  0
 22 23  1  0  0  0  0
 22 24  1  0  0  0  0
 22 25  1  0  0  0  0
 23 46  1  0  0  0  0
 23 47  1  0  0  0  0
 23 48  1  0  0  0  0
 24 49  1  0  0  0  0
 24 50  1  0  0  0  0
 24 51  1  0  0  0  0
 25 52  1  0  0  0  0
 25 53  1  0  0  0  0
 25 54  1  0  0  0  0
M  CHG  1  11   1
M  END
> <s_m_source_file>
AV-unprocessed.smi

> <i_m_source_file_index>
1040

> <i_lp_mmshare_version>
43012

> <i_f3d_flags>
0

> <s_epik_input>
W0NIM11DKFtDSDNdKShbQ0gzXSlbTkhdQyg9TylbQ0BIXShbQ0gzXSlbTkhdQyg9TylbTkhdYzFbY0hdW2NIXVtjSF1uYzFOMltDSDJdW0NIMl1bQ0gyXVtDSDJdW0NIMl0y

> <s_epik_cmdline>
J2VwaWtfcHl0aG9uJywgJy1waCcsICc3LjAnLCAnLXRuJywgJzgnLCAnLW1hJywgJzIwMCcsICctbWV0YWxfYmluZGluZycsICctaW1hZScsICc8aW5maWxlLm1hZT4nLCAnLW9tYWUnLCAnPG91dGZpbGUubWFlPic=

> <r_lp_tautomer_probability>
0.999994

> <r_epik_Ionization_Penalty>
1.20468

> <r_epik_Ionization_Penalty_Charging>
1.20466

> <r_epik_Ionization_Penalty_Neutral>
1.88859e-05

> <r_epik_State_Penalty>
1.27057

> <r_epik_Charging_Adjusted_Penalty>
2.47523

> <i_epik_Tot_Q>
1

> <i_epik_Tot_abs_Q>
1

> <r_epik_Metal_State_Penalty>
1.34448

> <b_epik_Metal_Only>
0

> <s_lp_Force_Field>
OPLS_2005

> <r_lp_Energy>
28.5731

> <b_lp_Chiralities_Consistent>
1

> <s_lp_Variant>
AV-unprocessed.smi:1040-3

> <Gold.Version>
5.8.1

> <Gold.Id.Protein>
6NUR|6NUR_protein|mol2

> <Gold.PLP.Fitness>
47.0785

> <Gold.PLP.PLP>
-37.6426

> <Gold.PLP.part.hbond>
-3.0000

> <Gold.PLP.part.metal>
0.0000

> <Gold.PLP.part.buried>
-2.1968

> <Gold.PLP.part.nonpolar>
-32.2107

> <Gold.PLP.part.repulsive>
0.2620

> <Gold.PLP.ligand.clash>
0.0000

> <Gold.PLP.ligand.torsion>
1.4151

> <Gold.PLP.Chemscore.Hbond>
3.9920

> <Gold.PLP.Chemscore.CHOScore>
0.0000

> <Gold.PLP.Chemscore.Metal>
0.0000

> <Gold.Chemscore.Hbonds>
donor molecule, donor type, donor heavy atom, donor atom, acceptor molecule, acceptor atom, score
      L1  H    11    55       P1  8028  2.00
      P1  H  6896  6909       L1    20  1.00
      P1  H  7997  8010       L1     5  0.98

> <Gold.PLP.Chemscore.Internal.Correction>
0.2901

> <Gold.Rescore>
     Score         DG    S(hbond)    S(metal)    S(lipo)     H(rot)  DE(clash)    DE(int)     intcor
     17.37     -21.33       2.44        0.00     101.85       1.64       0.27       3.69       ----

> <Gold.Chemscore.Fitness>
17.3664

> <Gold.Chemscore.DG>
-21.3260

> <Gold.Chemscore.ZeroCoef>
-5.4800

> <Gold.Chemscore.Hbond>
2.4356

> <Gold.Chemscore.Metal>
0.0000

> <Gold.Chemscore.Lipo>
101.8514

> <Gold.Chemscore.Internal_Hbond>
0.0000

> <Gold.Chemscore.DEClash>
0.2707

> <Gold.Chemscore.DEInternal>
3.6889

> <Gold.Chemscore.Rot>
1.6428

> <Gold.Chemscore.Internal.Correction>
   9.000000E+99

> <Gold.Chemscore.Hbonds>
donor molecule, donor type, donor heavy atom, donor atom, acceptor molecule, acceptor atom, score
      L1  H    11    55       P1  8028  0.97
      P1  H  6896  6909       L1    20  0.44
      P1  H  7997  8010       L1     5  0.80

> <Gold.Chemscore.Hbond.Weighted>
-8.1348

> <Gold.Chemscore.Metal.Weighted>
-0.0000

> <Gold.Chemscore.Lipo.Weighted>
-11.9166

> <Gold.Chemscore.Internal_Hbond.Weighted>
0.0000

> <Gold.Chemscore.DEClash.Weighted>
0.2707

> <Gold.Chemscore.DEInternal.Weighted>
3.6889

> <Gold.Chemscore.Rot.Weighted>
4.2055

> <Gold.Chemscore.Internal.Correction.Weighted>
   9.000000E+99

> <Gold.Protein.RotatedTorsions>
[ 6907 6896 6895 6894 ] final  170.88 input  -60.11 | X-H torsion
[ 7974 7965 7964 7962 ] final -107.51 input  175.53 | X-H torsion
[ 8008 7997 7996 7995 ] final   -7.75 input   59.86 | X-H torsion
[ 10167 10162 10161 10158 ] final  116.20 input  -65.29 | X-H torsion
[ 10718 10713 10712 10709 ] final  -61.04 input   66.30 | X-H torsion
[ 10763 10752 10751 10750 ] final  -45.69 input  -60.55 | X-H torsion
[ 11005 11000 10999 10996 ] final -179.19 input  -57.11 | X-H torsion

> <Gold.Protein.ActiveResidues>
 VAL166  LYS551  ARG553  GLY616  TRP617  ASP618  TYR619  PRO620  LYS621  CYS622 
 ASP623  PHE694  ASN695  SER759  ASP760  ASP761  ALA762  ILE779  LEU786  VAL792 
 PHE793  MET794  SER795  GLU796  ALA797  LYS798  CYS799  TRP800  GLU811  SER814 

> <Gold.Protein.RotatedAtoms>
  151.8090  133.3379  159.3549 H   0  0  0  0  0  0  0  0  0  0  0  0  # atno 6907 bound_to 6896
  150.7332  134.5682  159.5886 H   0  0  0  0  0  0  0  0  0  0  0  0  # atno 6908 bound_to 6896
  152.3089  134.7523  160.0392 H   0  0  0  0  0  0  0  0  0  0  0  0  # atno 6909 bound_to 6896
  145.2044  140.9070  143.3350 H   0  0  0  0  0  0  0  0  0  0  0  0  # atno 7974 bound_to 7965
  154.5808  140.2399  155.8057 H   0  0  0  0  0  0  0  0  0  0  0  0  # atno 8008 bound_to 7997
  156.2177  140.3007  155.9835 H   0  0  0  0  0  0  0  0  0  0  0  0  # atno 8009 bound_to 7997
  155.2545  140.0412  157.2981 H   0  0  0  0  0  0  0  0  0  0  0  0  # atno 8010 bound_to 7997
  139.6263  144.7109  151.2525 H   0  0  0  0  0  0  0  0  0  0  0  0  # atno 10167 bound_to 10162
  156.0949  130.4194  150.0938 H   0  0  0  0  0  0  0  0  0  0  0  0  # atno 10718 bound_to 10713
  154.0327  135.6654  153.4782 H   0  0  0  0  0  0  0  0  0  0  0  0  # atno 10763 bound_to 10752
  153.0533  135.5071  154.7917 H   0  0  0  0  0  0  0  0  0  0  0  0  # atno 10764 bound_to 10752
  154.6868  135.3054  154.9502 H   0  0  0  0  0  0  0  0  0  0  0  0  # atno 10765 bound_to 10752
  140.4214  134.6602  157.4666 H   0  0  0  0  0  0  0  0  0  0  0  0  # atno 11005 bound_to 11000
  144.9916  139.3684  143.6212 LP  0  0  0  0  0  0  0  0  0  0  0  0  # atno 17320 bound_to 7965
  146.3411  139.9101  142.8781 LP  0  0  0  0  0  0  0  0  0  0  0  0  # atno 17321 bound_to 7965
  140.7413  143.6561  150.8205 LP  0  0  0  0  0  0  0  0  0  0  0  0  # atno 17342 bound_to 10162
  140.0179  143.5573  152.2812 LP  0  0  0  0  0  0  0  0  0  0  0  0  # atno 17343 bound_to 10162
  156.8939  130.9598  151.3585 LP  0  0  0  0  0  0  0  0  0  0  0  0  # atno 17370 bound_to 10713
  157.6107  130.8581  149.8948 LP  0  0  0  0  0  0  0  0  0  0  0  0  # atno 17371 bound_to 10713
  140.0198  134.6565  155.9257 LP  0  0  0  0  0  0  0  0  0  0  0  0  # atno 17394 bound_to 11000
  141.1782  133.6543  156.4915 LP  0  0  0  0  0  0  0  0  0  0  0  0  # atno 17395 bound_to 11000

$$$$
