AV-unprocessed.smi:2031|AV-procd|sdf|8230|dock8
  -GOLD-   2272010503D 1   1.00000     0.00000
 Structure written by MMmdl.
 41 42  0  0  0  0  0  0  0  0  3 V2000
  153.2723  142.0143  161.2409 C   0  0  0  0  0  0  0  0  0  0  0  0
  153.0074  141.2982  159.9613 C   0  0  0  0  0  0  0  0  0  0  0  0
  152.1357  141.5211  158.9331 C   0  0  0  0  0  0  0  0  0  0  0  0
  152.4168  140.4558  158.0365 C   0  0  0  0  0  0  0  0  0  0  0  0
  151.7020  140.3301  156.8157 N   0  0  0  0  0  0  0  0  0  0  0  0
  152.0726  139.7071  155.6820 C   0  0  0  0  0  0  0  0  0  0  0  0
  153.1712  139.1435  155.6098 O   0  0  0  0  0  0  0  0  0  0  0  0
  151.1202  139.7938  154.7127 N   0  5  0  0  0  0  0  0  0  0  0  0
  150.0170  138.8511  154.5341 C   0  0  0  0  0  0  0  0  0  0  0  0
  148.9052  139.5053  153.6920 C   0  0  0  0  0  0  0  0  0  0  0  0
  147.7835  138.5563  153.4377 N   0  3  0  0  0  0  0  0  0  0  0  0
  146.7255  139.0841  152.5342 C   0  0  0  0  0  0  0  0  0  0  0  0
  146.3365  138.0232  151.4904 C   0  0  0  0  0  0  0  0  0  0  0  0
  145.4461  136.8909  152.0244 C   0  0  0  0  0  0  0  0  0  0  0  0
  146.0207  136.1493  153.2426 C   0  0  0  0  0  0  0  0  0  0  0  0
  146.0256  137.0237  154.5068 C   0  0  0  0  0  0  0  0  0  0  0  0
  147.2698  137.9168  154.6850 C   0  0  0  0  0  0  0  0  0  0  0  0
  153.3738  139.6542  158.4800 N   0  0  0  0  0  0  0  0  0  0  0  0
  153.7571  140.1900  159.7152 O   0  0  0  0  0  0  0  0  0  0  0  0
  152.6037  142.8675  161.3565 H   0  0  0  0  0  0  0  0  0  0  0  0
  154.2983  142.3813  161.2723 H   0  0  0  0  0  0  0  0  0  0  0  0
  153.1234  141.3504  162.0926 H   0  0  0  0  0  0  0  0  0  0  0  0
  151.4142  142.3189  158.8381 H   0  0  0  0  0  0  0  0  0  0  0  0
  150.7961  140.7741  156.7946 H   0  0  0  0  0  0  0  0  0  0  0  0
  150.3516  137.9441  154.0301 H   0  0  0  0  0  0  0  0  0  0  0  0
  149.5870  138.5177  155.4795 H   0  0  0  0  0  0  0  0  0  0  0  0
  148.5337  140.4078  154.1803 H   0  0  0  0  0  0  0  0  0  0  0  0
  149.3556  139.8453  152.7592 H   0  0  0  0  0  0  0  0  0  0  0  0
  145.8625  139.4452  153.0952 H   0  0  0  0  0  0  0  0  0  0  0  0
  147.0906  139.9445  151.9740 H   0  0  0  0  0  0  0  0  0  0  0  0
  145.8038  138.5143  150.6752 H   0  0  0  0  0  0  0  0  0  0  0  0
  147.2388  137.6038  151.0426 H   0  0  0  0  0  0  0  0  0  0  0  0
  144.4603  137.2876  152.2706 H   0  0  0  0  0  0  0  0  0  0  0  0
  145.2820  136.1730  151.2199 H   0  0  0  0  0  0  0  0  0  0  0  0
  145.3903  135.2795  153.4312 H   0  0  0  0  0  0  0  0  0  0  0  0
  147.0172  135.7579  153.0325 H   0  0  0  0  0  0  0  0  0  0  0  0
  145.1223  137.6341  154.5325 H   0  0  0  0  0  0  0  0  0  0  0  0
  145.9538  136.3774  155.3822 H   0  0  0  0  0  0  0  0  0  0  0  0
  148.0712  137.3150  155.1148 H   0  0  0  0  0  0  0  0  0  0  0  0
  147.0377  138.6864  155.4224 H   0  0  0  0  0  0  0  0  0  0  0  0
  148.2096  137.8130  152.9026 H   0  0  0  0  0  0  0  0  0  0  0  0
  1  2  1  0  0  0  0
  1 20  1  0  0  0  0
  1 21  1  0  0  0  0
  1 22  1  0  0  0  0
  2 19  1  0  0  0  0
  2  3  2  0  0  0  0
  3  4  1  0  0  0  0
  3 23  1  0  0  0  0
  4  5  1  0  0  0  0
  4 18  2  0  0  0  0
  5  6  1  0  0  0  0
  5 24  1  0  0  0  0
  6  7  2  0  0  0  0
  6  8  1  0  0  0  0
  8  9  1  0  0  0  0
  9 10  1  0  0  0  0
  9 25  1  0  0  0  0
  9 26  1  0  0  0  0
 10 11  1  0  0  0  0
 10 27  1  0  0  0  0
 10 28  1  0  0  0  0
 11 17  1  0  0  0  0
 11 12  1  0  0  0  0
 11 41  1  0  0  0  0
 12 13  1  0  0  0  0
 12 29  1  0  0  0  0
 12 30  1  0  0  0  0
 13 14  1  0  0  0  0
 13 31  1  0  0  0  0
 13 32  1  0  0  0  0
 14 15  1  0  0  0  0
 14 33  1  0  0  0  0
 14 34  1  0  0  0  0
 15 16  1  0  0  0  0
 15 35  1  0  0  0  0
 15 36  1  0  0  0  0
 16 17  1  0  0  0  0
 16 37  1  0  0  0  0
 16 38  1  0  0  0  0
 17 39  1  0  0  0  0
 17 40  1  0  0  0  0
 18 19  1  0  0  0  0
M  CHG  1   8  -1
M  CHG  1  11   1
M  END
> <s_m_source_file>
AV-unprocessed.smi

> <i_m_source_file_index>
2031

> <i_lp_mmshare_version>
43012

> <i_f3d_flags>
0

> <s_epik_input>
W0NIM11jMVtjSF1jKG5vMSlbTkhdQyg9TylbTkhdW0NIMl1bQ0gyXU4yW0NIMl1bQ0gyXVtDSDJdW0NIMl1bQ0gyXVtDSDJdMg==

> <s_epik_cmdline>
J2VwaWtfcHl0aG9uJywgJy1waCcsICc3LjAnLCAnLXRuJywgJzgnLCAnLW1hJywgJzIwMCcsICctbWV0YWxfYmluZGluZycsICctaW1hZScsICc8aW5maWxlLm1hZT4nLCAnLW9tYWUnLCAnPG91dGZpbGUubWFlPic=

> <r_epik_Ionization_Penalty>
6.7666

> <r_epik_Ionization_Penalty_Charging>
6.7666

> <r_epik_Ionization_Penalty_Neutral>
5.77131e-06

> <r_epik_State_Penalty>
6.79217

> <r_epik_Charging_Adjusted_Penalty>
13.5588

> <i_epik_Tot_Q>
0

> <i_epik_Tot_abs_Q>
2

> <r_epik_Metal_State_Penalty>
2.72569

> <b_epik_Metal_Only>
1

> <s_lp_Force_Field>
OPLS_2005

> <r_lp_Energy>
19.0994

> <b_lp_Chiralities_Consistent>
1

> <s_lp_Variant>
AV-unprocessed.smi:2031-3

> <Gold.Version>
5.8.1

> <Gold.Id.Protein>
6NUR|6NUR_protein|mol2

> <Gold.PLP.Fitness>
42.4757

> <Gold.PLP.PLP>
-30.9633

> <Gold.PLP.part.hbond>
-4.4304

> <Gold.PLP.part.metal>
0.0000

> <Gold.PLP.part.buried>
3.4495

> <Gold.PLP.part.nonpolar>
-29.3695

> <Gold.PLP.part.repulsive>
0.2247

> <Gold.PLP.ligand.clash>
0.0000

> <Gold.PLP.ligand.torsion>
1.0304

> <Gold.PLP.Chemscore.Hbond>
4.5040

> <Gold.PLP.Chemscore.CHOScore>
0.0000

> <Gold.PLP.Chemscore.Metal>
0.0000

> <Gold.Chemscore.Hbonds>
donor molecule, donor type, donor heavy atom, donor atom, acceptor molecule, acceptor atom, score
      L1  H    11    41       P1  7948  2.00
      P1  H  7989  7998       L1     8  1.00
      P1  H  7997  8008       L1    18  0.87
      P1  H  7997  8009       L1     7  0.61

> <Gold.PLP.Chemscore.Internal.Correction>
0.0611

> <Gold.Rescore>
     Score         DG    S(hbond)    S(metal)    S(lipo)     H(rot)  DE(clash)    DE(int)     intcor
     15.24     -19.72       2.83        0.00      74.61       1.54       2.22       2.26       ----

> <Gold.Chemscore.Fitness>
15.2414

> <Gold.Chemscore.DG>
-19.7168

> <Gold.Chemscore.ZeroCoef>
-5.4800

> <Gold.Chemscore.Hbond>
2.8300

> <Gold.Chemscore.Metal>
0.0000

> <Gold.Chemscore.Lipo>
74.6089

> <Gold.Chemscore.Internal_Hbond>
0.0000

> <Gold.Chemscore.DEClash>
2.2197

> <Gold.Chemscore.DEInternal>
2.2558

> <Gold.Chemscore.Rot>
1.5409

> <Gold.Chemscore.Internal.Correction>
   9.000000E+99

> <Gold.Chemscore.Hbonds>
donor molecule, donor type, donor heavy atom, donor atom, acceptor molecule, acceptor atom, score
      L1  H    11    41       P1  7948  0.94
      P1  H  7989  7998       L1     8  0.74
      P1  H  7997  8008       L1    18  0.16
      P1  H  7997  8009       L1     7  0.57

> <Gold.Chemscore.Hbond.Weighted>
-9.4522

> <Gold.Chemscore.Metal.Weighted>
-0.0000

> <Gold.Chemscore.Lipo.Weighted>
-8.7292

> <Gold.Chemscore.Internal_Hbond.Weighted>
0.0000

> <Gold.Chemscore.DEClash.Weighted>
2.2197

> <Gold.Chemscore.DEInternal.Weighted>
2.2558

> <Gold.Chemscore.Rot.Weighted>
3.9446

> <Gold.Chemscore.Internal.Correction.Weighted>
   9.000000E+99

> <Gold.Protein.RotatedTorsions>
[ 6907 6896 6895 6894 ] final  -32.09 input  -60.11 | X-H torsion
[ 7974 7965 7964 7962 ] final   -2.22 input  175.53 | X-H torsion
[ 8008 7997 7996 7995 ] final -114.13 input   59.86 | X-H torsion
[ 10167 10162 10161 10158 ] final  -53.16 input  -65.29 | X-H torsion
[ 10718 10713 10712 10709 ] final   80.67 input   66.30 | X-H torsion
[ 10763 10752 10751 10750 ] final   52.09 input  -60.55 | X-H torsion
[ 11005 11000 10999 10996 ] final  151.18 input  -57.11 | X-H torsion

> <Gold.Protein.ActiveResidues>
 VAL166  LYS551  ARG553  GLY616  TRP617  ASP618  TYR619  PRO620  LYS621  CYS622 
 ASP623  PHE694  ASN695  SER759  ASP760  ASP761  ALA762  ILE779  LEU786  VAL792 
 PHE793  MET794  SER795  GLU796  ALA797  LYS798  CYS799  TRP800  GLU811  SER814 

> <Gold.Protein.RotatedAtoms>
  151.0834  134.9872  159.8366 H   0  0  0  0  0  0  0  0  0  0  0  0  # atno 6907 bound_to 6896
  152.5422  134.2154  159.8776 H   0  0  0  0  0  0  0  0  0  0  0  0  # atno 6908 bound_to 6896
  151.2186  133.4471  159.2633 H   0  0  0  0  0  0  0  0  0  0  0  0  # atno 6909 bound_to 6896
  146.2407  140.1539  142.8333 H   0  0  0  0  0  0  0  0  0  0  0  0  # atno 7974 bound_to 7965
  155.0316  140.0393  157.2476 H   0  0  0  0  0  0  0  0  0  0  0  0  # atno 8008 bound_to 7997
  154.7292  140.2727  155.6448 H   0  0  0  0  0  0  0  0  0  0  0  0  # atno 8009 bound_to 7997
  156.2837  140.2687  156.1987 H   0  0  0  0  0  0  0  0  0  0  0  0  # atno 8010 bound_to 7997
  140.6500  143.2559  151.4751 H   0  0  0  0  0  0  0  0  0  0  0  0  # atno 10167 bound_to 10162
  157.6812  130.9970  150.2114 H   0  0  0  0  0  0  0  0  0  0  0  0  # atno 10718 bound_to 10713
  152.9787  135.5824  154.4523 H   0  0  0  0  0  0  0  0  0  0  0  0  # atno 10763 bound_to 10752
  154.4110  135.2770  155.2039 H   0  0  0  0  0  0  0  0  0  0  0  0  # atno 10764 bound_to 10752
  154.3829  135.6143  153.5854 H   0  0  0  0  0  0  0  0  0  0  0  0  # atno 10765 bound_to 10752
  140.1196  134.8872  157.2053 H   0  0  0  0  0  0  0  0  0  0  0  0  # atno 11005 bound_to 11000
  145.0145  140.8742  143.5204 LP  0  0  0  0  0  0  0  0  0  0  0  0  # atno 17320 bound_to 7965
  145.1577  139.2476  143.5407 LP  0  0  0  0  0  0  0  0  0  0  0  0  # atno 17321 bound_to 7965
  139.5714  144.1920  152.1841 LP  0  0  0  0  0  0  0  0  0  0  0  0  # atno 17342 bound_to 10162
  140.1218  144.5367  150.6858 LP  0  0  0  0  0  0  0  0  0  0  0  0  # atno 17343 bound_to 10162
  156.2784  130.3730  149.7960 LP  0  0  0  0  0  0  0  0  0  0  0  0  # atno 17370 bound_to 10713
  156.5656  130.8402  151.3341 LP  0  0  0  0  0  0  0  0  0  0  0  0  # atno 17371 bound_to 10713
  140.2983  134.3161  155.7296 LP  0  0  0  0  0  0  0  0  0  0  0  0  # atno 17394 bound_to 11000
  141.2149  133.7576  156.9603 LP  0  0  0  0  0  0  0  0  0  0  0  0  # atno 17395 bound_to 11000

$$$$
