AV-unprocessed.smi:2001|AV-procd|sdf|8111|dock4
  -GOLD-   2272010343D 1   1.00000     0.00000
 Structure written by MMmdl.
 50 51  0  0  0  0  0  0  0  0  3 V2000
  150.7725  144.7432  159.7704 C   0  0  0  0  0  0  0  0  0  0  0  0
  151.8893  143.8994  159.5542 O   0  0  0  0  0  0  0  0  0  0  0  0
  151.6664  142.5745  160.0081 C   0  0  0  0  0  0  0  0  0  0  0  0
  152.9198  141.7200  159.7598 C   0  0  0  0  0  0  0  0  0  0  0  0
  152.7386  140.3419  160.2285 N   0  0  0  0  0  0  0  0  0  0  0  0
  151.8591  139.6016  159.4574 N   0  0  0  0  0  0  0  0  0  0  0  0
  151.6116  138.3652  159.7468 C   0  0  0  0  0  0  0  0  0  0  0  0
  150.6596  137.5668  158.9099 C   0  0  0  0  0  0  0  0  0  0  0  0
  150.4153  138.0430  157.7925 O   0  0  0  0  0  0  0  0  0  0  0  0
  150.1397  136.4071  159.4145 N   0  5  0  0  0  0  0  0  0  0  0  0
  148.9005  135.7764  158.9656 C   0  0  0  0  0  0  0  0  0  0  0  0
  147.8468  135.8434  160.0875 C   0  0  0  0  0  0  0  0  0  0  0  0
  147.0358  134.5992  160.1599 N   0  3  1  0  0  0  0  0  0  0  0  0
  147.8504  133.3659  160.0559 C   0  0  0  0  0  0  0  0  0  0  0  0
  146.9398  132.1258  159.9987 C   0  0  1  0  0  0  0  0  0  0  0  0
  147.7446  130.8217  159.9830 C   0  0  0  0  0  0  0  0  0  0  0  0
  146.0905  132.1023  161.1435 O   0  0  0  0  0  0  0  0  0  0  0  0
  145.2722  133.2608  161.3083 C   0  0  2  0  0  0  0  0  0  0  0  0
  144.1438  133.3337  160.2640 C   0  0  0  0  0  0  0  0  0  0  0  0
  146.1499  134.5258  161.3513 C   0  0  0  0  0  0  0  0  0  0  0  0
  152.2568  137.7324  160.8908 C   0  0  0  0  0  0  0  0  0  0  0  0
  153.1163  138.4660  161.6313 C   0  0  0  0  0  0  0  0  0  0  0  0
  153.4109  139.8648  161.3188 C   0  0  0  0  0  0  0  0  0  0  0  0
  154.1944  140.5491  161.9769 O   0  0  0  0  0  0  0  0  0  0  0  0
  151.0025  145.7500  159.4217 H   0  0  0  0  0  0  0  0  0  0  0  0
  150.5214  144.8026  160.8303 H   0  0  0  0  0  0  0  0  0  0  0  0
  149.8987  144.3886  159.2221 H   0  0  0  0  0  0  0  0  0  0  0  0
  151.4456  142.5929  161.0762 H   0  0  0  0  0  0  0  0  0  0  0  0
  150.8015  142.1361  159.5071 H   0  0  0  0  0  0  0  0  0  0  0  0
  153.1995  141.7559  158.7056 H   0  0  0  0  0  0  0  0  0  0  0  0
  153.7625  142.1637  160.2933 H   0  0  0  0  0  0  0  0  0  0  0  0
  148.4938  136.2578  158.0753 H   0  0  0  0  0  0  0  0  0  0  0  0
  149.0603  134.7330  158.6917 H   0  0  0  0  0  0  0  0  0  0  0  0
  148.3703  135.9964  161.0328 H   0  0  0  0  0  0  0  0  0  0  0  0
  147.1937  136.7086  159.9617 H   0  0  0  0  0  0  0  0  0  0  0  0
  148.4650  133.4055  159.1554 H   0  0  0  0  0  0  0  0  0  0  0  0
  148.5297  133.3054  160.9079 H   0  0  0  0  0  0  0  0  0  0  0  0
  146.3340  132.1585  159.0929 H   0  0  0  0  0  0  0  0  0  0  0  0
  148.4058  130.7782  159.1172 H   0  0  0  0  0  0  0  0  0  0  0  0
  147.0827  129.9563  159.9384 H   0  0  0  0  0  0  0  0  0  0  0  0
  148.3585  130.7255  160.8789 H   0  0  0  0  0  0  0  0  0  0  0  0
  144.7935  133.1558  162.2823 H   0  0  0  0  0  0  0  0  0  0  0  0
  143.4554  134.1462  160.4971 H   0  0  0  0  0  0  0  0  0  0  0  0
  143.5677  132.4082  160.2488 H   0  0  0  0  0  0  0  0  0  0  0  0
  144.5213  133.5104  159.2571 H   0  0  0  0  0  0  0  0  0  0  0  0
  146.7656  134.5131  162.2521 H   0  0  0  0  0  0  0  0  0  0  0  0
  145.5181  135.4122  161.4187 H   0  0  0  0  0  0  0  0  0  0  0  0
  152.0673  136.7021  161.1527 H   0  0  0  0  0  0  0  0  0  0  0  0
  153.6024  138.0073  162.4799 H   0  0  0  0  0  0  0  0  0  0  0  0
  146.4391  134.6116  159.3448 H   0  0  0  0  0  0  0  0  0  0  0  0
  1  2  1  0  0  0  0
  1 25  1  0  0  0  0
  1 26  1  0  0  0  0
  1 27  1  0  0  0  0
  2  3  1  0  0  0  0
  3  4  1  0  0  0  0
  3 28  1  0  0  0  0
  3 29  1  0  0  0  0
  4  5  1  0  0  0  0
  4 30  1  0  0  0  0
  4 31  1  0  0  0  0
  5 23  1  0  0  0  0
  5  6  1  0  0  0  0
  6  7  2  0  0  0  0
  7  8  1  0  0  0  0
  7 21  1  0  0  0  0
  8  9  2  0  0  0  0
  8 10  1  0  0  0  0
 10 11  1  0  0  0  0
 11 12  1  0  0  0  0
 11 32  1  0  0  0  0
 11 33  1  0  0  0  0
 12 13  1  0  0  0  0
 12 34  1  0  0  0  0
 12 35  1  0  0  0  0
 13 20  1  0  0  0  0
 13 14  1  0  0  0  0
 13 50  1  0  0  0  0
 14 15  1  0  0  0  0
 14 36  1  0  0  0  0
 14 37  1  0  0  0  0
 15 16  1  0  0  0  0
 15 17  1  0  0  0  0
 15 38  1  0  0  0  0
 16 39  1  0  0  0  0
 16 40  1  0  0  0  0
 16 41  1  0  0  0  0
 17 18  1  0  0  0  0
 18 19  1  0  0  0  0
 18 20  1  0  0  0  0
 18 42  1  0  0  0  0
 19 43  1  0  0  0  0
 19 44  1  0  0  0  0
 19 45  1  0  0  0  0
 20 46  1  0  0  0  0
 20 47  1  0  0  0  0
 21 22  2  0  0  0  0
 21 48  1  0  0  0  0
 22 23  1  0  0  0  0
 22 49  1  0  0  0  0
 23 24  2  0  0  0  0
M  CHG  1  10  -1
M  CHG  1  13   1
M  END
> <s_m_source_file>
AV-unprocessed.smi

> <i_m_source_file_index>
2001

> <i_lp_mmshare_version>
43012

> <i_f3d_flags>
0

> <s_epik_input>
W0NIM11PW0NIMl1bQ0gyXW4xbmMoW2NIXVtjSF1jMT1PKUMoPU8pW05IXVtDSDJdW0NIMl1OMltDSDJdW0NAQEhdKFtDSDNdKU9bQ0BASF0oW0NIM10pW0NIMl0y

> <s_epik_cmdline>
J2VwaWtfcHl0aG9uJywgJy1waCcsICc3LjAnLCAnLXRuJywgJzgnLCAnLW1hJywgJzIwMCcsICctbWV0YWxfYmluZGluZycsICctaW1hZScsICc8aW5maWxlLm1hZT4nLCAnLW9tYWUnLCAnPG91dGZpbGUubWFlPic=

> <r_lp_tautomer_probability>
1

> <r_epik_Ionization_Penalty>
6.90846

> <r_epik_Ionization_Penalty_Charging>
6.90846

> <r_epik_Ionization_Penalty_Neutral>
1.08445e-11

> <r_epik_State_Penalty>
7.54671

> <r_epik_Charging_Adjusted_Penalty>
14.4552

> <i_epik_Tot_Q>
0

> <i_epik_Tot_abs_Q>
2

> <r_epik_Metal_State_Penalty>
3.46181

> <b_epik_Metal_Only>
1

> <s_lp_Force_Field>
OPLS_2005

> <r_lp_Energy>
43.982

> <b_lp_Chiralities_Consistent>
1

> <s_lp_Variant>
AV-unprocessed.smi:2001-10

> <Gold.Version>
5.8.1

> <Gold.Id.Protein>
6NUR|6NUR_protein|mol2

> <Gold.PLP.Fitness>
44.6300

> <Gold.PLP.PLP>
-39.8691

> <Gold.PLP.part.hbond>
-1.0000

> <Gold.PLP.part.metal>
0.0000

> <Gold.PLP.part.buried>
-7.4146

> <Gold.PLP.part.nonpolar>
-31.9994

> <Gold.PLP.part.repulsive>
0.0697

> <Gold.PLP.ligand.clash>
0.0000

> <Gold.PLP.ligand.torsion>
0.7140

> <Gold.PLP.Chemscore.Hbond>
2.0000

> <Gold.PLP.Chemscore.CHOScore>
0.0000

> <Gold.PLP.Chemscore.Metal>
0.0000

> <Gold.Chemscore.Hbonds>
donor molecule, donor type, donor heavy atom, donor atom, acceptor molecule, acceptor atom, score
      P1  H  6896  6909       L1    10  1.40

> <Gold.PLP.Chemscore.Internal.Correction>
0.1889

> <Gold.Rescore>
     Score         DG    S(hbond)    S(metal)    S(lipo)     H(rot)  DE(clash)    DE(int)     intcor
     13.66     -14.45       0.83        0.00      97.09       2.02       0.01       0.78       ----

> <Gold.Chemscore.Fitness>
13.6630

> <Gold.Chemscore.DG>
-14.4537

> <Gold.Chemscore.ZeroCoef>
-5.4800

> <Gold.Chemscore.Hbond>
0.8324

> <Gold.Chemscore.Metal>
0.0000

> <Gold.Chemscore.Lipo>
97.0874

> <Gold.Chemscore.Internal_Hbond>
0.0000

> <Gold.Chemscore.DEClash>
0.0126

> <Gold.Chemscore.DEInternal>
0.7781

> <Gold.Chemscore.Rot>
2.0179

> <Gold.Chemscore.Internal.Correction>
   9.000000E+99

> <Gold.Chemscore.Hbonds>
donor molecule, donor type, donor heavy atom, donor atom, acceptor molecule, acceptor atom, score
      P1  H  6896  6909       L1    10  0.07

> <Gold.Chemscore.Hbond.Weighted>
-2.7804

> <Gold.Chemscore.Metal.Weighted>
-0.0000

> <Gold.Chemscore.Lipo.Weighted>
-11.3592

> <Gold.Chemscore.Internal_Hbond.Weighted>
0.0000

> <Gold.Chemscore.DEClash.Weighted>
0.0126

> <Gold.Chemscore.DEInternal.Weighted>
0.7781

> <Gold.Chemscore.Rot.Weighted>
5.1659

> <Gold.Chemscore.Internal.Correction.Weighted>
   9.000000E+99

> <Gold.Protein.RotatedTorsions>
[ 6907 6896 6895 6894 ] final   76.31 input  -60.11 | X-H torsion
[ 7974 7965 7964 7962 ] final -140.58 input  175.53 | X-H torsion
[ 8008 7997 7996 7995 ] final -175.88 input   59.86 | X-H torsion
[ 10167 10162 10161 10158 ] final  152.71 input  -65.29 | X-H torsion
[ 10718 10713 10712 10709 ] final  -29.83 input   66.30 | X-H torsion
[ 10763 10752 10751 10750 ] final  -93.54 input  -60.55 | X-H torsion
[ 11005 11000 10999 10996 ] final  166.49 input  -57.11 | X-H torsion

> <Gold.Protein.ActiveResidues>
 VAL166  LYS551  ARG553  GLY616  TRP617  ASP618  TYR619  PRO620  LYS621  CYS622 
 ASP623  PHE694  ASN695  SER759  ASP760  ASP761  ALA762  ILE779  LEU786  VAL792 
 PHE793  MET794  SER795  GLU796  ALA797  LYS798  CYS799  TRP800  GLU811  SER814 

> <Gold.Protein.RotatedAtoms>
  152.5067  134.3989  159.9409 H   0  0  0  0  0  0  0  0  0  0  0  0  # atno 6907 bound_to 6896
  151.3952  133.3769  159.2733 H   0  0  0  0  0  0  0  0  0  0  0  0  # atno 6908 bound_to 6896
  150.9403  134.8833  159.7667 H   0  0  0  0  0  0  0  0  0  0  0  0  # atno 6909 bound_to 6896
  144.8586  140.6183  143.5343 H   0  0  0  0  0  0  0  0  0  0  0  0  # atno 7974 bound_to 7965
  155.9880  140.1195  157.0664 H   0  0  0  0  0  0  0  0  0  0  0  0  # atno 8008 bound_to 7997
  154.4203  140.1131  156.5595 H   0  0  0  0  0  0  0  0  0  0  0  0  # atno 8009 bound_to 7997
  155.6381  140.3473  155.4707 H   0  0  0  0  0  0  0  0  0  0  0  0  # atno 8010 bound_to 7997
  139.4831  144.5334  151.7684 H   0  0  0  0  0  0  0  0  0  0  0  0  # atno 10167 bound_to 10162
  156.4075  130.4402  149.7276 H   0  0  0  0  0  0  0  0  0  0  0  0  # atno 10718 bound_to 10713
  154.6969  135.5190  153.8471 H   0  0  0  0  0  0  0  0  0  0  0  0  # atno 10763 bound_to 10752
  153.0674  135.6589  154.0333 H   0  0  0  0  0  0  0  0  0  0  0  0  # atno 10764 bound_to 10752
  154.0198  135.2994  155.3362 H   0  0  0  0  0  0  0  0  0  0  0  0  # atno 10765 bound_to 10752
  140.2669  134.7857  157.3641 H   0  0  0  0  0  0  0  0  0  0  0  0  # atno 11005 bound_to 11000
  145.4357  139.1542  143.3998 LP  0  0  0  0  0  0  0  0  0  0  0  0  # atno 17320 bound_to 7965
  146.2843  140.4475  142.8764 LP  0  0  0  0  0  0  0  0  0  0  0  0  # atno 17321 bound_to 7965
  140.4864  144.1375  150.5942 LP  0  0  0  0  0  0  0  0  0  0  0  0  # atno 17342 bound_to 10162
  140.4221  143.2607  151.9703 LP  0  0  0  0  0  0  0  0  0  0  0  0  # atno 17343 bound_to 10162
  156.4268  130.7796  151.2814 LP  0  0  0  0  0  0  0  0  0  0  0  0  # atno 17370 bound_to 10713
  157.7506  131.0166  150.3551 LP  0  0  0  0  0  0  0  0  0  0  0  0  # atno 17371 bound_to 10713
  140.1410  134.4972  155.8031 LP  0  0  0  0  0  0  0  0  0  0  0  0  # atno 17394 bound_to 11000
  141.2183  133.6825  156.7210 LP  0  0  0  0  0  0  0  0  0  0  0  0  # atno 17395 bound_to 11000

$$$$
