AV-unprocessed.smi:2772|AV-procd|sdf|10666|dock5
  -GOLD-   2272015113D 1   1.00000     0.00000
 Structure written by MMmdl.
 55 57  0  0  0  0  0  0  0  0  3 V2000
  150.8422  145.0039  159.1891 C   0  0  0  0  0  0  0  0  0  0  0  0
  151.6822  144.0136  159.9685 C   0  0  0  0  0  0  0  0  0  0  0  0
  152.4891  143.0660  159.3058 C   0  0  0  0  0  0  0  0  0  0  0  0
  153.2522  142.1744  160.0840 C   0  0  0  0  0  0  0  0  0  0  0  0
  153.1767  142.2508  161.4899 C   0  0  0  0  0  0  0  0  0  0  0  0
  153.9761  141.3596  162.2556 N   0  0  0  0  0  0  0  0  0  0  0  0
  154.5934  140.2386  161.8444 C   0  0  0  0  0  0  0  0  0  0  0  0
  154.6350  139.8401  160.6807 O   0  0  0  0  0  0  0  0  0  0  0  0
  155.1902  139.6079  162.8670 N   0  0  0  0  0  0  0  0  0  0  0  0
  155.9541  138.3659  162.7675 C   0  0  2  0  0  0  0  0  0  0  0  0
  155.1198  137.2787  162.0847 C   0  0  0  0  0  0  0  0  0  0  0  0
  155.8894  135.9489  162.0213 C   0  0  0  0  0  0  0  0  0  0  0  0
  156.3258  135.4734  163.3692 N   0  3  1  0  0  0  0  0  0  0  0  0
  157.0279  134.1428  163.3312 C   0  0  2  0  0  0  0  0  0  0  0  0
  156.3360  133.0913  162.4268 C   0  0  0  0  0  0  0  0  0  0  0  0
  154.9790  132.6438  163.0012 C   0  0  0  0  0  0  0  0  0  0  0  0
  155.1394  132.0809  164.3654 N   0  3  2  0  0  0  0  0  0  0  0  0
  153.8686  131.5636  164.9171 C   0  0  0  0  0  0  0  0  0  0  0  0
  155.8171  133.0246  165.2893 C   0  0  0  0  0  0  0  0  0  0  0  0
  157.1762  133.4725  164.7204 C   0  0  0  0  0  0  0  0  0  0  0  0
  157.1113  136.5327  164.0726 C   0  0  0  0  0  0  0  0  0  0  0  0
  156.3555  137.8692  164.1593 C   0  0  0  0  0  0  0  0  0  0  0  0
  152.3414  143.2472  162.0531 C   0  0  0  0  0  0  0  0  0  0  0  0
  151.6089  144.1072  161.3135 N   0  0  0  0  0  0  0  0  0  0  0  0
  150.9750  144.8767  158.1145 H   0  0  0  0  0  0  0  0  0  0  0  0
  151.1238  146.0251  159.4477 H   0  0  0  0  0  0  0  0  0  0  0  0
  149.7852  144.8692  159.4202 H   0  0  0  0  0  0  0  0  0  0  0  0
  152.5276  143.0229  158.2273 H   0  0  0  0  0  0  0  0  0  0  0  0
  153.8836  141.4409  159.6041 H   0  0  0  0  0  0  0  0  0  0  0  0
  154.1193  141.6241  163.2193 H   0  0  0  0  0  0  0  0  0  0  0  0
  155.1041  140.0176  163.7859 H   0  0  0  0  0  0  0  0  0  0  0  0
  156.8604  138.5213  162.1790 H   0  0  0  0  0  0  0  0  0  0  0  0
  154.1816  137.1318  162.6224 H   0  0  0  0  0  0  0  0  0  0  0  0
  154.8516  137.5945  161.0757 H   0  0  0  0  0  0  0  0  0  0  0  0
  155.2205  135.2322  161.5509 H   0  0  0  0  0  0  0  0  0  0  0  0
  156.7602  136.0505  161.3715 H   0  0  0  0  0  0  0  0  0  0  0  0
  158.0279  134.3240  162.9339 H   0  0  0  0  0  0  0  0  0  0  0  0
  156.2317  133.4234  161.3959 H   0  0  0  0  0  0  0  0  0  0  0  0
  156.9818  132.2145  162.3570 H   0  0  0  0  0  0  0  0  0  0  0  0
  154.2810  133.4822  163.0262 H   0  0  0  0  0  0  0  0  0  0  0  0
  154.5407  131.8871  162.3492 H   0  0  0  0  0  0  0  0  0  0  0  0
  153.1438  132.3672  165.0533 H   0  0  0  0  0  0  0  0  0  0  0  0
  154.0352  131.0850  165.8827 H   0  0  0  0  0  0  0  0  0  0  0  0
  153.4336  130.8191  164.2496 H   0  0  0  0  0  0  0  0  0  0  0  0
  155.1768  133.8894  165.4706 H   0  0  0  0  0  0  0  0  0  0  0  0
  155.9698  132.5369  166.2529 H   0  0  0  0  0  0  0  0  0  0  0  0
  157.8086  132.5897  164.6147 H   0  0  0  0  0  0  0  0  0  0  0  0
  157.7100  134.0947  165.4357 H   0  0  0  0  0  0  0  0  0  0  0  0
  157.3343  136.2405  165.0960 H   0  0  0  0  0  0  0  0  0  0  0  0
  158.0665  136.6754  163.5646 H   0  0  0  0  0  0  0  0  0  0  0  0
  156.9820  138.6127  164.6539 H   0  0  0  0  0  0  0  0  0  0  0  0
  155.4692  137.7468  164.7842 H   0  0  0  0  0  0  0  0  0  0  0  0
  152.2646  143.3905  163.1196 H   0  0  0  0  0  0  0  0  0  0  0  0
  155.4821  135.3422  163.9084 H   0  0  0  0  0  0  0  0  0  0  0  0
  155.7519  131.2823  164.2738 H   0  0  0  0  0  0  0  0  0  0  0  0
  1  2  1  0  0  0  0
  1 25  1  0  0  0  0
  1 26  1  0  0  0  0
  1 27  1  0  0  0  0
  2 24  1  0  0  0  0
  2  3  2  0  0  0  0
  3  4  1  0  0  0  0
  3 28  1  0  0  0  0
  4  5  2  0  0  0  0
  4 29  1  0  0  0  0
  5  6  1  0  0  0  0
  5 23  1  0  0  0  0
  6  7  1  0  0  0  0
  6 30  1  0  0  0  0
  7  8  2  0  0  0  0
  7  9  1  0  0  0  0
  9 10  1  0  0  0  0
  9 31  1  0  0  0  0
 10 22  1  0  0  0  0
 10 11  1  0  0  0  0
 10 32  1  0  0  0  0
 11 12  1  0  0  0  0
 11 33  1  0  0  0  0
 11 34  1  0  0  0  0
 12 13  1  0  0  0  0
 12 35  1  0  0  0  0
 12 36  1  0  0  0  0
 13 14  1  0  0  0  0
 13 21  1  0  0  0  0
 13 54  1  0  0  0  0
 14 20  1  0  0  0  0
 14 15  1  0  0  0  0
 14 37  1  0  0  0  0
 15 16  1  0  0  0  0
 15 38  1  0  0  0  0
 15 39  1  0  0  0  0
 16 17  1  0  0  0  0
 16 40  1  0  0  0  0
 16 41  1  0  0  0  0
 17 18  1  0  0  0  0
 17 19  1  0  0  0  0
 17 55  1  0  0  0  0
 18 42  1  0  0  0  0
 18 43  1  0  0  0  0
 18 44  1  0  0  0  0
 19 20  1  0  0  0  0
 19 45  1  0  0  0  0
 19 46  1  0  0  0  0
 20 47  1  0  0  0  0
 20 48  1  0  0  0  0
 21 22  1  0  0  0  0
 21 49  1  0  0  0  0
 21 50  1  0  0  0  0
 22 51  1  0  0  0  0
 22 52  1  0  0  0  0
 23 24  2  0  0  0  0
 23 53  1  0  0  0  0
M  CHG  1  13   1
M  CHG  1  17   1
M  END
> <s_m_source_file>
AV-unprocessed.smi

> <i_m_source_file_index>
2772

> <i_lp_mmshare_version>
43012

> <i_f3d_flags>
0

> <s_epik_input>
W0NIM11jMVtjSF1bY0hdYyhbY0hdbjEpW05IXUMoPU8pW05IXVtDSF0yW0NIMl1bQ0gyXU4oW0NIMl1bQ0gyXTIpW0NIXTNbQ0gyXVtDSDJdTihbQ0gzXSlbQ0gyXVtDSDJdMw==

> <s_epik_cmdline>
J2VwaWtfcHl0aG9uJywgJy1waCcsICc3LjAnLCAnLXRuJywgJzgnLCAnLW1hJywgJzIwMCcsICctbWV0YWxfYmluZGluZycsICctaW1hZScsICc8aW5maWxlLm1hZT4nLCAnLW9tYWUnLCAnPG91dGZpbGUubWFlPic=

> <r_epik_Ionization_Penalty>
0.196786

> <r_epik_Ionization_Penalty_Charging>
0.180787

> <r_epik_Ionization_Penalty_Neutral>
0.0159988

> <r_epik_State_Penalty>
0.163322

> <r_epik_Charging_Adjusted_Penalty>
0.344109

> <i_epik_Tot_Q>
2

> <i_epik_Tot_abs_Q>
2

> <r_epik_Metal_State_Penalty>
0.163596

> <b_epik_Metal_Only>
0

> <s_lp_Force_Field>
OPLS_2005

> <r_lp_Energy>
49.2909

> <b_lp_Chiralities_Consistent>
1

> <s_lp_Variant>
AV-unprocessed.smi:2772-3

> <Gold.Version>
5.8.1

> <Gold.Id.Protein>
6NUR|6NUR_protein|mol2

> <Gold.PLP.Fitness>
42.6417

> <Gold.PLP.PLP>
-43.0706

> <Gold.PLP.part.hbond>
-0.4926

> <Gold.PLP.part.metal>
0.0000

> <Gold.PLP.part.buried>
-6.4774

> <Gold.PLP.part.nonpolar>
-35.3278

> <Gold.PLP.part.repulsive>
0.1536

> <Gold.PLP.ligand.clash>
0.0000

> <Gold.PLP.ligand.torsion>
0.2287

> <Gold.PLP.Chemscore.Hbond>
0.0000

> <Gold.PLP.Chemscore.CHOScore>
0.0000

> <Gold.PLP.Chemscore.Metal>
0.0000

> <Gold.PLP.Chemscore.Internal.Correction>
0.0285

> <Gold.Rescore>
     Score         DG    S(hbond)    S(metal)    S(lipo)     H(rot)  DE(clash)    DE(int)     intcor
     15.19     -18.25       0.00        0.00     135.59       1.21       0.07       2.99       ----

> <Gold.Chemscore.Fitness>
15.1932

> <Gold.Chemscore.DG>
-18.2481

> <Gold.Chemscore.ZeroCoef>
-5.4800

> <Gold.Chemscore.Hbond>
0.0000

> <Gold.Chemscore.Metal>
0.0000

> <Gold.Chemscore.Lipo>
135.5864

> <Gold.Chemscore.Internal_Hbond>
0.0000

> <Gold.Chemscore.DEClash>
0.0690

> <Gold.Chemscore.DEInternal>
2.9859

> <Gold.Chemscore.Rot>
1.2092

> <Gold.Chemscore.Internal.Correction>
   9.000000E+99

> <Gold.Chemscore.Hbond.Weighted>
-0.0000

> <Gold.Chemscore.Metal.Weighted>
-0.0000

> <Gold.Chemscore.Lipo.Weighted>
-15.8636

> <Gold.Chemscore.Internal_Hbond.Weighted>
0.0000

> <Gold.Chemscore.DEClash.Weighted>
0.0690

> <Gold.Chemscore.DEInternal.Weighted>
2.9859

> <Gold.Chemscore.Rot.Weighted>
3.0955

> <Gold.Chemscore.Internal.Correction.Weighted>
   9.000000E+99

> <Gold.Protein.RotatedTorsions>
[ 6907 6896 6895 6894 ] final  -50.91 input  -60.11 | X-H torsion
[ 7974 7965 7964 7962 ] final   73.99 input  175.53 | X-H torsion
[ 8008 7997 7996 7995 ] final  127.69 input   59.86 | X-H torsion
[ 10167 10162 10161 10158 ] final  -58.95 input  -65.29 | X-H torsion
[ 10718 10713 10712 10709 ] final  178.45 input   66.30 | X-H torsion
[ 10763 10752 10751 10750 ] final   16.19 input  -60.55 | X-H torsion
[ 11005 11000 10999 10996 ] final   41.34 input  -57.11 | X-H torsion

> <Gold.Protein.ActiveResidues>
 VAL166  LYS551  ARG553  GLY616  TRP617  ASP618  TYR619  PRO620  LYS621  CYS622 
 ASP623  PHE694  ASN695  SER759  ASP760  ASP761  ALA762  ILE779  LEU786  VAL792 
 PHE793  MET794  SER795  GLU796  ALA797  LYS798  CYS799  TRP800  GLU811  SER814 

> <Gold.Protein.RotatedAtoms>
  150.8662  134.8025  159.7119 H   0  0  0  0  0  0  0  0  0  0  0  0  # atno 6907 bound_to 6896
  152.4682  134.5020  159.9737 H   0  0  0  0  0  0  0  0  0  0  0  0  # atno 6908 bound_to 6896
  151.5116  133.3445  159.2921 H   0  0  0  0  0  0  0  0  0  0  0  0  # atno 6909 bound_to 6896
  145.7339  139.2694  143.1525 H   0  0  0  0  0  0  0  0  0  0  0  0  # atno 7974 bound_to 7965
  156.2897  140.2663  156.2314 H   0  0  0  0  0  0  0  0  0  0  0  0  # atno 8008 bound_to 7997
  155.0068  140.0387  157.2401 H   0  0  0  0  0  0  0  0  0  0  0  0  # atno 8009 bound_to 7997
  154.7553  140.2750  155.6264 H   0  0  0  0  0  0  0  0  0  0  0  0  # atno 8010 bound_to 7997
  140.6165  143.2404  151.5584 H   0  0  0  0  0  0  0  0  0  0  0  0  # atno 10167 bound_to 10162
  156.8903  130.9845  151.3050 H   0  0  0  0  0  0  0  0  0  0  0  0  # atno 10718 bound_to 10713
  153.1454  135.6768  153.8962 H   0  0  0  0  0  0  0  0  0  0  0  0  # atno 10763 bound_to 10752
  153.8406  135.3106  155.3427 H   0  0  0  0  0  0  0  0  0  0  0  0  # atno 10764 bound_to 10752
  154.7821  135.4882  153.9952 H   0  0  0  0  0  0  0  0  0  0  0  0  # atno 10765 bound_to 10752
  140.1844  134.4064  155.8181 H   0  0  0  0  0  0  0  0  0  0  0  0  # atno 11005 bound_to 11000
  146.0512  140.8067  142.9781 LP  0  0  0  0  0  0  0  0  0  0  0  0  # atno 17320 bound_to 7965
  144.6886  140.3055  143.7256 LP  0  0  0  0  0  0  0  0  0  0  0  0  # atno 17321 bound_to 7965
  139.5403  144.2666  152.1337 LP  0  0  0  0  0  0  0  0  0  0  0  0  # atno 17342 bound_to 10162
  140.1876  144.4783  150.6495 LP  0  0  0  0  0  0  0  0  0  0  0  0  # atno 17343 bound_to 10162
  157.6087  130.8567  149.8917 LP  0  0  0  0  0  0  0  0  0  0  0  0  # atno 17370 bound_to 10713
  156.0632  130.3696  150.0936 LP  0  0  0  0  0  0  0  0  0  0  0  0  # atno 17371 bound_to 10713
  141.2224  133.7016  156.7987 LP  0  0  0  0  0  0  0  0  0  0  0  0  # atno 17394 bound_to 11000
  140.2230  134.8742  157.3397 LP  0  0  0  0  0  0  0  0  0  0  0  0  # atno 17395 bound_to 11000

$$$$
