AV-unprocessed.smi:9|AV-procd|sdf|50|dock1
  -GOLD-   2262015163D 1   1.00000     0.00000
 Structure written by MMmdl.
 34 36  0  0  0  0  0  0  0  0  2 V2000
  149.8727  136.4424  158.3655 O   0  0  0  0  0  0  0  0  0  0  0  0
  150.7381  137.2598  158.6726 C   0  0  0  0  0  0  0  0  0  0  0  0
  151.8092  137.0087  159.4895 N   0  5  0  0  0  0  0  0  0  0  0  0
  152.7441  138.0109  159.7735 C   0  0  0  0  0  0  0  0  0  0  0  0
  153.8941  137.6261  160.6992 C   0  0  0  0  0  0  0  0  0  0  0  0
  153.4413  137.1891  161.8764 F   0  0  0  0  0  0  0  0  0  0  0  0
  154.6222  136.6549  160.1484 F   0  0  0  0  0  0  0  0  0  0  0  0
  154.6958  138.6664  160.9366 F   0  0  0  0  0  0  0  0  0  0  0  0
  152.7001  139.2256  159.3286 N   0  0  0  0  0  0  0  0  0  0  0  0
  151.6324  139.5122  158.5066 C   0  0  0  0  0  0  0  0  0  0  0  0
  150.6476  138.6422  158.1327 C   0  0  0  0  0  0  0  0  0  0  0  0
  149.7290  139.2542  157.2874 N   0  0  0  0  0  0  0  0  0  0  0  0
  150.2168  140.4914  157.1940 C   0  0  0  0  0  0  0  0  0  0  0  0
  151.3410  140.7272  157.9002 N   0  0  0  0  0  0  0  0  0  0  0  0
  152.0850  141.9754  157.9863 C   0  0  0  0  0  0  0  0  0  0  0  0
  151.6196  142.9186  159.1258 C   0  0  2  0  0  0  0  0  0  0  0  0
  150.2070  142.8468  159.1807 O   0  0  0  0  0  0  0  0  0  0  0  0
  152.0460  144.3835  158.8823 C   0  0  0  0  0  0  0  0  0  0  0  0
  151.8233  145.2549  160.1226 C   0  0  0  0  0  0  0  0  0  0  0  0
  152.4716  144.6033  161.3487 C   0  0  0  0  0  0  0  0  0  0  0  0
  151.9021  143.3167  161.5461 O   0  0  0  0  0  0  0  0  0  0  0  0
  152.1576  142.4033  160.4818 C   0  0  0  0  0  0  0  0  0  0  0  0
  149.7371  141.2539  156.5981 H   0  0  0  0  0  0  0  0  0  0  0  0
  153.1440  141.7379  158.0977 H   0  0  0  0  0  0  0  0  0  0  0  0
  151.9908  142.4824  157.0251 H   0  0  0  0  0  0  0  0  0  0  0  0
  149.8569  143.2447  158.3985 H   0  0  0  0  0  0  0  0  0  0  0  0
  153.1061  144.4098  158.6264 H   0  0  0  0  0  0  0  0  0  0  0  0
  151.5131  144.8110  158.0320 H   0  0  0  0  0  0  0  0  0  0  0  0
  152.2391  146.2497  159.9605 H   0  0  0  0  0  0  0  0  0  0  0  0
  150.7552  145.3874  160.2987 H   0  0  0  0  0  0  0  0  0  0  0  0
  153.5534  144.5257  161.2294 H   0  0  0  0  0  0  0  0  0  0  0  0
  152.2892  145.2097  162.2360 H   0  0  0  0  0  0  0  0  0  0  0  0
  151.7164  141.4374  160.7306 H   0  0  0  0  0  0  0  0  0  0  0  0
  153.2351  142.2416  160.4214 H   0  0  0  0  0  0  0  0  0  0  0  0
  1  2  2  0  0  0  0
  2 11  1  0  0  0  0
  2  3  1  0  0  0  0
  3  4  1  0  0  0  0
  4  5  1  0  0  0  0
  4  9  2  0  0  0  0
  5  6  1  0  0  0  0
  5  7  1  0  0  0  0
  5  8  1  0  0  0  0
  9 10  1  0  0  0  0
 10 14  1  0  0  0  0
 10 11  2  0  0  0  0
 11 12  1  0  0  0  0
 12 13  2  0  0  0  0
 13 14  1  0  0  0  0
 13 23  1  0  0  0  0
 14 15  1  0  0  0  0
 15 16  1  0  0  0  0
 15 24  1  0  0  0  0
 15 25  1  0  0  0  0
 16 22  1  0  0  0  0
 16 17  1  0  0  0  0
 16 18  1  0  0  0  0
 17 26  1  0  0  0  0
 18 19  1  0  0  0  0
 18 27  1  0  0  0  0
 18 28  1  0  0  0  0
 19 20  1  0  0  0  0
 19 29  1  0  0  0  0
 19 30  1  0  0  0  0
 20 21  1  0  0  0  0
 20 31  1  0  0  0  0
 20 32  1  0  0  0  0
 21 22  1  0  0  0  0
 22 33  1  0  0  0  0
 22 34  1  0  0  0  0
M  CHG  1   3  -1
M  END
> <s_m_source_file>
AV-unprocessed.smi

> <i_m_source_file_index>
9

> <i_lp_mmshare_version>
43012

> <i_f3d_flags>
0

> <s_epik_input>
RkMoRikoRiljKG4xKVtuSF1jKD1PKWMoYzEyKW5bY0hdbjJbQ0gyXVtDQEBdMyhbT0hdKVtDSDJdW0NIMl1bQ0gyXU9bQ0gyXTM=

> <s_epik_cmdline>
J2VwaWtfcHl0aG9uJywgJy1waCcsICc3LjAnLCAnLXRuJywgJzgnLCAnLW1hJywgJzIwMCcsICctbWV0YWxfYmluZGluZycsICctaW1hZScsICc8aW5maWxlLm1hZT4nLCAnLW9tYWUnLCAnPG91dGZpbGUubWFlPic=

> <r_lp_tautomer_probability>
1

> <r_epik_Ionization_Penalty>
0.188582

> <r_epik_Ionization_Penalty_Charging>
1.37005e-11

> <r_epik_Ionization_Penalty_Neutral>
0.188582

> <r_epik_State_Penalty>
0.012336

> <r_epik_Charging_Adjusted_Penalty>
0.012336

> <i_epik_Tot_Q>
-1

> <i_epik_Tot_abs_Q>
1

> <r_epik_Metal_State_Penalty>
0.0089237

> <b_epik_Metal_Only>
0

> <s_lp_Force_Field>
OPLS_2005

> <r_lp_Energy>
37.4202

> <b_lp_Chiralities_Consistent>
1

> <s_lp_Variant>
AV-unprocessed.smi:9-2

> <Gold.Version>
5.8.1

> <Gold.Id.Protein>
6NUR|6NUR_protein|mol2

> <Gold.PLP.Fitness>
40.9517

> <Gold.PLP.PLP>
-36.2343

> <Gold.PLP.part.hbond>
-3.2733

> <Gold.PLP.part.metal>
0.0000

> <Gold.PLP.part.buried>
-6.7346

> <Gold.PLP.part.nonpolar>
-25.9968

> <Gold.PLP.part.repulsive>
0.1470

> <Gold.PLP.ligand.clash>
0.0000

> <Gold.PLP.ligand.torsion>
0.6493

> <Gold.PLP.Chemscore.Hbond>
2.0000

> <Gold.PLP.Chemscore.CHOScore>
0.0000

> <Gold.PLP.Chemscore.Metal>
0.0000

> <Gold.Chemscore.Hbonds>
donor molecule, donor type, donor heavy atom, donor atom, acceptor molecule, acceptor atom, score
      P1  H  6896  6908       L1     3  2.00

> <Gold.PLP.Chemscore.Internal.Correction>
0.0158

> <Gold.Rescore>
     Score         DG    S(hbond)    S(metal)    S(lipo)     H(rot)  DE(clash)    DE(int)     intcor
     11.04     -11.73       0.90        0.00      74.20       2.12       0.04       0.65       ----

> <Gold.Chemscore.Fitness>
11.0373

> <Gold.Chemscore.DG>
-11.7275

> <Gold.Chemscore.ZeroCoef>
-5.4800

> <Gold.Chemscore.Hbond>
0.8992

> <Gold.Chemscore.Metal>
0.0000

> <Gold.Chemscore.Lipo>
74.2004

> <Gold.Chemscore.Internal_Hbond>
0.0000

> <Gold.Chemscore.DEClash>
0.0417

> <Gold.Chemscore.DEInternal>
0.6485

> <Gold.Chemscore.Rot>
2.1239

> <Gold.Chemscore.Internal.Correction>
   9.000000E+99

> <Gold.Chemscore.Hbonds>
donor molecule, donor type, donor heavy atom, donor atom, acceptor molecule, acceptor atom, score
      P1  H  6896  6908       L1     3  0.64

> <Gold.Chemscore.Hbond.Weighted>
-3.0033

> <Gold.Chemscore.Metal.Weighted>
-0.0000

> <Gold.Chemscore.Lipo.Weighted>
-8.6814

> <Gold.Chemscore.Internal_Hbond.Weighted>
0.0000

> <Gold.Chemscore.DEClash.Weighted>
0.0417

> <Gold.Chemscore.DEInternal.Weighted>
0.6485

> <Gold.Chemscore.Rot.Weighted>
5.4373

> <Gold.Chemscore.Internal.Correction.Weighted>
   9.000000E+99

> <Gold.Protein.RotatedTorsions>
[ 6907 6896 6895 6894 ] final -109.82 input  -60.11 | X-H torsion
[ 7974 7965 7964 7962 ] final -127.37 input  175.53 | X-H torsion
[ 8008 7997 7996 7995 ] final  136.08 input   59.86 | X-H torsion
[ 10167 10162 10161 10158 ] final   42.32 input  -65.29 | X-H torsion
[ 10718 10713 10712 10709 ] final   64.40 input   66.30 | X-H torsion
[ 10763 10752 10751 10750 ] final -135.74 input  -60.55 | X-H torsion
[ 11005 11000 10999 10996 ] final   96.94 input  -57.11 | X-H torsion

> <Gold.Protein.ActiveResidues>
 VAL166  LYS551  ARG553  GLY616  TRP617  ASP618  TYR619  PRO620  LYS621  CYS622 
 ASP623  PHE694  ASN695  SER759  ASP760  ASP761  ALA762  ILE779  LEU786  VAL792 
 PHE793  MET794  SER795  GLU796  ALA797  LYS798  CYS799  TRP800  GLU811  SER814 

> <Gold.Protein.RotatedAtoms>
  150.7586  133.9472  159.3474 H   0  0  0  0  0  0  0  0  0  0  0  0  # atno 6907 bound_to 6896
  151.7386  135.0857  160.0321 H   0  0  0  0  0  0  0  0  0  0  0  0  # atno 6908 bound_to 6896
  152.3543  133.6180  159.6004 H   0  0  0  0  0  0  0  0  0  0  0  0  # atno 6909 bound_to 6896
  144.9778  140.7610  143.4631 H   0  0  0  0  0  0  0  0  0  0  0  0  # atno 7974 bound_to 7965
  156.3004  140.2454  156.3686 H   0  0  0  0  0  0  0  0  0  0  0  0  # atno 8008 bound_to 7997
  154.8810  140.0412  157.1801 H   0  0  0  0  0  0  0  0  0  0  0  0  # atno 8009 bound_to 7997
  154.8696  140.2933  155.5493 H   0  0  0  0  0  0  0  0  0  0  0  0  # atno 8010 bound_to 7997
  140.3556  144.2294  150.6142 H   0  0  0  0  0  0  0  0  0  0  0  0  # atno 10167 bound_to 10162
  157.6037  130.9158  149.9841 H   0  0  0  0  0  0  0  0  0  0  0  0  # atno 10718 bound_to 10713
  154.8697  135.3694  154.4947 H   0  0  0  0  0  0  0  0  0  0  0  0  # atno 10763 bound_to 10752
  153.5591  135.7023  153.5560 H   0  0  0  0  0  0  0  0  0  0  0  0  # atno 10764 bound_to 10752
  153.3644  135.4038  155.1706 H   0  0  0  0  0  0  0  0  0  0  0  0  # atno 10765 bound_to 10752
  139.8778  134.8976  156.4232 H   0  0  0  0  0  0  0  0  0  0  0  0  # atno 11005 bound_to 11000
  145.2465  139.2050  143.4965 LP  0  0  0  0  0  0  0  0  0  0  0  0  # atno 17320 bound_to 7965
  146.3400  140.2370  142.8594 LP  0  0  0  0  0  0  0  0  0  0  0  0  # atno 17321 bound_to 7965
  140.5177  143.2274  151.8437 LP  0  0  0  0  0  0  0  0  0  0  0  0  # atno 17342 bound_to 10162
  139.4820  144.4874  151.9229 LP  0  0  0  0  0  0  0  0  0  0  0  0  # atno 17343 bound_to 10162
  156.1117  130.3649  150.0037 LP  0  0  0  0  0  0  0  0  0  0  0  0  # atno 17370 bound_to 10713
  156.8134  130.9333  151.3643 LP  0  0  0  0  0  0  0  0  0  0  0  0  # atno 17371 bound_to 10713
  140.9119  133.7706  155.9801 LP  0  0  0  0  0  0  0  0  0  0  0  0  # atno 17394 bound_to 11000
  140.8537  134.2923  157.5264 LP  0  0  0  0  0  0  0  0  0  0  0  0  # atno 17395 bound_to 11000

$$$$
