AV-unprocessed.smi:2710|AV-procd|sdf|10471|dock8
  -GOLD-   2272014513D 1   1.00000     0.00000
 Structure written by MMmdl.
 53 54  0  0  0  0  0  0  0  0  2 V2000
  147.4986  128.1768  151.6048 C   0  0  0  0  0  0  0  0  0  0  0  0
  146.2997  129.1257  151.7673 C   0  0  0  0  0  0  0  0  0  0  0  0
  146.6888  130.5609  151.8920 N   0  3  1  0  0  0  0  0  0  0  0  0
  145.6267  131.4699  151.3720 C   0  0  0  0  0  0  0  0  0  0  0  0
  146.0666  132.9408  151.3806 C   0  0  0  0  0  0  0  0  0  0  0  0
  146.4701  133.3811  152.7904 C   0  0  2  0  0  0  0  0  0  0  0  0
  146.9341  134.7654  152.7646 N   0  0  0  0  0  0  0  0  0  0  0  0
  146.3345  135.7929  153.3831 C   0  0  0  0  0  0  0  0  0  0  0  0
  145.3228  135.6697  154.0720 O   0  0  0  0  0  0  0  0  0  0  0  0
  146.9913  136.9434  153.1587 N   0  0  0  0  0  0  0  0  0  0  0  0
  146.6767  138.2517  153.6164 C   0  0  0  0  0  0  0  0  0  0  0  0
  147.4717  139.4061  153.4183 C   0  0  0  0  0  0  0  0  0  0  0  0
  147.1041  140.6109  153.9039 N   0  0  0  0  0  0  0  0  0  0  0  0
  145.9395  140.6930  154.5602 C   0  0  0  0  0  0  0  0  0  0  0  0
  145.6062  142.0355  155.2343 C   0  0  0  0  0  0  0  0  0  0  0  0
  146.6501  142.3884  156.3201 C   0  0  0  0  0  0  0  0  0  0  0  0
  144.2410  141.9702  155.9590 C   0  0  0  0  0  0  0  0  0  0  0  0
  145.5729  143.1487  154.1711 C   0  0  0  0  0  0  0  0  0  0  0  0
  145.1420  139.6544  154.8422 N   0  0  0  0  0  0  0  0  0  0  0  0
  145.4973  138.4439  154.3632 C   0  0  0  0  0  0  0  0  0  0  0  0
  147.5653  132.4355  153.3065 C   0  0  0  0  0  0  0  0  0  0  0  0
  147.1198  130.9568  153.2731 C   0  0  2  0  0  0  0  0  0  0  0  0
  148.2646  130.0855  153.8307 C   0  0  0  0  0  0  0  0  0  0  0  0
  147.1746  127.1389  151.6861 H   0  0  0  0  0  0  0  0  0  0  0  0
  148.2467  128.3478  152.3793 H   0  0  0  0  0  0  0  0  0  0  0  0
  147.9818  128.2782  150.6337 H   0  0  0  0  0  0  0  0  0  0  0  0
  145.5990  128.9998  150.9406 H   0  0  0  0  0  0  0  0  0  0  0  0
  145.7831  128.7938  152.6647 H   0  0  0  0  0  0  0  0  0  0  0  0
  145.3660  131.2126  150.3470 H   0  0  0  0  0  0  0  0  0  0  0  0
  144.7204  131.3476  151.9675 H   0  0  0  0  0  0  0  0  0  0  0  0
  146.9017  133.0756  150.6913 H   0  0  0  0  0  0  0  0  0  0  0  0
  145.2548  133.5686  151.0108 H   0  0  0  0  0  0  0  0  0  0  0  0
  145.5961  133.3119  153.4414 H   0  0  0  0  0  0  0  0  0  0  0  0
  147.7645  134.9583  152.2238 H   0  0  0  0  0  0  0  0  0  0  0  0
  147.8388  136.8710  152.6147 H   0  0  0  0  0  0  0  0  0  0  0  0
  148.4150  139.3885  152.8961 H   0  0  0  0  0  0  0  0  0  0  0  0
  146.3910  143.3150  156.8336 H   0  0  0  0  0  0  0  0  0  0  0  0
  147.6460  142.5309  155.8992 H   0  0  0  0  0  0  0  0  0  0  0  0
  146.7188  141.6040  157.0748 H   0  0  0  0  0  0  0  0  0  0  0  0
  144.2241  141.1737  156.7039 H   0  0  0  0  0  0  0  0  0  0  0  0
  143.4179  141.7924  155.2658 H   0  0  0  0  0  0  0  0  0  0  0  0
  144.0199  142.9053  156.4746 H   0  0  0  0  0  0  0  0  0  0  0  0
  145.3387  144.1169  154.6150 H   0  0  0  0  0  0  0  0  0  0  0  0
  144.8198  142.9452  153.4088 H   0  0  0  0  0  0  0  0  0  0  0  0
  146.5347  143.2422  153.6657 H   0  0  0  0  0  0  0  0  0  0  0  0
  144.8340  137.6208  154.5850 H   0  0  0  0  0  0  0  0  0  0  0  0
  148.4694  132.5585  152.7077 H   0  0  0  0  0  0  0  0  0  0  0  0
  147.8348  132.7123  154.3267 H   0  0  0  0  0  0  0  0  0  0  0  0
  146.2604  130.8461  153.9366 H   0  0  0  0  0  0  0  0  0  0  0  0
  148.6536  130.5033  154.7599 H   0  0  0  0  0  0  0  0  0  0  0  0
  149.0959  130.0198  153.1279 H   0  0  0  0  0  0  0  0  0  0  0  0
  147.9379  129.0748  154.0726 H   0  0  0  0  0  0  0  0  0  0  0  0
  147.4959  130.6876  151.2981 H   0  0  0  0  0  0  0  0  0  0  0  0
  1  2  1  0  0  0  0
  1 24  1  0  0  0  0
  1 25  1  0  0  0  0
  1 26  1  0  0  0  0
  2  3  1  0  0  0  0
  2 27  1  0  0  0  0
  2 28  1  0  0  0  0
  3 22  1  0  0  0  0
  3  4  1  0  0  0  0
  3 53  1  0  0  0  0
  4  5  1  0  0  0  0
  4 29  1  0  0  0  0
  4 30  1  0  0  0  0
  5  6  1  0  0  0  0
  5 31  1  0  0  0  0
  5 32  1  0  0  0  0
  6  7  1  0  0  0  0
  6 21  1  0  0  0  0
  6 33  1  0  0  0  0
  7  8  1  0  0  0  0
  7 34  1  0  0  0  0
  8  9  2  0  0  0  0
  8 10  1  0  0  0  0
 10 11  1  0  0  0  0
 10 35  1  0  0  0  0
 11 20  1  0  0  0  0
 11 12  2  0  0  0  0
 12 13  1  0  0  0  0
 12 36  1  0  0  0  0
 13 14  2  0  0  0  0
 14 15  1  0  0  0  0
 14 19  1  0  0  0  0
 15 16  1  0  0  0  0
 15 17  1  0  0  0  0
 15 18  1  0  0  0  0
 16 37  1  0  0  0  0
 16 38  1  0  0  0  0
 16 39  1  0  0  0  0
 17 40  1  0  0  0  0
 17 41  1  0  0  0  0
 17 42  1  0  0  0  0
 18 43  1  0  0  0  0
 18 44  1  0  0  0  0
 18 45  1  0  0  0  0
 19 20  2  0  0  0  0
 20 46  1  0  0  0  0
 21 22  1  0  0  0  0
 21 47  1  0  0  0  0
 21 48  1  0  0  0  0
 22 23  1  0  0  0  0
 22 49  1  0  0  0  0
 23 50  1  0  0  0  0
 23 51  1  0  0  0  0
 23 52  1  0  0  0  0
M  CHG  1   3   1
M  END
> <s_m_source_file>
AV-unprocessed.smi

> <i_m_source_file_index>
2710

> <i_lp_mmshare_version>
43012

> <i_f3d_flags>
0

> <s_epik_input>
W0NIM11bQ0gyXU4xW0NIMl1bQ0gyXVtDQEhdKFtDSDJdW0NASF0xW0NIM10pW05IXUMoPU8pW05IXWMyW2NIXW5jKEMoW0NIM10pKFtDSDNdKVtDSDNdKW5bY0hdMg==

> <s_epik_cmdline>
J2VwaWtfcHl0aG9uJywgJy1waCcsICc3LjAnLCAnLXRuJywgJzgnLCAnLW1hJywgJzIwMCcsICctbWV0YWxfYmluZGluZycsICctaW1hZScsICc8aW5maWxlLm1hZT4nLCAnLW9tYWUnLCAnPG91dGZpbGUubWFlPic=

> <r_lp_tautomer_probability>
1

> <r_epik_Ionization_Penalty>
0.00396003

> <r_epik_Ionization_Penalty_Charging>
0.0039379

> <r_epik_Ionization_Penalty_Neutral>
2.21316e-05

> <r_epik_State_Penalty>
0.00281651

> <r_epik_Charging_Adjusted_Penalty>
0.00675441

> <i_epik_Tot_Q>
1

> <i_epik_Tot_abs_Q>
1

> <r_epik_Metal_State_Penalty>
-0

> <b_epik_Metal_Only>
0

> <s_lp_Force_Field>
OPLS_2005

> <r_lp_Energy>
20.1014

> <b_lp_Chiralities_Consistent>
1

> <s_lp_Variant>
AV-unprocessed.smi:2710-8

> <Gold.Version>
5.8.1

> <Gold.Id.Protein>
6NUR|6NUR_protein|mol2

> <Gold.PLP.Fitness>
42.5372

> <Gold.PLP.PLP>
-31.7558

> <Gold.PLP.part.hbond>
-2.8082

> <Gold.PLP.part.metal>
0.0000

> <Gold.PLP.part.buried>
-3.5464

> <Gold.PLP.part.nonpolar>
-26.0307

> <Gold.PLP.part.repulsive>
0.3107

> <Gold.PLP.ligand.clash>
0.0000

> <Gold.PLP.ligand.torsion>
0.4504

> <Gold.PLP.Chemscore.Hbond>
2.8385

> <Gold.PLP.Chemscore.CHOScore>
1.0000

> <Gold.PLP.Chemscore.Metal>
0.0000

> <Gold.Chemscore.Hbonds>
donor molecule, donor type, donor heavy atom, donor atom, acceptor molecule, acceptor atom, score
      L1  H     3    53       P1 10747  1.00
      L1  H     7    34       P1  7948  0.90
      L1  H    10    35       P1  7948  0.89
      L1  C    12    36       P1  7957  1.00

> <Gold.PLP.Chemscore.Internal.Correction>
0.1667

> <Gold.Rescore>
     Score         DG    S(hbond)    S(metal)    S(lipo)     H(rot)  DE(clash)    DE(int)     intcor
     18.95     -20.83       2.81        0.00      79.63       1.31       0.04       1.84       ----

> <Gold.Chemscore.Fitness>
18.9476

> <Gold.Chemscore.DG>
-20.8328

> <Gold.Chemscore.ZeroCoef>
-5.4800

> <Gold.Chemscore.Hbond>
2.8100

> <Gold.Chemscore.Metal>
0.0000

> <Gold.Chemscore.Lipo>
79.6269

> <Gold.Chemscore.Internal_Hbond>
0.0000

> <Gold.Chemscore.DEClash>
0.0440

> <Gold.Chemscore.DEInternal>
1.8412

> <Gold.Chemscore.Rot>
1.3081

> <Gold.Chemscore.Internal.Correction>
   9.000000E+99

> <Gold.Chemscore.Hbonds>
donor molecule, donor type, donor heavy atom, donor atom, acceptor molecule, acceptor atom, score
      L1  H     3    53       P1 10747  1.00
      L1  H     7    34       P1  7948  0.75
      L1  H    10    35       P1  7948  0.85

> <Gold.Chemscore.Hbond.Weighted>
-9.3853

> <Gold.Chemscore.Metal.Weighted>
-0.0000

> <Gold.Chemscore.Lipo.Weighted>
-9.3164

> <Gold.Chemscore.Internal_Hbond.Weighted>
0.0000

> <Gold.Chemscore.DEClash.Weighted>
0.0440

> <Gold.Chemscore.DEInternal.Weighted>
1.8412

> <Gold.Chemscore.Rot.Weighted>
3.3488

> <Gold.Chemscore.Internal.Correction.Weighted>
   9.000000E+99

> <Gold.Protein.RotatedTorsions>
[ 6907 6896 6895 6894 ] final -148.14 input  -60.11 | X-H torsion
[ 7974 7965 7964 7962 ] final  -15.22 input  175.53 | X-H torsion
[ 8008 7997 7996 7995 ] final  -40.94 input   59.86 | X-H torsion
[ 10167 10162 10161 10158 ] final  177.97 input  -65.29 | X-H torsion
[ 10718 10713 10712 10709 ] final   54.40 input   66.30 | X-H torsion
[ 10763 10752 10751 10750 ] final   -6.53 input  -60.55 | X-H torsion
[ 11005 11000 10999 10996 ] final  -62.96 input  -57.11 | X-H torsion

> <Gold.Protein.ActiveResidues>
 VAL166  LYS551  ARG553  GLY616  TRP617  ASP618  TYR619  PRO620  LYS621  CYS622 
 ASP623  PHE694  ASN695  SER759  ASP760  ASP761  ALA762  ILE779  LEU786  VAL792 
 PHE793  MET794  SER795  GLU796  ALA797  LYS798  CYS799  TRP800  GLU811  SER814 

> <Gold.Protein.RotatedAtoms>
  151.1656  133.4817  159.2593 H   0  0  0  0  0  0  0  0  0  0  0  0  # atno 6907 bound_to 6896
  151.1409  135.0178  159.8635 H   0  0  0  0  0  0  0  0  0  0  0  0  # atno 6908 bound_to 6896
  152.5462  134.1550  159.8587 H   0  0  0  0  0  0  0  0  0  0  0  0  # atno 6909 bound_to 6896
  146.2041  140.3462  142.8413 H   0  0  0  0  0  0  0  0  0  0  0  0  # atno 7974 bound_to 7965
  154.4008  140.1512  156.3109 H   0  0  0  0  0  0  0  0  0  0  0  0  # atno 8008 bound_to 7997
  155.8616  140.3453  155.5739 H   0  0  0  0  0  0  0  0  0  0  0  0  # atno 8009 bound_to 7997
  155.7873  140.0852  157.2018 H   0  0  0  0  0  0  0  0  0  0  0  0  # atno 8010 bound_to 7997
  139.5275  144.2735  152.0608 H   0  0  0  0  0  0  0  0  0  0  0  0  # atno 10167 bound_to 10162
  157.5253  130.8593  149.8613 H   0  0  0  0  0  0  0  0  0  0  0  0  # atno 10718 bound_to 10713
  153.4137  135.7008  153.6341 H   0  0  0  0  0  0  0  0  0  0  0  0  # atno 10763 bound_to 10752
  153.4825  135.3690  155.2450 H   0  0  0  0  0  0  0  0  0  0  0  0  # atno 10764 bound_to 10752
  154.8718  135.4069  154.3493 H   0  0  0  0  0  0  0  0  0  0  0  0  # atno 10765 bound_to 10752
  141.1377  133.6646  156.5608 H   0  0  0  0  0  0  0  0  0  0  0  0  # atno 11005 bound_to 11000
  144.8751  140.7325  143.6022 LP  0  0  0  0  0  0  0  0  0  0  0  0  # atno 17320 bound_to 7965
  145.3381  139.1740  143.4500 LP  0  0  0  0  0  0  0  0  0  0  0  0  # atno 17321 bound_to 7965
  140.2193  144.4482  150.6349 LP  0  0  0  0  0  0  0  0  0  0  0  0  # atno 17342 bound_to 10162
  140.6429  143.2207  151.6251 LP  0  0  0  0  0  0  0  0  0  0  0  0  # atno 17343 bound_to 10162
  156.0382  130.3745  150.1503 LP  0  0  0  0  0  0  0  0  0  0  0  0  # atno 17370 bound_to 10713
  156.9690  130.9828  151.3463 LP  0  0  0  0  0  0  0  0  0  0  0  0  # atno 17371 bound_to 10713
  140.3990  134.7373  157.4768 LP  0  0  0  0  0  0  0  0  0  0  0  0  # atno 17394 bound_to 11000
  140.0510  134.6130  155.8862 LP  0  0  0  0  0  0  0  0  0  0  0  0  # atno 17395 bound_to 11000

$$$$
