AV-unprocessed.smi:2044|AV-procd|sdf|8300|dock5
  -GOLD-   2272010563D 1   1.00000     0.00000
 Structure written by MMmdl.
 40 41  0  0  0  0  0  0  0  0  2 V2000
  140.3572  138.2218  153.7634 C   0  0  0  0  0  0  0  0  0  0  0  0
  141.0445  136.9012  153.6994 C   0  0  0  0  0  0  0  0  0  0  0  0
  142.2628  136.5098  153.2209 C   0  0  0  0  0  0  0  0  0  0  0  0
  142.2700  135.1074  153.4754 C   0  0  0  0  0  0  0  0  0  0  0  0
  143.3145  134.2009  153.1589 N   0  0  0  0  0  0  0  0  0  0  0  0
  144.4369  134.4329  152.4582 C   0  0  0  0  0  0  0  0  0  0  0  0
  144.7630  135.5154  151.9717 O   0  0  0  0  0  0  0  0  0  0  0  0
  145.1857  133.3240  152.3588 N   0  0  0  0  0  0  0  0  0  0  0  0
  146.4621  133.2241  151.6538 C   0  0  0  0  0  0  0  0  0  0  0  0
  147.6079  132.6647  152.5390 C   0  0  2  0  0  0  0  0  0  0  0  0
  147.1119  131.4742  153.3969 C   0  0  0  0  0  0  0  0  0  0  0  0
  148.2143  133.7703  153.3527 N   0  3  0  0  0  0  0  0  0  0  0  0
  147.3086  134.4143  154.3446 C   0  0  0  0  0  0  0  0  0  0  0  0
  148.0226  135.5550  155.0905 C   0  0  0  0  0  0  0  0  0  0  0  0
  149.1967  135.0633  155.7188 O   0  0  0  0  0  0  0  0  0  0  0  0
  150.1164  134.5466  154.7687 C   0  0  0  0  0  0  0  0  0  0  0  0
  149.4759  133.3613  154.0290 C   0  0  0  0  0  0  0  0  0  0  0  0
  141.1596  134.6897  154.0550 N   0  0  0  0  0  0  0  0  0  0  0  0
  140.3680  135.8345  154.2042 O   0  0  0  0  0  0  0  0  0  0  0  0
  140.9469  138.9918  153.2654 H   0  0  0  0  0  0  0  0  0  0  0  0
  140.2054  138.5281  154.7983 H   0  0  0  0  0  0  0  0  0  0  0  0
  139.3831  138.1751  153.2767 H   0  0  0  0  0  0  0  0  0  0  0  0
  143.0118  137.1384  152.7631 H   0  0  0  0  0  0  0  0  0  0  0  0
  143.1899  133.2634  153.5115 H   0  0  0  0  0  0  0  0  0  0  0  0
  144.8394  132.4799  152.7917 H   0  0  0  0  0  0  0  0  0  0  0  0
  146.2740  132.5765  150.7997 H   0  0  0  0  0  0  0  0  0  0  0  0
  146.7534  134.1891  151.2353 H   0  0  0  0  0  0  0  0  0  0  0  0
  148.3873  132.2705  151.8846 H   0  0  0  0  0  0  0  0  0  0  0  0
  146.6779  130.6857  152.7834 H   0  0  0  0  0  0  0  0  0  0  0  0
  146.3515  131.7877  154.1129 H   0  0  0  0  0  0  0  0  0  0  0  0
  147.9230  130.9942  153.9442 H   0  0  0  0  0  0  0  0  0  0  0  0
  146.4369  134.8463  153.8541 H   0  0  0  0  0  0  0  0  0  0  0  0
  146.9513  133.6672  155.0551 H   0  0  0  0  0  0  0  0  0  0  0  0
  148.2743  136.3687  154.4080 H   0  0  0  0  0  0  0  0  0  0  0  0
  147.3641  135.9730  155.8522 H   0  0  0  0  0  0  0  0  0  0  0  0
  150.4203  135.3275  154.0694 H   0  0  0  0  0  0  0  0  0  0  0  0
  151.0155  134.2198  155.2912 H   0  0  0  0  0  0  0  0  0  0  0  0
  149.2663  132.5573  154.7366 H   0  0  0  0  0  0  0  0  0  0  0  0
  150.2000  132.9728  153.3158 H   0  0  0  0  0  0  0  0  0  0  0  0
  148.4575  134.4982  152.6956 H   0  0  0  0  0  0  0  0  0  0  0  0
  1  2  1  0  0  0  0
  1 20  1  0  0  0  0
  1 21  1  0  0  0  0
  1 22  1  0  0  0  0
  2 19  1  0  0  0  0
  2  3  2  0  0  0  0
  3  4  1  0  0  0  0
  3 23  1  0  0  0  0
  4  5  1  0  0  0  0
  4 18  2  0  0  0  0
  5  6  1  0  0  0  0
  5 24  1  0  0  0  0
  6  7  2  0  0  0  0
  6  8  1  0  0  0  0
  8  9  1  0  0  0  0
  8 25  1  0  0  0  0
  9 10  1  0  0  0  0
  9 26  1  0  0  0  0
  9 27  1  0  0  0  0
 10 11  1  0  0  0  0
 10 12  1  0  0  0  0
 10 28  1  0  0  0  0
 11 29  1  0  0  0  0
 11 30  1  0  0  0  0
 11 31  1  0  0  0  0
 12 17  1  0  0  0  0
 12 13  1  0  0  0  0
 12 40  1  0  0  0  0
 13 14  1  0  0  0  0
 13 32  1  0  0  0  0
 13 33  1  0  0  0  0
 14 15  1  0  0  0  0
 14 34  1  0  0  0  0
 14 35  1  0  0  0  0
 15 16  1  0  0  0  0
 16 17  1  0  0  0  0
 16 36  1  0  0  0  0
 16 37  1  0  0  0  0
 17 38  1  0  0  0  0
 17 39  1  0  0  0  0
 18 19  1  0  0  0  0
M  CHG  1  12   1
M  END
> <s_m_source_file>
AV-unprocessed.smi

> <i_m_source_file_index>
2044

> <i_lp_mmshare_version>
43012

> <i_f3d_flags>
0

> <s_epik_input>
W0NIM11jMVtjSF1jKG5vMSlbTkhdQyg9TylbTkhdW0NIMl1bQ0BIXShbQ0gzXSlOMltDSDJdW0NIMl1PW0NIMl1bQ0gyXTI=

> <s_epik_cmdline>
J2VwaWtfcHl0aG9uJywgJy1waCcsICc3LjAnLCAnLXRuJywgJzgnLCAnLW1hJywgJzIwMCcsICctbWV0YWxfYmluZGluZycsICctaW1hZScsICc8aW5maWxlLm1hZT4nLCAnLW9tYWUnLCAnPG91dGZpbGUubWFlPic=

> <r_epik_Ionization_Penalty>
0.707076

> <r_epik_Ionization_Penalty_Charging>
0.707039

> <r_epik_Ionization_Penalty_Neutral>
3.67886e-05

> <r_epik_State_Penalty>
0.730276

> <r_epik_Charging_Adjusted_Penalty>
1.43732

> <i_epik_Tot_Q>
1

> <i_epik_Tot_abs_Q>
1

> <r_epik_Metal_State_Penalty>
0.743216

> <b_epik_Metal_Only>
0

> <s_lp_Force_Field>
OPLS_2005

> <r_lp_Energy>
20.903

> <b_lp_Chiralities_Consistent>
1

> <s_lp_Variant>
AV-unprocessed.smi:2044-3

> <Gold.Version>
5.8.1

> <Gold.Id.Protein>
6NUR|6NUR_protein|mol2

> <Gold.PLP.Fitness>
41.0745

> <Gold.PLP.PLP>
-30.2812

> <Gold.PLP.part.hbond>
-4.6661

> <Gold.PLP.part.metal>
0.0000

> <Gold.PLP.part.buried>
-7.1742

> <Gold.PLP.part.nonpolar>
-18.7070

> <Gold.PLP.part.repulsive>
0.5335

> <Gold.PLP.ligand.clash>
0.0000

> <Gold.PLP.ligand.torsion>
0.2727

> <Gold.PLP.Chemscore.Hbond>
3.7632

> <Gold.PLP.Chemscore.CHOScore>
0.0000

> <Gold.PLP.Chemscore.Metal>
0.0000

> <Gold.Chemscore.Hbonds>
donor molecule, donor type, donor heavy atom, donor atom, acceptor molecule, acceptor atom, score
      L1  H     5    24       P1 10957  1.00
      L1  H    12    40       P1  7948  1.70
      P1  H 11000 11005       L1    18  0.67

> <Gold.PLP.Chemscore.Internal.Correction>
0.0491

> <Gold.Rescore>
     Score         DG    S(hbond)    S(metal)    S(lipo)     H(rot)  DE(clash)    DE(int)     intcor
     12.47     -15.02       2.43        0.00      47.71       1.62       0.24       2.31       ----

> <Gold.Chemscore.Fitness>
12.4734

> <Gold.Chemscore.DG>
-15.0223

> <Gold.Chemscore.ZeroCoef>
-5.4800

> <Gold.Chemscore.Hbond>
2.4285

> <Gold.Chemscore.Metal>
0.0000

> <Gold.Chemscore.Lipo>
47.7066

> <Gold.Chemscore.Internal_Hbond>
0.0000

> <Gold.Chemscore.DEClash>
0.2401

> <Gold.Chemscore.DEInternal>
2.3088

> <Gold.Chemscore.Rot>
1.6213

> <Gold.Chemscore.Internal.Correction>
   9.000000E+99

> <Gold.Chemscore.Hbonds>
donor molecule, donor type, donor heavy atom, donor atom, acceptor molecule, acceptor atom, score
      L1  H     5    24       P1 10957  0.91
      L1  H    12    40       P1  7948  0.15
      P1  H 11000 11005       L1    18  0.10

> <Gold.Chemscore.Hbond.Weighted>
-8.1113

> <Gold.Chemscore.Metal.Weighted>
-0.0000

> <Gold.Chemscore.Lipo.Weighted>
-5.5817

> <Gold.Chemscore.Internal_Hbond.Weighted>
0.0000

> <Gold.Chemscore.DEClash.Weighted>
0.2401

> <Gold.Chemscore.DEInternal.Weighted>
2.3088

> <Gold.Chemscore.Rot.Weighted>
4.1506

> <Gold.Chemscore.Internal.Correction.Weighted>
   9.000000E+99

> <Gold.Protein.RotatedTorsions>
[ 6907 6896 6895 6894 ] final   61.02 input  -60.11 | X-H torsion
[ 7974 7965 7964 7962 ] final  -32.90 input  175.53 | X-H torsion
[ 8008 7997 7996 7995 ] final  123.00 input   59.86 | X-H torsion
[ 10167 10162 10161 10158 ] final  144.38 input  -65.29 | X-H torsion
[ 10718 10713 10712 10709 ] final -154.68 input   66.30 | X-H torsion
[ 10763 10752 10751 10750 ] final  174.75 input  -60.55 | X-H torsion
[ 11005 11000 10999 10996 ] final   -7.43 input  -57.11 | X-H torsion

> <Gold.Protein.ActiveResidues>
 VAL166  LYS551  ARG553  GLY616  TRP617  ASP618  TYR619  PRO620  LYS621  CYS622 
 ASP623  PHE694  ASN695  SER759  ASP760  ASP761  ALA762  ILE779  LEU786  VAL792 
 PHE793  MET794  SER795  GLU796  ALA797  LYS798  CYS799  TRP800  GLU811  SER814 

> <Gold.Protein.RotatedAtoms>
  152.4053  134.6217  160.0052 H   0  0  0  0  0  0  0  0  0  0  0  0  # atno 6907 bound_to 6896
  151.6410  133.3320  159.3138 H   0  0  0  0  0  0  0  0  0  0  0  0  # atno 6908 bound_to 6896
  150.7949  134.7042  159.6612 H   0  0  0  0  0  0  0  0  0  0  0  0  # atno 6909 bound_to 6896
  146.0953  140.5850  142.8846 H   0  0  0  0  0  0  0  0  0  0  0  0  # atno 7974 bound_to 7965
  156.2749  140.2773  156.1557 H   0  0  0  0  0  0  0  0  0  0  0  0  # atno 8008 bound_to 7997
  155.0806  140.0388  157.2656 H   0  0  0  0  0  0  0  0  0  0  0  0  # atno 8009 bound_to 7997
  154.6967  140.2640  155.6765 H   0  0  0  0  0  0  0  0  0  0  0  0  # atno 8010 bound_to 7997
  139.4948  144.5976  151.6550 H   0  0  0  0  0  0  0  0  0  0  0  0  # atno 10167 bound_to 10162
  156.5026  130.8398  151.2615 H   0  0  0  0  0  0  0  0  0  0  0  0  # atno 10718 bound_to 10713
  154.4582  135.2767  155.1732 H   0  0  0  0  0  0  0  0  0  0  0  0  # atno 10763 bound_to 10752
  154.3531  135.6145  153.5656 H   0  0  0  0  0  0  0  0  0  0  0  0  # atno 10764 bound_to 10752
  152.9852  135.5816  154.4939 H   0  0  0  0  0  0  0  0  0  0  0  0  # atno 10765 bound_to 10752
  140.7127  133.8895  155.8762 H   0  0  0  0  0  0  0  0  0  0  0  0  # atno 11005 bound_to 11000
  144.7390  140.4891  143.6882 LP  0  0  0  0  0  0  0  0  0  0  0  0  # atno 17320 bound_to 7965
  145.5960  139.1499  143.3155 LP  0  0  0  0  0  0  0  0  0  0  0  0  # atno 17321 bound_to 7965
  140.5617  144.0257  150.6173 LP  0  0  0  0  0  0  0  0  0  0  0  0  # atno 17342 bound_to 10162
  140.3345  143.3057  152.0653 LP  0  0  0  0  0  0  0  0  0  0  0  0  # atno 17343 bound_to 10162
  157.7461  130.9976  150.2823 LP  0  0  0  0  0  0  0  0  0  0  0  0  # atno 17370 bound_to 10713
  156.3318  130.3801  149.7485 LP  0  0  0  0  0  0  0  0  0  0  0  0  # atno 17371 bound_to 10713
  141.0071  134.1071  157.4259 LP  0  0  0  0  0  0  0  0  0  0  0  0  # atno 17394 bound_to 11000
  139.8868  135.0084  156.6519 LP  0  0  0  0  0  0  0  0  0  0  0  0  # atno 17395 bound_to 11000

$$$$
