AV-unprocessed.smi:1230|AV-procd|sdf|5153|dock2
  -GOLD-   22720 4223D 1   1.00000     0.00000
 Structure written by MMmdl.
 38 39  0  0  0  0  0  0  0  0  2 V2000
  151.6314  144.9707  158.8086 C   0  0  0  0  0  0  0  0  0  0  0  0
  152.5022  144.1835  159.8000 C   0  0  1  0  0  0  0  0  0  0  0  0
  151.8376  144.0766  161.1872 C   0  0  0  0  0  0  0  0  0  0  0  0
  152.7360  143.3292  162.1857 C   0  0  0  0  0  0  0  0  0  0  0  0
  153.1228  141.9398  161.6571 C   0  0  0  0  0  0  0  0  0  0  0  0
  153.7835  142.0340  160.2713 C   0  0  0  0  0  0  0  0  0  0  0  0
  152.8986  142.7886  159.2622 C   0  0  1  0  0  0  0  0  0  0  0  0
  151.7323  142.0053  159.0323 O   0  0  0  0  0  0  0  0  0  0  0  0
  151.9251  140.9251  158.1334 C   0  0  0  0  0  0  0  0  0  0  0  0
  150.7803  140.9260  157.1116 C   0  0  0  0  0  0  0  0  0  0  0  0
  150.5004  139.5696  156.6240 N   0  0  0  0  0  0  0  0  0  0  0  0
  150.1153  138.6059  157.5713 C   0  0  0  0  0  0  0  0  0  0  0  0
  149.8474  137.3349  157.2166 C   0  0  0  0  0  0  0  0  0  0  0  0
  149.4588  136.3367  158.1577 C   0  0  0  0  0  0  0  0  0  0  0  0
  149.1734  135.5155  158.9226 N   0  0  0  0  0  0  0  0  0  0  0  0
  149.9652  136.9613  155.8090 C   0  0  0  0  0  0  0  0  0  0  0  0
  149.7211  135.8083  155.4556 O   0  0  0  0  0  0  0  0  0  0  0  0
  150.3518  137.9357  154.9337 N   0  5  0  0  0  0  0  0  0  0  0  0
  150.6268  139.2244  155.3074 C   0  0  0  0  0  0  0  0  0  0  0  0
  150.9862  140.0812  154.4995 O   0  0  0  0  0  0  0  0  0  0  0  0
  150.6653  144.4889  158.6555 H   0  0  0  0  0  0  0  0  0  0  0  0
  152.1197  145.0551  157.8375 H   0  0  0  0  0  0  0  0  0  0  0  0
  151.4420  145.9817  159.1699 H   0  0  0  0  0  0  0  0  0  0  0  0
  153.4245  144.7526  159.9260 H   0  0  0  0  0  0  0  0  0  0  0  0
  151.6171  145.0728  161.5720 H   0  0  0  0  0  0  0  0  0  0  0  0
  150.8797  143.5618  161.1013 H   0  0  0  0  0  0  0  0  0  0  0  0
  153.6381  143.9131  162.3731 H   0  0  0  0  0  0  0  0  0  0  0  0
  152.2257  143.2331  163.1444 H   0  0  0  0  0  0  0  0  0  0  0  0
  153.7995  141.4505  162.3581 H   0  0  0  0  0  0  0  0  0  0  0  0
  152.2336  141.3112  161.5990 H   0  0  0  0  0  0  0  0  0  0  0  0
  154.7412  142.5474  160.3644 H   0  0  0  0  0  0  0  0  0  0  0  0
  154.0069  141.0349  159.8959 H   0  0  0  0  0  0  0  0  0  0  0  0
  153.4721  142.9134  158.3412 H   0  0  0  0  0  0  0  0  0  0  0  0
  152.8856  141.0254  157.6262 H   0  0  0  0  0  0  0  0  0  0  0  0
  151.9387  139.9837  158.6849 H   0  0  0  0  0  0  0  0  0  0  0  0
  149.8857  141.3535  157.5663 H   0  0  0  0  0  0  0  0  0  0  0  0
  151.0229  141.5910  156.2809 H   0  0  0  0  0  0  0  0  0  0  0  0
  150.0585  138.9594  158.5906 H   0  0  0  0  0  0  0  0  0  0  0  0
  1  2  1  0  0  0  0
  1 21  1  0  0  0  0
  1 22  1  0  0  0  0
  1 23  1  0  0  0  0
  2  7  1  0  0  0  0
  2  3  1  0  0  0  0
  2 24  1  0  0  0  0
  3  4  1  0  0  0  0
  3 25  1  0  0  0  0
  3 26  1  0  0  0  0
  4  5  1  0  0  0  0
  4 27  1  0  0  0  0
  4 28  1  0  0  0  0
  5  6  1  0  0  0  0
  5 29  1  0  0  0  0
  5 30  1  0  0  0  0
  6  7  1  0  0  0  0
  6 31  1  0  0  0  0
  6 32  1  0  0  0  0
  7  8  1  0  0  0  0
  7 33  1  0  0  0  0
  8  9  1  0  0  0  0
  9 10  1  0  0  0  0
  9 34  1  0  0  0  0
  9 35  1  0  0  0  0
 10 11  1  0  0  0  0
 10 36  1  0  0  0  0
 10 37  1  0  0  0  0
 11 19  1  0  0  0  0
 11 12  1  0  0  0  0
 12 13  2  0  0  0  0
 12 38  1  0  0  0  0
 13 14  1  0  0  0  0
 13 16  1  0  0  0  0
 14 15  3  0  0  0  0
 16 17  2  0  0  0  0
 16 18  1  0  0  0  0
 18 19  1  0  0  0  0
 19 20  2  0  0  0  0
M  CHG  1  18  -1
M  END
> <s_m_source_file>
AV-unprocessed.smi

> <i_m_source_file_index>
1230

> <i_lp_mmshare_version>
43012

> <i_f3d_flags>
0

> <s_epik_input>
W0NIM11bQ0BASF0xW0NIMl1bQ0gyXVtDSDJdW0NIMl1bQ0BIXTFPW0NIMl1bQ0gyXW4yW2NIXWMoQyNOKWMoPU8pW25IXWMyPU8=

> <s_epik_cmdline>
J2VwaWtfcHl0aG9uJywgJy1waCcsICc3LjAnLCAnLXRuJywgJzgnLCAnLW1hJywgJzIwMCcsICctbWV0YWxfYmluZGluZycsICctaW1hZScsICc8aW5maWxlLm1hZT4nLCAnLW9tYWUnLCAnPG91dGZpbGUubWFlPic=

> <r_epik_Ionization_Penalty>
0.400014

> <r_epik_Ionization_Penalty_Charging>
4.81474e-10

> <r_epik_Ionization_Penalty_Neutral>
0.400014

> <r_epik_State_Penalty>
0.399305

> <r_epik_Charging_Adjusted_Penalty>
0.399305

> <i_epik_Tot_Q>
-1

> <i_epik_Tot_abs_Q>
1

> <r_epik_Metal_State_Penalty>
0.00056968

> <b_epik_Metal_Only>
0

> <s_lp_Force_Field>
OPLS_2005

> <r_lp_Energy>
24.4713

> <b_lp_Chiralities_Consistent>
1

> <s_lp_Variant>
AV-unprocessed.smi:1230-2

> <Gold.Version>
5.8.1

> <Gold.Id.Protein>
6NUR|6NUR_protein|mol2

> <Gold.PLP.Fitness>
44.6182

> <Gold.PLP.PLP>
-40.0111

> <Gold.PLP.part.hbond>
-2.0000

> <Gold.PLP.part.metal>
0.0000

> <Gold.PLP.part.buried>
-6.9224

> <Gold.PLP.part.nonpolar>
-31.4458

> <Gold.PLP.part.repulsive>
0.3192

> <Gold.PLP.ligand.clash>
0.0000

> <Gold.PLP.ligand.torsion>
0.6983

> <Gold.PLP.Chemscore.Hbond>
2.0000

> <Gold.PLP.Chemscore.CHOScore>
0.0000

> <Gold.PLP.Chemscore.Metal>
0.0000

> <Gold.Chemscore.Hbonds>
donor molecule, donor type, donor heavy atom, donor atom, acceptor molecule, acceptor atom, score
      P1  H  6896  6909       L1    15  1.00
      P1  H  7989  7998       L1    20  0.75

> <Gold.PLP.Chemscore.Internal.Correction>
0.0038

> <Gold.Rescore>
     Score         DG    S(hbond)    S(metal)    S(lipo)     H(rot)  DE(clash)    DE(int)     intcor
     18.13     -19.03       1.97        0.00     101.24       1.90       0.15       0.75       ----

> <Gold.Chemscore.Fitness>
18.1346

> <Gold.Chemscore.DG>
-19.0279

> <Gold.Chemscore.ZeroCoef>
-5.4800

> <Gold.Chemscore.Hbond>
1.9650

> <Gold.Chemscore.Metal>
0.0000

> <Gold.Chemscore.Lipo>
101.2357

> <Gold.Chemscore.Internal_Hbond>
0.0000

> <Gold.Chemscore.DEClash>
0.1461

> <Gold.Chemscore.DEInternal>
0.7472

> <Gold.Chemscore.Rot>
1.8984

> <Gold.Chemscore.Internal.Correction>
   9.000000E+99

> <Gold.Chemscore.Hbonds>
donor molecule, donor type, donor heavy atom, donor atom, acceptor molecule, acceptor atom, score
      P1  H  6896  6909       L1    15  0.70
      P1  H  7989  7998       L1    20  0.75

> <Gold.Chemscore.Hbond.Weighted>
-6.5631

> <Gold.Chemscore.Metal.Weighted>
-0.0000

> <Gold.Chemscore.Lipo.Weighted>
-11.8446

> <Gold.Chemscore.Internal_Hbond.Weighted>
0.0000

> <Gold.Chemscore.DEClash.Weighted>
0.1461

> <Gold.Chemscore.DEInternal.Weighted>
0.7472

> <Gold.Chemscore.Rot.Weighted>
4.8598

> <Gold.Chemscore.Internal.Correction.Weighted>
   9.000000E+99

> <Gold.Protein.RotatedTorsions>
[ 6907 6896 6895 6894 ] final   65.76 input  -60.11 | X-H torsion
[ 7974 7965 7964 7962 ] final   79.36 input  175.53 | X-H torsion
[ 8008 7997 7996 7995 ] final  -29.55 input   59.86 | X-H torsion
[ 10167 10162 10161 10158 ] final  -59.01 input  -65.29 | X-H torsion
[ 10718 10713 10712 10709 ] final   18.70 input   66.30 | X-H torsion
[ 10763 10752 10751 10750 ] final   -5.49 input  -60.55 | X-H torsion
[ 11005 11000 10999 10996 ] final  -69.27 input  -57.11 | X-H torsion

> <Gold.Protein.ActiveResidues>
 VAL166  LYS551  ARG553  GLY616  TRP617  ASP618  TYR619  PRO620  LYS621  CYS622 
 ASP623  PHE694  ASN695  SER759  ASP760  ASP761  ALA762  ILE779  LEU786  VAL792 
 PHE793  MET794  SER795  GLU796  ALA797  LYS798  CYS799  TRP800  GLU811  SER814 

> <Gold.Protein.RotatedAtoms>
  152.4431  134.5549  159.9877 H   0  0  0  0  0  0  0  0  0  0  0  0  # atno 6907 bound_to 6896
  151.5641  133.3393  159.2985 H   0  0  0  0  0  0  0  0  0  0  0  0  # atno 6908 bound_to 6896
  150.8342  134.7641  159.6942 H   0  0  0  0  0  0  0  0  0  0  0  0  # atno 6909 bound_to 6896
  145.6652  139.2482  143.1900 H   0  0  0  0  0  0  0  0  0  0  0  0  # atno 7974 bound_to 7965
  154.4285  140.1815  156.1266 H   0  0  0  0  0  0  0  0  0  0  0  0  # atno 8008 bound_to 7997
  156.0101  140.3351  155.6907 H   0  0  0  0  0  0  0  0  0  0  0  0  # atno 8009 bound_to 7997
  155.6123  140.0651  157.2693 H   0  0  0  0  0  0  0  0  0  0  0  0  # atno 8010 bound_to 7997
  140.6161  143.2403  151.5593 H   0  0  0  0  0  0  0  0  0  0  0  0  # atno 10167 bound_to 10162
  157.1001  130.6464  149.5870 H   0  0  0  0  0  0  0  0  0  0  0  0  # atno 10718 bound_to 10713
  153.3992  135.7004  153.6438 H   0  0  0  0  0  0  0  0  0  0  0  0  # atno 10763 bound_to 10752
  153.4979  135.3658  155.2525 H   0  0  0  0  0  0  0  0  0  0  0  0  # atno 10764 bound_to 10752
  154.8709  135.4104  154.3324 H   0  0  0  0  0  0  0  0  0  0  0  0  # atno 10765 bound_to 10752
  141.1550  133.6760  156.6574 H   0  0  0  0  0  0  0  0  0  0  0  0  # atno 11005 bound_to 11000
  146.1092  140.7449  142.9511 LP  0  0  0  0  0  0  0  0  0  0  0  0  # atno 17320 bound_to 7965
  144.7075  140.3911  143.7106 LP  0  0  0  0  0  0  0  0  0  0  0  0  # atno 17321 bound_to 7965
  139.5400  144.2674  152.1331 LP  0  0  0  0  0  0  0  0  0  0  0  0  # atno 17342 bound_to 10162
  140.1884  144.4776  150.6492 LP  0  0  0  0  0  0  0  0  0  0  0  0  # atno 17343 bound_to 10162
  155.9876  130.4915  150.7131 LP  0  0  0  0  0  0  0  0  0  0  0  0  # atno 17370 bound_to 10713
  157.4648  131.0887  151.0707 LP  0  0  0  0  0  0  0  0  0  0  0  0  # atno 17371 bound_to 10713
  140.3274  134.7957  157.4299 LP  0  0  0  0  0  0  0  0  0  0  0  0  # atno 17394 bound_to 11000
  140.1046  134.5427  155.8321 LP  0  0  0  0  0  0  0  0  0  0  0  0  # atno 17395 bound_to 11000

$$$$
