AV-unprocessed.smi:3279|AV-procd|sdf|12550|dock3
  -GOLD-   2272018463D 1   1.00000     0.00000
 Structure written by MMmdl.
 36 36  0  0  0  0  0  0  0  0  1 V2000
  147.3137  140.9407  153.0803 C   0  0  0  0  0  0  0  0  0  0  0  0
  147.4638  141.6305  154.4478 C   0  0  2  0  0  0  0  0  0  0  0  0
  148.8023  141.3248  155.1541 C   0  0  0  0  0  0  0  0  0  0  0  0
  149.0237  142.1630  156.3291 N   0  0  0  0  0  0  0  0  0  0  0  0
  149.9909  141.9887  157.2434 C   0  0  0  0  0  0  0  0  0  0  0  0
  150.8375  141.0978  157.1781 O   0  0  0  0  0  0  0  0  0  0  0  0
  150.0138  142.9837  158.4004 C   0  0  0  0  0  0  0  0  0  0  0  0
  151.1888  142.7491  159.1710 O   0  0  0  0  0  0  0  0  0  0  0  0
  151.8744  143.8783  159.7182 C   0  0  0  0  0  0  0  0  0  0  0  0
  151.0300  144.5360  160.8272 C   0  0  0  0  0  0  0  0  0  0  0  0
  152.2509  144.8982  158.6245 C   0  0  0  0  0  0  0  0  0  0  0  0
  153.1543  143.2868  160.3302 C   0  0  0  0  0  0  0  0  0  0  0  0
  146.3035  141.3070  155.3382 C   0  0  0  0  0  0  0  0  0  0  0  0
  146.1373  141.7053  156.5941 N   0  0  0  0  0  0  0  0  0  0  0  0
  144.9253  141.1432  156.9604 N   0  0  0  0  0  0  0  0  0  0  0  0
  144.4064  140.4538  155.9838 N   0  0  0  0  0  0  0  0  0  0  0  0
  145.2732  140.5514  154.9510 N   0  0  0  0  0  0  0  0  0  0  0  0
  145.1249  140.1088  154.0556 H   0  0  0  0  0  0  0  0  0  0  0  0
  146.3582  141.1935  152.6193 H   0  0  0  0  0  0  0  0  0  0  0  0
  147.3585  139.8556  153.1780 H   0  0  0  0  0  0  0  0  0  0  0  0
  148.0962  141.2450  152.3860 H   0  0  0  0  0  0  0  0  0  0  0  0
  147.4329  142.7060  154.2661 H   0  0  0  0  0  0  0  0  0  0  0  0
  148.8013  140.2899  155.4981 H   0  0  0  0  0  0  0  0  0  0  0  0
  149.6337  141.4073  154.4517 H   0  0  0  0  0  0  0  0  0  0  0  0
  148.3764  142.9247  156.4732 H   0  0  0  0  0  0  0  0  0  0  0  0
  150.0027  143.9967  157.9979 H   0  0  0  0  0  0  0  0  0  0  0  0
  149.1081  142.8453  158.9901 H   0  0  0  0  0  0  0  0  0  0  0  0
  151.6020  145.3035  161.3500 H   0  0  0  0  0  0  0  0  0  0  0  0
  150.7111  143.8020  161.5677 H   0  0  0  0  0  0  0  0  0  0  0  0
  150.1375  145.0208  160.4325 H   0  0  0  0  0  0  0  0  0  0  0  0
  151.3741  145.3925  158.2061 H   0  0  0  0  0  0  0  0  0  0  0  0
  152.7877  144.4186  157.8053 H   0  0  0  0  0  0  0  0  0  0  0  0
  152.8948  145.6815  159.0256 H   0  0  0  0  0  0  0  0  0  0  0  0
  153.7682  144.0592  160.7947 H   0  0  0  0  0  0  0  0  0  0  0  0
  153.7632  142.7945  159.5710 H   0  0  0  0  0  0  0  0  0  0  0  0
  152.9215  142.5453  161.0955 H   0  0  0  0  0  0  0  0  0  0  0  0
  1  2  1  0  0  0  0
  1 19  1  0  0  0  0
  1 20  1  0  0  0  0
  1 21  1  0  0  0  0
  2  3  1  0  0  0  0
  2 13  1  0  0  0  0
  2 22  1  0  0  0  0
  3  4  1  0  0  0  0
  3 23  1  0  0  0  0
  3 24  1  0  0  0  0
  4  5  1  0  0  0  0
  4 25  1  0  0  0  0
  5  6  2  0  0  0  0
  5  7  1  0  0  0  0
  7  8  1  0  0  0  0
  7 26  1  0  0  0  0
  7 27  1  0  0  0  0
  8  9  1  0  0  0  0
  9 10  1  0  0  0  0
  9 11  1  0  0  0  0
  9 12  1  0  0  0  0
 10 28  1  0  0  0  0
 10 29  1  0  0  0  0
 10 30  1  0  0  0  0
 11 31  1  0  0  0  0
 11 32  1  0  0  0  0
 11 33  1  0  0  0  0
 12 34  1  0  0  0  0
 12 35  1  0  0  0  0
 12 36  1  0  0  0  0
 13 17  1  0  0  0  0
 13 14  2  0  0  0  0
 14 15  1  0  0  0  0
 15 16  2  0  0  0  0
 16 17  1  0  0  0  0
 17 18  1  0  0  0  0
M  END
> <s_m_source_file>
AV-unprocessed.smi

> <i_m_source_file_index>
3279

> <i_lp_mmshare_version>
43012

> <i_f3d_flags>
0

> <s_epik_input>
W25IXTFubm5jMVtDQEhdKFtDSDNdKVtDSDJdW05IXUMoPU8pW0NIMl1PQyhbQ0gzXSkoW0NIM10pW0NIM10=

> <s_epik_cmdline>
J2VwaWtfcHl0aG9uJywgJy1waCcsICc3LjAnLCAnLXRuJywgJzgnLCAnLW1hJywgJzIwMCcsICctbWV0YWxfYmluZGluZycsICctaW1hZScsICc8aW5maWxlLm1hZT4nLCAnLW9tYWUnLCAnPG91dGZpbGUubWFlPic=

> <r_lp_tautomer_probability>
0.3

> <r_epik_Ionization_Penalty>
1.45055

> <r_epik_Ionization_Penalty_Charging>
0

> <r_epik_Ionization_Penalty_Neutral>
1.45055

> <r_epik_State_Penalty>
2.31845

> <r_epik_Charging_Adjusted_Penalty>
2.31845

> <i_epik_Tot_Q>
0

> <i_epik_Tot_abs_Q>
0

> <r_epik_Metal_State_Penalty>
2.36898

> <b_epik_Metal_Only>
0

> <s_lp_Force_Field>
OPLS_2005

> <r_lp_Energy>
6.97201

> <b_lp_Chiralities_Consistent>
1

> <s_lp_Variant>
AV-unprocessed.smi:3279-3

> <Gold.Version>
5.8.1

> <Gold.Id.Protein>
6NUR|6NUR_protein|mol2

> <Gold.PLP.Fitness>
37.0750

> <Gold.PLP.PLP>
-31.9629

> <Gold.PLP.part.hbond>
-2.0000

> <Gold.PLP.part.metal>
0.0000

> <Gold.PLP.part.buried>
-4.3874

> <Gold.PLP.part.nonpolar>
-26.1863

> <Gold.PLP.part.repulsive>
0.4823

> <Gold.PLP.ligand.clash>
0.0000

> <Gold.PLP.ligand.torsion>
0.5037

> <Gold.PLP.Chemscore.Hbond>
2.0000

> <Gold.PLP.Chemscore.CHOScore>
0.0000

> <Gold.PLP.Chemscore.Metal>
0.0000

> <Gold.Chemscore.Hbonds>
donor molecule, donor type, donor heavy atom, donor atom, acceptor molecule, acceptor atom, score
      L1  H     4    25       P1  8028  0.35
      L1  H    17    18       P1 10175  0.41

> <Gold.PLP.Chemscore.Internal.Correction>
0.1194

> <Gold.Rescore>
     Score         DG    S(hbond)    S(metal)    S(lipo)     H(rot)  DE(clash)    DE(int)     intcor
     12.89     -13.67       1.88        0.00      75.73       2.71       0.00       0.78       ----

> <Gold.Chemscore.Fitness>
12.8858

> <Gold.Chemscore.DG>
-13.6737

> <Gold.Chemscore.ZeroCoef>
-5.4800

> <Gold.Chemscore.Hbond>
1.8771

> <Gold.Chemscore.Metal>
0.0000

> <Gold.Chemscore.Lipo>
75.7288

> <Gold.Chemscore.Internal_Hbond>
0.0000

> <Gold.Chemscore.DEClash>
0.0038

> <Gold.Chemscore.DEInternal>
0.7841

> <Gold.Chemscore.Rot>
2.7094

> <Gold.Chemscore.Internal.Correction>
   9.000000E+99

> <Gold.Chemscore.Hbonds>
donor molecule, donor type, donor heavy atom, donor atom, acceptor molecule, acceptor atom, score
      L1  H     4    25       P1  8028  0.25
      L1  H    17    18       P1 10175  0.40

> <Gold.Chemscore.Hbond.Weighted>
-6.2694

> <Gold.Chemscore.Metal.Weighted>
-0.0000

> <Gold.Chemscore.Lipo.Weighted>
-8.8603

> <Gold.Chemscore.Internal_Hbond.Weighted>
0.0000

> <Gold.Chemscore.DEClash.Weighted>
0.0038

> <Gold.Chemscore.DEInternal.Weighted>
0.7841

> <Gold.Chemscore.Rot.Weighted>
6.9360

> <Gold.Chemscore.Internal.Correction.Weighted>
   9.000000E+99

> <Gold.Protein.RotatedTorsions>
[ 6907 6896 6895 6894 ] final   67.94 input  -60.11 | X-H torsion
[ 7974 7965 7964 7962 ] final   23.52 input  175.53 | X-H torsion
[ 8008 7997 7996 7995 ] final  127.89 input   59.86 | X-H torsion
[ 10167 10162 10161 10158 ] final -136.61 input  -65.29 | X-H torsion
[ 10718 10713 10712 10709 ] final   32.79 input   66.30 | X-H torsion
[ 10763 10752 10751 10750 ] final -109.01 input  -60.55 | X-H torsion
[ 11005 11000 10999 10996 ] final   -2.72 input  -57.11 | X-H torsion

> <Gold.Protein.ActiveResidues>
 VAL166  LYS551  ARG553  GLY616  TRP617  ASP618  TYR619  PRO620  LYS621  CYS622 
 ASP623  PHE694  ASN695  SER759  ASP760  ASP761  ALA762  ILE779  LEU786  VAL792 
 PHE793  MET794  SER795  GLU796  ALA797  LYS798  CYS799  TRP800  GLU811  SER814 

> <Gold.Protein.RotatedAtoms>
  152.4586  134.5234  159.9789 H   0  0  0  0  0  0  0  0  0  0  0  0  # atno 6907 bound_to 6896
  151.5289  133.3447  159.2922 H   0  0  0  0  0  0  0  0  0  0  0  0  # atno 6908 bound_to 6896
  150.8540  134.7904  159.7094 H   0  0  0  0  0  0  0  0  0  0  0  0  # atno 6909 bound_to 6896
  146.1980  139.7733  142.8782 H   0  0  0  0  0  0  0  0  0  0  0  0  # atno 7974 bound_to 7965
  156.2902  140.2658  156.2347 H   0  0  0  0  0  0  0  0  0  0  0  0  # atno 8008 bound_to 7997
  155.0037  140.0387  157.2389 H   0  0  0  0  0  0  0  0  0  0  0  0  # atno 8009 bound_to 7997
  154.7578  140.2755  155.6243 H   0  0  0  0  0  0  0  0  0  0  0  0  # atno 8010 bound_to 7997
  139.8660  143.7016  152.2645 H   0  0  0  0  0  0  0  0  0  0  0  0  # atno 10167 bound_to 10162
  157.2896  130.7296  149.6603 H   0  0  0  0  0  0  0  0  0  0  0  0  # atno 10718 bound_to 10713
  154.8169  135.4617  154.0667 H   0  0  0  0  0  0  0  0  0  0  0  0  # atno 10763 bound_to 10752
  153.2053  135.6874  153.8187 H   0  0  0  0  0  0  0  0  0  0  0  0  # atno 10764 bound_to 10752
  153.7657  135.3277  155.3321 H   0  0  0  0  0  0  0  0  0  0  0  0  # atno 10765 bound_to 10752
  140.6614  133.9316  155.8439 H   0  0  0  0  0  0  0  0  0  0  0  0  # atno 11005 bound_to 11000
  145.3578  141.0320  143.3302 LP  0  0  0  0  0  0  0  0  0  0  0  0  # atno 17320 bound_to 7965
  144.8622  139.5160  143.6807 LP  0  0  0  0  0  0  0  0  0  0  0  0  # atno 17321 bound_to 7965
  139.7328  144.7578  151.0775 LP  0  0  0  0  0  0  0  0  0  0  0  0  # atno 17342 bound_to 10162
  140.7768  143.5067  150.9703 LP  0  0  0  0  0  0  0  0  0  0  0  0  # atno 17343 bound_to 10162
  155.9666  130.4313  150.4913 LP  0  0  0  0  0  0  0  0  0  0  0  0  # atno 17370 bound_to 10713
  157.2873  131.0619  151.2158 LP  0  0  0  0  0  0  0  0  0  0  0  0  # atno 17371 bound_to 10713
  141.0462  134.0551  157.3841 LP  0  0  0  0  0  0  0  0  0  0  0  0  # atno 17394 bound_to 11000
  139.9011  135.0165  156.7274 LP  0  0  0  0  0  0  0  0  0  0  0  0  # atno 17395 bound_to 11000

$$$$
