AV-unprocessed.smi:2895|AV-procd|sdf|11134|dock2
  -GOLD-   2272016 03D 1   1.00000     0.00000
 Structure written by MMmdl.
 54 57  0  0  0  0  0  0  0  0  3 V2000
  144.6328  137.3961  156.5003 O   0  0  0  0  0  0  0  0  0  0  0  0
  144.1272  137.5650  155.3900 C   0  0  0  0  0  0  0  0  0  0  0  0
  143.3629  138.6349  155.1112 N   0  0  0  0  0  0  0  0  0  0  0  0
  143.0287  139.6969  156.0536 C   0  0  0  0  0  0  0  0  0  0  0  0
  141.9193  140.6123  155.5099 C   0  0  0  0  0  0  0  0  0  0  0  0
  140.5496  139.9684  155.6074 C   0  0  0  0  0  0  0  0  0  0  0  0
  139.4442  140.7103  156.0793 C   0  0  0  0  0  0  0  0  0  0  0  0
  138.1807  140.0893  156.1562 C   0  0  0  0  0  0  0  0  0  0  0  0
  138.0414  138.7989  155.7801 N   0  3  0  0  0  0  0  0  0  0  0  0
  139.0723  138.0544  155.3229 C   0  0  0  0  0  0  0  0  0  0  0  0
  140.3591  138.6226  155.2234 C   0  0  0  0  0  0  0  0  0  0  0  0
  144.3437  136.7318  154.3410 N   0  0  0  0  0  0  0  0  0  0  0  0
  143.4096  136.4779  153.2329 C   0  0  0  0  0  0  0  0  0  0  0  0
  142.8436  135.0464  153.3554 C   0  0  0  0  0  0  0  0  0  0  0  0
  143.9200  134.0118  153.4161 N   0  3  0  0  0  0  0  0  0  0  0  0
  144.5162  133.6971  152.0776 C   0  0  2  0  0  0  0  0  0  0  0  0
  143.5027  133.0045  151.1254 C   0  0  0  0  0  0  0  0  0  0  0  0
  144.2418  131.7416  150.6566 C   0  0  1  0  0  0  0  0  0  0  0  0
  145.4176  132.1350  149.7467 C   0  0  0  0  0  0  0  0  0  0  0  0
  146.4225  132.7379  150.7437 C   0  0  0  0  0  0  0  0  0  0  0  0
  145.6706  132.6527  152.0869 C   0  0  2  0  0  0  0  0  0  0  0  0
  144.9453  131.3201  151.9382 C   0  0  0  0  0  0  0  0  0  0  0  0
  144.9031  134.3495  154.4870 C   0  0  0  0  0  0  0  0  0  0  0  0
  145.4580  135.7780  154.3284 C   0  0  0  0  0  0  0  0  0  0  0  0
  143.0024  138.7284  154.1725 H   0  0  0  0  0  0  0  0  0  0  0  0
  142.7342  139.2641  157.0114 H   0  0  0  0  0  0  0  0  0  0  0  0
  143.9317  140.2787  156.2415 H   0  0  0  0  0  0  0  0  0  0  0  0
  141.9116  141.5564  156.0565 H   0  0  0  0  0  0  0  0  0  0  0  0
  142.1118  140.8645  154.4662 H   0  0  0  0  0  0  0  0  0  0  0  0
  139.5615  141.7426  156.3766 H   0  0  0  0  0  0  0  0  0  0  0  0
  137.2844  140.5823  156.5035 H   0  0  0  0  0  0  0  0  0  0  0  0
  138.8380  137.0352  155.0520 H   0  0  0  0  0  0  0  0  0  0  0  0
  141.1861  138.0323  154.8561 H   0  0  0  0  0  0  0  0  0  0  0  0
  142.5789  137.1817  153.1866 H   0  0  0  0  0  0  0  0  0  0  0  0
  143.9401  136.6003  152.2882 H   0  0  0  0  0  0  0  0  0  0  0  0
  142.2604  134.9753  154.2746 H   0  0  0  0  0  0  0  0  0  0  0  0
  142.1369  134.8581  152.5489 H   0  0  0  0  0  0  0  0  0  0  0  0
  144.8722  134.6258  151.6313 H   0  0  0  0  0  0  0  0  0  0  0  0
  142.5951  132.6974  151.6465 H   0  0  0  0  0  0  0  0  0  0  0  0
  143.2066  133.6469  150.2952 H   0  0  0  0  0  0  0  0  0  0  0  0
  143.5852  130.9871  150.2222 H   0  0  0  0  0  0  0  0  0  0  0  0
  145.8426  131.2586  149.2558 H   0  0  0  0  0  0  0  0  0  0  0  0
  145.1210  132.8436  148.9725 H   0  0  0  0  0  0  0  0  0  0  0  0
  147.3337  132.1391  150.7730 H   0  0  0  0  0  0  0  0  0  0  0  0
  146.7070  133.7588  150.4854 H   0  0  0  0  0  0  0  0  0  0  0  0
  146.3617  132.6946  152.9246 H   0  0  0  0  0  0  0  0  0  0  0  0
  144.2609  131.1053  152.7607 H   0  0  0  0  0  0  0  0  0  0  0  0
  145.6194  130.4723  151.8022 H   0  0  0  0  0  0  0  0  0  0  0  0
  144.3828  134.2823  155.4436 H   0  0  0  0  0  0  0  0  0  0  0  0
  145.7130  133.6301  154.5643 H   0  0  0  0  0  0  0  0  0  0  0  0
  146.0064  135.8754  153.3907 H   0  0  0  0  0  0  0  0  0  0  0  0
  146.1896  135.9764  155.1128 H   0  0  0  0  0  0  0  0  0  0  0  0
  143.4731  133.1546  153.7092 H   0  0  0  0  0  0  0  0  0  0  0  0
  137.1183  138.3687  155.8436 H   0  0  0  0  0  0  0  0  0  0  0  0
  1  2  2  0  0  0  0
  2  3  1  0  0  0  0
  2 12  1  0  0  0  0
  3  4  1  0  0  0  0
  3 25  1  0  0  0  0
  4  5  1  0  0  0  0
  4 26  1  0  0  0  0
  4 27  1  0  0  0  0
  5  6  1  0  0  0  0
  5 28  1  0  0  0  0
  5 29  1  0  0  0  0
  6 11  1  0  0  0  0
  6  7  2  0  0  0  0
  7  8  1  0  0  0  0
  7 30  1  0  0  0  0
  8  9  2  0  0  0  0
  8 31  1  0  0  0  0
  9 10  1  0  0  0  0
  9 54  1  0  0  0  0
 10 11  2  0  0  0  0
 10 32  1  0  0  0  0
 11 33  1  0  0  0  0
 12 24  1  0  0  0  0
 12 13  1  0  0  0  0
 13 14  1  0  0  0  0
 13 34  1  0  0  0  0
 13 35  1  0  0  0  0
 14 15  1  0  0  0  0
 14 36  1  0  0  0  0
 14 37  1  0  0  0  0
 15 16  1  0  0  0  0
 15 23  1  0  0  0  0
 15 53  1  0  0  0  0
 16 21  1  0  0  0  0
 16 17  1  0  0  0  0
 16 38  1  0  0  0  0
 17 18  1  0  0  0  0
 17 39  1  0  0  0  0
 17 40  1  0  0  0  0
 18 22  1  0  0  0  0
 18 19  1  0  0  0  0
 18 41  1  0  0  0  0
 19 20  1  0  0  0  0
 19 42  1  0  0  0  0
 19 43  1  0  0  0  0
 20 21  1  0  0  0  0
 20 44  1  0  0  0  0
 20 45  1  0  0  0  0
 21 22  1  0  0  0  0
 21 46  1  0  0  0  0
 22 47  1  0  0  0  0
 22 48  1  0  0  0  0
 23 24  1  0  0  0  0
 23 49  1  0  0  0  0
 23 50  1  0  0  0  0
 24 51  1  0  0  0  0
 24 52  1  0  0  0  0
M  CHG  1   9   1
M  CHG  1  15   1
M  END
> <s_m_source_file>
AV-unprocessed.smi

> <i_m_source_file_index>
2895

> <i_lp_mmshare_version>
43012

> <i_f3d_flags>
0

> <s_epik_input>
W0NIMl0xW0NIMl1bQ0BASF0oW0NIMl0yKVtDQEBIXShbQ0gyXVtDQEhdMTIpTihbQ0gyXVtDSDJdMylbQ0gyXVtDSDJdTjNDKD1PKVtOSF1bQ0gyXVtDSDJdYzRbY0hdW2NIXW5bY0hdW2NIXTQ=

> <s_epik_cmdline>
J2VwaWtfcHl0aG9uJywgJy1waCcsICc3LjAnLCAnLXRuJywgJzgnLCAnLW1hJywgJzIwMCcsICctbWV0YWxfYmluZGluZycsICctaW1hZScsICc8aW5maWxlLm1hZT4nLCAnLW9tYWUnLCAnPG91dGZpbGUubWFlPic=

> <r_epik_Ionization_Penalty>
1.44916

> <r_epik_Ionization_Penalty_Charging>
1.44913

> <r_epik_Ionization_Penalty_Neutral>
2.64641e-05

> <r_epik_State_Penalty>
1.53218

> <r_epik_Charging_Adjusted_Penalty>
2.98131

> <i_epik_Tot_Q>
2

> <i_epik_Tot_abs_Q>
2

> <r_epik_Metal_State_Penalty>
1.58241

> <b_epik_Metal_Only>
0

> <s_lp_Force_Field>
OPLS_2005

> <r_lp_Energy>
108.082

> <b_lp_Chiralities_Consistent>
1

> <s_lp_Variant>
AV-unprocessed.smi:2895-7

> <Gold.Version>
5.8.1

> <Gold.Id.Protein>
6NUR|6NUR_protein|mol2

> <Gold.PLP.Fitness>
41.9628

> <Gold.PLP.PLP>
-37.1793

> <Gold.PLP.part.hbond>
-2.0000

> <Gold.PLP.part.metal>
0.0000

> <Gold.PLP.part.buried>
-7.2502

> <Gold.PLP.part.nonpolar>
-28.9249

> <Gold.PLP.part.repulsive>
0.0446

> <Gold.PLP.ligand.clash>
0.0000

> <Gold.PLP.ligand.torsion>
0.6687

> <Gold.PLP.Chemscore.Hbond>
2.0000

> <Gold.PLP.Chemscore.CHOScore>
0.0000

> <Gold.PLP.Chemscore.Metal>
0.0000

> <Gold.Chemscore.Hbonds>
donor molecule, donor type, donor heavy atom, donor atom, acceptor molecule, acceptor atom, score
      L1  H    15    53       P1 10957  2.00

> <Gold.PLP.Chemscore.Internal.Correction>
0.1209

> <Gold.Rescore>
     Score         DG    S(hbond)    S(metal)    S(lipo)     H(rot)  DE(clash)    DE(int)     intcor
     16.65     -17.38       0.95        0.00     106.62       1.46       0.08       0.65       ----

> <Gold.Chemscore.Fitness>
16.6530

> <Gold.Chemscore.DG>
-17.3817

> <Gold.Chemscore.ZeroCoef>
-5.4800

> <Gold.Chemscore.Hbond>
0.9454

> <Gold.Chemscore.Metal>
0.0000

> <Gold.Chemscore.Lipo>
106.6211

> <Gold.Chemscore.Internal_Hbond>
0.0000

> <Gold.Chemscore.DEClash>
0.0755

> <Gold.Chemscore.DEInternal>
0.6532

> <Gold.Chemscore.Rot>
1.4572

> <Gold.Chemscore.Internal.Correction>
   9.000000E+99

> <Gold.Chemscore.Hbonds>
donor molecule, donor type, donor heavy atom, donor atom, acceptor molecule, acceptor atom, score
      L1  H     3    25       P1 10175  0.01
      L1  H    15    53       P1 10957  0.98

> <Gold.Chemscore.Hbond.Weighted>
-3.1575

> <Gold.Chemscore.Metal.Weighted>
-0.0000

> <Gold.Chemscore.Lipo.Weighted>
-12.4747

> <Gold.Chemscore.Internal_Hbond.Weighted>
0.0000

> <Gold.Chemscore.DEClash.Weighted>
0.0755

> <Gold.Chemscore.DEInternal.Weighted>
0.6532

> <Gold.Chemscore.Rot.Weighted>
3.7305

> <Gold.Chemscore.Internal.Correction.Weighted>
   9.000000E+99

> <Gold.Protein.RotatedTorsions>
[ 6907 6896 6895 6894 ] final   38.58 input  -60.11 | X-H torsion
[ 7974 7965 7964 7962 ] final -135.36 input  175.53 | X-H torsion
[ 8008 7997 7996 7995 ] final  -10.41 input   59.86 | X-H torsion
[ 10167 10162 10161 10158 ] final  -65.23 input  -65.29 | X-H torsion
[ 10718 10713 10712 10709 ] final  -92.90 input   66.30 | X-H torsion
[ 10763 10752 10751 10750 ] final  -45.64 input  -60.55 | X-H torsion
[ 11005 11000 10999 10996 ] final -140.65 input  -57.11 | X-H torsion

> <Gold.Protein.ActiveResidues>
 VAL166  LYS551  ARG553  GLY616  TRP617  ASP618  TYR619  PRO620  LYS621  CYS622 
 ASP623  PHE694  ASN695  SER759  ASP760  ASP761  ALA762  ILE779  LEU786  VAL792 
 PHE793  MET794  SER795  GLU796  ALA797  LYS798  CYS799  TRP800  GLU811  SER814 

> <Gold.Protein.RotatedAtoms>
  152.1584  134.8932  160.0543 H   0  0  0  0  0  0  0  0  0  0  0  0  # atno 6907 bound_to 6896
  151.9938  133.3795  159.4163 H   0  0  0  0  0  0  0  0  0  0  0  0  # atno 6908 bound_to 6896
  150.6884  134.3831  159.5086 H   0  0  0  0  0  0  0  0  0  0  0  0  # atno 6909 bound_to 6896
  144.9021  140.6784  143.5079 H   0  0  0  0  0  0  0  0  0  0  0  0  # atno 7974 bound_to 7965
  154.5557  140.2329  155.8414 H   0  0  0  0  0  0  0  0  0  0  0  0  # atno 8008 bound_to 7997
  156.1986  140.3058  155.9439 H   0  0  0  0  0  0  0  0  0  0  0  0  # atno 8009 bound_to 7997
  155.2985  140.0430  157.3018 H   0  0  0  0  0  0  0  0  0  0  0  0  # atno 8010 bound_to 7997
  140.5744  143.2320  151.6472 H   0  0  0  0  0  0  0  0  0  0  0  0  # atno 10167 bound_to 10162
  156.0007  130.5005  150.5696 H   0  0  0  0  0  0  0  0  0  0  0  0  # atno 10718 bound_to 10713
  154.0319  135.6655  153.4781 H   0  0  0  0  0  0  0  0  0  0  0  0  # atno 10763 bound_to 10752
  153.0537  135.5069  154.7925 H   0  0  0  0  0  0  0  0  0  0  0  0  # atno 10764 bound_to 10752
  154.6873  135.3055  154.9495 H   0  0  0  0  0  0  0  0  0  0  0  0  # atno 10765 bound_to 10752
  140.8401  134.2412  157.4814 H   0  0  0  0  0  0  0  0  0  0  0  0  # atno 11005 bound_to 11000
  145.3599  139.1684  143.4389 LP  0  0  0  0  0  0  0  0  0  0  0  0  # atno 17320 bound_to 7965
  146.3114  140.3660  142.8669 LP  0  0  0  0  0  0  0  0  0  0  0  0  # atno 17321 bound_to 7965
  139.5135  144.3442  152.0712 LP  0  0  0  0  0  0  0  0  0  0  0  0  # atno 17342 bound_to 10162
  140.2583  144.4094  150.6195 LP  0  0  0  0  0  0  0  0  0  0  0  0  # atno 17343 bound_to 10162
  157.3593  131.0747  151.1650 LP  0  0  0  0  0  0  0  0  0  0  0  0  # atno 17370 bound_to 10713
  157.2440  130.6583  149.5902 LP  0  0  0  0  0  0  0  0  0  0  0  0  # atno 17371 bound_to 10713
  139.8703  134.9631  156.4451 LP  0  0  0  0  0  0  0  0  0  0  0  0  # atno 17394 bound_to 11000
  140.8904  133.7852  155.9565 LP  0  0  0  0  0  0  0  0  0  0  0  0  # atno 17395 bound_to 11000

$$$$
