AV-unprocessed.smi:1254|AV-procd|sdf|5270|dock1
  -GOLD-   22720 4383D 1   1.00000     0.00000
 Structure written by MMmdl.
 46 47  0  0  0  0  0  0  0  0  2 V2000
  142.0284  129.8209  161.0604 C   0  0  0  0  0  0  0  0  0  0  0  0
  142.5003  130.8744  160.1180 C   0  0  0  0  0  0  0  0  0  0  0  0
  142.3827  131.0342  158.7657 C   0  0  0  0  0  0  0  0  0  0  0  0
  143.0686  132.2547  158.5270 C   0  0  0  0  0  0  0  0  0  0  0  0
  143.1822  132.7820  157.2152 N   0  0  0  0  0  0  0  0  0  0  0  0
  143.7452  133.9456  156.8476 C   0  0  0  0  0  0  0  0  0  0  0  0
  144.2358  134.7711  157.6181 O   0  0  0  0  0  0  0  0  0  0  0  0
  143.7155  134.1033  155.5163 N   0  0  0  0  0  0  0  0  0  0  0  0
  144.2679  135.2457  154.7947 C   0  0  0  0  0  0  0  0  0  0  0  0
  144.5859  134.8954  153.3298 C   0  0  1  0  0  0  0  0  0  0  0  0
  143.3116  134.5308  152.5390 C   0  0  0  0  0  0  0  0  0  0  0  0
  143.6193  134.2528  151.1142 N   0  3  2  0  0  0  0  0  0  0  0  0
  144.2235  132.9123  150.8841 C   0  0  0  0  0  0  0  0  0  0  0  0
  145.6587  132.9888  150.3201 C   0  0  0  0  0  0  0  0  0  0  0  0
  145.9441  131.8538  149.3224 C   0  0  0  0  0  0  0  0  0  0  0  0
  146.6887  132.9707  151.4592 C   0  0  0  0  0  0  0  0  0  0  0  0
  144.3716  135.3852  150.5156 C   0  0  0  0  0  0  0  0  0  0  0  0
  145.5955  135.7653  151.3703 C   0  0  0  0  0  0  0  0  0  0  0  0
  145.1842  136.0270  152.7053 O   0  0  0  0  0  0  0  0  0  0  0  0
  143.5584  132.7925  159.6335 N   0  0  0  0  0  0  0  0  0  0  0  0
  143.1964  131.9108  160.6588 O   0  0  0  0  0  0  0  0  0  0  0  0
  141.4642  129.0509  160.5335 H   0  0  0  0  0  0  0  0  0  0  0  0
  141.3826  130.2489  161.8272 H   0  0  0  0  0  0  0  0  0  0  0  0
  142.8721  129.3415  161.5570 H   0  0  0  0  0  0  0  0  0  0  0  0
  141.8877  130.3800  158.0634 H   0  0  0  0  0  0  0  0  0  0  0  0
  142.8121  132.2020  156.4769 H   0  0  0  0  0  0  0  0  0  0  0  0
  143.2877  133.3773  154.9603 H   0  0  0  0  0  0  0  0  0  0  0  0
  143.5220  136.0400  154.8272 H   0  0  0  0  0  0  0  0  0  0  0  0
  145.1532  135.6354  155.3007 H   0  0  0  0  0  0  0  0  0  0  0  0
  145.2841  134.0567  153.3145 H   0  0  0  0  0  0  0  0  0  0  0  0
  142.8011  133.6794  152.9907 H   0  0  0  0  0  0  0  0  0  0  0  0
  142.6078  135.3633  152.5797 H   0  0  0  0  0  0  0  0  0  0  0  0
  144.2087  132.3346  151.8083 H   0  0  0  0  0  0  0  0  0  0  0  0
  143.6110  132.3545  150.1742 H   0  0  0  0  0  0  0  0  0  0  0  0
  145.7875  133.9352  149.7956 H   0  0  0  0  0  0  0  0  0  0  0  0
  145.8427  130.8756  149.7940 H   0  0  0  0  0  0  0  0  0  0  0  0
  146.9574  131.9271  148.9262 H   0  0  0  0  0  0  0  0  0  0  0  0
  145.2623  131.8860  148.4724 H   0  0  0  0  0  0  0  0  0  0  0  0
  146.6286  132.0471  152.0359 H   0  0  0  0  0  0  0  0  0  0  0  0
  146.5309  133.8027  152.1464 H   0  0  0  0  0  0  0  0  0  0  0  0
  147.7047  133.0551  151.0720 H   0  0  0  0  0  0  0  0  0  0  0  0
  144.6726  135.1666  149.4920 H   0  0  0  0  0  0  0  0  0  0  0  0
  143.7002  136.2426  150.4566 H   0  0  0  0  0  0  0  0  0  0  0  0
  146.3546  134.9827  151.3565 H   0  0  0  0  0  0  0  0  0  0  0  0
  146.0652  136.6632  150.9684 H   0  0  0  0  0  0  0  0  0  0  0  0
  142.7263  134.2185  150.6431 H   0  0  0  0  0  0  0  0  0  0  0  0
  1  2  1  0  0  0  0
  1 22  1  0  0  0  0
  1 23  1  0  0  0  0
  1 24  1  0  0  0  0
  2 21  1  0  0  0  0
  2  3  2  0  0  0  0
  3  4  1  0  0  0  0
  3 25  1  0  0  0  0
  4  5  1  0  0  0  0
  4 20  2  0  0  0  0
  5  6  1  0  0  0  0
  5 26  1  0  0  0  0
  6  7  2  0  0  0  0
  6  8  1  0  0  0  0
  8  9  1  0  0  0  0
  8 27  1  0  0  0  0
  9 10  1  0  0  0  0
  9 28  1  0  0  0  0
  9 29  1  0  0  0  0
 10 19  1  0  0  0  0
 10 11  1  0  0  0  0
 10 30  1  0  0  0  0
 11 12  1  0  0  0  0
 11 31  1  0  0  0  0
 11 32  1  0  0  0  0
 12 13  1  0  0  0  0
 12 17  1  0  0  0  0
 12 46  1  0  0  0  0
 13 14  1  0  0  0  0
 13 33  1  0  0  0  0
 13 34  1  0  0  0  0
 14 15  1  0  0  0  0
 14 16  1  0  0  0  0
 14 35  1  0  0  0  0
 15 36  1  0  0  0  0
 15 37  1  0  0  0  0
 15 38  1  0  0  0  0
 16 39  1  0  0  0  0
 16 40  1  0  0  0  0
 16 41  1  0  0  0  0
 17 18  1  0  0  0  0
 17 42  1  0  0  0  0
 17 43  1  0  0  0  0
 18 19  1  0  0  0  0
 18 44  1  0  0  0  0
 18 45  1  0  0  0  0
 20 21  1  0  0  0  0
M  CHG  1  12   1
M  END
> <s_m_source_file>
AV-unprocessed.smi

> <i_m_source_file_index>
1254

> <i_lp_mmshare_version>
43012

> <i_f3d_flags>
0

> <s_epik_input>
W0NIM11jMVtjSF1jKG5vMSlbTkhdQyg9TylbTkhdW0NIMl1bQ0BASF0yW0NIMl1OKFtDSDJdW0NIMl1PMilbQ0gyXVtDSF0oW0NIM10pW0NIM10=

> <s_epik_cmdline>
J2VwaWtfcHl0aG9uJywgJy1waCcsICc3LjAnLCAnLXRuJywgJzgnLCAnLW1hJywgJzIwMCcsICctbWV0YWxfYmluZGluZycsICctaW1hZScsICc8aW5maWxlLm1hZT4nLCAnLW9tYWUnLCAnPG91dGZpbGUubWFlPic=

> <r_epik_Ionization_Penalty>
0.0986825

> <r_epik_Ionization_Penalty_Charging>
0.0986478

> <r_epik_Ionization_Penalty_Neutral>
3.46838e-05

> <r_epik_State_Penalty>
0.0887259

> <r_epik_Charging_Adjusted_Penalty>
0.187374

> <i_epik_Tot_Q>
1

> <i_epik_Tot_abs_Q>
1

> <r_epik_Metal_State_Penalty>
0.103424

> <b_epik_Metal_Only>
0

> <s_lp_Force_Field>
OPLS_2005

> <r_lp_Energy>
18.2179

> <b_lp_Chiralities_Consistent>
1

> <s_lp_Variant>
AV-unprocessed.smi:1254-2

> <Gold.Version>
5.8.1

> <Gold.Id.Protein>
6NUR|6NUR_protein|mol2

> <Gold.PLP.Fitness>
41.9256

> <Gold.PLP.PLP>
-34.2668

> <Gold.PLP.part.hbond>
-3.6843

> <Gold.PLP.part.metal>
0.0000

> <Gold.PLP.part.buried>
-5.0773

> <Gold.PLP.part.nonpolar>
-26.1016

> <Gold.PLP.part.repulsive>
0.2251

> <Gold.PLP.ligand.clash>
1.8510

> <Gold.PLP.ligand.torsion>
1.3314

> <Gold.PLP.Chemscore.Hbond>
3.9920

> <Gold.PLP.Chemscore.CHOScore>
0.0000

> <Gold.PLP.Chemscore.Metal>
0.0000

> <Gold.Chemscore.Hbonds>
donor molecule, donor type, donor heavy atom, donor atom, acceptor molecule, acceptor atom, score
      L1  H     5    26       P1 10957  1.00
      L1  H     8    27       P1 10957  1.00
      L1  H    12    46       P1 10186  1.95

> <Gold.PLP.Chemscore.Internal.Correction>
0.1966

> <Gold.Rescore>
     Score         DG    S(hbond)    S(metal)    S(lipo)     H(rot)  DE(clash)    DE(int)     intcor
     15.86     -19.76       2.81        0.00      79.60       1.73       0.09       3.81       ----

> <Gold.Chemscore.Fitness>
15.8615

> <Gold.Chemscore.DG>
-19.7562

> <Gold.Chemscore.ZeroCoef>
-5.4800

> <Gold.Chemscore.Hbond>
2.8111

> <Gold.Chemscore.Metal>
0.0000

> <Gold.Chemscore.Lipo>
79.6030

> <Gold.Chemscore.Internal_Hbond>
0.0000

> <Gold.Chemscore.DEClash>
0.0885

> <Gold.Chemscore.DEInternal>
3.8063

> <Gold.Chemscore.Rot>
1.7291

> <Gold.Chemscore.Internal.Correction>
   9.000000E+99

> <Gold.Chemscore.Hbonds>
donor molecule, donor type, donor heavy atom, donor atom, acceptor molecule, acceptor atom, score
      L1  H     5    26       P1 10957  0.97
      L1  H     8    27       P1 10957  0.94
      L1  H    12    46       P1 10186  0.55

> <Gold.Chemscore.Hbond.Weighted>
-9.3892

> <Gold.Chemscore.Metal.Weighted>
-0.0000

> <Gold.Chemscore.Lipo.Weighted>
-9.3135

> <Gold.Chemscore.Internal_Hbond.Weighted>
0.0000

> <Gold.Chemscore.DEClash.Weighted>
0.0885

> <Gold.Chemscore.DEInternal.Weighted>
3.8063

> <Gold.Chemscore.Rot.Weighted>
4.4265

> <Gold.Chemscore.Internal.Correction.Weighted>
   9.000000E+99

> <Gold.Protein.RotatedTorsions>
[ 6907 6896 6895 6894 ] final    6.14 input  -60.11 | X-H torsion
[ 7974 7965 7964 7962 ] final  -70.09 input  175.53 | X-H torsion
[ 8008 7997 7996 7995 ] final  118.05 input   59.86 | X-H torsion
[ 10167 10162 10161 10158 ] final -169.03 input  -65.29 | X-H torsion
[ 10718 10713 10712 10709 ] final   93.87 input   66.30 | X-H torsion
[ 10763 10752 10751 10750 ] final  -23.12 input  -60.55 | X-H torsion
[ 11005 11000 10999 10996 ] final  -97.92 input  -57.11 | X-H torsion

> <Gold.Protein.ActiveResidues>
 VAL166  LYS551  ARG553  GLY616  TRP617  ASP618  TYR619  PRO620  LYS621  CYS622 
 ASP623  PHE694  ASN695  SER759  ASP760  ASP761  ALA762  ILE779  LEU786  VAL792 
 PHE793  MET794  SER795  GLU796  ALA797  LYS798  CYS799  TRP800  GLU811  SER814 

> <Gold.Protein.RotatedAtoms>
  151.6688  135.0979  160.0193 H   0  0  0  0  0  0  0  0  0  0  0  0  # atno 6907 bound_to 6896
  152.3904  133.6666  159.6241 H   0  0  0  0  0  0  0  0  0  0  0  0  # atno 6908 bound_to 6896
  150.7820  133.8881  159.3346 H   0  0  0  0  0  0  0  0  0  0  0  0  # atno 6909 bound_to 6896
  145.6954  140.9137  143.0759 H   0  0  0  0  0  0  0  0  0  0  0  0  # atno 7974 bound_to 7965
  156.2526  140.2883  156.0773 H   0  0  0  0  0  0  0  0  0  0  0  0  # atno 8008 bound_to 7997
  155.1605  140.0399  157.2858 H   0  0  0  0  0  0  0  0  0  0  0  0  # atno 8009 bound_to 7997
  154.6396  140.2519  155.7344 H   0  0  0  0  0  0  0  0  0  0  0  0  # atno 8010 bound_to 7997
  139.5948  144.1135  152.1677 H   0  0  0  0  0  0  0  0  0  0  0  0  # atno 10167 bound_to 10162
  157.6952  131.0493  150.4099 H   0  0  0  0  0  0  0  0  0  0  0  0  # atno 10718 bound_to 10713
  153.6628  135.6975  153.5172 H   0  0  0  0  0  0  0  0  0  0  0  0  # atno 10763 bound_to 10752
  153.2618  135.4242  155.0901 H   0  0  0  0  0  0  0  0  0  0  0  0  # atno 10764 bound_to 10752
  154.8447  135.3557  154.6173 H   0  0  0  0  0  0  0  0  0  0  0  0  # atno 10765 bound_to 10752
  141.1363  133.8206  157.0770 H   0  0  0  0  0  0  0  0  0  0  0  0  # atno 11005 bound_to 11000
  144.6984  139.8877  143.7451 LP  0  0  0  0  0  0  0  0  0  0  0  0  # atno 17320 bound_to 7965
  146.0845  139.3833  143.0444 LP  0  0  0  0  0  0  0  0  0  0  0  0  # atno 17321 bound_to 7965
  140.0718  144.5773  150.7186 LP  0  0  0  0  0  0  0  0  0  0  0  0  # atno 17342 bound_to 10162
  140.7203  143.2582  151.4300 LP  0  0  0  0  0  0  0  0  0  0  0  0  # atno 17343 bound_to 10162
  156.4484  130.4006  149.6651 LP  0  0  0  0  0  0  0  0  0  0  0  0  # atno 17370 bound_to 10713
  156.3809  130.7579  151.2571 LP  0  0  0  0  0  0  0  0  0  0  0  0  # atno 17371 bound_to 10713
  140.0475  134.9822  157.1076 LP  0  0  0  0  0  0  0  0  0  0  0  0  # atno 17394 bound_to 11000
  140.4040  134.2052  155.7163 LP  0  0  0  0  0  0  0  0  0  0  0  0  # atno 17395 bound_to 11000

$$$$
