AV-unprocessed.smi:47|AV-procd|sdf|439|dock6
  -GOLD-   2262016313D 1   1.00000     0.00000
 Structure written by MMmdl.
 32 34  0  0  0  0  0  0  0  0  2 V2000
  145.3241  141.8379  153.6786 O   0  0  0  0  0  0  0  0  0  0  0  0
  146.3302  141.0816  154.3196 C   0  0  1  0  0  0  0  0  0  0  0  0
  147.1076  140.2276  153.3076 C   0  0  0  0  0  0  0  0  0  0  0  0
  148.5044  140.2563  153.7649 N   0  3  0  0  0  0  0  0  0  0  0  0
  148.7159  141.5891  154.3537 C   0  0  2  0  0  0  0  0  0  0  0  0
  149.8566  141.4289  155.3138 C   0  0  0  0  0  0  0  0  0  0  0  0
  150.7798  140.4647  155.2762 N   0  0  0  0  0  0  0  0  0  0  0  0
  151.6094  140.7121  156.3536 N   0  0  0  0  0  0  0  0  0  0  0  0
  151.1258  141.8032  156.9650 C   0  0  0  0  0  0  0  0  0  0  0  0
  151.7158  142.4037  158.1636 C   0  0  0  0  0  0  0  0  0  0  0  0
  151.5806  143.7895  158.4123 C   0  0  0  0  0  0  0  0  0  0  0  0
  152.1443  144.3661  159.5672 C   0  0  0  0  0  0  0  0  0  0  0  0
  152.8459  143.5638  160.4862 C   0  0  0  0  0  0  0  0  0  0  0  0
  152.9844  142.1836  160.2489 C   0  0  0  0  0  0  0  0  0  0  0  0
  152.4227  141.6061  159.0936 C   0  0  0  0  0  0  0  0  0  0  0  0
  150.0320  142.2733  156.3392 N   0  0  0  0  0  0  0  0  0  0  0  0
  147.3776  141.9858  154.9909 C   0  0  0  0  0  0  0  0  0  0  0  0
  145.8677  140.4385  155.0696 H   0  0  0  0  0  0  0  0  0  0  0  0
  148.9806  142.2853  153.5563 H   0  0  0  0  0  0  0  0  0  0  0  0
  149.4712  143.0744  156.5915 H   0  0  0  0  0  0  0  0  0  0  0  0
  144.5870  141.2730  153.5003 H   0  0  0  0  0  0  0  0  0  0  0  0
  146.7261  139.2090  153.2307 H   0  0  0  0  0  0  0  0  0  0  0  0
  147.0725  140.6764  152.3135 H   0  0  0  0  0  0  0  0  0  0  0  0
  148.6165  139.5695  154.4973 H   0  0  0  0  0  0  0  0  0  0  0  0
  151.0472  144.4251  157.7211 H   0  0  0  0  0  0  0  0  0  0  0  0
  152.0377  145.4254  159.7490 H   0  0  0  0  0  0  0  0  0  0  0  0
  153.2767  144.0062  161.3724 H   0  0  0  0  0  0  0  0  0  0  0  0
  153.5213  141.5661  160.9540 H   0  0  0  0  0  0  0  0  0  0  0  0
  152.5393  140.5445  158.9326 H   0  0  0  0  0  0  0  0  0  0  0  0
  147.1789  143.0512  154.8667 H   0  0  0  0  0  0  0  0  0  0  0  0
  147.3834  141.7836  156.0631 H   0  0  0  0  0  0  0  0  0  0  0  0
  149.1544  140.0687  153.0148 H   0  0  0  0  0  0  0  0  0  0  0  0
  1  2  1  0  0  0  0
  1 21  1  0  0  0  0
  2 18  1  0  0  0  0
  2 17  1  0  0  0  0
  2  3  1  0  0  0  0
  3  4  1  0  0  0  0
  3 22  1  0  0  0  0
  3 23  1  0  0  0  0
  4  5  1  0  0  0  0
  4 24  1  0  0  0  0
  4 32  1  0  0  0  0
  5 19  1  0  0  0  0
  5 17  1  0  0  0  0
  5  6  1  0  0  0  0
  6  7  2  0  0  0  0
  6 16  1  0  0  0  0
  7  8  1  0  0  0  0
  8  9  2  0  0  0  0
  9 16  1  0  0  0  0
  9 10  1  0  0  0  0
 10 15  1  0  0  0  0
 10 11  2  0  0  0  0
 11 12  1  0  0  0  0
 11 25  1  0  0  0  0
 12 13  2  0  0  0  0
 12 26  1  0  0  0  0
 13 14  1  0  0  0  0
 13 27  1  0  0  0  0
 14 15  2  0  0  0  0
 14 28  1  0  0  0  0
 15 29  1  0  0  0  0
 16 20  1  0  0  0  0
 17 30  1  0  0  0  0
 17 31  1  0  0  0  0
M  CHG  1   4   1
M  END
> <s_m_source_file>
AV-unprocessed.smi

> <i_m_source_file_index>
47

> <i_lp_mmshare_version>
43012

> <i_f3d_flags>
0

> <s_epik_input>
W09IXVtDQEhdMVtDSDJdW05IXVtDQEBIXShbQ0gyXTEpYzJuW25IXWMobjIpLWMzW2NIXVtjSF1bY0hdW2NIXVtjSF0z

> <s_epik_cmdline>
J2VwaWtfcHl0aG9uJywgJy1waCcsICc3LjAnLCAnLXRuJywgJzgnLCAnLW1hJywgJzIwMCcsICctbWV0YWxfYmluZGluZycsICctaW1hZScsICc8aW5maWxlLm1hZT4nLCAnLW9tYWUnLCAnPG91dGZpbGUubWFlPic=

> <r_lp_tautomer_probability>
0.0517155

> <r_epik_Ionization_Penalty>
2.45729

> <r_epik_Ionization_Penalty_Charging>
0.0688988

> <r_epik_Ionization_Penalty_Neutral>
2.3884

> <r_epik_State_Penalty>
2.69236

> <r_epik_Charging_Adjusted_Penalty>
2.76126

> <i_epik_Tot_Q>
1

> <i_epik_Tot_abs_Q>
1

> <r_epik_Metal_State_Penalty>
3.18974

> <b_epik_Metal_Only>
0

> <s_lp_Force_Field>
OPLS_2005

> <r_lp_Energy>
30.5648

> <b_lp_Chiralities_Consistent>
1

> <s_lp_Variant>
AV-unprocessed.smi:47-17

> <Gold.Version>
5.8.1

> <Gold.Id.Protein>
6NUR|6NUR_protein|mol2

> <Gold.PLP.Fitness>
44.3390

> <Gold.PLP.PLP>
-35.2407

> <Gold.PLP.part.hbond>
-4.3449

> <Gold.PLP.part.metal>
0.0000

> <Gold.PLP.part.buried>
-0.2602

> <Gold.PLP.part.nonpolar>
-30.8700

> <Gold.PLP.part.repulsive>
0.2549

> <Gold.PLP.ligand.clash>
0.0000

> <Gold.PLP.ligand.torsion>
0.9386

> <Gold.PLP.Chemscore.Hbond>
3.6540

> <Gold.PLP.Chemscore.CHOScore>
0.0000

> <Gold.PLP.Chemscore.Metal>
0.0000

> <Gold.Chemscore.Hbonds>
donor molecule, donor type, donor heavy atom, donor atom, acceptor molecule, acceptor atom, score
      L1  H     1    21       P1 10175  0.95
      L1  H     4    32       P1  7957  1.00
      L1  H    16    20       P1  8028  0.70
      P1  H  7989  7998       L1     7  1.00

> <Gold.PLP.Chemscore.Internal.Correction>
0.0136

> <Gold.Rescore>
     Score         DG    S(hbond)    S(metal)    S(lipo)     H(rot)  DE(clash)    DE(int)     intcor
     18.64     -20.69       2.46        0.00      92.39       1.50       1.22       0.83       ----

> <Gold.Chemscore.Fitness>
18.6421

> <Gold.Chemscore.DG>
-20.6879

> <Gold.Chemscore.ZeroCoef>
-5.4800

> <Gold.Chemscore.Hbond>
2.4637

> <Gold.Chemscore.Metal>
0.0000

> <Gold.Chemscore.Lipo>
92.3949

> <Gold.Chemscore.Internal_Hbond>
0.0000

> <Gold.Chemscore.DEClash>
1.2187

> <Gold.Chemscore.DEInternal>
0.8271

> <Gold.Chemscore.Rot>
1.4966

> <Gold.Chemscore.Internal.Correction>
   9.000000E+99

> <Gold.Chemscore.Hbonds>
donor molecule, donor type, donor heavy atom, donor atom, acceptor molecule, acceptor atom, score
      L1  H     1    21       P1 10175  0.20
      L1  H     4    32       P1  7957  0.95
      L1  H    16    20       P1  8028  0.68
      P1  H  7989  7998       L1     7  0.20

> <Gold.Chemscore.Hbond.Weighted>
-8.2289

> <Gold.Chemscore.Metal.Weighted>
-0.0000

> <Gold.Chemscore.Lipo.Weighted>
-10.8102

> <Gold.Chemscore.Internal_Hbond.Weighted>
0.0000

> <Gold.Chemscore.DEClash.Weighted>
1.2187

> <Gold.Chemscore.DEInternal.Weighted>
0.8271

> <Gold.Chemscore.Rot.Weighted>
3.8312

> <Gold.Chemscore.Internal.Correction.Weighted>
   9.000000E+99

> <Gold.Protein.RotatedTorsions>
[ 6907 6896 6895 6894 ] final  111.19 input  -60.11 | X-H torsion
[ 7974 7965 7964 7962 ] final   65.58 input  175.53 | X-H torsion
[ 8008 7997 7996 7995 ] final -165.06 input   59.86 | X-H torsion
[ 10167 10162 10161 10158 ] final   38.98 input  -65.29 | X-H torsion
[ 10718 10713 10712 10709 ] final   35.08 input   66.30 | X-H torsion
[ 10763 10752 10751 10750 ] final   49.41 input  -60.55 | X-H torsion
[ 11005 11000 10999 10996 ] final   15.32 input  -57.11 | X-H torsion

> <Gold.Protein.ActiveResidues>
 VAL166  LYS551  ARG553  GLY616  TRP617  ASP618  TYR619  PRO620  LYS621  CYS622 
 ASP623  PHE694  ASN695  SER759  ASP760  ASP761  ALA762  ILE779  LEU786  VAL792 
 PHE793  MET794  SER795  GLU796  ALA797  LYS798  CYS799  TRP800  GLU811  SER814 

> <Gold.Protein.RotatedAtoms>
  152.4982  133.8692  159.7289 H   0  0  0  0  0  0  0  0  0  0  0  0  # atno 6907 bound_to 6896
  150.9183  133.6902  159.2845 H   0  0  0  0  0  0  0  0  0  0  0  0  # atno 6908 bound_to 6896
  151.4288  135.1011  159.9688 H   0  0  0  0  0  0  0  0  0  0  0  0  # atno 6909 bound_to 6896
  145.8367  139.3171  143.0955 H   0  0  0  0  0  0  0  0  0  0  0  0  # atno 7974 bound_to 7965
  155.8444  140.0953  157.1714 H   0  0  0  0  0  0  0  0  0  0  0  0  # atno 8008 bound_to 7997
  154.3983  140.1395  156.3830 H   0  0  0  0  0  0  0  0  0  0  0  0  # atno 8009 bound_to 7997
  155.8029  140.3452  155.5415 H   0  0  0  0  0  0  0  0  0  0  0  0  # atno 8010 bound_to 7997
  140.3884  144.1886  150.6130 H   0  0  0  0  0  0  0  0  0  0  0  0  # atno 10167 bound_to 10162
  157.3183  130.7435  149.6769 H   0  0  0  0  0  0  0  0  0  0  0  0  # atno 10718 bound_to 10713
  152.9787  135.5912  154.4085 H   0  0  0  0  0  0  0  0  0  0  0  0  # atno 10763 bound_to 10752
  154.3723  135.2767  155.2261 H   0  0  0  0  0  0  0  0  0  0  0  0  # atno 10764 bound_to 10752
  154.4211  135.6059  153.6065 H   0  0  0  0  0  0  0  0  0  0  0  0  # atno 10765 bound_to 10752
  140.4597  134.1140  155.7714 H   0  0  0  0  0  0  0  0  0  0  0  0  # atno 11005 bound_to 11000
  145.9510  140.8908  143.0259 LP  0  0  0  0  0  0  0  0  0  0  0  0  # atno 17320 bound_to 7965
  144.6736  140.1680  143.7417 LP  0  0  0  0  0  0  0  0  0  0  0  0  # atno 17321 bound_to 7965
  140.4866  143.2361  151.8880 LP  0  0  0  0  0  0  0  0  0  0  0  0  # atno 17342 bound_to 10162
  139.4790  144.5212  151.8798 LP  0  0  0  0  0  0  0  0  0  0  0  0  # atno 17343 bound_to 10162
  155.9683  130.4230  150.4545 LP  0  0  0  0  0  0  0  0  0  0  0  0  # atno 17370 bound_to 10713
  157.2556  131.0556  151.2352 LP  0  0  0  0  0  0  0  0  0  0  0  0  # atno 17371 bound_to 10713
  141.1627  133.8762  157.1803 LP  0  0  0  0  0  0  0  0  0  0  0  0  # atno 17394 bound_to 11000
  139.9953  135.0049  157.0069 LP  0  0  0  0  0  0  0  0  0  0  0  0  # atno 17395 bound_to 11000

$$$$
