AV-unprocessed.smi:1244|AV-procd|sdf|5228|dock5
  -GOLD-   22720 4333D 1   1.00000     0.00000
 Structure written by MMmdl.
 55 57  0  0  0  0  0  0  0  0  2 V2000
  147.3888  141.9704  154.1187 C   0  0  0  0  0  0  0  0  0  0  0  0
  148.7932  141.5832  154.5933 C   0  0  2  0  0  0  0  0  0  0  0  0
  149.2211  140.2018  154.0667 C   0  0  0  0  0  0  0  0  0  0  0  0
  150.5194  139.7979  154.5896 N   0  0  0  0  0  0  0  0  0  0  0  0
  150.9299  138.5062  154.0377 C   0  0  0  0  0  0  0  0  0  0  0  0
  150.5671  137.2739  154.8923 C   0  0  0  0  0  0  0  0  0  0  0  0
  149.2538  136.7321  154.5580 N   0  0  0  0  0  0  0  0  0  0  0  0
  148.3514  136.2919  155.4452 C   0  0  0  0  0  0  0  0  0  0  0  0
  148.5471  136.2580  156.6599 O   0  0  0  0  0  0  0  0  0  0  0  0
  147.2135  135.9210  154.8354 N   0  0  0  0  0  0  0  0  0  0  0  0
  145.9876  135.5367  155.4462 C   0  0  0  0  0  0  0  0  0  0  0  0
  145.6731  135.9411  156.7690 C   0  0  0  0  0  0  0  0  0  0  0  0
  144.4861  135.4925  157.3775 C   0  0  0  0  0  0  0  0  0  0  0  0
  143.6383  134.6311  156.6606 C   0  0  0  0  0  0  0  0  0  0  0  0
  143.9720  134.2534  155.4093 N   0  3  0  0  0  0  0  0  0  0  0  0
  145.0921  134.6635  154.7626 C   0  0  0  0  0  0  0  0  0  0  0  0
  145.3027  134.1912  153.4465 N   0  0  0  0  0  0  0  0  0  0  0  0
  145.2878  135.1150  152.3184 C   0  0  0  0  0  0  0  0  0  0  0  0
  145.8699  134.3229  151.1508 C   0  0  0  0  0  0  0  0  0  0  0  0
  146.9120  133.4438  151.8361 C   0  0  0  0  0  0  0  0  0  0  0  0
  146.2939  133.1465  153.2067 C   0  0  0  0  0  0  0  0  0  0  0  0
  150.4650  139.7939  156.0490 C   0  0  0  0  0  0  0  0  0  0  0  0
  150.0155  141.1506  156.6273 C   0  0  1  0  0  0  0  0  0  0  0  0
  151.0973  142.2396  156.5302 C   0  0  0  0  0  0  0  0  0  0  0  0
  148.7909  141.5666  156.0199 O   0  0  0  0  0  0  0  0  0  0  0  0
  147.3405  142.0122  153.0302 H   0  0  0  0  0  0  0  0  0  0  0  0
  147.1045  142.9506  154.5017 H   0  0  0  0  0  0  0  0  0  0  0  0
  146.6441  141.2506  154.4596 H   0  0  0  0  0  0  0  0  0  0  0  0
  149.4946  142.3400  154.2412 H   0  0  0  0  0  0  0  0  0  0  0  0
  148.4682  139.4589  154.3356 H   0  0  0  0  0  0  0  0  0  0  0  0
  149.2551  140.2292  152.9769 H   0  0  0  0  0  0  0  0  0  0  0  0
  150.5133  138.3837  153.0368 H   0  0  0  0  0  0  0  0  0  0  0  0
  152.0128  138.5112  153.9049 H   0  0  0  0  0  0  0  0  0  0  0  0
  151.3062  136.4848  154.7563 H   0  0  0  0  0  0  0  0  0  0  0  0
  150.5976  137.5343  155.9512 H   0  0  0  0  0  0  0  0  0  0  0  0
  149.0051  136.7241  153.5798 H   0  0  0  0  0  0  0  0  0  0  0  0
  147.1741  136.0768  153.8389 H   0  0  0  0  0  0  0  0  0  0  0  0
  146.3388  136.5738  157.3366 H   0  0  0  0  0  0  0  0  0  0  0  0
  144.2376  135.7951  158.3842 H   0  0  0  0  0  0  0  0  0  0  0  0
  142.7126  134.2304  157.0480 H   0  0  0  0  0  0  0  0  0  0  0  0
  144.2785  135.4683  152.1046 H   0  0  0  0  0  0  0  0  0  0  0  0
  145.9197  135.9794  152.5266 H   0  0  0  0  0  0  0  0  0  0  0  0
  145.0966  133.6998  150.6989 H   0  0  0  0  0  0  0  0  0  0  0  0
  146.2913  134.9595  150.3726 H   0  0  0  0  0  0  0  0  0  0  0  0
  147.1445  132.5407  151.2713 H   0  0  0  0  0  0  0  0  0  0  0  0
  147.8378  134.0063  151.9651 H   0  0  0  0  0  0  0  0  0  0  0  0
  147.0563  133.1128  153.9863 H   0  0  0  0  0  0  0  0  0  0  0  0
  145.7878  132.1810  153.1838 H   0  0  0  0  0  0  0  0  0  0  0  0
  149.7716  139.0204  156.3828 H   0  0  0  0  0  0  0  0  0  0  0  0
  151.4377  139.5356  156.4667 H   0  0  0  0  0  0  0  0  0  0  0  0
  149.8000  141.0090  157.6866 H   0  0  0  0  0  0  0  0  0  0  0  0
  151.9863  141.9554  157.0933 H   0  0  0  0  0  0  0  0  0  0  0  0
  150.7361  143.1845  156.9367 H   0  0  0  0  0  0  0  0  0  0  0  0
  151.4073  142.4155  155.5007 H   0  0  0  0  0  0  0  0  0  0  0  0
  143.3369  133.6257  154.9161 H   0  0  0  0  0  0  0  0  0  0  0  0
  1  2  1  0  0  0  0
  1 26  1  0  0  0  0
  1 27  1  0  0  0  0
  1 28  1  0  0  0  0
  2 25  1  0  0  0  0
  2  3  1  0  0  0  0
  2 29  1  0  0  0  0
  3  4  1  0  0  0  0
  3 30  1  0  0  0  0
  3 31  1  0  0  0  0
  4  5  1  0  0  0  0
  4 22  1  0  0  0  0
  5  6  1  0  0  0  0
  5 32  1  0  0  0  0
  5 33  1  0  0  0  0
  6  7  1  0  0  0  0
  6 34  1  0  0  0  0
  6 35  1  0  0  0  0
  7  8  1  0  0  0  0
  7 36  1  0  0  0  0
  8  9  2  0  0  0  0
  8 10  1  0  0  0  0
 10 11  1  0  0  0  0
 10 37  1  0  0  0  0
 11 16  1  0  0  0  0
 11 12  2  0  0  0  0
 12 13  1  0  0  0  0
 12 38  1  0  0  0  0
 13 14  2  0  0  0  0
 13 39  1  0  0  0  0
 14 15  1  0  0  0  0
 14 40  1  0  0  0  0
 15 16  2  0  0  0  0
 15 55  1  0  0  0  0
 16 17  1  0  0  0  0
 17 21  1  0  0  0  0
 17 18  1  0  0  0  0
 18 19  1  0  0  0  0
 18 41  1  0  0  0  0
 18 42  1  0  0  0  0
 19 20  1  0  0  0  0
 19 43  1  0  0  0  0
 19 44  1  0  0  0  0
 20 21  1  0  0  0  0
 20 45  1  0  0  0  0
 20 46  1  0  0  0  0
 21 47  1  0  0  0  0
 21 48  1  0  0  0  0
 22 23  1  0  0  0  0
 22 49  1  0  0  0  0
 22 50  1  0  0  0  0
 23 24  1  0  0  0  0
 23 25  1  0  0  0  0
 23 51  1  0  0  0  0
 24 52  1  0  0  0  0
 24 53  1  0  0  0  0
 24 54  1  0  0  0  0
M  CHG  1  15   1
M  END
> <s_m_source_file>
AV-unprocessed.smi

> <i_m_source_file_index>
1244

> <i_lp_mmshare_version>
43012

> <i_f3d_flags>
0

> <s_epik_input>
W0NIM11bQ0BASF0xW0NIMl1OKFtDSDJdW0NASF0oTzEpW0NIM10pW0NIMl1bQ0gyXVtOSF1DKD1PKVtOSF1jMltjSF1bY0hdW2NIXW5jMk4zW0NIMl1bQ0gyXVtDSDJdW0NIMl0z

> <s_epik_cmdline>
J2VwaWtfcHl0aG9uJywgJy1waCcsICc3LjAnLCAnLXRuJywgJzgnLCAnLW1hJywgJzIwMCcsICctbWV0YWxfYmluZGluZycsICctaW1hZScsICc8aW5maWxlLm1hZT4nLCAnLW9tYWUnLCAnPG91dGZpbGUubWFlPic=

> <r_epik_Ionization_Penalty>
1.38385

> <r_epik_Ionization_Penalty_Charging>
1.11784

> <r_epik_Ionization_Penalty_Neutral>
0.26601

> <r_epik_State_Penalty>
1.46794

> <r_epik_Charging_Adjusted_Penalty>
2.58578

> <i_epik_Tot_Q>
1

> <i_epik_Tot_abs_Q>
1

> <r_epik_Metal_State_Penalty>
1.54908

> <b_epik_Metal_Only>
0

> <s_lp_Force_Field>
OPLS_2005

> <r_lp_Energy>
60.0137

> <b_lp_Chiralities_Consistent>
1

> <s_lp_Variant>
AV-unprocessed.smi:1244-8

> <Gold.Version>
5.8.1

> <Gold.Id.Protein>
6NUR|6NUR_protein|mol2

> <Gold.PLP.Fitness>
40.8432

> <Gold.PLP.PLP>
-31.1540

> <Gold.PLP.part.hbond>
-3.0000

> <Gold.PLP.part.metal>
0.0000

> <Gold.PLP.part.buried>
-4.7750

> <Gold.PLP.part.nonpolar>
-24.0235

> <Gold.PLP.part.repulsive>
0.3083

> <Gold.PLP.ligand.clash>
0.0000

> <Gold.PLP.ligand.torsion>
1.0928

> <Gold.PLP.Chemscore.Hbond>
3.8000

> <Gold.PLP.Chemscore.CHOScore>
0.0000

> <Gold.PLP.Chemscore.Metal>
0.0000

> <Gold.Chemscore.Hbonds>
donor molecule, donor type, donor heavy atom, donor atom, acceptor molecule, acceptor atom, score
      L1  H     7    36       P1  7948  1.00
      L1  H    15    55       P1 10957  1.79
      P1  H  7989  7998       L1     4  0.81

> <Gold.PLP.Chemscore.Internal.Correction>
0.4748

> <Gold.Rescore>
     Score         DG    S(hbond)    S(metal)    S(lipo)     H(rot)  DE(clash)    DE(int)     intcor
     14.73     -17.27       2.02        0.00      77.70       1.58       0.28       2.26       ----

> <Gold.Chemscore.Fitness>
14.7340

> <Gold.Chemscore.DG>
-17.2725

> <Gold.Chemscore.ZeroCoef>
-5.4800

> <Gold.Chemscore.Hbond>
2.0195

> <Gold.Chemscore.Metal>
0.0000

> <Gold.Chemscore.Lipo>
77.7028

> <Gold.Chemscore.Internal_Hbond>
0.0000

> <Gold.Chemscore.DEClash>
0.2810

> <Gold.Chemscore.DEInternal>
2.2575

> <Gold.Chemscore.Rot>
1.5797

> <Gold.Chemscore.Internal.Correction>
   9.000000E+99

> <Gold.Chemscore.Hbonds>
donor molecule, donor type, donor heavy atom, donor atom, acceptor molecule, acceptor atom, score
      L1  H     7    36       P1  7948  0.99
      L1  H    15    55       P1 10957  0.86
      P1  H  7989  7998       L1     4  0.03

> <Gold.Chemscore.Hbond.Weighted>
-6.7452

> <Gold.Chemscore.Metal.Weighted>
-0.0000

> <Gold.Chemscore.Lipo.Weighted>
-9.0912

> <Gold.Chemscore.Internal_Hbond.Weighted>
0.0000

> <Gold.Chemscore.DEClash.Weighted>
0.2810

> <Gold.Chemscore.DEInternal.Weighted>
2.2575

> <Gold.Chemscore.Rot.Weighted>
4.0439

> <Gold.Chemscore.Internal.Correction.Weighted>
   9.000000E+99

> <Gold.Protein.RotatedTorsions>
[ 6907 6896 6895 6894 ] final  -55.49 input  -60.11 | X-H torsion
[ 7974 7965 7964 7962 ] final -108.28 input  175.53 | X-H torsion
[ 8008 7997 7996 7995 ] final  -74.46 input   59.86 | X-H torsion
[ 10167 10162 10161 10158 ] final   13.23 input  -65.29 | X-H torsion
[ 10718 10713 10712 10709 ] final -125.79 input   66.30 | X-H torsion
[ 10763 10752 10751 10750 ] final  176.14 input  -60.55 | X-H torsion
[ 11005 11000 10999 10996 ] final  -60.89 input  -57.11 | X-H torsion

> <Gold.Protein.ActiveResidues>
 VAL166  LYS551  ARG553  GLY616  TRP617  ASP618  TYR619  PRO620  LYS621  CYS622 
 ASP623  PHE694  ASN695  SER759  ASP760  ASP761  ALA762  ILE779  LEU786  VAL792 
 PHE793  MET794  SER795  GLU796  ALA797  LYS798  CYS799  TRP800  GLU811  SER814 

> <Gold.Protein.RotatedAtoms>
  150.8247  134.7473  159.6802 H   0  0  0  0  0  0  0  0  0  0  0  0  # atno 6907 bound_to 6896
  152.4359  134.5683  159.9924 H   0  0  0  0  0  0  0  0  0  0  0  0  # atno 6908 bound_to 6896
  151.5858  133.3335  159.3053 H   0  0  0  0  0  0  0  0  0  0  0  0  # atno 6909 bound_to 6896
  145.1948  140.9030  143.3403 H   0  0  0  0  0  0  0  0  0  0  0  0  # atno 7974 bound_to 7965
  154.5332  140.0761  156.8382 H   0  0  0  0  0  0  0  0  0  0  0  0  # atno 8008 bound_to 7997
  155.3331  140.3403  155.4221 H   0  0  0  0  0  0  0  0  0  0  0  0  # atno 8009 bound_to 7997
  156.1802  140.1649  156.8274 H   0  0  0  0  0  0  0  0  0  0  0  0  # atno 8010 bound_to 7997
  140.6016  143.8593  150.6971 H   0  0  0  0  0  0  0  0  0  0  0  0  # atno 10167 bound_to 10162
  156.1707  130.6665  151.0175 H   0  0  0  0  0  0  0  0  0  0  0  0  # atno 10718 bound_to 10713
  154.4771  135.2773  155.1599 H   0  0  0  0  0  0  0  0  0  0  0  0  # atno 10763 bound_to 10752
  154.3324  135.6187  153.5561 H   0  0  0  0  0  0  0  0  0  0  0  0  # atno 10764 bound_to 10752
  152.9871  135.5769  154.5164 H   0  0  0  0  0  0  0  0  0  0  0  0  # atno 10765 bound_to 10752
  141.1304  133.6625  156.5292 H   0  0  0  0  0  0  0  0  0  0  0  0  # atno 11005 bound_to 11000
  145.0005  139.3602  143.6169 LP  0  0  0  0  0  0  0  0  0  0  0  0  # atno 17320 bound_to 7965
  146.3429  139.9227  142.8764 LP  0  0  0  0  0  0  0  0  0  0  0  0  # atno 17321 bound_to 7965
  140.2140  143.3861  152.1696 LP  0  0  0  0  0  0  0  0  0  0  0  0  # atno 17342 bound_to 10162
  139.5295  144.7142  151.5107 LP  0  0  0  0  0  0  0  0  0  0  0  0  # atno 17343 bound_to 10162
  157.6800  131.0840  150.7394 LP  0  0  0  0  0  0  0  0  0  0  0  0  # atno 17370 bound_to 10713
  156.7453  130.4752  149.5468 LP  0  0  0  0  0  0  0  0  0  0  0  0  # atno 17371 bound_to 10713
  140.4230  134.7170  157.4900 LP  0  0  0  0  0  0  0  0  0  0  0  0  # atno 17394 bound_to 11000
  140.0347  134.6355  155.9060 LP  0  0  0  0  0  0  0  0  0  0  0  0  # atno 17395 bound_to 11000

$$$$
