AV-unprocessed.smi:363|AV-procd|sdf|2424|dock10
  -GOLD-   2262022363D 1   1.00000     0.00000
 Structure written by MMmdl.
 39 40  0  0  0  0  0  0  0  0  1 V2000
  156.2983  134.0203  160.0726 C   0  0  0  0  0  0  0  0  0  0  0  0
  155.5947  135.3714  160.0394 C   0  0  0  0  0  0  0  0  0  0  0  0
  155.0487  135.8796  161.2762 C   0  0  0  0  0  0  0  0  0  0  0  0
  154.3777  137.0417  161.3138 C   0  0  0  0  0  0  0  0  0  0  0  0
  153.7984  137.5632  162.6248 C   0  0  0  0  0  0  0  0  0  0  0  0
  154.2034  137.8126  160.1313 N   0  0  0  0  0  0  0  0  0  0  0  0
  153.4534  139.0888  160.1946 C   0  0  0  0  0  0  0  0  0  0  0  0
  154.2482  140.2126  160.9029 C   0  0  1  0  0  0  0  0  0  0  0  0
  155.5728  140.2273  160.4100 O   0  0  0  0  0  0  0  0  0  0  0  0
  153.5821  141.5645  160.6930 C   0  0  0  0  0  0  0  0  0  0  0  0
  153.3180  142.0373  159.3885 C   0  0  0  0  0  0  0  0  0  0  0  0
  152.6916  143.2842  159.1977 C   0  0  0  0  0  0  0  0  0  0  0  0
  152.3234  144.0652  160.3101 C   0  0  0  0  0  0  0  0  0  0  0  0
  151.5552  145.5924  160.0762 Cl  0  0  0  0  0  0  0  0  0  0  0  0
  152.5822  143.5979  161.6133 C   0  0  0  0  0  0  0  0  0  0  0  0
  153.2098  142.3513  161.8044 C   0  0  0  0  0  0  0  0  0  0  0  0
  154.7193  137.4200  158.9224 C   0  0  0  0  0  0  0  0  0  0  0  0
  154.6031  138.1468  157.9304 O   0  0  0  0  0  0  0  0  0  0  0  0
  155.4217  136.1070  158.9082 C   0  0  0  0  0  0  0  0  0  0  0  0
  155.9483  135.6528  157.6059 C   0  0  0  0  0  0  0  0  0  0  0  0
  157.2625  135.3908  157.5821 N   0  0  0  0  0  0  0  0  0  0  0  0
  155.2909  135.5813  156.5687 O   0  0  0  0  0  0  0  0  0  0  0  0
  156.1628  133.5295  161.0367 H   0  0  0  0  0  0  0  0  0  0  0  0
  157.3696  134.1424  159.9114 H   0  0  0  0  0  0  0  0  0  0  0  0
  155.9015  133.3518  159.3079 H   0  0  0  0  0  0  0  0  0  0  0  0
  155.1758  135.3095  162.1852 H   0  0  0  0  0  0  0  0  0  0  0  0
  154.1892  136.9966  163.4706 H   0  0  0  0  0  0  0  0  0  0  0  0
  152.7138  137.4534  162.6342 H   0  0  0  0  0  0  0  0  0  0  0  0
  154.0505  138.6063  162.8056 H   0  0  0  0  0  0  0  0  0  0  0  0
  153.1113  139.4248  159.2136 H   0  0  0  0  0  0  0  0  0  0  0  0
  152.5136  138.9198  160.7183 H   0  0  0  0  0  0  0  0  0  0  0  0
  154.3055  140.0161  161.9740 H   0  0  0  0  0  0  0  0  0  0  0  0
  155.5743  139.8527  159.5424 H   0  0  0  0  0  0  0  0  0  0  0  0
  153.5936  141.4424  158.5300 H   0  0  0  0  0  0  0  0  0  0  0  0
  152.4928  143.6389  158.1969 H   0  0  0  0  0  0  0  0  0  0  0  0
  152.2987  144.1938  162.4684 H   0  0  0  0  0  0  0  0  0  0  0  0
  153.4014  142.0022  162.8085 H   0  0  0  0  0  0  0  0  0  0  0  0
  157.7021  135.0918  156.7236 H   0  0  0  0  0  0  0  0  0  0  0  0
  157.8124  135.5102  158.4204 H   0  0  0  0  0  0  0  0  0  0  0  0
  1  2  1  0  0  0  0
  1 23  1  0  0  0  0
  1 24  1  0  0  0  0
  1 25  1  0  0  0  0
  2 19  2  0  0  0  0
  2  3  1  0  0  0  0
  3  4  2  0  0  0  0
  3 26  1  0  0  0  0
  4  5  1  0  0  0  0
  4  6  1  0  0  0  0
  5 27  1  0  0  0  0
  5 28  1  0  0  0  0
  5 29  1  0  0  0  0
  6  7  1  0  0  0  0
  6 17  1  0  0  0  0
  7  8  1  0  0  0  0
  7 30  1  0  0  0  0
  7 31  1  0  0  0  0
  8  9  1  0  0  0  0
  8 10  1  0  0  0  0
  8 32  1  0  0  0  0
  9 33  1  0  0  0  0
 10 16  1  0  0  0  0
 10 11  2  0  0  0  0
 11 12  1  0  0  0  0
 11 34  1  0  0  0  0
 12 13  2  0  0  0  0
 12 35  1  0  0  0  0
 13 14  1  0  0  0  0
 13 15  1  0  0  0  0
 15 16  2  0  0  0  0
 15 36  1  0  0  0  0
 16 37  1  0  0  0  0
 17 18  2  0  0  0  0
 17 19  1  0  0  0  0
 19 20  1  0  0  0  0
 20 21  1  0  0  0  0
 20 22  2  0  0  0  0
 21 38  1  0  0  0  0
 21 39  1  0  0  0  0
M  END
> <s_m_source_file>
AV-unprocessed.smi

> <i_m_source_file_index>
363

> <i_lp_mmshare_version>
43012

> <i_f3d_flags>
0

> <s_epik_input>
W0NIM11jMVtjSF1jKFtDSDNdKW4oYyg9TyljMUMoPU8pW05IMl0pW0NIMl1bQ0BIXShbT0hdKWMyW2NIXVtjSF1jKENsKVtjSF1bY0hdMg==

> <s_epik_cmdline>
J2VwaWtfcHl0aG9uJywgJy1waCcsICc3LjAnLCAnLXRuJywgJzgnLCAnLW1hJywgJzIwMCcsICctbWV0YWxfYmluZGluZycsICctaW1hZScsICc8aW5maWxlLm1hZT4nLCAnLW9tYWUnLCAnPG91dGZpbGUubWFlPic=

> <r_lp_tautomer_probability>
1

> <r_epik_Ionization_Penalty>
3.91973e-07

> <r_epik_Ionization_Penalty_Charging>
1.35363e-07

> <r_epik_Ionization_Penalty_Neutral>
2.5661e-07

> <r_epik_State_Penalty>
-0

> <r_epik_Charging_Adjusted_Penalty>
1.35363e-07

> <i_epik_Tot_Q>
0

> <i_epik_Tot_abs_Q>
0

> <r_epik_Metal_State_Penalty>
-0

> <b_epik_Metal_Only>
0

> <s_lp_Force_Field>
OPLS_2005

> <r_lp_Energy>
39.726

> <b_lp_Chiralities_Consistent>
1

> <s_lp_Variant>
AV-unprocessed.smi:363-2

> <Gold.Version>
5.8.1

> <Gold.Id.Protein>
6NUR|6NUR_protein|mol2

> <Gold.PLP.Fitness>
46.0659

> <Gold.PLP.PLP>
-42.8972

> <Gold.PLP.part.hbond>
-2.0000

> <Gold.PLP.part.metal>
0.0000

> <Gold.PLP.part.buried>
-5.4137

> <Gold.PLP.part.nonpolar>
-34.5967

> <Gold.PLP.part.repulsive>
0.0033

> <Gold.PLP.ligand.clash>
0.0000

> <Gold.PLP.ligand.torsion>
1.2599

> <Gold.PLP.Chemscore.Hbond>
1.8000

> <Gold.PLP.Chemscore.CHOScore>
0.0000

> <Gold.PLP.Chemscore.Metal>
0.0000

> <Gold.Chemscore.Hbonds>
donor molecule, donor type, donor heavy atom, donor atom, acceptor molecule, acceptor atom, score
      P1  H  7997  8008       L1    18  0.78
      P1  H 10752 10763       L1    22  1.00

> <Gold.PLP.Chemscore.Internal.Correction>
0.2885

> <Gold.Rescore>
     Score         DG    S(hbond)    S(metal)    S(lipo)     H(rot)  DE(clash)    DE(int)     intcor
     19.77     -21.50       1.92        0.00     124.84       1.95       0.22       1.51       ----

> <Gold.Chemscore.Fitness>
19.7692

> <Gold.Chemscore.DG>
-21.5010

> <Gold.Chemscore.ZeroCoef>
-5.4800

> <Gold.Chemscore.Hbond>
1.9178

> <Gold.Chemscore.Metal>
0.0000

> <Gold.Chemscore.Lipo>
124.8423

> <Gold.Chemscore.Internal_Hbond>
0.0000

> <Gold.Chemscore.DEClash>
0.2208

> <Gold.Chemscore.DEInternal>
1.5111

> <Gold.Chemscore.Rot>
1.9495

> <Gold.Chemscore.Internal.Correction>
   9.000000E+99

> <Gold.Chemscore.Hbonds>
donor molecule, donor type, donor heavy atom, donor atom, acceptor molecule, acceptor atom, score
      P1  H  7997  8008       L1    18  0.76
      P1  H 10752 10763       L1    22  0.98

> <Gold.Chemscore.Hbond.Weighted>
-6.4053

> <Gold.Chemscore.Metal.Weighted>
-0.0000

> <Gold.Chemscore.Lipo.Weighted>
-14.6065

> <Gold.Chemscore.Internal_Hbond.Weighted>
0.0000

> <Gold.Chemscore.DEClash.Weighted>
0.2208

> <Gold.Chemscore.DEInternal.Weighted>
1.5111

> <Gold.Chemscore.Rot.Weighted>
4.9908

> <Gold.Chemscore.Internal.Correction.Weighted>
   9.000000E+99

> <Gold.Protein.RotatedTorsions>
[ 6907 6896 6895 6894 ] final    0.35 input  -60.11 | X-H torsion
[ 7974 7965 7964 7962 ] final  109.53 input  175.53 | X-H torsion
[ 8008 7997 7996 7995 ] final -120.21 input   59.86 | X-H torsion
[ 10167 10162 10161 10158 ] final  147.57 input  -65.29 | X-H torsion
[ 10718 10713 10712 10709 ] final  116.05 input   66.30 | X-H torsion
[ 10763 10752 10751 10750 ] final  174.36 input  -60.55 | X-H torsion
[ 11005 11000 10999 10996 ] final  106.56 input  -57.11 | X-H torsion

> <Gold.Protein.ActiveResidues>
 VAL166  LYS551  ARG553  GLY616  TRP617  ASP618  TYR619  PRO620  LYS621  CYS622 
 ASP623  PHE694  ASN695  SER759  ASP760  ASP761  ALA762  ILE779  LEU786  VAL792 
 PHE793  MET794  SER795  GLU796  ALA797  LYS798  CYS799  TRP800  GLU811  SER814 

> <Gold.Protein.RotatedAtoms>
  151.5751  135.1061  160.0003 H   0  0  0  0  0  0  0  0  0  0  0  0  # atno 6907 bound_to 6896
  152.4382  133.7395  159.6643 H   0  0  0  0  0  0  0  0  0  0  0  0  # atno 6908 bound_to 6896
  150.8283  133.8065  159.3132 H   0  0  0  0  0  0  0  0  0  0  0  0  # atno 6909 bound_to 6896
  145.2666  139.2682  143.3988 H   0  0  0  0  0  0  0  0  0  0  0  0  # atno 7974 bound_to 7965
  155.1282  140.0399  157.2768 H   0  0  0  0  0  0  0  0  0  0  0  0  # atno 8008 bound_to 7997
  154.6563  140.2580  155.7132 H   0  0  0  0  0  0  0  0  0  0  0  0  # atno 8009 bound_to 7997
  156.2599  140.2826  156.1017 H   0  0  0  0  0  0  0  0  0  0  0  0  # atno 8010 bound_to 7997
  139.4888  144.5745  151.6991 H   0  0  0  0  0  0  0  0  0  0  0  0  # atno 10167 bound_to 10162
  157.6184  131.1020  150.7417 H   0  0  0  0  0  0  0  0  0  0  0  0  # atno 10718 bound_to 10713
  154.4529  135.2765  155.1768 H   0  0  0  0  0  0  0  0  0  0  0  0  # atno 10763 bound_to 10752
  154.3588  135.6134  153.5683 H   0  0  0  0  0  0  0  0  0  0  0  0  # atno 10764 bound_to 10752
  152.9848  135.5829  154.4877 H   0  0  0  0  0  0  0  0  0  0  0  0  # atno 10765 bound_to 10752
  139.8816  134.9373  156.5685 H   0  0  0  0  0  0  0  0  0  0  0  0  # atno 11005 bound_to 11000
  146.3259  140.3098  142.8626 LP  0  0  0  0  0  0  0  0  0  0  0  0  # atno 17320 bound_to 7965
  144.9371  140.8039  143.5653 LP  0  0  0  0  0  0  0  0  0  0  0  0  # atno 17321 bound_to 7965
  140.5339  144.0687  150.6063 LP  0  0  0  0  0  0  0  0  0  0  0  0  # atno 17342 bound_to 10162
  140.3686  143.2867  152.0303 LP  0  0  0  0  0  0  0  0  0  0  0  0  # atno 17343 bound_to 10162
  156.7780  130.4850  149.5406 LP  0  0  0  0  0  0  0  0  0  0  0  0  # atno 17370 bound_to 10713
  156.1318  130.6183  151.0343 LP  0  0  0  0  0  0  0  0  0  0  0  0  # atno 17371 bound_to 10713
  140.8116  133.8424  155.8815 LP  0  0  0  0  0  0  0  0  0  0  0  0  # atno 17394 bound_to 11000
  140.9501  134.1790  157.4734 LP  0  0  0  0  0  0  0  0  0  0  0  0  # atno 17395 bound_to 11000

$$$$
