AV-unprocessed.smi:3229|AV-procd|sdf|12327|dock2
  -GOLD-   2272018173D 1   1.00000     0.00000
 Structure written by MMmdl.
 35 36  0  0  0  0  0  0  0  0  1 V2000
  151.7777  143.8820  160.2191 C   0  0  0  0  0  0  0  0  0  0  0  0
  151.7633  143.5905  158.7145 C   0  0  0  0  0  0  0  0  0  0  0  0
  151.1882  142.2541  158.3782 C   0  0  0  0  0  0  0  0  0  0  0  0
  150.0339  141.9911  157.6831 C   0  0  0  0  0  0  0  0  0  0  0  0
  149.7632  140.6298  157.5318 N   0  0  0  0  0  0  0  0  0  0  0  0
  150.6884  139.8577  158.1079 C   0  0  0  0  0  0  0  0  0  0  0  0
  150.6626  138.3630  158.0667 C   0  0  0  0  0  0  0  0  0  0  0  0
  149.2929  137.7720  157.6782 C   0  0  0  0  0  0  0  0  0  0  0  0
  148.5504  137.2598  158.8256 N   0  0  0  0  0  0  0  0  0  0  0  0
  148.5514  135.9834  159.2405 C   0  0  0  0  0  0  0  0  0  0  0  0
  149.1719  135.0902  158.6632 O   0  0  0  0  0  0  0  0  0  0  0  0
  147.7570  135.6764  160.5166 C   0  0  2  0  0  0  0  0  0  0  0  0
  146.7935  134.4914  160.3961 C   0  0  0  0  0  0  0  0  0  0  0  0
  145.7478  134.8419  161.4303 C   0  0  0  0  0  0  0  0  0  0  0  0
  145.6450  136.3551  161.2711 C   0  0  0  0  0  0  0  0  0  0  0  0
  146.9391  136.7942  160.8670 O   0  0  0  0  0  0  0  0  0  0  0  0
  151.9817  140.7779  158.8666 S   0  0  0  0  0  0  0  0  0  0  0  0
  152.2150  144.8601  160.4206 H   0  0  0  0  0  0  0  0  0  0  0  0
  152.3643  143.1372  160.7579 H   0  0  0  0  0  0  0  0  0  0  0  0
  150.7688  143.8779  160.6323 H   0  0  0  0  0  0  0  0  0  0  0  0
  151.1952  144.3668  158.2012 H   0  0  0  0  0  0  0  0  0  0  0  0
  152.7808  143.6561  158.3274 H   0  0  0  0  0  0  0  0  0  0  0  0
  149.3477  142.7101  157.2603 H   0  0  0  0  0  0  0  0  0  0  0  0
  151.4208  138.0229  157.3609 H   0  0  0  0  0  0  0  0  0  0  0  0
  150.9668  137.9849  159.0436 H   0  0  0  0  0  0  0  0  0  0  0  0
  148.6829  138.5473  157.2143 H   0  0  0  0  0  0  0  0  0  0  0  0
  149.4160  136.9885  156.9291 H   0  0  0  0  0  0  0  0  0  0  0  0
  148.0158  137.9283  159.3616 H   0  0  0  0  0  0  0  0  0  0  0  0
  148.4549  135.5013  161.3369 H   0  0  0  0  0  0  0  0  0  0  0  0
  146.3377  134.4462  159.4053 H   0  0  0  0  0  0  0  0  0  0  0  0
  147.2753  133.5338  160.5962 H   0  0  0  0  0  0  0  0  0  0  0  0
  144.7979  134.3299  161.2738 H   0  0  0  0  0  0  0  0  0  0  0  0
  146.1115  134.5930  162.4282 H   0  0  0  0  0  0  0  0  0  0  0  0
  144.9343  136.6059  160.4827 H   0  0  0  0  0  0  0  0  0  0  0  0
  145.3226  136.8502  162.1873 H   0  0  0  0  0  0  0  0  0  0  0  0
  1  2  1  0  0  0  0
  1 18  1  0  0  0  0
  1 19  1  0  0  0  0
  1 20  1  0  0  0  0
  2  3  1  0  0  0  0
  2 21  1  0  0  0  0
  2 22  1  0  0  0  0
  3 17  1  0  0  0  0
  3  4  2  0  0  0  0
  4  5  1  0  0  0  0
  4 23  1  0  0  0  0
  5  6  2  0  0  0  0
  6  7  1  0  0  0  0
  6 17  1  0  0  0  0
  7  8  1  0  0  0  0
  7 24  1  0  0  0  0
  7 25  1  0  0  0  0
  8  9  1  0  0  0  0
  8 26  1  0  0  0  0
  8 27  1  0  0  0  0
  9 10  1  0  0  0  0
  9 28  1  0  0  0  0
 10 11  2  0  0  0  0
 10 12  1  0  0  0  0
 12 16  1  0  0  0  0
 12 13  1  0  0  0  0
 12 29  1  0  0  0  0
 13 14  1  0  0  0  0
 13 30  1  0  0  0  0
 13 31  1  0  0  0  0
 14 15  1  0  0  0  0
 14 32  1  0  0  0  0
 14 33  1  0  0  0  0
 15 16  1  0  0  0  0
 15 34  1  0  0  0  0
 15 35  1  0  0  0  0
M  END
> <s_m_source_file>
AV-unprocessed.smi

> <i_m_source_file_index>
3229

> <i_lp_mmshare_version>
43012

> <i_f3d_flags>
0

> <s_epik_input>
W0NIM11bQ0gyXWMxW2NIXW5jKHMxKVtDSDJdW0NIMl1bTkhdQyg9TylbQ0BASF0yW0NIMl1bQ0gyXVtDSDJdTzI=

> <s_epik_cmdline>
J2VwaWtfcHl0aG9uJywgJy1waCcsICc3LjAnLCAnLXRuJywgJzgnLCAnLW1hJywgJzIwMCcsICctbWV0YWxfYmluZGluZycsICctaW1hZScsICc8aW5maWxlLm1hZT4nLCAnLW9tYWUnLCAnPG91dGZpbGUubWFlPic=

> <r_epik_Ionization_Penalty>
0.000508191

> <r_epik_Ionization_Penalty_Charging>
0

> <r_epik_Ionization_Penalty_Neutral>
0.000508191

> <r_epik_State_Penalty>
0.000316483

> <r_epik_Charging_Adjusted_Penalty>
0.000316483

> <i_epik_Tot_Q>
0

> <i_epik_Tot_abs_Q>
0

> <r_epik_Metal_State_Penalty>
-0

> <b_epik_Metal_Only>
0

> <s_lp_Force_Field>
OPLS_2005

> <r_lp_Energy>
9.62318

> <b_lp_Chiralities_Consistent>
1

> <s_lp_Variant>
AV-unprocessed.smi:3229-1

> <Gold.Version>
5.8.1

> <Gold.Id.Protein>
6NUR|6NUR_protein|mol2

> <Gold.PLP.Fitness>
42.3149

> <Gold.PLP.PLP>
-32.7370

> <Gold.PLP.part.hbond>
-3.0000

> <Gold.PLP.part.metal>
0.0000

> <Gold.PLP.part.buried>
-4.3872

> <Gold.PLP.part.nonpolar>
-25.6409

> <Gold.PLP.part.repulsive>
0.2486

> <Gold.PLP.ligand.clash>
0.0000

> <Gold.PLP.ligand.torsion>
0.9043

> <Gold.PLP.Chemscore.Hbond>
2.7760

> <Gold.PLP.Chemscore.CHOScore>
1.0000

> <Gold.PLP.Chemscore.Metal>
0.0000

> <Gold.Chemscore.Hbonds>
donor molecule, donor type, donor heavy atom, donor atom, acceptor molecule, acceptor atom, score
      P1  H  6896  6908       L1    11  1.00
      P1  H  6934  6947       L1    16  0.47
      L1  C     4    23       P1  8028  0.81

> <Gold.PLP.Chemscore.Internal.Correction>
0.0585

> <Gold.Rescore>
     Score         DG    S(hbond)    S(metal)    S(lipo)     H(rot)  DE(clash)    DE(int)     intcor
     16.16     -17.27       1.69        0.00      87.49       1.60       0.07       1.04       ----

> <Gold.Chemscore.Fitness>
16.1582

> <Gold.Chemscore.DG>
-17.2691

> <Gold.Chemscore.ZeroCoef>
-5.4800

> <Gold.Chemscore.Hbond>
1.6941

> <Gold.Chemscore.Metal>
0.0000

> <Gold.Chemscore.Lipo>
87.4946

> <Gold.Chemscore.Internal_Hbond>
0.0000

> <Gold.Chemscore.DEClash>
0.0727

> <Gold.Chemscore.DEInternal>
1.0382

> <Gold.Chemscore.Rot>
1.6040

> <Gold.Chemscore.Internal.Correction>
   9.000000E+99

> <Gold.Chemscore.Hbonds>
donor molecule, donor type, donor heavy atom, donor atom, acceptor molecule, acceptor atom, score
      P1  H  6896  6908       L1    11  0.98
      P1  H  6934  6947       L1    16  0.41

> <Gold.Chemscore.Hbond.Weighted>
-5.6585

> <Gold.Chemscore.Metal.Weighted>
-0.0000

> <Gold.Chemscore.Lipo.Weighted>
-10.2369

> <Gold.Chemscore.Internal_Hbond.Weighted>
0.0000

> <Gold.Chemscore.DEClash.Weighted>
0.0727

> <Gold.Chemscore.DEInternal.Weighted>
1.0382

> <Gold.Chemscore.Rot.Weighted>
4.1062

> <Gold.Chemscore.Internal.Correction.Weighted>
   9.000000E+99

> <Gold.Protein.RotatedTorsions>
[ 6907 6896 6895 6894 ] final  151.61 input  -60.11 | X-H torsion
[ 7974 7965 7964 7962 ] final  126.78 input  175.53 | X-H torsion
[ 8008 7997 7996 7995 ] final -145.99 input   59.86 | X-H torsion
[ 10167 10162 10161 10158 ] final   73.95 input  -65.29 | X-H torsion
[ 10718 10713 10712 10709 ] final -149.37 input   66.30 | X-H torsion
[ 10763 10752 10751 10750 ] final   36.44 input  -60.55 | X-H torsion
[ 11005 11000 10999 10996 ] final   94.16 input  -57.11 | X-H torsion

> <Gold.Protein.ActiveResidues>
 VAL166  LYS551  ARG553  GLY616  TRP617  ASP618  TYR619  PRO620  LYS621  CYS622 
 ASP623  PHE694  ASN695  SER759  ASP760  ASP761  ALA762  ILE779  LEU786  VAL792 
 PHE793  MET794  SER795  GLU796  ALA797  LYS798  CYS799  TRP800  GLU811  SER814 

> <Gold.Protein.RotatedAtoms>
  152.0983  133.4236  159.4575 H   0  0  0  0  0  0  0  0  0  0  0  0  # atno 6907 bound_to 6896
  150.6863  134.2791  159.4629 H   0  0  0  0  0  0  0  0  0  0  0  0  # atno 6908 bound_to 6896
  152.0648  134.9570  160.0625 H   0  0  0  0  0  0  0  0  0  0  0  0  # atno 6909 bound_to 6896
  145.0579  139.3829  143.5020 H   0  0  0  0  0  0  0  0  0  0  0  0  # atno 7974 bound_to 7965
  155.5522  140.0617  157.2847 H   0  0  0  0  0  0  0  0  0  0  0  0  # atno 8008 bound_to 7997
  154.4417  140.1900  156.0742 H   0  0  0  0  0  0  0  0  0  0  0  0  # atno 8009 bound_to 7997
  156.0508  140.3284  155.7353 H   0  0  0  0  0  0  0  0  0  0  0  0  # atno 8010 bound_to 7997
  140.0190  144.5555  150.7597 H   0  0  0  0  0  0  0  0  0  0  0  0  # atno 10167 bound_to 10162
  156.4322  130.8081  151.2308 H   0  0  0  0  0  0  0  0  0  0  0  0  # atno 10718 bound_to 10713
  153.0077  135.6305  154.1986 H   0  0  0  0  0  0  0  0  0  0  0  0  # atno 10763 bound_to 10752
  154.1729  135.2817  155.3077 H   0  0  0  0  0  0  0  0  0  0  0  0  # atno 10764 bound_to 10752
  154.5894  135.5622  153.7324 H   0  0  0  0  0  0  0  0  0  0  0  0  # atno 10765 bound_to 10752
  139.8801  134.8830  156.3823 H   0  0  0  0  0  0  0  0  0  0  0  0  # atno 11005 bound_to 11000
  146.3522  140.0263  142.8654 LP  0  0  0  0  0  0  0  0  0  0  0  0  # atno 17320 bound_to 7965
  145.1445  140.9589  143.4469 LP  0  0  0  0  0  0  0  0  0  0  0  0  # atno 17321 bound_to 7965
  140.7350  143.2736  151.3812 LP  0  0  0  0  0  0  0  0  0  0  0  0  # atno 17342 bound_to 10162
  139.6153  144.1016  152.2339 LP  0  0  0  0  0  0  0  0  0  0  0  0  # atno 17343 bound_to 10162
  157.7508  131.0194  150.3668 LP  0  0  0  0  0  0  0  0  0  0  0  0  # atno 17370 bound_to 10713
  156.4007  130.3915  149.6961 LP  0  0  0  0  0  0  0  0  0  0  0  0  # atno 17371 bound_to 10713
  140.9390  133.7527  156.0122 LP  0  0  0  0  0  0  0  0  0  0  0  0  # atno 17394 bound_to 11000
  140.8242  134.3254  157.5371 LP  0  0  0  0  0  0  0  0  0  0  0  0  # atno 17395 bound_to 11000

$$$$
