AV-unprocessed.smi:1541|AV-procd|sdf|6202|dock3
  -GOLD-   22720 6373D 1   1.00000     0.00000
 Structure written by MMmdl.
 40 41  0  0  0  0  0  0  0  0  1 V2000
  146.5320  137.7178  151.7270 C   0  0  0  0  0  0  0  0  0  0  0  0
  146.6909  139.2427  151.7332 C   0  0  0  0  0  0  0  0  0  0  0  0
  147.5310  139.6891  152.8274 N   0  0  0  0  0  0  0  0  0  0  0  0
  147.7642  140.9824  153.2510 C   0  0  0  0  0  0  0  0  0  0  0  0
  148.6261  140.8760  154.3059 C   0  0  0  0  0  0  0  0  0  0  0  0
  149.1907  141.8961  155.1127 N   0  0  0  0  0  0  0  0  0  0  0  0
  150.1505  141.7619  156.0427 C   0  0  0  0  0  0  0  0  0  0  0  0
  150.6926  140.7005  156.3514 O   0  0  0  0  0  0  0  0  0  0  0  0
  150.4514  142.9415  156.6054 N   0  0  0  0  0  0  0  0  0  0  0  0
  151.4594  143.1563  157.6415 C   0  0  0  0  0  0  0  0  0  0  0  0
  151.3864  142.0078  158.6695 C   0  0  0  0  0  0  0  0  0  0  0  0
  152.3662  142.1197  159.8502 C   0  0  0  0  0  0  0  0  0  0  0  0
  151.9441  143.1840  160.8758 C   0  0  0  0  0  0  0  0  0  0  0  0
  152.4199  144.6163  160.5752 C   0  0  0  0  0  0  0  0  0  0  0  0
  152.4464  145.0360  159.0951 C   0  0  0  0  0  0  0  0  0  0  0  0
  151.2542  144.5605  158.2478 C   0  0  0  0  0  0  0  0  0  0  0  0
  148.8729  139.4876  154.4654 C   0  0  0  0  0  0  0  0  0  0  0  0
  148.2084  138.7763  153.5671 N   0  0  0  0  0  0  0  0  0  0  0  0
  145.9065  137.3968  150.8941 H   0  0  0  0  0  0  0  0  0  0  0  0
  146.0665  137.3652  152.6478 H   0  0  0  0  0  0  0  0  0  0  0  0
  147.4983  137.2225  151.6284 H   0  0  0  0  0  0  0  0  0  0  0  0
  147.1330  139.5790  150.7946 H   0  0  0  0  0  0  0  0  0  0  0  0
  145.7165  139.7265  151.8156 H   0  0  0  0  0  0  0  0  0  0  0  0
  147.3052  141.8343  152.7710 H   0  0  0  0  0  0  0  0  0  0  0  0
  148.8283  142.8264  154.9632 H   0  0  0  0  0  0  0  0  0  0  0  0
  149.9498  143.7581  156.2885 H   0  0  0  0  0  0  0  0  0  0  0  0
  152.4432  143.1375  157.1683 H   0  0  0  0  0  0  0  0  0  0  0  0
  150.3681  141.9140  159.0501 H   0  0  0  0  0  0  0  0  0  0  0  0
  151.5918  141.0695  158.1526 H   0  0  0  0  0  0  0  0  0  0  0  0
  152.3797  141.1544  160.3575 H   0  0  0  0  0  0  0  0  0  0  0  0
  153.3866  142.2870  159.5032 H   0  0  0  0  0  0  0  0  0  0  0  0
  150.8584  143.1750  160.9800 H   0  0  0  0  0  0  0  0  0  0  0  0
  152.3268  142.9028  161.8577 H   0  0  0  0  0  0  0  0  0  0  0  0
  151.7866  145.3082  161.1319 H   0  0  0  0  0  0  0  0  0  0  0  0
  153.4237  144.7505  160.9804 H   0  0  0  0  0  0  0  0  0  0  0  0
  152.4907  146.1250  159.0604 H   0  0  0  0  0  0  0  0  0  0  0  0
  153.3766  144.6997  158.6356 H   0  0  0  0  0  0  0  0  0  0  0  0
  151.1374  145.2694  157.4265 H   0  0  0  0  0  0  0  0  0  0  0  0
  150.3262  144.6124  158.8190 H   0  0  0  0  0  0  0  0  0  0  0  0
  149.4988  138.9823  155.1863 H   0  0  0  0  0  0  0  0  0  0  0  0
  1  2  1  0  0  0  0
  1 19  1  0  0  0  0
  1 20  1  0  0  0  0
  1 21  1  0  0  0  0
  2  3  1  0  0  0  0
  2 22  1  0  0  0  0
  2 23  1  0  0  0  0
  3 18  1  0  0  0  0
  3  4  1  0  0  0  0
  4  5  2  0  0  0  0
  4 24  1  0  0  0  0
  5  6  1  0  0  0  0
  5 17  1  0  0  0  0
  6  7  1  0  0  0  0
  6 25  1  0  0  0  0
  7  8  2  0  0  0  0
  7  9  1  0  0  0  0
  9 10  1  0  0  0  0
  9 26  1  0  0  0  0
 10 16  1  0  0  0  0
 10 11  1  0  0  0  0
 10 27  1  0  0  0  0
 11 12  1  0  0  0  0
 11 28  1  0  0  0  0
 11 29  1  0  0  0  0
 12 13  1  0  0  0  0
 12 30  1  0  0  0  0
 12 31  1  0  0  0  0
 13 14  1  0  0  0  0
 13 32  1  0  0  0  0
 13 33  1  0  0  0  0
 14 15  1  0  0  0  0
 14 34  1  0  0  0  0
 14 35  1  0  0  0  0
 15 16  1  0  0  0  0
 15 36  1  0  0  0  0
 15 37  1  0  0  0  0
 16 38  1  0  0  0  0
 16 39  1  0  0  0  0
 17 18  2  0  0  0  0
 17 40  1  0  0  0  0
M  END
> <s_m_source_file>
AV-unprocessed.smi

> <i_m_source_file_index>
1541

> <i_lp_mmshare_version>
43012

> <i_f3d_flags>
0

> <s_epik_input>
W0NIM11bQ0gyXW4xW2NIXWMoW2NIXW4xKVtOSF1DKD1PKVtOSF1bQ0hdMltDSDJdW0NIMl1bQ0gyXVtDSDJdW0NIMl1bQ0gyXTI=

> <s_epik_cmdline>
J2VwaWtfcHl0aG9uJywgJy1waCcsICc3LjAnLCAnLXRuJywgJzgnLCAnLW1hJywgJzIwMCcsICctbWV0YWxfYmluZGluZycsICctaW1hZScsICc8aW5maWxlLm1hZT4nLCAnLW9tYWUnLCAnPG91dGZpbGUubWFlPic=

> <r_lp_tautomer_probability>
1

> <r_epik_Ionization_Penalty>
0.000192371

> <r_epik_Ionization_Penalty_Charging>
0

> <r_epik_Ionization_Penalty_Neutral>
0.000192371

> <r_epik_State_Penalty>
-0

> <r_epik_Charging_Adjusted_Penalty>
0

> <i_epik_Tot_Q>
0

> <i_epik_Tot_abs_Q>
0

> <r_epik_Metal_State_Penalty>
-0

> <b_epik_Metal_Only>
0

> <s_lp_Force_Field>
OPLS_2005

> <r_lp_Energy>
18.5955

> <b_lp_Chiralities_Consistent>
1

> <s_lp_Variant>
AV-unprocessed.smi:1541-1

> <Gold.Version>
5.8.1

> <Gold.Id.Protein>
6NUR|6NUR_protein|mol2

> <Gold.PLP.Fitness>
43.3807

> <Gold.PLP.PLP>
-38.4714

> <Gold.PLP.part.hbond>
-1.9648

> <Gold.PLP.part.metal>
0.0000

> <Gold.PLP.part.buried>
0.6173

> <Gold.PLP.part.nonpolar>
-38.9802

> <Gold.PLP.part.repulsive>
1.4558

> <Gold.PLP.ligand.clash>
0.0000

> <Gold.PLP.ligand.torsion>
0.3033

> <Gold.PLP.Chemscore.Hbond>
1.8320

> <Gold.PLP.Chemscore.CHOScore>
0.0000

> <Gold.PLP.Chemscore.Metal>
0.0000

> <Gold.Chemscore.Hbonds>
donor molecule, donor type, donor heavy atom, donor atom, acceptor molecule, acceptor atom, score
      L1  H     6    25       P1  8028  0.90
      L1  H     9    26       P1  8028  1.00

> <Gold.PLP.Chemscore.Internal.Correction>
0.0200

> <Gold.Rescore>
     Score         DG    S(hbond)    S(metal)    S(lipo)     H(rot)  DE(clash)    DE(int)     intcor
     17.47     -22.24       1.81        0.00     116.82       1.16       1.99       2.78       ----

> <Gold.Chemscore.Fitness>
17.4696

> <Gold.Chemscore.DG>
-22.2375

> <Gold.Chemscore.ZeroCoef>
-5.4800

> <Gold.Chemscore.Hbond>
1.8147

> <Gold.Chemscore.Metal>
0.0000

> <Gold.Chemscore.Lipo>
116.8157

> <Gold.Chemscore.Internal_Hbond>
0.0000

> <Gold.Chemscore.DEClash>
1.9920

> <Gold.Chemscore.DEInternal>
2.7759

> <Gold.Chemscore.Rot>
1.1606

> <Gold.Chemscore.Internal.Correction>
   9.000000E+99

> <Gold.Chemscore.Hbonds>
donor molecule, donor type, donor heavy atom, donor atom, acceptor molecule, acceptor atom, score
      L1  H     6    25       P1  8028  0.85
      L1  H     9    26       P1  8028  0.96

> <Gold.Chemscore.Hbond.Weighted>
-6.0612

> <Gold.Chemscore.Metal.Weighted>
-0.0000

> <Gold.Chemscore.Lipo.Weighted>
-13.6674

> <Gold.Chemscore.Internal_Hbond.Weighted>
0.0000

> <Gold.Chemscore.DEClash.Weighted>
1.9920

> <Gold.Chemscore.DEInternal.Weighted>
2.7759

> <Gold.Chemscore.Rot.Weighted>
2.9712

> <Gold.Chemscore.Internal.Correction.Weighted>
   9.000000E+99

> <Gold.Protein.RotatedTorsions>
[ 6907 6896 6895 6894 ] final   51.28 input  -60.11 | X-H torsion
[ 7974 7965 7964 7962 ] final  -49.33 input  175.53 | X-H torsion
[ 8008 7997 7996 7995 ] final  -12.46 input   59.86 | X-H torsion
[ 10167 10162 10161 10158 ] final  -57.52 input  -65.29 | X-H torsion
[ 10718 10713 10712 10709 ] final -161.08 input   66.30 | X-H torsion
[ 10763 10752 10751 10750 ] final  171.34 input  -60.55 | X-H torsion
[ 11005 11000 10999 10996 ] final -114.60 input  -57.11 | X-H torsion

> <Gold.Protein.ActiveResidues>
 VAL166  LYS551  ARG553  GLY616  TRP617  ASP618  TYR619  PRO620  LYS621  CYS622 
 ASP623  PHE694  ASN695  SER759  ASP760  ASP761  ALA762  ILE779  LEU786  VAL792 
 PHE793  MET794  SER795  GLU796  ALA797  LYS798  CYS799  TRP800  GLU811  SER814 

> <Gold.Protein.RotatedAtoms>
  152.3110  134.7497  160.0336 H   0  0  0  0  0  0  0  0  0  0  0  0  # atno 6907 bound_to 6896
  151.7978  133.3361  159.3526 H   0  0  0  0  0  0  0  0  0  0  0  0  # atno 6908 bound_to 6896
  150.7320  134.5712  159.5936 H   0  0  0  0  0  0  0  0  0  0  0  0  # atno 6909 bound_to 6896
  145.9417  140.7656  142.9548 H   0  0  0  0  0  0  0  0  0  0  0  0  # atno 7974 bound_to 7965
  154.5376  140.2275  155.8696 H   0  0  0  0  0  0  0  0  0  0  0  0  # atno 8008 bound_to 7997
  156.1826  140.3096  155.9141 H   0  0  0  0  0  0  0  0  0  0  0  0  # atno 8009 bound_to 7997
  155.3323  140.0446  157.3033 H   0  0  0  0  0  0  0  0  0  0  0  0  # atno 8010 bound_to 7997
  140.6253  143.2436  151.5379 H   0  0  0  0  0  0  0  0  0  0  0  0  # atno 10167 bound_to 10162
  156.5912  130.8771  151.2890 H   0  0  0  0  0  0  0  0  0  0  0  0  # atno 10718 bound_to 10713
  154.4105  135.2756  155.2040 H   0  0  0  0  0  0  0  0  0  0  0  0  # atno 10763 bound_to 10752
  154.4027  135.6040  153.5910 H   0  0  0  0  0  0  0  0  0  0  0  0  # atno 10764 bound_to 10752
  152.9831  135.5930  154.4386 H   0  0  0  0  0  0  0  0  0  0  0  0  # atno 10765 bound_to 10752
  141.0541  133.9640  157.2785 H   0  0  0  0  0  0  0  0  0  0  0  0  # atno 11005 bound_to 11000
  144.6780  140.2291  143.7357 LP  0  0  0  0  0  0  0  0  0  0  0  0  # atno 17320 bound_to 7965
  145.8290  139.2077  143.1893 LP  0  0  0  0  0  0  0  0  0  0  0  0  # atno 17321 bound_to 7965
  139.5474  144.2484  152.1468 LP  0  0  0  0  0  0  0  0  0  0  0  0  # atno 17342 bound_to 10162
  140.1714  144.4932  150.6577 LP  0  0  0  0  0  0  0  0  0  0  0  0  # atno 17343 bound_to 10162
  157.7303  130.9683  150.1827 LP  0  0  0  0  0  0  0  0  0  0  0  0  # atno 17370 bound_to 10713
  156.2548  130.3704  149.8193 LP  0  0  0  0  0  0  0  0  0  0  0  0  # atno 17371 bound_to 10713
  139.9375  135.0195  156.8603 LP  0  0  0  0  0  0  0  0  0  0  0  0  # atno 17394 bound_to 11000
  140.5998  134.0182  155.7532 LP  0  0  0  0  0  0  0  0  0  0  0  0  # atno 17395 bound_to 11000

$$$$
