AV-unprocessed.smi:1793|AV-procd|sdf|7231|dock6
  -GOLD-   22720 8473D 1   1.00000     0.00000
 Structure written by MMmdl.
 47 49  0  0  0  0  0  0  0  0  2 V2000
  148.1853  134.5050  158.3873 C   0  0  0  0  0  0  0  0  0  0  0  0
  148.4407  135.6737  159.3521 C   0  0  1  0  0  0  0  0  0  0  0  0
  148.4169  136.9182  158.5861 N   0  0  0  0  0  0  0  0  0  0  0  0
  149.4288  137.7921  158.4875 C   0  0  0  0  0  0  0  0  0  0  0  0
  150.5169  137.6446  159.0435 O   0  0  0  0  0  0  0  0  0  0  0  0
  149.0878  138.8444  157.7257 N   0  0  0  0  0  0  0  0  0  0  0  0
  149.8603  140.0060  157.4407 C   0  0  0  0  0  0  0  0  0  0  0  0
  151.1801  140.1693  157.9343 C   0  0  0  0  0  0  0  0  0  0  0  0
  151.9180  141.3188  157.5930 C   0  0  0  0  0  0  0  0  0  0  0  0
  151.3305  142.2826  156.7547 C   0  0  0  0  0  0  0  0  0  0  0  0
  150.0789  142.0901  156.2889 N   0  3  0  0  0  0  0  0  0  0  0  0
  149.3217  141.0042  156.5830 C   0  0  0  0  0  0  0  0  0  0  0  0
  148.0146  140.9207  156.0569 N   0  0  0  0  0  0  0  0  0  0  0  0
  147.2717  142.1781  156.0928 C   0  0  0  0  0  0  0  0  0  0  0  0
  146.4264  142.2199  154.8179 C   0  0  0  0  0  0  0  0  0  0  0  0
  147.2148  141.3474  153.8490 C   0  0  0  0  0  0  0  0  0  0  0  0
  147.7879  140.2696  154.7674 C   0  0  0  0  0  0  0  0  0  0  0  0
  147.4009  135.7292  160.4923 C   0  0  1  0  0  0  0  0  0  0  0  0
  147.2629  134.4280  161.2879 C   0  0  0  0  0  0  0  0  0  0  0  0
  146.7771  134.9294  162.6279 C   0  0  0  0  0  0  0  0  0  0  0  0
  147.5925  136.2068  162.7824 C   0  0  0  0  0  0  0  0  0  0  0  0
  147.7593  136.7145  161.4623 O   0  0  0  0  0  0  0  0  0  0  0  0
  148.2635  133.5439  158.8959 H   0  0  0  0  0  0  0  0  0  0  0  0
  148.9131  134.5006  157.5752 H   0  0  0  0  0  0  0  0  0  0  0  0
  147.1913  134.5663  157.9430 H   0  0  0  0  0  0  0  0  0  0  0  0
  149.4324  135.5333  159.7861 H   0  0  0  0  0  0  0  0  0  0  0  0
  147.5586  137.1287  158.0984 H   0  0  0  0  0  0  0  0  0  0  0  0
  148.1309  138.8680  157.4051 H   0  0  0  0  0  0  0  0  0  0  0  0
  151.6469  139.4222  158.5581 H   0  0  0  0  0  0  0  0  0  0  0  0
  152.9230  141.4546  157.9650 H   0  0  0  0  0  0  0  0  0  0  0  0
  151.8207  143.1929  156.4415 H   0  0  0  0  0  0  0  0  0  0  0  0
  146.6457  142.2414  156.9830 H   0  0  0  0  0  0  0  0  0  0  0  0
  147.9631  143.0223  156.1093 H   0  0  0  0  0  0  0  0  0  0  0  0
  145.4496  141.7716  155.0057 H   0  0  0  0  0  0  0  0  0  0  0  0
  146.2671  143.2333  154.4481 H   0  0  0  0  0  0  0  0  0  0  0  0
  146.6024  140.9391  153.0444 H   0  0  0  0  0  0  0  0  0  0  0  0
  148.0243  141.9258  153.4015 H   0  0  0  0  0  0  0  0  0  0  0  0
  148.6677  139.7952  154.3333 H   0  0  0  0  0  0  0  0  0  0  0  0
  147.0493  139.4820  154.9207 H   0  0  0  0  0  0  0  0  0  0  0  0
  146.4224  136.0058  160.0955 H   0  0  0  0  0  0  0  0  0  0  0  0
  146.5782  133.7164  160.8261 H   0  0  0  0  0  0  0  0  0  0  0  0
  148.2328  133.9422  161.4053 H   0  0  0  0  0  0  0  0  0  0  0  0
  145.7128  135.1633  162.5788 H   0  0  0  0  0  0  0  0  0  0  0  0
  146.9378  134.2187  163.4391 H   0  0  0  0  0  0  0  0  0  0  0  0
  147.1109  136.9359  163.4342 H   0  0  0  0  0  0  0  0  0  0  0  0
  148.5772  135.9815  163.1935 H   0  0  0  0  0  0  0  0  0  0  0  0
  149.6778  142.8066  155.6835 H   0  0  0  0  0  0  0  0  0  0  0  0
  1  2  1  0  0  0  0
  1 23  1  0  0  0  0
  1 24  1  0  0  0  0
  1 25  1  0  0  0  0
  2  3  1  0  0  0  0
  2 18  1  0  0  0  0
  2 26  1  0  0  0  0
  3  4  1  0  0  0  0
  3 27  1  0  0  0  0
  4  5  2  0  0  0  0
  4  6  1  0  0  0  0
  6  7  1  0  0  0  0
  6 28  1  0  0  0  0
  7 12  1  0  0  0  0
  7  8  2  0  0  0  0
  8  9  1  0  0  0  0
  8 29  1  0  0  0  0
  9 10  2  0  0  0  0
  9 30  1  0  0  0  0
 10 11  1  0  0  0  0
 10 31  1  0  0  0  0
 11 12  2  0  0  0  0
 11 47  1  0  0  0  0
 12 13  1  0  0  0  0
 13 17  1  0  0  0  0
 13 14  1  0  0  0  0
 14 15  1  0  0  0  0
 14 32  1  0  0  0  0
 14 33  1  0  0  0  0
 15 16  1  0  0  0  0
 15 34  1  0  0  0  0
 15 35  1  0  0  0  0
 16 17  1  0  0  0  0
 16 36  1  0  0  0  0
 16 37  1  0  0  0  0
 17 38  1  0  0  0  0
 17 39  1  0  0  0  0
 18 22  1  0  0  0  0
 18 19  1  0  0  0  0
 18 40  1  0  0  0  0
 19 20  1  0  0  0  0
 19 41  1  0  0  0  0
 19 42  1  0  0  0  0
 20 21  1  0  0  0  0
 20 43  1  0  0  0  0
 20 44  1  0  0  0  0
 21 22  1  0  0  0  0
 21 45  1  0  0  0  0
 21 46  1  0  0  0  0
M  CHG  1  11   1
M  END
> <s_m_source_file>
AV-unprocessed.smi

> <i_m_source_file_index>
1793

> <i_lp_mmshare_version>
43012

> <i_f3d_flags>
0

> <s_epik_input>
TzFbQ0gyXVtDSDJdW0NIMl1bQ0BIXTFbQ0BIXShbQ0gzXSlbTkhdQyg9TylbTkhdYzJbY0hdW2NIXVtjSF1uYzJOM1tDSDJdW0NIMl1bQ0gyXVtDSDJdMw==

> <s_epik_cmdline>
J2VwaWtfcHl0aG9uJywgJy1waCcsICc3LjAnLCAnLXRuJywgJzgnLCAnLW1hJywgJzIwMCcsICctbWV0YWxfYmluZGluZycsICctaW1hZScsICc8aW5maWxlLm1hZT4nLCAnLW9tYWUnLCAnPG91dGZpbGUubWFlPic=

> <r_lp_tautomer_probability>
0.999994

> <r_epik_Ionization_Penalty>
1.11092

> <r_epik_Ionization_Penalty_Charging>
1.1109

> <r_epik_Ionization_Penalty_Neutral>
1.9363e-05

> <r_epik_State_Penalty>
1.16888

> <r_epik_Charging_Adjusted_Penalty>
2.27978

> <i_epik_Tot_Q>
1

> <i_epik_Tot_abs_Q>
1

> <r_epik_Metal_State_Penalty>
1.25472

> <b_epik_Metal_Only>
0

> <s_lp_Force_Field>
OPLS_2005

> <r_lp_Energy>
52.0623

> <b_lp_Chiralities_Consistent>
1

> <s_lp_Variant>
AV-unprocessed.smi:1793-8

> <Gold.Version>
5.8.1

> <Gold.Id.Protein>
6NUR|6NUR_protein|mol2

> <Gold.PLP.Fitness>
44.4891

> <Gold.PLP.PLP>
-35.5395

> <Gold.PLP.part.hbond>
-3.4988

> <Gold.PLP.part.metal>
0.0000

> <Gold.PLP.part.buried>
-4.6826

> <Gold.PLP.part.nonpolar>
-28.2281

> <Gold.PLP.part.repulsive>
0.4336

> <Gold.PLP.ligand.clash>
0.0000

> <Gold.PLP.ligand.torsion>
0.6596

> <Gold.PLP.Chemscore.Hbond>
3.3695

> <Gold.PLP.Chemscore.CHOScore>
0.0000

> <Gold.PLP.Chemscore.Metal>
0.0000

> <Gold.Chemscore.Hbonds>
donor molecule, donor type, donor heavy atom, donor atom, acceptor molecule, acceptor atom, score
      L1  H    11    47       P1  8028  1.60
      P1  H  6931  6943       L1    22  0.88

> <Gold.PLP.Chemscore.Internal.Correction>
0.1605

> <Gold.Rescore>
     Score         DG    S(hbond)    S(metal)    S(lipo)     H(rot)  DE(clash)    DE(int)     intcor
     15.59     -18.07       1.94        0.00      82.56       1.38       0.04       2.43       ----

> <Gold.Chemscore.Fitness>
15.5943

> <Gold.Chemscore.DG>
-18.0699

> <Gold.Chemscore.ZeroCoef>
-5.4800

> <Gold.Chemscore.Hbond>
1.9354

> <Gold.Chemscore.Metal>
0.0000

> <Gold.Chemscore.Lipo>
82.5554

> <Gold.Chemscore.Internal_Hbond>
0.0000

> <Gold.Chemscore.DEClash>
0.0408

> <Gold.Chemscore.DEInternal>
2.4347

> <Gold.Chemscore.Rot>
1.3802

> <Gold.Chemscore.Internal.Correction>
   9.000000E+99

> <Gold.Chemscore.Hbonds>
donor molecule, donor type, donor heavy atom, donor atom, acceptor molecule, acceptor atom, score
      L1  H    11    47       P1  8028  0.75
      P1  H  6931  6943       L1    22  0.16
      P1  H  6934  6947       L1    22  0.05

> <Gold.Chemscore.Hbond.Weighted>
-6.4641

> <Gold.Chemscore.Metal.Weighted>
-0.0000

> <Gold.Chemscore.Lipo.Weighted>
-9.6590

> <Gold.Chemscore.Internal_Hbond.Weighted>
0.0000

> <Gold.Chemscore.DEClash.Weighted>
0.0408

> <Gold.Chemscore.DEInternal.Weighted>
2.4347

> <Gold.Chemscore.Rot.Weighted>
3.5332

> <Gold.Chemscore.Internal.Correction.Weighted>
   9.000000E+99

> <Gold.Protein.RotatedTorsions>
[ 6907 6896 6895 6894 ] final  151.33 input  -60.11 | X-H torsion
[ 7974 7965 7964 7962 ] final   22.08 input  175.53 | X-H torsion
[ 8008 7997 7996 7995 ] final  -16.51 input   59.86 | X-H torsion
[ 10167 10162 10161 10158 ] final   61.69 input  -65.29 | X-H torsion
[ 10718 10713 10712 10709 ] final  -66.52 input   66.30 | X-H torsion
[ 10763 10752 10751 10750 ] final  -20.40 input  -60.55 | X-H torsion
[ 11005 11000 10999 10996 ] final  -43.13 input  -57.11 | X-H torsion

> <Gold.Protein.ActiveResidues>
 VAL166  LYS551  ARG553  GLY616  TRP617  ASP618  TYR619  PRO620  LYS621  CYS622 
 ASP623  PHE694  ASN695  SER759  ASP760  ASP761  ALA762  ILE779  LEU786  VAL792 
 PHE793  MET794  SER795  GLU796  ALA797  LYS798  CYS799  TRP800  GLU811  SER814 

> <Gold.Protein.RotatedAtoms>
  152.1021  133.4255  159.4591 H   0  0  0  0  0  0  0  0  0  0  0  0  # atno 6907 bound_to 6896
  150.6864  134.2748  159.4612 H   0  0  0  0  0  0  0  0  0  0  0  0  # atno 6908 bound_to 6896
  152.0610  134.9594  160.0625 H   0  0  0  0  0  0  0  0  0  0  0  0  # atno 6909 bound_to 6896
  146.2044  139.7937  142.8737 H   0  0  0  0  0  0  0  0  0  0  0  0  # atno 7974 bound_to 7965
  154.5047  140.2167  155.9274 H   0  0  0  0  0  0  0  0  0  0  0  0  # atno 8008 bound_to 7997
  156.1479  140.3167  155.8567 H   0  0  0  0  0  0  0  0  0  0  0  0  # atno 8009 bound_to 7997
  155.3995  140.0483  157.3028 H   0  0  0  0  0  0  0  0  0  0  0  0  # atno 8010 bound_to 7997
  140.1520  144.4453  150.6754 H   0  0  0  0  0  0  0  0  0  0  0  0  # atno 10167 bound_to 10162
  156.0608  130.4263  150.1720 H   0  0  0  0  0  0  0  0  0  0  0  0  # atno 10718 bound_to 10713
  153.6199  135.6993  153.5314 H   0  0  0  0  0  0  0  0  0  0  0  0  # atno 10763 bound_to 10752
  153.2946  135.4147  155.1198 H   0  0  0  0  0  0  0  0  0  0  0  0  # atno 10764 bound_to 10752
  154.8545  135.3634  154.5739 H   0  0  0  0  0  0  0  0  0  0  0  0  # atno 10765 bound_to 10752
  141.0363  133.6798  156.2690 H   0  0  0  0  0  0  0  0  0  0  0  0  # atno 11005 bound_to 11000
  145.3370  141.0279  143.3414 LP  0  0  0  0  0  0  0  0  0  0  0  0  # atno 17320 bound_to 7965
  144.8758  139.4973  143.6746 LP  0  0  0  0  0  0  0  0  0  0  0  0  # atno 17321 bound_to 7965
  140.6696  143.2281  151.5657 LP  0  0  0  0  0  0  0  0  0  0  0  0  # atno 17342 bound_to 10162
  139.5421  144.2619  152.1371 LP  0  0  0  0  0  0  0  0  0  0  0  0  # atno 17343 bound_to 10162
  156.9789  130.9858  151.3442 LP  0  0  0  0  0  0  0  0  0  0  0  0  # atno 17370 bound_to 10713
  157.5615  130.8249  149.8271 LP  0  0  0  0  0  0  0  0  0  0  0  0  # atno 17371 bound_to 10713
  140.6316  134.5258  157.5560 LP  0  0  0  0  0  0  0  0  0  0  0  0  # atno 17394 bound_to 11000
  139.9243  134.8087  156.1116 LP  0  0  0  0  0  0  0  0  0  0  0  0  # atno 17395 bound_to 11000

$$$$
