AV-unprocessed.smi:1000|AV-procd|sdf|4356|dock9
  -GOLD-   22720 2253D 1   1.00000     0.00000
 Structure written by MMmdl.
 40 41  0  0  0  0  0  0  0  0  1 V2000
  150.5670  135.6328  155.7927 C   0  0  0  0  0  0  0  0  0  0  0  0
  149.6997  136.2311  157.3195 S   0  0  1  0  0  0  0  0  0  0  0  0
  149.5294  135.0227  158.2425 O   0  0  0  0  0  0  0  0  0  0  0  0
  151.1546  137.1130  157.9871 C   0  0  0  0  0  0  0  0  0  0  0  0
  151.6252  136.9426  159.2261 N   0  0  0  0  0  0  0  0  0  0  0  0
  152.7160  137.7872  159.3123 N   0  0  0  0  0  0  0  0  0  0  0  0
  152.7855  138.3746  158.1160 C   0  0  0  0  0  0  0  0  0  0  0  0
  151.8417  137.9970  157.2392 N   0  0  0  0  0  0  0  0  0  0  0  0
  151.6395  138.4414  155.8717 C   0  0  0  0  0  0  0  0  0  0  0  0
  151.0255  139.8405  155.8358 C   0  0  0  0  0  0  0  0  0  0  0  0
  150.7233  140.3482  154.7567 O   0  0  0  0  0  0  0  0  0  0  0  0
  150.8496  140.4475  157.0202 N   0  0  0  0  0  0  0  0  0  0  0  0
  150.2899  141.7817  157.2189 C   0  0  0  0  0  0  0  0  0  0  0  0
  151.3734  142.8756  157.1651 C   0  0  0  0  0  0  0  0  0  0  0  0
  151.8016  143.3789  158.5347 C   0  0  0  0  0  0  0  0  0  0  0  0
  151.6593  144.6692  158.8962 C   0  0  0  0  0  0  0  0  0  0  0  0
  152.0288  145.2168  160.2629 C   0  0  0  0  0  0  0  0  0  0  0  0
  152.2438  144.1008  161.2986 C   0  0  0  0  0  0  0  0  0  0  0  0
  153.0743  142.9543  160.7088 C   0  0  0  0  0  0  0  0  0  0  0  0
  152.3823  142.3342  159.4818 C   0  0  0  0  0  0  0  0  0  0  0  0
  151.3865  136.2968  155.5175 H   0  0  0  0  0  0  0  0  0  0  0  0
  149.8661  135.5912  154.9591 H   0  0  0  0  0  0  0  0  0  0  0  0
  150.9699  134.6331  155.9559 H   0  0  0  0  0  0  0  0  0  0  0  0
  153.5468  139.1015  157.8738 H   0  0  0  0  0  0  0  0  0  0  0  0
  152.5976  138.4368  155.3502 H   0  0  0  0  0  0  0  0  0  0  0  0
  150.9925  137.7321  155.3543 H   0  0  0  0  0  0  0  0  0  0  0  0
  151.1290  139.9473  157.8517 H   0  0  0  0  0  0  0  0  0  0  0  0
  149.4894  141.9853  156.5062 H   0  0  0  0  0  0  0  0  0  0  0  0
  149.8221  141.7933  158.2035 H   0  0  0  0  0  0  0  0  0  0  0  0
  152.2558  142.4927  156.6515 H   0  0  0  0  0  0  0  0  0  0  0  0
  151.0149  143.7112  156.5623 H   0  0  0  0  0  0  0  0  0  0  0  0
  151.2555  145.3825  158.1926 H   0  0  0  0  0  0  0  0  0  0  0  0
  152.9350  145.8135  160.1551 H   0  0  0  0  0  0  0  0  0  0  0  0
  151.2426  145.8907  160.6039 H   0  0  0  0  0  0  0  0  0  0  0  0
  152.7287  144.5045  162.1879 H   0  0  0  0  0  0  0  0  0  0  0  0
  151.2771  143.7119  161.6220 H   0  0  0  0  0  0  0  0  0  0  0  0
  154.0547  143.3355  160.4199 H   0  0  0  0  0  0  0  0  0  0  0  0
  153.2520  142.1868  161.4626 H   0  0  0  0  0  0  0  0  0  0  0  0
  151.5743  141.6804  159.8096 H   0  0  0  0  0  0  0  0  0  0  0  0
  153.0935  141.7076  158.9429 H   0  0  0  0  0  0  0  0  0  0  0  0
  1  2  1  0  0  0  0
  1 21  1  0  0  0  0
  1 22  1  0  0  0  0
  1 23  1  0  0  0  0
  2  3  2  0  0  0  0
  2  4  1  0  0  0  0
  4  8  1  0  0  0  0
  4  5  2  0  0  0  0
  5  6  1  0  0  0  0
  6  7  2  0  0  0  0
  7  8  1  0  0  0  0
  7 24  1  0  0  0  0
  8  9  1  0  0  0  0
  9 10  1  0  0  0  0
  9 25  1  0  0  0  0
  9 26  1  0  0  0  0
 10 11  2  0  0  0  0
 10 12  1  0  0  0  0
 12 13  1  0  0  0  0
 12 27  1  0  0  0  0
 13 14  1  0  0  0  0
 13 28  1  0  0  0  0
 13 29  1  0  0  0  0
 14 15  1  0  0  0  0
 14 30  1  0  0  0  0
 14 31  1  0  0  0  0
 15 20  1  0  0  0  0
 15 16  2  0  0  0  0
 16 17  1  0  0  0  0
 16 32  1  0  0  0  0
 17 18  1  0  0  0  0
 17 33  1  0  0  0  0
 17 34  1  0  0  0  0
 18 19  1  0  0  0  0
 18 35  1  0  0  0  0
 18 36  1  0  0  0  0
 19 20  1  0  0  0  0
 19 37  1  0  0  0  0
 19 38  1  0  0  0  0
 20 39  1  0  0  0  0
 20 40  1  0  0  0  0
M  END
> <s_m_source_file>
AV-unprocessed.smi

> <i_m_source_file_index>
1000

> <i_lp_mmshare_version>
43012

> <i_f3d_flags>
0

> <s_epik_input>
W0NIM11bU0BdKD1PKWMxbm5bY0hdbjFbQ0gyXUMoPU8pW05IXVtDSDJdW0NIMl1DMj1bQ0hdW0NIMl1bQ0gyXVtDSDJdW0NIMl0y

> <s_epik_cmdline>
J2VwaWtfcHl0aG9uJywgJy1waCcsICc3LjAnLCAnLXRuJywgJzgnLCAnLW1hJywgJzIwMCcsICctbWV0YWxfYmluZGluZycsICctaW1hZScsICc8aW5maWxlLm1hZT4nLCAnLW9tYWUnLCAnPG91dGZpbGUubWFlPic=

> <r_lp_tautomer_probability>
1

> <r_epik_Ionization_Penalty>
9.22166e-08

> <r_epik_Ionization_Penalty_Charging>
0

> <r_epik_Ionization_Penalty_Neutral>
9.22166e-08

> <r_epik_State_Penalty>
-0

> <r_epik_Charging_Adjusted_Penalty>
0

> <i_epik_Tot_Q>
0

> <i_epik_Tot_abs_Q>
0

> <r_epik_Metal_State_Penalty>
-0

> <b_epik_Metal_Only>
0

> <s_lp_Force_Field>
OPLS_2005

> <r_lp_Energy>
7.40605

> <b_lp_Chiralities_Consistent>
1

> <s_lp_Variant>
AV-unprocessed.smi:1000-2

> <Gold.Version>
5.8.1

> <Gold.Id.Protein>
6NUR|6NUR_protein|mol2

> <Gold.PLP.Fitness>
46.3845

> <Gold.PLP.PLP>
-39.4894

> <Gold.PLP.part.hbond>
-3.0000

> <Gold.PLP.part.metal>
0.0000

> <Gold.PLP.part.buried>
-6.4710

> <Gold.PLP.part.nonpolar>
-30.3137

> <Gold.PLP.part.repulsive>
0.1444

> <Gold.PLP.ligand.clash>
0.0000

> <Gold.PLP.ligand.torsion>
1.2324

> <Gold.PLP.Chemscore.Hbond>
2.7600

> <Gold.PLP.Chemscore.CHOScore>
0.0000

> <Gold.PLP.Chemscore.Metal>
0.0000

> <Gold.Chemscore.Hbonds>
donor molecule, donor type, donor heavy atom, donor atom, acceptor molecule, acceptor atom, score
      P1  H  6896  6907       L1     3  0.88
      P1  H  6896  6908       L1     5  0.90
      P1  H  7989  7998       L1    11  1.00

> <Gold.PLP.Chemscore.Internal.Correction>
1.0797

> <Gold.Rescore>
     Score         DG    S(hbond)    S(metal)    S(lipo)     H(rot)  DE(clash)    DE(int)     intcor
     17.98     -19.89       2.65        0.00      97.17       2.26       0.01       1.89       ----

> <Gold.Chemscore.Fitness>
17.9843

> <Gold.Chemscore.DG>
-19.8937

> <Gold.Chemscore.ZeroCoef>
-5.4800

> <Gold.Chemscore.Hbond>
2.6470

> <Gold.Chemscore.Metal>
0.0000

> <Gold.Chemscore.Lipo>
97.1674

> <Gold.Chemscore.Internal_Hbond>
0.0000

> <Gold.Chemscore.DEClash>
0.0149

> <Gold.Chemscore.DEInternal>
1.8946

> <Gold.Chemscore.Rot>
2.2640

> <Gold.Chemscore.Internal.Correction>
   9.000000E+99

> <Gold.Chemscore.Hbonds>
donor molecule, donor type, donor heavy atom, donor atom, acceptor molecule, acceptor atom, score
      P1  H  6896  6907       L1     3  0.86
      P1  H  6896  6908       L1     5  0.79
      P1  H  7989  7998       L1    11  0.99

> <Gold.Chemscore.Hbond.Weighted>
-8.8408

> <Gold.Chemscore.Metal.Weighted>
-0.0000

> <Gold.Chemscore.Lipo.Weighted>
-11.3686

> <Gold.Chemscore.Internal_Hbond.Weighted>
0.0000

> <Gold.Chemscore.DEClash.Weighted>
0.0149

> <Gold.Chemscore.DEInternal.Weighted>
1.8946

> <Gold.Chemscore.Rot.Weighted>
5.7957

> <Gold.Chemscore.Internal.Correction.Weighted>
   9.000000E+99

> <Gold.Protein.RotatedTorsions>
[ 6907 6896 6895 6894 ] final -104.41 input  -60.11 | X-H torsion
[ 7974 7965 7964 7962 ] final  -91.46 input  175.53 | X-H torsion
[ 8008 7997 7996 7995 ] final  140.94 input   59.86 | X-H torsion
[ 10167 10162 10161 10158 ] final  -33.19 input  -65.29 | X-H torsion
[ 10718 10713 10712 10709 ] final   15.30 input   66.30 | X-H torsion
[ 10763 10752 10751 10750 ] final   55.30 input  -60.55 | X-H torsion
[ 11005 11000 10999 10996 ] final -177.73 input  -57.11 | X-H torsion

> <Gold.Protein.ActiveResidues>
 VAL166  LYS551  ARG553  GLY616  TRP617  ASP618  TYR619  PRO620  LYS621  CYS622 
 ASP623  PHE694  ASN695  SER759  ASP760  ASP761  ALA762  ILE779  LEU786  VAL792 
 PHE793  MET794  SER795  GLU796  ALA797  LYS798  CYS799  TRP800  GLU811  SER814 

> <Gold.Protein.RotatedAtoms>
  150.7286  134.0281  159.3723 H   0  0  0  0  0  0  0  0  0  0  0  0  # atno 6907 bound_to 6896
  151.8249  135.0638  160.0439 H   0  0  0  0  0  0  0  0  0  0  0  0  # atno 6908 bound_to 6896
  152.2976  133.5587  159.5634 H   0  0  0  0  0  0  0  0  0  0  0  0  # atno 6909 bound_to 6896
  145.4129  140.9546  143.2224 H   0  0  0  0  0  0  0  0  0  0  0  0  # atno 7974 bound_to 7965
  156.2972  140.2328  156.4484 H   0  0  0  0  0  0  0  0  0  0  0  0  # atno 8008 bound_to 7997
  154.8123  140.0442  157.1372 H   0  0  0  0  0  0  0  0  0  0  0  0  # atno 8009 bound_to 7997
  154.9409  140.3029  155.5125 H   0  0  0  0  0  0  0  0  0  0  0  0  # atno 8010 bound_to 7997
  140.7208  143.3639  151.1910 H   0  0  0  0  0  0  0  0  0  0  0  0  # atno 10167 bound_to 10162
  157.0515  130.6272  149.5769 H   0  0  0  0  0  0  0  0  0  0  0  0  # atno 10718 bound_to 10713
  152.9815  135.5715  154.5044 H   0  0  0  0  0  0  0  0  0  0  0  0  # atno 10763 bound_to 10752
  154.4558  135.2780  155.1750 H   0  0  0  0  0  0  0  0  0  0  0  0  # atno 10764 bound_to 10752
  154.3359  135.6239  153.5626 H   0  0  0  0  0  0  0  0  0  0  0  0  # atno 10765 bound_to 10752
  140.4377  134.6460  157.4742 H   0  0  0  0  0  0  0  0  0  0  0  0  # atno 11005 bound_to 11000
  144.8297  139.5650  143.6949 LP  0  0  0  0  0  0  0  0  0  0  0  0  # atno 17320 bound_to 7965
  146.2696  139.6602  142.9305 LP  0  0  0  0  0  0  0  0  0  0  0  0  # atno 17321 bound_to 7965
  139.7196  143.9244  152.2980 LP  0  0  0  0  0  0  0  0  0  0  0  0  # atno 17342 bound_to 10162
  139.8997  144.6919  150.8679 LP  0  0  0  0  0  0  0  0  0  0  0  0  # atno 17343 bound_to 10162
  156.0006  130.5084  150.7648 LP  0  0  0  0  0  0  0  0  0  0  0  0  # atno 17370 bound_to 10713
  157.5026  131.0919  151.0296 LP  0  0  0  0  0  0  0  0  0  0  0  0  # atno 17371 bound_to 10713
  140.0091  134.6718  155.9409 LP  0  0  0  0  0  0  0  0  0  0  0  0  # atno 17394 bound_to 11000
  141.1719  133.6538  156.4682 LP  0  0  0  0  0  0  0  0  0  0  0  0  # atno 17395 bound_to 11000

$$$$
