AV-unprocessed.smi:2775|AV-procd|sdf|10698|dock10
  -GOLD-   2272015133D 1   1.00000     0.00000
 Structure written by MMmdl.
 43 46  0  0  0  0  0  0  0  0  2 V2000
  145.2259  131.2806  151.3634 C   0  0  0  0  0  0  0  0  0  0  0  0
  144.8721  132.6820  151.8231 C   0  0  0  0  0  0  0  0  0  0  0  0
  143.5632  132.9852  151.9660 N   0  3  0  0  0  0  0  0  0  0  0  0
  143.1289  134.1993  152.3626 C   0  0  0  0  0  0  0  0  0  0  0  0
  144.0573  135.2175  152.6546 C   0  0  0  0  0  0  0  0  0  0  0  0
  145.4449  134.9497  152.5357 C   0  0  0  0  0  0  0  0  0  0  0  0
  146.4578  135.9139  152.7953 N   0  0  0  0  0  0  0  0  0  0  0  0
  146.4775  136.9221  153.6884 C   0  0  0  0  0  0  0  0  0  0  0  0
  145.5644  137.1931  154.4645 O   0  0  0  0  0  0  0  0  0  0  0  0
  147.6177  137.6343  153.6756 N   0  0  0  0  0  0  0  0  0  0  0  0
  147.9535  138.7850  154.5160 C   0  0  2  0  0  0  0  0  0  0  0  0
  147.7120  140.1267  153.7992 C   0  0  1  0  0  0  0  0  0  0  0  0
  146.6824  141.0856  154.3339 C   0  0  0  0  0  0  0  0  0  0  0  0
  147.5230  142.0669  155.1552 C   0  0  0  0  0  0  0  0  0  0  0  0
  148.7113  141.3453  155.4708 O   0  0  0  0  0  0  0  0  0  0  0  0
  149.0694  140.5861  154.3200 C   0  0  1  0  0  0  0  0  0  0  0  0
  149.4576  139.1258  154.5814 C   0  0  0  0  0  0  0  0  0  0  0  0
  150.5132  138.4413  153.6920 C   0  0  0  0  0  0  0  0  0  0  0  0
  151.0091  137.6853  154.9276 C   0  0  0  0  0  0  0  0  0  0  0  0
  150.3113  138.7361  155.7964 C   0  0  0  0  0  0  0  0  0  0  0  0
  145.8519  133.6640  152.1003 C   0  0  0  0  0  0  0  0  0  0  0  0
  147.5332  133.2913  151.9116 Cl  0  0  0  0  0  0  0  0  0  0  0  0
  145.8656  130.7904  152.0980 H   0  0  0  0  0  0  0  0  0  0  0  0
  145.7577  131.3166  150.4122 H   0  0  0  0  0  0  0  0  0  0  0  0
  144.3338  130.6673  151.2301 H   0  0  0  0  0  0  0  0  0  0  0  0
  142.0576  134.3214  152.4302 H   0  0  0  0  0  0  0  0  0  0  0  0
  143.6824  136.1840  152.9524 H   0  0  0  0  0  0  0  0  0  0  0  0
  147.3110  135.7863  152.2704 H   0  0  0  0  0  0  0  0  0  0  0  0
  148.3218  137.3543  153.0078 H   0  0  0  0  0  0  0  0  0  0  0  0
  147.4909  138.7762  155.5054 H   0  0  0  0  0  0  0  0  0  0  0  0
  147.7200  140.0284  152.7121 H   0  0  0  0  0  0  0  0  0  0  0  0
  146.1298  141.5937  153.5432 H   0  0  0  0  0  0  0  0  0  0  0  0
  145.9611  140.5690  154.9679 H   0  0  0  0  0  0  0  0  0  0  0  0
  147.7868  142.9396  154.5559 H   0  0  0  0  0  0  0  0  0  0  0  0
  147.0107  142.4116  156.0534 H   0  0  0  0  0  0  0  0  0  0  0  0
  149.6708  141.1296  153.5901 H   0  0  0  0  0  0  0  0  0  0  0  0
  150.1312  137.8056  152.8934 H   0  0  0  0  0  0  0  0  0  0  0  0
  151.2578  139.1427  153.3129 H   0  0  0  0  0  0  0  0  0  0  0  0
  150.5672  136.6932  155.0229 H   0  0  0  0  0  0  0  0  0  0  0  0
  152.0937  137.6553  155.0356 H   0  0  0  0  0  0  0  0  0  0  0  0
  150.9844  139.5352  156.1106 H   0  0  0  0  0  0  0  0  0  0  0  0
  149.7504  138.3283  156.6375 H   0  0  0  0  0  0  0  0  0  0  0  0
  142.8711  132.2644  151.7603 H   0  0  0  0  0  0  0  0  0  0  0  0
  1  2  1  0  0  0  0
  1 23  1  0  0  0  0
  1 24  1  0  0  0  0
  1 25  1  0  0  0  0
  2 21  1  0  0  0  0
  2  3  2  0  0  0  0
  3  4  1  0  0  0  0
  3 43  1  0  0  0  0
  4  5  2  0  0  0  0
  4 26  1  0  0  0  0
  5  6  1  0  0  0  0
  5 27  1  0  0  0  0
  6  7  1  0  0  0  0
  6 21  2  0  0  0  0
  7  8  1  0  0  0  0
  7 28  1  0  0  0  0
  8  9  2  0  0  0  0
  8 10  1  0  0  0  0
 10 11  1  0  0  0  0
 10 29  1  0  0  0  0
 11 17  1  0  0  0  0
 11 12  1  0  0  0  0
 11 30  1  0  0  0  0
 12 16  1  0  0  0  0
 12 13  1  0  0  0  0
 12 31  1  0  0  0  0
 13 14  1  0  0  0  0
 13 32  1  0  0  0  0
 13 33  1  0  0  0  0
 14 15  1  0  0  0  0
 14 34  1  0  0  0  0
 14 35  1  0  0  0  0
 15 16  1  0  0  0  0
 16 17  1  0  0  0  0
 16 36  1  0  0  0  0
 17 20  1  0  0  0  0
 17 18  1  0  0  0  0
 18 19  1  0  0  0  0
 18 37  1  0  0  0  0
 18 38  1  0  0  0  0
 19 20  1  0  0  0  0
 19 39  1  0  0  0  0
 19 40  1  0  0  0  0
 20 41  1  0  0  0  0
 20 42  1  0  0  0  0
 21 22  1  0  0  0  0
M  CHG  1   3   1
M  END
> <s_m_source_file>
AV-unprocessed.smi

> <i_m_source_file_index>
2775

> <i_lp_mmshare_version>
43012

> <i_f3d_flags>
0

> <s_epik_input>
W0NIM11jMW5bY0hdW2NIXWMoYzFDbClbTkhdQyg9TylbTkhdW0NAQEhdMltDQEhdKFtDSDJdW0NIMl1PMylbQ0BASF0zQzI0W0NIMl1bQ0gyXVtDSDJdNA==

> <s_epik_cmdline>
J2VwaWtfcHl0aG9uJywgJy1waCcsICc3LjAnLCAnLXRuJywgJzgnLCAnLW1hJywgJzIwMCcsICctbWV0YWxfYmluZGluZycsICctaW1hZScsICc8aW5maWxlLm1hZT4nLCAnLW9tYWUnLCAnPG91dGZpbGUubWFlPic=

> <r_epik_Ionization_Penalty>
2.4104

> <r_epik_Ionization_Penalty_Charging>
2.41038

> <r_epik_Ionization_Penalty_Neutral>
1.9872e-05

> <r_epik_State_Penalty>
2.56896

> <r_epik_Charging_Adjusted_Penalty>
4.97934

> <i_epik_Tot_Q>
1

> <i_epik_Tot_abs_Q>
1

> <r_epik_Metal_State_Penalty>
2.57906

> <b_epik_Metal_Only>
0

> <s_lp_Force_Field>
OPLS_2005

> <r_lp_Energy>
60.4392

> <b_lp_Chiralities_Consistent>
1

> <s_lp_Variant>
AV-unprocessed.smi:2775-11

> <Gold.Version>
5.8.1

> <Gold.Id.Protein>
6NUR|6NUR_protein|mol2

> <Gold.PLP.Fitness>
36.3935

> <Gold.PLP.PLP>
-31.1826

> <Gold.PLP.part.hbond>
-2.3902

> <Gold.PLP.part.metal>
0.0000

> <Gold.PLP.part.buried>
-2.3280

> <Gold.PLP.part.nonpolar>
-26.1557

> <Gold.PLP.part.repulsive>
0.1873

> <Gold.PLP.ligand.clash>
0.0000

> <Gold.PLP.ligand.torsion>
0.4912

> <Gold.PLP.Chemscore.Hbond>
2.0000

> <Gold.PLP.Chemscore.CHOScore>
0.0000

> <Gold.PLP.Chemscore.Metal>
0.0000

> <Gold.Chemscore.Hbonds>
donor molecule, donor type, donor heavy atom, donor atom, acceptor molecule, acceptor atom, score
      L1  H     7    28       P1  7948  1.00
      L1  H    10    29       P1  7948  1.00

> <Gold.PLP.Chemscore.Internal.Correction>
0.1932

> <Gold.Rescore>
     Score         DG    S(hbond)    S(metal)    S(lipo)     H(rot)  DE(clash)    DE(int)     intcor
     19.41     -20.06       1.94        0.00      90.96       1.00       0.09       0.56       ----

> <Gold.Chemscore.Fitness>
19.4071

> <Gold.Chemscore.DG>
-20.0575

> <Gold.Chemscore.ZeroCoef>
-5.4800

> <Gold.Chemscore.Hbond>
1.9447

> <Gold.Chemscore.Metal>
0.0000

> <Gold.Chemscore.Lipo>
90.9578

> <Gold.Chemscore.Internal_Hbond>
0.0000

> <Gold.Chemscore.DEClash>
0.0860

> <Gold.Chemscore.DEInternal>
0.5643

> <Gold.Chemscore.Rot>
1.0000

> <Gold.Chemscore.Internal.Correction>
   9.000000E+99

> <Gold.Chemscore.Hbonds>
donor molecule, donor type, donor heavy atom, donor atom, acceptor molecule, acceptor atom, score
      L1  H     7    28       P1  7948  0.97
      L1  H    10    29       P1  7948  0.96

> <Gold.Chemscore.Hbond.Weighted>
-6.4954

> <Gold.Chemscore.Metal.Weighted>
-0.0000

> <Gold.Chemscore.Lipo.Weighted>
-10.6421

> <Gold.Chemscore.Internal_Hbond.Weighted>
0.0000

> <Gold.Chemscore.DEClash.Weighted>
0.0860

> <Gold.Chemscore.DEInternal.Weighted>
0.5643

> <Gold.Chemscore.Rot.Weighted>
2.5600

> <Gold.Chemscore.Internal.Correction.Weighted>
   9.000000E+99

> <Gold.Protein.RotatedTorsions>
[ 6907 6896 6895 6894 ] final  104.61 input  -60.11 | X-H torsion
[ 7974 7965 7964 7962 ] final  -47.99 input  175.53 | X-H torsion
[ 8008 7997 7996 7995 ] final  -69.90 input   59.86 | X-H torsion
[ 10167 10162 10161 10158 ] final  -71.88 input  -65.29 | X-H torsion
[ 10718 10713 10712 10709 ] final   41.74 input   66.30 | X-H torsion
[ 10763 10752 10751 10750 ] final  -11.79 input  -60.55 | X-H torsion
[ 11005 11000 10999 10996 ] final  162.32 input  -57.11 | X-H torsion

> <Gold.Protein.ActiveResidues>
 VAL166  LYS551  ARG553  GLY616  TRP617  ASP618  TYR619  PRO620  LYS621  CYS622 
 ASP623  PHE694  ASN695  SER759  ASP760  ASP761  ALA762  ILE779  LEU786  VAL792 
 PHE793  MET794  SER795  GLU796  ALA797  LYS798  CYS799  TRP800  GLU811  SER814 

> <Gold.Protein.RotatedAtoms>
  152.5258  133.9651  159.7735 H   0  0  0  0  0  0  0  0  0  0  0  0  # atno 6907 bound_to 6896
  150.9934  133.6119  159.2712 H   0  0  0  0  0  0  0  0  0  0  0  0  # atno 6908 bound_to 6896
  151.3254  135.0835  159.9373 H   0  0  0  0  0  0  0  0  0  0  0  0  # atno 6909 bound_to 6896
  145.9558  140.7528  142.9482 H   0  0  0  0  0  0  0  0  0  0  0  0  # atno 7974 bound_to 7965
  154.4972  140.0844  156.7722 H   0  0  0  0  0  0  0  0  0  0  0  0  # atno 8008 bound_to 7997
  155.4088  140.3440  155.4244 H   0  0  0  0  0  0  0  0  0  0  0  0  # atno 8009 bound_to 7997
  156.1409  140.1529  156.8909 H   0  0  0  0  0  0  0  0  0  0  0  0  # atno 8010 bound_to 7997
  140.5237  143.2329  151.7385 H   0  0  0  0  0  0  0  0  0  0  0  0  # atno 10167 bound_to 10162
  157.3969  130.7838  149.7316 H   0  0  0  0  0  0  0  0  0  0  0  0  # atno 10718 bound_to 10713
  153.4889  135.7017  153.5895 H   0  0  0  0  0  0  0  0  0  0  0  0  # atno 10763 bound_to 10752
  153.4076  135.3856  155.2029 H   0  0  0  0  0  0  0  0  0  0  0  0  # atno 10764 bound_to 10752
  154.8718  135.3897  154.4347 H   0  0  0  0  0  0  0  0  0  0  0  0  # atno 10765 bound_to 10752
  140.2246  134.8170  157.3255 H   0  0  0  0  0  0  0  0  0  0  0  0  # atno 11005 bound_to 11000
  144.6805  140.2510  143.7331 LP  0  0  0  0  0  0  0  0  0  0  0  0  # atno 17320 bound_to 7965
  145.8108  139.2002  143.1994 LP  0  0  0  0  0  0  0  0  0  0  0  0  # atno 17321 bound_to 7965
  139.4931  144.4217  151.9970 LP  0  0  0  0  0  0  0  0  0  0  0  0  # atno 17342 bound_to 10162
  140.3315  144.3310  150.5986 LP  0  0  0  0  0  0  0  0  0  0  0  0  # atno 17343 bound_to 10162
  155.9813  130.4021  150.3481 LP  0  0  0  0  0  0  0  0  0  0  0  0  # atno 17370 bound_to 10713
  157.1603  131.0343  151.2844 LP  0  0  0  0  0  0  0  0  0  0  0  0  # atno 17371 bound_to 10713
  140.1814  134.4485  155.7770 LP  0  0  0  0  0  0  0  0  0  0  0  0  # atno 17394 bound_to 11000
  141.2221  133.6985  156.7874 LP  0  0  0  0  0  0  0  0  0  0  0  0  # atno 17395 bound_to 11000

$$$$
