AV-unprocessed.smi:2119|AV-procd|sdf|8637|dock4
  -GOLD-   2272011383D 1   1.00000     0.00000
 Structure written by MMmdl.
 48 50  0  0  0  0  0  0  0  0  2 V2000
  144.8694  137.0153  151.6911 O   0  0  0  0  0  0  0  0  0  0  0  0
  146.0513  136.7207  151.8652 C   0  0  0  0  0  0  0  0  0  0  0  0
  146.9807  137.6061  152.2517 N   0  0  0  0  0  0  0  0  0  0  0  0
  146.7161  139.0074  152.5623 C   0  0  0  0  0  0  0  0  0  0  0  0
  146.4685  139.2901  154.0717 C   0  0  1  0  0  0  0  0  0  0  0  0
  147.7818  139.1901  154.8843 C   0  0  1  0  0  0  0  0  0  0  0  0
  148.3851  137.7968  154.9339 C   0  0  0  0  0  0  0  0  0  0  0  0
  149.8218  138.0860  155.3521 C   0  0  0  0  0  0  0  0  0  0  0  0
  150.1433  139.3395  154.7611 O   0  0  0  0  0  0  0  0  0  0  0  0
  148.9580  139.9816  154.3011 C   0  0  0  0  0  0  0  0  0  0  0  0
  145.8004  140.5973  154.3580 N   0  3  0  0  0  0  0  0  0  0  0  0
  145.1860  140.7423  155.7011 C   0  0  0  0  0  0  0  0  0  0  0  0
  144.3466  142.0299  155.7547 C   0  0  0  0  0  0  0  0  0  0  0  0
  145.1658  143.1465  155.4271 O   0  0  0  0  0  0  0  0  0  0  0  0
  145.6994  143.0548  154.1108 C   0  0  0  0  0  0  0  0  0  0  0  0
  146.5854  141.8031  153.9975 C   0  0  0  0  0  0  0  0  0  0  0  0
  146.5877  135.5039  151.6715 N   0  0  0  0  0  0  0  0  0  0  0  0
  145.9321  134.2986  151.3012 C   0  0  0  0  0  0  0  0  0  0  0  0
  144.5260  134.3160  151.1940 C   0  0  0  0  0  0  0  0  0  0  0  0
  143.8519  133.1419  150.8084 C   0  0  0  0  0  0  0  0  0  0  0  0
  144.6155  131.9911  150.5337 C   0  0  0  0  0  0  0  0  0  0  0  0
  145.9621  131.9601  150.6166 N   0  0  0  0  0  0  0  0  0  0  0  0
  146.6024  133.0894  150.9887 C   0  0  0  0  0  0  0  0  0  0  0  0
  147.9302  137.2822  152.3665 H   0  0  0  0  0  0  0  0  0  0  0  0
  147.5609  139.5965  152.2027 H   0  0  0  0  0  0  0  0  0  0  0  0
  145.8633  139.3333  151.9666 H   0  0  0  0  0  0  0  0  0  0  0  0
  145.8153  138.5042  154.4538 H   0  0  0  0  0  0  0  0  0  0  0  0
  147.6141  139.5303  155.9073 H   0  0  0  0  0  0  0  0  0  0  0  0
  147.8745  137.1301  155.6296 H   0  0  0  0  0  0  0  0  0  0  0  0
  148.3699  137.3359  153.9449 H   0  0  0  0  0  0  0  0  0  0  0  0
  149.8902  138.1854  156.4360 H   0  0  0  0  0  0  0  0  0  0  0  0
  150.5150  137.3057  155.0373 H   0  0  0  0  0  0  0  0  0  0  0  0
  148.9516  139.9415  153.2109 H   0  0  0  0  0  0  0  0  0  0  0  0
  148.9427  141.0304  154.5988 H   0  0  0  0  0  0  0  0  0  0  0  0
  144.5539  139.8825  155.9229 H   0  0  0  0  0  0  0  0  0  0  0  0
  145.9595  140.7835  156.4687 H   0  0  0  0  0  0  0  0  0  0  0  0
  143.4984  141.9715  155.0705 H   0  0  0  0  0  0  0  0  0  0  0  0
  143.9390  142.1716  156.7557 H   0  0  0  0  0  0  0  0  0  0  0  0
  144.8902  143.0269  153.3791 H   0  0  0  0  0  0  0  0  0  0  0  0
  146.2856  143.9501  153.9032 H   0  0  0  0  0  0  0  0  0  0  0  0
  147.4470  141.9108  154.6548 H   0  0  0  0  0  0  0  0  0  0  0  0
  146.9644  141.7150  152.9787 H   0  0  0  0  0  0  0  0  0  0  0  0
  147.5903  135.4374  151.7676 H   0  0  0  0  0  0  0  0  0  0  0  0
  143.9674  135.2158  151.4073 H   0  0  0  0  0  0  0  0  0  0  0  0
  142.7752  133.1240  150.7237 H   0  0  0  0  0  0  0  0  0  0  0  0
  144.1321  131.0730  150.2342 H   0  0  0  0  0  0  0  0  0  0  0  0
  147.6780  133.0091  151.0098 H   0  0  0  0  0  0  0  0  0  0  0  0
  145.0246  140.6146  153.7117 H   0  0  0  0  0  0  0  0  0  0  0  0
  1  2  2  0  0  0  0
  2  3  1  0  0  0  0
  2 17  1  0  0  0  0
  3  4  1  0  0  0  0
  3 24  1  0  0  0  0
  4  5  1  0  0  0  0
  4 25  1  0  0  0  0
  4 26  1  0  0  0  0
  5  6  1  0  0  0  0
  5 11  1  0  0  0  0
  5 27  1  0  0  0  0
  6 10  1  0  0  0  0
  6  7  1  0  0  0  0
  6 28  1  0  0  0  0
  7  8  1  0  0  0  0
  7 29  1  0  0  0  0
  7 30  1  0  0  0  0
  8  9  1  0  0  0  0
  8 31  1  0  0  0  0
  8 32  1  0  0  0  0
  9 10  1  0  0  0  0
 10 33  1  0  0  0  0
 10 34  1  0  0  0  0
 11 16  1  0  0  0  0
 11 12  1  0  0  0  0
 11 48  1  0  0  0  0
 12 13  1  0  0  0  0
 12 35  1  0  0  0  0
 12 36  1  0  0  0  0
 13 14  1  0  0  0  0
 13 37  1  0  0  0  0
 13 38  1  0  0  0  0
 14 15  1  0  0  0  0
 15 16  1  0  0  0  0
 15 39  1  0  0  0  0
 15 40  1  0  0  0  0
 16 41  1  0  0  0  0
 16 42  1  0  0  0  0
 17 18  1  0  0  0  0
 17 43  1  0  0  0  0
 18 23  1  0  0  0  0
 18 19  2  0  0  0  0
 19 20  1  0  0  0  0
 19 44  1  0  0  0  0
 20 21  2  0  0  0  0
 20 45  1  0  0  0  0
 21 22  1  0  0  0  0
 21 46  1  0  0  0  0
 22 23  2  0  0  0  0
 23 47  1  0  0  0  0
M  CHG  1  11   1
M  END
> <s_m_source_file>
AV-unprocessed.smi

> <i_m_source_file_index>
2119

> <i_lp_mmshare_version>
43012

> <i_f3d_flags>
0

> <s_epik_input>
W2NIXTFuW2NIXVtjSF1bY0hdYzFbTkhdQyg9TylbTkhdW0NIMl1bQ0BIXShbQ0BASF0yW0NIMl1bQ0gyXU9bQ0gyXTIpTjNbQ0gyXVtDSDJdT1tDSDJdW0NIMl0z

> <s_epik_cmdline>
J2VwaWtfcHl0aG9uJywgJy1waCcsICc3LjAnLCAnLXRuJywgJzgnLCAnLW1hJywgJzIwMCcsICctbWV0YWxfYmluZGluZycsICctaW1hZScsICc8aW5maWxlLm1hZT4nLCAnLW9tYWUnLCAnPG91dGZpbGUubWFlPic=

> <r_epik_Ionization_Penalty>
0.987463

> <r_epik_Ionization_Penalty_Charging>
0.98326

> <r_epik_Ionization_Penalty_Neutral>
0.00420251

> <r_epik_State_Penalty>
1.01721

> <r_epik_Charging_Adjusted_Penalty>
2.00047

> <i_epik_Tot_Q>
1

> <i_epik_Tot_abs_Q>
1

> <r_epik_Metal_State_Penalty>
1.01439

> <b_epik_Metal_Only>
0

> <s_lp_Force_Field>
OPLS_2005

> <r_lp_Energy>
47.2413

> <b_lp_Chiralities_Consistent>
1

> <s_lp_Variant>
AV-unprocessed.smi:2119-8

> <Gold.Version>
5.8.1

> <Gold.Id.Protein>
6NUR|6NUR_protein|mol2

> <Gold.PLP.Fitness>
49.6958

> <Gold.PLP.PLP>
-33.7804

> <Gold.PLP.part.hbond>
-3.7492

> <Gold.PLP.part.metal>
0.0000

> <Gold.PLP.part.buried>
-4.4619

> <Gold.PLP.part.nonpolar>
-29.5405

> <Gold.PLP.part.repulsive>
2.5964

> <Gold.PLP.ligand.clash>
0.0000

> <Gold.PLP.ligand.torsion>
0.5741

> <Gold.PLP.Chemscore.Hbond>
4.9840

> <Gold.PLP.Chemscore.CHOScore>
0.6384

> <Gold.PLP.Chemscore.Metal>
0.0000

> <Gold.Chemscore.Hbonds>
donor molecule, donor type, donor heavy atom, donor atom, acceptor molecule, acceptor atom, score
      L1  H     3    24       P1  7948  0.86
      L1  H    11    48       P1 10175  2.00
      L1  H    17    43       P1  7948  0.94
      L1  C    23    47       P1 10747  0.71

> <Gold.PLP.Chemscore.Internal.Correction>
0.1965

> <Gold.Rescore>
     Score         DG    S(hbond)    S(metal)    S(lipo)     H(rot)  DE(clash)    DE(int)     intcor
     18.43     -22.60       3.81        0.00      74.75       1.70       1.21       2.97       ----

> <Gold.Chemscore.Fitness>
18.4250

> <Gold.Chemscore.DG>
-22.5975

> <Gold.Chemscore.ZeroCoef>
-5.4800

> <Gold.Chemscore.Hbond>
3.8113

> <Gold.Chemscore.Metal>
0.0000

> <Gold.Chemscore.Lipo>
74.7468

> <Gold.Chemscore.Internal_Hbond>
0.0000

> <Gold.Chemscore.DEClash>
1.2074

> <Gold.Chemscore.DEInternal>
2.9651

> <Gold.Chemscore.Rot>
1.7021

> <Gold.Chemscore.Internal.Correction>
   9.000000E+99

> <Gold.Chemscore.Hbonds>
donor molecule, donor type, donor heavy atom, donor atom, acceptor molecule, acceptor atom, score
      L1  H     3    24       P1  7948  0.79
      L1  H    11    48       P1 10175  0.98
      L1  H    17    43       P1  7948  0.82

> <Gold.Chemscore.Hbond.Weighted>
-12.7297

> <Gold.Chemscore.Metal.Weighted>
-0.0000

> <Gold.Chemscore.Lipo.Weighted>
-8.7454

> <Gold.Chemscore.Internal_Hbond.Weighted>
0.0000

> <Gold.Chemscore.DEClash.Weighted>
1.2074

> <Gold.Chemscore.DEInternal.Weighted>
2.9651

> <Gold.Chemscore.Rot.Weighted>
4.3575

> <Gold.Chemscore.Internal.Correction.Weighted>
   9.000000E+99

> <Gold.Protein.RotatedTorsions>
[ 6907 6896 6895 6894 ] final  166.45 input  -60.11 | X-H torsion
[ 7974 7965 7964 7962 ] final  -24.92 input  175.53 | X-H torsion
[ 8008 7997 7996 7995 ] final   -1.07 input   59.86 | X-H torsion
[ 10167 10162 10161 10158 ] final  -73.68 input  -65.29 | X-H torsion
[ 10718 10713 10712 10709 ] final  178.48 input   66.30 | X-H torsion
[ 10763 10752 10751 10750 ] final   13.30 input  -60.55 | X-H torsion
[ 11005 11000 10999 10996 ] final -155.97 input  -57.11 | X-H torsion

> <Gold.Protein.ActiveResidues>
 VAL166  LYS551  ARG553  GLY616  TRP617  ASP618  TYR619  PRO620  LYS621  CYS622 
 ASP623  PHE694  ASN695  SER759  ASP760  ASP761  ALA762  ILE779  LEU786  VAL792 
 PHE793  MET794  SER795  GLU796  ALA797  LYS798  CYS799  TRP800  GLU811  SER814 

> <Gold.Protein.RotatedAtoms>
  151.8787  133.3490  159.3758 H   0  0  0  0  0  0  0  0  0  0  0  0  # atno 6907 bound_to 6896
  150.7133  134.5041  159.5585 H   0  0  0  0  0  0  0  0  0  0  0  0  # atno 6908 bound_to 6896
  152.2588  134.8056  160.0485 H   0  0  0  0  0  0  0  0  0  0  0  0  # atno 6909 bound_to 6896
  146.1524  140.4817  142.8606 H   0  0  0  0  0  0  0  0  0  0  0  0  # atno 7974 bound_to 7965
  154.6509  140.2568  155.7215 H   0  0  0  0  0  0  0  0  0  0  0  0  # atno 8008 bound_to 7997
  156.2574  140.2868  156.0863 H   0  0  0  0  0  0  0  0  0  0  0  0  # atno 8009 bound_to 7997
  155.1452  140.0381  157.2798 H   0  0  0  0  0  0  0  0  0  0  0  0  # atno 8010 bound_to 7997
  140.5090  143.2348  151.7625 H   0  0  0  0  0  0  0  0  0  0  0  0  # atno 10167 bound_to 10162
  156.8900  130.9844  151.3051 H   0  0  0  0  0  0  0  0  0  0  0  0  # atno 10718 bound_to 10713
  153.1735  135.6816  153.8575 H   0  0  0  0  0  0  0  0  0  0  0  0  # atno 10763 bound_to 10752
  153.7931  135.3166  155.3382 H   0  0  0  0  0  0  0  0  0  0  0  0  # atno 10764 bound_to 10752
  154.8014  135.4776  154.0377 H   0  0  0  0  0  0  0  0  0  0  0  0  # atno 10765 bound_to 10752
  140.6806  134.4148  157.5227 H   0  0  0  0  0  0  0  0  0  0  0  0  # atno 11005 bound_to 11000
  144.7920  140.6051  143.6535 LP  0  0  0  0  0  0  0  0  0  0  0  0  # atno 17320 bound_to 7965
  145.4791  139.1497  143.3772 LP  0  0  0  0  0  0  0  0  0  0  0  0  # atno 17321 bound_to 7965
  139.4891  144.4417  151.9756 LP  0  0  0  0  0  0  0  0  0  0  0  0  # atno 17342 bound_to 10162
  140.3509  144.3090  150.5949 LP  0  0  0  0  0  0  0  0  0  0  0  0  # atno 17343 bound_to 10162
  157.6090  130.8568  149.8920 LP  0  0  0  0  0  0  0  0  0  0  0  0  # atno 17370 bound_to 10713
  156.0634  130.3696  150.0932 LP  0  0  0  0  0  0  0  0  0  0  0  0  # atno 17371 bound_to 10713
  139.8953  134.8686  156.2139 LP  0  0  0  0  0  0  0  0  0  0  0  0  # atno 17394 bound_to 11000
  141.0320  133.6983  156.1447 LP  0  0  0  0  0  0  0  0  0  0  0  0  # atno 17395 bound_to 11000

$$$$
