AV-unprocessed.smi:289|AV-procd|sdf|2214|dock3
  -GOLD-   2262022 53D 1   1.00000     0.00000
 Structure written by MMmdl.
 51 54  0  0  0  0  0  0  0  0  1 V2000
  151.3789  137.4035  155.6959 O   0  0  0  0  0  0  0  0  0  0  0  0
  150.3439  137.2754  156.3530 C   0  0  0  0  0  0  0  0  0  0  0  0
  149.8923  138.4308  157.2713 C   0  0  0  0  0  0  0  0  0  0  0  0
  150.9324  138.8706  158.2285 N   0  0  0  0  0  0  0  0  0  0  0  0
  151.5571  137.8981  159.0472 C   0  0  0  0  0  0  0  0  0  0  0  0
  151.2300  136.7116  158.9931 O   0  0  0  0  0  0  0  0  0  0  0  0
  152.6081  138.3977  159.9246 C   0  0  0  0  0  0  0  0  0  0  0  0
  153.2860  137.5401  160.7062 F   0  0  0  0  0  0  0  0  0  0  0  0
  152.9256  139.7084  159.9531 C   0  0  0  0  0  0  0  0  0  0  0  0
  152.2784  140.6589  159.1803 N   0  0  0  0  0  0  0  0  0  0  0  0
  152.6937  142.1225  159.1592 C   0  0  1  0  0  0  0  0  0  0  0  0
  151.6201  143.0923  159.6722 C   0  0  0  0  0  0  0  0  0  0  0  0
  152.0252  143.3286  161.1248 C   0  0  0  0  0  0  0  0  0  0  0  0
  153.2892  142.4849  161.3211 C   0  0  0  0  0  0  0  0  0  0  0  0
  153.7871  142.2839  160.0054 O   0  0  0  0  0  0  0  0  0  0  0  0
  151.2932  140.2394  158.2580 C   0  0  0  0  0  0  0  0  0  0  0  0
  150.7609  141.0477  157.4938 O   0  0  0  0  0  0  0  0  0  0  0  0
  149.5893  136.1514  156.2928 N   0  0  0  0  0  0  0  0  0  0  0  0
  148.3164  135.9290  156.9933 C   0  0  0  0  0  0  0  0  0  0  0  0
  147.1830  135.8143  155.9530 C   0  0  0  0  0  0  0  0  0  0  0  0
  147.4902  134.7195  155.0134 N   0  0  0  0  0  0  0  0  0  0  0  0
  146.7808  133.5714  154.8750 C   0  0  0  0  0  0  0  0  0  0  0  0
  145.6297  133.4485  155.2946 O   0  0  0  0  0  0  0  0  0  0  0  0
  147.4078  132.4099  154.2083 C   0  0  0  0  0  0  0  0  0  0  0  0
  146.8475  131.4233  153.4425 C   0  0  0  0  0  0  0  0  0  0  0  0
  147.8971  130.5259  153.1023 C   0  0  0  0  0  0  0  0  0  0  0  0
  149.0196  131.0146  153.7062 C   0  0  0  0  0  0  0  0  0  0  0  0
  148.7364  132.1532  154.3952 O   0  0  0  0  0  0  0  0  0  0  0  0
  148.7852  134.9224  154.3428 C   0  0  0  0  0  0  0  0  0  0  0  0
  149.9016  135.0284  155.3988 C   0  0  0  0  0  0  0  0  0  0  0  0
  149.5730  139.2709  156.6528 H   0  0  0  0  0  0  0  0  0  0  0  0
  148.9899  138.1234  157.8020 H   0  0  0  0  0  0  0  0  0  0  0  0
  153.7329  140.0009  160.6057 H   0  0  0  0  0  0  0  0  0  0  0  0
  152.9545  142.3346  158.1211 H   0  0  0  0  0  0  0  0  0  0  0  0
  151.7086  144.0238  159.1118 H   0  0  0  0  0  0  0  0  0  0  0  0
  150.6070  142.7180  159.5273 H   0  0  0  0  0  0  0  0  0  0  0  0
  152.2433  144.3857  161.2820 H   0  0  0  0  0  0  0  0  0  0  0  0
  151.2412  143.0427  161.8265 H   0  0  0  0  0  0  0  0  0  0  0  0
  154.0277  142.9785  161.9532 H   0  0  0  0  0  0  0  0  0  0  0  0
  153.0496  141.5223  161.7751 H   0  0  0  0  0  0  0  0  0  0  0  0
  148.3858  135.0058  157.5706 H   0  0  0  0  0  0  0  0  0  0  0  0
  148.0693  136.7028  157.7177 H   0  0  0  0  0  0  0  0  0  0  0  0
  146.2506  135.6763  156.4963 H   0  0  0  0  0  0  0  0  0  0  0  0
  147.0788  136.7473  155.3973 H   0  0  0  0  0  0  0  0  0  0  0  0
  145.8072  131.3575  153.1592 H   0  0  0  0  0  0  0  0  0  0  0  0
  147.8360  129.6311  152.5003 H   0  0  0  0  0  0  0  0  0  0  0  0
  150.0488  130.6904  153.7529 H   0  0  0  0  0  0  0  0  0  0  0  0
  149.0243  134.1279  153.6347 H   0  0  0  0  0  0  0  0  0  0  0  0
  148.7392  135.8393  153.7530 H   0  0  0  0  0  0  0  0  0  0  0  0
  150.8660  135.1362  154.9014 H   0  0  0  0  0  0  0  0  0  0  0  0
  149.9657  134.1066  155.9791 H   0  0  0  0  0  0  0  0  0  0  0  0
  1  2  2  0  0  0  0
  2  3  1  0  0  0  0
  2 18  1  0  0  0  0
  3  4  1  0  0  0  0
  3 31  1  0  0  0  0
  3 32  1  0  0  0  0
  4 16  1  0  0  0  0
  4  5  1  0  0  0  0
  5  6  2  0  0  0  0
  5  7  1  0  0  0  0
  7  8  1  0  0  0  0
  7  9  2  0  0  0  0
  9 10  1  0  0  0  0
  9 33  1  0  0  0  0
 10 11  1  0  0  0  0
 10 16  1  0  0  0  0
 11 15  1  0  0  0  0
 11 12  1  0  0  0  0
 11 34  1  0  0  0  0
 12 13  1  0  0  0  0
 12 35  1  0  0  0  0
 12 36  1  0  0  0  0
 13 14  1  0  0  0  0
 13 37  1  0  0  0  0
 13 38  1  0  0  0  0
 14 15  1  0  0  0  0
 14 39  1  0  0  0  0
 14 40  1  0  0  0  0
 16 17  2  0  0  0  0
 18 30  1  0  0  0  0
 18 19  1  0  0  0  0
 19 20  1  0  0  0  0
 19 41  1  0  0  0  0
 19 42  1  0  0  0  0
 20 21  1  0  0  0  0
 20 43  1  0  0  0  0
 20 44  1  0  0  0  0
 21 22  1  0  0  0  0
 21 29  1  0  0  0  0
 22 23  2  0  0  0  0
 22 24  1  0  0  0  0
 24 28  1  0  0  0  0
 24 25  2  0  0  0  0
 25 26  1  0  0  0  0
 25 45  1  0  0  0  0
 26 27  2  0  0  0  0
 26 46  1  0  0  0  0
 27 28  1  0  0  0  0
 27 47  1  0  0  0  0
 29 30  1  0  0  0  0
 29 48  1  0  0  0  0
 29 49  1  0  0  0  0
 30 50  1  0  0  0  0
 30 51  1  0  0  0  0
M  END
> <s_m_source_file>
AV-unprocessed.smi

> <i_m_source_file_index>
289

> <i_lp_mmshare_version>
43012

> <i_f3d_flags>
0

> <s_epik_input>
bzFbY0hdW2NIXVtjSF1jMUMoPU8pTihbQ0gyXVtDSDJdMilbQ0gyXVtDSDJdTjJDKD1PKVtDSDJdbjNjKD1PKWMoRilbY0hdbihjMz1PKVtDQEBIXTRbQ0gyXVtDSDJdW0NIMl1PNA==

> <s_epik_cmdline>
J2VwaWtfcHl0aG9uJywgJy1waCcsICc3LjAnLCAnLXRuJywgJzgnLCAnLW1hJywgJzIwMCcsICctbWV0YWxfYmluZGluZycsICctaW1hZScsICc8aW5maWxlLm1hZT4nLCAnLW9tYWUnLCAnPG91dGZpbGUubWFlPic=

> <r_lp_tautomer_probability>
1

> <r_epik_Ionization_Penalty>
6.38128e-09

> <r_epik_Ionization_Penalty_Charging>
4.20153e-09

> <r_epik_Ionization_Penalty_Neutral>
2.17976e-09

> <r_epik_State_Penalty>
-0

> <r_epik_Charging_Adjusted_Penalty>
4.20153e-09

> <i_epik_Tot_Q>
0

> <i_epik_Tot_abs_Q>
0

> <r_epik_Metal_State_Penalty>
-0

> <b_epik_Metal_Only>
0

> <s_epik_Chemistry_Notes>
This compound contains an acetal/aminal-like group ( X-CH(R)-Y where X, Y are N, S, or O) that may be acid/base labile, releasing an aldehyde.

> <s_lp_Force_Field>
OPLS_2005

> <r_lp_Energy>
67.9556

> <b_lp_Chiralities_Consistent>
1

> <s_lp_Variant>
AV-unprocessed.smi:289-2

> <Gold.Version>
5.8.1

> <Gold.Id.Protein>
6NUR|6NUR_protein|mol2

> <Gold.PLP.Fitness>
46.0332

> <Gold.PLP.PLP>
-41.4089

> <Gold.PLP.part.hbond>
-1.9226

> <Gold.PLP.part.metal>
0.0000

> <Gold.PLP.part.buried>
-7.3625

> <Gold.PLP.part.nonpolar>
-31.7549

> <Gold.PLP.part.repulsive>
0.1354

> <Gold.PLP.ligand.clash>
0.0000

> <Gold.PLP.ligand.torsion>
0.7386

> <Gold.PLP.Chemscore.Hbond>
1.8240

> <Gold.PLP.Chemscore.CHOScore>
0.0000

> <Gold.PLP.Chemscore.Metal>
0.0000

> <Gold.Chemscore.Hbonds>
donor molecule, donor type, donor heavy atom, donor atom, acceptor molecule, acceptor atom, score
      P1  H  6896  6908       L1     6  1.00

> <Gold.PLP.Chemscore.Internal.Correction>
0.6296

> <Gold.Rescore>
     Score         DG    S(hbond)    S(metal)    S(lipo)     H(rot)  DE(clash)    DE(int)     intcor
     13.37     -16.79       1.79        0.00      81.74       1.66       0.03       3.40       ----

> <Gold.Chemscore.Fitness>
13.3679

> <Gold.Chemscore.DG>
-16.7932

> <Gold.Chemscore.ZeroCoef>
-5.4800

> <Gold.Chemscore.Hbond>
1.7945

> <Gold.Chemscore.Metal>
0.0000

> <Gold.Chemscore.Lipo>
81.7444

> <Gold.Chemscore.Internal_Hbond>
0.0000

> <Gold.Chemscore.DEClash>
0.0260

> <Gold.Chemscore.DEInternal>
3.3994

> <Gold.Chemscore.Rot>
1.6580

> <Gold.Chemscore.Internal.Correction>
   9.000000E+99

> <Gold.Chemscore.Hbonds>
donor molecule, donor type, donor heavy atom, donor atom, acceptor molecule, acceptor atom, score
      P1  H  6896  6908       L1     6  0.95

> <Gold.Chemscore.Hbond.Weighted>
-5.9937

> <Gold.Chemscore.Metal.Weighted>
-0.0000

> <Gold.Chemscore.Lipo.Weighted>
-9.5641

> <Gold.Chemscore.Internal_Hbond.Weighted>
0.0000

> <Gold.Chemscore.DEClash.Weighted>
0.0260

> <Gold.Chemscore.DEInternal.Weighted>
3.3994

> <Gold.Chemscore.Rot.Weighted>
4.2446

> <Gold.Chemscore.Internal.Correction.Weighted>
   9.000000E+99

> <Gold.Protein.RotatedTorsions>
[ 6907 6896 6895 6894 ] final -135.64 input  -60.11 | X-H torsion
[ 7974 7965 7964 7962 ] final   67.08 input  175.53 | X-H torsion
[ 8008 7997 7996 7995 ] final  -88.84 input   59.86 | X-H torsion
[ 10167 10162 10161 10158 ] final  -23.99 input  -65.29 | X-H torsion
[ 10718 10713 10712 10709 ] final -107.76 input   66.30 | X-H torsion
[ 10763 10752 10751 10750 ] final   64.24 input  -60.55 | X-H torsion
[ 11005 11000 10999 10996 ] final  116.05 input  -57.11 | X-H torsion

> <Gold.Protein.ActiveResidues>
 VAL166  LYS551  ARG553  GLY616  TRP617  ASP618  TYR619  PRO620  LYS621  CYS622 
 ASP623  PHE694  ASN695  SER759  ASP760  ASP761  ALA762  ILE779  LEU786  VAL792 
 PHE793  MET794  SER795  GLU796  ALA797  LYS798  CYS799  TRP800  GLU811  SER814 

> <Gold.Protein.RotatedAtoms>
  151.0003  133.6063  159.2695 H   0  0  0  0  0  0  0  0  0  0  0  0  # atno 6907 bound_to 6896
  151.3251  135.0827  159.9329 H   0  0  0  0  0  0  0  0  0  0  0  0  # atno 6908 bound_to 6896
  152.5272  133.9643  159.7786 H   0  0  0  0  0  0  0  0  0  0  0  0  # atno 6909 bound_to 6896
  145.8190  139.3074  143.1054 H   0  0  0  0  0  0  0  0  0  0  0  0  # atno 7974 bound_to 7965
  154.6796  140.0549  157.0251 H   0  0  0  0  0  0  0  0  0  0  0  0  # atno 8008 bound_to 7997
  155.0971  140.3225  155.4538 H   0  0  0  0  0  0  0  0  0  0  0  0  # atno 8009 bound_to 7997
  156.2689  140.2037  156.6097 H   0  0  0  0  0  0  0  0  0  0  0  0  # atno 8010 bound_to 7997
  140.7288  143.4393  151.0681 H   0  0  0  0  0  0  0  0  0  0  0  0  # atno 10167 bound_to 10162
  156.0452  130.5679  150.7867 H   0  0  0  0  0  0  0  0  0  0  0  0  # atno 10718 bound_to 10713
  153.0048  135.5400  154.6478 H   0  0  0  0  0  0  0  0  0  0  0  0  # atno 10763 bound_to 10752
  154.5717  135.2842  155.0822 H   0  0  0  0  0  0  0  0  0  0  0  0  # atno 10764 bound_to 10752
  154.1985  135.6488  153.5133 H   0  0  0  0  0  0  0  0  0  0  0  0  # atno 10765 bound_to 10752
  139.9029  134.9592  156.7138 H   0  0  0  0  0  0  0  0  0  0  0  0  # atno 11005 bound_to 11000
  145.9696  140.8771  143.0169 LP  0  0  0  0  0  0  0  0  0  0  0  0  # atno 17320 bound_to 7965
  144.6749  140.1926  143.7395 LP  0  0  0  0  0  0  0  0  0  0  0  0  # atno 17321 bound_to 7965
  139.8059  143.8019  152.3167 LP  0  0  0  0  0  0  0  0  0  0  0  0  # atno 17342 bound_to 10162
  139.8051  144.7358  150.9772 LP  0  0  0  0  0  0  0  0  0  0  0  0  # atno 17343 bound_to 10162
  157.5319  131.0937  150.9944 LP  0  0  0  0  0  0  0  0  0  0  0  0  # atno 17370 bound_to 10713
  157.0248  130.5688  149.5336 LP  0  0  0  0  0  0  0  0  0  0  0  0  # atno 17371 bound_to 10713
  140.7054  133.9269  155.8051 LP  0  0  0  0  0  0  0  0  0  0  0  0  # atno 17394 bound_to 11000
  141.0340  134.0716  157.3981 LP  0  0  0  0  0  0  0  0  0  0  0  0  # atno 17395 bound_to 11000

$$$$
