AV-unprocessed.smi:841|AV-procd|sdf|3915|dock3
  -GOLD-   22720 1373D 1   1.00000     0.00000
 Structure written by MMmdl.
 30 31  0  0  0  0  0  0  0  0  1 V2000
  151.6898  139.5870  159.4931 O   0  0  0  0  0  0  0  0  0  0  0  0
  152.0724  140.6684  159.0464 C   0  0  0  0  0  0  0  0  0  0  0  0
  153.0259  141.5434  159.8641 C   0  0  0  0  0  0  0  0  0  0  0  0
  152.5315  142.9046  159.9840 N   0  0  0  0  0  0  0  0  0  0  0  0
  152.1405  143.5792  161.1225 C   0  0  0  0  0  0  0  0  0  0  0  0
  151.7398  144.8270  160.7398 C   0  0  0  0  0  0  0  0  0  0  0  0
  151.9187  144.8209  159.3284 C   0  0  0  0  0  0  0  0  0  0  0  0
  152.3899  143.6688  158.8789 N   0  0  0  0  0  0  0  0  0  0  0  0
  151.6997  141.1477  157.8494 N   0  0  0  0  0  0  0  0  0  0  0  0
  150.8053  140.4807  156.9084 C   0  0  0  0  0  0  0  0  0  0  0  0
  151.5778  139.5961  155.9119 C   0  0  2  0  0  0  0  0  0  0  0  0
  150.6896  138.8658  154.9255 C   0  0  0  0  0  0  0  0  0  0  0  0
  151.6194  137.7702  154.4119 C   0  0  0  0  0  0  0  0  0  0  0  0
  152.5023  137.4704  155.4892 O   0  0  0  0  0  0  0  0  0  0  0  0
  152.3393  138.4242  156.5344 C   0  0  0  0  0  0  0  0  0  0  0  0
  153.1489  141.1079  160.8568 H   0  0  0  0  0  0  0  0  0  0  0  0
  154.0144  141.5762  159.4035 H   0  0  0  0  0  0  0  0  0  0  0  0
  152.1812  143.1197  162.0991 H   0  0  0  0  0  0  0  0  0  0  0  0
  151.3726  145.6222  161.3715 H   0  0  0  0  0  0  0  0  0  0  0  0
  151.7194  145.6128  158.6217 H   0  0  0  0  0  0  0  0  0  0  0  0
  152.0668  142.0447  157.5661 H   0  0  0  0  0  0  0  0  0  0  0  0
  150.0469  139.8988  157.4353 H   0  0  0  0  0  0  0  0  0  0  0  0
  150.2662  141.2553  156.3623 H   0  0  0  0  0  0  0  0  0  0  0  0
  152.2815  140.2122  155.3492 H   0  0  0  0  0  0  0  0  0  0  0  0
  149.8360  138.4204  155.4387 H   0  0  0  0  0  0  0  0  0  0  0  0
  150.3123  139.5087  154.1298 H   0  0  0  0  0  0  0  0  0  0  0  0
  151.0760  136.8845  154.0826 H   0  0  0  0  0  0  0  0  0  0  0  0
  152.2111  138.1358  153.5719 H   0  0  0  0  0  0  0  0  0  0  0  0
  153.3010  138.7232  156.9518 H   0  0  0  0  0  0  0  0  0  0  0  0
  151.7540  137.9627  157.3309 H   0  0  0  0  0  0  0  0  0  0  0  0
  1  2  2  0  0  0  0
  2  3  1  0  0  0  0
  2  9  1  0  0  0  0
  3  4  1  0  0  0  0
  3 16  1  0  0  0  0
  3 17  1  0  0  0  0
  4  8  1  0  0  0  0
  4  5  1  0  0  0  0
  5  6  2  0  0  0  0
  5 18  1  0  0  0  0
  6  7  1  0  0  0  0
  6 19  1  0  0  0  0
  7  8  2  0  0  0  0
  7 20  1  0  0  0  0
  9 10  1  0  0  0  0
  9 21  1  0  0  0  0
 10 11  1  0  0  0  0
 10 22  1  0  0  0  0
 10 23  1  0  0  0  0
 11 15  1  0  0  0  0
 11 12  1  0  0  0  0
 11 24  1  0  0  0  0
 12 13  1  0  0  0  0
 12 25  1  0  0  0  0
 12 26  1  0  0  0  0
 13 14  1  0  0  0  0
 13 27  1  0  0  0  0
 13 28  1  0  0  0  0
 14 15  1  0  0  0  0
 15 29  1  0  0  0  0
 15 30  1  0  0  0  0
M  END
> <s_m_source_file>
AV-unprocessed.smi

> <i_m_source_file_index>
841

> <i_lp_mmshare_version>
43012

> <i_f3d_flags>
0

> <s_epik_input>
bjFbY0hdW2NIXVtjSF1uMVtDSDJdQyg9TylbTkhdW0NIMl1bQ0BASF0yW0NIMl1bQ0gyXU9bQ0gyXTI=

> <s_epik_cmdline>
J2VwaWtfcHl0aG9uJywgJy1waCcsICc3LjAnLCAnLXRuJywgJzgnLCAnLW1hJywgJzIwMCcsICctbWV0YWxfYmluZGluZycsICctaW1hZScsICc8aW5maWxlLm1hZT4nLCAnLW9tYWUnLCAnPG91dGZpbGUubWFlPic=

> <r_lp_tautomer_probability>
1

> <r_epik_Ionization_Penalty>
1.49823e-05

> <r_epik_Ionization_Penalty_Charging>
0

> <r_epik_Ionization_Penalty_Neutral>
1.49823e-05

> <r_epik_State_Penalty>
-0

> <r_epik_Charging_Adjusted_Penalty>
0

> <i_epik_Tot_Q>
0

> <i_epik_Tot_abs_Q>
0

> <r_epik_Metal_State_Penalty>
-0

> <b_epik_Metal_Only>
0

> <s_lp_Force_Field>
OPLS_2005

> <r_lp_Energy>
19.4913

> <b_lp_Chiralities_Consistent>
1

> <s_lp_Variant>
AV-unprocessed.smi:841-1

> <Gold.Version>
5.8.1

> <Gold.Id.Protein>
6NUR|6NUR_protein|mol2

> <Gold.PLP.Fitness>
38.3469

> <Gold.PLP.PLP>
-37.3506

> <Gold.PLP.part.hbond>
-1.0000

> <Gold.PLP.part.metal>
0.0000

> <Gold.PLP.part.buried>
-4.9891

> <Gold.PLP.part.nonpolar>
-32.0956

> <Gold.PLP.part.repulsive>
0.1297

> <Gold.PLP.ligand.clash>
0.0000

> <Gold.PLP.ligand.torsion>
0.2767

> <Gold.PLP.Chemscore.Hbond>
0.5099

> <Gold.PLP.Chemscore.CHOScore>
0.0000

> <Gold.PLP.Chemscore.Metal>
0.0000

> <Gold.Chemscore.Hbonds>
donor molecule, donor type, donor heavy atom, donor atom, acceptor molecule, acceptor atom, score
      P1  H 10752 10765       L1    14  0.39

> <Gold.PLP.Chemscore.Internal.Correction>
0.0202

> <Gold.Rescore>
     Score         DG    S(hbond)    S(metal)    S(lipo)     H(rot)  DE(clash)    DE(int)     intcor
     12.67     -12.89       0.78        0.00      77.85       1.68       0.03       0.19       ----

> <Gold.Chemscore.Fitness>
12.6688

> <Gold.Chemscore.DG>
-12.8861

> <Gold.Chemscore.ZeroCoef>
-5.4800

> <Gold.Chemscore.Hbond>
0.7759

> <Gold.Chemscore.Metal>
0.0000

> <Gold.Chemscore.Lipo>
77.8467

> <Gold.Chemscore.Internal_Hbond>
0.0000

> <Gold.Chemscore.DEClash>
0.0310

> <Gold.Chemscore.DEInternal>
0.1863

> <Gold.Chemscore.Rot>
1.6771

> <Gold.Chemscore.Internal.Correction>
   9.000000E+99

> <Gold.Chemscore.Hbonds>
donor molecule, donor type, donor heavy atom, donor atom, acceptor molecule, acceptor atom, score
      P1  H 10752 10765       L1    14  0.04

> <Gold.Chemscore.Hbond.Weighted>
-2.5914

> <Gold.Chemscore.Metal.Weighted>
-0.0000

> <Gold.Chemscore.Lipo.Weighted>
-9.1081

> <Gold.Chemscore.Internal_Hbond.Weighted>
0.0000

> <Gold.Chemscore.DEClash.Weighted>
0.0310

> <Gold.Chemscore.DEInternal.Weighted>
0.1863

> <Gold.Chemscore.Rot.Weighted>
4.2934

> <Gold.Chemscore.Internal.Correction.Weighted>
   9.000000E+99

> <Gold.Protein.RotatedTorsions>
[ 6907 6896 6895 6894 ] final -139.42 input  -60.11 | X-H torsion
[ 7974 7965 7964 7962 ] final   21.24 input  175.53 | X-H torsion
[ 8008 7997 7996 7995 ] final  116.33 input   59.86 | X-H torsion
[ 10167 10162 10161 10158 ] final   45.41 input  -65.29 | X-H torsion
[ 10718 10713 10712 10709 ] final  162.41 input   66.30 | X-H torsion
[ 10763 10752 10751 10750 ] final -171.42 input  -60.55 | X-H torsion
[ 11005 11000 10999 10996 ] final    5.69 input  -57.11 | X-H torsion

> <Gold.Protein.ActiveResidues>
 VAL166  LYS551  ARG553  GLY616  TRP617  ASP618  TYR619  PRO620  LYS621  CYS622 
 ASP623  PHE694  ASN695  SER759  ASP760  ASP761  ALA762  ILE779  LEU786  VAL792 
 PHE793  MET794  SER795  GLU796  ALA797  LYS798  CYS799  TRP800  GLU811  SER814 

> <Gold.Protein.RotatedAtoms>
  151.0475  133.5652  159.2645 H   0  0  0  0  0  0  0  0  0  0  0  0  # atno 6907 bound_to 6896
  151.2676  135.0673  159.9131 H   0  0  0  0  0  0  0  0  0  0  0  0  # atno 6908 bound_to 6896
  152.5376  134.0211  159.8036 H   0  0  0  0  0  0  0  0  0  0  0  0  # atno 6909 bound_to 6896
  146.2079  139.8055  142.8711 H   0  0  0  0  0  0  0  0  0  0  0  0  # atno 7974 bound_to 7965
  156.2433  140.2920  156.0506 H   0  0  0  0  0  0  0  0  0  0  0  0  # atno 8008 bound_to 7997
  155.1885  140.0406  157.2913 H   0  0  0  0  0  0  0  0  0  0  0  0  # atno 8009 bound_to 7997
  154.6210  140.2476  155.7556 H   0  0  0  0  0  0  0  0  0  0  0  0  # atno 8010 bound_to 7997
  140.3245  144.2665  150.6177 H   0  0  0  0  0  0  0  0  0  0  0  0  # atno 10167 bound_to 10162
  157.1229  131.0497  151.2406 H   0  0  0  0  0  0  0  0  0  0  0  0  # atno 10718 bound_to 10713
  154.6307  135.2886  155.0220 H   0  0  0  0  0  0  0  0  0  0  0  0  # atno 10763 bound_to 10752
  154.1381  135.6523  153.4940 H   0  0  0  0  0  0  0  0  0  0  0  0  # atno 10764 bound_to 10752
  153.0278  135.5326  154.7133 H   0  0  0  0  0  0  0  0  0  0  0  0  # atno 10765 bound_to 10752
  140.5679  134.0130  155.7997 H   0  0  0  0  0  0  0  0  0  0  0  0  # atno 11005 bound_to 11000
  145.3251  141.0253  143.3478 LP  0  0  0  0  0  0  0  0  0  0  0  0  # atno 17320 bound_to 7965
  144.8839  139.4866  143.6710 LP  0  0  0  0  0  0  0  0  0  0  0  0  # atno 17321 bound_to 7965
  140.5454  143.2216  151.8016 LP  0  0  0  0  0  0  0  0  0  0  0  0  # atno 17342 bound_to 10162
  139.4868  144.4546  151.9613 LP  0  0  0  0  0  0  0  0  0  0  0  0  # atno 17343 bound_to 10162
  157.4460  130.7571  149.7110 LP  0  0  0  0  0  0  0  0  0  0  0  0  # atno 17370 bound_to 10713
  155.9824  130.4010  150.3417 LP  0  0  0  0  0  0  0  0  0  0  0  0  # atno 17371 bound_to 10713
  141.1074  133.9671  157.2971 LP  0  0  0  0  0  0  0  0  0  0  0  0  # atno 17394 bound_to 11000
  139.9376  135.0195  156.8606 LP  0  0  0  0  0  0  0  0  0  0  0  0  # atno 17395 bound_to 11000

$$$$
