AV-unprocessed.smi:2054|AV-procd|sdf|8333|dock2
  -GOLD-   2272011 03D 1   1.00000     0.00000
 Structure written by MMmdl.
 43 44  0  0  0  0  0  0  0  0  2 V2000
  149.1301  132.7572  154.1314 C   0  0  0  0  0  0  0  0  0  0  0  0
  148.4579  133.5811  155.6337 S   0  0  0  0  0  0  0  0  0  0  0  0
  147.0715  133.9764  155.3404 O   0  0  0  0  0  0  0  0  0  0  0  0
  148.7511  132.7506  156.8117 O   0  0  0  0  0  0  0  0  0  0  0  0
  149.4113  135.0259  155.7534 N   0  0  0  0  0  0  0  0  0  0  0  0
  150.3977  135.2788  154.6839 C   0  0  0  0  0  0  0  0  0  0  0  0
  150.8720  136.7412  154.6841 C   0  0  0  0  0  0  0  0  0  0  0  0
  151.4280  137.1451  156.0593 C   0  0  0  0  0  0  0  0  0  0  0  0
  151.8937  138.6072  156.0680 C   0  0  0  0  0  0  0  0  0  0  0  0
  153.0925  138.8788  156.1464 O   0  0  0  0  0  0  0  0  0  0  0  0
  150.9347  139.5425  155.9861 N   0  0  0  0  0  0  0  0  0  0  0  0
  151.1717  140.9811  155.9654 C   0  0  0  0  0  0  0  0  0  0  0  0
  150.3080  141.7145  157.0054 C   0  0  0  0  0  0  0  0  0  0  0  0
  151.1085  142.7218  157.8071 C   0  0  0  0  0  0  0  0  0  0  0  0
  152.1893  142.3394  158.6309 C   0  0  0  0  0  0  0  0  0  0  0  0
  152.8858  143.3287  159.3563 C   0  0  0  0  0  0  0  0  0  0  0  0
  152.4873  144.6768  159.2430 C   0  0  0  0  0  0  0  0  0  0  0  0
  151.4003  145.0024  158.4064 C   0  0  0  0  0  0  0  0  0  0  0  0
  150.7578  144.0262  157.7283 N   0  3  0  0  0  0  0  0  0  0  0  0
  150.3319  136.9053  157.1093 C   0  0  0  0  0  0  0  0  0  0  0  0
  149.8544  135.4438  157.0990 C   0  0  0  0  0  0  0  0  0  0  0  0
  148.5406  131.8661  153.9179 H   0  0  0  0  0  0  0  0  0  0  0  0
  150.1667  132.4664  154.2940 H   0  0  0  0  0  0  0  0  0  0  0  0
  149.0701  133.4404  153.2845 H   0  0  0  0  0  0  0  0  0  0  0  0
  151.2458  134.6066  154.8202 H   0  0  0  0  0  0  0  0  0  0  0  0
  149.9624  135.0400  153.7146 H   0  0  0  0  0  0  0  0  0  0  0  0
  151.6346  136.8749  153.9157 H   0  0  0  0  0  0  0  0  0  0  0  0
  150.0380  137.3881  154.4065 H   0  0  0  0  0  0  0  0  0  0  0  0
  152.2809  136.5047  156.2922 H   0  0  0  0  0  0  0  0  0  0  0  0
  149.9750  139.2345  155.9224 H   0  0  0  0  0  0  0  0  0  0  0  0
  152.2309  141.1841  156.1320 H   0  0  0  0  0  0  0  0  0  0  0  0
  150.9393  141.3476  154.9652 H   0  0  0  0  0  0  0  0  0  0  0  0
  149.4817  142.2264  156.5101 H   0  0  0  0  0  0  0  0  0  0  0  0
  149.8570  141.0009  157.6965 H   0  0  0  0  0  0  0  0  0  0  0  0
  152.4815  141.3023  158.7093 H   0  0  0  0  0  0  0  0  0  0  0  0
  153.7155  143.0563  159.9924 H   0  0  0  0  0  0  0  0  0  0  0  0
  153.0076  145.4494  159.7904 H   0  0  0  0  0  0  0  0  0  0  0  0
  151.0282  146.0059  158.2602 H   0  0  0  0  0  0  0  0  0  0  0  0
  150.7019  137.1585  158.1036 H   0  0  0  0  0  0  0  0  0  0  0  0
  149.4797  137.5609  156.9225 H   0  0  0  0  0  0  0  0  0  0  0  0
  149.0361  135.3346  157.8101 H   0  0  0  0  0  0  0  0  0  0  0  0
  150.6532  134.7790  157.4304 H   0  0  0  0  0  0  0  0  0  0  0  0
  149.9734  144.2844  157.1287 H   0  0  0  0  0  0  0  0  0  0  0  0
  1  2  1  0  0  0  0
  1 22  1  0  0  0  0
  1 23  1  0  0  0  0
  1 24  1  0  0  0  0
  2  3  2  0  0  0  0
  2  4  2  0  0  0  0
  2  5  1  0  0  0  0
  5 21  1  0  0  0  0
  5  6  1  0  0  0  0
  6  7  1  0  0  0  0
  6 25  1  0  0  0  0
  6 26  1  0  0  0  0
  7  8  1  0  0  0  0
  7 27  1  0  0  0  0
  7 28  1  0  0  0  0
  8  9  1  0  0  0  0
  8 20  1  0  0  0  0
  8 29  1  0  0  0  0
  9 10  2  0  0  0  0
  9 11  1  0  0  0  0
 11 12  1  0  0  0  0
 11 30  1  0  0  0  0
 12 13  1  0  0  0  0
 12 31  1  0  0  0  0
 12 32  1  0  0  0  0
 13 14  1  0  0  0  0
 13 33  1  0  0  0  0
 13 34  1  0  0  0  0
 14 19  1  0  0  0  0
 14 15  2  0  0  0  0
 15 16  1  0  0  0  0
 15 35  1  0  0  0  0
 16 17  2  0  0  0  0
 16 36  1  0  0  0  0
 17 18  1  0  0  0  0
 17 37  1  0  0  0  0
 18 19  2  0  0  0  0
 18 38  1  0  0  0  0
 19 43  1  0  0  0  0
 20 21  1  0  0  0  0
 20 39  1  0  0  0  0
 20 40  1  0  0  0  0
 21 41  1  0  0  0  0
 21 42  1  0  0  0  0
M  CHG  1  19   1
M  END
> <s_m_source_file>
AV-unprocessed.smi

> <i_m_source_file_index>
2054

> <i_lp_mmshare_version>
43012

> <i_f3d_flags>
0

> <s_epik_input>
W0NIM11TKD1PKSg9TylOMVtDSDJdW0NIMl1bQ0hdKFtDSDJdW0NIMl0xKUMoPU8pW05IXVtDSDJdW0NIMl1jMltjSF1bY0hdW2NIXVtjSF1uMg==

> <s_epik_cmdline>
J2VwaWtfcHl0aG9uJywgJy1waCcsICc3LjAnLCAnLXRuJywgJzgnLCAnLW1hJywgJzIwMCcsICctbWV0YWxfYmluZGluZycsICctaW1hZScsICc8aW5maWxlLm1hZT4nLCAnLW9tYWUnLCAnPG91dGZpbGUubWFlPic=

> <r_epik_Ionization_Penalty>
1.82741

> <r_epik_Ionization_Penalty_Charging>
1.82741

> <r_epik_Ionization_Penalty_Neutral>
1.85342e-08

> <r_epik_State_Penalty>
1.94311

> <r_epik_Charging_Adjusted_Penalty>
3.77052

> <i_epik_Tot_Q>
1

> <i_epik_Tot_abs_Q>
1

> <r_epik_Metal_State_Penalty>
1.96983

> <b_epik_Metal_Only>
0

> <s_lp_Force_Field>
OPLS_2005

> <r_lp_Energy>
8.70127

> <b_lp_Chiralities_Consistent>
1

> <s_lp_Variant>
AV-unprocessed.smi:2054-2

> <Gold.Version>
5.8.1

> <Gold.Id.Protein>
6NUR|6NUR_protein|mol2

> <Gold.PLP.Fitness>
42.9639

> <Gold.PLP.PLP>
-35.1190

> <Gold.PLP.part.hbond>
-2.0000

> <Gold.PLP.part.metal>
0.0000

> <Gold.PLP.part.buried>
-5.0165

> <Gold.PLP.part.nonpolar>
-28.2725

> <Gold.PLP.part.repulsive>
0.1811

> <Gold.PLP.ligand.clash>
0.0000

> <Gold.PLP.ligand.torsion>
0.9526

> <Gold.PLP.Chemscore.Hbond>
3.0000

> <Gold.PLP.Chemscore.CHOScore>
0.0000

> <Gold.PLP.Chemscore.Metal>
0.0000

> <Gold.Chemscore.Hbonds>
donor molecule, donor type, donor heavy atom, donor atom, acceptor molecule, acceptor atom, score
      L1  H    19    43       P1  8028  2.00
      P1  H  7997  8010       L1    10  1.00

> <Gold.PLP.Chemscore.Internal.Correction>
0.7500

> <Gold.Rescore>
     Score         DG    S(hbond)    S(metal)    S(lipo)     H(rot)  DE(clash)    DE(int)     intcor
     17.77     -18.76       1.87        0.00     102.60       1.95       0.04       0.95       ----

> <Gold.Chemscore.Fitness>
17.7722

> <Gold.Chemscore.DG>
-18.7575

> <Gold.Chemscore.ZeroCoef>
-5.4800

> <Gold.Chemscore.Hbond>
1.8732

> <Gold.Chemscore.Metal>
0.0000

> <Gold.Chemscore.Lipo>
102.6011

> <Gold.Chemscore.Internal_Hbond>
0.0000

> <Gold.Chemscore.DEClash>
0.0369

> <Gold.Chemscore.DEInternal>
0.9484

> <Gold.Chemscore.Rot>
1.9466

> <Gold.Chemscore.Internal.Correction>
   9.000000E+99

> <Gold.Chemscore.Hbonds>
donor molecule, donor type, donor heavy atom, donor atom, acceptor molecule, acceptor atom, score
      L1  H    19    43       P1  8028  0.65
      P1  H  7997  8010       L1    10  0.98

> <Gold.Chemscore.Hbond.Weighted>
-6.2564

> <Gold.Chemscore.Metal.Weighted>
-0.0000

> <Gold.Chemscore.Lipo.Weighted>
-12.0043

> <Gold.Chemscore.Internal_Hbond.Weighted>
0.0000

> <Gold.Chemscore.DEClash.Weighted>
0.0369

> <Gold.Chemscore.DEInternal.Weighted>
0.9484

> <Gold.Chemscore.Rot.Weighted>
4.9832

> <Gold.Chemscore.Internal.Correction.Weighted>
   9.000000E+99

> <Gold.Protein.RotatedTorsions>
[ 6907 6896 6895 6894 ] final  151.19 input  -60.11 | X-H torsion
[ 7974 7965 7964 7962 ] final  130.86 input  175.53 | X-H torsion
[ 8008 7997 7996 7995 ] final   66.09 input   59.86 | X-H torsion
[ 10167 10162 10161 10158 ] final   80.95 input  -65.29 | X-H torsion
[ 10718 10713 10712 10709 ] final -150.26 input   66.30 | X-H torsion
[ 10763 10752 10751 10750 ] final  162.85 input  -60.55 | X-H torsion
[ 11005 11000 10999 10996 ] final -146.23 input  -57.11 | X-H torsion

> <Gold.Protein.ActiveResidues>
 VAL166  LYS551  ARG553  GLY616  TRP617  ASP618  TYR619  PRO620  LYS621  CYS622 
 ASP623  PHE694  ASN695  SER759  ASP760  ASP761  ALA762  ILE779  LEU786  VAL792 
 PHE793  MET794  SER795  GLU796  ALA797  LYS798  CYS799  TRP800  GLU811  SER814 

> <Gold.Protein.RotatedAtoms>
  152.1040  133.4265  159.4600 H   0  0  0  0  0  0  0  0  0  0  0  0  # atno 6907 bound_to 6896
  150.6865  134.2726  159.4603 H   0  0  0  0  0  0  0  0  0  0  0  0  # atno 6908 bound_to 6896
  152.0589  134.9606  160.0625 H   0  0  0  0  0  0  0  0  0  0  0  0  # atno 6909 bound_to 6896
  145.0134  139.4199  143.5233 H   0  0  0  0  0  0  0  0  0  0  0  0  # atno 7974 bound_to 7965
  155.6719  140.3497  155.4822 H   0  0  0  0  0  0  0  0  0  0  0  0  # atno 8008 bound_to 7997
  155.9681  140.1150  157.0860 H   0  0  0  0  0  0  0  0  0  0  0  0  # atno 8009 bound_to 7997
  154.4159  140.1162  156.5255 H   0  0  0  0  0  0  0  0  0  0  0  0  # atno 8010 bound_to 7997
  139.9443  144.6069  150.8221 H   0  0  0  0  0  0  0  0  0  0  0  0  # atno 10167 bound_to 10162
  156.4438  130.8134  151.2364 H   0  0  0  0  0  0  0  0  0  0  0  0  # atno 10718 bound_to 10713
  154.2848  135.2762  155.2681 H   0  0  0  0  0  0  0  0  0  0  0  0  # atno 10763 bound_to 10752
  154.5186  135.5762  153.6666 H   0  0  0  0  0  0  0  0  0  0  0  0  # atno 10764 bound_to 10752
  152.9923  135.6199  154.3009 H   0  0  0  0  0  0  0  0  0  0  0  0  # atno 10765 bound_to 10752
  140.7841  134.3044  157.5035 H   0  0  0  0  0  0  0  0  0  0  0  0  # atno 11005 bound_to 11000
  146.3474  139.9591  142.8719 LP  0  0  0  0  0  0  0  0  0  0  0  0  # atno 17320 bound_to 7965
  145.1992  140.9847  143.4165 LP  0  0  0  0  0  0  0  0  0  0  0  0  # atno 17321 bound_to 7965
  140.7602  143.3145  151.2766 LP  0  0  0  0  0  0  0  0  0  0  0  0  # atno 17342 bound_to 10162
  139.6679  144.0072  152.2734 LP  0  0  0  0  0  0  0  0  0  0  0  0  # atno 17343 bound_to 10162
  157.7505  131.0160  150.3526 LP  0  0  0  0  0  0  0  0  0  0  0  0  # atno 17370 bound_to 10713
  156.3889  130.3894  149.7045 LP  0  0  0  0  0  0  0  0  0  0  0  0  # atno 17371 bound_to 10713
  139.8739  134.9336  156.3585 LP  0  0  0  0  0  0  0  0  0  0  0  0  # atno 17394 bound_to 11000
  140.9453  133.7487  156.0200 LP  0  0  0  0  0  0  0  0  0  0  0  0  # atno 17395 bound_to 11000

$$$$
