AV-unprocessed.smi:81|AV-procd|sdf|789|dock3
  -GOLD-   2262017163D 1   1.00000     0.00000
 Structure written by MMmdl.
 64 67  0  0  0  0  0  0  0  0  2 V2000
  146.0295  133.7288  156.4281 C   0  0  0  0  0  0  0  0  0  0  0  0
  144.9759  134.7927  156.0779 C   0  0  0  0  0  0  0  0  0  0  0  0
  143.7582  134.6700  157.0050 C   0  0  0  0  0  0  0  0  0  0  0  0
  144.5373  134.7025  154.5990 C   0  0  0  0  0  0  0  0  0  0  0  0
  145.6062  134.9951  153.6392 N   0  0  0  0  0  0  0  0  0  0  0  0
  146.1333  136.2415  153.7371 C   0  0  0  0  0  0  0  0  0  0  0  0
  145.7064  137.2277  152.9050 N   0  0  0  0  0  0  0  0  0  0  0  0
  146.2194  138.4575  153.0067 C   0  0  0  0  0  0  0  0  0  0  0  0
  147.1481  138.9070  153.8535 N   0  0  0  0  0  0  0  0  0  0  0  0
  147.5731  137.9205  154.6941 C   0  0  0  0  0  0  0  0  0  0  0  0
  147.1174  136.5731  154.7066 C   0  0  0  0  0  0  0  0  0  0  0  0
  147.7621  135.8603  155.7093 N   0  0  0  0  0  0  0  0  0  0  0  0
  148.5553  136.7382  156.2601 C   0  0  0  0  0  0  0  0  0  0  0  0
  148.5171  137.9972  155.7032 N   0  0  0  0  0  0  0  0  0  0  0  0
  149.2912  139.1575  156.1168 C   0  0  0  0  0  0  0  0  0  0  0  0
  150.2484  139.7056  155.0221 C   0  0  2  0  0  0  0  0  0  0  0  0
  149.4961  140.3512  154.0123 O   0  0  0  0  0  0  0  0  0  0  0  0
  151.1263  138.6398  154.3774 C   0  0  0  0  0  0  0  0  0  0  0  0
  152.2754  138.5128  155.3726 C   0  0  0  0  0  0  0  0  0  0  0  0
  152.4197  139.8036  155.9575 O   0  0  0  0  0  0  0  0  0  0  0  0
  151.3427  140.6489  155.5598 C   0  0  2  0  0  0  0  0  0  0  0  0
  150.9431  141.5939  156.7029 C   0  0  0  0  0  0  0  0  0  0  0  0
  145.4181  134.4767  152.2762 C   0  0  2  0  0  0  0  0  0  0  0  0
  144.3874  135.2682  151.4430 C   0  0  0  0  0  0  0  0  0  0  0  0
  144.3060  134.7231  150.0081 C   0  0  0  0  0  0  0  0  0  0  0  0
  143.9766  133.2761  150.0068 N   0  3  1  0  0  0  0  0  0  0  0  0
  143.7651  132.7476  148.6423 C   0  0  0  0  0  0  0  0  0  0  0  0
  144.9655  132.4796  150.7749 C   0  0  0  0  0  0  0  0  0  0  0  0
  145.0660  132.9739  152.2274 C   0  0  0  0  0  0  0  0  0  0  0  0
  145.6452  132.7215  156.2646 H   0  0  0  0  0  0  0  0  0  0  0  0
  146.3309  133.8044  157.4732 H   0  0  0  0  0  0  0  0  0  0  0  0
  146.9293  133.8431  155.8237 H   0  0  0  0  0  0  0  0  0  0  0  0
  145.4144  135.7739  156.2624 H   0  0  0  0  0  0  0  0  0  0  0  0
  143.2624  133.7064  156.8841 H   0  0  0  0  0  0  0  0  0  0  0  0
  143.0257  135.4503  156.7955 H   0  0  0  0  0  0  0  0  0  0  0  0
  144.0486  134.7661  158.0515 H   0  0  0  0  0  0  0  0  0  0  0  0
  144.1516  133.7015  154.4029 H   0  0  0  0  0  0  0  0  0  0  0  0
  143.7029  135.3831  154.4238 H   0  0  0  0  0  0  0  0  0  0  0  0
  145.8303  139.1859  152.3106 H   0  0  0  0  0  0  0  0  0  0  0  0
  149.2017  136.4881  157.0890 H   0  0  0  0  0  0  0  0  0  0  0  0
  148.5879  139.9312  156.4269 H   0  0  0  0  0  0  0  0  0  0  0  0
  149.8525  138.8844  157.0110 H   0  0  0  0  0  0  0  0  0  0  0  0
  149.7910  140.0367  153.1714 H   0  0  0  0  0  0  0  0  0  0  0  0
  150.6263  137.6940  154.1747 H   0  0  0  0  0  0  0  0  0  0  0  0
  151.5240  139.0018  153.4276 H   0  0  0  0  0  0  0  0  0  0  0  0
  152.0254  137.7989  156.1581 H   0  0  0  0  0  0  0  0  0  0  0  0
  153.2007  138.1836  154.8994 H   0  0  0  0  0  0  0  0  0  0  0  0
  151.7237  141.2512  154.7329 H   0  0  0  0  0  0  0  0  0  0  0  0
  150.0992  142.2210  156.4148 H   0  0  0  0  0  0  0  0  0  0  0  0
  151.7709  142.2527  156.9649 H   0  0  0  0  0  0  0  0  0  0  0  0
  150.6669  141.0457  157.6036 H   0  0  0  0  0  0  0  0  0  0  0  0
  146.3814  134.6006  151.7797 H   0  0  0  0  0  0  0  0  0  0  0  0
  143.3972  135.2108  151.8968 H   0  0  0  0  0  0  0  0  0  0  0  0
  144.6599  136.3238  151.4159 H   0  0  0  0  0  0  0  0  0  0  0  0
  143.5425  135.2715  149.4547 H   0  0  0  0  0  0  0  0  0  0  0  0
  145.2523  134.8854  149.4892 H   0  0  0  0  0  0  0  0  0  0  0  0
  144.6789  132.8128  148.0504 H   0  0  0  0  0  0  0  0  0  0  0  0
  142.9837  133.3087  148.1288 H   0  0  0  0  0  0  0  0  0  0  0  0
  143.4537  131.7032  148.6782 H   0  0  0  0  0  0  0  0  0  0  0  0
  144.6718  131.4291  150.7693 H   0  0  0  0  0  0  0  0  0  0  0  0
  145.9410  132.5389  150.2893 H   0  0  0  0  0  0  0  0  0  0  0  0
  145.8180  132.3872  152.7553 H   0  0  0  0  0  0  0  0  0  0  0  0
  144.1167  132.7877  152.7303 H   0  0  0  0  0  0  0  0  0  0  0  0
  143.0943  133.1813  150.4895 H   0  0  0  0  0  0  0  0  0  0  0  0
  1  2  1  0  0  0  0
  1 30  1  0  0  0  0
  1 31  1  0  0  0  0
  1 32  1  0  0  0  0
  2  3  1  0  0  0  0
  2  4  1  0  0  0  0
  2 33  1  0  0  0  0
  3 34  1  0  0  0  0
  3 35  1  0  0  0  0
  3 36  1  0  0  0  0
  4  5  1  0  0  0  0
  4 37  1  0  0  0  0
  4 38  1  0  0  0  0
  5  6  1  0  0  0  0
  5 23  1  0  0  0  0
  6 11  1  0  0  0  0
  6  7  2  0  0  0  0
  7  8  1  0  0  0  0
  8  9  2  0  0  0  0
  8 39  1  0  0  0  0
  9 10  1  0  0  0  0
 10 14  1  0  0  0  0
 10 11  2  0  0  0  0
 11 12  1  0  0  0  0
 12 13  2  0  0  0  0
 13 14  1  0  0  0  0
 13 40  1  0  0  0  0
 14 15  1  0  0  0  0
 15 16  1  0  0  0  0
 15 41  1  0  0  0  0
 15 42  1  0  0  0  0
 16 21  1  0  0  0  0
 16 17  1  0  0  0  0
 16 18  1  0  0  0  0
 17 43  1  0  0  0  0
 18 19  1  0  0  0  0
 18 44  1  0  0  0  0
 18 45  1  0  0  0  0
 19 20  1  0  0  0  0
 19 46  1  0  0  0  0
 19 47  1  0  0  0  0
 20 21  1  0  0  0  0
 21 22  1  0  0  0  0
 21 48  1  0  0  0  0
 22 49  1  0  0  0  0
 22 50  1  0  0  0  0
 22 51  1  0  0  0  0
 23 29  1  0  0  0  0
 23 24  1  0  0  0  0
 23 52  1  0  0  0  0
 24 25  1  0  0  0  0
 24 53  1  0  0  0  0
 24 54  1  0  0  0  0
 25 26  1  0  0  0  0
 25 55  1  0  0  0  0
 25 56  1  0  0  0  0
 26 27  1  0  0  0  0
 26 28  1  0  0  0  0
 26 64  1  0  0  0  0
 27 57  1  0  0  0  0
 27 58  1  0  0  0  0
 27 59  1  0  0  0  0
 28 29  1  0  0  0  0
 28 60  1  0  0  0  0
 28 61  1  0  0  0  0
 29 62  1  0  0  0  0
 29 63  1  0  0  0  0
M  CHG  1  26   1
M  END
> <s_m_source_file>
AV-unprocessed.smi

> <i_m_source_file_index>
81

> <i_lp_mmshare_version>
43012

> <i_f3d_flags>
0

> <s_epik_input>
W0NIMl0xW0NIMl1OKFtDSDNdKVtDSDJdW0NIMl1bQ0hdMU4oW0NIMl1bQ0hdKFtDSDNdKVtDSDNdKWMobltjSF1uMiljKGMyMyluW2NIXW4zW0NIMl1bQ0BAXTQoW09IXSlbQ0gyXVtDSDJdT1tDQEhdNFtDSDNd

> <s_epik_cmdline>
J2VwaWtfcHl0aG9uJywgJy1waCcsICc3LjAnLCAnLXRuJywgJzgnLCAnLW1hJywgJzIwMCcsICctbWV0YWxfYmluZGluZycsICctaW1hZScsICc8aW5maWxlLm1hZT4nLCAnLW9tYWUnLCAnPG91dGZpbGUubWFlPic=

> <r_lp_tautomer_probability>
1

> <r_epik_Ionization_Penalty>
0.00272708

> <r_epik_Ionization_Penalty_Charging>
0.00158983

> <r_epik_Ionization_Penalty_Neutral>
0.00113725

> <r_epik_State_Penalty>
-0

> <r_epik_Charging_Adjusted_Penalty>
0.00158983

> <i_epik_Tot_Q>
1

> <i_epik_Tot_abs_Q>
1

> <r_epik_Metal_State_Penalty>
-0

> <b_epik_Metal_Only>
0

> <s_lp_Force_Field>
OPLS_2005

> <r_lp_Energy>
46.4423

> <b_lp_Chiralities_Consistent>
1

> <s_lp_Variant>
AV-unprocessed.smi:81-4

> <Gold.Version>
5.8.1

> <Gold.Id.Protein>
6NUR|6NUR_protein|mol2

> <Gold.PLP.Fitness>
43.0949

> <Gold.PLP.PLP>
-34.9640

> <Gold.PLP.part.hbond>
-3.2296

> <Gold.PLP.part.metal>
0.0000

> <Gold.PLP.part.buried>
-3.8862

> <Gold.PLP.part.nonpolar>
-28.5025

> <Gold.PLP.part.repulsive>
0.5489

> <Gold.PLP.ligand.clash>
0.0000

> <Gold.PLP.ligand.torsion>
0.9248

> <Gold.PLP.Chemscore.Hbond>
1.9920

> <Gold.PLP.Chemscore.CHOScore>
0.9900

> <Gold.PLP.Chemscore.Metal>
0.0000

> <Gold.Chemscore.Hbonds>
donor molecule, donor type, donor heavy atom, donor atom, acceptor molecule, acceptor atom, score
      L1  H    17    43       P1  7957  0.99
      P1  H  7997  8009       L1    20  1.00
      L1  C     8    39       P1 10175  0.97

> <Gold.PLP.Chemscore.Internal.Correction>
1.0346

> <Gold.Rescore>
     Score         DG    S(hbond)    S(metal)    S(lipo)     H(rot)  DE(clash)    DE(int)     intcor
     12.26     -15.16       1.85        0.00      86.47       2.58       0.50       2.40       ----

> <Gold.Chemscore.Fitness>
12.2635

> <Gold.Chemscore.DG>
-15.1624

> <Gold.Chemscore.ZeroCoef>
-5.4800

> <Gold.Chemscore.Hbond>
1.8453

> <Gold.Chemscore.Metal>
0.0000

> <Gold.Chemscore.Lipo>
86.4722

> <Gold.Chemscore.Internal_Hbond>
0.0000

> <Gold.Chemscore.DEClash>
0.5027

> <Gold.Chemscore.DEInternal>
2.3961

> <Gold.Chemscore.Rot>
2.5774

> <Gold.Chemscore.Internal.Correction>
   9.000000E+99

> <Gold.Chemscore.Hbonds>
donor molecule, donor type, donor heavy atom, donor atom, acceptor molecule, acceptor atom, score
      L1  H    17    43       P1  7957  0.88
      P1  H  7997  8009       L1    20  0.64

> <Gold.Chemscore.Hbond.Weighted>
-6.1634

> <Gold.Chemscore.Metal.Weighted>
-0.0000

> <Gold.Chemscore.Lipo.Weighted>
-10.1172

> <Gold.Chemscore.Internal_Hbond.Weighted>
0.0000

> <Gold.Chemscore.DEClash.Weighted>
0.5027

> <Gold.Chemscore.DEInternal.Weighted>
2.3961

> <Gold.Chemscore.Rot.Weighted>
6.5982

> <Gold.Chemscore.Internal.Correction.Weighted>
   9.000000E+99

> <Gold.Protein.RotatedTorsions>
[ 6907 6896 6895 6894 ] final -159.88 input  -60.11 | X-H torsion
[ 7974 7965 7964 7962 ] final  -92.77 input  175.53 | X-H torsion
[ 8008 7997 7996 7995 ] final -150.55 input   59.86 | X-H torsion
[ 10167 10162 10161 10158 ] final  140.84 input  -65.29 | X-H torsion
[ 10718 10713 10712 10709 ] final -154.62 input   66.30 | X-H torsion
[ 10763 10752 10751 10750 ] final  -79.38 input  -60.55 | X-H torsion
[ 11005 11000 10999 10996 ] final  126.28 input  -57.11 | X-H torsion

> <Gold.Protein.ActiveResidues>
 VAL166  LYS551  ARG553  GLY616  TRP617  ASP618  TYR619  PRO620  LYS621  CYS622 
 ASP623  PHE694  ASN695  SER759  ASP760  ASP761  ALA762  ILE779  LEU786  VAL792 
 PHE793  MET794  SER795  GLU796  ALA797  LYS798  CYS799  TRP800  GLU811  SER814 

> <Gold.Protein.RotatedAtoms>
  151.3404  133.3964  159.2670 H   0  0  0  0  0  0  0  0  0  0  0  0  # atno 6907 bound_to 6896
  150.9882  134.9224  159.7895 H   0  0  0  0  0  0  0  0  0  0  0  0  # atno 6908 bound_to 6896
  152.5239  134.3369  159.9255 H   0  0  0  0  0  0  0  0  0  0  0  0  # atno 6909 bound_to 6896
  145.3954  140.9532  143.2317 H   0  0  0  0  0  0  0  0  0  0  0  0  # atno 7974 bound_to 7965
  155.6253  140.0686  157.2665 H   0  0  0  0  0  0  0  0  0  0  0  0  # atno 8008 bound_to 7997
  154.4219  140.1777  156.1464 H   0  0  0  0  0  0  0  0  0  0  0  0  # atno 8009 bound_to 7997
  155.9976  140.3339  155.6817 H   0  0  0  0  0  0  0  0  0  0  0  0  # atno 8010 bound_to 7997
  139.5037  144.6209  151.6054 H   0  0  0  0  0  0  0  0  0  0  0  0  # atno 10167 bound_to 10162
  156.5017  130.8394  151.2612 H   0  0  0  0  0  0  0  0  0  0  0  0  # atno 10718 bound_to 10713
  154.5378  135.5698  153.6814 H   0  0  0  0  0  0  0  0  0  0  0  0  # atno 10763 bound_to 10752
  152.9955  135.6220  154.2542 H   0  0  0  0  0  0  0  0  0  0  0  0  # atno 10764 bound_to 10752
  154.2472  135.2860  155.2810 H   0  0  0  0  0  0  0  0  0  0  0  0  # atno 10765 bound_to 10752
  139.9448  134.9631  156.8684 H   0  0  0  0  0  0  0  0  0  0  0  0  # atno 11005 bound_to 11000
  144.8411  139.5471  143.6900 LP  0  0  0  0  0  0  0  0  0  0  0  0  # atno 17320 bound_to 7965
  146.2777  139.6796  142.9251 LP  0  0  0  0  0  0  0  0  0  0  0  0  # atno 17321 bound_to 7965
  140.5910  143.9779  150.6325 LP  0  0  0  0  0  0  0  0  0  0  0  0  # atno 17342 bound_to 10162
  140.2959  143.3293  152.1018 LP  0  0  0  0  0  0  0  0  0  0  0  0  # atno 17343 bound_to 10162
  157.7462  130.9979  150.2834 LP  0  0  0  0  0  0  0  0  0  0  0  0  # atno 17370 bound_to 10713
  156.3326  130.3803  149.7478 LP  0  0  0  0  0  0  0  0  0  0  0  0  # atno 17371 bound_to 10713
  140.5861  134.0306  155.7482 LP  0  0  0  0  0  0  0  0  0  0  0  0  # atno 17394 bound_to 11000
  141.1095  133.9639  157.2936 LP  0  0  0  0  0  0  0  0  0  0  0  0  # atno 17395 bound_to 11000

$$$$
