AV-unprocessed.smi:3132|AV-procd|sdf|11934|dock2
  -GOLD-   2272017323D 1   1.00000     0.00000
 Structure written by MMmdl.
 33 34  0  0  0  0  0  0  0  0  1 V2000
  149.1835  141.3074  157.9355 C   0  0  0  0  0  0  0  0  0  0  0  0
  150.5794  140.9832  157.3869 C   0  0  1  0  0  0  0  0  0  0  0  0
  150.7566  141.5201  155.9505 C   0  0  0  0  0  0  0  0  0  0  0  0
  149.8398  140.9087  155.0055 N   0  0  0  0  0  0  0  0  0  0  0  0
  149.7419  139.5610  154.6843 C   0  0  0  0  0  0  0  0  0  0  0  0
  148.7331  139.4511  153.7543 C   0  0  0  0  0  0  0  0  0  0  0  0
  148.2038  140.7109  153.4853 N   0  0  0  0  0  0  0  0  0  0  0  0
  148.9099  141.5230  154.2614 C   0  0  0  0  0  0  0  0  0  0  0  0
  151.5852  141.5523  158.2833 N   0  0  0  0  0  0  0  0  0  0  0  0
  152.5896  140.8775  158.8651 C   0  0  0  0  0  0  0  0  0  0  0  0
  152.7590  139.6655  158.7261 O   0  0  0  0  0  0  0  0  0  0  0  0
  153.5516  141.7055  159.7302 C   0  0  2  0  0  0  0  0  0  0  0  0
  153.5236  141.3152  161.2215 C   0  0  0  0  0  0  0  0  0  0  0  0
  153.1176  142.5918  161.9379 C   0  0  0  0  0  0  0  0  0  0  0  0
  152.3977  143.3780  160.8520 C   0  0  0  0  0  0  0  0  0  0  0  0
  153.1533  143.0751  159.6883 O   0  0  0  0  0  0  0  0  0  0  0  0
  148.4050  140.8721  157.3086 H   0  0  0  0  0  0  0  0  0  0  0  0
  149.0127  142.3837  157.9788 H   0  0  0  0  0  0  0  0  0  0  0  0
  149.0547  140.9082  158.9422 H   0  0  0  0  0  0  0  0  0  0  0  0
  150.6715  139.8956  157.3684 H   0  0  0  0  0  0  0  0  0  0  0  0
  150.5863  142.5975  155.9291 H   0  0  0  0  0  0  0  0  0  0  0  0
  151.7784  141.3595  155.6032 H   0  0  0  0  0  0  0  0  0  0  0  0
  150.3752  138.8122  155.1365 H   0  0  0  0  0  0  0  0  0  0  0  0
  148.3508  138.5695  153.2616 H   0  0  0  0  0  0  0  0  0  0  0  0
  148.7422  142.5896  154.2948 H   0  0  0  0  0  0  0  0  0  0  0  0
  151.5222  142.5441  158.4622 H   0  0  0  0  0  0  0  0  0  0  0  0
  154.5658  141.6319  159.3352 H   0  0  0  0  0  0  0  0  0  0  0  0
  152.8018  140.5228  161.4269 H   0  0  0  0  0  0  0  0  0  0  0  0
  154.4955  140.9608  161.5656 H   0  0  0  0  0  0  0  0  0  0  0  0
  152.4956  142.4117  162.8152 H   0  0  0  0  0  0  0  0  0  0  0  0
  154.0071  143.1360  162.2577 H   0  0  0  0  0  0  0  0  0  0  0  0
  151.3710  143.0298  160.7321 H   0  0  0  0  0  0  0  0  0  0  0  0
  152.3763  144.4496  161.0503 H   0  0  0  0  0  0  0  0  0  0  0  0
  1  2  1  0  0  0  0
  1 17  1  0  0  0  0
  1 18  1  0  0  0  0
  1 19  1  0  0  0  0
  2  3  1  0  0  0  0
  2  9  1  0  0  0  0
  2 20  1  0  0  0  0
  3  4  1  0  0  0  0
  3 21  1  0  0  0  0
  3 22  1  0  0  0  0
  4  8  1  0  0  0  0
  4  5  1  0  0  0  0
  5  6  2  0  0  0  0
  5 23  1  0  0  0  0
  6  7  1  0  0  0  0
  6 24  1  0  0  0  0
  7  8  2  0  0  0  0
  8 25  1  0  0  0  0
  9 10  1  0  0  0  0
  9 26  1  0  0  0  0
 10 11  2  0  0  0  0
 10 12  1  0  0  0  0
 12 16  1  0  0  0  0
 12 13  1  0  0  0  0
 12 27  1  0  0  0  0
 13 14  1  0  0  0  0
 13 28  1  0  0  0  0
 13 29  1  0  0  0  0
 14 15  1  0  0  0  0
 14 30  1  0  0  0  0
 14 31  1  0  0  0  0
 15 16  1  0  0  0  0
 15 32  1  0  0  0  0
 15 33  1  0  0  0  0
M  END
> <s_m_source_file>
AV-unprocessed.smi

> <i_m_source_file_index>
3132

> <i_lp_mmshare_version>
43012

> <i_f3d_flags>
0

> <s_epik_input>
W2NIXTFuW2NIXVtjSF1uMVtDSDJdW0NAQEhdKFtDSDNdKVtOSF1DKD1PKVtDQEBIXTJbQ0gyXVtDSDJdW0NIMl1PMg==

> <s_epik_cmdline>
J2VwaWtfcHl0aG9uJywgJy1waCcsICc3LjAnLCAnLXRuJywgJzgnLCAnLW1hJywgJzIwMCcsICctbWV0YWxfYmluZGluZycsICctaW1hZScsICc8aW5maWxlLm1hZT4nLCAnLW9tYWUnLCAnPG91dGZpbGUubWFlPic=

> <r_lp_tautomer_probability>
1

> <r_epik_Ionization_Penalty>
0.630322

> <r_epik_Ionization_Penalty_Charging>
0.630322

> <r_epik_Ionization_Penalty_Neutral>
3.82652e-08

> <r_epik_State_Penalty>
0.647117

> <r_epik_Charging_Adjusted_Penalty>
1.27744

> <i_epik_Tot_Q>
0

> <i_epik_Tot_abs_Q>
0

> <r_epik_Metal_State_Penalty>
0.309095

> <b_epik_Metal_Only>
0

> <s_lp_Force_Field>
OPLS_2005

> <r_lp_Energy>
20.2845

> <b_lp_Chiralities_Consistent>
1

> <s_lp_Variant>
AV-unprocessed.smi:3132-6

> <Gold.Version>
5.8.1

> <Gold.Id.Protein>
6NUR|6NUR_protein|mol2

> <Gold.PLP.Fitness>
41.4329

> <Gold.PLP.PLP>
-33.4480

> <Gold.PLP.part.hbond>
-1.0000

> <Gold.PLP.part.metal>
0.0000

> <Gold.PLP.part.buried>
-1.1285

> <Gold.PLP.part.nonpolar>
-30.8804

> <Gold.PLP.part.repulsive>
1.5220

> <Gold.PLP.ligand.clash>
0.0000

> <Gold.PLP.ligand.torsion>
0.0749

> <Gold.PLP.Chemscore.Hbond>
1.0000

> <Gold.PLP.Chemscore.CHOScore>
1.7046

> <Gold.PLP.Chemscore.Metal>
0.0000

> <Gold.Chemscore.Hbonds>
donor molecule, donor type, donor heavy atom, donor atom, acceptor molecule, acceptor atom, score
      L1  C     6    24       P1  7948  0.40
      L1  C     8    25       P1  8028  1.00

> <Gold.PLP.Chemscore.Internal.Correction>
0.0209

> <Gold.Rescore>
     Score         DG    S(hbond)    S(metal)    S(lipo)     H(rot)  DE(clash)    DE(int)     intcor
     12.11     -12.16       0.91        0.00      71.78       1.86       0.04       0.01       ----

> <Gold.Chemscore.Fitness>
12.1115

> <Gold.Chemscore.DG>
-12.1609

> <Gold.Chemscore.ZeroCoef>
-5.4800

> <Gold.Chemscore.Hbond>
0.9143

> <Gold.Chemscore.Metal>
0.0000

> <Gold.Chemscore.Lipo>
71.7771

> <Gold.Chemscore.Internal_Hbond>
0.0000

> <Gold.Chemscore.DEClash>
0.0361

> <Gold.Chemscore.DEInternal>
0.0133

> <Gold.Chemscore.Rot>
1.8636

> <Gold.Chemscore.Internal.Correction>
   9.000000E+99

> <Gold.Chemscore.Hbond.Weighted>
-3.0539

> <Gold.Chemscore.Metal.Weighted>
-0.0000

> <Gold.Chemscore.Lipo.Weighted>
-8.3979

> <Gold.Chemscore.Internal_Hbond.Weighted>
0.0000

> <Gold.Chemscore.DEClash.Weighted>
0.0361

> <Gold.Chemscore.DEInternal.Weighted>
0.0133

> <Gold.Chemscore.Rot.Weighted>
4.7709

> <Gold.Chemscore.Internal.Correction.Weighted>
   9.000000E+99

> <Gold.Protein.RotatedTorsions>
[ 6907 6896 6895 6894 ] final -151.66 input  -60.11 | X-H torsion
[ 7974 7965 7964 7962 ] final  -14.62 input  175.53 | X-H torsion
[ 8008 7997 7996 7995 ] final  -89.83 input   59.86 | X-H torsion
[ 10167 10162 10161 10158 ] final  131.81 input  -65.29 | X-H torsion
[ 10718 10713 10712 10709 ] final   30.04 input   66.30 | X-H torsion
[ 10763 10752 10751 10750 ] final   18.40 input  -60.55 | X-H torsion
[ 11005 11000 10999 10996 ] final   88.23 input  -57.11 | X-H torsion

> <Gold.Protein.ActiveResidues>
 VAL166  LYS551  ARG553  GLY616  TRP617  ASP618  TYR619  PRO620  LYS621  CYS622 
 ASP623  PHE694  ASN695  SER759  ASP760  ASP761  ALA762  ILE779  LEU786  VAL792 
 PHE793  MET794  SER795  GLU796  ALA797  LYS798  CYS799  TRP800  GLU811  SER814 

> <Gold.Protein.RotatedAtoms>
  151.2163  133.4527  159.2599 H   0  0  0  0  0  0  0  0  0  0  0  0  # atno 6907 bound_to 6896
  151.0928  134.9926  159.8421 H   0  0  0  0  0  0  0  0  0  0  0  0  # atno 6908 bound_to 6896
  152.5436  134.2095  159.8797 H   0  0  0  0  0  0  0  0  0  0  0  0  # atno 6909 bound_to 6896
  146.2066  140.3375  142.8405 H   0  0  0  0  0  0  0  0  0  0  0  0  # atno 7974 bound_to 7965
  154.6913  140.0537  157.0366 H   0  0  0  0  0  0  0  0  0  0  0  0  # atno 8008 bound_to 7997
  155.0813  140.3210  155.4582 H   0  0  0  0  0  0  0  0  0  0  0  0  # atno 8009 bound_to 7997
  156.2729  140.2064  156.5941 H   0  0  0  0  0  0  0  0  0  0  0  0  # atno 8010 bound_to 7997
  139.5367  144.6690  151.4761 H   0  0  0  0  0  0  0  0  0  0  0  0  # atno 10167 bound_to 10162
  157.2545  130.7131  149.6422 H   0  0  0  0  0  0  0  0  0  0  0  0  # atno 10718 bound_to 10713
  153.1253  135.6728  153.9268 H   0  0  0  0  0  0  0  0  0  0  0  0  # atno 10763 bound_to 10752
  153.8771  135.3062  155.3445 H   0  0  0  0  0  0  0  0  0  0  0  0  # atno 10764 bound_to 10752
  154.7659  135.4964  153.9633 H   0  0  0  0  0  0  0  0  0  0  0  0  # atno 10765 bound_to 10752
  139.8901  134.8474  156.2971 H   0  0  0  0  0  0  0  0  0  0  0  0  # atno 11005 bound_to 11000
  144.8809  140.7398  143.5987 LP  0  0  0  0  0  0  0  0  0  0  0  0  # atno 17320 bound_to 7965
  145.3295  139.1764  143.4544 LP  0  0  0  0  0  0  0  0  0  0  0  0  # atno 17321 bound_to 7965
  140.6577  143.8564  150.6853 LP  0  0  0  0  0  0  0  0  0  0  0  0  # atno 17342 bound_to 10162
  140.1948  143.4007  152.1836 LP  0  0  0  0  0  0  0  0  0  0  0  0  # atno 17343 bound_to 10162
  155.9665  130.4417  150.5351 LP  0  0  0  0  0  0  0  0  0  0  0  0  # atno 17370 bound_to 10713
  157.3242  131.0687  151.1909 LP  0  0  0  0  0  0  0  0  0  0  0  0  # atno 17371 bound_to 10713
  140.9938  133.7192  156.0854 LP  0  0  0  0  0  0  0  0  0  0  0  0  # atno 17394 bound_to 11000
  140.7590  134.3961  157.5529 LP  0  0  0  0  0  0  0  0  0  0  0  0  # atno 17395 bound_to 11000

$$$$
