AV-unprocessed.smi:1219|AV-procd|sdf|5112|dock7
  -GOLD-   22720 4173D 1   1.00000     0.00000
 Structure written by MMmdl.
 43 44  0  0  0  0  0  0  0  0  2 V2000
  149.4295  140.5687  156.6376 O   0  0  0  0  0  0  0  0  0  0  0  0
  149.3424  141.7660  156.3641 C   0  0  0  0  0  0  0  0  0  0  0  0
  148.4824  142.2537  155.4586 N   0  0  0  0  0  0  0  0  0  0  0  0
  147.5672  141.4507  154.6540 C   0  0  0  0  0  0  0  0  0  0  0  0
  148.2540  140.2037  154.0578 C   0  0  2  0  0  0  0  0  0  0  0  0
  149.5261  140.5829  153.5700 O   0  0  0  0  0  0  0  0  0  0  0  0
  147.4605  139.6440  152.8590 C   0  0  0  0  0  0  0  0  0  0  0  0
  147.0652  138.2234  153.0423 N   0  3  0  0  0  0  0  0  0  0  0  0
  145.9206  137.8428  152.1741 C   0  0  0  0  0  0  0  0  0  0  0  0
  145.6238  136.3371  152.2715 C   0  0  0  0  0  0  0  0  0  0  0  0
  145.3650  135.9202  153.7248 C   0  0  0  0  0  0  0  0  0  0  0  0
  146.5414  136.3518  154.6098 C   0  0  0  0  0  0  0  0  0  0  0  0
  146.8193  137.8576  154.4634 C   0  0  0  0  0  0  0  0  0  0  0  0
  150.0774  142.7471  156.9167 N   0  0  0  0  0  0  0  0  0  0  0  0
  151.1040  142.6315  157.8915 C   0  0  0  0  0  0  0  0  0  0  0  0
  151.7731  143.8371  158.2018 C   0  0  0  0  0  0  0  0  0  0  0  0
  152.8115  143.8281  159.1532 C   0  0  0  0  0  0  0  0  0  0  0  0
  153.1536  142.6125  159.7718 C   0  0  0  0  0  0  0  0  0  0  0  0
  152.4361  141.4584  159.4075 C   0  0  0  0  0  0  0  0  0  0  0  0
  151.4409  141.4645  158.4955 N   0  0  0  0  0  0  0  0  0  0  0  0
  148.4775  143.2500  155.2959 H   0  0  0  0  0  0  0  0  0  0  0  0
  146.7751  141.1376  155.3347 H   0  0  0  0  0  0  0  0  0  0  0  0
  147.0792  142.0521  153.8844 H   0  0  0  0  0  0  0  0  0  0  0  0
  148.3710  139.4436  154.8299 H   0  0  0  0  0  0  0  0  0  0  0  0
  149.4955  140.5898  152.6240 H   0  0  0  0  0  0  0  0  0  0  0  0
  146.5663  140.2415  152.6754 H   0  0  0  0  0  0  0  0  0  0  0  0
  148.0776  139.7424  151.9640 H   0  0  0  0  0  0  0  0  0  0  0  0
  145.0396  138.4209  152.4579 H   0  0  0  0  0  0  0  0  0  0  0  0
  146.1444  138.0940  151.1366 H   0  0  0  0  0  0  0  0  0  0  0  0
  144.7615  136.0860  151.6531 H   0  0  0  0  0  0  0  0  0  0  0  0
  146.4666  135.7715  151.8716 H   0  0  0  0  0  0  0  0  0  0  0  0
  144.4438  136.3814  154.0834 H   0  0  0  0  0  0  0  0  0  0  0  0
  145.2201  134.8413  153.7882 H   0  0  0  0  0  0  0  0  0  0  0  0
  146.3299  136.1111  155.6521 H   0  0  0  0  0  0  0  0  0  0  0  0
  147.4334  135.7865  154.3365 H   0  0  0  0  0  0  0  0  0  0  0  0
  147.6800  138.1172  155.0785 H   0  0  0  0  0  0  0  0  0  0  0  0
  145.9743  138.4319  154.8466 H   0  0  0  0  0  0  0  0  0  0  0  0
  149.8932  143.6844  156.5913 H   0  0  0  0  0  0  0  0  0  0  0  0
  151.4982  144.7623  157.7165 H   0  0  0  0  0  0  0  0  0  0  0  0
  153.3365  144.7382  159.4028 H   0  0  0  0  0  0  0  0  0  0  0  0
  153.9444  142.5656  160.5058 H   0  0  0  0  0  0  0  0  0  0  0  0
  152.6677  140.5047  159.8583 H   0  0  0  0  0  0  0  0  0  0  0  0
  147.8520  137.6735  152.7261 H   0  0  0  0  0  0  0  0  0  0  0  0
  1  2  2  0  0  0  0
  2  3  1  0  0  0  0
  2 14  1  0  0  0  0
  3  4  1  0  0  0  0
  3 21  1  0  0  0  0
  4  5  1  0  0  0  0
  4 22  1  0  0  0  0
  4 23  1  0  0  0  0
  5  6  1  0  0  0  0
  5  7  1  0  0  0  0
  5 24  1  0  0  0  0
  6 25  1  0  0  0  0
  7  8  1  0  0  0  0
  7 26  1  0  0  0  0
  7 27  1  0  0  0  0
  8 13  1  0  0  0  0
  8  9  1  0  0  0  0
  8 43  1  0  0  0  0
  9 10  1  0  0  0  0
  9 28  1  0  0  0  0
  9 29  1  0  0  0  0
 10 11  1  0  0  0  0
 10 30  1  0  0  0  0
 10 31  1  0  0  0  0
 11 12  1  0  0  0  0
 11 32  1  0  0  0  0
 11 33  1  0  0  0  0
 12 13  1  0  0  0  0
 12 34  1  0  0  0  0
 12 35  1  0  0  0  0
 13 36  1  0  0  0  0
 13 37  1  0  0  0  0
 14 15  1  0  0  0  0
 14 38  1  0  0  0  0
 15 20  1  0  0  0  0
 15 16  2  0  0  0  0
 16 17  1  0  0  0  0
 16 39  1  0  0  0  0
 17 18  2  0  0  0  0
 17 40  1  0  0  0  0
 18 19  1  0  0  0  0
 18 41  1  0  0  0  0
 19 20  2  0  0  0  0
 19 42  1  0  0  0  0
M  CHG  1   8   1
M  END
> <s_m_source_file>
AV-unprocessed.smi

> <i_m_source_file_index>
1219

> <i_lp_mmshare_version>
43012

> <i_f3d_flags>
0

> <s_epik_input>
bjFbY0hdW2NIXVtjSF1bY0hdYzFbTkhdQyg9TylbTkhdW0NIMl1bQ0BIXShbT0hdKVtDSDJdTjJbQ0gyXVtDSDJdW0NIMl1bQ0gyXVtDSDJdMg==

> <s_epik_cmdline>
J2VwaWtfcHl0aG9uJywgJy1waCcsICc3LjAnLCAnLXRuJywgJzgnLCAnLW1hJywgJzIwMCcsICctbWV0YWxfYmluZGluZycsICctaW1hZScsICc8aW5maWxlLm1hZT4nLCAnLW9tYWUnLCAnPG91dGZpbGUubWFlPic=

> <r_epik_Ionization_Penalty>
0.00510026

> <r_epik_Ionization_Penalty_Charging>
0.00506051

> <r_epik_Ionization_Penalty_Neutral>
3.97538e-05

> <r_epik_State_Penalty>
0.00368188

> <r_epik_Charging_Adjusted_Penalty>
0.0087424

> <i_epik_Tot_Q>
1

> <i_epik_Tot_abs_Q>
1

> <r_epik_Metal_State_Penalty>
-0

> <b_epik_Metal_Only>
0

> <s_lp_Force_Field>
OPLS_2005

> <r_lp_Energy>
20.5821

> <b_lp_Chiralities_Consistent>
1

> <s_lp_Variant>
AV-unprocessed.smi:1219-1

> <Gold.Version>
5.8.1

> <Gold.Id.Protein>
6NUR|6NUR_protein|mol2

> <Gold.PLP.Fitness>
48.0213

> <Gold.PLP.PLP>
-34.9568

> <Gold.PLP.part.hbond>
-5.1743

> <Gold.PLP.part.metal>
0.0000

> <Gold.PLP.part.buried>
-1.5734

> <Gold.PLP.part.nonpolar>
-28.9285

> <Gold.PLP.part.repulsive>
0.2379

> <Gold.PLP.ligand.clash>
0.0000

> <Gold.PLP.ligand.torsion>
1.2827

> <Gold.PLP.Chemscore.Hbond>
5.1989

> <Gold.PLP.Chemscore.CHOScore>
0.0000

> <Gold.PLP.Chemscore.Metal>
0.0000

> <Gold.Chemscore.Hbonds>
donor molecule, donor type, donor heavy atom, donor atom, acceptor molecule, acceptor atom, score
      L1  H     3    21       P1  8028  1.00
      L1  H     6    25       P1  7957  1.00
      L1  H     8    43       P1  7948  2.00
      L1  H    14    38       P1  8028  0.96
      P1  H  7989  7998       L1     6  0.17

> <Gold.PLP.Chemscore.Internal.Correction>
0.0330

> <Gold.Rescore>
     Score         DG    S(hbond)    S(metal)    S(lipo)     H(rot)  DE(clash)    DE(int)     intcor
     17.54     -21.23       3.85        0.00      77.28       2.41       0.00       3.69       ----

> <Gold.Chemscore.Fitness>
17.5424

> <Gold.Chemscore.DG>
-21.2312

> <Gold.Chemscore.ZeroCoef>
-5.4800

> <Gold.Chemscore.Hbond>
3.8536

> <Gold.Chemscore.Metal>
0.0000

> <Gold.Chemscore.Lipo>
77.2781

> <Gold.Chemscore.Internal_Hbond>
0.0000

> <Gold.Chemscore.DEClash>
0.0038

> <Gold.Chemscore.DEInternal>
3.6850

> <Gold.Chemscore.Rot>
2.4067

> <Gold.Chemscore.Internal.Correction>
   9.000000E+99

> <Gold.Chemscore.Hbonds>
donor molecule, donor type, donor heavy atom, donor atom, acceptor molecule, acceptor atom, score
      L1  H     3    21       P1  8028  0.93
      L1  H     6    25       P1  7957  0.95
      L1  H     8    43       P1  7948  0.96
      L1  H    14    38       P1  8028  0.92
      P1  H  7989  7998       L1     6  0.01

> <Gold.Chemscore.Hbond.Weighted>
-12.8709

> <Gold.Chemscore.Metal.Weighted>
-0.0000

> <Gold.Chemscore.Lipo.Weighted>
-9.0415

> <Gold.Chemscore.Internal_Hbond.Weighted>
0.0000

> <Gold.Chemscore.DEClash.Weighted>
0.0038

> <Gold.Chemscore.DEInternal.Weighted>
3.6850

> <Gold.Chemscore.Rot.Weighted>
6.1612

> <Gold.Chemscore.Internal.Correction.Weighted>
   9.000000E+99

> <Gold.Protein.RotatedTorsions>
[ 6907 6896 6895 6894 ] final -137.52 input  -60.11 | X-H torsion
[ 7974 7965 7964 7962 ] final   33.08 input  175.53 | X-H torsion
[ 8008 7997 7996 7995 ] final  -44.85 input   59.86 | X-H torsion
[ 10167 10162 10161 10158 ] final -145.26 input  -65.29 | X-H torsion
[ 10718 10713 10712 10709 ] final    3.19 input   66.30 | X-H torsion
[ 10763 10752 10751 10750 ] final -175.07 input  -60.55 | X-H torsion
[ 11005 11000 10999 10996 ] final  104.53 input  -57.11 | X-H torsion

> <Gold.Protein.ActiveResidues>
 VAL166  LYS551  ARG553  GLY616  TRP617  ASP618  TYR619  PRO620  LYS621  CYS622 
 ASP623  PHE694  ASN695  SER759  ASP760  ASP761  ALA762  ILE779  LEU786  VAL792 
 PHE793  MET794  SER795  GLU796  ALA797  LYS798  CYS799  TRP800  GLU811  SER814 

> <Gold.Protein.RotatedAtoms>
  151.0235  133.5855  159.2668 H   0  0  0  0  0  0  0  0  0  0  0  0  # atno 6907 bound_to 6896
  151.2963  135.0755  159.9232 H   0  0  0  0  0  0  0  0  0  0  0  0  # atno 6908 bound_to 6896
  152.5328  133.9925  159.7911 H   0  0  0  0  0  0  0  0  0  0  0  0  # atno 6909 bound_to 6896
  146.1444  139.6443  142.9141 H   0  0  0  0  0  0  0  0  0  0  0  0  # atno 7974 bound_to 7965
  154.3998  140.1411  156.3751 H   0  0  0  0  0  0  0  0  0  0  0  0  # atno 8008 bound_to 7997
  155.8056  140.3474  155.5407 H   0  0  0  0  0  0  0  0  0  0  0  0  # atno 8009 bound_to 7997
  155.8439  140.0931  157.1708 H   0  0  0  0  0  0  0  0  0  0  0  0  # atno 8010 bound_to 7997
  139.7822  143.8085  152.2640 H   0  0  0  0  0  0  0  0  0  0  0  0  # atno 10167 bound_to 10162
  156.8742  130.5631  149.5656 H   0  0  0  0  0  0  0  0  0  0  0  0  # atno 10718 bound_to 10713
  154.5887  135.2843  155.0657 H   0  0  0  0  0  0  0  0  0  0  0  0  # atno 10763 bound_to 10752
  154.1966  135.6431  153.5079 H   0  0  0  0  0  0  0  0  0  0  0  0  # atno 10764 bound_to 10752
  153.0113  135.5459  154.6566 H   0  0  0  0  0  0  0  0  0  0  0  0  # atno 10765 bound_to 10752
  139.8793  134.9304  156.5376 H   0  0  0  0  0  0  0  0  0  0  0  0  # atno 11005 bound_to 11000
  145.4971  141.0438  143.2561 LP  0  0  0  0  0  0  0  0  0  0  0  0  # atno 17320 bound_to 7965
  144.7829  139.6487  143.7146 LP  0  0  0  0  0  0  0  0  0  0  0  0  # atno 17321 bound_to 7965
  139.8151  144.7319  150.9646 LP  0  0  0  0  0  0  0  0  0  0  0  0  # atno 17342 bound_to 10162
  140.7818  143.4213  151.0837 LP  0  0  0  0  0  0  0  0  0  0  0  0  # atno 17343 bound_to 10162
  156.0710  130.5743  150.9384 LP  0  0  0  0  0  0  0  0  0  0  0  0  # atno 17370 bound_to 10713
  157.6178  131.0932  150.8678 LP  0  0  0  0  0  0  0  0  0  0  0  0  # atno 17371 bound_to 10713
  140.8334  133.8261  155.9006 LP  0  0  0  0  0  0  0  0  0  0  0  0  # atno 17394 bound_to 11000
  140.9307  134.2026  157.4866 LP  0  0  0  0  0  0  0  0  0  0  0  0  # atno 17395 bound_to 11000

$$$$
