AV-unprocessed.smi:1070|AV-procd|sdf|4676|dock9
  -GOLD-   22720 3193D 1   1.00000     0.00000
 Structure written by MMmdl.
 48 49  0  0  0  0  0  0  0  0  1 V2000
  144.7104  132.3094  150.2282 C   0  0  0  0  0  0  0  0  0  0  0  0
  145.1225  132.1056  151.6879 C   0  0  0  0  0  0  0  0  0  0  0  0
  145.4509  133.3636  152.2506 O   0  0  0  0  0  0  0  0  0  0  0  0
  146.8030  133.7345  152.0199 C   0  0  0  0  0  0  0  0  0  0  0  0
  147.6963  133.0394  153.0472 C   0  0  0  0  0  0  0  0  0  0  0  0
  147.5190  131.8480  153.2986 O   0  0  0  0  0  0  0  0  0  0  0  0
  148.6419  133.8078  153.6161 N   0  0  0  0  0  0  0  0  0  0  0  0
  149.5357  133.4686  154.6692 C   0  0  0  0  0  0  0  0  0  0  0  0
  149.8027  132.1280  155.0339 C   0  0  0  0  0  0  0  0  0  0  0  0
  150.7343  131.8678  156.0550 C   0  0  0  0  0  0  0  0  0  0  0  0
  151.3804  132.9533  156.6745 C   0  0  0  0  0  0  0  0  0  0  0  0
  152.2942  132.6968  157.6761 O   0  0  0  0  0  0  0  0  0  0  0  0
  152.7886  131.3692  157.8141 C   0  0  0  0  0  0  0  0  0  0  0  0
  151.1407  134.2389  156.3212 N   0  0  0  0  0  0  0  0  0  0  0  0
  150.2426  134.5003  155.3418 C   0  0  0  0  0  0  0  0  0  0  0  0
  150.0120  135.8529  155.0213 N   0  0  0  0  0  0  0  0  0  0  0  0
  151.1536  136.6309  154.5372 C   0  0  0  0  0  0  0  0  0  0  0  0
  150.6857  137.9932  153.9902 C   0  0  0  0  0  0  0  0  0  0  0  0
  149.8996  138.6813  155.0233 N   0  0  0  0  0  0  0  0  0  0  0  0
  150.3135  139.8217  155.6247 C   0  0  0  0  0  0  0  0  0  0  0  0
  149.4566  140.4363  156.7337 C   0  0  0  0  0  0  0  0  0  0  0  0
  151.3591  140.3944  155.3174 O   0  0  0  0  0  0  0  0  0  0  0  0
  148.7011  137.9112  155.3849 C   0  0  0  0  0  0  0  0  0  0  0  0
  149.1359  136.5517  155.9621 C   0  0  0  0  0  0  0  0  0  0  0  0
  144.4310  131.3624  149.7664 H   0  0  0  0  0  0  0  0  0  0  0  0
  145.5287  132.7352  149.6474 H   0  0  0  0  0  0  0  0  0  0  0  0
  143.8573  132.9841  150.1520 H   0  0  0  0  0  0  0  0  0  0  0  0
  144.3053  131.6475  152.2468 H   0  0  0  0  0  0  0  0  0  0  0  0
  145.9792  131.4321  151.7415 H   0  0  0  0  0  0  0  0  0  0  0  0
  147.1093  133.4462  151.0128 H   0  0  0  0  0  0  0  0  0  0  0  0
  146.9249  134.8147  152.1128 H   0  0  0  0  0  0  0  0  0  0  0  0
  148.6174  134.7864  153.3671 H   0  0  0  0  0  0  0  0  0  0  0  0
  149.3232  131.2989  154.5363 H   0  0  0  0  0  0  0  0  0  0  0  0
  150.9544  130.8530  156.3519 H   0  0  0  0  0  0  0  0  0  0  0  0
  153.5002  131.3328  158.6388 H   0  0  0  0  0  0  0  0  0  0  0  0
  153.3100  131.0418  156.9133 H   0  0  0  0  0  0  0  0  0  0  0  0
  151.9856  130.6655  158.0385 H   0  0  0  0  0  0  0  0  0  0  0  0
  151.8635  136.7847  155.3513 H   0  0  0  0  0  0  0  0  0  0  0  0
  151.6726  136.0749  153.7553 H   0  0  0  0  0  0  0  0  0  0  0  0
  151.5484  138.5706  153.6561 H   0  0  0  0  0  0  0  0  0  0  0  0
  150.0631  137.8479  153.1061 H   0  0  0  0  0  0  0  0  0  0  0  0
  149.3413  139.7396  157.5645 H   0  0  0  0  0  0  0  0  0  0  0  0
  148.4702  140.7054  156.3551 H   0  0  0  0  0  0  0  0  0  0  0  0
  149.9224  141.3427  157.1219 H   0  0  0  0  0  0  0  0  0  0  0  0
  148.0477  138.4177  156.0935 H   0  0  0  0  0  0  0  0  0  0  0  0
  148.0976  137.7559  154.4899 H   0  0  0  0  0  0  0  0  0  0  0  0
  148.2545  135.9541  156.1938 H   0  0  0  0  0  0  0  0  0  0  0  0
  149.6709  136.6981  156.9013 H   0  0  0  0  0  0  0  0  0  0  0  0
  1  2  1  0  0  0  0
  1 25  1  0  0  0  0
  1 26  1  0  0  0  0
  1 27  1  0  0  0  0
  2  3  1  0  0  0  0
  2 28  1  0  0  0  0
  2 29  1  0  0  0  0
  3  4  1  0  0  0  0
  4  5  1  0  0  0  0
  4 30  1  0  0  0  0
  4 31  1  0  0  0  0
  5  6  2  0  0  0  0
  5  7  1  0  0  0  0
  7  8  1  0  0  0  0
  7 32  1  0  0  0  0
  8 15  1  0  0  0  0
  8  9  2  0  0  0  0
  9 10  1  0  0  0  0
  9 33  1  0  0  0  0
 10 11  2  0  0  0  0
 10 34  1  0  0  0  0
 11 12  1  0  0  0  0
 11 14  1  0  0  0  0
 12 13  1  0  0  0  0
 13 35  1  0  0  0  0
 13 36  1  0  0  0  0
 13 37  1  0  0  0  0
 14 15  2  0  0  0  0
 15 16  1  0  0  0  0
 16 24  1  0  0  0  0
 16 17  1  0  0  0  0
 17 18  1  0  0  0  0
 17 38  1  0  0  0  0
 17 39  1  0  0  0  0
 18 19  1  0  0  0  0
 18 40  1  0  0  0  0
 18 41  1  0  0  0  0
 19 20  1  0  0  0  0
 19 23  1  0  0  0  0
 20 21  1  0  0  0  0
 20 22  2  0  0  0  0
 21 42  1  0  0  0  0
 21 43  1  0  0  0  0
 21 44  1  0  0  0  0
 23 24  1  0  0  0  0
 23 45  1  0  0  0  0
 23 46  1  0  0  0  0
 24 47  1  0  0  0  0
 24 48  1  0  0  0  0
M  END
> <s_m_source_file>
AV-unprocessed.smi

> <i_m_source_file_index>
1070

> <i_lp_mmshare_version>
43012

> <i_f3d_flags>
0

> <s_epik_input>
W0NIM11bQ0gyXU9bQ0gyXUMoPU8pW05IXWMxW2NIXVtjSF1jKE9bQ0gzXSluYzFOMltDSDJdW0NIMl1OKEMoPU8pW0NIM10pW0NIMl1bQ0gyXTI=

> <s_epik_cmdline>
J2VwaWtfcHl0aG9uJywgJy1waCcsICc3LjAnLCAnLXRuJywgJzgnLCAnLW1hJywgJzIwMCcsICctbWV0YWxfYmluZGluZycsICctaW1hZScsICc8aW5maWxlLm1hZT4nLCAnLW9tYWUnLCAnPG91dGZpbGUubWFlPic=

> <r_lp_tautomer_probability>
1

> <r_epik_Ionization_Penalty>
0.000131804

> <r_epik_Ionization_Penalty_Charging>
0

> <r_epik_Ionization_Penalty_Neutral>
0.000131804

> <r_epik_State_Penalty>
-0

> <r_epik_Charging_Adjusted_Penalty>
0

> <i_epik_Tot_Q>
0

> <i_epik_Tot_abs_Q>
0

> <r_epik_Metal_State_Penalty>
-0

> <b_epik_Metal_Only>
0

> <s_lp_Force_Field>
OPLS_2005

> <r_lp_Energy>
37.3921

> <b_lp_Chiralities_Consistent>
1

> <s_lp_Variant>
AV-unprocessed.smi:1070-1

> <Gold.Version>
5.8.1

> <Gold.Id.Protein>
6NUR|6NUR_protein|mol2

> <Gold.PLP.Fitness>
40.0861

> <Gold.PLP.PLP>
-32.9365

> <Gold.PLP.part.hbond>
-3.0000

> <Gold.PLP.part.metal>
0.0000

> <Gold.PLP.part.buried>
-2.6294

> <Gold.PLP.part.nonpolar>
-28.3321

> <Gold.PLP.part.repulsive>
0.4028

> <Gold.PLP.ligand.clash>
0.0000

> <Gold.PLP.ligand.torsion>
0.9707

> <Gold.PLP.Chemscore.Hbond>
2.8800

> <Gold.PLP.Chemscore.CHOScore>
0.0000

> <Gold.PLP.Chemscore.Metal>
0.0000

> <Gold.Chemscore.Hbonds>
donor molecule, donor type, donor heavy atom, donor atom, acceptor molecule, acceptor atom, score
      L1  H     7    32       P1  7948  0.79
      P1  H  6896  6907       L1    12  0.91
      P1  H  7989  7998       L1    22  0.94

> <Gold.PLP.Chemscore.Internal.Correction>
0.4509

> <Gold.Rescore>
     Score         DG    S(hbond)    S(metal)    S(lipo)     H(rot)  DE(clash)    DE(int)     intcor
     11.66     -14.69       1.94        0.00      64.15       1.86       0.78       2.26       ----

> <Gold.Chemscore.Fitness>
11.6580

> <Gold.Chemscore.DG>
-14.6940

> <Gold.Chemscore.ZeroCoef>
-5.4800

> <Gold.Chemscore.Hbond>
1.9396

> <Gold.Chemscore.Metal>
0.0000

> <Gold.Chemscore.Lipo>
64.1469

> <Gold.Chemscore.Internal_Hbond>
0.0000

> <Gold.Chemscore.DEClash>
0.7791

> <Gold.Chemscore.DEInternal>
2.2569

> <Gold.Chemscore.Rot>
1.8631

> <Gold.Chemscore.Internal.Correction>
   9.000000E+99

> <Gold.Chemscore.Hbonds>
donor molecule, donor type, donor heavy atom, donor atom, acceptor molecule, acceptor atom, score
      L1  H     7    32       P1  7948  0.42
      P1  H  6896  6907       L1    12  0.57
      P1  H  7989  7998       L1    22  0.88

> <Gold.Chemscore.Hbond.Weighted>
-6.4784

> <Gold.Chemscore.Metal.Weighted>
-0.0000

> <Gold.Chemscore.Lipo.Weighted>
-7.5052

> <Gold.Chemscore.Internal_Hbond.Weighted>
0.0000

> <Gold.Chemscore.DEClash.Weighted>
0.7791

> <Gold.Chemscore.DEInternal.Weighted>
2.2569

> <Gold.Chemscore.Rot.Weighted>
4.7696

> <Gold.Chemscore.Internal.Correction.Weighted>
   9.000000E+99

> <Gold.Protein.RotatedTorsions>
[ 6907 6896 6895 6894 ] final  158.58 input  -60.11 | X-H torsion
[ 7974 7965 7964 7962 ] final -175.81 input  175.53 | X-H torsion
[ 8008 7997 7996 7995 ] final   37.57 input   59.86 | X-H torsion
[ 10167 10162 10161 10158 ] final   34.69 input  -65.29 | X-H torsion
[ 10718 10713 10712 10709 ] final  103.77 input   66.30 | X-H torsion
[ 10763 10752 10751 10750 ] final   79.34 input  -60.55 | X-H torsion
[ 11005 11000 10999 10996 ] final  116.65 input  -57.11 | X-H torsion

> <Gold.Protein.ActiveResidues>
 VAL166  LYS551  ARG553  GLY616  TRP617  ASP618  TYR619  PRO620  LYS621  CYS622 
 ASP623  PHE694  ASN695  SER759  ASP760  ASP761  ALA762  ILE779  LEU786  VAL792 
 PHE793  MET794  SER795  GLU796  ALA797  LYS798  CYS799  TRP800  GLU811  SER814 

> <Gold.Protein.RotatedAtoms>
  151.9983  133.3816  159.4171 H   0  0  0  0  0  0  0  0  0  0  0  0  # atno 6907 bound_to 6896
  150.6913  134.3862  159.5065 H   0  0  0  0  0  0  0  0  0  0  0  0  # atno 6908 bound_to 6896
  152.1605  134.8915  160.0592 H   0  0  0  0  0  0  0  0  0  0  0  0  # atno 6909 bound_to 6896
  144.7127  140.1265  143.6401 H   0  0  0  0  0  0  0  0  0  0  0  0  # atno 7974 bound_to 7965
  155.2060  140.3319  155.4336 H   0  0  0  0  0  0  0  0  0  0  0  0  # atno 8008 bound_to 7997
  156.2389  140.1885  156.7093 H   0  0  0  0  0  0  0  0  0  0  0  0  # atno 8009 bound_to 7997
  154.6110  140.0609  156.9479 H   0  0  0  0  0  0  0  0  0  0  0  0  # atno 8010 bound_to 7997
  140.4291  144.1350  150.6157 H   0  0  0  0  0  0  0  0  0  0  0  0  # atno 10167 bound_to 10162
  157.6762  131.0787  150.5606 H   0  0  0  0  0  0  0  0  0  0  0  0  # atno 10718 bound_to 10713
  153.0945  135.4843  154.8752 H   0  0  0  0  0  0  0  0  0  0  0  0  # atno 10763 bound_to 10752
  154.7308  135.3060  154.8897 H   0  0  0  0  0  0  0  0  0  0  0  0  # atno 10764 bound_to 10752
  153.9533  135.6821  153.4797 H   0  0  0  0  0  0  0  0  0  0  0  0  # atno 10765 bound_to 10752
  139.9048  134.9600  156.7230 H   0  0  0  0  0  0  0  0  0  0  0  0  # atno 11005 bound_to 11000
  145.9324  139.2615  143.1317 LP  0  0  0  0  0  0  0  0  0  0  0  0  # atno 17320 bound_to 7965
  145.9509  140.8909  143.0260 LP  0  0  0  0  0  0  0  0  0  0  0  0  # atno 17321 bound_to 7965
  140.4447  143.2511  151.9427 LP  0  0  0  0  0  0  0  0  0  0  0  0  # atno 17342 bound_to 10162
  139.4784  144.5620  151.8224 LP  0  0  0  0  0  0  0  0  0  0  0  0  # atno 17343 bound_to 10162
  156.5909  130.4329  149.5937 LP  0  0  0  0  0  0  0  0  0  0  0  0  # atno 17370 bound_to 10713
  156.2584  130.6948  151.1709 LP  0  0  0  0  0  0  0  0  0  0  0  0  # atno 17371 bound_to 10713
  140.6985  133.9327  155.8010 LP  0  0  0  0  0  0  0  0  0  0  0  0  # atno 17394 bound_to 11000
  141.0389  134.0650  157.3926 LP  0  0  0  0  0  0  0  0  0  0  0  0  # atno 17395 bound_to 11000

$$$$
