AV-unprocessed.smi:2780|AV-procd|sdf|10716|dock4
  -GOLD-   2272015153D 1   1.00000     0.00000
 Structure written by MMmdl.
 47 49  0  0  0  0  0  0  0  0  2 V2000
  153.0665  139.9472  158.2971 C   0  0  0  0  0  0  0  0  0  0  0  0
  152.7051  141.2983  158.8906 C   0  0  0  0  0  0  0  0  0  0  0  0
  152.9805  141.5927  160.1765 C   0  0  0  0  0  0  0  0  0  0  0  0
  152.6934  142.9282  160.8372 C   0  0  0  0  0  0  0  0  0  0  0  0
  151.8469  143.8614  159.9571 C   0  0  0  0  0  0  0  0  0  0  0  0
  152.2473  143.7561  158.4745 C   0  0  2  0  0  0  0  0  0  0  0  0
  151.5917  144.8609  157.6287 C   0  0  0  0  0  0  0  0  0  0  0  0
  152.0562  142.3048  157.9361 C   0  0  2  0  0  0  0  0  0  0  0  0
  150.5830  141.9050  157.6647 C   0  0  0  0  0  0  0  0  0  0  0  0
  150.1918  142.1214  156.2573 N   0  3  0  0  0  0  0  0  0  0  0  0
  151.1800  141.6370  155.2753 C   0  0  0  0  0  0  0  0  0  0  0  0
  150.9570  140.1518  154.9605 C   0  0  0  0  0  0  0  0  0  0  0  0
  152.2055  139.4752  154.6607 N   0  0  0  0  0  0  0  0  0  0  0  0
  153.4458  139.9868  154.6327 C   0  0  0  0  0  0  0  0  0  0  0  0
  154.4093  139.1134  154.3445 N   0  0  0  0  0  0  0  0  0  0  0  0
  153.7491  137.9143  154.1645 N   0  0  0  0  0  0  0  0  0  0  0  0
  152.4516  138.1862  154.3465 C   0  0  0  0  0  0  0  0  0  0  0  0
  151.3715  137.1534  154.2733 C   0  0  0  0  0  0  0  0  0  0  0  0
  151.2925  136.0336  155.2875 C   0  0  0  0  0  0  0  0  0  0  0  0
  151.6739  135.7286  153.8628 C   0  0  0  0  0  0  0  0  0  0  0  0
  153.7307  140.0755  157.4421 H   0  0  0  0  0  0  0  0  0  0  0  0
  152.1801  139.4082  157.9649 H   0  0  0  0  0  0  0  0  0  0  0  0
  153.5798  139.3191  159.0261 H   0  0  0  0  0  0  0  0  0  0  0  0
  153.4633  140.8557  160.8018 H   0  0  0  0  0  0  0  0  0  0  0  0
  152.1975  142.7618  161.7939 H   0  0  0  0  0  0  0  0  0  0  0  0
  153.6528  143.3975  161.0568 H   0  0  0  0  0  0  0  0  0  0  0  0
  150.7910  143.6180  160.0753 H   0  0  0  0  0  0  0  0  0  0  0  0
  151.9591  144.8867  160.3115 H   0  0  0  0  0  0  0  0  0  0  0  0
  153.3193  143.9580  158.4306 H   0  0  0  0  0  0  0  0  0  0  0  0
  150.5043  144.8374  157.7031 H   0  0  0  0  0  0  0  0  0  0  0  0
  151.8674  144.7717  156.5776 H   0  0  0  0  0  0  0  0  0  0  0  0
  151.9141  145.8467  157.9653 H   0  0  0  0  0  0  0  0  0  0  0  0
  152.6055  142.2312  156.9961 H   0  0  0  0  0  0  0  0  0  0  0  0
  150.4236  140.8482  157.8754 H   0  0  0  0  0  0  0  0  0  0  0  0
  149.9094  142.4511  158.3250 H   0  0  0  0  0  0  0  0  0  0  0  0
  149.3200  141.6377  156.0949 H   0  0  0  0  0  0  0  0  0  0  0  0
  151.1052  142.2302  154.3631 H   0  0  0  0  0  0  0  0  0  0  0  0
  152.1820  141.7890  155.6780 H   0  0  0  0  0  0  0  0  0  0  0  0
  150.4759  139.6477  155.7985 H   0  0  0  0  0  0  0  0  0  0  0  0
  150.2893  140.0422  154.1049 H   0  0  0  0  0  0  0  0  0  0  0  0
  153.6522  141.0271  154.8375 H   0  0  0  0  0  0  0  0  0  0  0  0
  150.4366  137.5969  153.9368 H   0  0  0  0  0  0  0  0  0  0  0  0
  152.0769  135.9713  156.0397 H   0  0  0  0  0  0  0  0  0  0  0  0
  150.3029  135.7269  155.6197 H   0  0  0  0  0  0  0  0  0  0  0  0
  150.9396  135.2196  153.2420 H   0  0  0  0  0  0  0  0  0  0  0  0
  152.7119  135.4621  153.6721 H   0  0  0  0  0  0  0  0  0  0  0  0
  150.0441  143.1100  156.1120 H   0  0  0  0  0  0  0  0  0  0  0  0
  1  2  1  0  0  0  0
  1 21  1  0  0  0  0
  1 22  1  0  0  0  0
  1 23  1  0  0  0  0
  2  8  1  0  0  0  0
  2  3  2  0  0  0  0
  3  4  1  0  0  0  0
  3 24  1  0  0  0  0
  4  5  1  0  0  0  0
  4 25  1  0  0  0  0
  4 26  1  0  0  0  0
  5  6  1  0  0  0  0
  5 27  1  0  0  0  0
  5 28  1  0  0  0  0
  6  7  1  0  0  0  0
  6  8  1  0  0  0  0
  6 29  1  0  0  0  0
  7 30  1  0  0  0  0
  7 31  1  0  0  0  0
  7 32  1  0  0  0  0
  8  9  1  0  0  0  0
  8 33  1  0  0  0  0
  9 10  1  0  0  0  0
  9 34  1  0  0  0  0
  9 35  1  0  0  0  0
 10 11  1  0  0  0  0
 10 36  1  0  0  0  0
 10 47  1  0  0  0  0
 11 12  1  0  0  0  0
 11 37  1  0  0  0  0
 11 38  1  0  0  0  0
 12 13  1  0  0  0  0
 12 39  1  0  0  0  0
 12 40  1  0  0  0  0
 13 17  1  0  0  0  0
 13 14  1  0  0  0  0
 14 15  2  0  0  0  0
 14 41  1  0  0  0  0
 15 16  1  0  0  0  0
 16 17  2  0  0  0  0
 17 18  1  0  0  0  0
 18 20  1  0  0  0  0
 18 19  1  0  0  0  0
 18 42  1  0  0  0  0
 19 20  1  0  0  0  0
 19 43  1  0  0  0  0
 19 44  1  0  0  0  0
 20 45  1  0  0  0  0
 20 46  1  0  0  0  0
M  CHG  1  10   1
M  END
> <s_m_source_file>
AV-unprocessed.smi

> <i_m_source_file_index>
2780

> <i_lp_mmshare_version>
43012

> <i_f3d_flags>
0

> <s_epik_input>
W0NIM11DMT1bQ0hdW0NIMl1bQ0gyXVtDQEBIXShbQ0gzXSlbQ0BIXTFbQ0gyXVtOSF1bQ0gyXVtDSDJdbjJbY0hdbm5jMltDSF0zW0NIMl1bQ0gyXTM=

> <s_epik_cmdline>
J2VwaWtfcHl0aG9uJywgJy1waCcsICc3LjAnLCAnLXRuJywgJzgnLCAnLW1hJywgJzIwMCcsICctbWV0YWxfYmluZGluZycsICctaW1hZScsICc8aW5maWxlLm1hZT4nLCAnLW9tYWUnLCAnPG91dGZpbGUubWFlPic=

> <r_lp_tautomer_probability>
1

> <r_epik_Ionization_Penalty>
0.00176214

> <r_epik_Ionization_Penalty_Charging>
0.00175191

> <r_epik_Ionization_Penalty_Neutral>
1.02377e-05

> <r_epik_State_Penalty>
-0

> <r_epik_Charging_Adjusted_Penalty>
0.00175191

> <i_epik_Tot_Q>
1

> <i_epik_Tot_abs_Q>
1

> <r_epik_Metal_State_Penalty>
-0

> <b_epik_Metal_Only>
0

> <s_lp_Force_Field>
OPLS_2005

> <r_lp_Energy>
23.8201

> <b_lp_Chiralities_Consistent>
1

> <s_lp_Variant>
AV-unprocessed.smi:2780-4

> <Gold.Version>
5.8.1

> <Gold.Id.Protein>
6NUR|6NUR_protein|mol2

> <Gold.PLP.Fitness>
50.9638

> <Gold.PLP.PLP>
-44.2611

> <Gold.PLP.part.hbond>
-2.8017

> <Gold.PLP.part.metal>
0.0000

> <Gold.PLP.part.buried>
-5.2984

> <Gold.PLP.part.nonpolar>
-36.0199

> <Gold.PLP.part.repulsive>
0.1739

> <Gold.PLP.ligand.clash>
0.0000

> <Gold.PLP.ligand.torsion>
0.9873

> <Gold.PLP.Chemscore.Hbond>
2.8160

> <Gold.PLP.Chemscore.CHOScore>
0.0000

> <Gold.PLP.Chemscore.Metal>
0.0000

> <Gold.Chemscore.Hbonds>
donor molecule, donor type, donor heavy atom, donor atom, acceptor molecule, acceptor atom, score
      L1  H    10    47       P1  8028  1.98

> <Gold.PLP.Chemscore.Internal.Correction>
0.2293

> <Gold.Rescore>
     Score         DG    S(hbond)    S(metal)    S(lipo)     H(rot)  DE(clash)    DE(int)     intcor
     17.58     -19.04       1.59        0.00     113.81       1.98       0.42       1.04       ----

> <Gold.Chemscore.Fitness>
17.5842

> <Gold.Chemscore.DG>
-19.0362

> <Gold.Chemscore.ZeroCoef>
-5.4800

> <Gold.Chemscore.Hbond>
1.5897

> <Gold.Chemscore.Metal>
0.0000

> <Gold.Chemscore.Lipo>
113.8058

> <Gold.Chemscore.Internal_Hbond>
0.0000

> <Gold.Chemscore.DEClash>
0.4152

> <Gold.Chemscore.DEInternal>
1.0368

> <Gold.Chemscore.Rot>
1.9799

> <Gold.Chemscore.Internal.Correction>
   9.000000E+99

> <Gold.Chemscore.Hbonds>
donor molecule, donor type, donor heavy atom, donor atom, acceptor molecule, acceptor atom, score
      L1  H    10    47       P1  8028  0.90

> <Gold.Chemscore.Hbond.Weighted>
-5.3095

> <Gold.Chemscore.Metal.Weighted>
-0.0000

> <Gold.Chemscore.Lipo.Weighted>
-13.3153

> <Gold.Chemscore.Internal_Hbond.Weighted>
0.0000

> <Gold.Chemscore.DEClash.Weighted>
0.4152

> <Gold.Chemscore.DEInternal.Weighted>
1.0368

> <Gold.Chemscore.Rot.Weighted>
5.0685

> <Gold.Chemscore.Internal.Correction.Weighted>
   9.000000E+99

> <Gold.Protein.RotatedTorsions>
[ 6907 6896 6895 6894 ] final -152.13 input  -60.11 | X-H torsion
[ 7974 7965 7964 7962 ] final  179.36 input  175.53 | X-H torsion
[ 8008 7997 7996 7995 ] final -152.41 input   59.86 | X-H torsion
[ 10167 10162 10161 10158 ] final   44.26 input  -65.29 | X-H torsion
[ 10718 10713 10712 10709 ] final    1.27 input   66.30 | X-H torsion
[ 10763 10752 10751 10750 ] final  171.37 input  -60.55 | X-H torsion
[ 11005 11000 10999 10996 ] final  120.50 input  -57.11 | X-H torsion

> <Gold.Protein.ActiveResidues>
 VAL166  LYS551  ARG553  GLY616  TRP617  ASP618  TYR619  PRO620  LYS621  CYS622 
 ASP623  PHE694  ASN695  SER759  ASP760  ASP761  ALA762  ILE779  LEU786  VAL792 
 PHE793  MET794  SER795  GLU796  ALA797  LYS798  CYS799  TRP800  GLU811  SER814 

> <Gold.Protein.RotatedAtoms>
  151.2233  133.4490  159.2601 H   0  0  0  0  0  0  0  0  0  0  0  0  # atno 6907 bound_to 6896
  151.0864  134.9889  159.8391 H   0  0  0  0  0  0  0  0  0  0  0  0  # atno 6908 bound_to 6896
  152.5430  134.2170  159.8825 H   0  0  0  0  0  0  0  0  0  0  0  0  # atno 6909 bound_to 6896
  144.7146  140.0537  143.6434 H   0  0  0  0  0  0  0  0  0  0  0  0  # atno 7974 bound_to 7965
  155.6547  140.0716  157.2575 H   0  0  0  0  0  0  0  0  0  0  0  0  # atno 8008 bound_to 7997
  154.4155  140.1727  156.1762 H   0  0  0  0  0  0  0  0  0  0  0  0  # atno 8009 bound_to 7997
  155.9747  140.3359  155.6611 H   0  0  0  0  0  0  0  0  0  0  0  0  # atno 8010 bound_to 7997
  140.3361  144.2528  150.6161 H   0  0  0  0  0  0  0  0  0  0  0  0  # atno 10167 bound_to 10162
  156.8458  130.5536  149.5674 H   0  0  0  0  0  0  0  0  0  0  0  0  # atno 10718 bound_to 10713
  154.4109  135.2756  155.2037 H   0  0  0  0  0  0  0  0  0  0  0  0  # atno 10763 bound_to 10752
  154.4024  135.6041  153.5908 H   0  0  0  0  0  0  0  0  0  0  0  0  # atno 10764 bound_to 10752
  152.9831  135.5929  154.4390 H   0  0  0  0  0  0  0  0  0  0  0  0  # atno 10765 bound_to 10752
  139.9188  134.9635  156.7816 H   0  0  0  0  0  0  0  0  0  0  0  0  # atno 11005 bound_to 11000
  145.9923  139.3024  143.0977 LP  0  0  0  0  0  0  0  0  0  0  0  0  # atno 17320 bound_to 7965
  145.8889  140.9316  143.0562 LP  0  0  0  0  0  0  0  0  0  0  0  0  # atno 17321 bound_to 7965
  140.5352  143.2235  151.8174 LP  0  0  0  0  0  0  0  0  0  0  0  0  # atno 17342 bound_to 10162
  139.4848  144.4670  151.9472 LP  0  0  0  0  0  0  0  0  0  0  0  0  # atno 17343 bound_to 10162
  156.0855  130.5855  150.9641 LP  0  0  0  0  0  0  0  0  0  0  0  0  # atno 17370 bound_to 10713
  157.6331  131.0919  150.8403 LP  0  0  0  0  0  0  0  0  0  0  0  0  # atno 17371 bound_to 10713
  140.6539  133.9706  155.7769 LP  0  0  0  0  0  0  0  0  0  0  0  0  # atno 17394 bound_to 11000
  141.0689  134.0235  157.3554 LP  0  0  0  0  0  0  0  0  0  0  0  0  # atno 17395 bound_to 11000

$$$$
