AV-unprocessed.smi:2693|AV-procd|sdf|10399|dock10
  -GOLD-   2272014433D 1   1.00000     0.00000
 Structure written by MMmdl.
 45 47  0  0  0  0  0  0  0  0  1 V2000
  150.2880  141.7327  158.2599 C   0  0  0  0  0  0  0  0  0  0  0  0
  150.4467  141.6350  156.8117 N   0  0  0  0  0  0  0  0  0  0  0  0
  151.3451  142.5861  156.1630 C   0  0  0  0  0  0  0  0  0  0  0  0
  149.7459  140.6797  156.0693 C   0  0  0  0  0  0  0  0  0  0  0  0
  148.6463  140.1531  156.6234 N   0  0  0  0  0  0  0  0  0  0  0  0
  147.9635  139.2294  155.9143 C   0  0  0  0  0  0  0  0  0  0  0  0
  148.3823  138.8242  154.6240 C   0  0  0  0  0  0  0  0  0  0  0  0
  147.7352  137.8526  153.8131 N   0  0  0  0  0  0  0  0  0  0  0  0
  146.4235  137.5768  153.7165 C   0  0  0  0  0  0  0  0  0  0  0  0
  145.5251  138.1494  154.3317 O   0  0  0  0  0  0  0  0  0  0  0  0
  146.2004  136.5919  152.8365 N   0  0  0  0  0  0  0  0  0  0  0  0
  144.8791  136.0686  152.5047 C   0  0  2  0  0  0  0  0  0  0  0  0
  144.2524  135.2744  153.6613 C   0  0  1  0  0  0  0  0  0  0  0  0
  143.0072  135.7856  154.3338 C   0  0  0  0  0  0  0  0  0  0  0  0
  141.8908  135.0356  153.6016 C   0  0  0  0  0  0  0  0  0  0  0  0
  142.4712  134.6528  152.3567 O   0  0  0  0  0  0  0  0  0  0  0  0
  143.8172  134.2605  152.6143 C   0  0  1  0  0  0  0  0  0  0  0  0
  144.8905  134.7841  151.6367 C   0  0  0  0  0  0  0  0  0  0  0  0
  144.4491  134.9486  150.1816 C   0  0  0  0  0  0  0  0  0  0  0  0
  146.1804  133.9515  151.6163 C   0  0  0  0  0  0  0  0  0  0  0  0
  149.5567  139.4370  154.1431 C   0  0  0  0  0  0  0  0  0  0  0  0
  150.2297  140.3597  154.8618 N   0  0  0  0  0  0  0  0  0  0  0  0
  150.5411  140.7850  158.7364 H   0  0  0  0  0  0  0  0  0  0  0  0
  149.2562  141.9801  158.5122 H   0  0  0  0  0  0  0  0  0  0  0  0
  150.9300  142.5013  158.6900 H   0  0  0  0  0  0  0  0  0  0  0  0
  150.8024  143.1818  155.4283 H   0  0  0  0  0  0  0  0  0  0  0  0
  152.1511  142.0594  155.6509 H   0  0  0  0  0  0  0  0  0  0  0  0
  151.7977  143.2734  156.8774 H   0  0  0  0  0  0  0  0  0  0  0  0
  147.0970  138.8203  156.4082 H   0  0  0  0  0  0  0  0  0  0  0  0
  148.3440  137.3243  153.2053 H   0  0  0  0  0  0  0  0  0  0  0  0
  146.9913  136.1764  152.3665 H   0  0  0  0  0  0  0  0  0  0  0  0
  144.1923  136.8242  152.1160 H   0  0  0  0  0  0  0  0  0  0  0  0
  144.9985  134.8548  154.3389 H   0  0  0  0  0  0  0  0  0  0  0  0
  142.9935  135.5794  155.4043 H   0  0  0  0  0  0  0  0  0  0  0  0
  142.9054  136.8628  154.1976 H   0  0  0  0  0  0  0  0  0  0  0  0
  141.6080  134.1374  154.1526 H   0  0  0  0  0  0  0  0  0  0  0  0
  140.9974  135.6437  153.4584 H   0  0  0  0  0  0  0  0  0  0  0  0
  143.9175  133.2212  152.9305 H   0  0  0  0  0  0  0  0  0  0  0  0
  144.2219  133.9866  149.7214 H   0  0  0  0  0  0  0  0  0  0  0  0
  145.2222  135.4293  149.5813 H   0  0  0  0  0  0  0  0  0  0  0  0
  143.5533  135.5650  150.1002 H   0  0  0  0  0  0  0  0  0  0  0  0
  146.0102  132.9673  151.1790 H   0  0  0  0  0  0  0  0  0  0  0  0
  146.5742  133.7901  152.6201 H   0  0  0  0  0  0  0  0  0  0  0  0
  146.9647  134.4363  151.0340 H   0  0  0  0  0  0  0  0  0  0  0  0
  149.9613  139.1886  153.1728 H   0  0  0  0  0  0  0  0  0  0  0  0
  1  2  1  0  0  0  0
  1 23  1  0  0  0  0
  1 24  1  0  0  0  0
  1 25  1  0  0  0  0
  2  3  1  0  0  0  0
  2  4  1  0  0  0  0
  3 26  1  0  0  0  0
  3 27  1  0  0  0  0
  3 28  1  0  0  0  0
  4 22  1  0  0  0  0
  4  5  2  0  0  0  0
  5  6  1  0  0  0  0
  6  7  2  0  0  0  0
  6 29  1  0  0  0  0
  7  8  1  0  0  0  0
  7 21  1  0  0  0  0
  8  9  1  0  0  0  0
  8 30  1  0  0  0  0
  9 10  2  0  0  0  0
  9 11  1  0  0  0  0
 11 12  1  0  0  0  0
 11 31  1  0  0  0  0
 12 18  1  0  0  0  0
 12 13  1  0  0  0  0
 12 32  1  0  0  0  0
 13 17  1  0  0  0  0
 13 14  1  0  0  0  0
 13 33  1  0  0  0  0
 14 15  1  0  0  0  0
 14 34  1  0  0  0  0
 14 35  1  0  0  0  0
 15 16  1  0  0  0  0
 15 36  1  0  0  0  0
 15 37  1  0  0  0  0
 16 17  1  0  0  0  0
 17 18  1  0  0  0  0
 17 38  1  0  0  0  0
 18 19  1  0  0  0  0
 18 20  1  0  0  0  0
 19 39  1  0  0  0  0
 19 40  1  0  0  0  0
 19 41  1  0  0  0  0
 20 42  1  0  0  0  0
 20 43  1  0  0  0  0
 20 44  1  0  0  0  0
 21 22  2  0  0  0  0
 21 45  1  0  0  0  0
M  END
> <s_m_source_file>
AV-unprocessed.smi

> <i_m_source_file_index>
2693

> <i_lp_mmshare_version>
43012

> <i_f3d_flags>
0

> <s_epik_input>
W0NIM11OKFtDSDNdKWMxbltjSF1jKFtjSF1uMSlbTkhdQyg9TylbTkhdW0NASF0yQyhbQ0gzXSkoW0NIM10pW0NAQEhdKFtDQEhdMjMpT1tDSDJdW0NIMl0z

> <s_epik_cmdline>
J2VwaWtfcHl0aG9uJywgJy1waCcsICc3LjAnLCAnLXRuJywgJzgnLCAnLW1hJywgJzIwMCcsICctbWV0YWxfYmluZGluZycsICctaW1hZScsICc8aW5maWxlLm1hZT4nLCAnLW9tYWUnLCAnPG91dGZpbGUubWFlPic=

> <r_lp_tautomer_probability>
1

> <r_epik_Ionization_Penalty>
0.00031779

> <r_epik_Ionization_Penalty_Charging>
0

> <r_epik_Ionization_Penalty_Neutral>
0.00031779

> <r_epik_State_Penalty>
-0

> <r_epik_Charging_Adjusted_Penalty>
0

> <i_epik_Tot_Q>
0

> <i_epik_Tot_abs_Q>
0

> <r_epik_Metal_State_Penalty>
-0

> <b_epik_Metal_Only>
0

> <s_lp_Force_Field>
OPLS_2005

> <r_lp_Energy>
29.3552

> <b_lp_Chiralities_Consistent>
1

> <s_lp_Variant>
AV-unprocessed.smi:2693-3

> <Gold.Version>
5.8.1

> <Gold.Id.Protein>
6NUR|6NUR_protein|mol2

> <Gold.PLP.Fitness>
34.7088

> <Gold.PLP.PLP>
-23.6944

> <Gold.PLP.part.hbond>
-3.0000

> <Gold.PLP.part.metal>
0.0000

> <Gold.PLP.part.buried>
-2.3352

> <Gold.PLP.part.nonpolar>
-18.4938

> <Gold.PLP.part.repulsive>
0.6039

> <Gold.PLP.ligand.clash>
0.0000

> <Gold.PLP.ligand.torsion>
0.5059

> <Gold.PLP.Chemscore.Hbond>
2.9500

> <Gold.PLP.Chemscore.CHOScore>
1.0000

> <Gold.PLP.Chemscore.Metal>
0.0000

> <Gold.Chemscore.Hbonds>
donor molecule, donor type, donor heavy atom, donor atom, acceptor molecule, acceptor atom, score
      L1  H     8    30       P1  7948  1.00
      L1  H    11    31       P1  7948  1.00
      P1  H  7989  7998       L1    22  0.95
      L1  C    21    45       P1  7957  1.00

> <Gold.PLP.Chemscore.Internal.Correction>
0.1763

> <Gold.Rescore>
     Score         DG    S(hbond)    S(metal)    S(lipo)     H(rot)  DE(clash)    DE(int)     intcor
     15.43     -16.41       1.99        0.00      58.59       1.00       0.45       0.53       ----

> <Gold.Chemscore.Fitness>
15.4288

> <Gold.Chemscore.DG>
-16.4064

> <Gold.Chemscore.ZeroCoef>
-5.4800

> <Gold.Chemscore.Hbond>
1.9855

> <Gold.Chemscore.Metal>
0.0000

> <Gold.Chemscore.Lipo>
58.5885

> <Gold.Chemscore.Internal_Hbond>
0.0000

> <Gold.Chemscore.DEClash>
0.4482

> <Gold.Chemscore.DEInternal>
0.5295

> <Gold.Chemscore.Rot>
1.0000

> <Gold.Chemscore.Internal.Correction>
   9.000000E+99

> <Gold.Chemscore.Hbonds>
donor molecule, donor type, donor heavy atom, donor atom, acceptor molecule, acceptor atom, score
      L1  H     8    30       P1  7948  1.00
      L1  H    11    31       P1  7948  0.91
      P1  H  7989  7998       L1    22  0.20

> <Gold.Chemscore.Hbond.Weighted>
-6.6315

> <Gold.Chemscore.Metal.Weighted>
-0.0000

> <Gold.Chemscore.Lipo.Weighted>
-6.8549

> <Gold.Chemscore.Internal_Hbond.Weighted>
0.0000

> <Gold.Chemscore.DEClash.Weighted>
0.4482

> <Gold.Chemscore.DEInternal.Weighted>
0.5295

> <Gold.Chemscore.Rot.Weighted>
2.5600

> <Gold.Chemscore.Internal.Correction.Weighted>
   9.000000E+99

> <Gold.Protein.RotatedTorsions>
[ 6907 6896 6895 6894 ] final -102.46 input  -60.11 | X-H torsion
[ 7974 7965 7964 7962 ] final  109.06 input  175.53 | X-H torsion
[ 8008 7997 7996 7995 ] final -115.20 input   59.86 | X-H torsion
[ 10167 10162 10161 10158 ] final -112.30 input  -65.29 | X-H torsion
[ 10718 10713 10712 10709 ] final  149.48 input   66.30 | X-H torsion
[ 10763 10752 10751 10750 ] final  -94.96 input  -60.55 | X-H torsion
[ 11005 11000 10999 10996 ] final -101.18 input  -57.11 | X-H torsion

> <Gold.Protein.ActiveResidues>
 VAL166  LYS551  ARG553  GLY616  TRP617  ASP618  TYR619  PRO620  LYS621  CYS622 
 ASP623  PHE694  ASN695  SER759  ASP760  ASP761  ALA762  ILE779  LEU786  VAL792 
 PHE793  MET794  SER795  GLU796  ALA797  LYS798  CYS799  TRP800  GLU811  SER814 

> <Gold.Protein.RotatedAtoms>
  150.7197  134.0578  159.3820 H   0  0  0  0  0  0  0  0  0  0  0  0  # atno 6907 bound_to 6896
  151.8557  135.0540  160.0473 H   0  0  0  0  0  0  0  0  0  0  0  0  # atno 6908 bound_to 6896
  152.2756  133.5387  159.5502 H   0  0  0  0  0  0  0  0  0  0  0  0  # atno 6909 bound_to 6896
  145.2726  139.2661  143.3958 H   0  0  0  0  0  0  0  0  0  0  0  0  # atno 7974 bound_to 7965
  155.0483  140.0392  157.2534 H   0  0  0  0  0  0  0  0  0  0  0  0  # atno 8008 bound_to 7997
  154.7159  140.2702  155.6562 H   0  0  0  0  0  0  0  0  0  0  0  0  # atno 8009 bound_to 7997
  156.2803  140.2712  156.1815 H   0  0  0  0  0  0  0  0  0  0  0  0  # atno 8010 bound_to 7997
  140.1242  143.4417  152.1671 H   0  0  0  0  0  0  0  0  0  0  0  0  # atno 10167 bound_to 10162
  157.2955  131.0861  151.1429 H   0  0  0  0  0  0  0  0  0  0  0  0  # atno 10718 bound_to 10713
  154.7104  135.5138  153.8657 H   0  0  0  0  0  0  0  0  0  0  0  0  # atno 10763 bound_to 10752
  153.0775  135.6621  154.0123 H   0  0  0  0  0  0  0  0  0  0  0  0  # atno 10764 bound_to 10752
  153.9966  135.3015  155.3386 H   0  0  0  0  0  0  0  0  0  0  0  0  # atno 10765 bound_to 10752
  141.1241  133.8458  157.1199 H   0  0  0  0  0  0  0  0  0  0  0  0  # atno 11005 bound_to 11000
  146.3241  140.3173  142.8631 LP  0  0  0  0  0  0  0  0  0  0  0  0  # atno 17320 bound_to 7965
  144.9322  140.7987  143.5682 LP  0  0  0  0  0  0  0  0  0  0  0  0  # atno 17321 bound_to 7965
  139.5553  144.7368  151.4313 LP  0  0  0  0  0  0  0  0  0  0  0  0  # atno 17342 bound_to 10162
  140.6854  143.7985  150.7179 LP  0  0  0  0  0  0  0  0  0  0  0  0  # atno 17343 bound_to 10162
  157.2809  130.6749  149.6065 LP  0  0  0  0  0  0  0  0  0  0  0  0  # atno 17370 bound_to 10713
  155.9669  130.4450  150.5484 LP  0  0  0  0  0  0  0  0  0  0  0  0  # atno 17371 bound_to 10713
  140.0223  134.9940  157.0617 LP  0  0  0  0  0  0  0  0  0  0  0  0  # atno 17394 bound_to 11000
  140.4419  134.1672  155.7174 LP  0  0  0  0  0  0  0  0  0  0  0  0  # atno 17395 bound_to 11000

$$$$
