AV-unprocessed.smi:188|AV-procd|sdf|1473|dock1
  -GOLD-   2262019293D 1   1.00000     0.00000
 Structure written by MMmdl.
 48 52  0  0  0  0  0  0  0  0  2 V2000
  156.2158  138.8551  163.6474 O   0  0  0  0  0  0  0  0  0  0  0  0
  155.9055  139.0610  162.4763 C   0  0  0  0  0  0  0  0  0  0  0  0
  156.7044  139.4321  161.4575 N   0  5  0  0  0  0  0  0  0  0  0  0
  155.9978  139.5601  160.3136 C   0  0  0  0  0  0  0  0  0  0  0  0
  156.3778  139.8758  159.1868 O   0  0  0  0  0  0  0  0  0  0  0  0
  154.5311  139.2286  160.6393 C   0  0  0  0  0  0  0  0  0  0  0  0
  153.5777  140.4279  160.4266 C   0  0  0  0  0  0  0  0  0  0  0  0
  153.2729  140.6803  158.9387 C   0  0  0  0  0  0  0  0  0  0  0  0
  152.7944  139.4600  158.2859 N   0  0  0  0  0  0  0  0  0  0  0  0
  152.1994  139.5919  157.0729 C   0  0  0  0  0  0  0  0  0  0  0  0
  152.6396  138.8573  156.0160 N   0  0  0  0  0  0  0  0  0  0  0  0
  152.0496  138.9683  154.8228 C   0  0  0  0  0  0  0  0  0  0  0  0
  151.0241  139.7445  154.4686 N   0  0  0  0  0  0  0  0  0  0  0  0
  150.5854  140.4951  155.5186 C   0  0  0  0  0  0  0  0  0  0  0  0
  151.1095  140.4789  156.8427 C   0  0  0  0  0  0  0  0  0  0  0  0
  150.4113  141.3806  157.6374 N   0  0  0  0  0  0  0  0  0  0  0  0
  149.5189  141.8905  156.8335 C   0  0  0  0  0  0  0  0  0  0  0  0
  149.5587  141.4234  155.5387 N   0  0  0  0  0  0  0  0  0  0  0  0
  148.6857  141.8253  154.4458 C   0  0  0  0  0  0  0  0  0  0  0  0
  147.1795  141.7502  154.7746 C   0  0  0  0  0  0  0  0  0  0  0  0
  146.6859  140.2925  154.7646 C   0  0  0  0  0  0  0  0  0  0  0  0
  145.2769  140.2231  154.8540 O   0  0  0  0  0  0  0  0  0  0  0  0
  146.7138  142.5653  155.9902 C   0  0  0  0  0  0  0  0  0  0  0  0
  145.6578  143.1930  155.2336 O   0  0  0  0  0  0  0  0  0  0  0  0
  146.2827  142.7377  154.0150 C   0  0  0  0  0  0  0  0  0  0  0  0
  153.6843  138.3044  158.3986 C   0  0  0  0  0  0  0  0  0  0  0  0
  154.0035  137.9927  159.8728 C   0  0  0  0  0  0  0  0  0  0  0  0
  154.6506  138.9300  162.0511 N   0  0  0  0  0  0  0  0  0  0  0  0
  152.6393  140.2389  160.9500 H   0  0  0  0  0  0  0  0  0  0  0  0
  153.9939  141.3332  160.8713 H   0  0  0  0  0  0  0  0  0  0  0  0
  152.5197  141.4652  158.8570 H   0  0  0  0  0  0  0  0  0  0  0  0
  154.1638  141.0415  158.4243 H   0  0  0  0  0  0  0  0  0  0  0  0
  152.4583  138.3457  154.0405 H   0  0  0  0  0  0  0  0  0  0  0  0
  148.8078  142.6342  157.1629 H   0  0  0  0  0  0  0  0  0  0  0  0
  148.9640  142.8385  154.1533 H   0  0  0  0  0  0  0  0  0  0  0  0
  148.9156  141.2016  153.5811 H   0  0  0  0  0  0  0  0  0  0  0  0
  147.0163  139.7606  153.8723 H   0  0  0  0  0  0  0  0  0  0  0  0
  147.1001  139.7432  155.6107 H   0  0  0  0  0  0  0  0  0  0  0  0
  144.9159  140.3333  153.9875 H   0  0  0  0  0  0  0  0  0  0  0  0
  146.3403  141.9597  156.8166 H   0  0  0  0  0  0  0  0  0  0  0  0
  147.4388  143.2998  156.3429 H   0  0  0  0  0  0  0  0  0  0  0  0
  146.8301  143.5395  153.5166 H   0  0  0  0  0  0  0  0  0  0  0  0
  145.5766  142.2651  153.3314 H   0  0  0  0  0  0  0  0  0  0  0  0
  153.2463  137.4201  157.9370 H   0  0  0  0  0  0  0  0  0  0  0  0
  154.6012  138.5127  157.8466 H   0  0  0  0  0  0  0  0  0  0  0  0
  154.7228  137.1739  159.9243 H   0  0  0  0  0  0  0  0  0  0  0  0
  153.0972  137.6274  160.3582 H   0  0  0  0  0  0  0  0  0  0  0  0
  153.8703  138.6592  162.6309 H   0  0  0  0  0  0  0  0  0  0  0  0
  1  2  2  0  0  0  0
  2 28  1  0  0  0  0
  2  3  1  0  0  0  0
  3  4  1  0  0  0  0
  4  5  2  0  0  0  0
  4  6  1  0  0  0  0
  6 27  1  0  0  0  0
  6  7  1  0  0  0  0
  6 28  1  0  0  0  0
  7  8  1  0  0  0  0
  7 29  1  0  0  0  0
  7 30  1  0  0  0  0
  8  9  1  0  0  0  0
  8 31  1  0  0  0  0
  8 32  1  0  0  0  0
  9 10  1  0  0  0  0
  9 26  1  0  0  0  0
 10 15  1  0  0  0  0
 10 11  2  0  0  0  0
 11 12  1  0  0  0  0
 12 13  2  0  0  0  0
 12 33  1  0  0  0  0
 13 14  1  0  0  0  0
 14 18  1  0  0  0  0
 14 15  2  0  0  0  0
 15 16  1  0  0  0  0
 16 17  2  0  0  0  0
 17 18  1  0  0  0  0
 17 34  1  0  0  0  0
 18 19  1  0  0  0  0
 19 20  1  0  0  0  0
 19 35  1  0  0  0  0
 19 36  1  0  0  0  0
 20 25  1  0  0  0  0
 20 21  1  0  0  0  0
 20 23  1  0  0  0  0
 21 22  1  0  0  0  0
 21 37  1  0  0  0  0
 21 38  1  0  0  0  0
 22 39  1  0  0  0  0
 23 24  1  0  0  0  0
 23 40  1  0  0  0  0
 23 41  1  0  0  0  0
 24 25  1  0  0  0  0
 25 42  1  0  0  0  0
 25 43  1  0  0  0  0
 26 27  1  0  0  0  0
 26 44  1  0  0  0  0
 26 45  1  0  0  0  0
 27 46  1  0  0  0  0
 27 47  1  0  0  0  0
 28 48  1  0  0  0  0
M  CHG  1   3  -1
M  END
> <s_m_source_file>
AV-unprocessed.smi

> <i_m_source_file_index>
188

> <i_lp_mmshare_version>
43012

> <i_f3d_flags>
0

> <s_epik_input>
Tz1DKFtOSF0xKVtOSF1DKD1PKUMxMltDSDJdW0NIMl1OKFtDSDJdW0NIMl0yKWMobltjSF1uMyljKGMzNCluW2NIXW40W0NIMl1DNShbQ0gyXVtPSF0pW0NIMl1PW0NIMl01

> <s_epik_cmdline>
J2VwaWtfcHl0aG9uJywgJy1waCcsICc3LjAnLCAnLXRuJywgJzgnLCAnLW1hJywgJzIwMCcsICctbWV0YWxfYmluZGluZycsICctaW1hZScsICc8aW5maWxlLm1hZT4nLCAnLW9tYWUnLCAnPG91dGZpbGUubWFlPic=

> <r_lp_tautomer_probability>
1

> <r_epik_Ionization_Penalty>
2.63631

> <r_epik_Ionization_Penalty_Charging>
2.63472

> <r_epik_Ionization_Penalty_Neutral>
0.0015918

> <r_epik_State_Penalty>
2.63293

> <r_epik_Charging_Adjusted_Penalty>
5.26764

> <i_epik_Tot_Q>
-1

> <i_epik_Tot_abs_Q>
1

> <r_epik_Metal_State_Penalty>
0.446503

> <b_epik_Metal_Only>
1

> <s_lp_Force_Field>
OPLS_2005

> <r_lp_Energy>
37.7824

> <b_lp_Chiralities_Consistent>
1

> <s_lp_Variant>
AV-unprocessed.smi:188-2

> <Gold.Version>
5.8.1

> <Gold.Id.Protein>
6NUR|6NUR_protein|mol2

> <Gold.PLP.Fitness>
51.8514

> <Gold.PLP.PLP>
-40.8731

> <Gold.PLP.part.hbond>
-5.2691

> <Gold.PLP.part.metal>
0.0000

> <Gold.PLP.part.buried>
-1.5882

> <Gold.PLP.part.nonpolar>
-33.1868

> <Gold.PLP.part.repulsive>
0.3622

> <Gold.PLP.ligand.clash>
0.0000

> <Gold.PLP.ligand.torsion>
0.6321

> <Gold.PLP.Chemscore.Hbond>
3.2467

> <Gold.PLP.Chemscore.CHOScore>
0.5963

> <Gold.PLP.Chemscore.Metal>
0.0000

> <Gold.Chemscore.Hbonds>
donor molecule, donor type, donor heavy atom, donor atom, acceptor molecule, acceptor atom, score
      L1  H    22    39       P1 10175  1.00
      P1  H  7989  7998       L1    13  1.00
      P1  H  7997  8008       L1     5  1.00
      P1  H  7997  8009       L1    11  0.19
      L1  C    17    34       P1  8028  0.58

> <Gold.PLP.Chemscore.Internal.Correction>
0.7136

> <Gold.Rescore>
     Score         DG    S(hbond)    S(metal)    S(lipo)     H(rot)  DE(clash)    DE(int)     intcor
     11.10     -12.66       2.07        0.00      64.46       2.84       0.06       1.51       ----

> <Gold.Chemscore.Fitness>
11.0991

> <Gold.Chemscore.DG>
-12.6638

> <Gold.Chemscore.ZeroCoef>
-5.4800

> <Gold.Chemscore.Hbond>
2.0735

> <Gold.Chemscore.Metal>
0.0000

> <Gold.Chemscore.Lipo>
64.4576

> <Gold.Chemscore.Internal_Hbond>
0.0000

> <Gold.Chemscore.DEClash>
0.0564

> <Gold.Chemscore.DEInternal>
1.5083

> <Gold.Chemscore.Rot>
2.8450

> <Gold.Chemscore.Internal.Correction>
   9.000000E+99

> <Gold.Chemscore.Hbonds>
donor molecule, donor type, donor heavy atom, donor atom, acceptor molecule, acceptor atom, score
      L1  H    22    39       P1 10175  0.99
      P1  H  7989  7998       L1    13  0.19
      P1  H  7997  8008       L1     5  0.93

> <Gold.Chemscore.Hbond.Weighted>
-6.9253

> <Gold.Chemscore.Metal.Weighted>
-0.0000

> <Gold.Chemscore.Lipo.Weighted>
-7.5415

> <Gold.Chemscore.Internal_Hbond.Weighted>
0.0000

> <Gold.Chemscore.DEClash.Weighted>
0.0564

> <Gold.Chemscore.DEInternal.Weighted>
1.5083

> <Gold.Chemscore.Rot.Weighted>
7.2831

> <Gold.Chemscore.Internal.Correction.Weighted>
   9.000000E+99

> <Gold.Protein.RotatedTorsions>
[ 6907 6896 6895 6894 ] final -177.64 input  -60.11 | X-H torsion
[ 7974 7965 7964 7962 ] final   49.94 input  175.53 | X-H torsion
[ 8008 7997 7996 7995 ] final -145.24 input   59.86 | X-H torsion
[ 10167 10162 10161 10158 ] final  -21.61 input  -65.29 | X-H torsion
[ 10718 10713 10712 10709 ] final  -17.84 input   66.30 | X-H torsion
[ 10763 10752 10751 10750 ] final   53.67 input  -60.55 | X-H torsion
[ 11005 11000 10999 10996 ] final  116.07 input  -57.11 | X-H torsion

> <Gold.Protein.ActiveResidues>
 VAL166  LYS551  ARG553  GLY616  TRP617  ASP618  TYR619  PRO620  LYS621  CYS622 
 ASP623  PHE694  ASN695  SER759  ASP760  ASP761  ALA762  ILE779  LEU786  VAL792 
 PHE793  MET794  SER795  GLU796  ALA797  LYS798  CYS799  TRP800  GLU811  SER814 

> <Gold.Protein.RotatedAtoms>
  151.6243  133.3337  159.3094 H   0  0  0  0  0  0  0  0  0  0  0  0  # atno 6907 bound_to 6896
  150.8090  134.7236  159.6682 H   0  0  0  0  0  0  0  0  0  0  0  0  # atno 6908 bound_to 6896
  152.4186  134.6001  160.0049 H   0  0  0  0  0  0  0  0  0  0  0  0  # atno 6909 bound_to 6896
  146.0060  139.4491  142.9985 H   0  0  0  0  0  0  0  0  0  0  0  0  # atno 7974 bound_to 7965
  155.5399  140.0607  157.2872 H   0  0  0  0  0  0  0  0  0  0  0  0  # atno 8008 bound_to 7997
  154.4455  140.1921  156.0624 H   0  0  0  0  0  0  0  0  0  0  0  0  # atno 8009 bound_to 7997
  156.0592  140.3274  155.7445 H   0  0  0  0  0  0  0  0  0  0  0  0  # atno 8010 bound_to 7997
  140.7283  143.4611  151.0378 H   0  0  0  0  0  0  0  0  0  0  0  0  # atno 10167 bound_to 10162
  156.5679  130.4742  149.6376 H   0  0  0  0  0  0  0  0  0  0  0  0  # atno 10718 bound_to 10713
  152.9797  135.5771  154.4780 H   0  0  0  0  0  0  0  0  0  0  0  0  # atno 10763 bound_to 10752
  154.4332  135.2774  155.1900 H   0  0  0  0  0  0  0  0  0  0  0  0  # atno 10764 bound_to 10752
  154.3599  135.6191  153.5739 H   0  0  0  0  0  0  0  0  0  0  0  0  # atno 10765 bound_to 10752
  139.9029  134.9593  156.7141 H   0  0  0  0  0  0  0  0  0  0  0  0  # atno 11005 bound_to 11000
  145.7415  141.0006  143.1299 LP  0  0  0  0  0  0  0  0  0  0  0  0  # atno 17320 bound_to 7965
  144.6936  139.9104  143.7463 LP  0  0  0  0  0  0  0  0  0  0  0  0  # atno 17321 bound_to 7965
  139.8296  143.7709  152.3179 LP  0  0  0  0  0  0  0  0  0  0  0  0  # atno 17342 bound_to 10162
  139.7820  144.7441  151.0075 LP  0  0  0  0  0  0  0  0  0  0  0  0  # atno 17343 bound_to 10162
  156.2740  130.7033  151.1839 LP  0  0  0  0  0  0  0  0  0  0  0  0  # atno 17370 bound_to 10713
  157.7354  131.0572  150.5469 LP  0  0  0  0  0  0  0  0  0  0  0  0  # atno 17371 bound_to 10713
  140.7052  133.9271  155.8049 LP  0  0  0  0  0  0  0  0  0  0  0  0  # atno 17394 bound_to 11000
  141.0342  134.0714  157.3979 LP  0  0  0  0  0  0  0  0  0  0  0  0  # atno 17395 bound_to 11000

$$$$
