AV-unprocessed.smi:3289|AV-procd|sdf|12607|dock4
  -GOLD-   2272018533D 1   1.00000     0.00000
 Structure written by MMmdl.
 40 41  0  0  0  0  0  0  0  0  2 V2000
  146.7382  138.8281  151.5641 C   0  0  0  0  0  0  0  0  0  0  0  0
  147.1822  138.9168  153.0324 C   0  0  0  0  0  0  0  0  0  0  0  0
  146.4145  137.9193  153.9124 C   0  0  0  0  0  0  0  0  0  0  0  0
  147.0653  140.3182  153.5677 C   0  0  0  0  0  0  0  0  0  0  0  0
  145.9531  141.0632  153.5278 N   0  3  0  0  0  0  0  0  0  0  0  0
  146.1614  142.2734  154.1291 C   0  0  0  0  0  0  0  0  0  0  0  0
  147.4576  142.2666  154.5700 C   0  0  0  0  0  0  0  0  0  0  0  0
  147.9897  141.0509  154.2196 N   0  0  0  0  0  0  0  0  0  0  0  0
  149.3609  140.6014  154.5085 C   0  0  0  0  0  0  0  0  0  0  0  0
  149.7028  140.7177  155.9967 C   0  0  0  0  0  0  0  0  0  0  0  0
  149.9361  139.7062  156.6590 O   0  0  0  0  0  0  0  0  0  0  0  0
  149.7462  141.9595  156.5024 N   0  0  0  0  0  0  0  0  0  0  0  0
  150.0907  142.2934  157.8800 C   0  0  0  0  0  0  0  0  0  0  0  0
  151.5391  142.8019  158.0014 C   0  0  2  0  0  0  0  0  0  0  0  0
  152.0148  142.8974  159.4578 C   0  0  0  0  0  0  0  0  0  0  0  0
  151.8958  144.3733  159.7696 C   0  0  0  0  0  0  0  0  0  0  0  0
  152.2402  144.9920  158.4240 C   0  0  0  0  0  0  0  0  0  0  0  0
  151.6166  144.1309  157.4824 O   0  0  0  0  0  0  0  0  0  0  0  0
  147.3194  139.5049  150.9368 H   0  0  0  0  0  0  0  0  0  0  0  0
  145.6848  139.0844  151.4460 H   0  0  0  0  0  0  0  0  0  0  0  0
  146.8768  137.8192  151.1742 H   0  0  0  0  0  0  0  0  0  0  0  0
  148.2380  138.6531  153.0668 H   0  0  0  0  0  0  0  0  0  0  0  0
  146.7719  137.9419  154.9420 H   0  0  0  0  0  0  0  0  0  0  0  0
  146.5364  136.8993  153.5467 H   0  0  0  0  0  0  0  0  0  0  0  0
  145.3470  138.1411  153.9269 H   0  0  0  0  0  0  0  0  0  0  0  0
  145.3904  143.0266  154.2008 H   0  0  0  0  0  0  0  0  0  0  0  0
  148.0257  143.0165  155.1015 H   0  0  0  0  0  0  0  0  0  0  0  0
  149.4783  139.5798  154.1450 H   0  0  0  0  0  0  0  0  0  0  0  0
  150.0511  141.2229  153.9368 H   0  0  0  0  0  0  0  0  0  0  0  0
  149.5335  142.7320  155.8879 H   0  0  0  0  0  0  0  0  0  0  0  0
  149.3892  143.0218  158.2906 H   0  0  0  0  0  0  0  0  0  0  0  0
  149.9712  141.3860  158.4721 H   0  0  0  0  0  0  0  0  0  0  0  0
  152.2100  142.1515  157.4386 H   0  0  0  0  0  0  0  0  0  0  0  0
  151.4446  142.2723  160.1457 H   0  0  0  0  0  0  0  0  0  0  0  0
  153.0606  142.5944  159.5238 H   0  0  0  0  0  0  0  0  0  0  0  0
  150.8699  144.6201  160.0461 H   0  0  0  0  0  0  0  0  0  0  0  0
  152.5581  144.6984  160.5724 H   0  0  0  0  0  0  0  0  0  0  0  0
  151.8850  146.0179  158.3260 H   0  0  0  0  0  0  0  0  0  0  0  0
  153.3188  144.9832  158.2604 H   0  0  0  0  0  0  0  0  0  0  0  0
  145.0796  140.7667  153.1111 H   0  0  0  0  0  0  0  0  0  0  0  0
  1  2  1  0  0  0  0
  1 19  1  0  0  0  0
  1 20  1  0  0  0  0
  1 21  1  0  0  0  0
  2  3  1  0  0  0  0
  2  4  1  0  0  0  0
  2 22  1  0  0  0  0
  3 23  1  0  0  0  0
  3 24  1  0  0  0  0
  3 25  1  0  0  0  0
  4  8  1  0  0  0  0
  4  5  2  0  0  0  0
  5  6  1  0  0  0  0
  5 40  1  0  0  0  0
  6  7  2  0  0  0  0
  6 26  1  0  0  0  0
  7  8  1  0  0  0  0
  7 27  1  0  0  0  0
  8  9  1  0  0  0  0
  9 10  1  0  0  0  0
  9 28  1  0  0  0  0
  9 29  1  0  0  0  0
 10 11  2  0  0  0  0
 10 12  1  0  0  0  0
 12 13  1  0  0  0  0
 12 30  1  0  0  0  0
 13 14  1  0  0  0  0
 13 31  1  0  0  0  0
 13 32  1  0  0  0  0
 14 18  1  0  0  0  0
 14 15  1  0  0  0  0
 14 33  1  0  0  0  0
 15 16  1  0  0  0  0
 15 34  1  0  0  0  0
 15 35  1  0  0  0  0
 16 17  1  0  0  0  0
 16 36  1  0  0  0  0
 16 37  1  0  0  0  0
 17 18  1  0  0  0  0
 17 38  1  0  0  0  0
 17 39  1  0  0  0  0
M  CHG  1   5   1
M  END
> <s_m_source_file>
AV-unprocessed.smi

> <i_m_source_file_index>
3289

> <i_lp_mmshare_version>
43012

> <i_f3d_flags>
0

> <s_epik_input>
W0NIM11bQ0hdKFtDSDNdKWMxbltjSF1bY0hdbjFbQ0gyXUMoPU8pW05IXVtDSDJdW0NAQEhdMltDSDJdW0NIMl1bQ0gyXU8y

> <s_epik_cmdline>
J2VwaWtfcHl0aG9uJywgJy1waCcsICc3LjAnLCAnLXRuJywgJzgnLCAnLW1hJywgJzIwMCcsICctbWV0YWxfYmluZGluZycsICctaW1hZScsICc8aW5maWxlLm1hZT4nLCAnLW9tYWUnLCAnPG91dGZpbGUubWFlPic=

> <r_lp_tautomer_probability>
1

> <r_epik_Ionization_Penalty>
0.274547

> <r_epik_Ionization_Penalty_Charging>
0

> <r_epik_Ionization_Penalty_Neutral>
0.274547

> <r_epik_State_Penalty>
0.266843

> <r_epik_Charging_Adjusted_Penalty>
0.266843

> <i_epik_Tot_Q>
1

> <i_epik_Tot_abs_Q>
1

> <r_epik_Metal_State_Penalty>
0.55046

> <b_epik_Metal_Only>
0

> <s_lp_Force_Field>
OPLS_2005

> <r_lp_Energy>
23.0035

> <b_lp_Chiralities_Consistent>
1

> <s_lp_Variant>
AV-unprocessed.smi:3289-1

> <Gold.Version>
5.8.1

> <Gold.Id.Protein>
6NUR|6NUR_protein|mol2

> <Gold.PLP.Fitness>
48.8763

> <Gold.PLP.PLP>
-38.9240

> <Gold.PLP.part.hbond>
-2.0000

> <Gold.PLP.part.metal>
0.0000

> <Gold.PLP.part.buried>
0.7062

> <Gold.PLP.part.nonpolar>
-38.1839

> <Gold.PLP.part.repulsive>
0.2020

> <Gold.PLP.ligand.clash>
0.0000

> <Gold.PLP.ligand.torsion>
0.4779

> <Gold.PLP.Chemscore.Hbond>
2.9516

> <Gold.PLP.Chemscore.CHOScore>
0.6541

> <Gold.PLP.Chemscore.Metal>
0.0000

> <Gold.Chemscore.Hbonds>
donor molecule, donor type, donor heavy atom, donor atom, acceptor molecule, acceptor atom, score
      L1  H     5    40       P1 10175  2.00
      L1  H    12    30       P1  8028  0.79
      L1  C     7    27       P1  8028  0.82

> <Gold.PLP.Chemscore.Internal.Correction>
0.0911

> <Gold.Rescore>
     Score         DG    S(hbond)    S(metal)    S(lipo)     H(rot)  DE(clash)    DE(int)     intcor
     17.16     -17.70       1.83        0.00      91.16       1.78       0.06       0.48       ----

> <Gold.Chemscore.Fitness>
17.1570

> <Gold.Chemscore.DG>
-17.6987

> <Gold.Chemscore.ZeroCoef>
-5.4800

> <Gold.Chemscore.Hbond>
1.8318

> <Gold.Chemscore.Metal>
0.0000

> <Gold.Chemscore.Lipo>
91.1639

> <Gold.Chemscore.Internal_Hbond>
0.0000

> <Gold.Chemscore.DEClash>
0.0572

> <Gold.Chemscore.DEInternal>
0.4844

> <Gold.Chemscore.Rot>
1.7835

> <Gold.Chemscore.Internal.Correction>
   9.000000E+99

> <Gold.Chemscore.Hbonds>
donor molecule, donor type, donor heavy atom, donor atom, acceptor molecule, acceptor atom, score
      L1  H     5    40       P1 10175  0.67
      L1  H    12    30       P1  8028  0.75

> <Gold.Chemscore.Hbond.Weighted>
-6.1183

> <Gold.Chemscore.Metal.Weighted>
-0.0000

> <Gold.Chemscore.Lipo.Weighted>
-10.6662

> <Gold.Chemscore.Internal_Hbond.Weighted>
0.0000

> <Gold.Chemscore.DEClash.Weighted>
0.0572

> <Gold.Chemscore.DEInternal.Weighted>
0.4844

> <Gold.Chemscore.Rot.Weighted>
4.5659

> <Gold.Chemscore.Internal.Correction.Weighted>
   9.000000E+99

> <Gold.Protein.RotatedTorsions>
[ 6907 6896 6895 6894 ] final  146.43 input  -60.11 | X-H torsion
[ 7974 7965 7964 7962 ] final   66.01 input  175.53 | X-H torsion
[ 8008 7997 7996 7995 ] final  101.38 input   59.86 | X-H torsion
[ 10167 10162 10161 10158 ] final   77.79 input  -65.29 | X-H torsion
[ 10718 10713 10712 10709 ] final  125.81 input   66.30 | X-H torsion
[ 10763 10752 10751 10750 ] final -173.33 input  -60.55 | X-H torsion
[ 11005 11000 10999 10996 ] final   55.98 input  -57.11 | X-H torsion

> <Gold.Protein.ActiveResidues>
 VAL166  LYS551  ARG553  GLY616  TRP617  ASP618  TYR619  PRO620  LYS621  CYS622 
 ASP623  PHE694  ASN695  SER759  ASP760  ASP761  ALA762  ILE779  LEU786  VAL792 
 PHE793  MET794  SER795  GLU796  ALA797  LYS798  CYS799  TRP800  GLU811  SER814 

> <Gold.Protein.RotatedAtoms>
  152.1680  133.4625  159.4894 H   0  0  0  0  0  0  0  0  0  0  0  0  # atno 6907 bound_to 6896
  150.6916  134.1988  159.4323 H   0  0  0  0  0  0  0  0  0  0  0  0  # atno 6908 bound_to 6896
  151.9894  134.9987  160.0611 H   0  0  0  0  0  0  0  0  0  0  0  0  # atno 6909 bound_to 6896
  145.8317  139.3143  143.0983 H   0  0  0  0  0  0  0  0  0  0  0  0  # atno 7974 bound_to 7965
  156.1294  140.3198  155.8326 H   0  0  0  0  0  0  0  0  0  0  0  0  # atno 8008 bound_to 7997
  155.4360  140.0522  157.3031 H   0  0  0  0  0  0  0  0  0  0  0  0  # atno 8009 bound_to 7997
  154.4887  140.2083  155.9609 H   0  0  0  0  0  0  0  0  0  0  0  0  # atno 8010 bound_to 7997
  139.9778  144.5848  150.7928 H   0  0  0  0  0  0  0  0  0  0  0  0  # atno 10167 bound_to 10162
  157.5472  131.1095  150.8762 H   0  0  0  0  0  0  0  0  0  0  0  0  # atno 10718 bound_to 10713
  154.6091  135.2862  155.0452 H   0  0  0  0  0  0  0  0  0  0  0  0  # atno 10763 bound_to 10752
  154.1688  135.6476  153.5008 H   0  0  0  0  0  0  0  0  0  0  0  0  # atno 10764 bound_to 10752
  153.0187  135.5396  154.6838 H   0  0  0  0  0  0  0  0  0  0  0  0  # atno 10765 bound_to 10752
  140.0565  134.5663  155.9202 H   0  0  0  0  0  0  0  0  0  0  0  0  # atno 11005 bound_to 11000
  145.9563  140.8870  143.0233 LP  0  0  0  0  0  0  0  0  0  0  0  0  # atno 17320 bound_to 7965
  144.6739  140.1751  143.7411 LP  0  0  0  0  0  0  0  0  0  0  0  0  # atno 17321 bound_to 7965
  140.7500  143.2947  151.3235 LP  0  0  0  0  0  0  0  0  0  0  0  0  # atno 17342 bound_to 10162
  139.6433  144.0499  152.2571 LP  0  0  0  0  0  0  0  0  0  0  0  0  # atno 17343 bound_to 10162
  156.9298  130.5345  149.5279 LP  0  0  0  0  0  0  0  0  0  0  0  0  # atno 17370 bound_to 10713
  156.0545  130.5609  150.9063 LP  0  0  0  0  0  0  0  0  0  0  0  0  # atno 17371 bound_to 10713
  141.1954  133.6587  156.5642 LP  0  0  0  0  0  0  0  0  0  0  0  0  # atno 17394 bound_to 11000
  140.3836  134.7501  157.4677 LP  0  0  0  0  0  0  0  0  0  0  0  0  # atno 17395 bound_to 11000

$$$$
