AV-unprocessed.smi:1208|AV-procd|sdf|5067|dock9
  -GOLD-   22720 4113D 1   1.00000     0.00000
 Structure written by MMmdl.
 36 37  0  0  0  0  0  0  0  0  1 V2000
  153.8291  141.3674  160.4654 C   0  0  0  0  0  0  0  0  0  0  0  0
  152.4457  141.7758  159.9335 C   0  0  2  0  0  0  0  0  0  0  0  0
  152.3971  141.5965  158.4862 N   0  0  0  0  0  0  0  0  0  0  0  0
  151.2872  141.5216  157.7326 C   0  0  0  0  0  0  0  0  0  0  0  0
  150.1533  141.5713  158.2072 O   0  0  0  0  0  0  0  0  0  0  0  0
  151.4571  141.3748  156.2101 C   0  0  0  0  0  0  0  0  0  0  0  0
  151.1979  140.0225  155.6889 N   0  0  0  0  0  0  0  0  0  0  0  0
  150.1452  139.9565  154.7884 N   0  0  0  0  0  0  0  0  0  0  0  0
  149.8351  138.8309  154.2397 C   0  0  0  0  0  0  0  0  0  0  0  0
  148.7895  138.8116  153.3499 O   0  0  0  0  0  0  0  0  0  0  0  0
  150.5652  137.6213  154.5495 C   0  0  0  0  0  0  0  0  0  0  0  0
  151.5885  137.6954  155.4283 C   0  0  0  0  0  0  0  0  0  0  0  0
  151.9720  138.9577  156.0629 C   0  0  0  0  0  0  0  0  0  0  0  0
  152.9119  139.0575  156.8505 O   0  0  0  0  0  0  0  0  0  0  0  0
  152.1057  143.2384  160.2790 C   0  0  1  0  0  0  0  0  0  0  0  0
  152.6287  144.2704  159.2775 C   0  0  0  0  0  0  0  0  0  0  0  0
  151.7028  145.4369  159.5337 C   0  0  0  0  0  0  0  0  0  0  0  0
  150.3718  144.7341  159.7874 C   0  0  0  0  0  0  0  0  0  0  0  0
  150.6946  143.4392  160.2902 O   0  0  0  0  0  0  0  0  0  0  0  0
  148.8927  138.0128  152.8562 H   0  0  0  0  0  0  0  0  0  0  0  0
  153.8829  141.4802  161.5483 H   0  0  0  0  0  0  0  0  0  0  0  0
  154.6191  141.9786  160.0277 H   0  0  0  0  0  0  0  0  0  0  0  0
  154.0491  140.3246  160.2352 H   0  0  0  0  0  0  0  0  0  0  0  0
  151.6913  141.1357  160.3944 H   0  0  0  0  0  0  0  0  0  0  0  0
  153.2860  141.5439  158.0102 H   0  0  0  0  0  0  0  0  0  0  0  0
  150.8150  142.1053  155.7153 H   0  0  0  0  0  0  0  0  0  0  0  0
  152.4761  141.6733  155.9578 H   0  0  0  0  0  0  0  0  0  0  0  0
  150.2914  136.6851  154.0857 H   0  0  0  0  0  0  0  0  0  0  0  0
  152.1420  136.8001  155.6697 H   0  0  0  0  0  0  0  0  0  0  0  0
  152.4860  143.4882  161.2712 H   0  0  0  0  0  0  0  0  0  0  0  0
  153.6797  144.5194  159.4288 H   0  0  0  0  0  0  0  0  0  0  0  0
  152.5046  143.9122  158.2546 H   0  0  0  0  0  0  0  0  0  0  0  0
  152.0205  145.9751  160.4276 H   0  0  0  0  0  0  0  0  0  0  0  0
  151.6613  146.1440  158.7050 H   0  0  0  0  0  0  0  0  0  0  0  0
  149.7420  145.2849  160.4861 H   0  0  0  0  0  0  0  0  0  0  0  0
  149.8182  144.6137  158.8553 H   0  0  0  0  0  0  0  0  0  0  0  0
  1  2  1  0  0  0  0
  1 21  1  0  0  0  0
  1 22  1  0  0  0  0
  1 23  1  0  0  0  0
  2  3  1  0  0  0  0
  2 15  1  0  0  0  0
  2 24  1  0  0  0  0
  3  4  1  0  0  0  0
  3 25  1  0  0  0  0
  4  5  2  0  0  0  0
  4  6  1  0  0  0  0
  6 26  1  0  0  0  0
  6 27  1  0  0  0  0
  6  7  1  0  0  0  0
  7  8  1  0  0  0  0
  7 13  1  0  0  0  0
  8  9  2  0  0  0  0
  9 10  1  0  0  0  0
  9 11  1  0  0  0  0
 10 20  1  0  0  0  0
 11 28  1  0  0  0  0
 11 12  2  0  0  0  0
 12 29  1  0  0  0  0
 12 13  1  0  0  0  0
 13 14  2  0  0  0  0
 15 19  1  0  0  0  0
 15 16  1  0  0  0  0
 15 30  1  0  0  0  0
 16 17  1  0  0  0  0
 16 31  1  0  0  0  0
 16 32  1  0  0  0  0
 17 18  1  0  0  0  0
 17 33  1  0  0  0  0
 17 34  1  0  0  0  0
 18 19  1  0  0  0  0
 18 35  1  0  0  0  0
 18 36  1  0  0  0  0
M  END
> <s_m_source_file>
AV-unprocessed.smi

> <i_m_source_file_index>
1208

> <i_lp_mmshare_version>
43012

> <i_f3d_flags>
0

> <s_epik_input>
TzFbQ0gyXVtDSDJdW0NIMl1bQ0BIXTFbQ0BIXShbQ0gzXSlbTkhdQyg9TylbQ0gyXW4yW25IXWMoPU8pW2NIXVtjSF1jMj1P

> <s_epik_cmdline>
J2VwaWtfcHl0aG9uJywgJy1waCcsICc3LjAnLCAnLXRuJywgJzgnLCAnLW1hJywgJzIwMCcsICctbWV0YWxfYmluZGluZycsICctaW1hZScsICc8aW5maWxlLm1hZT4nLCAnLW9tYWUnLCAnPG91dGZpbGUubWFlPic=

> <r_lp_tautomer_probability>
0.9996

> <r_epik_Ionization_Penalty>
2.12735

> <r_epik_Ionization_Penalty_Charging>
3.86665e-08

> <r_epik_Ionization_Penalty_Neutral>
2.12735

> <r_epik_State_Penalty>
1.70441

> <r_epik_Charging_Adjusted_Penalty>
1.70441

> <i_epik_Tot_Q>
0

> <i_epik_Tot_abs_Q>
0

> <r_epik_Metal_State_Penalty>
1.70441

> <b_epik_Metal_Only>
0

> <s_lp_Force_Field>
OPLS_2005

> <r_lp_Energy>
27.2877

> <b_lp_Chiralities_Consistent>
1

> <s_lp_Variant>
AV-unprocessed.smi:1208-7

> <Gold.Version>
5.8.1

> <Gold.Id.Protein>
6NUR|6NUR_protein|mol2

> <Gold.PLP.Fitness>
48.1697

> <Gold.PLP.PLP>
-41.6342

> <Gold.PLP.part.hbond>
-4.6879

> <Gold.PLP.part.metal>
0.0000

> <Gold.PLP.part.buried>
-6.4993

> <Gold.PLP.part.nonpolar>
-30.3248

> <Gold.PLP.part.repulsive>
0.2809

> <Gold.PLP.ligand.clash>
0.0000

> <Gold.PLP.ligand.torsion>
0.9393

> <Gold.PLP.Chemscore.Hbond>
2.8000

> <Gold.PLP.Chemscore.CHOScore>
0.0000

> <Gold.PLP.Chemscore.Metal>
0.0000

> <Gold.Chemscore.Hbonds>
donor molecule, donor type, donor heavy atom, donor atom, acceptor molecule, acceptor atom, score
      L1  H    10    20       P1  7948  1.00
      P1  H  7989  7998       L1     8  0.06
      P1  H  7997  8008       L1    14  1.00

> <Gold.PLP.Chemscore.Internal.Correction>
0.0141

> <Gold.Rescore>
     Score         DG    S(hbond)    S(metal)    S(lipo)     H(rot)  DE(clash)    DE(int)     intcor
     12.91     -15.46       1.99        0.00      85.97       2.63       0.47       2.08       ----

> <Gold.Chemscore.Fitness>
12.9105

> <Gold.Chemscore.DG>
-15.4570

> <Gold.Chemscore.ZeroCoef>
-5.4800

> <Gold.Chemscore.Hbond>
1.9887

> <Gold.Chemscore.Metal>
0.0000

> <Gold.Chemscore.Lipo>
85.9696

> <Gold.Chemscore.Internal_Hbond>
0.0000

> <Gold.Chemscore.DEClash>
0.4660

> <Gold.Chemscore.DEInternal>
2.0805

> <Gold.Chemscore.Rot>
2.6264

> <Gold.Chemscore.Internal.Correction>
   9.000000E+99

> <Gold.Chemscore.Hbonds>
donor molecule, donor type, donor heavy atom, donor atom, acceptor molecule, acceptor atom, score
      L1  H    10    20       P1  7948  0.95
      P1  H  7997  8008       L1    14  0.99

> <Gold.Chemscore.Hbond.Weighted>
-6.6423

> <Gold.Chemscore.Metal.Weighted>
-0.0000

> <Gold.Chemscore.Lipo.Weighted>
-10.0584

> <Gold.Chemscore.Internal_Hbond.Weighted>
0.0000

> <Gold.Chemscore.DEClash.Weighted>
0.4660

> <Gold.Chemscore.DEInternal.Weighted>
2.0805

> <Gold.Chemscore.Rot.Weighted>
6.7237

> <Gold.Chemscore.Internal.Correction.Weighted>
   9.000000E+99

> <Gold.Protein.RotatedTorsions>
[ 6907 6896 6895 6894 ] final   29.60 input  -60.11 | X-H torsion
[ 7974 7965 7964 7962 ] final  -27.98 input  175.53 | X-H torsion
[ 8008 7997 7996 7995 ] final  -51.67 input   59.86 | X-H torsion
[ 10167 10162 10161 10158 ] final  123.33 input  -65.29 | X-H torsion
[ 10718 10713 10712 10709 ] final -109.36 input   66.30 | X-H torsion
[ 10763 10752 10751 10750 ] final  -65.44 input  -60.55 | X-H torsion
[ 11005 11000 10999 10996 ] final  -16.78 input  -57.11 | X-H torsion

> <Gold.Protein.ActiveResidues>
 VAL166  LYS551  ARG553  GLY616  TRP617  ASP618  TYR619  PRO620  LYS621  CYS622 
 ASP623  PHE694  ASN695  SER759  ASP760  ASP761  ALA762  ILE779  LEU786  VAL792 
 PHE793  MET794  SER795  GLU796  ALA797  LYS798  CYS799  TRP800  GLU811  SER814 

> <Gold.Protein.RotatedAtoms>
  152.0338  134.9752  160.0572 H   0  0  0  0  0  0  0  0  0  0  0  0  # atno 6907 bound_to 6896
  152.1218  133.4353  159.4687 H   0  0  0  0  0  0  0  0  0  0  0  0  # atno 6908 bound_to 6896
  150.6849  134.2445  159.4529 H   0  0  0  0  0  0  0  0  0  0  0  0  # atno 6909 bound_to 6896
  146.1320  140.5222  142.8689 H   0  0  0  0  0  0  0  0  0  0  0  0  # atno 7974 bound_to 7965
  154.4088  140.1242  156.4866 H   0  0  0  0  0  0  0  0  0  0  0  0  # atno 8008 bound_to 7997
  155.7032  140.3494  155.4922 H   0  0  0  0  0  0  0  0  0  0  0  0  # atno 8009 bound_to 7997
  155.9367  140.1079  157.1079 H   0  0  0  0  0  0  0  0  0  0  0  0  # atno 8010 bound_to 7997
  139.5805  144.6984  151.3540 H   0  0  0  0  0  0  0  0  0  0  0  0  # atno 10167 bound_to 10162
  156.0533  130.5760  150.8089 H   0  0  0  0  0  0  0  0  0  0  0  0  # atno 10718 bound_to 10713
  154.3450  135.6148  153.5614 H   0  0  0  0  0  0  0  0  0  0  0  0  # atno 10763 bound_to 10752
  152.9802  135.5778  154.4809 H   0  0  0  0  0  0  0  0  0  0  0  0  # atno 10764 bound_to 10752
  154.4520  135.2853  155.1751 H   0  0  0  0  0  0  0  0  0  0  0  0  # atno 10765 bound_to 10752
  140.8102  133.8147  155.9555 H   0  0  0  0  0  0  0  0  0  0  0  0  # atno 11005 bound_to 11000
  144.7701  140.5617  143.6676 LP  0  0  0  0  0  0  0  0  0  0  0  0  # atno 17320 bound_to 7965
  145.5239  139.1476  143.3537 LP  0  0  0  0  0  0  0  0  0  0  0  0  # atno 17321 bound_to 7965
  140.7084  143.7454  150.7523 LP  0  0  0  0  0  0  0  0  0  0  0  0  # atno 17342 bound_to 10162
  140.0985  143.4810  152.2438 LP  0  0  0  0  0  0  0  0  0  0  0  0  # atno 17343 bound_to 10162
  157.5480  131.0943  150.9735 LP  0  0  0  0  0  0  0  0  0  0  0  0  # atno 17370 bound_to 10713
  157.0002  130.5597  149.5311 LP  0  0  0  0  0  0  0  0  0  0  0  0  # atno 17371 bound_to 10713
  140.9206  134.2147  157.4929 LP  0  0  0  0  0  0  0  0  0  0  0  0  # atno 17394 bound_to 11000
  139.8714  134.9790  156.5020 LP  0  0  0  0  0  0  0  0  0  0  0  0  # atno 17395 bound_to 11000

$$$$
