AV-unprocessed.smi:1304|AV-procd|sdf|5429|dock5
  -GOLD-   22720 4593D 1   1.00000     0.00000
 Structure written by MMmdl.
 47 48  0  0  0  0  0  0  0  0  1 V2000
  148.4211  135.3328  158.2742 C   0  0  0  0  0  0  0  0  0  0  0  0
  149.2399  136.3270  157.4310 C   0  0  0  0  0  0  0  0  0  0  0  0
  149.3208  136.0136  155.9025 C   0  0  1  0  0  0  0  0  0  0  0  0
  150.2077  134.7464  155.7651 C   0  0  0  0  0  0  0  0  0  0  0  0
  147.8888  135.6634  155.3809 C   0  0  0  0  0  0  0  0  0  0  0  0
  147.8812  134.9938  154.0804 N   0  0  0  0  0  0  0  0  0  0  0  0
  147.3067  133.8119  153.8098 C   0  0  0  0  0  0  0  0  0  0  0  0
  146.6702  133.1610  154.6391 O   0  0  0  0  0  0  0  0  0  0  0  0
  147.4764  133.2911  152.3766 C   0  0  0  0  0  0  0  0  0  0  0  0
  146.1918  133.1365  151.6748 N   0  0  0  0  0  0  0  0  0  0  0  0
  145.8532  131.8440  151.2265 C   0  0  0  0  0  0  0  0  0  0  0  0
  144.7062  131.5966  150.5744 C   0  0  0  0  0  0  0  0  0  0  0  0
  143.8053  132.6991  150.3353 C   0  0  0  0  0  0  0  0  0  0  0  0
  144.1206  133.9399  150.7572 C   0  0  0  0  0  0  0  0  0  0  0  0
  145.3745  134.2155  151.4679 C   0  0  0  0  0  0  0  0  0  0  0  0
  145.6721  135.3466  151.8538 O   0  0  0  0  0  0  0  0  0  0  0  0
  149.9215  137.1565  155.1570 N   0  0  0  0  0  0  0  0  0  0  0  0
  149.1714  138.4162  155.2284 C   0  0  0  0  0  0  0  0  0  0  0  0
  149.7771  139.4997  154.3196 C   0  0  0  0  0  0  0  0  0  0  0  0
  151.1416  139.7082  154.6638 O   0  0  0  0  0  0  0  0  0  0  0  0
  151.9174  138.5209  154.5531 C   0  0  0  0  0  0  0  0  0  0  0  0
  151.3299  137.4324  155.4669 C   0  0  0  0  0  0  0  0  0  0  0  0
  148.4278  135.6295  159.3231 H   0  0  0  0  0  0  0  0  0  0  0  0
  148.8265  134.3227  158.2208 H   0  0  0  0  0  0  0  0  0  0  0  0
  147.3796  135.2943  157.9566 H   0  0  0  0  0  0  0  0  0  0  0  0
  148.8010  137.3128  157.5869 H   0  0  0  0  0  0  0  0  0  0  0  0
  150.2415  136.4062  157.8536 H   0  0  0  0  0  0  0  0  0  0  0  0
  149.9283  133.9707  156.4788 H   0  0  0  0  0  0  0  0  0  0  0  0
  151.2610  134.9717  155.9336 H   0  0  0  0  0  0  0  0  0  0  0  0
  150.1262  134.2961  154.7758 H   0  0  0  0  0  0  0  0  0  0  0  0
  147.3446  135.0596  156.1073 H   0  0  0  0  0  0  0  0  0  0  0  0
  147.2990  136.5699  155.2518 H   0  0  0  0  0  0  0  0  0  0  0  0
  148.3794  135.4559  153.3336 H   0  0  0  0  0  0  0  0  0  0  0  0
  148.1309  133.9804  151.8417 H   0  0  0  0  0  0  0  0  0  0  0  0
  148.0101  132.3384  152.3863 H   0  0  0  0  0  0  0  0  0  0  0  0
  146.5830  131.0763  151.4386 H   0  0  0  0  0  0  0  0  0  0  0  0
  144.4654  130.6002  150.2341 H   0  0  0  0  0  0  0  0  0  0  0  0
  142.8747  132.5287  149.8144 H   0  0  0  0  0  0  0  0  0  0  0  0
  143.4345  134.7526  150.5688 H   0  0  0  0  0  0  0  0  0  0  0  0
  148.1357  138.2714  154.9260 H   0  0  0  0  0  0  0  0  0  0  0  0
  149.1545  138.7901  156.2518 H   0  0  0  0  0  0  0  0  0  0  0  0
  149.6984  139.2120  153.2700 H   0  0  0  0  0  0  0  0  0  0  0  0
  149.2342  140.4379  154.4354 H   0  0  0  0  0  0  0  0  0  0  0  0
  151.9374  138.1843  153.5153 H   0  0  0  0  0  0  0  0  0  0  0  0
  152.9462  138.7398  154.8387 H   0  0  0  0  0  0  0  0  0  0  0  0
  151.4339  137.7558  156.5025 H   0  0  0  0  0  0  0  0  0  0  0  0
  151.9389  136.5377  155.3533 H   0  0  0  0  0  0  0  0  0  0  0  0
  1  2  1  0  0  0  0
  1 23  1  0  0  0  0
  1 24  1  0  0  0  0
  1 25  1  0  0  0  0
  2  3  1  0  0  0  0
  2 26  1  0  0  0  0
  2 27  1  0  0  0  0
  3  4  1  0  0  0  0
  3  5  1  0  0  0  0
  3 17  1  0  0  0  0
  4 28  1  0  0  0  0
  4 29  1  0  0  0  0
  4 30  1  0  0  0  0
  5  6  1  0  0  0  0
  5 31  1  0  0  0  0
  5 32  1  0  0  0  0
  6  7  1  0  0  0  0
  6 33  1  0  0  0  0
  7  8  2  0  0  0  0
  7  9  1  0  0  0  0
  9 10  1  0  0  0  0
  9 34  1  0  0  0  0
  9 35  1  0  0  0  0
 10 15  1  0  0  0  0
 10 11  1  0  0  0  0
 11 12  2  0  0  0  0
 11 36  1  0  0  0  0
 12 13  1  0  0  0  0
 12 37  1  0  0  0  0
 13 14  2  0  0  0  0
 13 38  1  0  0  0  0
 14 15  1  0  0  0  0
 14 39  1  0  0  0  0
 15 16  2  0  0  0  0
 17 22  1  0  0  0  0
 17 18  1  0  0  0  0
 18 19  1  0  0  0  0
 18 40  1  0  0  0  0
 18 41  1  0  0  0  0
 19 20  1  0  0  0  0
 19 42  1  0  0  0  0
 19 43  1  0  0  0  0
 20 21  1  0  0  0  0
 21 22  1  0  0  0  0
 21 44  1  0  0  0  0
 21 45  1  0  0  0  0
 22 46  1  0  0  0  0
 22 47  1  0  0  0  0
M  END
> <s_m_source_file>
AV-unprocessed.smi

> <i_m_source_file_index>
1304

> <i_lp_mmshare_version>
43012

> <i_f3d_flags>
0

> <s_epik_input>
W0NIMl0xW0NIMl1PW0NIMl1bQ0gyXU4xW0NAQF0oW0NIM10pKFtDSDJdW0NIM10pW0NIMl1bTkhdQyg9TylbQ0gyXW4yW2NIXVtjSF1bY0hdW2NIXWMyPU8=

> <s_epik_cmdline>
J2VwaWtfcHl0aG9uJywgJy1waCcsICc3LjAnLCAnLXRuJywgJzgnLCAnLW1hJywgJzIwMCcsICctbWV0YWxfYmluZGluZycsICctaW1hZScsICc8aW5maWxlLm1hZT4nLCAnLW9tYWUnLCAnPG91dGZpbGUubWFlPic=

> <r_lp_tautomer_probability>
1

> <r_epik_Ionization_Penalty>
0.318667

> <r_epik_Ionization_Penalty_Charging>
3.55364e-07

> <r_epik_Ionization_Penalty_Neutral>
0.318667

> <r_epik_State_Penalty>
0.313095

> <r_epik_Charging_Adjusted_Penalty>
0.313095

> <i_epik_Tot_Q>
0

> <i_epik_Tot_abs_Q>
0

> <r_epik_Metal_State_Penalty>
0.313065

> <b_epik_Metal_Only>
0

> <s_lp_Force_Field>
OPLS_2005

> <r_lp_Energy>
51.6355

> <b_lp_Chiralities_Consistent>
1

> <s_lp_Variant>
AV-unprocessed.smi:1304-1

> <Gold.Version>
5.8.1

> <Gold.Id.Protein>
6NUR|6NUR_protein|mol2

> <Gold.PLP.Fitness>
43.4966

> <Gold.PLP.PLP>
-34.9334

> <Gold.PLP.part.hbond>
-2.0000

> <Gold.PLP.part.metal>
0.0000

> <Gold.PLP.part.buried>
-6.7778

> <Gold.PLP.part.nonpolar>
-27.2425

> <Gold.PLP.part.repulsive>
0.4107

> <Gold.PLP.ligand.clash>
0.0000

> <Gold.PLP.ligand.torsion>
0.2903

> <Gold.PLP.Chemscore.Hbond>
2.0000

> <Gold.PLP.Chemscore.CHOScore>
1.0000

> <Gold.PLP.Chemscore.Metal>
0.0000

> <Gold.Chemscore.Hbonds>
donor molecule, donor type, donor heavy atom, donor atom, acceptor molecule, acceptor atom, score
      L1  H     6    33       P1  7948  1.00
      P1  H  7989  7998       L1    20  1.00
      L1  C    11    36       P1 10747  0.60

> <Gold.PLP.Chemscore.Internal.Correction>
0.1438

> <Gold.Rescore>
     Score         DG    S(hbond)    S(metal)    S(lipo)     H(rot)  DE(clash)    DE(int)     intcor
     14.85     -15.36       1.49        0.00      84.60       1.95       0.19       0.31       ----

> <Gold.Chemscore.Fitness>
14.8540

> <Gold.Chemscore.DG>
-15.3561

> <Gold.Chemscore.ZeroCoef>
-5.4800

> <Gold.Chemscore.Hbond>
1.4893

> <Gold.Chemscore.Metal>
0.0000

> <Gold.Chemscore.Lipo>
84.5950

> <Gold.Chemscore.Internal_Hbond>
0.0000

> <Gold.Chemscore.DEClash>
0.1944

> <Gold.Chemscore.DEInternal>
0.3076

> <Gold.Chemscore.Rot>
1.9515

> <Gold.Chemscore.Internal.Correction>
   9.000000E+99

> <Gold.Chemscore.Hbonds>
donor molecule, donor type, donor heavy atom, donor atom, acceptor molecule, acceptor atom, score
      L1  H     6    33       P1  7948  0.99
      P1  H  7989  7998       L1    20  0.26

> <Gold.Chemscore.Hbond.Weighted>
-4.9743

> <Gold.Chemscore.Metal.Weighted>
-0.0000

> <Gold.Chemscore.Lipo.Weighted>
-9.8976

> <Gold.Chemscore.Internal_Hbond.Weighted>
0.0000

> <Gold.Chemscore.DEClash.Weighted>
0.1944

> <Gold.Chemscore.DEInternal.Weighted>
0.3076

> <Gold.Chemscore.Rot.Weighted>
4.9958

> <Gold.Chemscore.Internal.Correction.Weighted>
   9.000000E+99

> <Gold.Protein.RotatedTorsions>
[ 6907 6896 6895 6894 ] final   16.85 input  -60.11 | X-H torsion
[ 7974 7965 7964 7962 ] final -130.14 input  175.53 | X-H torsion
[ 8008 7997 7996 7995 ] final  167.51 input   59.86 | X-H torsion
[ 10167 10162 10161 10158 ] final  122.12 input  -65.29 | X-H torsion
[ 10718 10713 10712 10709 ] final  -92.58 input   66.30 | X-H torsion
[ 10763 10752 10751 10750 ] final  149.00 input  -60.55 | X-H torsion
[ 11005 11000 10999 10996 ] final  155.56 input  -57.11 | X-H torsion

> <Gold.Protein.ActiveResidues>
 VAL166  LYS551  ARG553  GLY616  TRP617  ASP618  TYR619  PRO620  LYS621  CYS622 
 ASP623  PHE694  ASN695  SER759  ASP760  ASP761  ALA762  ILE779  LEU786  VAL792 
 PHE793  MET794  SER795  GLU796  ALA797  LYS798  CYS799  TRP800  GLU811  SER814 

> <Gold.Protein.RotatedAtoms>
  151.8404  135.0592  160.0447 H   0  0  0  0  0  0  0  0  0  0  0  0  # atno 6907 bound_to 6896
  152.2813  133.5468  159.5508 H   0  0  0  0  0  0  0  0  0  0  0  0  # atno 6908 bound_to 6896
  150.7190  134.0476  159.3829 H   0  0  0  0  0  0  0  0  0  0  0  0  # atno 6909 bound_to 6896
  144.9504  140.7338  143.4791 H   0  0  0  0  0  0  0  0  0  0  0  0  # atno 7974 bound_to 7965
  156.1627  140.1615  156.8584 H   0  0  0  0  0  0  0  0  0  0  0  0  # atno 8008 bound_to 7997
  154.5177  140.0785  156.8148 H   0  0  0  0  0  0  0  0  0  0  0  0  # atno 8009 bound_to 7997
  155.3674  140.3398  155.4244 H   0  0  0  0  0  0  0  0  0  0  0  0  # atno 8010 bound_to 7997
  139.5878  144.7013  151.3366 H   0  0  0  0  0  0  0  0  0  0  0  0  # atno 10167 bound_to 10162
  156.0004  130.4993  150.5647 H   0  0  0  0  0  0  0  0  0  0  0  0  # atno 10718 bound_to 10713
  154.0640  135.2872  155.3320 H   0  0  0  0  0  0  0  0  0  0  0  0  # atno 10763 bound_to 10752
  154.6790  135.5271  153.8240 H   0  0  0  0  0  0  0  0  0  0  0  0  # atno 10764 bound_to 10752
  153.0511  135.6576  154.0827 H   0  0  0  0  0  0  0  0  0  0  0  0  # atno 10765 bound_to 10752
  140.1593  134.8621  157.2554 H   0  0  0  0  0  0  0  0  0  0  0  0  # atno 11005 bound_to 11000
  145.2853  139.1903  143.4769 LP  0  0  0  0  0  0  0  0  0  0  0  0  # atno 17320 bound_to 7965
  146.3319  140.2821  142.8611 LP  0  0  0  0  0  0  0  0  0  0  0  0  # atno 17321 bound_to 7965
  140.7146  143.7299  150.7631 LP  0  0  0  0  0  0  0  0  0  0  0  0  # atno 17342 bound_to 10162
  140.0848  143.4934  152.2511 LP  0  0  0  0  0  0  0  0  0  0  0  0  # atno 17343 bound_to 10162
  157.3551  131.0740  151.1682 LP  0  0  0  0  0  0  0  0  0  0  0  0  # atno 17370 bound_to 10713
  157.2485  130.6603  149.5921 LP  0  0  0  0  0  0  0  0  0  0  0  0  # atno 17371 bound_to 10713
  140.2509  134.3684  155.7442 LP  0  0  0  0  0  0  0  0  0  0  0  0  # atno 17394 bound_to 11000
  141.2208  133.7316  156.8934 LP  0  0  0  0  0  0  0  0  0  0  0  0  # atno 17395 bound_to 11000

$$$$
