AV-unprocessed.smi:21|AV-procd|sdf|167|dock4
  -GOLD-   2262015413D 1   1.00000     0.00000
 Structure written by MMmdl.
 61 64  0  0  0  0  0  0  0  0  1 V2000
  153.8514  140.4174  159.6945 C   0  0  0  0  0  0  0  0  0  0  0  0
  153.8890  139.7182  158.4610 O   0  0  0  0  0  0  0  0  0  0  0  0
  152.6408  139.1455  158.0977 C   0  0  1  0  0  0  0  0  0  0  0  0
  151.5463  140.2238  158.0695 C   0  0  0  0  0  0  0  0  0  0  0  0
  151.0664  140.2546  156.6092 C   0  0  2  0  0  0  0  0  0  0  0  0
  149.5978  140.7036  156.4522 C   0  0  0  0  0  0  0  0  0  0  0  0
  148.9947  140.2192  155.2079 N   0  0  0  0  0  0  0  0  0  0  0  0
  148.8526  141.1641  154.1073 C   0  0  0  0  0  0  0  0  0  0  0  0
  148.3162  139.0361  155.1839 C   0  0  0  0  0  0  0  0  0  0  0  0
  148.5718  138.1297  156.1648 N   0  0  0  0  0  0  0  0  0  0  0  0
  147.9389  136.9547  156.1975 C   0  0  0  0  0  0  0  0  0  0  0  0
  147.0232  136.4795  155.3547 N   0  0  0  0  0  0  0  0  0  0  0  0
  146.7572  137.3735  154.3614 C   0  0  0  0  0  0  0  0  0  0  0  0
  147.3467  138.6626  154.2009 C   0  0  0  0  0  0  0  0  0  0  0  0
  146.7982  139.2802  153.0806 N   0  0  0  0  0  0  0  0  0  0  0  0
  145.9473  138.4124  152.6084 C   0  0  0  0  0  0  0  0  0  0  0  0
  145.8760  137.2280  153.3034 N   0  0  0  0  0  0  0  0  0  0  0  0
  145.0103  136.1002  153.0035 C   0  0  0  0  0  0  0  0  0  0  0  0
  145.7378  134.7371  152.8266 C   0  0  1  0  0  0  0  0  0  0  0  0
  145.9586  134.0979  154.2195 C   0  0  0  0  0  0  0  0  0  0  0  0
  144.7315  133.8487  154.8741 O   0  0  0  0  0  0  0  0  0  0  0  0
  144.9953  133.7585  151.8668 C   0  0  1  0  0  0  0  0  0  0  0  0
  144.7479  134.2718  150.4532 C   0  0  0  0  0  0  0  0  0  0  0  0
  144.5724  133.0029  149.6202 C   0  0  0  0  0  0  0  0  0  0  0  0
  145.1350  131.9434  150.3824 O   0  0  0  0  0  0  0  0  0  0  0  0
  145.7677  132.4767  151.5351 C   0  0  0  0  0  0  0  0  0  0  0  0
  151.3500  138.9208  156.1036 N   0  0  0  0  0  0  0  0  0  0  0  0
  151.3383  138.8265  154.6496 C   0  0  0  0  0  0  0  0  0  0  0  0
  152.6518  138.6089  156.6600 C   0  0  0  0  0  0  0  0  0  0  0  0
  152.3523  138.3636  158.8025 H   0  0  0  0  0  0  0  0  0  0  0  0
  151.7023  140.9609  156.0720 H   0  0  0  0  0  0  0  0  0  0  0  0
  154.8335  140.8416  159.9026 H   0  0  0  0  0  0  0  0  0  0  0  0
  153.5904  139.7577  160.5227 H   0  0  0  0  0  0  0  0  0  0  0  0
  153.1329  141.2372  159.6606 H   0  0  0  0  0  0  0  0  0  0  0  0
  150.7356  139.9305  158.7375 H   0  0  0  0  0  0  0  0  0  0  0  0
  151.9052  141.2001  158.3975 H   0  0  0  0  0  0  0  0  0  0  0  0
  149.0030  140.3006  157.2715 H   0  0  0  0  0  0  0  0  0  0  0  0
  149.5218  141.7858  156.5571 H   0  0  0  0  0  0  0  0  0  0  0  0
  148.9917  140.6671  153.1468 H   0  0  0  0  0  0  0  0  0  0  0  0
  149.5988  141.9557  154.1782 H   0  0  0  0  0  0  0  0  0  0  0  0
  147.8681  141.6322  154.1257 H   0  0  0  0  0  0  0  0  0  0  0  0
  148.2067  136.3013  157.0145 H   0  0  0  0  0  0  0  0  0  0  0  0
  145.3539  138.6108  151.7278 H   0  0  0  0  0  0  0  0  0  0  0  0
  144.2843  136.0436  153.8147 H   0  0  0  0  0  0  0  0  0  0  0  0
  144.4396  136.3318  152.1032 H   0  0  0  0  0  0  0  0  0  0  0  0
  146.7267  134.9216  152.4058 H   0  0  0  0  0  0  0  0  0  0  0  0
  146.5189  133.1665  154.1344 H   0  0  0  0  0  0  0  0  0  0  0  0
  146.5267  134.7549  154.8766 H   0  0  0  0  0  0  0  0  0  0  0  0
  144.4171  132.9973  154.6104 H   0  0  0  0  0  0  0  0  0  0  0  0
  144.0392  133.4746  152.3091 H   0  0  0  0  0  0  0  0  0  0  0  0
  143.8739  134.9155  150.3721 H   0  0  0  0  0  0  0  0  0  0  0  0
  145.6143  134.8296  150.0953 H   0  0  0  0  0  0  0  0  0  0  0  0
  143.5172  132.7887  149.4496 H   0  0  0  0  0  0  0  0  0  0  0  0
  145.0617  133.0885  148.6496 H   0  0  0  0  0  0  0  0  0  0  0  0
  146.8084  132.7004  151.2948 H   0  0  0  0  0  0  0  0  0  0  0  0
  145.7517  131.7476  152.3455 H   0  0  0  0  0  0  0  0  0  0  0  0
  151.6157  137.8218  154.3294 H   0  0  0  0  0  0  0  0  0  0  0  0
  152.0401  139.5305  154.2003 H   0  0  0  0  0  0  0  0  0  0  0  0
  150.3456  139.0342  154.2511 H   0  0  0  0  0  0  0  0  0  0  0  0
  153.4285  139.1214  156.0895 H   0  0  0  0  0  0  0  0  0  0  0  0
  152.8619  137.5398  156.6173 H   0  0  0  0  0  0  0  0  0  0  0  0
  1  2  1  0  0  0  0
  1 32  1  0  0  0  0
  1 33  1  0  0  0  0
  1 34  1  0  0  0  0
  2  3  1  0  0  0  0
  3 30  1  0  0  0  0
  3 29  1  0  0  0  0
  3  4  1  0  0  0  0
  4  5  1  0  0  0  0
  4 35  1  0  0  0  0
  4 36  1  0  0  0  0
  5 31  1  0  0  0  0
  5  6  1  0  0  0  0
  5 27  1  0  0  0  0
  6  7  1  0  0  0  0
  6 37  1  0  0  0  0
  6 38  1  0  0  0  0
  7  8  1  0  0  0  0
  7  9  1  0  0  0  0
  8 39  1  0  0  0  0
  8 40  1  0  0  0  0
  8 41  1  0  0  0  0
  9 14  1  0  0  0  0
  9 10  2  0  0  0  0
 10 11  1  0  0  0  0
 11 12  2  0  0  0  0
 11 42  1  0  0  0  0
 12 13  1  0  0  0  0
 13 17  1  0  0  0  0
 13 14  2  0  0  0  0
 14 15  1  0  0  0  0
 15 16  2  0  0  0  0
 16 17  1  0  0  0  0
 16 43  1  0  0  0  0
 17 18  1  0  0  0  0
 18 19  1  0  0  0  0
 18 44  1  0  0  0  0
 18 45  1  0  0  0  0
 19 20  1  0  0  0  0
 19 22  1  0  0  0  0
 19 46  1  0  0  0  0
 20 21  1  0  0  0  0
 20 47  1  0  0  0  0
 20 48  1  0  0  0  0
 21 49  1  0  0  0  0
 22 26  1  0  0  0  0
 22 23  1  0  0  0  0
 22 50  1  0  0  0  0
 23 24  1  0  0  0  0
 23 51  1  0  0  0  0
 23 52  1  0  0  0  0
 24 25  1  0  0  0  0
 24 53  1  0  0  0  0
 24 54  1  0  0  0  0
 25 26  1  0  0  0  0
 26 55  1  0  0  0  0
 26 56  1  0  0  0  0
 27 28  1  0  0  0  0
 27 29  1  0  0  0  0
 28 57  1  0  0  0  0
 28 58  1  0  0  0  0
 28 59  1  0  0  0  0
 29 60  1  0  0  0  0
 29 61  1  0  0  0  0
M  END
> <s_m_source_file>
AV-unprocessed.smi

> <i_m_source_file_index>
21

> <i_lp_mmshare_version>
43012

> <i_f3d_flags>
0

> <s_epik_input>
W0NIM11PW0NASF0xW0NIMl1bQ0BIXShOKFtDSDNdKVtDSDJdMSlbQ0gyXU4oW0NIM10pYyhuW2NIXW4yKWMoYzIzKW5bY0hdbjNbQ0gyXVtDQEhdKFtDSDJdW09IXSlbQ0BASF00W0NIMl1bQ0gyXU9bQ0gyXTQ=

> <s_epik_cmdline>
J2VwaWtfcHl0aG9uJywgJy1waCcsICc3LjAnLCAnLXRuJywgJzgnLCAnLW1hJywgJzIwMCcsICctbWV0YWxfYmluZGluZycsICctaW1hZScsICc8aW5maWxlLm1hZT4nLCAnLW9tYWUnLCAnPG91dGZpbGUubWFlPic=

> <r_lp_tautomer_probability>
1

> <r_epik_Ionization_Penalty>
2.17574

> <r_epik_Ionization_Penalty_Charging>
0

> <r_epik_Ionization_Penalty_Neutral>
2.17574

> <r_epik_State_Penalty>
2.31336

> <r_epik_Charging_Adjusted_Penalty>
2.31336

> <i_epik_Tot_Q>
0

> <i_epik_Tot_abs_Q>
0

> <r_epik_Metal_State_Penalty>
2.31025

> <b_epik_Metal_Only>
0

> <s_lp_Force_Field>
OPLS_2005

> <r_lp_Energy>
70.7714

> <b_lp_Chiralities_Consistent>
1

> <s_lp_Variant>
AV-unprocessed.smi:21-47

> <Gold.Version>
5.8.1

> <Gold.Id.Protein>
6NUR|6NUR_protein|mol2

> <Gold.PLP.Fitness>
41.4370

> <Gold.PLP.PLP>
-32.4825

> <Gold.PLP.part.hbond>
-2.0000

> <Gold.PLP.part.metal>
0.0000

> <Gold.PLP.part.buried>
-4.1175

> <Gold.PLP.part.nonpolar>
-27.0374

> <Gold.PLP.part.repulsive>
0.4318

> <Gold.PLP.ligand.clash>
0.0000

> <Gold.PLP.ligand.torsion>
1.0338

> <Gold.PLP.Chemscore.Hbond>
1.9833

> <Gold.PLP.Chemscore.CHOScore>
1.4682

> <Gold.PLP.Chemscore.Metal>
0.0000

> <Gold.Chemscore.Hbonds>
donor molecule, donor type, donor heavy atom, donor atom, acceptor molecule, acceptor atom, score
      L1  H    21    49       P1 10957  0.60
      P1  H  7997  8009       L1     2  1.00
      L1  C    16    43       P1 10171  1.00
      L1  C    16    43       P1 10175  0.44

> <Gold.PLP.Chemscore.Internal.Correction>
0.6673

> <Gold.Rescore>
     Score         DG    S(hbond)    S(metal)    S(lipo)     H(rot)  DE(clash)    DE(int)     intcor
      7.78     -14.25       1.95        0.00      85.10       3.00       0.29       6.18       ----

> <Gold.Chemscore.Fitness>
7.7775

> <Gold.Chemscore.DG>
-14.2458

> <Gold.Chemscore.ZeroCoef>
-5.4800

> <Gold.Chemscore.Hbond>
1.9453

> <Gold.Chemscore.Metal>
0.0000

> <Gold.Chemscore.Lipo>
85.0972

> <Gold.Chemscore.Internal_Hbond>
0.0000

> <Gold.Chemscore.DEClash>
0.2926

> <Gold.Chemscore.DEInternal>
6.1756

> <Gold.Chemscore.Rot>
3.0031

> <Gold.Chemscore.Internal.Correction>
   9.000000E+99

> <Gold.Chemscore.Hbonds>
donor molecule, donor type, donor heavy atom, donor atom, acceptor molecule, acceptor atom, score
      L1  H    21    49       P1 10957  0.58
      P1  H  7997  8009       L1     2  0.68

> <Gold.Chemscore.Hbond.Weighted>
-6.4974

> <Gold.Chemscore.Metal.Weighted>
-0.0000

> <Gold.Chemscore.Lipo.Weighted>
-9.9564

> <Gold.Chemscore.Internal_Hbond.Weighted>
0.0000

> <Gold.Chemscore.DEClash.Weighted>
0.2926

> <Gold.Chemscore.DEInternal.Weighted>
6.1756

> <Gold.Chemscore.Rot.Weighted>
7.6880

> <Gold.Chemscore.Internal.Correction.Weighted>
   9.000000E+99

> <Gold.Protein.RotatedTorsions>
[ 6907 6896 6895 6894 ] final  -80.69 input  -60.11 | X-H torsion
[ 7974 7965 7964 7962 ] final   21.78 input  175.53 | X-H torsion
[ 8008 7997 7996 7995 ] final  146.61 input   59.86 | X-H torsion
[ 10167 10162 10161 10158 ] final  122.58 input  -65.29 | X-H torsion
[ 10718 10713 10712 10709 ] final -142.75 input   66.30 | X-H torsion
[ 10763 10752 10751 10750 ] final   22.84 input  -60.55 | X-H torsion
[ 11005 11000 10999 10996 ] final -142.62 input  -57.11 | X-H torsion

> <Gold.Protein.ActiveResidues>
 VAL166  LYS551  ARG553  GLY616  TRP617  ASP618  TYR619  PRO620  LYS621  CYS622 
 ASP623  PHE694  ASN695  SER759  ASP760  ASP761  ALA762  ILE779  LEU786  VAL792 
 PHE793  MET794  SER795  GLU796  ALA797  LYS798  CYS799  TRP800  GLU811  SER814 

> <Gold.Protein.RotatedAtoms>
  150.6925  134.3931  159.5085 H   0  0  0  0  0  0  0  0  0  0  0  0  # atno 6907 bound_to 6896
  152.1716  134.8826  160.0543 H   0  0  0  0  0  0  0  0  0  0  0  0  # atno 6908 bound_to 6896
  151.9850  133.3736  159.4159 H   0  0  0  0  0  0  0  0  0  0  0  0  # atno 6909 bound_to 6896
  146.2057  139.7978  142.8728 H   0  0  0  0  0  0  0  0  0  0  0  0  # atno 7974 bound_to 7965
  156.2850  140.2177  156.5405 H   0  0  0  0  0  0  0  0  0  0  0  0  # atno 8008 bound_to 7997
  154.7374  140.0490  157.0803 H   0  0  0  0  0  0  0  0  0  0  0  0  # atno 8009 bound_to 7997
  155.0275  140.3131  155.4773 H   0  0  0  0  0  0  0  0  0  0  0  0  # atno 8010 bound_to 7997
  139.5850  144.7002  151.3432 H   0  0  0  0  0  0  0  0  0  0  0  0  # atno 10167 bound_to 10162
  156.3497  130.7681  151.1832 H   0  0  0  0  0  0  0  0  0  0  0  0  # atno 10718 bound_to 10713
  153.0884  135.6640  153.9902 H   0  0  0  0  0  0  0  0  0  0  0  0  # atno 10763 bound_to 10752
  153.9506  135.2984  155.3440 H   0  0  0  0  0  0  0  0  0  0  0  0  # atno 10764 bound_to 10752
  154.7296  135.5129  153.9014 H   0  0  0  0  0  0  0  0  0  0  0  0  # atno 10765 bound_to 10752
  140.8207  134.2634  157.4901 H   0  0  0  0  0  0  0  0  0  0  0  0  # atno 11005 bound_to 11000
  145.3328  141.0270  143.3436 LP  0  0  0  0  0  0  0  0  0  0  0  0  # atno 17320 bound_to 7965
  144.8786  139.4935  143.6733 LP  0  0  0  0  0  0  0  0  0  0  0  0  # atno 17321 bound_to 7965
  140.7123  143.7358  150.7590 LP  0  0  0  0  0  0  0  0  0  0  0  0  # atno 17342 bound_to 10162
  140.0900  143.4887  152.2484 LP  0  0  0  0  0  0  0  0  0  0  0  0  # atno 17343 bound_to 10162
  157.7459  131.0431  150.4727 LP  0  0  0  0  0  0  0  0  0  0  0  0  # atno 17370 bound_to 10713
  156.4920  130.4097  149.6401 LP  0  0  0  0  0  0  0  0  0  0  0  0  # atno 17371 bound_to 10713
  139.8708  134.9534  156.4143 LP  0  0  0  0  0  0  0  0  0  0  0  0  # atno 17394 bound_to 11000
  140.9102  133.7717  155.9782 LP  0  0  0  0  0  0  0  0  0  0  0  0  # atno 17395 bound_to 11000

$$$$
