AV-unprocessed.smi:772|AV-procd|sdf|3687|dock3
  -GOLD-   22720 1103D 1   1.00000     0.00000
 Structure written by MMmdl.
 47 48  0  0  0  0  0  0  0  0  2 V2000
  143.5131  132.9523  148.0284 C   0  0  0  0  0  0  0  0  0  0  0  0
  144.1291  133.0222  149.4094 C   0  0  0  0  0  0  0  0  0  0  0  0
  145.3645  132.4131  149.7162 C   0  0  0  0  0  0  0  0  0  0  0  0
  145.8721  132.5092  151.0283 C   0  0  0  0  0  0  0  0  0  0  0  0
  145.1349  133.2108  152.0071 C   0  0  0  0  0  0  0  0  0  0  0  0
  145.6401  133.2954  153.4366 C   0  0  0  0  0  0  0  0  0  0  0  0
  147.0309  133.9478  153.5603 C   0  0  0  0  0  0  0  0  0  0  0  0
  147.8916  133.2506  154.5132 N   0  0  0  0  0  0  0  0  0  0  0  0
  148.8357  132.3428  154.2066 C   0  0  0  0  0  0  0  0  0  0  0  0
  149.0646  132.0020  153.0451 O   0  0  0  0  0  0  0  0  0  0  0  0
  149.4714  131.8019  155.2766 N   0  0  0  0  0  0  0  0  0  0  0  0
  149.6179  132.4277  156.6003 C   0  0  0  0  0  0  0  0  0  0  0  0
  150.9853  133.1239  156.6733 C   0  0  0  0  0  0  0  0  0  0  0  0
  152.3375  131.9183  156.5077 S   0  0  0  0  0  0  0  0  0  0  0  0
  151.7927  131.0208  155.0108 C   0  0  1  0  0  0  0  0  0  0  0  0
  152.7251  129.8320  154.6659 C   0  0  0  0  0  0  0  0  0  0  0  0
  152.7330  128.7151  155.7267 C   0  0  0  0  0  0  0  0  0  0  0  0
  154.1568  130.2967  154.3493 C   0  0  0  0  0  0  0  0  0  0  0  0
  150.3108  130.6043  155.1470 C   0  0  0  0  0  0  0  0  0  0  0  0
  143.9089  133.8067  151.6399 C   0  0  0  0  0  0  0  0  0  0  0  0
  143.4561  133.6905  150.3727 N   0  3  0  0  0  0  0  0  0  0  0  0
  144.2058  132.5110  147.3112 H   0  0  0  0  0  0  0  0  0  0  0  0
  143.2499  133.9501  147.6763 H   0  0  0  0  0  0  0  0  0  0  0  0
  142.6090  132.3434  148.0490 H   0  0  0  0  0  0  0  0  0  0  0  0
  145.9154  131.8724  148.9603 H   0  0  0  0  0  0  0  0  0  0  0  0
  146.8105  132.0383  151.2826 H   0  0  0  0  0  0  0  0  0  0  0  0
  144.9184  133.8613  154.0268 H   0  0  0  0  0  0  0  0  0  0  0  0
  145.6639  132.2939  153.8687 H   0  0  0  0  0  0  0  0  0  0  0  0
  147.5101  134.0082  152.5818 H   0  0  0  0  0  0  0  0  0  0  0  0
  146.9183  134.9762  153.9038 H   0  0  0  0  0  0  0  0  0  0  0  0
  147.7571  133.4727  155.4888 H   0  0  0  0  0  0  0  0  0  0  0  0
  148.8255  133.1402  156.8296 H   0  0  0  0  0  0  0  0  0  0  0  0
  149.5453  131.6688  157.3806 H   0  0  0  0  0  0  0  0  0  0  0  0
  151.0755  133.8730  155.8860 H   0  0  0  0  0  0  0  0  0  0  0  0
  151.0974  133.6442  157.6245 H   0  0  0  0  0  0  0  0  0  0  0  0
  151.8563  131.7320  154.1858 H   0  0  0  0  0  0  0  0  0  0  0  0
  152.3420  129.3875  153.7465 H   0  0  0  0  0  0  0  0  0  0  0  0
  153.1176  129.0669  156.6838 H   0  0  0  0  0  0  0  0  0  0  0  0
  153.3643  127.8846  155.4094 H   0  0  0  0  0  0  0  0  0  0  0  0
  151.7357  128.3102  155.8950 H   0  0  0  0  0  0  0  0  0  0  0  0
  154.6448  130.7268  155.2240 H   0  0  0  0  0  0  0  0  0  0  0  0
  154.1619  131.0497  153.5607 H   0  0  0  0  0  0  0  0  0  0  0  0
  154.7714  129.4633  154.0079 H   0  0  0  0  0  0  0  0  0  0  0  0
  150.1684  129.9643  156.0180 H   0  0  0  0  0  0  0  0  0  0  0  0
  150.0089  129.9964  154.2927 H   0  0  0  0  0  0  0  0  0  0  0  0
  143.2731  134.3552  152.3194 H   0  0  0  0  0  0  0  0  0  0  0  0
  142.5637  134.1229  150.1326 H   0  0  0  0  0  0  0  0  0  0  0  0
  1  2  1  0  0  0  0
  1 22  1  0  0  0  0
  1 23  1  0  0  0  0
  1 24  1  0  0  0  0
  2 21  1  0  0  0  0
  2  3  2  0  0  0  0
  3  4  1  0  0  0  0
  3 25  1  0  0  0  0
  4  5  2  0  0  0  0
  4 26  1  0  0  0  0
  5  6  1  0  0  0  0
  5 20  1  0  0  0  0
  6  7  1  0  0  0  0
  6 27  1  0  0  0  0
  6 28  1  0  0  0  0
  7  8  1  0  0  0  0
  7 29  1  0  0  0  0
  7 30  1  0  0  0  0
  8  9  1  0  0  0  0
  8 31  1  0  0  0  0
  9 10  2  0  0  0  0
  9 11  1  0  0  0  0
 11 19  1  0  0  0  0
 11 12  1  0  0  0  0
 12 13  1  0  0  0  0
 12 32  1  0  0  0  0
 12 33  1  0  0  0  0
 13 14  1  0  0  0  0
 13 34  1  0  0  0  0
 13 35  1  0  0  0  0
 14 15  1  0  0  0  0
 15 16  1  0  0  0  0
 15 19  1  0  0  0  0
 15 36  1  0  0  0  0
 16 17  1  0  0  0  0
 16 18  1  0  0  0  0
 16 37  1  0  0  0  0
 17 38  1  0  0  0  0
 17 39  1  0  0  0  0
 17 40  1  0  0  0  0
 18 41  1  0  0  0  0
 18 42  1  0  0  0  0
 18 43  1  0  0  0  0
 19 44  1  0  0  0  0
 19 45  1  0  0  0  0
 20 21  2  0  0  0  0
 20 46  1  0  0  0  0
 21 47  1  0  0  0  0
M  CHG  1  21   1
M  END
> <s_m_source_file>
AV-unprocessed.smi

> <i_m_source_file_index>
772

> <i_lp_mmshare_version>
43012

> <i_f3d_flags>
0

> <s_epik_input>
W0NIM11jMVtjSF1bY0hdYyhbY0hdbjEpW0NIMl1bQ0gyXVtOSF1DKD1PKU4yW0NIMl1bQ0gyXVNbQ0BIXShbQ0gyXTIpW0NIXShbQ0gzXSlbQ0gzXQ==

> <s_epik_cmdline>
J2VwaWtfcHl0aG9uJywgJy1waCcsICc3LjAnLCAnLXRuJywgJzgnLCAnLW1hJywgJzIwMCcsICctbWV0YWxfYmluZGluZycsICctaW1hZScsICc8aW5maWxlLm1hZT4nLCAnLW9tYWUnLCAnPG91dGZpbGUubWFlPic=

> <r_epik_Ionization_Penalty>
1.41908

> <r_epik_Ionization_Penalty_Charging>
1.41903

> <r_epik_Ionization_Penalty_Neutral>
4.72921e-05

> <r_epik_State_Penalty>
1.50265

> <r_epik_Charging_Adjusted_Penalty>
2.92168

> <i_epik_Tot_Q>
1

> <i_epik_Tot_abs_Q>
1

> <r_epik_Metal_State_Penalty>
1.55496

> <b_epik_Metal_Only>
0

> <s_lp_Force_Field>
OPLS_2005

> <r_lp_Energy>
32.521

> <b_lp_Chiralities_Consistent>
1

> <s_lp_Variant>
AV-unprocessed.smi:772-3

> <Gold.Version>
5.8.1

> <Gold.Id.Protein>
6NUR|6NUR_protein|mol2

> <Gold.PLP.Fitness>
41.1694

> <Gold.PLP.PLP>
-36.3401

> <Gold.PLP.part.hbond>
-1.0000

> <Gold.PLP.part.metal>
0.0000

> <Gold.PLP.part.buried>
-3.7097

> <Gold.PLP.part.nonpolar>
-32.4649

> <Gold.PLP.part.repulsive>
0.9003

> <Gold.PLP.ligand.clash>
0.0000

> <Gold.PLP.ligand.torsion>
0.6337

> <Gold.PLP.Chemscore.Hbond>
2.0000

> <Gold.PLP.Chemscore.CHOScore>
0.0000

> <Gold.PLP.Chemscore.Metal>
0.0000

> <Gold.Chemscore.Hbonds>
donor molecule, donor type, donor heavy atom, donor atom, acceptor molecule, acceptor atom, score
      L1  H    21    47       P1 10186  2.00

> <Gold.PLP.Chemscore.Internal.Correction>
0.0967

> <Gold.Rescore>
     Score         DG    S(hbond)    S(metal)    S(lipo)     H(rot)  DE(clash)    DE(int)     intcor
     16.09     -17.65       1.00        0.00     106.01       1.39       1.00       0.56       ----

> <Gold.Chemscore.Fitness>
16.0950

> <Gold.Chemscore.DG>
-17.6523

> <Gold.Chemscore.ZeroCoef>
-5.4800

> <Gold.Chemscore.Hbond>
1.0000

> <Gold.Chemscore.Metal>
0.0000

> <Gold.Chemscore.Lipo>
106.0108

> <Gold.Chemscore.Internal_Hbond>
0.0000

> <Gold.Chemscore.DEClash>
0.9992

> <Gold.Chemscore.DEInternal>
0.5582

> <Gold.Chemscore.Rot>
1.3949

> <Gold.Chemscore.Internal.Correction>
   9.000000E+99

> <Gold.Chemscore.Hbonds>
donor molecule, donor type, donor heavy atom, donor atom, acceptor molecule, acceptor atom, score
      L1  H    21    47       P1 10186  0.96

> <Gold.Chemscore.Hbond.Weighted>
-3.3400

> <Gold.Chemscore.Metal.Weighted>
-0.0000

> <Gold.Chemscore.Lipo.Weighted>
-12.4033

> <Gold.Chemscore.Internal_Hbond.Weighted>
0.0000

> <Gold.Chemscore.DEClash.Weighted>
0.9992

> <Gold.Chemscore.DEInternal.Weighted>
0.5582

> <Gold.Chemscore.Rot.Weighted>
3.5709

> <Gold.Chemscore.Internal.Correction.Weighted>
   9.000000E+99

> <Gold.Protein.RotatedTorsions>
[ 6907 6896 6895 6894 ] final   22.93 input  -60.11 | X-H torsion
[ 7974 7965 7964 7962 ] final -156.45 input  175.53 | X-H torsion
[ 8008 7997 7996 7995 ] final -136.12 input   59.86 | X-H torsion
[ 10167 10162 10161 10158 ] final  125.41 input  -65.29 | X-H torsion
[ 10718 10713 10712 10709 ] final -138.92 input   66.30 | X-H torsion
[ 10763 10752 10751 10750 ] final -176.91 input  -60.55 | X-H torsion
[ 11005 11000 10999 10996 ] final  -43.86 input  -57.11 | X-H torsion

> <Gold.Protein.ActiveResidues>
 VAL166  LYS551  ARG553  GLY616  TRP617  ASP618  TYR619  PRO620  LYS621  CYS622 
 ASP623  PHE694  ASN695  SER759  ASP760  ASP761  ALA762  ILE779  LEU786  VAL792 
 PHE793  MET794  SER795  GLU796  ALA797  LYS798  CYS799  TRP800  GLU811  SER814 

> <Gold.Protein.RotatedAtoms>
  151.9347  135.0241  160.0531 H   0  0  0  0  0  0  0  0  0  0  0  0  # atno 6907 bound_to 6896
  152.2088  133.4891  159.5107 H   0  0  0  0  0  0  0  0  0  0  0  0  # atno 6908 bound_to 6896
  150.6971  134.1411  159.4148 H   0  0  0  0  0  0  0  0  0  0  0  0  # atno 6909 bound_to 6896
  144.7592  140.4107  143.5989 H   0  0  0  0  0  0  0  0  0  0  0  0  # atno 7974 bound_to 7965
  155.3899  140.0499  157.3041 H   0  0  0  0  0  0  0  0  0  0  0  0  # atno 8008 bound_to 7997
  154.5041  140.2167  155.9248 H   0  0  0  0  0  0  0  0  0  0  0  0  # atno 8009 bound_to 7997
  156.1504  140.3137  155.8644 H   0  0  0  0  0  0  0  0  0  0  0  0  # atno 8010 bound_to 7997
  139.5687  144.6926  151.3838 H   0  0  0  0  0  0  0  0  0  0  0  0  # atno 10167 bound_to 10162
  156.3049  130.7449  151.1510 H   0  0  0  0  0  0  0  0  0  0  0  0  # atno 10718 bound_to 10713
  154.5666  135.2824  155.0867 H   0  0  0  0  0  0  0  0  0  0  0  0  # atno 10763 bound_to 10752
  154.2256  135.6383  153.5162 H   0  0  0  0  0  0  0  0  0  0  0  0  # atno 10764 bound_to 10752
  153.0045  135.5525  154.6277 H   0  0  0  0  0  0  0  0  0  0  0  0  # atno 10765 bound_to 10752
  141.0412  133.6779  156.2791 H   0  0  0  0  0  0  0  0  0  0  0  0  # atno 11005 bound_to 11000
  145.6675  139.1593  143.2773 LP  0  0  0  0  0  0  0  0  0  0  0  0  # atno 17320 bound_to 7965
  146.1637  140.6749  142.9265 LP  0  0  0  0  0  0  0  0  0  0  0  0  # atno 17321 bound_to 7965
  140.6971  143.7722  150.7344 LP  0  0  0  0  0  0  0  0  0  0  0  0  # atno 17342 bound_to 10162
  140.1222  143.4602  152.2306 LP  0  0  0  0  0  0  0  0  0  0  0  0  # atno 17343 bound_to 10162
  157.7377  131.0549  150.5339 LP  0  0  0  0  0  0  0  0  0  0  0  0  # atno 17370 bound_to 10713
  156.5471  130.4222  149.6125 LP  0  0  0  0  0  0  0  0  0  0  0  0  # atno 17371 bound_to 10713
  140.6231  134.5341  157.5550 LP  0  0  0  0  0  0  0  0  0  0  0  0  # atno 17394 bound_to 11000
  139.9277  134.8024  156.1021 LP  0  0  0  0  0  0  0  0  0  0  0  0  # atno 17395 bound_to 11000

$$$$
