AV-unprocessed.smi:2557|AV-procd|sdf|10027|dock7
  -GOLD-   2272014 73D 1   1.00000     0.00000
 Structure written by MMmdl.
 38 40  0  0  0  0  0  0  0  0  2 V2000
  148.3616  140.6409  153.7987 O   0  5  0  0  0  0  0  0  0  0  0  0
  148.3240  141.3732  154.8158 C   0  0  0  0  0  0  0  0  0  0  0  0
  149.2464  141.6043  155.8392 C   0  0  0  0  0  0  0  0  0  0  0  0
  150.5651  140.9505  155.8460 C   0  0  0  0  0  0  0  0  0  0  0  0
  150.9780  140.1569  155.0013 O   0  0  0  0  0  0  0  0  0  0  0  0
  151.3449  141.2865  156.8918 N   0  0  0  0  0  0  0  0  0  0  0  0
  150.9564  142.1797  157.8925 C   0  0  0  0  0  0  0  0  0  0  0  0
  152.0509  142.3502  158.9473 C   0  0  0  0  0  0  0  0  0  0  0  0
  152.4833  140.9930  159.5477 C   0  0  0  0  0  0  0  0  0  0  0  0
  153.6152  141.1619  160.5752 C   0  0  0  0  0  0  0  0  0  0  0  0
  153.2225  142.1502  161.6839 C   0  0  0  0  0  0  0  0  0  0  0  0
  152.8042  143.5047  161.0927 C   0  0  0  0  0  0  0  0  0  0  0  0
  151.6643  143.3364  160.0751 C   0  0  0  0  0  0  0  0  0  0  0  0
  149.8067  142.7814  157.9427 N   0  0  0  0  0  0  0  0  0  0  0  0
  148.9558  142.4884  156.9027 N   0  0  0  0  0  0  0  0  0  0  0  0
  147.0018  142.0253  154.8843 C   0  0  0  0  0  0  0  0  0  0  0  0
  146.5746  142.9102  153.8699 C   0  0  0  0  0  0  0  0  0  0  0  0
  145.3074  143.5144  153.9863 C   0  0  0  0  0  0  0  0  0  0  0  0
  144.4727  143.2949  155.0245 N   0  0  0  0  0  0  0  0  0  0  0  0
  144.8870  142.4542  155.9966 C   0  0  0  0  0  0  0  0  0  0  0  0
  146.1345  141.8004  155.9759 C   0  0  0  0  0  0  0  0  0  0  0  0
  152.9197  142.7733  158.4393 H   0  0  0  0  0  0  0  0  0  0  0  0
  151.6288  140.5122  160.0266 H   0  0  0  0  0  0  0  0  0  0  0  0
  152.8160  140.3142  158.7615 H   0  0  0  0  0  0  0  0  0  0  0  0
  153.8682  140.1953  161.0116 H   0  0  0  0  0  0  0  0  0  0  0  0
  154.5146  141.5179  160.0712 H   0  0  0  0  0  0  0  0  0  0  0  0
  152.3992  141.7370  162.2682 H   0  0  0  0  0  0  0  0  0  0  0  0
  154.0549  142.2855  162.3749 H   0  0  0  0  0  0  0  0  0  0  0  0
  152.4929  144.1788  161.8912 H   0  0  0  0  0  0  0  0  0  0  0  0
  153.6616  143.9739  160.6084 H   0  0  0  0  0  0  0  0  0  0  0  0
  151.4102  144.3101  159.6536 H   0  0  0  0  0  0  0  0  0  0  0  0
  150.7741  142.9812  160.5967 H   0  0  0  0  0  0  0  0  0  0  0  0
  148.0579  142.9587  156.9340 H   0  0  0  0  0  0  0  0  0  0  0  0
  147.2074  143.1193  153.0201 H   0  0  0  0  0  0  0  0  0  0  0  0
  144.9547  144.1935  153.2242 H   0  0  0  0  0  0  0  0  0  0  0  0
  144.2029  142.2977  156.8173 H   0  0  0  0  0  0  0  0  0  0  0  0
  146.4209  141.1373  156.7790 H   0  0  0  0  0  0  0  0  0  0  0  0
  152.2603  140.8655  156.9474 H   0  0  0  0  0  0  0  0  0  0  0  0
  1  2  1  0  0  0  0
  2  3  2  0  0  0  0
  2 16  1  0  0  0  0
  3 15  1  0  0  0  0
  3  4  1  0  0  0  0
  4  5  2  0  0  0  0
  4  6  1  0  0  0  0
  6  7  1  0  0  0  0
  6 38  1  0  0  0  0
  7  8  1  0  0  0  0
  7 14  2  0  0  0  0
  8 13  1  0  0  0  0
  8  9  1  0  0  0  0
  8 22  1  0  0  0  0
  9 10  1  0  0  0  0
  9 23  1  0  0  0  0
  9 24  1  0  0  0  0
 10 11  1  0  0  0  0
 10 25  1  0  0  0  0
 10 26  1  0  0  0  0
 11 12  1  0  0  0  0
 11 27  1  0  0  0  0
 11 28  1  0  0  0  0
 12 13  1  0  0  0  0
 12 29  1  0  0  0  0
 12 30  1  0  0  0  0
 13 31  1  0  0  0  0
 13 32  1  0  0  0  0
 14 15  1  0  0  0  0
 15 33  1  0  0  0  0
 16 21  1  0  0  0  0
 16 17  2  0  0  0  0
 17 18  1  0  0  0  0
 17 34  1  0  0  0  0
 18 19  2  0  0  0  0
 18 35  1  0  0  0  0
 19 20  1  0  0  0  0
 20 21  2  0  0  0  0
 20 36  1  0  0  0  0
 21 37  1  0  0  0  0
M  CHG  1   1  -1
M  END
> <s_m_source_file>
AV-unprocessed.smi

> <i_m_source_file_index>
2557

> <i_lp_mmshare_version>
43012

> <i_f3d_flags>
0

> <s_epik_input>
W2NIXTFbY0hdbltjSF1bY0hdYzFDKD1PKUMyPUMoW09IXSlOPUMoW05IXVtOSF0yKVtDSF0zW0NIMl1bQ0gyXVtDSDJdW0NIMl1bQ0gyXTM=

> <s_epik_cmdline>
J2VwaWtfcHl0aG9uJywgJy1waCcsICc3LjAnLCAnLXRuJywgJzgnLCAnLW1hJywgJzIwMCcsICctbWV0YWxfYmluZGluZycsICctaW1hZScsICc8aW5maWxlLm1hZT4nLCAnLW9tYWUnLCAnPG91dGZpbGUubWFlPic=

> <r_epik_Ionization_Penalty>
0.0900605

> <r_epik_Ionization_Penalty_Charging>
0.000501436

> <r_epik_Ionization_Penalty_Neutral>
0.0895591

> <r_epik_State_Penalty>
0.142021

> <r_epik_Charging_Adjusted_Penalty>
0.142522

> <i_epik_Tot_Q>
-1

> <i_epik_Tot_abs_Q>
1

> <r_epik_Metal_State_Penalty>
0.0730028

> <b_epik_Metal_Only>
0

> <s_epik_Chemistry_Notes>
This compound has an imine and may undergo hydrolysis.

> <s_lp_Force_Field>
OPLS_2005

> <r_lp_Energy>
31.0156

> <b_lp_Chiralities_Consistent>
1

> <s_lp_Variant>
AV-unprocessed.smi:2557-1

> <Gold.Version>
5.8.1

> <Gold.Id.Protein>
6NUR|6NUR_protein|mol2

> <Gold.PLP.Fitness>
43.3873

> <Gold.PLP.PLP>
-40.5775

> <Gold.PLP.part.hbond>
-2.0000

> <Gold.PLP.part.metal>
0.0000

> <Gold.PLP.part.buried>
-7.4624

> <Gold.PLP.part.nonpolar>
-33.4998

> <Gold.PLP.part.repulsive>
1.5550

> <Gold.PLP.ligand.clash>
0.0000

> <Gold.PLP.ligand.torsion>
1.1676

> <Gold.PLP.Chemscore.Hbond>
1.0000

> <Gold.PLP.Chemscore.CHOScore>
0.0000

> <Gold.PLP.Chemscore.Metal>
0.0000

> <Gold.Chemscore.Hbonds>
donor molecule, donor type, donor heavy atom, donor atom, acceptor molecule, acceptor atom, score
      P1  H  7989  7998       L1     5  1.00

> <Gold.PLP.Chemscore.Internal.Correction>
2.1450

> <Gold.Rescore>
     Score         DG    S(hbond)    S(metal)    S(lipo)     H(rot)  DE(clash)    DE(int)     intcor
     15.90     -17.67       0.98        0.00      98.18       1.00       0.35       1.42       ----

> <Gold.Chemscore.Fitness>
15.8959

> <Gold.Chemscore.DG>
-17.6657

> <Gold.Chemscore.ZeroCoef>
-5.4800

> <Gold.Chemscore.Hbond>
0.9757

> <Gold.Chemscore.Metal>
0.0000

> <Gold.Chemscore.Lipo>
98.1771

> <Gold.Chemscore.Internal_Hbond>
0.0000

> <Gold.Chemscore.DEClash>
0.3468

> <Gold.Chemscore.DEInternal>
1.4229

> <Gold.Chemscore.Rot>
1.0000

> <Gold.Chemscore.Internal.Correction>
   9.000000E+99

> <Gold.Chemscore.Hbonds>
donor molecule, donor type, donor heavy atom, donor atom, acceptor molecule, acceptor atom, score
      P1  H  7989  7998       L1     5  0.92

> <Gold.Chemscore.Hbond.Weighted>
-3.2590

> <Gold.Chemscore.Metal.Weighted>
-0.0000

> <Gold.Chemscore.Lipo.Weighted>
-11.4867

> <Gold.Chemscore.Internal_Hbond.Weighted>
0.0000

> <Gold.Chemscore.DEClash.Weighted>
0.3468

> <Gold.Chemscore.DEInternal.Weighted>
1.4229

> <Gold.Chemscore.Rot.Weighted>
2.5600

> <Gold.Chemscore.Internal.Correction.Weighted>
   9.000000E+99

> <Gold.Protein.RotatedTorsions>
[ 6907 6896 6895 6894 ] final  -77.46 input  -60.11 | X-H torsion
[ 7974 7965 7964 7962 ] final -115.94 input  175.53 | X-H torsion
[ 8008 7997 7996 7995 ] final -118.19 input   59.86 | X-H torsion
[ 10167 10162 10161 10158 ] final  -93.62 input  -65.29 | X-H torsion
[ 10718 10713 10712 10709 ] final -173.97 input   66.30 | X-H torsion
[ 10763 10752 10751 10750 ] final   61.06 input  -60.55 | X-H torsion
[ 11005 11000 10999 10996 ] final -129.78 input  -57.11 | X-H torsion

> <Gold.Protein.ActiveResidues>
 VAL166  LYS551  ARG553  GLY616  TRP617  ASP618  TYR619  PRO620  LYS621  CYS622 
 ASP623  PHE694  ASN695  SER759  ASP760  ASP761  ALA762  ILE779  LEU786  VAL792 
 PHE793  MET794  SER795  GLU796  ALA797  LYS798  CYS799  TRP800  GLU811  SER814 

> <Gold.Protein.RotatedAtoms>
  150.6998  134.4418  159.5295 H   0  0  0  0  0  0  0  0  0  0  0  0  # atno 6907 bound_to 6896
  152.2127  134.8484  160.0504 H   0  0  0  0  0  0  0  0  0  0  0  0  # atno 6908 bound_to 6896
  151.9363  133.3590  159.3986 H   0  0  0  0  0  0  0  0  0  0  0  0  # atno 6909 bound_to 6896
  145.1025  140.8561  143.3917 H   0  0  0  0  0  0  0  0  0  0  0  0  # atno 7974 bound_to 7965
  155.0957  140.0395  157.2682 H   0  0  0  0  0  0  0  0  0  0  0  0  # atno 8008 bound_to 7997
  154.6797  140.2630  155.6896 H   0  0  0  0  0  0  0  0  0  0  0  0  # atno 8009 bound_to 7997
  156.2690  140.2781  156.1337 H   0  0  0  0  0  0  0  0  0  0  0  0  # atno 8010 bound_to 7997
  140.3228  143.3039  152.0028 H   0  0  0  0  0  0  0  0  0  0  0  0  # atno 10167 bound_to 10162
  156.7782  130.9473  151.3120 H   0  0  0  0  0  0  0  0  0  0  0  0  # atno 10718 bound_to 10713
  152.9939  135.5514  154.5973 H   0  0  0  0  0  0  0  0  0  0  0  0  # atno 10763 bound_to 10752
  154.5322  135.2814  155.1172 H   0  0  0  0  0  0  0  0  0  0  0  0  # atno 10764 bound_to 10752
  154.2483  135.6403  153.5284 H   0  0  0  0  0  0  0  0  0  0  0  0  # atno 10765 bound_to 10752
  140.9402  134.1203  157.4157 H   0  0  0  0  0  0  0  0  0  0  0  0  # atno 11005 bound_to 11000
  145.0939  139.2870  143.5721 LP  0  0  0  0  0  0  0  0  0  0  0  0  # atno 17320 bound_to 7965
  146.3529  140.0484  142.8637 LP  0  0  0  0  0  0  0  0  0  0  0  0  # atno 17321 bound_to 7965
  139.4871  144.6298  151.7093 LP  0  0  0  0  0  0  0  0  0  0  0  0  # atno 17342 bound_to 10162
  140.5468  144.0490  150.6110 LP  0  0  0  0  0  0  0  0  0  0  0  0  # atno 17343 bound_to 10162
  157.6659  130.9007  149.9931 LP  0  0  0  0  0  0  0  0  0  0  0  0  # atno 17370 bound_to 10713
  156.1235  130.3645  149.9848 LP  0  0  0  0  0  0  0  0  0  0  0  0  # atno 17371 bound_to 10713
  139.8818  135.0034  156.6185 LP  0  0  0  0  0  0  0  0  0  0  0  0  # atno 17394 bound_to 11000
  140.7744  133.8711  155.8517 LP  0  0  0  0  0  0  0  0  0  0  0  0  # atno 17395 bound_to 11000

$$$$
