AV-unprocessed.smi:2109|AV-procd|sdf|8607|dock5
  -GOLD-   2272011343D 1   1.00000     0.00000
 Structure written by MMmdl.
 46 47  0  0  0  0  0  0  0  0  2 V2000
  152.1273  143.9986  159.0199 C   0  0  0  0  0  0  0  0  0  0  0  0
  152.0055  142.9223  160.1128 C   0  0  0  0  0  0  0  0  0  0  0  0
  152.0689  143.5632  161.5070 C   0  0  0  0  0  0  0  0  0  0  0  0
  153.0666  141.8099  159.9782 C   0  0  0  0  0  0  0  0  0  0  0  0
  152.5105  140.5728  159.4367 N   0  0  0  0  0  0  0  0  0  0  0  0
  153.2146  139.5943  158.8505 C   0  0  0  0  0  0  0  0  0  0  0  0
  154.4348  139.6173  158.6905 O   0  0  0  0  0  0  0  0  0  0  0  0
  152.4291  138.5793  158.4636 N   0  0  0  0  0  0  0  0  0  0  0  0
  152.8870  137.3857  157.7559 C   0  0  0  0  0  0  0  0  0  0  0  0
  151.9882  136.8973  156.6239 C   0  0  0  0  0  0  0  0  0  0  0  0
  151.6287  137.8054  155.6062 C   0  0  0  0  0  0  0  0  0  0  0  0
  150.8026  137.3714  154.5536 C   0  0  0  0  0  0  0  0  0  0  0  0
  150.3677  136.0944  154.5244 N   0  3  0  0  0  0  0  0  0  0  0  0
  150.6797  135.1695  155.4643 C   0  0  0  0  0  0  0  0  0  0  0  0
  150.1695  133.8619  155.3032 N   0  0  0  0  0  0  0  0  0  0  0  0
  149.3173  133.5904  154.1484 C   0  0  0  0  0  0  0  0  0  0  0  0
  148.6114  132.2330  154.3042 C   0  0  0  0  0  0  0  0  0  0  0  0
  149.5773  131.2147  154.5374 O   0  0  0  0  0  0  0  0  0  0  0  0
  150.2951  131.4376  155.7459 C   0  0  0  0  0  0  0  0  0  0  0  0
  151.0691  132.7637  155.6543 C   0  0  0  0  0  0  0  0  0  0  0  0
  151.5081  135.5667  156.5450 C   0  0  0  0  0  0  0  0  0  0  0  0
  153.1124  144.4664  159.0334 H   0  0  0  0  0  0  0  0  0  0  0  0
  151.3848  144.7847  159.1593 H   0  0  0  0  0  0  0  0  0  0  0  0
  151.9697  143.5824  158.0250 H   0  0  0  0  0  0  0  0  0  0  0  0
  151.0216  142.4614  160.0134 H   0  0  0  0  0  0  0  0  0  0  0  0
  153.0295  144.0516  161.6752 H   0  0  0  0  0  0  0  0  0  0  0  0
  151.9329  142.8175  162.2909 H   0  0  0  0  0  0  0  0  0  0  0  0
  151.2876  144.3139  161.6310 H   0  0  0  0  0  0  0  0  0  0  0  0
  153.9088  142.1593  159.3782 H   0  0  0  0  0  0  0  0  0  0  0  0
  153.4761  141.5750  160.9610 H   0  0  0  0  0  0  0  0  0  0  0  0
  151.5107  140.4562  159.5147 H   0  0  0  0  0  0  0  0  0  0  0  0
  151.4379  138.6502  158.6423 H   0  0  0  0  0  0  0  0  0  0  0  0
  153.8692  137.6124  157.3403 H   0  0  0  0  0  0  0  0  0  0  0  0
  153.0399  136.5660  158.4600 H   0  0  0  0  0  0  0  0  0  0  0  0
  151.9815  138.8265  155.6313 H   0  0  0  0  0  0  0  0  0  0  0  0
  150.4813  138.0018  153.7369 H   0  0  0  0  0  0  0  0  0  0  0  0
  148.5599  134.3677  154.0439 H   0  0  0  0  0  0  0  0  0  0  0  0
  149.9247  133.5957  153.2425 H   0  0  0  0  0  0  0  0  0  0  0  0
  147.8903  132.2603  155.1230 H   0  0  0  0  0  0  0  0  0  0  0  0
  148.0542  131.9942  153.3982 H   0  0  0  0  0  0  0  0  0  0  0  0
  149.6087  131.4452  156.5943 H   0  0  0  0  0  0  0  0  0  0  0  0
  150.9872  130.6104  155.9051 H   0  0  0  0  0  0  0  0  0  0  0  0
  151.8471  132.6904  154.8933 H   0  0  0  0  0  0  0  0  0  0  0  0
  151.5685  132.9427  156.6064 H   0  0  0  0  0  0  0  0  0  0  0  0
  151.7738  134.8599  157.3141 H   0  0  0  0  0  0  0  0  0  0  0  0
  149.7753  135.8078  153.7449 H   0  0  0  0  0  0  0  0  0  0  0  0
  1  2  1  0  0  0  0
  1 22  1  0  0  0  0
  1 23  1  0  0  0  0
  1 24  1  0  0  0  0
  2  3  1  0  0  0  0
  2  4  1  0  0  0  0
  2 25  1  0  0  0  0
  3 26  1  0  0  0  0
  3 27  1  0  0  0  0
  3 28  1  0  0  0  0
  4  5  1  0  0  0  0
  4 29  1  0  0  0  0
  4 30  1  0  0  0  0
  5  6  1  0  0  0  0
  5 31  1  0  0  0  0
  6  7  2  0  0  0  0
  6  8  1  0  0  0  0
  8  9  1  0  0  0  0
  8 32  1  0  0  0  0
  9 10  1  0  0  0  0
  9 33  1  0  0  0  0
  9 34  1  0  0  0  0
 10 21  1  0  0  0  0
 10 11  2  0  0  0  0
 11 12  1  0  0  0  0
 11 35  1  0  0  0  0
 12 13  2  0  0  0  0
 12 36  1  0  0  0  0
 13 14  1  0  0  0  0
 13 46  1  0  0  0  0
 14 15  1  0  0  0  0
 14 21  2  0  0  0  0
 15 20  1  0  0  0  0
 15 16  1  0  0  0  0
 16 17  1  0  0  0  0
 16 37  1  0  0  0  0
 16 38  1  0  0  0  0
 17 18  1  0  0  0  0
 17 39  1  0  0  0  0
 17 40  1  0  0  0  0
 18 19  1  0  0  0  0
 19 20  1  0  0  0  0
 19 41  1  0  0  0  0
 19 42  1  0  0  0  0
 20 43  1  0  0  0  0
 20 44  1  0  0  0  0
 21 45  1  0  0  0  0
M  CHG  1  13   1
M  END
> <s_m_source_file>
AV-unprocessed.smi

> <i_m_source_file_index>
2109

> <i_lp_mmshare_version>
43012

> <i_f3d_flags>
0

> <s_epik_input>
W0NIM11bQ0hdKFtDSDNdKVtDSDJdW05IXUMoPU8pW05IXVtDSDJdYzFbY0hdW2NIXW5jKFtjSF0xKU4yW0NIMl1bQ0gyXU9bQ0gyXVtDSDJdMg==

> <s_epik_cmdline>
J2VwaWtfcHl0aG9uJywgJy1waCcsICc3LjAnLCAnLXRuJywgJzgnLCAnLW1hJywgJzIwMCcsICctbWV0YWxfYmluZGluZycsICctaW1hZScsICc8aW5maWxlLm1hZT4nLCAnLW9tYWUnLCAnPG91dGZpbGUubWFlPic=

> <r_lp_tautomer_probability>
0.999994

> <r_epik_Ionization_Penalty>
2.29114

> <r_epik_Ionization_Penalty_Charging>
2.2911

> <r_epik_Ionization_Penalty_Neutral>
4.11828e-05

> <r_epik_State_Penalty>
2.44112

> <r_epik_Charging_Adjusted_Penalty>
4.73222

> <i_epik_Tot_Q>
1

> <i_epik_Tot_abs_Q>
1

> <r_epik_Metal_State_Penalty>
2.45346

> <b_epik_Metal_Only>
0

> <s_lp_Force_Field>
OPLS_2005

> <r_lp_Energy>
19.1618

> <b_lp_Chiralities_Consistent>
1

> <s_lp_Variant>
AV-unprocessed.smi:2109-2

> <Gold.Version>
5.8.1

> <Gold.Id.Protein>
6NUR|6NUR_protein|mol2

> <Gold.PLP.Fitness>
44.3402

> <Gold.PLP.PLP>
-37.6901

> <Gold.PLP.part.hbond>
-2.7978

> <Gold.PLP.part.metal>
0.0000

> <Gold.PLP.part.buried>
-4.8489

> <Gold.PLP.part.nonpolar>
-30.9179

> <Gold.PLP.part.repulsive>
0.4097

> <Gold.PLP.ligand.clash>
0.3129

> <Gold.PLP.ligand.torsion>
1.2671

> <Gold.PLP.Chemscore.Hbond>
3.0000

> <Gold.PLP.Chemscore.CHOScore>
0.0000

> <Gold.PLP.Chemscore.Metal>
0.0000

> <Gold.Chemscore.Hbonds>
donor molecule, donor type, donor heavy atom, donor atom, acceptor molecule, acceptor atom, score
      L1  H    13    46       P1  7948  1.54
      P1  H  7997  8009       L1     7  1.00

> <Gold.PLP.Chemscore.Internal.Correction>
0.4972

> <Gold.Rescore>
     Score         DG    S(hbond)    S(metal)    S(lipo)     H(rot)  DE(clash)    DE(int)     intcor
     16.30     -17.45       1.79        0.00      91.10       1.82       0.02       1.14       ----

> <Gold.Chemscore.Fitness>
16.2954

> <Gold.Chemscore.DG>
-17.4503

> <Gold.Chemscore.ZeroCoef>
-5.4800

> <Gold.Chemscore.Hbond>
1.7862

> <Gold.Chemscore.Metal>
0.0000

> <Gold.Chemscore.Lipo>
91.0985

> <Gold.Chemscore.Internal_Hbond>
0.0000

> <Gold.Chemscore.DEClash>
0.0180

> <Gold.Chemscore.DEInternal>
1.1370

> <Gold.Chemscore.Rot>
1.8180

> <Gold.Chemscore.Internal.Correction>
   9.000000E+99

> <Gold.Chemscore.Hbonds>
donor molecule, donor type, donor heavy atom, donor atom, acceptor molecule, acceptor atom, score
      L1  H    13    46       P1  7948  0.12
      P1  H  7997  8009       L1     7  0.95

> <Gold.Chemscore.Hbond.Weighted>
-5.9659

> <Gold.Chemscore.Metal.Weighted>
-0.0000

> <Gold.Chemscore.Lipo.Weighted>
-10.6585

> <Gold.Chemscore.Internal_Hbond.Weighted>
0.0000

> <Gold.Chemscore.DEClash.Weighted>
0.0180

> <Gold.Chemscore.DEInternal.Weighted>
1.1370

> <Gold.Chemscore.Rot.Weighted>
4.6541

> <Gold.Chemscore.Internal.Correction.Weighted>
   9.000000E+99

> <Gold.Protein.RotatedTorsions>
[ 6907 6896 6895 6894 ] final   53.97 input  -60.11 | X-H torsion
[ 7974 7965 7964 7962 ] final  -33.43 input  175.53 | X-H torsion
[ 8008 7997 7996 7995 ] final  120.72 input   59.86 | X-H torsion
[ 10167 10162 10161 10158 ] final   33.23 input  -65.29 | X-H torsion
[ 10718 10713 10712 10709 ] final   56.44 input   66.30 | X-H torsion
[ 10763 10752 10751 10750 ] final  145.75 input  -60.55 | X-H torsion
[ 11005 11000 10999 10996 ] final   10.33 input  -57.11 | X-H torsion

> <Gold.Protein.ActiveResidues>
 VAL166  LYS551  ARG553  GLY616  TRP617  ASP618  TYR619  PRO620  LYS621  CYS622 
 ASP623  PHE694  ASN695  SER759  ASP760  ASP761  ALA762  ILE779  LEU786  VAL792 
 PHE793  MET794  SER795  GLU796  ALA797  LYS798  CYS799  TRP800  GLU811  SER814 

> <Gold.Protein.RotatedAtoms>
  152.3391  134.7158  160.0268 H   0  0  0  0  0  0  0  0  0  0  0  0  # atno 6907 bound_to 6896
  151.7549  133.3324  159.3410 H   0  0  0  0  0  0  0  0  0  0  0  0  # atno 6908 bound_to 6896
  150.7469  134.6091  159.6121 H   0  0  0  0  0  0  0  0  0  0  0  0  # atno 6909 bound_to 6896
  146.0911  140.5915  142.8864 H   0  0  0  0  0  0  0  0  0  0  0  0  # atno 7974 bound_to 7965
  156.2655  140.2824  156.1194 H   0  0  0  0  0  0  0  0  0  0  0  0  # atno 8008 bound_to 7997
  155.1172  140.0391  157.2757 H   0  0  0  0  0  0  0  0  0  0  0  0  # atno 8009 bound_to 7997
  154.6698  140.2585  155.7025 H   0  0  0  0  0  0  0  0  0  0  0  0  # atno 8010 bound_to 7997
  140.4426  144.1165  150.6176 H   0  0  0  0  0  0  0  0  0  0  0  0  # atno 10167 bound_to 10162
  157.5431  130.8711  149.8851 H   0  0  0  0  0  0  0  0  0  0  0  0  # atno 10718 bound_to 10713
  154.0105  135.2915  155.3393 H   0  0  0  0  0  0  0  0  0  0  0  0  # atno 10763 bound_to 10752
  154.7106  135.5151  153.8664 H   0  0  0  0  0  0  0  0  0  0  0  0  # atno 10764 bound_to 10752
  153.0725  135.6652  154.0337 H   0  0  0  0  0  0  0  0  0  0  0  0  # atno 10765 bound_to 10752
  140.5157  134.0609  155.7830 H   0  0  0  0  0  0  0  0  0  0  0  0  # atno 11005 bound_to 11000
  144.7361  140.4812  143.6903 LP  0  0  0  0  0  0  0  0  0  0  0  0  # atno 17320 bound_to 7965
  145.6036  139.1506  143.3115 LP  0  0  0  0  0  0  0  0  0  0  0  0  # atno 17321 bound_to 7965
  140.4301  143.2572  151.9606 LP  0  0  0  0  0  0  0  0  0  0  0  0  # atno 17342 bound_to 10162
  139.4790  144.5752  151.8024 LP  0  0  0  0  0  0  0  0  0  0  0  0  # atno 17343 bound_to 10162
  156.0513  130.3717  150.1195 LP  0  0  0  0  0  0  0  0  0  0  0  0  # atno 17370 bound_to 10713
  156.9373  130.9733  151.3522 LP  0  0  0  0  0  0  0  0  0  0  0  0  # atno 17371 bound_to 10713
  141.1362  133.9218  157.2429 LP  0  0  0  0  0  0  0  0  0  0  0  0  # atno 17394 bound_to 11000
  139.9634  135.0148  156.9322 LP  0  0  0  0  0  0  0  0  0  0  0  0  # atno 17395 bound_to 11000

$$$$
