AV-unprocessed.smi:107|AV-procd|sdf|1018|dock8
  -GOLD-   2262018 23D 1   1.00000     0.00000
 Structure written by MMmdl.
 31 32  0  0  0  0  0  0  0  0  1 V2000
  149.3714  141.6823  154.6469 C   0  0  0  0  0  0  0  0  0  0  0  0
  150.3548  141.2754  155.7317 C   0  0  0  0  0  0  0  0  0  0  0  0
  150.4592  141.9457  156.9076 C   0  0  0  0  0  0  0  0  0  0  0  0
  151.3464  141.5991  157.9171 N   0  0  0  0  0  0  0  0  0  0  0  0
  151.4145  142.3910  159.2033 C   0  0  1  0  0  0  0  0  0  0  0  0
  152.3818  143.5677  159.0676 C   0  0  0  0  0  0  0  0  0  0  0  0
  151.6523  144.6431  159.8449 C   0  0  1  0  0  0  0  0  0  0  0  0
  152.0454  145.9311  159.4174 O   0  0  0  0  0  0  0  0  0  0  0  0
  150.1890  144.3378  159.5158 C   0  0  2  0  0  0  0  0  0  0  0  0
  149.2017  144.8652  160.5678 C   0  0  0  0  0  0  0  0  0  0  0  0
  149.5254  144.3437  161.8390 O   0  0  0  0  0  0  0  0  0  0  0  0
  150.1481  142.9111  159.4865 O   0  0  0  0  0  0  0  0  0  0  0  0
  152.2120  140.5014  157.7288 C   0  0  0  0  0  0  0  0  0  0  0  0
  153.0421  140.1483  158.5655 O   0  0  0  0  0  0  0  0  0  0  0  0
  152.1033  139.8106  156.5229 N   0  0  0  0  0  0  0  0  0  0  0  0
  151.2196  140.1181  155.4856 C   0  0  0  0  0  0  0  0  0  0  0  0
  151.2184  139.4313  154.4654 O   0  0  0  0  0  0  0  0  0  0  0  0
  152.7187  139.0221  156.3855 H   0  0  0  0  0  0  0  0  0  0  0  0
  148.7706  142.5414  154.9468 H   0  0  0  0  0  0  0  0  0  0  0  0
  148.6899  140.8612  154.4222 H   0  0  0  0  0  0  0  0  0  0  0  0
  149.9020  141.9481  153.7319 H   0  0  0  0  0  0  0  0  0  0  0  0
  149.8159  142.7988  157.0606 H   0  0  0  0  0  0  0  0  0  0  0  0
  151.6742  141.7070  160.0125 H   0  0  0  0  0  0  0  0  0  0  0  0
  153.3666  143.3212  159.4656 H   0  0  0  0  0  0  0  0  0  0  0  0
  152.4803  143.8459  158.0166 H   0  0  0  0  0  0  0  0  0  0  0  0
  151.8414  144.5257  160.9132 H   0  0  0  0  0  0  0  0  0  0  0  0
  151.3110  146.3432  158.9882 H   0  0  0  0  0  0  0  0  0  0  0  0
  149.9509  144.7269  158.5238 H   0  0  0  0  0  0  0  0  0  0  0  0
  149.1933  145.9553  160.5934 H   0  0  0  0  0  0  0  0  0  0  0  0
  148.1890  144.5383  160.3295 H   0  0  0  0  0  0  0  0  0  0  0  0
  149.7712  145.0603  162.4039 H   0  0  0  0  0  0  0  0  0  0  0  0
  1  2  1  0  0  0  0
  1 19  1  0  0  0  0
  1 20  1  0  0  0  0
  1 21  1  0  0  0  0
  2 16  1  0  0  0  0
  2  3  2  0  0  0  0
  3  4  1  0  0  0  0
  3 22  1  0  0  0  0
  4  5  1  0  0  0  0
  4 13  1  0  0  0  0
  5 12  1  0  0  0  0
  5  6  1  0  0  0  0
  5 23  1  0  0  0  0
  6  7  1  0  0  0  0
  6 24  1  0  0  0  0
  6 25  1  0  0  0  0
  7  8  1  0  0  0  0
  7  9  1  0  0  0  0
  7 26  1  0  0  0  0
  8 27  1  0  0  0  0
  9 10  1  0  0  0  0
  9 12  1  0  0  0  0
  9 28  1  0  0  0  0
 10 11  1  0  0  0  0
 10 29  1  0  0  0  0
 10 30  1  0  0  0  0
 11 31  1  0  0  0  0
 13 14  2  0  0  0  0
 13 15  1  0  0  0  0
 15 18  1  0  0  0  0
 15 16  1  0  0  0  0
 16 17  2  0  0  0  0
M  END
> <s_m_source_file>
AV-unprocessed.smi

> <i_m_source_file_index>
107

> <i_lp_mmshare_version>
43012

> <i_f3d_flags>
0

> <s_epik_input>
Tz1jMVtuSF1jKD1PKW4oW2NIXWMxW0NIM10pW0NAQEhdMltDSDJdW0NAQEhdKFtPSF0pW0NASF0oTzIpW0NIMl1bT0hd

> <s_epik_cmdline>
J2VwaWtfcHl0aG9uJywgJy1waCcsICc3LjAnLCAnLXRuJywgJzgnLCAnLW1hJywgJzIwMCcsICctbWV0YWxfYmluZGluZycsICctaW1hZScsICc8aW5maWxlLm1hZT4nLCAnLW9tYWUnLCAnPG91dGZpbGUubWFlPic=

> <r_lp_tautomer_probability>
0.999537

> <r_epik_Ionization_Penalty>
0.00121888

> <r_epik_Ionization_Penalty_Charging>
0.00121876

> <r_epik_Ionization_Penalty_Neutral>
1.19946e-07

> <r_epik_State_Penalty>
0.000805124

> <r_epik_Charging_Adjusted_Penalty>
0.00202389

> <i_epik_Tot_Q>
0

> <i_epik_Tot_abs_Q>
0

> <r_epik_Metal_State_Penalty>
0.662472

> <b_epik_Metal_Only>
0

> <s_epik_Chemistry_Notes>
This compound contains an acetal/aminal-like group ( X-CH(R)-Y where X, Y are N, S, or O) that may be acid/base labile, releasing an aldehyde.

> <s_lp_Force_Field>
OPLS_2005

> <r_lp_Energy>
25.0544

> <b_lp_Chiralities_Consistent>
1

> <s_lp_Variant>
AV-unprocessed.smi:107-6

> <Gold.Version>
5.8.1

> <Gold.Id.Protein>
6NUR|6NUR_protein|mol2

> <Gold.PLP.Fitness>
42.9336

> <Gold.PLP.PLP>
-37.3093

> <Gold.PLP.part.hbond>
-7.0000

> <Gold.PLP.part.metal>
0.0000

> <Gold.PLP.part.buried>
-3.0055

> <Gold.PLP.part.nonpolar>
-26.3405

> <Gold.PLP.part.repulsive>
0.3428

> <Gold.PLP.ligand.clash>
0.0000

> <Gold.PLP.ligand.torsion>
0.7478

> <Gold.PLP.Chemscore.Hbond>
1.3701

> <Gold.PLP.Chemscore.CHOScore>
1.0000

> <Gold.PLP.Chemscore.Metal>
0.0000

> <Gold.Chemscore.Hbonds>
donor molecule, donor type, donor heavy atom, donor atom, acceptor molecule, acceptor atom, score
      P1  H  6933  6944       L1    11  0.10
      P1  H  7989  7998       L1    17  0.55
      P1  H  7997  8009       L1    14  0.41
      L1  C     3    22       P1  8028  0.95

> <Gold.PLP.Chemscore.Internal.Correction>
0.0096

> <Gold.Rescore>
     Score         DG    S(hbond)    S(metal)    S(lipo)     H(rot)  DE(clash)    DE(int)     intcor
      5.42      -7.46       0.62        0.00      58.71       2.73       1.36       0.67       ----

> <Gold.Chemscore.Fitness>
5.4195

> <Gold.Chemscore.DG>
-7.4574

> <Gold.Chemscore.ZeroCoef>
-5.4800

> <Gold.Chemscore.Hbond>
0.6242

> <Gold.Chemscore.Metal>
0.0000

> <Gold.Chemscore.Lipo>
58.7121

> <Gold.Chemscore.Internal_Hbond>
0.0000

> <Gold.Chemscore.DEClash>
1.3650

> <Gold.Chemscore.DEInternal>
0.6729

> <Gold.Chemscore.Rot>
2.7253

> <Gold.Chemscore.Internal.Correction>
   9.000000E+99

> <Gold.Chemscore.Hbonds>
donor molecule, donor type, donor heavy atom, donor atom, acceptor molecule, acceptor atom, score
      P1  H  6933  6944       L1    11  0.01
      P1  H  7989  7998       L1    17  0.03
      P1  H  7997  8009       L1    14  0.03

> <Gold.Chemscore.Hbond.Weighted>
-2.0849

> <Gold.Chemscore.Metal.Weighted>
-0.0000

> <Gold.Chemscore.Lipo.Weighted>
-6.8693

> <Gold.Chemscore.Internal_Hbond.Weighted>
0.0000

> <Gold.Chemscore.DEClash.Weighted>
1.3650

> <Gold.Chemscore.DEInternal.Weighted>
0.6729

> <Gold.Chemscore.Rot.Weighted>
6.9769

> <Gold.Chemscore.Internal.Correction.Weighted>
   9.000000E+99

> <Gold.Protein.RotatedTorsions>
[ 6907 6896 6895 6894 ] final   89.26 input  -60.11 | X-H torsion
[ 7974 7965 7964 7962 ] final   29.29 input  175.53 | X-H torsion
[ 8008 7997 7996 7995 ] final  150.40 input   59.86 | X-H torsion
[ 10167 10162 10161 10158 ] final  100.56 input  -65.29 | X-H torsion
[ 10718 10713 10712 10709 ] final -175.51 input   66.30 | X-H torsion
[ 10763 10752 10751 10750 ] final -158.95 input  -60.55 | X-H torsion
[ 11005 11000 10999 10996 ] final -178.83 input  -57.11 | X-H torsion

> <Gold.Protein.ActiveResidues>
 VAL166  LYS551  ARG553  GLY616  TRP617  ASP618  TYR619  PRO620  LYS621  CYS622 
 ASP623  PHE694  ASN695  SER759  ASP760  ASP761  ALA762  ILE779  LEU786  VAL792 
 PHE793  MET794  SER795  GLU796  ALA797  LYS798  CYS799  TRP800  GLU811  SER814 

> <Gold.Protein.RotatedAtoms>
  152.5434  134.1993  159.8705 H   0  0  0  0  0  0  0  0  0  0  0  0  # atno 6907 bound_to 6896
  151.1983  133.4619  159.2603 H   0  0  0  0  0  0  0  0  0  0  0  0  # atno 6908 bound_to 6896
  151.1014  134.9987  159.8506 H   0  0  0  0  0  0  0  0  0  0  0  0  # atno 6909 bound_to 6896
  146.1680  139.6942  142.8987 H   0  0  0  0  0  0  0  0  0  0  0  0  # atno 7974 bound_to 7965
  156.2717  140.2076  156.6011 H   0  0  0  0  0  0  0  0  0  0  0  0  # atno 8008 bound_to 7997
  154.6906  140.0530  157.0383 H   0  0  0  0  0  0  0  0  0  0  0  0  # atno 8009 bound_to 7997
  155.0872  140.3192  155.4587 H   0  0  0  0  0  0  0  0  0  0  0  0  # atno 8010 bound_to 7997
  139.7516  144.6982  151.0424 H   0  0  0  0  0  0  0  0  0  0  0  0  # atno 10167 bound_to 10162
  156.8010  130.9552  151.3118 H   0  0  0  0  0  0  0  0  0  0  0  0  # atno 10718 bound_to 10713
  154.7515  135.3093  154.8549 H   0  0  0  0  0  0  0  0  0  0  0  0  # atno 10763 bound_to 10752
  153.9334  135.6782  153.4749 H   0  0  0  0  0  0  0  0  0  0  0  0  # atno 10764 bound_to 10752
  153.1111  135.4866  154.8965 H   0  0  0  0  0  0  0  0  0  0  0  0  # atno 10765 bound_to 10752
  140.4253  134.6568  157.4685 H   0  0  0  0  0  0  0  0  0  0  0  0  # atno 11005 bound_to 11000
  145.4416  141.0423  143.2854 LP  0  0  0  0  0  0  0  0  0  0  0  0  # atno 17320 bound_to 7965
  144.8121  139.5943  143.7025 LP  0  0  0  0  0  0  0  0  0  0  0  0  # atno 17321 bound_to 7965
  140.7798  143.4802  151.0028 LP  0  0  0  0  0  0  0  0  0  0  0  0  # atno 17342 bound_to 10162
  139.8490  143.7463  152.3178 LP  0  0  0  0  0  0  0  0  0  0  0  0  # atno 17343 bound_to 10162
  157.6554  130.8920  149.9717 LP  0  0  0  0  0  0  0  0  0  0  0  0  # atno 17370 bound_to 10713
  156.1101  130.3650  150.0064 LP  0  0  0  0  0  0  0  0  0  0  0  0  # atno 17371 bound_to 10713
  140.0171  134.6602  155.9293 LP  0  0  0  0  0  0  0  0  0  0  0  0  # atno 17394 bound_to 11000
  141.1767  133.6541  156.4858 LP  0  0  0  0  0  0  0  0  0  0  0  0  # atno 17395 bound_to 11000

$$$$
