AV-unprocessed.smi:1062|AV-procd|sdf|4661|dock5
  -GOLD-   22720 3173D 1   1.00000     0.00000
 Structure written by MMmdl.
 38 40  0  0  0  0  0  0  0  0  1 V2000
  148.8786  141.0185  154.5485 C   0  0  0  0  0  0  0  0  0  0  0  0
  149.9422  139.9142  154.6661 C   0  0  0  0  0  0  0  0  0  0  0  0
  150.1759  139.5158  156.0632 N   0  0  0  0  0  0  0  0  0  0  0  0
  150.5347  140.4389  156.9912 C   0  0  0  0  0  0  0  0  0  0  0  0
  150.5264  140.1852  158.1981 O   0  0  0  0  0  0  0  0  0  0  0  0
  150.9826  141.8398  156.5265 C   0  0  0  0  0  0  0  0  0  0  0  0
  151.3814  142.7107  157.6849 C   0  0  0  0  0  0  0  0  0  0  0  0
  151.1295  144.0529  157.8331 C   0  0  0  0  0  0  0  0  0  0  0  0
  151.7632  144.6749  159.3321 S   0  0  0  0  0  0  0  0  0  0  0  0
  152.3670  143.0584  159.7083 C   0  0  0  0  0  0  0  0  0  0  0  0
  153.0795  142.6722  160.8822 N   0  0  0  0  0  0  0  0  0  0  0  0
  152.9304  143.3949  162.1416 C   0  0  0  0  0  0  0  0  0  0  0  0
  153.8583  142.6554  163.1002 C   0  0  0  0  0  0  0  0  0  0  0  0
  154.4019  141.6176  162.2562 N   0  0  0  0  0  0  0  0  0  0  0  0
  153.9477  141.6483  161.0013 C   0  0  0  0  0  0  0  0  0  0  0  0
  154.2897  140.8540  160.1273 O   0  0  0  0  0  0  0  0  0  0  0  0
  152.0928  142.1602  158.7564 N   0  0  0  0  0  0  0  0  0  0  0  0
  149.7727  138.1692  156.3717 C   0  0  0  0  0  0  0  0  0  0  0  0
  150.7311  137.2274  157.0780 C   0  0  0  0  0  0  0  0  0  0  0  0
  150.4026  137.0087  155.6257 C   0  0  0  0  0  0  0  0  0  0  0  0
  148.6923  141.2640  153.5029 H   0  0  0  0  0  0  0  0  0  0  0  0
  149.1893  141.9354  155.0496 H   0  0  0  0  0  0  0  0  0  0  0  0
  147.9322  140.7009  154.9871 H   0  0  0  0  0  0  0  0  0  0  0  0
  149.6223  139.0606  154.0684 H   0  0  0  0  0  0  0  0  0  0  0  0
  150.8767  140.2478  154.2121 H   0  0  0  0  0  0  0  0  0  0  0  0
  151.8212  141.7628  155.8342 H   0  0  0  0  0  0  0  0  0  0  0  0
  150.1626  142.3011  155.9759 H   0  0  0  0  0  0  0  0  0  0  0  0
  150.6050  144.7099  157.1554 H   0  0  0  0  0  0  0  0  0  0  0  0
  153.2268  144.4382  162.0247 H   0  0  0  0  0  0  0  0  0  0  0  0
  151.8952  143.3628  162.4846 H   0  0  0  0  0  0  0  0  0  0  0  0
  154.6537  143.2979  163.4791 H   0  0  0  0  0  0  0  0  0  0  0  0
  153.3178  142.2225  163.9429 H   0  0  0  0  0  0  0  0  0  0  0  0
  155.0672  140.9379  162.5955 H   0  0  0  0  0  0  0  0  0  0  0  0
  148.7205  138.0498  156.6240 H   0  0  0  0  0  0  0  0  0  0  0  0
  151.7358  137.5791  157.3043 H   0  0  0  0  0  0  0  0  0  0  0  0
  150.3084  136.5321  157.8002 H   0  0  0  0  0  0  0  0  0  0  0  0
  149.7615  136.1655  155.3769 H   0  0  0  0  0  0  0  0  0  0  0  0
  151.1899  137.2224  154.9051 H   0  0  0  0  0  0  0  0  0  0  0  0
  1  2  1  0  0  0  0
  1 21  1  0  0  0  0
  1 22  1  0  0  0  0
  1 23  1  0  0  0  0
  2  3  1  0  0  0  0
  2 24  1  0  0  0  0
  2 25  1  0  0  0  0
  3  4  1  0  0  0  0
  3 18  1  0  0  0  0
  4  5  2  0  0  0  0
  4  6  1  0  0  0  0
  6  7  1  0  0  0  0
  6 26  1  0  0  0  0
  6 27  1  0  0  0  0
  7 17  1  0  0  0  0
  7  8  2  0  0  0  0
  8  9  1  0  0  0  0
  8 28  1  0  0  0  0
  9 10  1  0  0  0  0
 10 11  1  0  0  0  0
 10 17  2  0  0  0  0
 11 15  1  0  0  0  0
 11 12  1  0  0  0  0
 12 13  1  0  0  0  0
 12 29  1  0  0  0  0
 12 30  1  0  0  0  0
 13 14  1  0  0  0  0
 13 31  1  0  0  0  0
 13 32  1  0  0  0  0
 14 15  1  0  0  0  0
 14 33  1  0  0  0  0
 15 16  2  0  0  0  0
 18 20  1  0  0  0  0
 18 19  1  0  0  0  0
 18 34  1  0  0  0  0
 19 20  1  0  0  0  0
 19 35  1  0  0  0  0
 19 36  1  0  0  0  0
 20 37  1  0  0  0  0
 20 38  1  0  0  0  0
M  END
> <s_m_source_file>
AV-unprocessed.smi

> <i_m_source_file_index>
1062

> <i_lp_mmshare_version>
43012

> <i_f3d_flags>
0

> <s_epik_input>
W0NIMl0xW0NIMl1bQ0hdMU4oW0NIMl1bQ0gzXSlDKD1PKVtDSDJdYzJbY0hdc2MobjIpTjNbQ0gyXVtDSDJdW05IXUMzPU8=

> <s_epik_cmdline>
J2VwaWtfcHl0aG9uJywgJy1waCcsICc3LjAnLCAnLXRuJywgJzgnLCAnLW1hJywgJzIwMCcsICctbWV0YWxfYmluZGluZycsICctaW1hZScsICc8aW5maWxlLm1hZT4nLCAnLW9tYWUnLCAnPG91dGZpbGUubWFlPic=

> <r_lp_tautomer_probability>
1

> <r_epik_Ionization_Penalty>
0.000125669

> <r_epik_Ionization_Penalty_Charging>
0

> <r_epik_Ionization_Penalty_Neutral>
0.000125669

> <r_epik_State_Penalty>
-0

> <r_epik_Charging_Adjusted_Penalty>
0

> <i_epik_Tot_Q>
0

> <i_epik_Tot_abs_Q>
0

> <r_epik_Metal_State_Penalty>
-0

> <b_epik_Metal_Only>
0

> <s_lp_Force_Field>
OPLS_2005

> <r_lp_Energy>
60.5217

> <b_lp_Chiralities_Consistent>
1

> <s_lp_Variant>
AV-unprocessed.smi:1062-1

> <Gold.Version>
5.8.1

> <Gold.Id.Protein>
6NUR|6NUR_protein|mol2

> <Gold.PLP.Fitness>
45.8712

> <Gold.PLP.PLP>
-44.0111

> <Gold.PLP.part.hbond>
-1.0000

> <Gold.PLP.part.metal>
0.0000

> <Gold.PLP.part.buried>
-4.1186

> <Gold.PLP.part.nonpolar>
-38.2053

> <Gold.PLP.part.repulsive>
0.0000

> <Gold.PLP.ligand.clash>
0.0000

> <Gold.PLP.ligand.torsion>
0.7472

> <Gold.PLP.Chemscore.Hbond>
0.0000

> <Gold.PLP.Chemscore.CHOScore>
1.0000

> <Gold.PLP.Chemscore.Metal>
0.0000

> <Gold.Chemscore.Hbonds>
donor molecule, donor type, donor heavy atom, donor atom, acceptor molecule, acceptor atom, score
      L1  C     8    28       P1  8028  1.00

> <Gold.PLP.Chemscore.Internal.Correction>
0.3545

> <Gold.Rescore>
     Score         DG    S(hbond)    S(metal)    S(lipo)     H(rot)  DE(clash)    DE(int)     intcor
      8.04     -11.80       0.00        0.00      90.03       1.65       0.04       3.72       ----

> <Gold.Chemscore.Fitness>
8.0381

> <Gold.Chemscore.DG>
-11.7950

> <Gold.Chemscore.ZeroCoef>
-5.4800

> <Gold.Chemscore.Hbond>
0.0000

> <Gold.Chemscore.Metal>
0.0000

> <Gold.Chemscore.Lipo>
90.0269

> <Gold.Chemscore.Internal_Hbond>
0.0000

> <Gold.Chemscore.DEClash>
0.0365

> <Gold.Chemscore.DEInternal>
3.7204

> <Gold.Chemscore.Rot>
1.6477

> <Gold.Chemscore.Internal.Correction>
   9.000000E+99

> <Gold.Chemscore.Hbond.Weighted>
-0.0000

> <Gold.Chemscore.Metal.Weighted>
-0.0000

> <Gold.Chemscore.Lipo.Weighted>
-10.5331

> <Gold.Chemscore.Internal_Hbond.Weighted>
0.0000

> <Gold.Chemscore.DEClash.Weighted>
0.0365

> <Gold.Chemscore.DEInternal.Weighted>
3.7204

> <Gold.Chemscore.Rot.Weighted>
4.2181

> <Gold.Chemscore.Internal.Correction.Weighted>
   9.000000E+99

> <Gold.Protein.RotatedTorsions>
[ 6907 6896 6895 6894 ] final   -4.54 input  -60.11 | X-H torsion
[ 7974 7965 7964 7962 ] final  158.67 input  175.53 | X-H torsion
[ 8008 7997 7996 7995 ] final  132.62 input   59.86 | X-H torsion
[ 10167 10162 10161 10158 ] final   56.88 input  -65.29 | X-H torsion
[ 10718 10713 10712 10709 ] final   99.68 input   66.30 | X-H torsion
[ 10763 10752 10751 10750 ] final   99.93 input  -60.55 | X-H torsion
[ 11005 11000 10999 10996 ] final  -35.51 input  -57.11 | X-H torsion

> <Gold.Protein.ActiveResidues>
 VAL166  LYS551  ARG553  GLY616  TRP617  ASP618  TYR619  PRO620  LYS621  CYS622 
 ASP623  PHE694  ASN695  SER759  ASP760  ASP761  ALA762  ILE779  LEU786  VAL792 
 PHE793  MET794  SER795  GLU796  ALA797  LYS798  CYS799  TRP800  GLU811  SER814 

> <Gold.Protein.RotatedAtoms>
  151.4961  135.1060  159.9816 H   0  0  0  0  0  0  0  0  0  0  0  0  # atno 6907 bound_to 6896
  152.4721  133.8049  159.6983 H   0  0  0  0  0  0  0  0  0  0  0  0  # atno 6908 bound_to 6896
  150.8736  133.7407  159.2979 H   0  0  0  0  0  0  0  0  0  0  0  0  # atno 6909 bound_to 6896
  144.7833  139.7510  143.6251 H   0  0  0  0  0  0  0  0  0  0  0  0  # atno 7974 bound_to 7965
  156.2984  140.2542  156.3118 H   0  0  0  0  0  0  0  0  0  0  0  0  # atno 8008 bound_to 7997
  154.9319  140.0398  157.2071 H   0  0  0  0  0  0  0  0  0  0  0  0  # atno 8009 bound_to 7997
  154.8210  140.2860  155.5791 H   0  0  0  0  0  0  0  0  0  0  0  0  # atno 8010 bound_to 7997
  140.2040  144.3958  150.6517 H   0  0  0  0  0  0  0  0  0  0  0  0  # atno 10167 bound_to 10162
  157.6871  131.0676  150.4985 H   0  0  0  0  0  0  0  0  0  0  0  0  # atno 10718 bound_to 10713
  153.3076  135.4096  155.1308 H   0  0  0  0  0  0  0  0  0  0  0  0  # atno 10763 bound_to 10752
  154.8567  135.3556  154.5767 H   0  0  0  0  0  0  0  0  0  0  0  0  # atno 10764 bound_to 10752
  153.6194  135.7065  153.5375 H   0  0  0  0  0  0  0  0  0  0  0  0  # atno 10765 bound_to 10752
  140.9802  133.7060  156.1671 H   0  0  0  0  0  0  0  0  0  0  0  0  # atno 11005 bound_to 11000
  146.2052  139.5372  142.9717 LP  0  0  0  0  0  0  0  0  0  0  0  0  # atno 17320 bound_to 7965
  145.5991  141.0358  143.2028 LP  0  0  0  0  0  0  0  0  0  0  0  0  # atno 17321 bound_to 7965
  140.6370  143.2196  151.6372 LP  0  0  0  0  0  0  0  0  0  0  0  0  # atno 17342 bound_to 10162
  139.5206  144.3218  152.0903 LP  0  0  0  0  0  0  0  0  0  0  0  0  # atno 17343 bound_to 10162
  156.5307  130.4184  149.6203 LP  0  0  0  0  0  0  0  0  0  0  0  0  # atno 17370 bound_to 10713
  156.3071  130.7209  151.2093 LP  0  0  0  0  0  0  0  0  0  0  0  0  # atno 17371 bound_to 10713
  140.7198  134.4371  157.5575 LP  0  0  0  0  0  0  0  0  0  0  0  0  # atno 17394 bound_to 11000
  139.8947  134.8700  156.2165 LP  0  0  0  0  0  0  0  0  0  0  0  0  # atno 17395 bound_to 11000

$$$$
