AV-unprocessed.smi:35|AV-procd|sdf|267|dock3
  -GOLD-   2262016 33D 1   1.00000     0.00000
 Structure written by MMmdl.
 28 29  0  0  0  0  0  0  0  0  2 V2000
  150.8371  134.9875  157.8501 O   0  0  0  0  0  0  0  0  0  0  0  0
  150.9379  136.0881  157.3110 C   0  0  0  0  0  0  0  0  0  0  0  0
  151.6506  136.2894  156.1656 N   0  5  0  0  0  0  0  0  0  0  0  0
  151.7497  137.5112  155.5644 C   0  0  0  0  0  0  0  0  0  0  0  0
  152.4105  137.7051  154.5435 O   0  0  0  0  0  0  0  0  0  0  0  0
  151.0641  138.6209  156.1343 N   0  0  0  0  0  0  0  0  0  0  0  0
  151.1943  139.9788  155.4641 C   0  0  2  0  0  0  0  0  0  0  0  0
  151.7014  140.9130  156.3701 O   0  0  0  0  0  0  0  0  0  0  0  0
  150.6261  141.6112  156.9853 C   0  0  1  0  0  0  0  0  0  0  0  0
  151.1346  142.9287  157.5894 C   0  0  0  0  0  0  0  0  0  0  0  0
  150.0433  143.7423  157.9644 O   0  0  0  0  0  0  0  0  0  0  0  0
  149.6629  141.8042  155.8131 C   0  0  2  0  0  0  0  0  0  0  0  0
  148.3368  141.9456  156.2824 O   0  0  0  0  0  0  0  0  0  0  0  0
  149.8176  140.5143  155.0110 C   0  0  1  0  0  0  0  0  0  0  0  0
  149.7986  140.7936  153.6263 O   0  0  0  0  0  0  0  0  0  0  0  0
  150.3626  138.4512  157.3184 C   0  0  0  0  0  0  0  0  0  0  0  0
  150.2765  137.2432  157.9109 C   0  0  0  0  0  0  0  0  0  0  0  0
  149.2381  137.1503  159.5962 Br  0  0  0  0  0  0  0  0  0  0  0  0
  151.9109  139.8222  154.6557 H   0  0  0  0  0  0  0  0  0  0  0  0
  150.1582  140.9844  157.7472 H   0  0  0  0  0  0  0  0  0  0  0  0
  151.7871  142.7485  158.4442 H   0  0  0  0  0  0  0  0  0  0  0  0
  151.7147  143.4807  156.8493 H   0  0  0  0  0  0  0  0  0  0  0  0
  149.6362  144.0790  157.1811 H   0  0  0  0  0  0  0  0  0  0  0  0
  149.9566  142.6731  155.2214 H   0  0  0  0  0  0  0  0  0  0  0  0
  148.0673  142.8408  156.1435 H   0  0  0  0  0  0  0  0  0  0  0  0
  149.0345  139.7954  155.2580 H   0  0  0  0  0  0  0  0  0  0  0  0
  149.5734  139.9962  153.1700 H   0  0  0  0  0  0  0  0  0  0  0  0
  149.8739  139.2871  157.7946 H   0  0  0  0  0  0  0  0  0  0  0  0
  1  2  2  0  0  0  0
  2 17  1  0  0  0  0
  2  3  1  0  0  0  0
  3  4  1  0  0  0  0
  4  5  2  0  0  0  0
  4  6  1  0  0  0  0
  6  7  1  0  0  0  0
  6 16  1  0  0  0  0
  7 14  1  0  0  0  0
  7  8  1  0  0  0  0
  7 19  1  0  0  0  0
  8  9  1  0  0  0  0
  9 10  1  0  0  0  0
  9 12  1  0  0  0  0
  9 20  1  0  0  0  0
 10 11  1  0  0  0  0
 10 21  1  0  0  0  0
 10 22  1  0  0  0  0
 11 23  1  0  0  0  0
 12 13  1  0  0  0  0
 12 14  1  0  0  0  0
 12 24  1  0  0  0  0
 13 25  1  0  0  0  0
 14 15  1  0  0  0  0
 14 26  1  0  0  0  0
 15 27  1  0  0  0  0
 16 17  2  0  0  0  0
 16 28  1  0  0  0  0
 17 18  1  0  0  0  0
M  CHG  1   3  -1
M  END
> <s_m_source_file>
AV-unprocessed.smi

> <i_m_source_file_index>
35

> <i_lp_mmshare_version>
43012

> <i_f3d_flags>
0

> <s_epik_input>
Tz1jMVtuSF1jKD1PKW4oW2NIXWMxQnIpW0NAQEhdMk9bQ0BASF0oW0NIMl1bT0hdKVtDQEBIXShbT0hdKVtDQEhdMltPSF0=

> <s_epik_cmdline>
J2VwaWtfcHl0aG9uJywgJy1waCcsICc3LjAnLCAnLXRuJywgJzgnLCAnLW1hJywgJzIwMCcsICctbWV0YWxfYmluZGluZycsICctaW1hZScsICc8aW5maWxlLm1hZT4nLCAnLW9tYWUnLCAnPG91dGZpbGUubWFlPic=

> <r_epik_Ionization_Penalty>
1.06112

> <r_epik_Ionization_Penalty_Charging>
2.1796e-09

> <r_epik_Ionization_Penalty_Neutral>
1.06112

> <r_epik_State_Penalty>
1.11484

> <r_epik_Charging_Adjusted_Penalty>
1.11484

> <i_epik_Tot_Q>
-1

> <i_epik_Tot_abs_Q>
1

> <r_epik_Metal_State_Penalty>
0.0032876

> <b_epik_Metal_Only>
0

> <s_epik_Chemistry_Notes>
This compound contains an acetal/aminal-like group ( X-CH(R)-Y where X, Y are N, S, or O) that may be acid/base labile, releasing an aldehyde.

> <s_lp_Force_Field>
OPLS_2005

> <r_lp_Energy>
34.7757

> <b_lp_Chiralities_Consistent>
1

> <s_lp_Variant>
AV-unprocessed.smi:35-21

> <Gold.Version>
5.8.1

> <Gold.Id.Protein>
6NUR|6NUR_protein|mol2

> <Gold.PLP.Fitness>
43.3677

> <Gold.PLP.PLP>
-26.0012

> <Gold.PLP.part.hbond>
-8.0967

> <Gold.PLP.part.metal>
0.0000

> <Gold.PLP.part.buried>
2.0229

> <Gold.PLP.part.nonpolar>
-18.3230

> <Gold.PLP.part.repulsive>
0.1952

> <Gold.PLP.ligand.clash>
0.0000

> <Gold.PLP.ligand.torsion>
0.0679

> <Gold.PLP.Chemscore.Hbond>
5.8240

> <Gold.PLP.Chemscore.CHOScore>
0.0000

> <Gold.PLP.Chemscore.Metal>
0.0000

> <Gold.Chemscore.Hbonds>
donor molecule, donor type, donor heavy atom, donor atom, acceptor molecule, acceptor atom, score
      L1  H    11    23       P1  8028  1.00
      L1  H    13    25       P1  8028  0.72
      L1  H    15    27       P1  7957  0.35
      P1  H  6896  6908       L1     1  0.32
      P1  H  7989  7998       L1    15  0.30
      P1  H  8011  8017       L1    15  0.91
      P1  H 10752 10764       L1     3  1.30

> <Gold.PLP.Chemscore.Internal.Correction>
0.0303

> <Gold.Rescore>
     Score         DG    S(hbond)    S(metal)    S(lipo)     H(rot)  DE(clash)    DE(int)     intcor
     15.46     -15.62       4.49        0.00      37.74       3.63       0.04       0.13       ----

> <Gold.Chemscore.Fitness>
15.4573

> <Gold.Chemscore.DG>
-15.6209

> <Gold.Chemscore.ZeroCoef>
-5.4800

> <Gold.Chemscore.Hbond>
4.4935

> <Gold.Chemscore.Metal>
0.0000

> <Gold.Chemscore.Lipo>
37.7380

> <Gold.Chemscore.Internal_Hbond>
0.0000

> <Gold.Chemscore.DEClash>
0.0352

> <Gold.Chemscore.DEInternal>
0.1285

> <Gold.Chemscore.Rot>
3.6261

> <Gold.Chemscore.Internal.Correction>
   9.000000E+99

> <Gold.Chemscore.Hbonds>
donor molecule, donor type, donor heavy atom, donor atom, acceptor molecule, acceptor atom, score
      L1  H    11    23       P1  8028  0.55
      L1  H    13    25       P1  8028  0.48
      L1  H    15    27       P1  7957  0.32
      P1  H  6896  6908       L1     1  0.32
      P1  H  7989  7998       L1    15  0.02
      P1  H  8011  8017       L1    15  0.66
      P1  H 10752 10764       L1     3  0.05

> <Gold.Chemscore.Hbond.Weighted>
-15.0084

> <Gold.Chemscore.Metal.Weighted>
-0.0000

> <Gold.Chemscore.Lipo.Weighted>
-4.4153

> <Gold.Chemscore.Internal_Hbond.Weighted>
0.0000

> <Gold.Chemscore.DEClash.Weighted>
0.0352

> <Gold.Chemscore.DEInternal.Weighted>
0.1285

> <Gold.Chemscore.Rot.Weighted>
9.2828

> <Gold.Chemscore.Internal.Correction.Weighted>
   9.000000E+99

> <Gold.Protein.RotatedTorsions>
[ 6907 6896 6895 6894 ] final  140.94 input  -60.11 | X-H torsion
[ 7974 7965 7964 7962 ] final -174.94 input  175.53 | X-H torsion
[ 8008 7997 7996 7995 ] final  112.26 input   59.86 | X-H torsion
[ 10167 10162 10161 10158 ] final  -83.93 input  -65.29 | X-H torsion
[ 10718 10713 10712 10709 ] final  -35.91 input   66.30 | X-H torsion
[ 10763 10752 10751 10750 ] final  -32.71 input  -60.55 | X-H torsion
[ 11005 11000 10999 10996 ] final   81.85 input  -57.11 | X-H torsion

> <Gold.Protein.ActiveResidues>
 VAL166  LYS551  ARG553  GLY616  TRP617  ASP618  TYR619  PRO620  LYS621  CYS622 
 ASP623  PHE694  ASN695  SER759  ASP760  ASP761  ALA762  ILE779  LEU786  VAL792 
 PHE793  MET794  SER795  GLU796  ALA797  LYS798  CYS799  TRP800  GLU811  SER814 

> <Gold.Protein.RotatedAtoms>
  152.2369  133.5104  159.5247 H   0  0  0  0  0  0  0  0  0  0  0  0  # atno 6907 bound_to 6896
  150.7053  134.1141  159.4020 H   0  0  0  0  0  0  0  0  0  0  0  0  # atno 6908 bound_to 6896
  151.9062  135.0358  160.0561 H   0  0  0  0  0  0  0  0  0  0  0  0  # atno 6909 bound_to 6896
  144.7130  140.1395  143.6393 H   0  0  0  0  0  0  0  0  0  0  0  0  # atno 7974 bound_to 7965
  156.2180  140.3003  155.9885 H   0  0  0  0  0  0  0  0  0  0  0  0  # atno 8008 bound_to 7997
  155.2555  140.0427  157.3008 H   0  0  0  0  0  0  0  0  0  0  0  0  # atno 8009 bound_to 7997
  154.5797  140.2372  155.8079 H   0  0  0  0  0  0  0  0  0  0  0  0  # atno 8010 bound_to 7997
  140.4181  143.2595  151.8928 H   0  0  0  0  0  0  0  0  0  0  0  0  # atno 10167 bound_to 10162
  156.3330  130.4282  149.7855 H   0  0  0  0  0  0  0  0  0  0  0  0  # atno 10718 bound_to 10713
  153.8183  135.6876  153.4831 H   0  0  0  0  0  0  0  0  0  0  0  0  # atno 10763 bound_to 10752
  153.1585  135.4589  154.9737 H   0  0  0  0  0  0  0  0  0  0  0  0  # atno 10764 bound_to 10752
  154.7938  135.3311  154.7657 H   0  0  0  0  0  0  0  0  0  0  0  0  # atno 10765 bound_to 10752
  139.9083  134.8028  156.2096 H   0  0  0  0  0  0  0  0  0  0  0  0  # atno 11005 bound_to 11000
  145.9214  139.2548  143.1379 LP  0  0  0  0  0  0  0  0  0  0  0  0  # atno 17320 bound_to 7965
  145.9616  140.8831  143.0208 LP  0  0  0  0  0  0  0  0  0  0  0  0  # atno 17321 bound_to 7965
  139.4782  144.5467  151.8448 LP  0  0  0  0  0  0  0  0  0  0  0  0  # atno 17342 bound_to 10162
  140.4564  144.1783  150.5902 LP  0  0  0  0  0  0  0  0  0  0  0  0  # atno 17343 bound_to 10162
  156.5120  130.8176  151.3172 LP  0  0  0  0  0  0  0  0  0  0  0  0  # atno 17370 bound_to 10713
  157.7434  130.9910  150.2587 LP  0  0  0  0  0  0  0  0  0  0  0  0  # atno 17371 bound_to 10713
  141.0473  133.6906  156.1707 LP  0  0  0  0  0  0  0  0  0  0  0  0  # atno 17394 bound_to 11000
  140.6864  134.4713  157.5589 LP  0  0  0  0  0  0  0  0  0  0  0  0  # atno 17395 bound_to 11000

$$$$
