AV-unprocessed.smi:252|AV-procd|sdf|1939|dock2
  -GOLD-   2262021 63D 1   1.00000     0.00000
 Structure written by MMmdl.
 56 59  0  0  0  0  0  0  0  0  1 V2000
  152.6189  144.7606  158.5856 C   0  0  0  0  0  0  0  0  0  0  0  0
  151.2085  144.1759  158.4092 C   0  0  0  0  0  0  0  0  0  0  0  0
  151.1983  142.7562  157.8326 C   0  0  0  0  0  0  0  0  0  0  0  0
  151.6891  141.8141  158.4557 O   0  0  0  0  0  0  0  0  0  0  0  0
  150.6287  142.6212  156.6252 N   0  0  0  0  0  0  0  0  0  0  0  0
  150.4970  141.3667  155.8913 C   0  0  1  0  0  0  0  0  0  0  0  0
  151.8763  140.6923  155.7657 C   0  0  0  0  0  0  0  0  0  0  0  0
  151.7489  139.3213  155.0827 C   0  0  0  0  0  0  0  0  0  0  0  0
  150.7232  138.4400  155.8124 C   0  0  0  0  0  0  0  0  0  0  0  0
  149.4417  139.1310  155.9186 N   0  0  0  0  0  0  0  0  0  0  0  0
  148.4336  138.3411  156.3435 C   0  0  0  0  0  0  0  0  0  0  0  0
  147.3436  138.1469  155.5556 N   0  0  0  0  0  0  0  0  0  0  0  0
  146.3476  137.3635  155.9815 C   0  0  0  0  0  0  0  0  0  0  0  0
  146.2421  136.6984  157.1346 N   0  0  0  0  0  0  0  0  0  0  0  0
  147.3356  136.8979  157.9259 C   0  0  0  0  0  0  0  0  0  0  0  0
  148.4700  137.6940  157.6055 C   0  0  0  0  0  0  0  0  0  0  0  0
  149.3928  137.6536  158.6423 N   0  0  0  0  0  0  0  0  0  0  0  0
  148.8348  136.8747  159.5286 C   0  0  0  0  0  0  0  0  0  0  0  0
  147.5911  136.3898  159.1878 N   0  0  0  0  0  0  0  0  0  0  0  0
  146.7501  135.5122  159.9875 C   0  0  0  0  0  0  0  0  0  0  0  0
  146.3239  136.1065  161.3575 C   0  0  2  0  0  0  0  0  0  0  0  0
  145.9213  137.4502  161.1577 O   0  0  0  0  0  0  0  0  0  0  0  0
  147.4216  136.0771  162.4164 C   0  0  0  0  0  0  0  0  0  0  0  0
  147.2701  134.6805  162.9970 C   0  0  0  0  0  0  0  0  0  0  0  0
  145.8637  134.4981  163.0573 O   0  0  0  0  0  0  0  0  0  0  0  0
  145.2207  135.2397  162.0193 C   0  0  1  0  0  0  0  0  0  0  0  0
  144.0644  136.0117  162.6775 C   0  0  0  0  0  0  0  0  0  0  0  0
  149.4973  140.4243  156.5939 C   0  0  0  0  0  0  0  0  0  0  0  0
  152.5697  145.7591  159.0201 H   0  0  0  0  0  0  0  0  0  0  0  0
  153.1381  144.8434  157.6299 H   0  0  0  0  0  0  0  0  0  0  0  0
  153.2262  144.1427  159.2480 H   0  0  0  0  0  0  0  0  0  0  0  0
  150.6992  144.1639  159.3736 H   0  0  0  0  0  0  0  0  0  0  0  0
  150.6244  144.8224  157.7536 H   0  0  0  0  0  0  0  0  0  0  0  0
  150.2520  143.4477  156.1845 H   0  0  0  0  0  0  0  0  0  0  0  0
  150.1312  141.5822  154.8852 H   0  0  0  0  0  0  0  0  0  0  0  0
  152.5585  141.3276  155.1997 H   0  0  0  0  0  0  0  0  0  0  0  0
  152.3176  140.5619  156.7550 H   0  0  0  0  0  0  0  0  0  0  0  0
  151.4388  139.4573  154.0457 H   0  0  0  0  0  0  0  0  0  0  0  0
  152.7183  138.8232  155.0548 H   0  0  0  0  0  0  0  0  0  0  0  0
  150.5947  137.4980  155.2771 H   0  0  0  0  0  0  0  0  0  0  0  0
  151.0891  138.1944  156.8106 H   0  0  0  0  0  0  0  0  0  0  0  0
  145.5157  137.2532  155.3017 H   0  0  0  0  0  0  0  0  0  0  0  0
  149.3140  136.6381  160.4677 H   0  0  0  0  0  0  0  0  0  0  0  0
  145.8661  135.2620  159.3990 H   0  0  0  0  0  0  0  0  0  0  0  0
  147.2878  134.5741  160.1308 H   0  0  0  0  0  0  0  0  0  0  0  0
  144.9774  137.4784  161.1247 H   0  0  0  0  0  0  0  0  0  0  0  0
  148.4240  136.2810  162.0432 H   0  0  0  0  0  0  0  0  0  0  0  0
  147.2137  136.8070  163.2006 H   0  0  0  0  0  0  0  0  0  0  0  0
  147.7096  133.9319  162.3367 H   0  0  0  0  0  0  0  0  0  0  0  0
  147.7287  134.5808  163.9809 H   0  0  0  0  0  0  0  0  0  0  0  0
  144.8027  134.5366  161.2973 H   0  0  0  0  0  0  0  0  0  0  0  0
  143.4933  136.5772  161.9407 H   0  0  0  0  0  0  0  0  0  0  0  0
  144.4296  136.7089  163.4324 H   0  0  0  0  0  0  0  0  0  0  0  0
  143.3731  135.3263  163.1686 H   0  0  0  0  0  0  0  0  0  0  0  0
  149.7919  140.2761  157.6342 H   0  0  0  0  0  0  0  0  0  0  0  0
  148.5025  140.8721  156.6046 H   0  0  0  0  0  0  0  0  0  0  0  0
  1  2  1  0  0  0  0
  1 29  1  0  0  0  0
  1 30  1  0  0  0  0
  1 31  1  0  0  0  0
  2  3  1  0  0  0  0
  2 32  1  0  0  0  0
  2 33  1  0  0  0  0
  3  4  2  0  0  0  0
  3  5  1  0  0  0  0
  5  6  1  0  0  0  0
  5 34  1  0  0  0  0
  6 28  1  0  0  0  0
  6  7  1  0  0  0  0
  6 35  1  0  0  0  0
  7  8  1  0  0  0  0
  7 36  1  0  0  0  0
  7 37  1  0  0  0  0
  8  9  1  0  0  0  0
  8 38  1  0  0  0  0
  8 39  1  0  0  0  0
  9 10  1  0  0  0  0
  9 40  1  0  0  0  0
  9 41  1  0  0  0  0
 10 11  1  0  0  0  0
 10 28  1  0  0  0  0
 11 16  1  0  0  0  0
 11 12  2  0  0  0  0
 12 13  1  0  0  0  0
 13 14  2  0  0  0  0
 13 42  1  0  0  0  0
 14 15  1  0  0  0  0
 15 19  1  0  0  0  0
 15 16  2  0  0  0  0
 16 17  1  0  0  0  0
 17 18  2  0  0  0  0
 18 19  1  0  0  0  0
 18 43  1  0  0  0  0
 19 20  1  0  0  0  0
 20 21  1  0  0  0  0
 20 44  1  0  0  0  0
 20 45  1  0  0  0  0
 21 26  1  0  0  0  0
 21 22  1  0  0  0  0
 21 23  1  0  0  0  0
 22 46  1  0  0  0  0
 23 24  1  0  0  0  0
 23 47  1  0  0  0  0
 23 48  1  0  0  0  0
 24 25  1  0  0  0  0
 24 49  1  0  0  0  0
 24 50  1  0  0  0  0
 25 26  1  0  0  0  0
 26 27  1  0  0  0  0
 26 51  1  0  0  0  0
 27 52  1  0  0  0  0
 27 53  1  0  0  0  0
 27 54  1  0  0  0  0
 28 55  1  0  0  0  0
 28 56  1  0  0  0  0
M  END
> <s_m_source_file>
AV-unprocessed.smi

> <i_m_source_file_index>
252

> <i_lp_mmshare_version>
43012

> <i_f3d_flags>
0

> <s_epik_input>
W0NIM11bQ0gyXUMoPU8pW05IXVtDQEBIXTFbQ0gyXVtDSDJdW0NIMl1OKFtDSDJdMSljKG5bY0hdbjIpYyhjMjMpbltjSF1uM1tDSDJdW0NAQF00KFtPSF0pW0NIMl1bQ0gyXU9bQ0BIXTRbQ0gzXQ==

> <s_epik_cmdline>
J2VwaWtfcHl0aG9uJywgJy1waCcsICc3LjAnLCAnLXRuJywgJzgnLCAnLW1hJywgJzIwMCcsICctbWV0YWxfYmluZGluZycsICctaW1hZScsICc8aW5maWxlLm1hZT4nLCAnLW9tYWUnLCAnPG91dGZpbGUubWFlPic=

> <r_lp_tautomer_probability>
1

> <r_epik_Ionization_Penalty>
0.00182575

> <r_epik_Ionization_Penalty_Charging>
0

> <r_epik_Ionization_Penalty_Neutral>
0.00182575

> <r_epik_State_Penalty>
0.00104524

> <r_epik_Charging_Adjusted_Penalty>
0.00104524

> <i_epik_Tot_Q>
0

> <i_epik_Tot_abs_Q>
0

> <r_epik_Metal_State_Penalty>
-0

> <b_epik_Metal_Only>
0

> <s_lp_Force_Field>
OPLS_2005

> <r_lp_Energy>
37.9455

> <b_lp_Chiralities_Consistent>
1

> <s_lp_Variant>
AV-unprocessed.smi:252-4

> <Gold.Version>
5.8.1

> <Gold.Id.Protein>
6NUR|6NUR_protein|mol2

> <Gold.PLP.Fitness>
45.9892

> <Gold.PLP.PLP>
-40.4249

> <Gold.PLP.part.hbond>
-3.0000

> <Gold.PLP.part.metal>
0.0000

> <Gold.PLP.part.buried>
-4.6454

> <Gold.PLP.part.nonpolar>
-32.3605

> <Gold.PLP.part.repulsive>
0.1164

> <Gold.PLP.ligand.clash>
0.0000

> <Gold.PLP.ligand.torsion>
0.3930

> <Gold.PLP.Chemscore.Hbond>
2.0000

> <Gold.PLP.Chemscore.CHOScore>
0.0000

> <Gold.PLP.Chemscore.Metal>
0.0000

> <Gold.Chemscore.Hbonds>
donor molecule, donor type, donor heavy atom, donor atom, acceptor molecule, acceptor atom, score
      L1  H     5    34       P1  8028  1.00
      P1  H  6934  6947       L1    22  1.00

> <Gold.PLP.Chemscore.Internal.Correction>
0.3504

> <Gold.Rescore>
     Score         DG    S(hbond)    S(metal)    S(lipo)     H(rot)  DE(clash)    DE(int)     intcor
     14.02     -15.62       1.84        0.00      93.35       2.70       0.11       1.49       ----

> <Gold.Chemscore.Fitness>
14.0193

> <Gold.Chemscore.DG>
-15.6221

> <Gold.Chemscore.ZeroCoef>
-5.4800

> <Gold.Chemscore.Hbond>
1.8392

> <Gold.Chemscore.Metal>
0.0000

> <Gold.Chemscore.Lipo>
93.3468

> <Gold.Chemscore.Internal_Hbond>
0.0000

> <Gold.Chemscore.DEClash>
0.1118

> <Gold.Chemscore.DEInternal>
1.4910

> <Gold.Chemscore.Rot>
2.7041

> <Gold.Chemscore.Internal.Correction>
   9.000000E+99

> <Gold.Chemscore.Hbonds>
donor molecule, donor type, donor heavy atom, donor atom, acceptor molecule, acceptor atom, score
      L1  H     5    34       P1  8028  0.98
      P1  H  6934  6947       L1    22  0.94

> <Gold.Chemscore.Hbond.Weighted>
-6.1430

> <Gold.Chemscore.Metal.Weighted>
-0.0000

> <Gold.Chemscore.Lipo.Weighted>
-10.9216

> <Gold.Chemscore.Internal_Hbond.Weighted>
0.0000

> <Gold.Chemscore.DEClash.Weighted>
0.1118

> <Gold.Chemscore.DEInternal.Weighted>
1.4910

> <Gold.Chemscore.Rot.Weighted>
6.9225

> <Gold.Chemscore.Internal.Correction.Weighted>
   9.000000E+99

> <Gold.Protein.RotatedTorsions>
[ 6907 6896 6895 6894 ] final   91.63 input  -60.11 | X-H torsion
[ 7974 7965 7964 7962 ] final   51.23 input  175.53 | X-H torsion
[ 8008 7997 7996 7995 ] final   41.06 input   59.86 | X-H torsion
[ 10167 10162 10161 10158 ] final  153.26 input  -65.29 | X-H torsion
[ 10718 10713 10712 10709 ] final   76.25 input   66.30 | X-H torsion
[ 10763 10752 10751 10750 ] final   99.12 input  -60.55 | X-H torsion
[ 11005 11000 10999 10996 ] final  140.49 input  -57.11 | X-H torsion

> <Gold.Protein.ActiveResidues>
 VAL166  LYS551  ARG553  GLY616  TRP617  ASP618  TYR619  PRO620  LYS621  CYS622 
 ASP623  PHE694  ASN695  SER759  ASP760  ASP761  ALA762  ILE779  LEU786  VAL792 
 PHE793  MET794  SER795  GLU796  ALA797  LYS798  CYS799  TRP800  GLU811  SER814 

> <Gold.Protein.RotatedAtoms>
  152.5450  134.1627  159.8564 H   0  0  0  0  0  0  0  0  0  0  0  0  # atno 6907 bound_to 6896
  151.1644  133.4817  159.2601 H   0  0  0  0  0  0  0  0  0  0  0  0  # atno 6908 bound_to 6896
  151.1339  135.0156  159.8650 H   0  0  0  0  0  0  0  0  0  0  0  0  # atno 6909 bound_to 6896
  145.9934  139.4363  143.0059 H   0  0  0  0  0  0  0  0  0  0  0  0  # atno 7974 bound_to 7965
  155.2634  140.3361  155.4271 H   0  0  0  0  0  0  0  0  0  0  0  0  # atno 8008 bound_to 7997
  156.2164  140.1791  156.7620 H   0  0  0  0  0  0  0  0  0  0  0  0  # atno 8009 bound_to 7997
  154.5760  140.0661  156.9020 H   0  0  0  0  0  0  0  0  0  0  0  0  # atno 8010 bound_to 7997
  139.4828  144.5288  151.7757 H   0  0  0  0  0  0  0  0  0  0  0  0  # atno 10167 bound_to 10162
  157.6666  130.9765  150.1470 H   0  0  0  0  0  0  0  0  0  0  0  0  # atno 10718 bound_to 10713
  153.2975  135.4124  155.1222 H   0  0  0  0  0  0  0  0  0  0  0  0  # atno 10763 bound_to 10752
  154.8539  135.3533  154.5897 H   0  0  0  0  0  0  0  0  0  0  0  0  # atno 10764 bound_to 10752
  153.6322  135.7060  153.5330 H   0  0  0  0  0  0  0  0  0  0  0  0  # atno 10765 bound_to 10752
  140.0331  134.9342  157.0701 H   0  0  0  0  0  0  0  0  0  0  0  0  # atno 11005 bound_to 11000
  145.7596  140.9940  143.1207 LP  0  0  0  0  0  0  0  0  0  0  0  0  # atno 17320 bound_to 7965
  144.6896  139.9314  143.7472 LP  0  0  0  0  0  0  0  0  0  0  0  0  # atno 17321 bound_to 7965
  140.4811  144.1448  150.5933 LP  0  0  0  0  0  0  0  0  0  0  0  0  # atno 17342 bound_to 10162
  140.4276  143.2582  151.9636 LP  0  0  0  0  0  0  0  0  0  0  0  0  # atno 17343 bound_to 10162
  156.2278  130.3679  149.8480 LP  0  0  0  0  0  0  0  0  0  0  0  0  # atno 17370 bound_to 10713
  156.6315  130.8667  151.3496 LP  0  0  0  0  0  0  0  0  0  0  0  0  # atno 17371 bound_to 10713
  140.4192  134.1899  155.7164 LP  0  0  0  0  0  0  0  0  0  0  0  0  # atno 17394 bound_to 11000
  141.1842  133.8348  157.1147 LP  0  0  0  0  0  0  0  0  0  0  0  0  # atno 17395 bound_to 11000

$$$$
