AV-unprocessed.smi:3181|AV-procd|sdf|12140|dock4
  -GOLD-   2272017583D 1   1.00000     0.00000
 Structure written by MMmdl.
 42 43  0  0  0  0  0  0  0  0  2 V2000
  147.8989  141.3011  157.1941 C   0  0  0  0  0  0  0  0  0  0  0  0
  149.3996  141.4879  156.9160 C   0  0  1  0  0  0  0  0  0  0  0  0
  149.7421  141.4113  155.4126 C   0  0  0  0  0  0  0  0  0  0  0  0
  149.8327  140.0473  154.9264 N   0  0  0  0  0  0  0  0  0  0  0  0
  148.9226  139.0721  154.9073 C   0  0  0  0  0  0  0  0  0  0  0  0
  149.3635  137.9395  154.3788 N   0  0  0  0  0  0  0  0  0  0  0  0
  150.6433  138.3106  154.0771 C   0  0  0  0  0  0  0  0  0  0  0  0
  150.9756  139.5645  154.3857 N   0  0  0  0  0  0  0  0  0  0  0  0
  149.8450  142.7862  157.4717 N   0  3  0  0  0  0  0  0  0  0  0  0
  151.2949  143.0823  157.3694 C   0  0  2  0  0  0  0  0  0  0  0  0
  152.1205  141.9594  158.0192 C   0  0  0  0  0  0  0  0  0  0  0  0
  151.9925  141.9620  159.5509 C   0  0  0  0  0  0  0  0  0  0  0  0
  152.3699  143.3247  160.1672 C   0  0  2  0  0  0  0  0  0  0  0  0
  152.2268  143.2627  161.6983 C   0  0  0  0  0  0  0  0  0  0  0  0
  151.5347  144.4653  159.5281 C   0  0  1  0  0  0  0  0  0  0  0  0
  151.9117  145.8579  160.0640 C   0  0  0  0  0  0  0  0  0  0  0  0
  151.6715  144.4436  157.9901 C   0  0  0  0  0  0  0  0  0  0  0  0
  147.5497  140.3203  156.8705 H   0  0  0  0  0  0  0  0  0  0  0  0
  147.3019  142.0536  156.6778 H   0  0  0  0  0  0  0  0  0  0  0  0
  147.6858  141.3809  158.2607 H   0  0  0  0  0  0  0  0  0  0  0  0
  149.9227  140.6806  157.4309 H   0  0  0  0  0  0  0  0  0  0  0  0
  148.9924  141.9453  154.8262 H   0  0  0  0  0  0  0  0  0  0  0  0
  150.6954  141.8986  155.2081 H   0  0  0  0  0  0  0  0  0  0  0  0
  147.9175  139.1939  155.2839 H   0  0  0  0  0  0  0  0  0  0  0  0
  151.3510  137.6372  153.6162 H   0  0  0  0  0  0  0  0  0  0  0  0
  149.3228  143.5305  157.0314 H   0  0  0  0  0  0  0  0  0  0  0  0
  151.5442  143.1003  156.3074 H   0  0  0  0  0  0  0  0  0  0  0  0
  151.8223  140.9891  157.6197 H   0  0  0  0  0  0  0  0  0  0  0  0
  153.1705  142.0859  157.7513 H   0  0  0  0  0  0  0  0  0  0  0  0
  150.9719  141.7001  159.8335 H   0  0  0  0  0  0  0  0  0  0  0  0
  152.6307  141.1797  159.9640 H   0  0  0  0  0  0  0  0  0  0  0  0
  153.4221  143.5085  159.9440 H   0  0  0  0  0  0  0  0  0  0  0  0
  151.1835  143.1532  161.9960 H   0  0  0  0  0  0  0  0  0  0  0  0
  152.6215  144.1575  162.1788 H   0  0  0  0  0  0  0  0  0  0  0  0
  152.7781  142.4161  162.1085 H   0  0  0  0  0  0  0  0  0  0  0  0
  150.4859  144.2970  159.7759 H   0  0  0  0  0  0  0  0  0  0  0  0
  152.9736  146.0630  159.9259 H   0  0  0  0  0  0  0  0  0  0  0  0
  151.6856  145.9581  161.1252 H   0  0  0  0  0  0  0  0  0  0  0  0
  151.3539  146.6398  159.5478 H   0  0  0  0  0  0  0  0  0  0  0  0
  152.7061  144.6693  157.7276 H   0  0  0  0  0  0  0  0  0  0  0  0
  151.0808  145.2438  157.5445 H   0  0  0  0  0  0  0  0  0  0  0  0
  149.6142  142.7811  158.4549 H   0  0  0  0  0  0  0  0  0  0  0  0
  1  2  1  0  0  0  0
  1 18  1  0  0  0  0
  1 19  1  0  0  0  0
  1 20  1  0  0  0  0
  2  3  1  0  0  0  0
  2  9  1  0  0  0  0
  2 21  1  0  0  0  0
  3  4  1  0  0  0  0
  3 22  1  0  0  0  0
  3 23  1  0  0  0  0
  4  8  1  0  0  0  0
  4  5  1  0  0  0  0
  5  6  2  0  0  0  0
  5 24  1  0  0  0  0
  6  7  1  0  0  0  0
  7  8  2  0  0  0  0
  7 25  1  0  0  0  0
  9 10  1  0  0  0  0
  9 26  1  0  0  0  0
  9 42  1  0  0  0  0
 10 17  1  0  0  0  0
 10 11  1  0  0  0  0
 10 27  1  0  0  0  0
 11 12  1  0  0  0  0
 11 28  1  0  0  0  0
 11 29  1  0  0  0  0
 12 13  1  0  0  0  0
 12 30  1  0  0  0  0
 12 31  1  0  0  0  0
 13 14  1  0  0  0  0
 13 15  1  0  0  0  0
 13 32  1  0  0  0  0
 14 33  1  0  0  0  0
 14 34  1  0  0  0  0
 14 35  1  0  0  0  0
 15 16  1  0  0  0  0
 15 17  1  0  0  0  0
 15 36  1  0  0  0  0
 16 37  1  0  0  0  0
 16 38  1  0  0  0  0
 16 39  1  0  0  0  0
 17 40  1  0  0  0  0
 17 41  1  0  0  0  0
M  CHG  1   9   1
M  END
> <s_m_source_file>
AV-unprocessed.smi

> <i_m_source_file_index>
3181

> <i_lp_mmshare_version>
43012

> <i_f3d_flags>
0

> <s_epik_input>
bjFbY0hdbltjSF1uMVtDSDJdW0NAQEhdKFtDSDNdKVtOSF1bQ0BASF0yW0NIMl1bQ0gyXVtDQEBIXShbQ0gzXSlbQ0BASF0oW0NIM10pW0NIMl0y

> <s_epik_cmdline>
J2VwaWtfcHl0aG9uJywgJy1waCcsICc3LjAnLCAnLXRuJywgJzgnLCAnLW1hJywgJzIwMCcsICctbWV0YWxfYmluZGluZycsICctaW1hZScsICc8aW5maWxlLm1hZT4nLCAnLW9tYWUnLCAnPG91dGZpbGUubWFlPic=

> <r_lp_tautomer_probability>
1

> <r_epik_Ionization_Penalty>
0.000617007

> <r_epik_Ionization_Penalty_Charging>
0.000616215

> <r_epik_Ionization_Penalty_Neutral>
7.92544e-07

> <r_epik_State_Penalty>
0.000388807

> <r_epik_Charging_Adjusted_Penalty>
0.00100502

> <i_epik_Tot_Q>
1

> <i_epik_Tot_abs_Q>
1

> <r_epik_Metal_State_Penalty>
-0

> <b_epik_Metal_Only>
0

> <s_lp_Force_Field>
OPLS_2005

> <r_lp_Energy>
23.1218

> <b_lp_Chiralities_Consistent>
1

> <s_lp_Variant>
AV-unprocessed.smi:3181-6

> <Gold.Version>
5.8.1

> <Gold.Id.Protein>
6NUR|6NUR_protein|mol2

> <Gold.PLP.Fitness>
50.5037

> <Gold.PLP.PLP>
-40.2615

> <Gold.PLP.part.hbond>
-2.0000

> <Gold.PLP.part.metal>
0.0000

> <Gold.PLP.part.buried>
-5.5955

> <Gold.PLP.part.nonpolar>
-33.3312

> <Gold.PLP.part.repulsive>
0.8255

> <Gold.PLP.ligand.clash>
0.0000

> <Gold.PLP.ligand.torsion>
0.2256

> <Gold.PLP.Chemscore.Hbond>
3.0000

> <Gold.PLP.Chemscore.CHOScore>
0.5573

> <Gold.PLP.Chemscore.Metal>
0.0000

> <Gold.Chemscore.Hbonds>
donor molecule, donor type, donor heavy atom, donor atom, acceptor molecule, acceptor atom, score
      L1  H     9    26       P1  8028  2.00
      P1  H  7989  7998       L1     8  1.00
      L1  C     7    25       P1  7949  0.59

> <Gold.PLP.Chemscore.Internal.Correction>
0.0214

> <Gold.Rescore>
     Score         DG    S(hbond)    S(metal)    S(lipo)     H(rot)  DE(clash)    DE(int)     intcor
     17.79     -18.19       1.81        0.00     103.28       2.11       0.11       0.30       ----

> <Gold.Chemscore.Fitness>
17.7862

> <Gold.Chemscore.DG>
-18.1940

> <Gold.Chemscore.ZeroCoef>
-5.4800

> <Gold.Chemscore.Hbond>
1.8054

> <Gold.Chemscore.Metal>
0.0000

> <Gold.Chemscore.Lipo>
103.2837

> <Gold.Chemscore.Internal_Hbond>
0.0000

> <Gold.Chemscore.DEClash>
0.1064

> <Gold.Chemscore.DEInternal>
0.3014

> <Gold.Chemscore.Rot>
2.1095

> <Gold.Chemscore.Internal.Correction>
   9.000000E+99

> <Gold.Chemscore.Hbonds>
donor molecule, donor type, donor heavy atom, donor atom, acceptor molecule, acceptor atom, score
      L1  H     9    26       P1  8028  0.84
      P1  H  7989  7998       L1     8  0.55

> <Gold.Chemscore.Hbond.Weighted>
-6.0301

> <Gold.Chemscore.Metal.Weighted>
-0.0000

> <Gold.Chemscore.Lipo.Weighted>
-12.0842

> <Gold.Chemscore.Internal_Hbond.Weighted>
0.0000

> <Gold.Chemscore.DEClash.Weighted>
0.1064

> <Gold.Chemscore.DEInternal.Weighted>
0.3014

> <Gold.Chemscore.Rot.Weighted>
5.4003

> <Gold.Chemscore.Internal.Correction.Weighted>
   9.000000E+99

> <Gold.Protein.RotatedTorsions>
[ 6907 6896 6895 6894 ] final  -87.40 input  -60.11 | X-H torsion
[ 7974 7965 7964 7962 ] final  -60.46 input  175.53 | X-H torsion
[ 8008 7997 7996 7995 ] final   10.51 input   59.86 | X-H torsion
[ 10167 10162 10161 10158 ] final   19.49 input  -65.29 | X-H torsion
[ 10718 10713 10712 10709 ] final  -89.43 input   66.30 | X-H torsion
[ 10763 10752 10751 10750 ] final -130.92 input  -60.55 | X-H torsion
[ 11005 11000 10999 10996 ] final -169.15 input  -57.11 | X-H torsion

> <Gold.Protein.ActiveResidues>
 VAL166  LYS551  ARG553  GLY616  TRP617  ASP618  TYR619  PRO620  LYS621  CYS622 
 ASP623  PHE694  ASN695  SER759  ASP760  ASP761  ALA762  ILE779  LEU786  VAL792 
 PHE793  MET794  SER795  GLU796  ALA797  LYS798  CYS799  TRP800  GLU811  SER814 

> <Gold.Protein.RotatedAtoms>
  150.6866  134.2901  159.4662 H   0  0  0  0  0  0  0  0  0  0  0  0  # atno 6907 bound_to 6896
  152.0807  134.9470  160.0583 H   0  0  0  0  0  0  0  0  0  0  0  0  # atno 6908 bound_to 6896
  152.0824  133.4125  159.4544 H   0  0  0  0  0  0  0  0  0  0  0  0  # atno 6909 bound_to 6896
  145.8152  140.8574  143.0161 H   0  0  0  0  0  0  0  0  0  0  0  0  # atno 7974 bound_to 7965
  154.7944  140.2841  155.5968 H   0  0  0  0  0  0  0  0  0  0  0  0  # atno 8008 bound_to 7997
  156.2969  140.2598  156.2727 H   0  0  0  0  0  0  0  0  0  0  0  0  # atno 8009 bound_to 7997
  154.9632  140.0377  157.2189 H   0  0  0  0  0  0  0  0  0  0  0  0  # atno 8010 bound_to 7997
  140.5575  143.9397  150.6619 H   0  0  0  0  0  0  0  0  0  0  0  0  # atno 10167 bound_to 10162
  155.9984  130.4872  150.5169 H   0  0  0  0  0  0  0  0  0  0  0  0  # atno 10718 bound_to 10713
  154.8753  135.3847  154.4161 H   0  0  0  0  0  0  0  0  0  0  0  0  # atno 10763 bound_to 10752
  153.4870  135.7030  153.5911 H   0  0  0  0  0  0  0  0  0  0  0  0  # atno 10764 bound_to 10752
  153.4301  135.3880  155.2132 H   0  0  0  0  0  0  0  0  0  0  0  0  # atno 10765 bound_to 10752
  140.5340  134.5588  157.5082 H   0  0  0  0  0  0  0  0  0  0  0  0  # atno 11005 bound_to 11000
  144.6753  140.0454  143.7480 LP  0  0  0  0  0  0  0  0  0  0  0  0  # atno 17320 bound_to 7965
  145.9734  139.2887  143.1085 LP  0  0  0  0  0  0  0  0  0  0  0  0  # atno 17321 bound_to 7965
  140.2839  143.3370  152.1125 LP  0  0  0  0  0  0  0  0  0  0  0  0  # atno 17342 bound_to 10162
  139.5055  144.6795  151.6043 LP  0  0  0  0  0  0  0  0  0  0  0  0  # atno 17343 bound_to 10162
  157.3136  131.0668  151.1983 LP  0  0  0  0  0  0  0  0  0  0  0  0  # atno 17370 bound_to 10713
  157.2921  130.6801  149.6119 LP  0  0  0  0  0  0  0  0  0  0  0  0  # atno 17371 bound_to 10713
  139.9539  134.7569  156.0386 LP  0  0  0  0  0  0  0  0  0  0  0  0  # atno 17394 bound_to 11000
  141.1265  133.6598  156.3350 LP  0  0  0  0  0  0  0  0  0  0  0  0  # atno 17395 bound_to 11000

$$$$
