AV-unprocessed.smi:1237|AV-procd|sdf|5183|dock10
  -GOLD-   22720 4263D 1   1.00000     0.00000
 Structure written by MMmdl.
 44 45  0  0  0  0  0  0  0  0  1 V2000
  154.6028  135.4093  158.4114 C   0  0  0  0  0  0  0  0  0  0  0  0
  154.6548  136.0524  157.1505 O   0  0  0  0  0  0  0  0  0  0  0  0
  153.9234  137.2678  157.1295 C   0  0  0  0  0  0  0  0  0  0  0  0
  153.7943  137.7623  155.6794 C   0  0  0  0  0  0  0  0  0  0  0  0
  152.5172  138.4467  155.4487 N   0  0  0  0  0  0  0  0  0  0  0  0
  152.2882  139.5138  156.3012 N   0  0  0  0  0  0  0  0  0  0  0  0
  151.1865  140.1873  156.2194 C   0  0  0  0  0  0  0  0  0  0  0  0
  150.8980  141.3344  157.1241 C   0  0  0  0  0  0  0  0  0  0  0  0
  149.8761  142.0132  157.0078 O   0  0  0  0  0  0  0  0  0  0  0  0
  151.8259  141.5673  158.0708 N   0  0  0  0  0  0  0  0  0  0  0  0
  151.7750  142.6285  159.0746 C   0  0  0  0  0  0  0  0  0  0  0  0
  151.8284  143.9844  158.3384 C   0  0  0  0  0  0  0  0  0  0  0  0
  152.1416  145.2325  159.1839 C   0  0  0  0  0  0  0  0  0  0  0  0
  151.5815  145.2341  160.6150 C   0  0  0  0  0  0  0  0  0  0  0  0
  152.5103  144.5237  161.6140 C   0  0  0  0  0  0  0  0  0  0  0  0
  152.5157  142.9917  161.5102 C   0  0  0  0  0  0  0  0  0  0  0  0
  152.8870  142.4260  160.1274 C   0  0  0  0  0  0  0  0  0  0  0  0
  150.1771  139.8449  155.2314 C   0  0  0  0  0  0  0  0  0  0  0  0
  150.4157  138.8030  154.4049 C   0  0  0  0  0  0  0  0  0  0  0  0
  151.6502  138.0203  154.4814 C   0  0  0  0  0  0  0  0  0  0  0  0
  151.8860  137.0618  153.7460 O   0  0  0  0  0  0  0  0  0  0  0  0
  155.1823  134.4868  158.3763 H   0  0  0  0  0  0  0  0  0  0  0  0
  153.5774  135.1537  158.6817 H   0  0  0  0  0  0  0  0  0  0  0  0
  155.0244  136.0413  159.1939 H   0  0  0  0  0  0  0  0  0  0  0  0
  152.9295  137.1009  157.5467 H   0  0  0  0  0  0  0  0  0  0  0  0
  154.4126  138.0193  157.7513 H   0  0  0  0  0  0  0  0  0  0  0  0
  154.6287  138.4255  155.4440 H   0  0  0  0  0  0  0  0  0  0  0  0
  153.8941  136.9197  154.9930 H   0  0  0  0  0  0  0  0  0  0  0  0
  152.6317  140.9590  158.0957 H   0  0  0  0  0  0  0  0  0  0  0  0
  150.8084  142.5655  159.5781 H   0  0  0  0  0  0  0  0  0  0  0  0
  152.5643  143.9391  157.5341 H   0  0  0  0  0  0  0  0  0  0  0  0
  150.8682  144.1323  157.8422 H   0  0  0  0  0  0  0  0  0  0  0  0
  153.2215  145.3815  159.2211 H   0  0  0  0  0  0  0  0  0  0  0  0
  151.7538  146.1017  158.6516 H   0  0  0  0  0  0  0  0  0  0  0  0
  151.4856  146.2719  160.9363 H   0  0  0  0  0  0  0  0  0  0  0  0
  150.5733  144.8194  160.6452 H   0  0  0  0  0  0  0  0  0  0  0  0
  153.5274  144.9031  161.5083 H   0  0  0  0  0  0  0  0  0  0  0  0
  152.2020  144.7923  162.6251 H   0  0  0  0  0  0  0  0  0  0  0  0
  153.2255  142.6066  162.2430 H   0  0  0  0  0  0  0  0  0  0  0  0
  151.5432  142.6023  161.8136 H   0  0  0  0  0  0  0  0  0  0  0  0
  153.0631  141.3577  160.2620 H   0  0  0  0  0  0  0  0  0  0  0  0
  153.8343  142.8385  159.7775 H   0  0  0  0  0  0  0  0  0  0  0  0
  149.2566  140.4050  155.1528 H   0  0  0  0  0  0  0  0  0  0  0  0
  149.6742  138.5375  153.6659 H   0  0  0  0  0  0  0  0  0  0  0  0
  1  2  1  0  0  0  0
  1 22  1  0  0  0  0
  1 23  1  0  0  0  0
  1 24  1  0  0  0  0
  2  3  1  0  0  0  0
  3  4  1  0  0  0  0
  3 25  1  0  0  0  0
  3 26  1  0  0  0  0
  4  5  1  0  0  0  0
  4 27  1  0  0  0  0
  4 28  1  0  0  0  0
  5 20  1  0  0  0  0
  5  6  1  0  0  0  0
  6  7  2  0  0  0  0
  7  8  1  0  0  0  0
  7 18  1  0  0  0  0
  8  9  2  0  0  0  0
  8 10  1  0  0  0  0
 10 11  1  0  0  0  0
 10 29  1  0  0  0  0
 11 17  1  0  0  0  0
 11 12  1  0  0  0  0
 11 30  1  0  0  0  0
 12 13  1  0  0  0  0
 12 31  1  0  0  0  0
 12 32  1  0  0  0  0
 13 14  1  0  0  0  0
 13 33  1  0  0  0  0
 13 34  1  0  0  0  0
 14 15  1  0  0  0  0
 14 35  1  0  0  0  0
 14 36  1  0  0  0  0
 15 16  1  0  0  0  0
 15 37  1  0  0  0  0
 15 38  1  0  0  0  0
 16 17  1  0  0  0  0
 16 39  1  0  0  0  0
 16 40  1  0  0  0  0
 17 41  1  0  0  0  0
 17 42  1  0  0  0  0
 18 19  2  0  0  0  0
 18 43  1  0  0  0  0
 19 20  1  0  0  0  0
 19 44  1  0  0  0  0
 20 21  2  0  0  0  0
M  END
> <s_m_source_file>
AV-unprocessed.smi

> <i_m_source_file_index>
1237

> <i_lp_mmshare_version>
43012

> <i_f3d_flags>
0

> <s_epik_input>
W0NIM11PW0NIMl1bQ0gyXW4xbmMoW2NIXVtjSF1jMT1PKUMoPU8pW05IXVtDSF0yW0NIMl1bQ0gyXVtDSDJdW0NIMl1bQ0gyXVtDSDJdMg==

> <s_epik_cmdline>
J2VwaWtfcHl0aG9uJywgJy1waCcsICc3LjAnLCAnLXRuJywgJzgnLCAnLW1hJywgJzIwMCcsICctbWV0YWxfYmluZGluZycsICctaW1hZScsICc8aW5maWxlLm1hZT4nLCAnLW9tYWUnLCAnPG91dGZpbGUubWFlPic=

> <r_lp_tautomer_probability>
1

> <r_epik_Ionization_Penalty>
5.81787e-07

> <r_epik_Ionization_Penalty_Charging>
6.75108e-09

> <r_epik_Ionization_Penalty_Neutral>
5.75036e-07

> <r_epik_State_Penalty>
-0

> <r_epik_Charging_Adjusted_Penalty>
6.75108e-09

> <i_epik_Tot_Q>
0

> <i_epik_Tot_abs_Q>
0

> <r_epik_Metal_State_Penalty>
-0

> <b_epik_Metal_Only>
0

> <s_lp_Force_Field>
OPLS_2005

> <r_lp_Energy>
36.1796

> <b_lp_Chiralities_Consistent>
1

> <s_lp_Variant>
AV-unprocessed.smi:1237-1

> <Gold.Version>
5.8.1

> <Gold.Id.Protein>
6NUR|6NUR_protein|mol2

> <Gold.PLP.Fitness>
48.6300

> <Gold.PLP.PLP>
-40.9368

> <Gold.PLP.part.hbond>
-3.0000

> <Gold.PLP.part.metal>
0.0000

> <Gold.PLP.part.buried>
-0.3762

> <Gold.PLP.part.nonpolar>
-40.3902

> <Gold.PLP.part.repulsive>
3.6626

> <Gold.PLP.ligand.clash>
0.0000

> <Gold.PLP.ligand.torsion>
0.3229

> <Gold.PLP.Chemscore.Hbond>
2.7640

> <Gold.PLP.Chemscore.CHOScore>
0.0000

> <Gold.PLP.Chemscore.Metal>
0.0000

> <Gold.Chemscore.Hbonds>
donor molecule, donor type, donor heavy atom, donor atom, acceptor molecule, acceptor atom, score
      P1  H  7997  8010       L1     6  0.57
      P1  H 10752 10763       L1     2  1.00
      P1  H 10752 10765       L1    21  1.00

> <Gold.PLP.Chemscore.Internal.Correction>
0.0469

> <Gold.Rescore>
     Score         DG    S(hbond)    S(metal)    S(lipo)     H(rot)  DE(clash)    DE(int)     intcor
     17.00     -21.29       1.85        0.00     116.11       1.55       3.17       1.12       ----

> <Gold.Chemscore.Fitness>
16.9985

> <Gold.Chemscore.DG>
-21.2883

> <Gold.Chemscore.ZeroCoef>
-5.4800

> <Gold.Chemscore.Hbond>
1.8521

> <Gold.Chemscore.Metal>
0.0000

> <Gold.Chemscore.Lipo>
116.1070

> <Gold.Chemscore.Internal_Hbond>
0.0000

> <Gold.Chemscore.DEClash>
3.1733

> <Gold.Chemscore.DEInternal>
1.1166

> <Gold.Chemscore.Rot>
1.5478

> <Gold.Chemscore.Internal.Correction>
   9.000000E+99

> <Gold.Chemscore.Hbonds>
donor molecule, donor type, donor heavy atom, donor atom, acceptor molecule, acceptor atom, score
      P1  H  7997  8010       L1     6  0.10
      P1  H 10752 10763       L1     2  0.33
      P1  H 10752 10765       L1    21  0.96

> <Gold.Chemscore.Hbond.Weighted>
-6.1861

> <Gold.Chemscore.Metal.Weighted>
-0.0000

> <Gold.Chemscore.Lipo.Weighted>
-13.5845

> <Gold.Chemscore.Internal_Hbond.Weighted>
0.0000

> <Gold.Chemscore.DEClash.Weighted>
3.1733

> <Gold.Chemscore.DEInternal.Weighted>
1.1166

> <Gold.Chemscore.Rot.Weighted>
3.9623

> <Gold.Chemscore.Internal.Correction.Weighted>
   9.000000E+99

> <Gold.Protein.RotatedTorsions>
[ 6907 6896 6895 6894 ] final -140.17 input  -60.11 | X-H torsion
[ 7974 7965 7964 7962 ] final  128.26 input  175.53 | X-H torsion
[ 8008 7997 7996 7995 ] final   64.19 input   59.86 | X-H torsion
[ 10167 10162 10161 10158 ] final  -57.17 input  -65.29 | X-H torsion
[ 10718 10713 10712 10709 ] final -151.99 input   66.30 | X-H torsion
[ 10763 10752 10751 10750 ] final  160.77 input  -60.55 | X-H torsion
[ 11005 11000 10999 10996 ] final -106.22 input  -57.11 | X-H torsion

> <Gold.Protein.ActiveResidues>
 VAL166  LYS551  ARG553  GLY616  TRP617  ASP618  TYR619  PRO620  LYS621  CYS622 
 ASP623  PHE694  ASN695  SER759  ASP760  ASP761  ALA762  ILE779  LEU786  VAL792 
 PHE793  MET794  SER795  GLU796  ALA797  LYS798  CYS799  TRP800  GLU811  SER814 

> <Gold.Protein.RotatedAtoms>
  151.0572  133.5574  159.2637 H   0  0  0  0  0  0  0  0  0  0  0  0  # atno 6907 bound_to 6896
  151.2563  135.0638  159.9091 H   0  0  0  0  0  0  0  0  0  0  0  0  # atno 6908 bound_to 6896
  152.5392  134.0325  159.8085 H   0  0  0  0  0  0  0  0  0  0  0  0  # atno 6909 bound_to 6896
  145.0415  139.3959  143.5100 H   0  0  0  0  0  0  0  0  0  0  0  0  # atno 7974 bound_to 7965
  155.6421  140.3497  155.4718 H   0  0  0  0  0  0  0  0  0  0  0  0  # atno 8008 bound_to 7997
  155.9917  140.1195  157.0655 H   0  0  0  0  0  0  0  0  0  0  0  0  # atno 8009 bound_to 7997
  154.4221  140.1118  156.5561 H   0  0  0  0  0  0  0  0  0  0  0  0  # atno 8010 bound_to 7997
  140.6274  143.2444  151.5328 H   0  0  0  0  0  0  0  0  0  0  0  0  # atno 10167 bound_to 10162
  156.4666  130.8238  151.2468 H   0  0  0  0  0  0  0  0  0  0  0  0  # atno 10718 bound_to 10713
  154.2525  135.2771  155.2811 H   0  0  0  0  0  0  0  0  0  0  0  0  # atno 10763 bound_to 10752
  154.5453  135.5691  153.6878 H   0  0  0  0  0  0  0  0  0  0  0  0  # atno 10764 bound_to 10752
  152.9978  135.6261  154.2673 H   0  0  0  0  0  0  0  0  0  0  0  0  # atno 10765 bound_to 10752
  141.1015  133.8875  157.1830 H   0  0  0  0  0  0  0  0  0  0  0  0  # atno 11005 bound_to 11000
  146.3510  140.0018  142.8675 LP  0  0  0  0  0  0  0  0  0  0  0  0  # atno 17320 bound_to 7965
  145.1642  140.9688  143.4359 LP  0  0  0  0  0  0  0  0  0  0  0  0  # atno 17321 bound_to 7965
  139.5492  144.2439  152.1500 LP  0  0  0  0  0  0  0  0  0  0  0  0  # atno 17342 bound_to 10162
  140.1674  144.4968  150.6598 LP  0  0  0  0  0  0  0  0  0  0  0  0  # atno 17343 bound_to 10162
  157.7494  131.0090  150.3250 LP  0  0  0  0  0  0  0  0  0  0  0  0  # atno 17370 bound_to 10713
  156.3662  130.3855  149.7212 LP  0  0  0  0  0  0  0  0  0  0  0  0  # atno 17371 bound_to 10713
  139.9868  135.0079  156.9882 LP  0  0  0  0  0  0  0  0  0  0  0  0  # atno 17394 bound_to 11000
  140.5010  134.1098  155.7250 LP  0  0  0  0  0  0  0  0  0  0  0  0  # atno 17395 bound_to 11000

$$$$
