AV-unprocessed.smi:1978|AV-procd|sdf|8004|dock3
  -GOLD-   2272010193D 1   1.00000     0.00000
 Structure written by MMmdl.
 44 45  0  0  0  0  0  0  0  0  3 V2000
  146.7094  135.9036  162.8933 C   0  0  0  0  0  0  0  0  0  0  0  0
  147.4435  135.9580  161.5973 C   0  0  0  0  0  0  0  0  0  0  0  0
  147.8415  134.9934  160.7157 C   0  0  0  0  0  0  0  0  0  0  0  0
  148.4811  135.7381  159.6872 C   0  0  0  0  0  0  0  0  0  0  0  0
  149.0523  135.2330  158.5830 N   0  5  0  0  0  0  0  0  0  0  0  0
  149.2328  136.0132  157.4933 C   0  0  0  0  0  0  0  0  0  0  0  0
  150.2080  136.7313  157.2608 O   0  0  0  0  0  0  0  0  0  0  0  0
  148.2193  135.9525  156.6185 N   0  0  0  0  0  0  0  0  0  0  0  0
  148.1408  136.6522  155.3398 C   0  0  0  0  0  0  0  0  0  0  0  0
  146.9333  136.1626  154.5090 C   0  0  2  0  0  0  0  0  0  0  0  0
  145.7288  135.7638  155.3906 C   0  0  0  0  0  0  0  0  0  0  0  0
  147.3300  135.0833  153.5462 N   0  3  1  0  0  0  0  0  0  0  0  0
  148.1010  133.9689  154.1741 C   0  0  0  0  0  0  0  0  0  0  0  0
  148.7159  133.0438  153.1149 C   0  0  0  0  0  0  0  0  0  0  0  0
  147.6260  132.4678  152.2095 C   0  0  0  0  0  0  0  0  0  0  0  0
  146.8157  133.6113  151.5916 C   0  0  0  0  0  0  0  0  0  0  0  0
  146.2326  134.5564  152.6661 C   0  0  2  0  0  0  0  0  0  0  0  0
  145.4126  135.6582  151.9636 C   0  0  0  0  0  0  0  0  0  0  0  0
  148.4890  137.0373  159.9335 N   0  0  0  0  0  0  0  0  0  0  0  0
  147.8197  137.1876  161.1537 O   0  0  0  0  0  0  0  0  0  0  0  0
  147.3050  135.3959  163.6518 H   0  0  0  0  0  0  0  0  0  0  0  0
  145.7701  135.3622  162.7811 H   0  0  0  0  0  0  0  0  0  0  0  0
  146.4794  136.9051  163.2580 H   0  0  0  0  0  0  0  0  0  0  0  0
  147.6929  133.9266  160.7897 H   0  0  0  0  0  0  0  0  0  0  0  0
  147.4428  135.3537  156.8594 H   0  0  0  0  0  0  0  0  0  0  0  0
  148.0528  137.7207  155.5406 H   0  0  0  0  0  0  0  0  0  0  0  0
  149.0696  136.5084  154.7891 H   0  0  0  0  0  0  0  0  0  0  0  0
  146.6366  137.0388  153.9375 H   0  0  0  0  0  0  0  0  0  0  0  0
  145.3742  136.6100  155.9795 H   0  0  0  0  0  0  0  0  0  0  0  0
  145.9858  134.9717  156.0938 H   0  0  0  0  0  0  0  0  0  0  0  0
  144.8843  135.4232  154.7925 H   0  0  0  0  0  0  0  0  0  0  0  0
  148.9095  134.3462  154.7964 H   0  0  0  0  0  0  0  0  0  0  0  0
  147.4487  133.3880  154.8274 H   0  0  0  0  0  0  0  0  0  0  0  0
  149.4422  133.5970  152.5178 H   0  0  0  0  0  0  0  0  0  0  0  0
  149.2629  132.2342  153.5991 H   0  0  0  0  0  0  0  0  0  0  0  0
  148.0705  131.8530  151.4263 H   0  0  0  0  0  0  0  0  0  0  0  0
  146.9692  131.8156  152.7865 H   0  0  0  0  0  0  0  0  0  0  0  0
  147.4515  134.1779  150.9097 H   0  0  0  0  0  0  0  0  0  0  0  0
  146.0127  133.1921  150.9840 H   0  0  0  0  0  0  0  0  0  0  0  0
  145.5477  133.9756  153.2855 H   0  0  0  0  0  0  0  0  0  0  0  0
  144.7439  135.2289  151.2167 H   0  0  0  0  0  0  0  0  0  0  0  0
  146.0582  136.3730  151.4523 H   0  0  0  0  0  0  0  0  0  0  0  0
  144.7748  136.2038  152.6585 H   0  0  0  0  0  0  0  0  0  0  0  0
  147.9740  135.5357  152.9133 H   0  0  0  0  0  0  0  0  0  0  0  0
  1  2  1  0  0  0  0
  1 21  1  0  0  0  0
  1 22  1  0  0  0  0
  1 23  1  0  0  0  0
  2 20  1  0  0  0  0
  2  3  2  0  0  0  0
  3  4  1  0  0  0  0
  3 24  1  0  0  0  0
  4  5  1  0  0  0  0
  4 19  2  0  0  0  0
  5  6  1  0  0  0  0
  6  7  2  0  0  0  0
  6  8  1  0  0  0  0
  8  9  1  0  0  0  0
  8 25  1  0  0  0  0
  9 10  1  0  0  0  0
  9 26  1  0  0  0  0
  9 27  1  0  0  0  0
 10 11  1  0  0  0  0
 10 12  1  0  0  0  0
 10 28  1  0  0  0  0
 11 29  1  0  0  0  0
 11 30  1  0  0  0  0
 11 31  1  0  0  0  0
 12 17  1  0  0  0  0
 12 13  1  0  0  0  0
 12 44  1  0  0  0  0
 13 14  1  0  0  0  0
 13 32  1  0  0  0  0
 13 33  1  0  0  0  0
 14 15  1  0  0  0  0
 14 34  1  0  0  0  0
 14 35  1  0  0  0  0
 15 16  1  0  0  0  0
 15 36  1  0  0  0  0
 15 37  1  0  0  0  0
 16 17  1  0  0  0  0
 16 38  1  0  0  0  0
 16 39  1  0  0  0  0
 17 18  1  0  0  0  0
 17 40  1  0  0  0  0
 18 41  1  0  0  0  0
 18 42  1  0  0  0  0
 18 43  1  0  0  0  0
 19 20  1  0  0  0  0
M  CHG  1   5  -1
M  CHG  1  12   1
M  END
> <s_m_source_file>
AV-unprocessed.smi

> <i_m_source_file_index>
1978

> <i_lp_mmshare_version>
43012

> <i_f3d_flags>
0

> <s_epik_input>
W0NIM11jMVtjSF1jKG5vMSlbTkhdQyg9TylbTkhdW0NIMl1bQ0BIXShbQ0gzXSlOMltDSDJdW0NIMl1bQ0gyXVtDSDJdW0NASF0yW0NIM10=

> <s_epik_cmdline>
J2VwaWtfcHl0aG9uJywgJy1waCcsICc3LjAnLCAnLXRuJywgJzgnLCAnLW1hJywgJzIwMCcsICctbWV0YWxfYmluZGluZycsICctaW1hZScsICc8aW5maWxlLm1hZT4nLCAnLW9tYWUnLCAnPG91dGZpbGUubWFlPic=

> <r_epik_Ionization_Penalty>
6.22372

> <r_epik_Ionization_Penalty_Charging>
6.22362

> <r_epik_Ionization_Penalty_Neutral>
9.65074e-05

> <r_epik_State_Penalty>
6.22363

> <r_epik_Charging_Adjusted_Penalty>
12.4472

> <i_epik_Tot_Q>
0

> <i_epik_Tot_abs_Q>
2

> <r_epik_Metal_State_Penalty>
2.16675

> <b_epik_Metal_Only>
1

> <s_lp_Force_Field>
OPLS_2005

> <r_lp_Energy>
13.293

> <b_lp_Chiralities_Consistent>
1

> <s_lp_Variant>
AV-unprocessed.smi:1978-13

> <Gold.Version>
5.8.1

> <Gold.Id.Protein>
6NUR|6NUR_protein|mol2

> <Gold.PLP.Fitness>
40.9941

> <Gold.PLP.PLP>
-26.6408

> <Gold.PLP.part.hbond>
-4.9401

> <Gold.PLP.part.metal>
0.0000

> <Gold.PLP.part.buried>
-0.3934

> <Gold.PLP.part.nonpolar>
-21.1954

> <Gold.PLP.part.repulsive>
0.0021

> <Gold.PLP.ligand.clash>
0.0000

> <Gold.PLP.ligand.torsion>
1.3909

> <Gold.PLP.Chemscore.Hbond>
5.6552

> <Gold.PLP.Chemscore.CHOScore>
0.0000

> <Gold.PLP.Chemscore.Metal>
0.0000

> <Gold.Chemscore.Hbonds>
donor molecule, donor type, donor heavy atom, donor atom, acceptor molecule, acceptor atom, score
      L1  H    12    44       P1  7948  2.00
      P1  H  6896  6909       L1     5  1.79
      P1  H  6931  6943       L1    20  0.77
      P1  H  6934  6947       L1    20  0.76

> <Gold.PLP.Chemscore.Internal.Correction>
0.1695

> <Gold.Rescore>
     Score         DG    S(hbond)    S(metal)    S(lipo)     H(rot)  DE(clash)    DE(int)     intcor
     15.08     -16.50       2.47        0.00      56.98       1.52       0.02       1.39       ----

> <Gold.Chemscore.Fitness>
15.0805

> <Gold.Chemscore.DG>
-16.4953

> <Gold.Chemscore.ZeroCoef>
-5.4800

> <Gold.Chemscore.Hbond>
2.4663

> <Gold.Chemscore.Metal>
0.0000

> <Gold.Chemscore.Lipo>
56.9769

> <Gold.Chemscore.Internal_Hbond>
0.0000

> <Gold.Chemscore.DEClash>
0.0230

> <Gold.Chemscore.DEInternal>
1.3918

> <Gold.Chemscore.Rot>
1.5190

> <Gold.Chemscore.Internal.Correction>
   9.000000E+99

> <Gold.Chemscore.Hbonds>
donor molecule, donor type, donor heavy atom, donor atom, acceptor molecule, acceptor atom, score
      L1  H    12    44       P1  7948  0.98
      P1  H  6896  6909       L1     5  0.24
      P1  H  6931  6943       L1    20  0.11
      P1  H  6934  6947       L1    20  0.17

> <Gold.Chemscore.Hbond.Weighted>
-8.2376

> <Gold.Chemscore.Metal.Weighted>
-0.0000

> <Gold.Chemscore.Lipo.Weighted>
-6.6663

> <Gold.Chemscore.Internal_Hbond.Weighted>
0.0000

> <Gold.Chemscore.DEClash.Weighted>
0.0230

> <Gold.Chemscore.DEInternal.Weighted>
1.3918

> <Gold.Chemscore.Rot.Weighted>
3.8886

> <Gold.Chemscore.Internal.Correction.Weighted>
   9.000000E+99

> <Gold.Protein.RotatedTorsions>
[ 6907 6896 6895 6894 ] final   22.91 input  -60.11 | X-H torsion
[ 7974 7965 7964 7962 ] final -121.27 input  175.53 | X-H torsion
[ 8008 7997 7996 7995 ] final -173.09 input   59.86 | X-H torsion
[ 10167 10162 10161 10158 ] final  -57.01 input  -65.29 | X-H torsion
[ 10718 10713 10712 10709 ] final -131.17 input   66.30 | X-H torsion
[ 10763 10752 10751 10750 ] final  127.69 input  -60.55 | X-H torsion
[ 11005 11000 10999 10996 ] final   -6.12 input  -57.11 | X-H torsion

> <Gold.Protein.ActiveResidues>
 VAL166  LYS551  ARG553  GLY616  TRP617  ASP618  TYR619  PRO620  LYS621  CYS622 
 ASP623  PHE694  ASN695  SER759  ASP760  ASP761  ALA762  ILE779  LEU786  VAL792 
 PHE793  MET794  SER795  GLU796  ALA797  LYS798  CYS799  TRP800  GLU811  SER814 

> <Gold.Protein.RotatedAtoms>
  151.9344  135.0242  160.0531 H   0  0  0  0  0  0  0  0  0  0  0  0  # atno 6907 bound_to 6896
  152.2091  133.4893  159.5108 H   0  0  0  0  0  0  0  0  0  0  0  0  # atno 6908 bound_to 6896
  150.6972  134.1408  159.4147 H   0  0  0  0  0  0  0  0  0  0  0  0  # atno 6909 bound_to 6896
  145.0421  140.8153  143.4260 H   0  0  0  0  0  0  0  0  0  0  0  0  # atno 7974 bound_to 7965
  155.9530  140.1130  157.0961 H   0  0  0  0  0  0  0  0  0  0  0  0  # atno 8008 bound_to 7997
  154.4114  140.1197  156.5144 H   0  0  0  0  0  0  0  0  0  0  0  0  # atno 8009 bound_to 7997
  155.6818  140.3473  155.4860 H   0  0  0  0  0  0  0  0  0  0  0  0  # atno 8010 bound_to 7997
  140.6284  143.2448  151.5305 H   0  0  0  0  0  0  0  0  0  0  0  0  # atno 10167 bound_to 10162
  156.2217  130.6982  151.0763 H   0  0  0  0  0  0  0  0  0  0  0  0  # atno 10718 bound_to 10713
  153.7135  135.3264  155.3251 H   0  0  0  0  0  0  0  0  0  0  0  0  # atno 10763 bound_to 10752
  154.8378  135.4482  154.1290 H   0  0  0  0  0  0  0  0  0  0  0  0  # atno 10764 bound_to 10752
  153.2390  135.6969  153.7884 H   0  0  0  0  0  0  0  0  0  0  0  0  # atno 10765 bound_to 10752
  140.6986  133.9009  155.8667 H   0  0  0  0  0  0  0  0  0  0  0  0  # atno 11005 bound_to 11000
  145.1634  139.2445  143.5380 LP  0  0  0  0  0  0  0  0  0  0  0  0  # atno 17320 bound_to 7965
  146.3510  140.1367  142.8595 LP  0  0  0  0  0  0  0  0  0  0  0  0  # atno 17321 bound_to 7965
  139.5501  144.2418  152.1514 LP  0  0  0  0  0  0  0  0  0  0  0  0  # atno 17342 bound_to 10162
  140.1656  144.4985  150.6608 LP  0  0  0  0  0  0  0  0  0  0  0  0  # atno 17343 bound_to 10162
  157.7091  131.0743  150.6565 LP  0  0  0  0  0  0  0  0  0  0  0  0  # atno 17370 bound_to 10713
  156.6629  130.4517  149.5682 LP  0  0  0  0  0  0  0  0  0  0  0  0  # atno 17371 bound_to 10713
  141.0182  134.0925  157.4149 LP  0  0  0  0  0  0  0  0  0  0  0  0  # atno 17394 bound_to 11000
  139.8903  135.0111  156.6728 LP  0  0  0  0  0  0  0  0  0  0  0  0  # atno 17395 bound_to 11000

$$$$
