AV-unprocessed.smi:72|AV-procd|sdf|701|dock1
  -GOLD-   2262017 23D 1   1.00000     0.00000
 Structure written by MMmdl.
 30 31  0  0  0  0  0  0  0  0  2 V2000
  145.5009  136.1830  149.6670 N   0  0  0  0  0  0  0  0  0  0  0  0
  145.7647  136.8103  150.8666 C   0  0  0  0  0  0  0  0  0  0  0  0
  146.4641  138.0024  150.8280 N   0  3  0  0  0  0  0  0  0  0  0  0
  146.8144  138.7266  151.8994 C   0  0  0  0  0  0  0  0  0  0  0  0
  146.5085  138.2809  153.1033 N   0  0  0  0  0  0  0  0  0  0  0  0
  146.8675  139.0483  154.3562 C   0  0  2  0  0  0  0  0  0  0  0  0
  146.2639  140.3008  154.2983 O   0  0  0  0  0  0  0  0  0  0  0  0
  147.1483  141.2116  153.6591 C   0  0  1  0  0  0  0  0  0  0  0  0
  146.7194  142.6554  153.9571 C   0  0  0  0  0  0  0  0  0  0  0  0
  145.3270  142.7875  153.7660 O   0  0  0  0  0  0  0  0  0  0  0  0
  148.4955  140.8252  154.2738 C   0  0  2  0  0  0  0  0  0  0  0  0
  149.5457  141.1508  153.3858 O   0  0  0  0  0  0  0  0  0  0  0  0
  148.3885  139.3100  154.4450 C   0  0  1  0  0  0  0  0  0  0  0  0
  148.9095  138.9172  155.6979 O   0  0  0  0  0  0  0  0  0  0  0  0
  145.7331  137.0993  153.2375 C   0  0  0  0  0  0  0  0  0  0  0  0
  145.3703  136.7169  154.3495 O   0  0  0  0  0  0  0  0  0  0  0  0
  145.4173  136.4098  152.0582 N   0  0  0  0  0  0  0  0  0  0  0  0
  146.4529  138.4574  155.1751 H   0  0  0  0  0  0  0  0  0  0  0  0
  147.1671  141.0232  152.5834 H   0  0  0  0  0  0  0  0  0  0  0  0
  148.6335  141.3254  155.2342 H   0  0  0  0  0  0  0  0  0  0  0  0
  148.9157  138.7806  153.6499 H   0  0  0  0  0  0  0  0  0  0  0  0
  144.9900  135.3142  149.5981 H   0  0  0  0  0  0  0  0  0  0  0  0
  145.7934  136.5376  148.7676 H   0  0  0  0  0  0  0  0  0  0  0  0
  147.3289  139.6657  151.7434 H   0  0  0  0  0  0  0  0  0  0  0  0
  146.9965  142.9534  154.9689 H   0  0  0  0  0  0  0  0  0  0  0  0
  147.2122  143.3430  153.2691 H   0  0  0  0  0  0  0  0  0  0  0  0
  144.9842  141.9564  153.4741 H   0  0  0  0  0  0  0  0  0  0  0  0
  149.5947  140.4793  152.7219 H   0  0  0  0  0  0  0  0  0  0  0  0
  148.7825  139.6243  156.3130 H   0  0  0  0  0  0  0  0  0  0  0  0
  146.7264  138.3547  149.9183 H   0  0  0  0  0  0  0  0  0  0  0  0
  1  2  1  0  0  0  0
  1 22  1  0  0  0  0
  1 23  1  0  0  0  0
  2 17  2  0  0  0  0
  2  3  1  0  0  0  0
  3  4  2  0  0  0  0
  3 30  1  0  0  0  0
  4  5  1  0  0  0  0
  4 24  1  0  0  0  0
  5  6  1  0  0  0  0
  5 15  1  0  0  0  0
  6 18  1  0  0  0  0
  6 13  1  0  0  0  0
  6  7  1  0  0  0  0
  7  8  1  0  0  0  0
  8 19  1  0  0  0  0
  8  9  1  0  0  0  0
  8 11  1  0  0  0  0
  9 10  1  0  0  0  0
  9 25  1  0  0  0  0
  9 26  1  0  0  0  0
 10 27  1  0  0  0  0
 11 20  1  0  0  0  0
 11 12  1  0  0  0  0
 11 13  1  0  0  0  0
 12 28  1  0  0  0  0
 13 21  1  0  0  0  0
 13 14  1  0  0  0  0
 14 29  1  0  0  0  0
 15 16  2  0  0  0  0
 15 17  1  0  0  0  0
M  CHG  1   3   1
M  END
> <s_m_source_file>
AV-unprocessed.smi

> <i_m_source_file_index>
72

> <i_lp_mmshare_version>
43012

> <i_f3d_flags>
0

> <s_epik_input>
W05IMl1jMW5bY0hdbihjKD1PKW4xKVtDQEBIXTJPW0NASF0oW0NIMl1bT0hdKVtDQEBIXShbT0hdKVtDQEhdMltPSF0=

> <s_epik_cmdline>
J2VwaWtfcHl0aG9uJywgJy1waCcsICc3LjAnLCAnLXRuJywgJzgnLCAnLW1hJywgJzIwMCcsICctbWV0YWxfYmluZGluZycsICctaW1hZScsICc8aW5maWxlLm1hZT4nLCAnLW9tYWUnLCAnPG91dGZpbGUubWFlPic=

> <r_lp_tautomer_probability>
4.77166e-05

> <r_epik_Ionization_Penalty>
0.104979

> <r_epik_Ionization_Penalty_Charging>
0.0999619

> <r_epik_Ionization_Penalty_Neutral>
0.00501745

> <r_epik_State_Penalty>
2.51541

> <r_epik_Charging_Adjusted_Penalty>
2.61537

> <i_epik_Tot_Q>
1

> <i_epik_Tot_abs_Q>
1

> <r_epik_Metal_State_Penalty>
3.53763

> <b_epik_Metal_Only>
0

> <s_epik_Chemistry_Notes>
This compound contains an acetal/aminal-like group ( X-CH(R)-Y where X, Y are N, S, or O) that may be acid/base labile, releasing an aldehyde.

> <s_lp_Force_Field>
OPLS_2005

> <r_lp_Energy>
25.3585

> <b_lp_Chiralities_Consistent>
1

> <s_lp_Variant>
AV-unprocessed.smi:72-39

> <Gold.Version>
5.8.1

> <Gold.Id.Protein>
6NUR|6NUR_protein|mol2

> <Gold.PLP.Fitness>
36.5828

> <Gold.PLP.PLP>
-26.4579

> <Gold.PLP.part.hbond>
-7.5773

> <Gold.PLP.part.metal>
0.0000

> <Gold.PLP.part.buried>
-2.7968

> <Gold.PLP.part.nonpolar>
-17.4496

> <Gold.PLP.part.repulsive>
0.5231

> <Gold.PLP.ligand.clash>
0.0000

> <Gold.PLP.ligand.torsion>
0.1768

> <Gold.PLP.Chemscore.Hbond>
2.4776

> <Gold.PLP.Chemscore.CHOScore>
1.0000

> <Gold.PLP.Chemscore.Metal>
0.0000

> <Gold.Chemscore.Hbonds>
donor molecule, donor type, donor heavy atom, donor atom, acceptor molecule, acceptor atom, score
      L1  H     1    23       P1  7921  0.11
      L1  H    10    27       P1 10175  0.16
      L1  H    12    28       P1  7957  0.99
      P1  H  7989  7998       L1    12  0.02
      P1  H  8011  8017       L1    12  0.75
      L1  C     4    24       P1  7957  0.97

> <Gold.PLP.Chemscore.Internal.Correction>
0.0458

> <Gold.Rescore>
     Score         DG    S(hbond)    S(metal)    S(lipo)     H(rot)  DE(clash)    DE(int)     intcor
      2.74      -3.47       1.61        0.00      26.27       4.08       0.35       0.38       ----

> <Gold.Chemscore.Fitness>
2.7432

> <Gold.Chemscore.DG>
-3.4748

> <Gold.Chemscore.ZeroCoef>
-5.4800

> <Gold.Chemscore.Hbond>
1.6052

> <Gold.Chemscore.Metal>
0.0000

> <Gold.Chemscore.Lipo>
26.2714

> <Gold.Chemscore.Internal_Hbond>
0.0000

> <Gold.Chemscore.DEClash>
0.3475

> <Gold.Chemscore.DEInternal>
0.3841

> <Gold.Chemscore.Rot>
4.0783

> <Gold.Chemscore.Internal.Correction>
   9.000000E+99

> <Gold.Chemscore.Hbonds>
donor molecule, donor type, donor heavy atom, donor atom, acceptor molecule, acceptor atom, score
      L1  H     1    23       P1  7921  0.12
      L1  H    12    28       P1  7957  0.94
      P1  H  8011  8017       L1    12  0.09

> <Gold.Chemscore.Hbond.Weighted>
-5.3615

> <Gold.Chemscore.Metal.Weighted>
-0.0000

> <Gold.Chemscore.Lipo.Weighted>
-3.0738

> <Gold.Chemscore.Internal_Hbond.Weighted>
0.0000

> <Gold.Chemscore.DEClash.Weighted>
0.3475

> <Gold.Chemscore.DEInternal.Weighted>
0.3841

> <Gold.Chemscore.Rot.Weighted>
10.4404

> <Gold.Chemscore.Internal.Correction.Weighted>
   9.000000E+99

> <Gold.Protein.RotatedTorsions>
[ 6907 6896 6895 6894 ] final  -96.03 input  -60.11 | X-H torsion
[ 7974 7965 7964 7962 ] final   64.81 input  175.53 | X-H torsion
[ 8008 7997 7996 7995 ] final -127.97 input   59.86 | X-H torsion
[ 10167 10162 10161 10158 ] final   50.63 input  -65.29 | X-H torsion
[ 10718 10713 10712 10709 ] final   79.47 input   66.30 | X-H torsion
[ 10763 10752 10751 10750 ] final  109.58 input  -60.55 | X-H torsion
[ 11005 11000 10999 10996 ] final  -96.93 input  -57.11 | X-H torsion

> <Gold.Protein.ActiveResidues>
 VAL166  LYS551  ARG553  GLY616  TRP617  ASP618  TYR619  PRO620  LYS621  CYS622 
 ASP623  PHE694  ASN695  SER759  ASP760  ASP761  ALA762  ILE779  LEU786  VAL792 
 PHE793  MET794  SER795  GLU796  ALA797  LYS798  CYS799  TRP800  GLU811  SER814 

> <Gold.Protein.RotatedAtoms>
  150.6978  134.1567  159.4160 H   0  0  0  0  0  0  0  0  0  0  0  0  # atno 6907 bound_to 6896
  151.9548  135.0149  160.0553 H   0  0  0  0  0  0  0  0  0  0  0  0  # atno 6908 bound_to 6896
  152.1979  133.4784  159.5079 H   0  0  0  0  0  0  0  0  0  0  0  0  # atno 6909 bound_to 6896
  145.8459  139.3224  143.0904 H   0  0  0  0  0  0  0  0  0  0  0  0  # atno 7974 bound_to 7965
  155.2550  140.0434  157.2991 H   0  0  0  0  0  0  0  0  0  0  0  0  # atno 8008 bound_to 7997
  154.5745  140.2383  155.8112 H   0  0  0  0  0  0  0  0  0  0  0  0  # atno 8009 bound_to 7997
  156.2148  140.2988  155.9822 H   0  0  0  0  0  0  0  0  0  0  0  0  # atno 8010 bound_to 7997
  140.2704  144.3272  150.6292 H   0  0  0  0  0  0  0  0  0  0  0  0  # atno 10167 bound_to 10162
  157.6777  130.9915  150.1937 H   0  0  0  0  0  0  0  0  0  0  0  0  # atno 10718 bound_to 10713
  153.4367  135.3775  155.2203 H   0  0  0  0  0  0  0  0  0  0  0  0  # atno 10763 bound_to 10752
  154.8752  135.3853  154.4202 H   0  0  0  0  0  0  0  0  0  0  0  0  # atno 10764 bound_to 10752
  153.4742  135.7087  153.6039 H   0  0  0  0  0  0  0  0  0  0  0  0  # atno 10765 bound_to 10752
  141.1395  133.8134  157.0638 H   0  0  0  0  0  0  0  0  0  0  0  0  # atno 11005 bound_to 11000
  145.9413  140.8978  143.0306 LP  0  0  0  0  0  0  0  0  0  0  0  0  # atno 17320 bound_to 7965
  144.6731  140.1552  143.7427 LP  0  0  0  0  0  0  0  0  0  0  0  0  # atno 17321 bound_to 7965
  140.5894  143.2168  151.7281 LP  0  0  0  0  0  0  0  0  0  0  0  0  # atno 17342 bound_to 10162
  139.4990  144.3962  152.0229 LP  0  0  0  0  0  0  0  0  0  0  0  0  # atno 17343 bound_to 10162
  156.2643  130.3714  149.8098 LP  0  0  0  0  0  0  0  0  0  0  0  0  # atno 17370 bound_to 10713
  156.5834  130.8475  151.3389 LP  0  0  0  0  0  0  0  0  0  0  0  0  # atno 17371 bound_to 10713
  140.0554  134.9783  157.1212 LP  0  0  0  0  0  0  0  0  0  0  0  0  # atno 17394 bound_to 11000
  140.3927  134.2167  155.7165 LP  0  0  0  0  0  0  0  0  0  0  0  0  # atno 17395 bound_to 11000

$$$$
