AV-unprocessed.smi:332|AV-procd|sdf|2355|dock8
  -GOLD-   2262022263D 1   1.00000     0.00000
 Structure written by MMmdl.
 42 44  0  0  0  0  0  0  0  0  1 V2000
  151.0044  140.2591  157.3777 C   0  0  0  0  0  0  0  0  0  0  0  0
  150.9676  141.7521  157.0091 C   0  0  1  0  0  0  0  0  0  0  0  0
  149.9203  141.9917  156.0220 N   0  0  0  0  0  0  0  0  0  0  0  0
  149.6553  141.2306  154.9469 C   0  0  0  0  0  0  0  0  0  0  0  0
  150.2624  140.1891  154.7008 O   0  0  0  0  0  0  0  0  0  0  0  0
  148.5554  141.7023  153.9799 C   0  0  0  0  0  0  0  0  0  0  0  0
  147.2087  141.7870  154.5736 N   0  0  0  0  0  0  0  0  0  0  0  0
  146.4953  142.9837  154.3618 C   0  0  0  0  0  0  0  0  0  0  0  0
  145.2687  143.1792  154.8704 C   0  0  0  0  0  0  0  0  0  0  0  0
  144.6778  142.1195  155.6525 C   0  0  0  0  0  0  0  0  0  0  0  0
  145.3532  140.9724  155.8651 C   0  0  0  0  0  0  0  0  0  0  0  0
  146.6978  140.7577  155.3178 C   0  0  0  0  0  0  0  0  0  0  0  0
  147.3289  139.7211  155.5236 O   0  0  0  0  0  0  0  0  0  0  0  0
  150.7195  142.6480  158.2454 C   0  0  1  0  0  0  0  0  0  0  0  0
  151.7223  142.4476  159.4037 C   0  0  0  0  0  0  0  0  0  0  0  0
  152.1659  143.8860  159.7303 C   0  0  1  0  0  0  0  0  0  0  0  0
  153.1072  144.3866  158.6192 C   0  0  0  0  0  0  0  0  0  0  0  0
  152.1455  144.6147  157.4389 C   0  0  0  0  0  0  0  0  0  0  0  0
  150.7839  144.1804  158.0190 C   0  0  2  0  0  0  0  0  0  0  0  0
  150.8984  144.6863  159.4532 C   0  0  0  0  0  0  0  0  0  0  0  0
  151.7891  140.0497  158.1047 H   0  0  0  0  0  0  0  0  0  0  0  0
  151.2012  139.6409  156.5014 H   0  0  0  0  0  0  0  0  0  0  0  0
  150.0571  139.9327  157.8079 H   0  0  0  0  0  0  0  0  0  0  0  0
  151.9325  142.0151  156.5728 H   0  0  0  0  0  0  0  0  0  0  0  0
  149.3696  142.8283  156.1482 H   0  0  0  0  0  0  0  0  0  0  0  0
  148.8459  142.6788  153.5895 H   0  0  0  0  0  0  0  0  0  0  0  0
  148.5544  141.0433  153.1101 H   0  0  0  0  0  0  0  0  0  0  0  0
  147.0115  143.7282  153.7727 H   0  0  0  0  0  0  0  0  0  0  0  0
  144.7395  144.1056  154.7021 H   0  0  0  0  0  0  0  0  0  0  0  0
  143.6896  142.2469  156.0692 H   0  0  0  0  0  0  0  0  0  0  0  0
  144.8950  140.1910  156.4535 H   0  0  0  0  0  0  0  0  0  0  0  0
  149.7193  142.4233  158.6211 H   0  0  0  0  0  0  0  0  0  0  0  0
  151.2288  141.9857  160.2595 H   0  0  0  0  0  0  0  0  0  0  0  0
  152.5698  141.8173  159.1322 H   0  0  0  0  0  0  0  0  0  0  0  0
  152.5755  144.0005  160.7342 H   0  0  0  0  0  0  0  0  0  0  0  0
  153.5886  145.3220  158.9073 H   0  0  0  0  0  0  0  0  0  0  0  0
  153.8908  143.6650  158.3840 H   0  0  0  0  0  0  0  0  0  0  0  0
  152.1227  145.6713  157.1696 H   0  0  0  0  0  0  0  0  0  0  0  0
  152.4323  144.0609  156.5456 H   0  0  0  0  0  0  0  0  0  0  0  0
  149.9302  144.5781  157.4688 H   0  0  0  0  0  0  0  0  0  0  0  0
  150.0567  144.3979  160.0856 H   0  0  0  0  0  0  0  0  0  0  0  0
  151.0437  145.7658  159.5226 H   0  0  0  0  0  0  0  0  0  0  0  0
  1  2  1  0  0  0  0
  1 21  1  0  0  0  0
  1 22  1  0  0  0  0
  1 23  1  0  0  0  0
  2  3  1  0  0  0  0
  2 14  1  0  0  0  0
  2 24  1  0  0  0  0
  3  4  1  0  0  0  0
  3 25  1  0  0  0  0
  4  5  2  0  0  0  0
  4  6  1  0  0  0  0
  6  7  1  0  0  0  0
  6 26  1  0  0  0  0
  6 27  1  0  0  0  0
  7 12  1  0  0  0  0
  7  8  1  0  0  0  0
  8  9  2  0  0  0  0
  8 28  1  0  0  0  0
  9 10  1  0  0  0  0
  9 29  1  0  0  0  0
 10 11  2  0  0  0  0
 10 30  1  0  0  0  0
 11 12  1  0  0  0  0
 11 31  1  0  0  0  0
 12 13  2  0  0  0  0
 14 19  1  0  0  0  0
 14 15  1  0  0  0  0
 14 32  1  0  0  0  0
 15 16  1  0  0  0  0
 15 33  1  0  0  0  0
 15 34  1  0  0  0  0
 16 20  1  0  0  0  0
 16 17  1  0  0  0  0
 16 35  1  0  0  0  0
 17 18  1  0  0  0  0
 17 36  1  0  0  0  0
 17 37  1  0  0  0  0
 18 19  1  0  0  0  0
 18 38  1  0  0  0  0
 18 39  1  0  0  0  0
 19 20  1  0  0  0  0
 19 40  1  0  0  0  0
 20 41  1  0  0  0  0
 20 42  1  0  0  0  0
M  END
> <s_m_source_file>
AV-unprocessed.smi

> <i_m_source_file_index>
332

> <i_lp_mmshare_version>
43012

> <i_f3d_flags>
0

> <s_epik_input>
W0NIMl0xW0NIMl1bQ0BIXShbQ0gyXTIpW0NAQEhdKFtDSDJdW0NAQEhdMTIpW0NASF0oW0NIM10pW05IXUMoPU8pW0NIMl1uM1tjSF1bY0hdW2NIXVtjSF1jMz1P

> <s_epik_cmdline>
J2VwaWtfcHl0aG9uJywgJy1waCcsICc3LjAnLCAnLXRuJywgJzgnLCAnLW1hJywgJzIwMCcsICctbWV0YWxfYmluZGluZycsICctaW1hZScsICc8aW5maWxlLm1hZT4nLCAnLW9tYWUnLCAnPG91dGZpbGUubWFlPic=

> <r_lp_tautomer_probability>
1

> <r_epik_Ionization_Penalty>
4.05802e-07

> <r_epik_Ionization_Penalty_Charging>
3.84175e-07

> <r_epik_Ionization_Penalty_Neutral>
2.16269e-08

> <r_epik_State_Penalty>
-0

> <r_epik_Charging_Adjusted_Penalty>
3.84175e-07

> <i_epik_Tot_Q>
0

> <i_epik_Tot_abs_Q>
0

> <r_epik_Metal_State_Penalty>
-0

> <b_epik_Metal_Only>
0

> <s_lp_Force_Field>
OPLS_2005

> <r_lp_Energy>
59.7758

> <b_lp_Chiralities_Consistent>
1

> <s_lp_Variant>
AV-unprocessed.smi:332-4

> <Gold.Version>
5.8.1

> <Gold.Id.Protein>
6NUR|6NUR_protein|mol2

> <Gold.PLP.Fitness>
46.6659

> <Gold.PLP.PLP>
-40.9645

> <Gold.PLP.part.hbond>
-2.0000

> <Gold.PLP.part.metal>
0.0000

> <Gold.PLP.part.buried>
-1.9065

> <Gold.PLP.part.nonpolar>
-36.3860

> <Gold.PLP.part.repulsive>
0.1939

> <Gold.PLP.ligand.clash>
0.0000

> <Gold.PLP.ligand.torsion>
0.3264

> <Gold.PLP.Chemscore.Hbond>
2.0000

> <Gold.PLP.Chemscore.CHOScore>
0.1096

> <Gold.PLP.Chemscore.Metal>
0.0000

> <Gold.Chemscore.Hbonds>
donor molecule, donor type, donor heavy atom, donor atom, acceptor molecule, acceptor atom, score
      L1  H     3    25       P1  8028  1.00
      P1  H  7989  7998       L1     5  1.00
      L1  C     8    28       P1  8028  0.11

> <Gold.PLP.Chemscore.Internal.Correction>
0.0252

> <Gold.Rescore>
     Score         DG    S(hbond)    S(metal)    S(lipo)     H(rot)  DE(clash)    DE(int)     intcor
     15.74     -20.03       1.51        0.00     115.08       1.54       1.05       3.25       ----

> <Gold.Chemscore.Fitness>
15.7386

> <Gold.Chemscore.DG>
-20.0349

> <Gold.Chemscore.ZeroCoef>
-5.4800

> <Gold.Chemscore.Hbond>
1.5067

> <Gold.Chemscore.Metal>
0.0000

> <Gold.Chemscore.Lipo>
115.0806

> <Gold.Chemscore.Internal_Hbond>
0.0000

> <Gold.Chemscore.DEClash>
1.0462

> <Gold.Chemscore.DEInternal>
3.2501

> <Gold.Chemscore.Rot>
1.5398

> <Gold.Chemscore.Internal.Correction>
   9.000000E+99

> <Gold.Chemscore.Hbonds>
donor molecule, donor type, donor heavy atom, donor atom, acceptor molecule, acceptor atom, score
      L1  H     3    25       P1  8028  0.92
      P1  H  7989  7998       L1     5  0.25

> <Gold.Chemscore.Hbond.Weighted>
-5.0324

> <Gold.Chemscore.Metal.Weighted>
-0.0000

> <Gold.Chemscore.Lipo.Weighted>
-13.4644

> <Gold.Chemscore.Internal_Hbond.Weighted>
0.0000

> <Gold.Chemscore.DEClash.Weighted>
1.0462

> <Gold.Chemscore.DEInternal.Weighted>
3.2501

> <Gold.Chemscore.Rot.Weighted>
3.9419

> <Gold.Chemscore.Internal.Correction.Weighted>
   9.000000E+99

> <Gold.Protein.RotatedTorsions>
[ 6907 6896 6895 6894 ] final  -35.19 input  -60.11 | X-H torsion
[ 7974 7965 7964 7962 ] final   66.05 input  175.53 | X-H torsion
[ 8008 7997 7996 7995 ] final  -36.51 input   59.86 | X-H torsion
[ 10167 10162 10161 10158 ] final -175.49 input  -65.29 | X-H torsion
[ 10718 10713 10712 10709 ] final   89.30 input   66.30 | X-H torsion
[ 10763 10752 10751 10750 ] final   94.69 input  -60.55 | X-H torsion
[ 11005 11000 10999 10996 ] final  134.70 input  -57.11 | X-H torsion

> <Gold.Protein.ActiveResidues>
 VAL166  LYS551  ARG553  GLY616  TRP617  ASP618  TYR619  PRO620  LYS621  CYS622 
 ASP623  PHE694  ASN695  SER759  ASP760  ASP761  ALA762  ILE779  LEU786  VAL792 
 PHE793  MET794  SER795  GLU796  ALA797  LYS798  CYS799  TRP800  GLU811  SER814 

> <Gold.Protein.RotatedAtoms>
  151.0429  134.9620  159.8170 H   0  0  0  0  0  0  0  0  0  0  0  0  # atno 6907 bound_to 6896
  152.5367  134.2635  159.8954 H   0  0  0  0  0  0  0  0  0  0  0  0  # atno 6908 bound_to 6896
  151.2648  133.4241  159.2652 H   0  0  0  0  0  0  0  0  0  0  0  0  # atno 6909 bound_to 6896
  145.8312  139.3140  143.0986 H   0  0  0  0  0  0  0  0  0  0  0  0  # atno 7974 bound_to 7965
  154.4071  140.1629  156.2386 H   0  0  0  0  0  0  0  0  0  0  0  0  # atno 8008 bound_to 7997
  155.9221  140.3420  155.6158 H   0  0  0  0  0  0  0  0  0  0  0  0  # atno 8009 bound_to 7997
  155.7210  140.0768  157.2321 H   0  0  0  0  0  0  0  0  0  0  0  0  # atno 8010 bound_to 7997
  139.5578  144.1944  152.1189 H   0  0  0  0  0  0  0  0  0  0  0  0  # atno 10167 bound_to 10162
  157.6954  131.0328  150.3406 H   0  0  0  0  0  0  0  0  0  0  0  0  # atno 10718 bound_to 10713
  153.2446  135.4280  155.0734 H   0  0  0  0  0  0  0  0  0  0  0  0  # atno 10763 bound_to 10752
  154.8355  135.3411  154.6600 H   0  0  0  0  0  0  0  0  0  0  0  0  # atno 10764 bound_to 10752
  153.7023  135.7027  153.5116 H   0  0  0  0  0  0  0  0  0  0  0  0  # atno 10765 bound_to 10752
  139.9932  134.9507  156.9904 H   0  0  0  0  0  0  0  0  0  0  0  0  # atno 11005 bound_to 11000
  145.9569  140.8866  143.0230 LP  0  0  0  0  0  0  0  0  0  0  0  0  # atno 17320 bound_to 7965
  144.6739  140.1758  143.7410 LP  0  0  0  0  0  0  0  0  0  0  0  0  # atno 17321 bound_to 7965
  140.1452  144.5165  150.6720 LP  0  0  0  0  0  0  0  0  0  0  0  0  # atno 17342 bound_to 10162
  140.6854  143.2347  151.5274 LP  0  0  0  0  0  0  0  0  0  0  0  0  # atno 17343 bound_to 10162
  156.3867  130.3890  149.7060 LP  0  0  0  0  0  0  0  0  0  0  0  0  # atno 17370 bound_to 10713
  156.4424  130.7867  151.2889 LP  0  0  0  0  0  0  0  0  0  0  0  0  # atno 17371 bound_to 10713
  140.4868  134.1233  155.7226 LP  0  0  0  0  0  0  0  0  0  0  0  0  # atno 17394 bound_to 11000
  141.1583  133.8841  157.1918 LP  0  0  0  0  0  0  0  0  0  0  0  0  # atno 17395 bound_to 11000

$$$$
