AV-unprocessed.smi:712|AV-procd|sdf|3470|dock4
  -GOLD-   22720 0463D 1   1.00000     0.00000
 Structure written by MMmdl.
 51 52  0  0  0  0  0  0  0  0  2 V2000
  153.2058  142.7655  161.2976 C   0  0  0  0  0  0  0  0  0  0  0  0
  152.6637  142.4444  159.9200 C   0  0  0  0  0  0  0  0  0  0  0  0
  151.7720  143.3627  159.2426 C   0  0  0  0  0  0  0  0  0  0  0  0
  151.3127  143.0470  158.0217 C   0  0  0  0  0  0  0  0  0  0  0  0
  151.6712  141.8477  157.3799 N   0  0  0  0  0  0  0  0  0  0  0  0
  151.1056  141.6029  156.0426 C   0  0  0  0  0  0  0  0  0  0  0  0
  150.3414  140.2750  155.9513 C   0  0  0  0  0  0  0  0  0  0  0  0
  150.6058  139.4586  155.0679 O   0  0  0  0  0  0  0  0  0  0  0  0
  149.3973  140.0710  156.8822 N   0  0  0  0  0  0  0  0  0  0  0  0
  148.5228  138.9049  156.9485 C   0  0  0  0  0  0  0  0  0  0  0  0
  147.6287  138.7984  155.6997 C   0  0  2  0  0  0  0  0  0  0  0  0
  148.1445  137.7232  154.7173 C   0  0  0  0  0  0  0  0  0  0  0  0
  147.3452  137.6893  153.4645 N   0  3  1  0  0  0  0  0  0  0  0  0
  146.0300  137.0011  153.5760 C   0  0  0  0  0  0  0  0  0  0  0  0
  145.1591  137.1476  152.3091 C   0  0  0  0  0  0  0  0  0  0  0  0
  143.6581  137.0439  152.6281 C   0  0  0  0  0  0  0  0  0  0  0  0
  145.5564  136.1003  151.2581 C   0  0  0  0  0  0  0  0  0  0  0  0
  147.2557  139.0454  152.8704 C   0  0  0  0  0  0  0  0  0  0  0  0
  146.7556  140.0712  153.9024 C   0  0  0  0  0  0  0  0  0  0  0  0
  147.6197  140.0559  155.0305 O   0  0  0  0  0  0  0  0  0  0  0  0
  152.5020  140.9344  157.9678 C   0  0  0  0  0  0  0  0  0  0  0  0
  152.8102  139.8775  157.4149 O   0  0  0  0  0  0  0  0  0  0  0  0
  153.0013  141.2917  159.3007 C   0  0  0  0  0  0  0  0  0  0  0  0
  152.9195  143.7700  161.6100 H   0  0  0  0  0  0  0  0  0  0  0  0
  154.2946  142.7059  161.3022 H   0  0  0  0  0  0  0  0  0  0  0  0
  152.8191  142.0573  162.0308 H   0  0  0  0  0  0  0  0  0  0  0  0
  151.4746  144.2893  159.7116 H   0  0  0  0  0  0  0  0  0  0  0  0
  150.6401  143.6847  157.4666 H   0  0  0  0  0  0  0  0  0  0  0  0
  150.4248  142.4057  155.7561 H   0  0  0  0  0  0  0  0  0  0  0  0
  151.9026  141.6224  155.2965 H   0  0  0  0  0  0  0  0  0  0  0  0
  149.2558  140.7889  157.5781 H   0  0  0  0  0  0  0  0  0  0  0  0
  149.1014  137.9904  157.0908 H   0  0  0  0  0  0  0  0  0  0  0  0
  147.9003  139.0153  157.8368 H   0  0  0  0  0  0  0  0  0  0  0  0
  146.6157  138.5539  156.0230 H   0  0  0  0  0  0  0  0  0  0  0  0
  149.1773  137.9496  154.4480 H   0  0  0  0  0  0  0  0  0  0  0  0
  148.1672  136.7449  155.1952 H   0  0  0  0  0  0  0  0  0  0  0  0
  146.1784  135.9482  153.8152 H   0  0  0  0  0  0  0  0  0  0  0  0
  145.4743  137.4211  154.4158 H   0  0  0  0  0  0  0  0  0  0  0  0
  145.3389  138.1236  151.8596 H   0  0  0  0  0  0  0  0  0  0  0  0
  143.4141  136.0821  153.0806 H   0  0  0  0  0  0  0  0  0  0  0  0
  143.0578  137.1464  151.7236 H   0  0  0  0  0  0  0  0  0  0  0  0
  143.3399  137.8267  153.3172 H   0  0  0  0  0  0  0  0  0  0  0  0
  145.3959  135.0862  151.6263 H   0  0  0  0  0  0  0  0  0  0  0  0
  146.6086  136.1933  150.9873 H   0  0  0  0  0  0  0  0  0  0  0  0
  144.9723  136.2182  150.3448 H   0  0  0  0  0  0  0  0  0  0  0  0
  148.2501  139.3360  152.5288 H   0  0  0  0  0  0  0  0  0  0  0  0
  146.6191  139.0406  151.9850 H   0  0  0  0  0  0  0  0  0  0  0  0
  146.7620  141.0717  153.4698 H   0  0  0  0  0  0  0  0  0  0  0  0
  145.7287  139.8643  154.2070 H   0  0  0  0  0  0  0  0  0  0  0  0
  153.6648  140.6016  159.8017 H   0  0  0  0  0  0  0  0  0  0  0  0
  147.8712  137.1361  152.8025 H   0  0  0  0  0  0  0  0  0  0  0  0
  1  2  1  0  0  0  0
  1 24  1  0  0  0  0
  1 25  1  0  0  0  0
  1 26  1  0  0  0  0
  2 23  2  0  0  0  0
  2  3  1  0  0  0  0
  3  4  2  0  0  0  0
  3 27  1  0  0  0  0
  4  5  1  0  0  0  0
  4 28  1  0  0  0  0
  5  6  1  0  0  0  0
  5 21  1  0  0  0  0
  6  7  1  0  0  0  0
  6 29  1  0  0  0  0
  6 30  1  0  0  0  0
  7  8  2  0  0  0  0
  7  9  1  0  0  0  0
  9 10  1  0  0  0  0
  9 31  1  0  0  0  0
 10 11  1  0  0  0  0
 10 32  1  0  0  0  0
 10 33  1  0  0  0  0
 11 20  1  0  0  0  0
 11 12  1  0  0  0  0
 11 34  1  0  0  0  0
 12 13  1  0  0  0  0
 12 35  1  0  0  0  0
 12 36  1  0  0  0  0
 13 14  1  0  0  0  0
 13 18  1  0  0  0  0
 13 51  1  0  0  0  0
 14 15  1  0  0  0  0
 14 37  1  0  0  0  0
 14 38  1  0  0  0  0
 15 16  1  0  0  0  0
 15 17  1  0  0  0  0
 15 39  1  0  0  0  0
 16 40  1  0  0  0  0
 16 41  1  0  0  0  0
 16 42  1  0  0  0  0
 17 43  1  0  0  0  0
 17 44  1  0  0  0  0
 17 45  1  0  0  0  0
 18 19  1  0  0  0  0
 18 46  1  0  0  0  0
 18 47  1  0  0  0  0
 19 20  1  0  0  0  0
 19 48  1  0  0  0  0
 19 49  1  0  0  0  0
 21 22  2  0  0  0  0
 21 23  1  0  0  0  0
 23 50  1  0  0  0  0
M  CHG  1  13   1
M  END
> <s_m_source_file>
AV-unprocessed.smi

> <i_m_source_file_index>
712

> <i_lp_mmshare_version>
43012

> <i_f3d_flags>
0

> <s_epik_input>
W0NIM11jMVtjSF1bY0hdbihjKD1PKVtjSF0xKVtDSDJdQyg9TylbTkhdW0NIMl1bQ0BASF0yW0NIMl1OKFtDSDJdW0NIMl1PMilbQ0gyXVtDSF0oW0NIM10pW0NIM10=

> <s_epik_cmdline>
J2VwaWtfcHl0aG9uJywgJy1waCcsICc3LjAnLCAnLXRuJywgJzgnLCAnLW1hJywgJzIwMCcsICctbWV0YWxfYmluZGluZycsICctaW1hZScsICc8aW5maWxlLm1hZT4nLCAnLW9tYWUnLCAnPG91dGZpbGUubWFlPic=

> <r_lp_tautomer_probability>
1

> <r_epik_Ionization_Penalty>
0.0975935

> <r_epik_Ionization_Penalty_Charging>
0.0975934

> <r_epik_Ionization_Penalty_Neutral>
6.27044e-08

> <r_epik_State_Penalty>
0.0877056

> <r_epik_Charging_Adjusted_Penalty>
0.185299

> <i_epik_Tot_Q>
1

> <i_epik_Tot_abs_Q>
1

> <r_epik_Metal_State_Penalty>
0.0877109

> <b_epik_Metal_Only>
0

> <s_lp_Force_Field>
OPLS_2005

> <r_lp_Energy>
30.0943

> <b_lp_Chiralities_Consistent>
1

> <s_lp_Variant>
AV-unprocessed.smi:712-3

> <Gold.Version>
5.8.1

> <Gold.Id.Protein>
6NUR|6NUR_protein|mol2

> <Gold.PLP.Fitness>
46.6808

> <Gold.PLP.PLP>
-36.6586

> <Gold.PLP.part.hbond>
-2.0000

> <Gold.PLP.part.metal>
0.0000

> <Gold.PLP.part.buried>
-4.4125

> <Gold.PLP.part.nonpolar>
-30.8256

> <Gold.PLP.part.repulsive>
0.1379

> <Gold.PLP.ligand.clash>
0.0000

> <Gold.PLP.ligand.torsion>
1.0383

> <Gold.PLP.Chemscore.Hbond>
3.0000

> <Gold.PLP.Chemscore.CHOScore>
1.0000

> <Gold.PLP.Chemscore.Metal>
0.0000

> <Gold.Chemscore.Hbonds>
donor molecule, donor type, donor heavy atom, donor atom, acceptor molecule, acceptor atom, score
      L1  H    13    51       P1  7948  2.00
      P1  H  7989  7998       L1     8  0.21
      P1  H  7997  8010       L1    22  1.00
      L1  C     4    28       P1  8028  0.57

> <Gold.PLP.Chemscore.Internal.Correction>
0.0989

> <Gold.Rescore>
     Score         DG    S(hbond)    S(metal)    S(lipo)     H(rot)  DE(clash)    DE(int)     intcor
     14.56     -19.23       2.14        0.00      97.78       1.89       0.31       4.37       ----

> <Gold.Chemscore.Fitness>
14.5581

> <Gold.Chemscore.DG>
-19.2340

> <Gold.Chemscore.ZeroCoef>
-5.4800

> <Gold.Chemscore.Hbond>
2.1392

> <Gold.Chemscore.Metal>
0.0000

> <Gold.Chemscore.Lipo>
97.7768

> <Gold.Chemscore.Internal_Hbond>
0.0000

> <Gold.Chemscore.DEClash>
0.3087

> <Gold.Chemscore.DEInternal>
4.3672

> <Gold.Chemscore.Rot>
1.8871

> <Gold.Chemscore.Internal.Correction>
   9.000000E+99

> <Gold.Chemscore.Hbonds>
donor molecule, donor type, donor heavy atom, donor atom, acceptor molecule, acceptor atom, score
      L1  H    13    51       P1  7948  1.00
      P1  H  7989  7998       L1     8  0.05
      P1  H  7997  8010       L1    22  0.65

> <Gold.Chemscore.Hbond.Weighted>
-7.1450

> <Gold.Chemscore.Metal.Weighted>
-0.0000

> <Gold.Chemscore.Lipo.Weighted>
-11.4399

> <Gold.Chemscore.Internal_Hbond.Weighted>
0.0000

> <Gold.Chemscore.DEClash.Weighted>
0.3087

> <Gold.Chemscore.DEInternal.Weighted>
4.3672

> <Gold.Chemscore.Rot.Weighted>
4.8309

> <Gold.Chemscore.Internal.Correction.Weighted>
   9.000000E+99

> <Gold.Protein.RotatedTorsions>
[ 6907 6896 6895 6894 ] final   82.10 input  -60.11 | X-H torsion
[ 7974 7965 7964 7962 ] final -156.15 input  175.53 | X-H torsion
[ 8008 7997 7996 7995 ] final   54.85 input   59.86 | X-H torsion
[ 10167 10162 10161 10158 ] final  103.55 input  -65.29 | X-H torsion
[ 10718 10713 10712 10709 ] final  113.74 input   66.30 | X-H torsion
[ 10763 10752 10751 10750 ] final  -32.05 input  -60.55 | X-H torsion
[ 11005 11000 10999 10996 ] final -108.02 input  -57.11 | X-H torsion

> <Gold.Protein.ActiveResidues>
 VAL166  LYS551  ARG553  GLY616  TRP617  ASP618  TYR619  PRO620  LYS621  CYS622 
 ASP623  PHE694  ASN695  SER759  ASP760  ASP761  ALA762  ILE779  LEU786  VAL792 
 PHE793  MET794  SER795  GLU796  ALA797  LYS798  CYS799  TRP800  GLU811  SER814 

> <Gold.Protein.RotatedAtoms>
  152.5289  134.3101  159.9110 H   0  0  0  0  0  0  0  0  0  0  0  0  # atno 6907 bound_to 6896
  151.3051  133.4098  159.2650 H   0  0  0  0  0  0  0  0  0  0  0  0  # atno 6908 bound_to 6896
  151.0086  134.9395  159.8051 H   0  0  0  0  0  0  0  0  0  0  0  0  # atno 6909 bound_to 6896
  144.7606  140.4150  143.5979 H   0  0  0  0  0  0  0  0  0  0  0  0  # atno 7974 bound_to 7965
  155.4914  140.3471  155.4355 H   0  0  0  0  0  0  0  0  0  0  0  0  # atno 8008 bound_to 7997
  156.0974  140.1426  156.9540 H   0  0  0  0  0  0  0  0  0  0  0  0  # atno 8009 bound_to 7997
  154.4672  140.0913  156.7029 H   0  0  0  0  0  0  0  0  0  0  0  0  # atno 8010 bound_to 7997
  139.7253  144.7049  151.0807 H   0  0  0  0  0  0  0  0  0  0  0  0  # atno 10167 bound_to 10162
  157.6321  131.0988  150.7085 H   0  0  0  0  0  0  0  0  0  0  0  0  # atno 10718 bound_to 10713
  153.8073  135.6885  153.4846 H   0  0  0  0  0  0  0  0  0  0  0  0  # atno 10763 bound_to 10752
  153.1650  135.4565  154.9823 H   0  0  0  0  0  0  0  0  0  0  0  0  # atno 10764 bound_to 10752
  154.7982  135.3327  154.7557 H   0  0  0  0  0  0  0  0  0  0  0  0  # atno 10765 bound_to 10752
  141.0923  133.9032  157.2045 H   0  0  0  0  0  0  0  0  0  0  0  0  # atno 11005 bound_to 11000
  145.6631  139.1585  143.2797 LP  0  0  0  0  0  0  0  0  0  0  0  0  # atno 17320 bound_to 7965
  146.1665  140.6709  142.9253 LP  0  0  0  0  0  0  0  0  0  0  0  0  # atno 17321 bound_to 7965
  140.7761  143.5113  150.9649 LP  0  0  0  0  0  0  0  0  0  0  0  0  # atno 17342 bound_to 10162
  139.8800  143.7084  152.3158 LP  0  0  0  0  0  0  0  0  0  0  0  0  # atno 17343 bound_to 10162
  156.7422  130.4742  149.5475 LP  0  0  0  0  0  0  0  0  0  0  0  0  # atno 17370 bound_to 10713
  156.1532  130.6324  151.0623 LP  0  0  0  0  0  0  0  0  0  0  0  0  # atno 17371 bound_to 10713
  139.9752  135.0116  156.9613 LP  0  0  0  0  0  0  0  0  0  0  0  0  # atno 17394 bound_to 11000
  140.5222  134.0896  155.7295 LP  0  0  0  0  0  0  0  0  0  0  0  0  # atno 17395 bound_to 11000

$$$$
