AV-unprocessed.smi:1230|AV-procd|sdf|5159|dock9
  -GOLD-   22720 4233D 1   1.00000     0.00000
 Structure written by MMmdl.
 39 40  0  0  0  0  0  0  0  0  1 V2000
  150.3337  143.2591  158.5603 C   0  0  0  0  0  0  0  0  0  0  0  0
  151.6930  142.9741  159.2200 C   0  0  1  0  0  0  0  0  0  0  0  0
  151.7066  143.4813  160.6761 C   0  0  0  0  0  0  0  0  0  0  0  0
  153.0511  143.2032  161.3651 C   0  0  0  0  0  0  0  0  0  0  0  0
  153.3986  141.7093  161.3111 C   0  0  0  0  0  0  0  0  0  0  0  0
  153.3999  141.1957  159.8638 C   0  0  0  0  0  0  0  0  0  0  0  0
  152.0537  141.4723  159.1607 C   0  0  2  0  0  0  0  0  0  0  0  0
  152.1479  141.0996  157.7910 O   0  0  0  0  0  0  0  0  0  0  0  0
  152.2769  139.7038  157.5698 C   0  0  0  0  0  0  0  0  0  0  0  0
  152.5057  139.4688  156.0691 C   0  0  0  0  0  0  0  0  0  0  0  0
  151.2820  139.2239  155.3479 N   0  0  0  0  0  0  0  0  0  0  0  0
  150.2474  140.1461  155.3046 C   0  0  0  0  0  0  0  0  0  0  0  0
  149.0875  139.9158  154.6450 C   0  0  0  0  0  0  0  0  0  0  0  0
  148.0317  140.8732  154.6112 C   0  0  0  0  0  0  0  0  0  0  0  0
  147.1631  141.6379  154.6033 N   0  0  0  0  0  0  0  0  0  0  0  0
  148.8684  138.6563  153.9357 C   0  0  0  0  0  0  0  0  0  0  0  0
  147.8557  138.3536  153.3076 O   0  0  0  0  0  0  0  0  0  0  0  0
  149.9365  137.7567  154.0159 N   0  0  0  0  0  0  0  0  0  0  0  0
  151.1372  137.9774  154.6941 C   0  0  0  0  0  0  0  0  0  0  0  0
  152.0052  137.1043  154.7043 O   0  0  0  0  0  0  0  0  0  0  0  0
  149.8291  136.8695  153.5456 H   0  0  0  0  0  0  0  0  0  0  0  0
  149.5295  142.7173  159.0594 H   0  0  0  0  0  0  0  0  0  0  0  0
  150.3312  142.9642  157.5108 H   0  0  0  0  0  0  0  0  0  0  0  0
  150.0933  144.3219  158.6001 H   0  0  0  0  0  0  0  0  0  0  0  0
  152.4531  143.5275  158.6664 H   0  0  0  0  0  0  0  0  0  0  0  0
  151.5017  144.5521  160.6998 H   0  0  0  0  0  0  0  0  0  0  0  0
  150.9054  143.0022  161.2407 H   0  0  0  0  0  0  0  0  0  0  0  0
  153.8383  143.7812  160.8795 H   0  0  0  0  0  0  0  0  0  0  0  0
  153.0141  143.5392  162.4016 H   0  0  0  0  0  0  0  0  0  0  0  0
  154.3738  141.5377  161.7676 H   0  0  0  0  0  0  0  0  0  0  0  0
  152.6765  141.1427  161.9004 H   0  0  0  0  0  0  0  0  0  0  0  0
  154.2066  141.6774  159.3097 H   0  0  0  0  0  0  0  0  0  0  0  0
  153.6218  140.1289  159.8637 H   0  0  0  0  0  0  0  0  0  0  0  0
  151.2596  140.9076  159.6534 H   0  0  0  0  0  0  0  0  0  0  0  0
  153.1055  139.2980  158.1497 H   0  0  0  0  0  0  0  0  0  0  0  0
  151.3683  139.1925  157.8914 H   0  0  0  0  0  0  0  0  0  0  0  0
  152.9617  140.3459  155.6075 H   0  0  0  0  0  0  0  0  0  0  0  0
  153.1816  138.6334  155.8731 H   0  0  0  0  0  0  0  0  0  0  0  0
  150.3648  141.0892  155.8197 H   0  0  0  0  0  0  0  0  0  0  0  0
  1  2  1  0  0  0  0
  1 22  1  0  0  0  0
  1 23  1  0  0  0  0
  1 24  1  0  0  0  0
  2  7  1  0  0  0  0
  2  3  1  0  0  0  0
  2 25  1  0  0  0  0
  3  4  1  0  0  0  0
  3 26  1  0  0  0  0
  3 27  1  0  0  0  0
  4  5  1  0  0  0  0
  4 28  1  0  0  0  0
  4 29  1  0  0  0  0
  5  6  1  0  0  0  0
  5 30  1  0  0  0  0
  5 31  1  0  0  0  0
  6  7  1  0  0  0  0
  6 32  1  0  0  0  0
  6 33  1  0  0  0  0
  7  8  1  0  0  0  0
  7 34  1  0  0  0  0
  8  9  1  0  0  0  0
  9 10  1  0  0  0  0
  9 35  1  0  0  0  0
  9 36  1  0  0  0  0
 10 11  1  0  0  0  0
 10 37  1  0  0  0  0
 10 38  1  0  0  0  0
 11 19  1  0  0  0  0
 11 12  1  0  0  0  0
 12 13  2  0  0  0  0
 12 39  1  0  0  0  0
 13 14  1  0  0  0  0
 13 16  1  0  0  0  0
 14 15  3  0  0  0  0
 16 17  2  0  0  0  0
 16 18  1  0  0  0  0
 18 21  1  0  0  0  0
 18 19  1  0  0  0  0
 19 20  2  0  0  0  0
M  END
> <s_m_source_file>
AV-unprocessed.smi

> <i_m_source_file_index>
1230

> <i_lp_mmshare_version>
43012

> <i_f3d_flags>
0

> <s_epik_input>
W0NIM11bQ0BASF0xW0NIMl1bQ0gyXVtDSDJdW0NIMl1bQ0BIXTFPW0NIMl1bQ0gyXW4yW2NIXWMoQyNOKWMoPU8pW25IXWMyPU8=

> <s_epik_cmdline>
J2VwaWtfcHl0aG9uJywgJy1waCcsICc3LjAnLCAnLXRuJywgJzgnLCAnLW1hJywgJzIwMCcsICctbWV0YWxfYmluZGluZycsICctaW1hZScsICc8aW5maWxlLm1hZT4nLCAnLW9tYWUnLCAnPG91dGZpbGUubWFlPic=

> <r_epik_Ionization_Penalty>
0.421541

> <r_epik_Ionization_Penalty_Charging>
0.421541

> <r_epik_Ionization_Penalty_Neutral>
2.29267e-11

> <r_epik_State_Penalty>
0.422277

> <r_epik_Charging_Adjusted_Penalty>
0.843818

> <i_epik_Tot_Q>
0

> <i_epik_Tot_abs_Q>
0

> <r_epik_Metal_State_Penalty>
4.11629

> <b_epik_Metal_Only>
0

> <s_lp_Force_Field>
OPLS_2005

> <r_lp_Energy>
13.3669

> <b_lp_Chiralities_Consistent>
1

> <s_lp_Variant>
AV-unprocessed.smi:1230-8

> <Gold.Version>
5.8.1

> <Gold.Id.Protein>
6NUR|6NUR_protein|mol2

> <Gold.PLP.Fitness>
44.4513

> <Gold.PLP.PLP>
-38.9952

> <Gold.PLP.part.hbond>
-2.0000

> <Gold.PLP.part.metal>
0.0000

> <Gold.PLP.part.buried>
-2.9573

> <Gold.PLP.part.nonpolar>
-34.7816

> <Gold.PLP.part.repulsive>
2.1117

> <Gold.PLP.ligand.clash>
0.0000

> <Gold.PLP.ligand.torsion>
0.2622

> <Gold.PLP.Chemscore.Hbond>
1.9913

> <Gold.PLP.Chemscore.CHOScore>
0.0000

> <Gold.PLP.Chemscore.Metal>
0.0000

> <Gold.Chemscore.Hbonds>
donor molecule, donor type, donor heavy atom, donor atom, acceptor molecule, acceptor atom, score
      L1  H    18    21       P1  7948  0.72
      P1  H 10752 10765       L1    20  0.96

> <Gold.PLP.Chemscore.Internal.Correction>
0.0067

> <Gold.Rescore>
     Score         DG    S(hbond)    S(metal)    S(lipo)     H(rot)  DE(clash)    DE(int)     intcor
     16.25     -17.45       1.83        0.00      92.61       1.94       0.72       0.48       ----

> <Gold.Chemscore.Fitness>
16.2511

> <Gold.Chemscore.DG>
-17.4526

> <Gold.Chemscore.ZeroCoef>
-5.4800

> <Gold.Chemscore.Hbond>
1.8262

> <Gold.Chemscore.Metal>
0.0000

> <Gold.Chemscore.Lipo>
92.6118

> <Gold.Chemscore.Internal_Hbond>
0.0000

> <Gold.Chemscore.DEClash>
0.7185

> <Gold.Chemscore.DEInternal>
0.4830

> <Gold.Chemscore.Rot>
1.9385

> <Gold.Chemscore.Internal.Correction>
   9.000000E+99

> <Gold.Chemscore.Hbonds>
donor molecule, donor type, donor heavy atom, donor atom, acceptor molecule, acceptor atom, score
      L1  H    18    21       P1  7948  0.32
      P1  H 10752 10765       L1    20  0.92

> <Gold.Chemscore.Hbond.Weighted>
-6.0995

> <Gold.Chemscore.Metal.Weighted>
-0.0000

> <Gold.Chemscore.Lipo.Weighted>
-10.8356

> <Gold.Chemscore.Internal_Hbond.Weighted>
0.0000

> <Gold.Chemscore.DEClash.Weighted>
0.7185

> <Gold.Chemscore.DEInternal.Weighted>
0.4830

> <Gold.Chemscore.Rot.Weighted>
4.9625

> <Gold.Chemscore.Internal.Correction.Weighted>
   9.000000E+99

> <Gold.Protein.RotatedTorsions>
[ 6907 6896 6895 6894 ] final  -38.56 input  -60.11 | X-H torsion
[ 7974 7965 7964 7962 ] final   63.70 input  175.53 | X-H torsion
[ 8008 7997 7996 7995 ] final   96.05 input   59.86 | X-H torsion
[ 10167 10162 10161 10158 ] final -108.03 input  -65.29 | X-H torsion
[ 10718 10713 10712 10709 ] final -172.50 input   66.30 | X-H torsion
[ 10763 10752 10751 10750 ] final  166.78 input  -60.55 | X-H torsion
[ 11005 11000 10999 10996 ] final   42.80 input  -57.11 | X-H torsion

> <Gold.Protein.ActiveResidues>
 VAL166  LYS551  ARG553  GLY616  TRP617  ASP618  TYR619  PRO620  LYS621  CYS622 
 ASP623  PHE694  ASN695  SER759  ASP760  ASP761  ALA762  ILE779  LEU786  VAL792 
 PHE793  MET794  SER795  GLU796  ALA797  LYS798  CYS799  TRP800  GLU811  SER814 

> <Gold.Protein.RotatedAtoms>
  151.0009  134.9321  159.7953 H   0  0  0  0  0  0  0  0  0  0  0  0  # atno 6907 bound_to 6896
  152.5277  134.3155  159.9139 H   0  0  0  0  0  0  0  0  0  0  0  0  # atno 6908 bound_to 6896
  151.3161  133.4018  159.2685 H   0  0  0  0  0  0  0  0  0  0  0  0  # atno 6909 bound_to 6896
  145.8587  139.3301  143.0832 H   0  0  0  0  0  0  0  0  0  0  0  0  # atno 7974 bound_to 7965
  156.0755  140.3278  155.7628 H   0  0  0  0  0  0  0  0  0  0  0  0  # atno 8008 bound_to 7997
  155.5238  140.0587  157.2919 H   0  0  0  0  0  0  0  0  0  0  0  0  # atno 8009 bound_to 7997
  154.4553  140.1939  156.0416 H   0  0  0  0  0  0  0  0  0  0  0  0  # atno 8010 bound_to 7997
  140.1706  143.4046  152.1357 H   0  0  0  0  0  0  0  0  0  0  0  0  # atno 10167 bound_to 10162
  156.7565  130.9397  151.3116 H   0  0  0  0  0  0  0  0  0  0  0  0  # atno 10718 bound_to 10713
  154.3441  135.2753  155.2407 H   0  0  0  0  0  0  0  0  0  0  0  0  # atno 10763 bound_to 10752
  154.4664  135.5894  153.6295 H   0  0  0  0  0  0  0  0  0  0  0  0  # atno 10764 bound_to 10752
  152.9855  135.6077  154.3645 H   0  0  0  0  0  0  0  0  0  0  0  0  # atno 10765 bound_to 10752
  140.1705  134.4228  155.8260 H   0  0  0  0  0  0  0  0  0  0  0  0  # atno 11005 bound_to 11000
  145.9273  140.9073  143.0374 LP  0  0  0  0  0  0  0  0  0  0  0  0  # atno 17320 bound_to 7965
  144.6727  140.1370  143.7440 LP  0  0  0  0  0  0  0  0  0  0  0  0  # atno 17321 bound_to 7965
  139.5340  144.7189  151.4958 LP  0  0  0  0  0  0  0  0  0  0  0  0  # atno 17342 bound_to 10162
  140.6584  143.8550  150.6861 LP  0  0  0  0  0  0  0  0  0  0  0  0  # atno 17343 bound_to 10162
  157.6754  130.9089  150.0137 LP  0  0  0  0  0  0  0  0  0  0  0  0  # atno 17370 bound_to 10713
  156.1367  130.3642  149.9646 LP  0  0  0  0  0  0  0  0  0  0  0  0  # atno 17371 bound_to 10713
  141.2217  133.6954  156.7754 LP  0  0  0  0  0  0  0  0  0  0  0  0  # atno 17394 bound_to 11000
  140.2383  134.8633  157.3548 LP  0  0  0  0  0  0  0  0  0  0  0  0  # atno 17395 bound_to 11000

$$$$
