AV-unprocessed.smi:686|AV-procd|sdf|3338|dock10
  -GOLD-   22720 0313D 1   1.00000     0.00000
 Structure written by MMmdl.
 41 42  0  0  0  0  0  0  0  0  2 V2000
  151.0171  133.8481  156.1699 C   0  0  0  0  0  0  0  0  0  0  0  0
  150.1015  134.7931  155.3734 C   0  0  1  0  0  0  0  0  0  0  0  0
  148.8421  134.1450  154.8037 C   0  0  0  0  0  0  0  0  0  0  0  0
  147.9649  135.2735  154.4183 N   0  3  1  0  0  0  0  0  0  0  0  0
  146.5097  134.9598  154.3434 C   0  0  0  0  0  0  0  0  0  0  0  0
  145.9740  134.4026  155.6766 C   0  0  0  0  0  0  0  0  0  0  0  0
  146.2170  133.9524  153.2146 C   0  0  0  0  0  0  0  0  0  0  0  0
  148.3190  136.4206  155.2952 C   0  0  0  0  0  0  0  0  0  0  0  0
  149.5472  136.0072  156.1275 C   0  0  1  0  0  0  0  0  0  0  0  0
  149.1433  135.6413  157.4903 N   0  0  0  0  0  0  0  0  0  0  0  0
  148.8952  136.8828  158.6625 S   0  0  0  0  0  0  0  0  0  0  0  0
  149.7374  136.5545  159.8225 O   0  0  0  0  0  0  0  0  0  0  0  0
  149.0522  138.1763  157.9795 O   0  0  0  0  0  0  0  0  0  0  0  0
  147.1265  136.6359  159.1234 C   0  0  0  0  0  0  0  0  0  0  0  0
  147.0186  136.3170  160.5883 C   0  0  0  0  0  0  0  0  0  0  0  0
  146.4445  135.1707  161.2039 C   0  0  0  0  0  0  0  0  0  0  0  0
  146.6250  135.4008  162.5374 C   0  0  0  0  0  0  0  0  0  0  0  0
  147.2554  136.5863  162.7340 O   0  0  0  0  0  0  0  0  0  0  0  0
  147.5000  137.1657  161.4840 N   0  0  0  0  0  0  0  0  0  0  0  0
  150.4889  133.3657  156.9928 H   0  0  0  0  0  0  0  0  0  0  0  0
  151.8663  134.3887  156.5884 H   0  0  0  0  0  0  0  0  0  0  0  0
  151.4103  133.0593  155.5283 H   0  0  0  0  0  0  0  0  0  0  0  0
  150.6816  135.1750  154.5313 H   0  0  0  0  0  0  0  0  0  0  0  0
  149.0613  133.4972  153.9543 H   0  0  0  0  0  0  0  0  0  0  0  0
  148.3545  133.5441  155.5736 H   0  0  0  0  0  0  0  0  0  0  0  0
  145.9746  135.8859  154.1266 H   0  0  0  0  0  0  0  0  0  0  0  0
  144.9217  134.1304  155.5897 H   0  0  0  0  0  0  0  0  0  0  0  0
  146.0425  135.1314  156.4843 H   0  0  0  0  0  0  0  0  0  0  0  0
  146.5210  133.5100  155.9821 H   0  0  0  0  0  0  0  0  0  0  0  0
  145.1546  133.7105  153.1736 H   0  0  0  0  0  0  0  0  0  0  0  0
  146.7606  133.0193  153.3669 H   0  0  0  0  0  0  0  0  0  0  0  0
  146.4900  134.3382  152.2329 H   0  0  0  0  0  0  0  0  0  0  0  0
  148.5565  137.2744  154.6600 H   0  0  0  0  0  0  0  0  0  0  0  0
  147.4863  136.7174  155.9332 H   0  0  0  0  0  0  0  0  0  0  0  0
  150.2881  136.8062  156.1795 H   0  0  0  0  0  0  0  0  0  0  0  0
  148.3802  134.9643  157.4976 H   0  0  0  0  0  0  0  0  0  0  0  0
  146.5632  137.5305  158.8565 H   0  0  0  0  0  0  0  0  0  0  0  0
  146.7381  135.8114  158.5255 H   0  0  0  0  0  0  0  0  0  0  0  0
  145.9765  134.3143  160.7414 H   0  0  0  0  0  0  0  0  0  0  0  0
  146.3736  134.8434  163.4278 H   0  0  0  0  0  0  0  0  0  0  0  0
  148.2551  135.5387  153.4878 H   0  0  0  0  0  0  0  0  0  0  0  0
  1  2  1  0  0  0  0
  1 20  1  0  0  0  0
  1 21  1  0  0  0  0
  1 22  1  0  0  0  0
  2  9  1  0  0  0  0
  2  3  1  0  0  0  0
  2 23  1  0  0  0  0
  3  4  1  0  0  0  0
  3 24  1  0  0  0  0
  3 25  1  0  0  0  0
  4  5  1  0  0  0  0
  4  8  1  0  0  0  0
  4 41  1  0  0  0  0
  5  6  1  0  0  0  0
  5  7  1  0  0  0  0
  5 26  1  0  0  0  0
  6 27  1  0  0  0  0
  6 28  1  0  0  0  0
  6 29  1  0  0  0  0
  7 30  1  0  0  0  0
  7 31  1  0  0  0  0
  7 32  1  0  0  0  0
  8  9  1  0  0  0  0
  8 33  1  0  0  0  0
  8 34  1  0  0  0  0
  9 10  1  0  0  0  0
  9 35  1  0  0  0  0
 10 11  1  0  0  0  0
 10 36  1  0  0  0  0
 11 12  2  0  0  0  0
 11 13  2  0  0  0  0
 11 14  1  0  0  0  0
 14 15  1  0  0  0  0
 14 37  1  0  0  0  0
 14 38  1  0  0  0  0
 15 19  2  0  0  0  0
 15 16  1  0  0  0  0
 16 17  2  0  0  0  0
 16 39  1  0  0  0  0
 17 18  1  0  0  0  0
 17 40  1  0  0  0  0
 18 19  1  0  0  0  0
M  CHG  1   4   1
M  END
> <s_m_source_file>
AV-unprocessed.smi

> <i_m_source_file_index>
686

> <i_lp_mmshare_version>
43012

> <i_f3d_flags>
0

> <s_epik_input>
W0NIM11bQ0BASF0xW0NIMl1OKFtDSF0oW0NIM10pW0NIM10pW0NIMl1bQ0BIXTFbTkhdUyg9TykoPU8pW0NIMl1jMltjSF1bY0hdb24y

> <s_epik_cmdline>
J2VwaWtfcHl0aG9uJywgJy1waCcsICc3LjAnLCAnLXRuJywgJzgnLCAnLW1hJywgJzIwMCcsICctbWV0YWxfYmluZGluZycsICctaW1hZScsICc8aW5maWxlLm1hZT4nLCAnLW9tYWUnLCAnPG91dGZpbGUubWFlPic=

> <r_epik_Ionization_Penalty>
0.00200818

> <r_epik_Ionization_Penalty_Charging>
0.000701289

> <r_epik_Ionization_Penalty_Neutral>
0.00130689

> <r_epik_State_Penalty>
0.00131314

> <r_epik_Charging_Adjusted_Penalty>
0.00201443

> <i_epik_Tot_Q>
1

> <i_epik_Tot_abs_Q>
1

> <r_epik_Metal_State_Penalty>
0.310831

> <b_epik_Metal_Only>
0

> <s_lp_Force_Field>
OPLS_2005

> <r_lp_Energy>
21.3818

> <b_lp_Chiralities_Consistent>
1

> <s_lp_Variant>
AV-unprocessed.smi:686-2

> <Gold.Version>
5.8.1

> <Gold.Id.Protein>
6NUR|6NUR_protein|mol2

> <Gold.PLP.Fitness>
37.0441

> <Gold.PLP.PLP>
-23.1928

> <Gold.PLP.part.hbond>
-4.3016

> <Gold.PLP.part.metal>
0.0000

> <Gold.PLP.part.buried>
-4.5422

> <Gold.PLP.part.nonpolar>
-14.3738

> <Gold.PLP.part.repulsive>
0.0000

> <Gold.PLP.ligand.clash>
0.0000

> <Gold.PLP.ligand.torsion>
0.3133

> <Gold.PLP.Chemscore.Hbond>
4.7680

> <Gold.PLP.Chemscore.CHOScore>
0.0000

> <Gold.PLP.Chemscore.Metal>
0.0000

> <Gold.Chemscore.Hbonds>
donor molecule, donor type, donor heavy atom, donor atom, acceptor molecule, acceptor atom, score
      L1  H     4    41       P1  7948  2.00
      P1  H  6896  6908       L1    12  1.00
      P1  H  6931  6943       L1    19  0.94
      P1  H  6934  6947       L1    19  0.86

> <Gold.PLP.Chemscore.Internal.Correction>
0.1739

> <Gold.Rescore>
     Score         DG    S(hbond)    S(metal)    S(lipo)     H(rot)  DE(clash)    DE(int)     intcor
     15.88     -16.54       3.02        0.00      50.04       1.91       0.07       0.59       ----

> <Gold.Chemscore.Fitness>
15.8780

> <Gold.Chemscore.DG>
-16.5432

> <Gold.Chemscore.ZeroCoef>
-5.4800

> <Gold.Chemscore.Hbond>
3.0246

> <Gold.Chemscore.Metal>
0.0000

> <Gold.Chemscore.Lipo>
50.0393

> <Gold.Chemscore.Internal_Hbond>
0.0000

> <Gold.Chemscore.DEClash>
0.0742

> <Gold.Chemscore.DEInternal>
0.5910

> <Gold.Chemscore.Rot>
1.9115

> <Gold.Chemscore.Internal.Correction>
   9.000000E+99

> <Gold.Chemscore.Hbonds>
donor molecule, donor type, donor heavy atom, donor atom, acceptor molecule, acceptor atom, score
      L1  H     4    41       P1  7948  1.00
      P1  H  6896  6908       L1    12  0.96
      P1  H  6931  6943       L1    19  0.23
      P1  H  6934  6947       L1    19  0.69

> <Gold.Chemscore.Hbond.Weighted>
-10.1021

> <Gold.Chemscore.Metal.Weighted>
-0.0000

> <Gold.Chemscore.Lipo.Weighted>
-5.8546

> <Gold.Chemscore.Internal_Hbond.Weighted>
0.0000

> <Gold.Chemscore.DEClash.Weighted>
0.0742

> <Gold.Chemscore.DEInternal.Weighted>
0.5910

> <Gold.Chemscore.Rot.Weighted>
4.8935

> <Gold.Chemscore.Internal.Correction.Weighted>
   9.000000E+99

> <Gold.Protein.RotatedTorsions>
[ 6907 6896 6895 6894 ] final -157.86 input  -60.11 | X-H torsion
[ 7974 7965 7964 7962 ] final   35.32 input  175.53 | X-H torsion
[ 8008 7997 7996 7995 ] final  114.15 input   59.86 | X-H torsion
[ 10167 10162 10161 10158 ] final  143.86 input  -65.29 | X-H torsion
[ 10718 10713 10712 10709 ] final -105.61 input   66.30 | X-H torsion
[ 10763 10752 10751 10750 ] final   39.63 input  -60.55 | X-H torsion
[ 11005 11000 10999 10996 ] final  153.26 input  -57.11 | X-H torsion

> <Gold.Protein.ActiveResidues>
 VAL166  LYS551  ARG553  GLY616  TRP617  ASP618  TYR619  PRO620  LYS621  CYS622 
 ASP623  PHE694  ASN695  SER759  ASP760  ASP761  ALA762  ILE779  LEU786  VAL792 
 PHE793  MET794  SER795  GLU796  ALA797  LYS798  CYS799  TRP800  GLU811  SER814 

> <Gold.Protein.RotatedAtoms>
  151.3093  133.4087  159.2645 H   0  0  0  0  0  0  0  0  0  0  0  0  # atno 6907 bound_to 6896
  151.0128  134.9410  159.8027 H   0  0  0  0  0  0  0  0  0  0  0  0  # atno 6908 bound_to 6896
  152.5305  134.3058  159.9147 H   0  0  0  0  0  0  0  0  0  0  0  0  # atno 6909 bound_to 6896
  146.1291  139.6157  142.9239 H   0  0  0  0  0  0  0  0  0  0  0  0  # atno 7974 bound_to 7965
  156.2303  140.2965  156.0171 H   0  0  0  0  0  0  0  0  0  0  0  0  # atno 8008 bound_to 7997
  155.2244  140.0417  157.2970 H   0  0  0  0  0  0  0  0  0  0  0  0  # atno 8009 bound_to 7997
  154.5984  140.2420  155.7833 H   0  0  0  0  0  0  0  0  0  0  0  0  # atno 8010 bound_to 7997
  139.4960  144.6012  151.6477 H   0  0  0  0  0  0  0  0  0  0  0  0  # atno 10167 bound_to 10162
  156.0354  130.5572  150.7564 H   0  0  0  0  0  0  0  0  0  0  0  0  # atno 10718 bound_to 10713
  152.9961  135.6215  154.2496 H   0  0  0  0  0  0  0  0  0  0  0  0  # atno 10763 bound_to 10752
  154.2235  135.2795  155.2918 H   0  0  0  0  0  0  0  0  0  0  0  0  # atno 10764 bound_to 10752
  154.5509  135.5733  153.6979 H   0  0  0  0  0  0  0  0  0  0  0  0  # atno 10765 bound_to 10752
  140.1381  134.8757  157.2295 H   0  0  0  0  0  0  0  0  0  0  0  0  # atno 11005 bound_to 11000
  145.5300  141.0427  143.2388 LP  0  0  0  0  0  0  0  0  0  0  0  0  # atno 17320 bound_to 7965
  144.7672  139.6818  143.7210 LP  0  0  0  0  0  0  0  0  0  0  0  0  # atno 17321 bound_to 7965
  140.5662  144.0186  150.6193 LP  0  0  0  0  0  0  0  0  0  0  0  0  # atno 17342 bound_to 10162
  140.3288  143.3090  152.0708 LP  0  0  0  0  0  0  0  0  0  0  0  0  # atno 17343 bound_to 10162
  157.5095  131.0924  151.0216 LP  0  0  0  0  0  0  0  0  0  0  0  0  # atno 17370 bound_to 10713
  157.0575  130.5812  149.5380 LP  0  0  0  0  0  0  0  0  0  0  0  0  # atno 17371 bound_to 10713
  140.2756  134.3409  155.7359 LP  0  0  0  0  0  0  0  0  0  0  0  0  # atno 17394 bound_to 11000
  141.2181  133.7448  156.9288 LP  0  0  0  0  0  0  0  0  0  0  0  0  # atno 17395 bound_to 11000

$$$$
