AV-unprocessed.smi:3149|AV-procd|sdf|12003|dock6
  -GOLD-   2272017413D 1   1.00000     0.00000
 Structure written by MMmdl.
 37 38  0  0  0  0  0  0  0  0  1 V2000
  147.6762  141.1922  156.8827 C   0  0  0  0  0  0  0  0  0  0  0  0
  149.2145  141.2638  156.8195 C   0  0  2  0  0  0  0  0  0  0  0  0
  149.6420  142.5017  157.4681 N   0  0  0  0  0  0  0  0  0  0  0  0
  151.0947  142.7042  157.3839 C   0  0  0  0  0  0  0  0  0  0  0  0
  151.8370  142.1298  158.5972 C   0  0  0  0  0  0  0  0  0  0  0  0
  151.9402  140.9132  158.7616 O   0  0  0  0  0  0  0  0  0  0  0  0
  152.3013  143.0406  159.5488 N   0  0  0  0  0  0  0  0  0  0  0  0
  151.5465  144.2377  159.8878 C   0  0  0  0  0  0  0  0  0  0  0  0
  152.1766  144.1082  161.2785 C   0  0  0  0  0  0  0  0  0  0  0  0
  152.4931  142.6483  160.9367 C   0  0  0  0  0  0  0  0  0  0  0  0
  149.7628  141.2515  155.3670 C   0  0  2  0  0  0  0  0  0  0  0  0
  148.6935  141.5845  154.3109 C   0  0  0  0  0  0  0  0  0  0  0  0
  150.3732  139.9657  155.0428 N   0  0  0  0  0  0  0  0  0  0  0  0
  149.7914  138.7134  155.0213 C   0  0  0  0  0  0  0  0  0  0  0  0
  150.7585  137.8191  154.6625 C   0  0  0  0  0  0  0  0  0  0  0  0
  151.9141  138.6281  154.4780 C   0  0  0  0  0  0  0  0  0  0  0  0
  151.6801  139.9103  154.7039 N   0  0  0  0  0  0  0  0  0  0  0  0
  147.3031  140.2515  156.4791 H   0  0  0  0  0  0  0  0  0  0  0  0
  147.2186  142.0029  156.3147 H   0  0  0  0  0  0  0  0  0  0  0  0
  147.3071  141.2580  157.9061 H   0  0  0  0  0  0  0  0  0  0  0  0
  149.6323  140.4049  157.3476 H   0  0  0  0  0  0  0  0  0  0  0  0
  149.1510  143.2757  157.0419 H   0  0  0  0  0  0  0  0  0  0  0  0
  151.4825  142.2384  156.4775 H   0  0  0  0  0  0  0  0  0  0  0  0
  151.3090  143.7720  157.3234 H   0  0  0  0  0  0  0  0  0  0  0  0
  151.8472  145.1267  159.3327 H   0  0  0  0  0  0  0  0  0  0  0  0
  150.4649  144.0869  159.8928 H   0  0  0  0  0  0  0  0  0  0  0  0
  153.0678  144.7250  161.4084 H   0  0  0  0  0  0  0  0  0  0  0  0
  151.4736  144.2331  162.1026 H   0  0  0  0  0  0  0  0  0  0  0  0
  151.7404  141.9472  161.3030 H   0  0  0  0  0  0  0  0  0  0  0  0
  153.5109  142.3359  161.1725 H   0  0  0  0  0  0  0  0  0  0  0  0
  150.5397  142.0155  155.2914 H   0  0  0  0  0  0  0  0  0  0  0  0
  148.3246  142.6039  154.4185 H   0  0  0  0  0  0  0  0  0  0  0  0
  147.8400  140.9094  154.3803 H   0  0  0  0  0  0  0  0  0  0  0  0
  149.1018  141.4998  153.3033 H   0  0  0  0  0  0  0  0  0  0  0  0
  148.7493  138.5645  155.2630 H   0  0  0  0  0  0  0  0  0  0  0  0
  150.6561  136.7502  154.5485 H   0  0  0  0  0  0  0  0  0  0  0  0
  152.9090  138.3240  154.1877 H   0  0  0  0  0  0  0  0  0  0  0  0
  1  2  1  0  0  0  0
  1 18  1  0  0  0  0
  1 19  1  0  0  0  0
  1 20  1  0  0  0  0
  2  3  1  0  0  0  0
  2 11  1  0  0  0  0
  2 21  1  0  0  0  0
  3  4  1  0  0  0  0
  3 22  1  0  0  0  0
  4  5  1  0  0  0  0
  4 23  1  0  0  0  0
  4 24  1  0  0  0  0
  5  6  2  0  0  0  0
  5  7  1  0  0  0  0
  7 10  1  0  0  0  0
  7  8  1  0  0  0  0
  8  9  1  0  0  0  0
  8 25  1  0  0  0  0
  8 26  1  0  0  0  0
  9 10  1  0  0  0  0
  9 27  1  0  0  0  0
  9 28  1  0  0  0  0
 10 29  1  0  0  0  0
 10 30  1  0  0  0  0
 11 12  1  0  0  0  0
 11 13  1  0  0  0  0
 11 31  1  0  0  0  0
 12 32  1  0  0  0  0
 12 33  1  0  0  0  0
 12 34  1  0  0  0  0
 13 17  1  0  0  0  0
 13 14  1  0  0  0  0
 14 15  2  0  0  0  0
 14 35  1  0  0  0  0
 15 16  1  0  0  0  0
 15 36  1  0  0  0  0
 16 17  2  0  0  0  0
 16 37  1  0  0  0  0
M  END
> <s_m_source_file>
AV-unprocessed.smi

> <i_m_source_file_index>
3149

> <i_lp_mmshare_version>
43012

> <i_f3d_flags>
0

> <s_epik_input>
bjFbY0hdW2NIXVtjSF1uMVtDQEBIXShbQ0gzXSlbQ0BIXShbQ0gzXSlbTkhdW0NIMl1DKD1PKU4yW0NIMl1bQ0gyXVtDSDJdMg==

> <s_epik_cmdline>
J2VwaWtfcHl0aG9uJywgJy1waCcsICc3LjAnLCAnLXRuJywgJzgnLCAnLW1hJywgJzIwMCcsICctbWV0YWxfYmluZGluZycsICctaW1hZScsICc8aW5maWxlLm1hZT4nLCAnLW9tYWUnLCAnPG91dGZpbGUubWFlPic=

> <r_lp_tautomer_probability>
1

> <r_epik_Ionization_Penalty>
0.918674

> <r_epik_Ionization_Penalty_Charging>
0

> <r_epik_Ionization_Penalty_Neutral>
0.918674

> <r_epik_State_Penalty>
0.958258

> <r_epik_Charging_Adjusted_Penalty>
0.958258

> <i_epik_Tot_Q>
0

> <i_epik_Tot_abs_Q>
0

> <r_epik_Metal_State_Penalty>
0.956881

> <b_epik_Metal_Only>
0

> <s_lp_Force_Field>
OPLS_2005

> <r_lp_Energy>
24.7968

> <b_lp_Chiralities_Consistent>
1

> <s_lp_Variant>
AV-unprocessed.smi:3149-5

> <Gold.Version>
5.8.1

> <Gold.Id.Protein>
6NUR|6NUR_protein|mol2

> <Gold.PLP.Fitness>
43.0813

> <Gold.PLP.PLP>
-40.3705

> <Gold.PLP.part.hbond>
-1.8916

> <Gold.PLP.part.metal>
0.0000

> <Gold.PLP.part.buried>
-4.8476

> <Gold.PLP.part.nonpolar>
-33.6950

> <Gold.PLP.part.repulsive>
0.0699

> <Gold.PLP.ligand.clash>
0.0000

> <Gold.PLP.ligand.torsion>
2.0894

> <Gold.PLP.Chemscore.Hbond>
2.0000

> <Gold.PLP.Chemscore.CHOScore>
0.0000

> <Gold.PLP.Chemscore.Metal>
0.0000

> <Gold.Chemscore.Hbonds>
donor molecule, donor type, donor heavy atom, donor atom, acceptor molecule, acceptor atom, score
      L1  H     3    22       P1  8028  1.00
      P1  H  7989  7998       L1    17  0.95

> <Gold.PLP.Chemscore.Internal.Correction>
0.8897

> <Gold.Rescore>
     Score         DG    S(hbond)    S(metal)    S(lipo)     H(rot)  DE(clash)    DE(int)     intcor
     14.29     -16.42       1.68        0.00      84.51       1.79       0.02       2.11       ----

> <Gold.Chemscore.Fitness>
14.2870

> <Gold.Chemscore.DG>
-16.4196

> <Gold.Chemscore.ZeroCoef>
-5.4800

> <Gold.Chemscore.Hbond>
1.6850

> <Gold.Chemscore.Metal>
0.0000

> <Gold.Chemscore.Lipo>
84.5094

> <Gold.Chemscore.Internal_Hbond>
0.0000

> <Gold.Chemscore.DEClash>
0.0234

> <Gold.Chemscore.DEInternal>
2.1092

> <Gold.Chemscore.Rot>
1.7874

> <Gold.Chemscore.Internal.Correction>
   9.000000E+99

> <Gold.Chemscore.Hbonds>
donor molecule, donor type, donor heavy atom, donor atom, acceptor molecule, acceptor atom, score
      L1  H     3    22       P1  8028  0.80
      P1  H  7989  7998       L1    17  0.19

> <Gold.Chemscore.Hbond.Weighted>
-5.6279

> <Gold.Chemscore.Metal.Weighted>
-0.0000

> <Gold.Chemscore.Lipo.Weighted>
-9.8876

> <Gold.Chemscore.Internal_Hbond.Weighted>
0.0000

> <Gold.Chemscore.DEClash.Weighted>
0.0234

> <Gold.Chemscore.DEInternal.Weighted>
2.1092

> <Gold.Chemscore.Rot.Weighted>
4.5758

> <Gold.Chemscore.Internal.Correction.Weighted>
   9.000000E+99

> <Gold.Protein.RotatedTorsions>
[ 6907 6896 6895 6894 ] final  -73.27 input  -60.11 | X-H torsion
[ 7974 7965 7964 7962 ] final  170.48 input  175.53 | X-H torsion
[ 8008 7997 7996 7995 ] final -159.47 input   59.86 | X-H torsion
[ 10167 10162 10161 10158 ] final -178.12 input  -65.29 | X-H torsion
[ 10718 10713 10712 10709 ] final  -17.07 input   66.30 | X-H torsion
[ 10763 10752 10751 10750 ] final -108.50 input  -60.55 | X-H torsion
[ 11005 11000 10999 10996 ] final  117.54 input  -57.11 | X-H torsion

> <Gold.Protein.ActiveResidues>
 VAL166  LYS551  ARG553  GLY616  TRP617  ASP618  TYR619  PRO620  LYS621  CYS622 
 ASP623  PHE694  ASN695  SER759  ASP760  ASP761  ALA762  ILE779  LEU786  VAL792 
 PHE793  MET794  SER795  GLU796  ALA797  LYS798  CYS799  TRP800  GLU811  SER814 

> <Gold.Protein.RotatedAtoms>
  150.7137  134.5041  159.5575 H   0  0  0  0  0  0  0  0  0  0  0  0  # atno 6907 bound_to 6896
  152.2632  134.8009  160.0436 H   0  0  0  0  0  0  0  0  0  0  0  0  # atno 6908 bound_to 6896
  151.8715  133.3441  159.3773 H   0  0  0  0  0  0  0  0  0  0  0  0  # atno 6909 bound_to 6896
  144.7322  139.9209  143.6420 H   0  0  0  0  0  0  0  0  0  0  0  0  # atno 7974 bound_to 7965
  155.7630  140.0841  157.2146 H   0  0  0  0  0  0  0  0  0  0  0  0  # atno 8008 bound_to 7997
  154.4002  140.1539  156.2911 H   0  0  0  0  0  0  0  0  0  0  0  0  # atno 8009 bound_to 7997
  155.8821  140.3420  155.5898 H   0  0  0  0  0  0  0  0  0  0  0  0  # atno 8010 bound_to 7997
  139.5447  144.2267  152.0965 H   0  0  0  0  0  0  0  0  0  0  0  0  # atno 10167 bound_to 10162
  156.5787  130.4768  149.6330 H   0  0  0  0  0  0  0  0  0  0  0  0  # atno 10718 bound_to 10713
  154.8139  135.4635  154.0590 H   0  0  0  0  0  0  0  0  0  0  0  0  # atno 10763 bound_to 10752
  153.1999  135.6867  153.8251 H   0  0  0  0  0  0  0  0  0  0  0  0  # atno 10764 bound_to 10752
  153.7740  135.3266  155.3333 H   0  0  0  0  0  0  0  0  0  0  0  0  # atno 10765 bound_to 10752
  139.9078  134.9611  156.7366 H   0  0  0  0  0  0  0  0  0  0  0  0  # atno 11005 bound_to 11000
  146.0930  139.3921  143.0394 LP  0  0  0  0  0  0  0  0  0  0  0  0  # atno 17320 bound_to 7965
  145.7684  140.9906  143.1162 LP  0  0  0  0  0  0  0  0  0  0  0  0  # atno 17321 bound_to 7965
  140.1752  144.4897  150.6558 LP  0  0  0  0  0  0  0  0  0  0  0  0  # atno 17342 bound_to 10162
  140.6691  143.2279  151.5670 LP  0  0  0  0  0  0  0  0  0  0  0  0  # atno 17343 bound_to 10162
  156.2650  130.6984  151.1765 LP  0  0  0  0  0  0  0  0  0  0  0  0  # atno 17370 bound_to 10713
  157.7331  131.0593  150.5592 LP  0  0  0  0  0  0  0  0  0  0  0  0  # atno 17371 bound_to 10713
  140.6883  133.9413  155.7951 LP  0  0  0  0  0  0  0  0  0  0  0  0  # atno 17394 bound_to 11000
  141.0460  134.0553  157.3843 LP  0  0  0  0  0  0  0  0  0  0  0  0  # atno 17395 bound_to 11000

$$$$
