AV-unprocessed.smi:1216|AV-procd|sdf|5100|dock8
  -GOLD-   22720 4153D 1   1.00000     0.00000
 Structure written by MMmdl.
 42 43  0  0  0  0  0  0  0  0  1 V2000
  152.0317  144.7895  156.4752 C   0  0  0  0  0  0  0  0  0  0  0  0
  151.6322  144.3186  157.8797 C   0  0  2  0  0  0  0  0  0  0  0  0
  152.7688  143.5133  158.5465 C   0  0  0  0  0  0  0  0  0  0  0  0
  152.5844  143.3586  159.9786 N   0  0  0  0  0  0  0  0  0  0  0  0
  152.4610  144.3692  160.9229 C   0  0  0  0  0  0  0  0  0  0  0  0
  152.2908  143.7506  162.1410 C   0  0  0  0  0  0  0  0  0  0  0  0
  152.3169  142.3682  161.9729 N   0  0  0  0  0  0  0  0  0  0  0  0
  152.4997  142.2124  160.6680 C   0  0  0  0  0  0  0  0  0  0  0  0
  150.4134  143.5160  157.7834 N   0  0  0  0  0  0  0  0  0  0  0  0
  150.3182  142.3058  157.2099 C   0  0  0  0  0  0  0  0  0  0  0  0
  151.2812  141.7015  156.7364 O   0  0  0  0  0  0  0  0  0  0  0  0
  148.9198  141.6796  157.1698 C   0  0  0  0  0  0  0  0  0  0  0  0
  148.4573  141.4627  155.7912 N   0  0  0  0  0  0  0  0  0  0  0  0
  149.3509  140.7025  154.9023 C   0  0  0  0  0  0  0  0  0  0  0  0
  148.8018  139.3140  154.5007 C   0  0  0  0  0  0  0  0  0  0  0  0
  147.2679  139.1840  154.4214 C   0  0  0  0  0  0  0  0  0  0  0  0
  146.5656  140.2500  153.5548 C   0  0  0  0  0  0  0  0  0  0  0  0
  146.8718  141.7282  153.8948 C   0  0  0  0  0  0  0  0  0  0  0  0
  147.2770  141.9727  155.3574 C   0  0  0  0  0  0  0  0  0  0  0  0
  146.5198  142.6211  156.0805 O   0  0  0  0  0  0  0  0  0  0  0  0
  152.9230  145.4166  156.5108 H   0  0  0  0  0  0  0  0  0  0  0  0
  151.2358  145.3769  156.0159 H   0  0  0  0  0  0  0  0  0  0  0  0
  152.2452  143.9456  155.8183 H   0  0  0  0  0  0  0  0  0  0  0  0
  151.4411  145.2130  158.4755 H   0  0  0  0  0  0  0  0  0  0  0  0
  152.8545  142.5246  158.0931 H   0  0  0  0  0  0  0  0  0  0  0  0
  153.7249  144.0131  158.3873 H   0  0  0  0  0  0  0  0  0  0  0  0
  152.4931  145.4151  160.6561 H   0  0  0  0  0  0  0  0  0  0  0  0
  152.1540  144.1907  163.1178 H   0  0  0  0  0  0  0  0  0  0  0  0
  152.5636  141.2406  160.2013 H   0  0  0  0  0  0  0  0  0  0  0  0
  149.5686  143.9296  158.1507 H   0  0  0  0  0  0  0  0  0  0  0  0
  148.9482  140.7346  157.7132 H   0  0  0  0  0  0  0  0  0  0  0  0
  148.2096  142.3043  157.7151 H   0  0  0  0  0  0  0  0  0  0  0  0
  149.5538  141.2931  154.0087 H   0  0  0  0  0  0  0  0  0  0  0  0
  150.3328  140.5769  155.3603 H   0  0  0  0  0  0  0  0  0  0  0  0
  149.2434  139.0245  153.5465 H   0  0  0  0  0  0  0  0  0  0  0  0
  149.1583  138.5792  155.2233 H   0  0  0  0  0  0  0  0  0  0  0  0
  147.0198  138.1956  154.0336 H   0  0  0  0  0  0  0  0  0  0  0  0
  146.8516  139.2031  155.4295 H   0  0  0  0  0  0  0  0  0  0  0  0
  146.8175  140.0766  152.5080 H   0  0  0  0  0  0  0  0  0  0  0  0
  145.4891  140.0908  153.6258 H   0  0  0  0  0  0  0  0  0  0  0  0
  147.6577  142.1089  153.2428 H   0  0  0  0  0  0  0  0  0  0  0  0
  145.9985  142.3383  153.6596 H   0  0  0  0  0  0  0  0  0  0  0  0
  1  2  1  0  0  0  0
  1 21  1  0  0  0  0
  1 22  1  0  0  0  0
  1 23  1  0  0  0  0
  2  3  1  0  0  0  0
  2  9  1  0  0  0  0
  2 24  1  0  0  0  0
  3  4  1  0  0  0  0
  3 25  1  0  0  0  0
  3 26  1  0  0  0  0
  4  8  1  0  0  0  0
  4  5  1  0  0  0  0
  5  6  2  0  0  0  0
  5 27  1  0  0  0  0
  6  7  1  0  0  0  0
  6 28  1  0  0  0  0
  7  8  2  0  0  0  0
  8 29  1  0  0  0  0
  9 10  1  0  0  0  0
  9 30  1  0  0  0  0
 10 11  2  0  0  0  0
 10 12  1  0  0  0  0
 12 13  1  0  0  0  0
 12 31  1  0  0  0  0
 12 32  1  0  0  0  0
 13 19  1  0  0  0  0
 13 14  1  0  0  0  0
 14 15  1  0  0  0  0
 14 33  1  0  0  0  0
 14 34  1  0  0  0  0
 15 16  1  0  0  0  0
 15 35  1  0  0  0  0
 15 36  1  0  0  0  0
 16 17  1  0  0  0  0
 16 37  1  0  0  0  0
 16 38  1  0  0  0  0
 17 18  1  0  0  0  0
 17 39  1  0  0  0  0
 17 40  1  0  0  0  0
 18 19  1  0  0  0  0
 18 41  1  0  0  0  0
 18 42  1  0  0  0  0
 19 20  2  0  0  0  0
M  END
> <s_m_source_file>
AV-unprocessed.smi

> <i_m_source_file_index>
1216

> <i_lp_mmshare_version>
43012

> <i_f3d_flags>
0

> <s_epik_input>
W2NIXTFuW2NIXVtjSF1uMVtDSDJdW0NAQEhdKFtDSDNdKVtOSF1DKD1PKVtDSDJdTjJbQ0gyXVtDSDJdW0NIMl1bQ0gyXVtDSDJdQzI9Tw==

> <s_epik_cmdline>
J2VwaWtfcHl0aG9uJywgJy1waCcsICc3LjAnLCAnLXRuJywgJzgnLCAnLW1hJywgJzIwMCcsICctbWV0YWxfYmluZGluZycsICctaW1hZScsICc8aW5maWxlLm1hZT4nLCAnLW9tYWUnLCAnPG91dGZpbGUubWFlPic=

> <r_lp_tautomer_probability>
1

> <r_epik_Ionization_Penalty>
0.623868

> <r_epik_Ionization_Penalty_Charging>
0.623868

> <r_epik_Ionization_Penalty_Neutral>
4.50838e-08

> <r_epik_State_Penalty>
0.640129

> <r_epik_Charging_Adjusted_Penalty>
1.264

> <i_epik_Tot_Q>
0

> <i_epik_Tot_abs_Q>
0

> <r_epik_Metal_State_Penalty>
0.307431

> <b_epik_Metal_Only>
0

> <s_lp_Force_Field>
OPLS_2005

> <r_lp_Energy>
19.0473

> <b_lp_Chiralities_Consistent>
1

> <s_lp_Variant>
AV-unprocessed.smi:1216-3

> <Gold.Version>
5.8.1

> <Gold.Id.Protein>
6NUR|6NUR_protein|mol2

> <Gold.PLP.Fitness>
39.9025

> <Gold.PLP.PLP>
-38.9082

> <Gold.PLP.part.hbond>
-1.6813

> <Gold.PLP.part.metal>
0.0000

> <Gold.PLP.part.buried>
-0.7250

> <Gold.PLP.part.nonpolar>
-36.6023

> <Gold.PLP.part.repulsive>
0.3164

> <Gold.PLP.ligand.clash>
0.0000

> <Gold.PLP.ligand.torsion>
0.1979

> <Gold.PLP.Chemscore.Hbond>
0.4524

> <Gold.PLP.Chemscore.CHOScore>
0.0000

> <Gold.PLP.Chemscore.Metal>
0.0000

> <Gold.Chemscore.Hbonds>
donor molecule, donor type, donor heavy atom, donor atom, acceptor molecule, acceptor atom, score
      P1  H  6933  6945       L1     7  0.15

> <Gold.PLP.Chemscore.Internal.Correction>
0.0330

> <Gold.Rescore>
     Score         DG    S(hbond)    S(metal)    S(lipo)     H(rot)  DE(clash)    DE(int)     intcor
      7.25     -12.08       0.01        0.00     102.70       2.13       2.10       2.73       ----

> <Gold.Chemscore.Fitness>
7.2475

> <Gold.Chemscore.DG>
-12.0802

> <Gold.Chemscore.ZeroCoef>
-5.4800

> <Gold.Chemscore.Hbond>
0.0139

> <Gold.Chemscore.Metal>
0.0000

> <Gold.Chemscore.Lipo>
102.7038

> <Gold.Chemscore.Internal_Hbond>
0.0000

> <Gold.Chemscore.DEClash>
2.1015

> <Gold.Chemscore.DEInternal>
2.7312

> <Gold.Chemscore.Rot>
2.1338

> <Gold.Chemscore.Internal.Correction>
   9.000000E+99

> <Gold.Chemscore.Hbonds>
donor molecule, donor type, donor heavy atom, donor atom, acceptor molecule, acceptor atom, score
      P1  H  6933  6945       L1     7  0.02

> <Gold.Chemscore.Hbond.Weighted>
-0.0463

> <Gold.Chemscore.Metal.Weighted>
-0.0000

> <Gold.Chemscore.Lipo.Weighted>
-12.0163

> <Gold.Chemscore.Internal_Hbond.Weighted>
0.0000

> <Gold.Chemscore.DEClash.Weighted>
2.1015

> <Gold.Chemscore.DEInternal.Weighted>
2.7312

> <Gold.Chemscore.Rot.Weighted>
5.4625

> <Gold.Chemscore.Internal.Correction.Weighted>
   9.000000E+99

> <Gold.Protein.RotatedTorsions>
[ 6907 6896 6895 6894 ] final   30.90 input  -60.11 | X-H torsion
[ 7974 7965 7964 7962 ] final    2.40 input  175.53 | X-H torsion
[ 8008 7997 7996 7995 ] final  151.86 input   59.86 | X-H torsion
[ 10167 10162 10161 10158 ] final  144.87 input  -65.29 | X-H torsion
[ 10718 10713 10712 10709 ] final  150.02 input   66.30 | X-H torsion
[ 10763 10752 10751 10750 ] final   79.79 input  -60.55 | X-H torsion
[ 11005 11000 10999 10996 ] final   58.57 input  -57.11 | X-H torsion

> <Gold.Protein.ActiveResidues>
 VAL166  LYS551  ARG553  GLY616  TRP617  ASP618  TYR619  PRO620  LYS621  CYS622 
 ASP623  PHE694  ASN695  SER759  ASP760  ASP761  ALA762  ILE779  LEU786  VAL792 
 PHE793  MET794  SER795  GLU796  ALA797  LYS798  CYS799  TRP800  GLU811  SER814 

> <Gold.Protein.RotatedAtoms>
  152.0526  134.9644  160.0574 H   0  0  0  0  0  0  0  0  0  0  0  0  # atno 6907 bound_to 6896
  152.1039  133.4260  159.4608 H   0  0  0  0  0  0  0  0  0  0  0  0  # atno 6908 bound_to 6896
  150.6840  134.2647  159.4607 H   0  0  0  0  0  0  0  0  0  0  0  0  # atno 6909 bound_to 6896
  146.2443  140.0842  142.8355 H   0  0  0  0  0  0  0  0  0  0  0  0  # atno 7974 bound_to 7965
  156.2655  140.2036  156.6242 H   0  0  0  0  0  0  0  0  0  0  0  0  # atno 8008 bound_to 7997
  154.6733  140.0548  157.0213 H   0  0  0  0  0  0  0  0  0  0  0  0  # atno 8009 bound_to 7997
  155.1105  140.3215  155.4526 H   0  0  0  0  0  0  0  0  0  0  0  0  # atno 8010 bound_to 7997
  139.4938  144.5942  151.6618 H   0  0  0  0  0  0  0  0  0  0  0  0  # atno 10167 bound_to 10162
  157.2888  131.0849  151.1477 H   0  0  0  0  0  0  0  0  0  0  0  0  # atno 10718 bound_to 10713
  153.0981  135.4826  154.8816 H   0  0  0  0  0  0  0  0  0  0  0  0  # atno 10763 bound_to 10752
  154.7348  135.3068  154.8833 H   0  0  0  0  0  0  0  0  0  0  0  0  # atno 10764 bound_to 10752
  153.9458  135.6829  153.4797 H   0  0  0  0  0  0  0  0  0  0  0  0  # atno 10765 bound_to 10752
  140.0367  134.5932  155.9434 H   0  0  0  0  0  0  0  0  0  0  0  0  # atno 11005 bound_to 11000
  145.0706  140.9153  143.4884 LP  0  0  0  0  0  0  0  0  0  0  0  0  # atno 17320 bound_to 7965
  145.0976  139.2846  143.5703 LP  0  0  0  0  0  0  0  0  0  0  0  0  # atno 17321 bound_to 7965
  140.5575  144.0323  150.6154 LP  0  0  0  0  0  0  0  0  0  0  0  0  # atno 17342 bound_to 10162
  140.3398  143.3026  152.0600 LP  0  0  0  0  0  0  0  0  0  0  0  0  # atno 17343 bound_to 10162
  157.2882  130.6783  149.6100 LP  0  0  0  0  0  0  0  0  0  0  0  0  # atno 17370 bound_to 10713
  155.9666  130.4429  150.5399 LP  0  0  0  0  0  0  0  0  0  0  0  0  # atno 17371 bound_to 10713
  141.1861  133.6556  156.5226 LP  0  0  0  0  0  0  0  0  0  0  0  0  # atno 17394 bound_to 11000
  140.4135  134.7251  157.4849 LP  0  0  0  0  0  0  0  0  0  0  0  0  # atno 17395 bound_to 11000

$$$$
