AV-unprocessed.smi:484|AV-procd|sdf|2687|dock4
  -GOLD-   2262023113D 1   1.00000     0.00000
 Structure written by MMmdl.
 46 48  0  0  0  0  0  0  0  0  1 V2000
  142.7247  145.3667  154.3901 C   0  0  0  0  0  0  0  0  0  0  0  0
  143.2206  144.7306  155.6933 C   0  0  0  0  0  0  0  0  0  0  0  0
  144.2959  143.6888  155.4497 C   0  0  0  0  0  0  0  0  0  0  0  0
  144.8037  143.4841  154.1515 C   0  0  0  0  0  0  0  0  0  0  0  0
  145.7971  142.5121  153.9265 C   0  0  0  0  0  0  0  0  0  0  0  0
  146.2992  141.7325  154.9883 C   0  0  0  0  0  0  0  0  0  0  0  0
  147.2705  140.8058  154.6775 O   0  0  0  0  0  0  0  0  0  0  0  0
  148.2116  140.4519  155.6834 C   0  0  0  0  0  0  0  0  0  0  0  0
  149.3122  141.5212  155.7704 C   0  0  2  0  0  0  0  0  0  0  0  0
  149.2517  142.3434  154.6222 O   0  0  0  0  0  0  0  0  0  0  0  0
  150.7249  140.9387  155.9815 C   0  0  0  0  0  0  0  0  0  0  0  0
  151.1849  141.0696  157.3572 N   0  0  0  0  0  0  0  0  0  0  0  0
  151.5308  140.0836  158.2226 C   0  0  0  0  0  0  0  0  0  0  0  0
  151.4905  138.6352  157.8418 C   0  0  0  0  0  0  0  0  0  0  0  0
  150.6911  137.8652  158.7138 O   0  0  0  0  0  0  0  0  0  0  0  0
  151.9167  140.4836  159.4347 N   0  0  0  0  0  0  0  0  0  0  0  0
  151.8166  141.8584  159.3467 C   0  0  0  0  0  0  0  0  0  0  0  0
  152.0876  142.8618  160.3046 C   0  0  0  0  0  0  0  0  0  0  0  0
  151.9107  144.2232  159.9818 C   0  0  0  0  0  0  0  0  0  0  0  0
  151.4614  144.6003  158.6996 C   0  0  0  0  0  0  0  0  0  0  0  0
  151.1855  143.6166  157.7306 C   0  0  0  0  0  0  0  0  0  0  0  0
  151.3633  142.2587  158.0577 C   0  0  0  0  0  0  0  0  0  0  0  0
  145.7841  141.9427  156.2925 C   0  0  0  0  0  0  0  0  0  0  0  0
  144.7895  142.9141  156.5184 C   0  0  0  0  0  0  0  0  0  0  0  0
  141.9530  146.1103  154.5897 H   0  0  0  0  0  0  0  0  0  0  0  0
  142.2995  144.6162  153.7229 H   0  0  0  0  0  0  0  0  0  0  0  0
  143.5377  145.8644  153.8605 H   0  0  0  0  0  0  0  0  0  0  0  0
  143.6133  145.5023  156.3563 H   0  0  0  0  0  0  0  0  0  0  0  0
  142.3846  144.2699  156.2208 H   0  0  0  0  0  0  0  0  0  0  0  0
  144.4316  144.0703  153.3239 H   0  0  0  0  0  0  0  0  0  0  0  0
  146.1782  142.3632  152.9269 H   0  0  0  0  0  0  0  0  0  0  0  0
  147.7242  140.3304  156.6524 H   0  0  0  0  0  0  0  0  0  0  0  0
  148.6716  139.4978  155.4210 H   0  0  0  0  0  0  0  0  0  0  0  0
  149.0713  142.1699  156.6127 H   0  0  0  0  0  0  0  0  0  0  0  0
  149.1997  143.2444  154.9027 H   0  0  0  0  0  0  0  0  0  0  0  0
  150.7454  139.8861  155.6994 H   0  0  0  0  0  0  0  0  0  0  0  0
  151.4452  141.4364  155.3314 H   0  0  0  0  0  0  0  0  0  0  0  0
  151.0935  138.5392  156.8306 H   0  0  0  0  0  0  0  0  0  0  0  0
  152.5007  138.2276  157.8211 H   0  0  0  0  0  0  0  0  0  0  0  0
  150.2351  138.4511  159.2982 H   0  0  0  0  0  0  0  0  0  0  0  0
  152.4319  142.5827  161.2893 H   0  0  0  0  0  0  0  0  0  0  0  0
  152.1207  144.9818  160.7218 H   0  0  0  0  0  0  0  0  0  0  0  0
  151.3287  145.6451  158.4604 H   0  0  0  0  0  0  0  0  0  0  0  0
  150.8396  143.9020  156.7485 H   0  0  0  0  0  0  0  0  0  0  0  0
  146.1343  141.3705  157.1380 H   0  0  0  0  0  0  0  0  0  0  0  0
  144.4054  143.0616  157.5172 H   0  0  0  0  0  0  0  0  0  0  0  0
  1  2  1  0  0  0  0
  1 25  1  0  0  0  0
  1 26  1  0  0  0  0
  1 27  1  0  0  0  0
  2  3  1  0  0  0  0
  2 28  1  0  0  0  0
  2 29  1  0  0  0  0
  3 24  1  0  0  0  0
  3  4  2  0  0  0  0
  4  5  1  0  0  0  0
  4 30  1  0  0  0  0
  5  6  2  0  0  0  0
  5 31  1  0  0  0  0
  6  7  1  0  0  0  0
  6 23  1  0  0  0  0
  7  8  1  0  0  0  0
  8  9  1  0  0  0  0
  8 32  1  0  0  0  0
  8 33  1  0  0  0  0
  9 10  1  0  0  0  0
  9 11  1  0  0  0  0
  9 34  1  0  0  0  0
 10 35  1  0  0  0  0
 11 12  1  0  0  0  0
 11 36  1  0  0  0  0
 11 37  1  0  0  0  0
 12 22  1  0  0  0  0
 12 13  1  0  0  0  0
 13 14  1  0  0  0  0
 13 16  2  0  0  0  0
 14 15  1  0  0  0  0
 14 38  1  0  0  0  0
 14 39  1  0  0  0  0
 15 40  1  0  0  0  0
 16 17  1  0  0  0  0
 17 22  2  0  0  0  0
 17 18  1  0  0  0  0
 18 19  2  0  0  0  0
 18 41  1  0  0  0  0
 19 20  1  0  0  0  0
 19 42  1  0  0  0  0
 20 21  2  0  0  0  0
 20 43  1  0  0  0  0
 21 22  1  0  0  0  0
 21 44  1  0  0  0  0
 23 24  2  0  0  0  0
 23 45  1  0  0  0  0
 24 46  1  0  0  0  0
M  END
> <s_m_source_file>
AV-unprocessed.smi

> <i_m_source_file_index>
484

> <i_lp_mmshare_version>
43012

> <i_f3d_flags>
0

> <s_epik_input>
W0NIM11bQ0gyXWMxW2NIXVtjSF1jKFtjSF1bY0hdMSlPW0NIMl1bQ0BIXShbT0hdKVtDSDJdbihjKG4yKVtDSDJdW09IXSljKGMyMylbY0hdW2NIXVtjSF1bY0hdMw==

> <s_epik_cmdline>
J2VwaWtfcHl0aG9uJywgJy1waCcsICc3LjAnLCAnLXRuJywgJzgnLCAnLW1hJywgJzIwMCcsICctbWV0YWxfYmluZGluZycsICctaW1hZScsICc8aW5maWxlLm1hZT4nLCAnLW9tYWUnLCAnPG91dGZpbGUubWFlPic=

> <r_lp_tautomer_probability>
1

> <r_epik_Ionization_Penalty>
0.0555463

> <r_epik_Ionization_Penalty_Charging>
0

> <r_epik_Ionization_Penalty_Neutral>
0.0555463

> <r_epik_State_Penalty>
0.0477854

> <r_epik_Charging_Adjusted_Penalty>
0.0477854

> <i_epik_Tot_Q>
0

> <i_epik_Tot_abs_Q>
0

> <r_epik_Metal_State_Penalty>
4.97632e-05

> <b_epik_Metal_Only>
0

> <s_lp_Force_Field>
OPLS_2005

> <r_lp_Energy>
15.7427

> <b_lp_Chiralities_Consistent>
1

> <s_lp_Variant>
AV-unprocessed.smi:484-1

> <Gold.Version>
5.8.1

> <Gold.Id.Protein>
6NUR|6NUR_protein|mol2

> <Gold.PLP.Fitness>
49.7620

> <Gold.PLP.PLP>
-49.9506

> <Gold.PLP.part.hbond>
-3.0437

> <Gold.PLP.part.metal>
0.0000

> <Gold.PLP.part.buried>
-5.9826

> <Gold.PLP.part.nonpolar>
-41.1545

> <Gold.PLP.part.repulsive>
0.1016

> <Gold.PLP.ligand.clash>
0.0000

> <Gold.PLP.ligand.torsion>
1.7584

> <Gold.PLP.Chemscore.Hbond>
1.0615

> <Gold.PLP.Chemscore.CHOScore>
0.0000

> <Gold.PLP.Chemscore.Metal>
0.0000

> <Gold.Chemscore.Hbonds>
donor molecule, donor type, donor heavy atom, donor atom, acceptor molecule, acceptor atom, score
      L1  H    10    35       P1  8028  1.00
      P1  H  8011  8017       L1    10  0.04

> <Gold.PLP.Chemscore.Internal.Correction>
0.1437

> <Gold.Rescore>
     Score         DG    S(hbond)    S(metal)    S(lipo)     H(rot)  DE(clash)    DE(int)     intcor
     14.15     -15.85       1.02        0.00     126.88       3.08       0.07       1.63       ----

> <Gold.Chemscore.Fitness>
14.1462

> <Gold.Chemscore.DG>
-15.8499

> <Gold.Chemscore.ZeroCoef>
-5.4800

> <Gold.Chemscore.Hbond>
1.0195

> <Gold.Chemscore.Metal>
0.0000

> <Gold.Chemscore.Lipo>
126.8827

> <Gold.Chemscore.Internal_Hbond>
0.0000

> <Gold.Chemscore.DEClash>
0.0716

> <Gold.Chemscore.DEInternal>
1.6321

> <Gold.Chemscore.Rot>
3.0783

> <Gold.Chemscore.Internal.Correction>
   9.000000E+99

> <Gold.Chemscore.Hbonds>
donor molecule, donor type, donor heavy atom, donor atom, acceptor molecule, acceptor atom, score
      L1  H    10    35       P1  8028  1.00
      P1  H  8011  8017       L1    10  0.02

> <Gold.Chemscore.Hbond.Weighted>
-3.4052

> <Gold.Chemscore.Metal.Weighted>
-0.0000

> <Gold.Chemscore.Lipo.Weighted>
-14.8453

> <Gold.Chemscore.Internal_Hbond.Weighted>
0.0000

> <Gold.Chemscore.DEClash.Weighted>
0.0716

> <Gold.Chemscore.DEInternal.Weighted>
1.6321

> <Gold.Chemscore.Rot.Weighted>
7.8805

> <Gold.Chemscore.Internal.Correction.Weighted>
   9.000000E+99

> <Gold.Protein.RotatedTorsions>
[ 6907 6896 6895 6894 ] final   92.47 input  -60.11 | X-H torsion
[ 7974 7965 7964 7962 ] final  159.09 input  175.53 | X-H torsion
[ 8008 7997 7996 7995 ] final -161.12 input   59.86 | X-H torsion
[ 10167 10162 10161 10158 ] final   98.23 input  -65.29 | X-H torsion
[ 10718 10713 10712 10709 ] final -105.49 input   66.30 | X-H torsion
[ 10763 10752 10751 10750 ] final   27.29 input  -60.55 | X-H torsion
[ 11005 11000 10999 10996 ] final -133.89 input  -57.11 | X-H torsion

> <Gold.Protein.ActiveResidues>
 VAL166  LYS551  ARG553  GLY616  TRP617  ASP618  TYR619  PRO620  LYS621  CYS622 
 ASP623  PHE694  ASN695  SER759  ASP760  ASP761  ALA762  ILE779  LEU786  VAL792 
 PHE793  MET794  SER795  GLU796  ALA797  LYS798  CYS799  TRP800  GLU811  SER814 

> <Gold.Protein.RotatedAtoms>
  152.5452  134.1497  159.8513 H   0  0  0  0  0  0  0  0  0  0  0  0  # atno 6907 bound_to 6896
  151.1525  133.4891  159.2602 H   0  0  0  0  0  0  0  0  0  0  0  0  # atno 6908 bound_to 6896
  151.1457  135.0213  159.8700 H   0  0  0  0  0  0  0  0  0  0  0  0  # atno 6909 bound_to 6896
  144.7809  139.7569  143.6260 H   0  0  0  0  0  0  0  0  0  0  0  0  # atno 7974 bound_to 7965
  155.7875  140.0873  157.2026 H   0  0  0  0  0  0  0  0  0  0  0  0  # atno 8008 bound_to 7997
  154.3987  140.1496  156.3182 H   0  0  0  0  0  0  0  0  0  0  0  0  # atno 8009 bound_to 7997
  155.8592  140.3431  155.5747 H   0  0  0  0  0  0  0  0  0  0  0  0  # atno 8010 bound_to 7997
  139.7728  144.6916  151.0132 H   0  0  0  0  0  0  0  0  0  0  0  0  # atno 10167 bound_to 10162
  156.0348  130.5566  150.7546 H   0  0  0  0  0  0  0  0  0  0  0  0  # atno 10718 bound_to 10713
  153.0566  135.6540  154.0563 H   0  0  0  0  0  0  0  0  0  0  0  0  # atno 10763 bound_to 10752
  154.0240  135.2917  155.3379 H   0  0  0  0  0  0  0  0  0  0  0  0  # atno 10764 bound_to 10752
  154.6884  135.5292  153.8425 H   0  0  0  0  0  0  0  0  0  0  0  0  # atno 10765 bound_to 10752
  140.9040  134.1654  157.4440 H   0  0  0  0  0  0  0  0  0  0  0  0  # atno 11005 bound_to 11000
  146.2017  139.5316  142.9739 LP  0  0  0  0  0  0  0  0  0  0  0  0  # atno 17320 bound_to 7965
  145.6052  141.0349  143.1996 LP  0  0  0  0  0  0  0  0  0  0  0  0  # atno 17321 bound_to 7965
  140.7815  143.4569  151.0332 LP  0  0  0  0  0  0  0  0  0  0  0  0  # atno 17342 bound_to 10162
  139.8252  143.7765  152.3178 LP  0  0  0  0  0  0  0  0  0  0  0  0  # atno 17343 bound_to 10162
  157.5081  131.0923  151.0232 LP  0  0  0  0  0  0  0  0  0  0  0  0  # atno 17370 bound_to 10713
  157.0594  130.5819  149.5383 LP  0  0  0  0  0  0  0  0  0  0  0  0  # atno 17371 bound_to 10713
  139.8746  134.9909  156.5525 LP  0  0  0  0  0  0  0  0  0  0  0  0  # atno 17394 bound_to 11000
  140.8195  133.8365  155.8882 LP  0  0  0  0  0  0  0  0  0  0  0  0  # atno 17395 bound_to 11000

$$$$
