AV-unprocessed.smi:468|AV-procd|sdf|2651|dock3
  -GOLD-   2262023 63D 1   1.00000     0.00000
 Structure written by MMmdl.
 50 51  0  0  0  0  0  0  0  0  1 V2000
  150.1804  134.9195  155.4927 C   0  0  0  0  0  0  0  0  0  0  0  0
  149.4273  135.6393  156.4562 O   0  0  0  0  0  0  0  0  0  0  0  0
  148.4936  134.8528  157.1845 C   0  0  0  0  0  0  0  0  0  0  0  0
  147.4748  135.6964  157.9791 C   0  0  0  0  0  0  0  0  0  0  0  0
  148.1098  136.5733  158.9774 N   0  0  0  0  0  0  0  0  0  0  0  0
  147.8268  136.4422  160.3008 C   0  0  0  0  0  0  0  0  0  0  0  0
  148.2949  137.2089  161.1442 O   0  0  0  0  0  0  0  0  0  0  0  0
  146.8669  135.3209  160.7581 C   0  0  0  0  0  0  0  0  0  0  0  0
  146.6823  135.1616  162.2812 C   0  0  0  0  0  0  0  0  0  0  0  0
  146.7834  133.6463  162.0877 C   0  0  0  0  0  0  0  0  0  0  0  0
  147.4957  133.9174  160.7600 C   0  0  0  0  0  0  0  0  0  0  0  0
  148.8736  137.6474  158.4841 C   0  0  0  0  0  0  0  0  0  0  0  0
  148.3209  138.6586  157.7487 C   0  0  0  0  0  0  0  0  0  0  0  0
  146.9622  138.6582  157.4719 N   0  0  0  0  0  0  0  0  0  0  0  0
  149.0971  139.7080  157.2441 N   0  0  0  0  0  0  0  0  0  0  0  0
  148.5724  140.7991  156.4418 C   0  0  0  0  0  0  0  0  0  0  0  0
  148.0831  140.3804  155.0350 C   0  0  0  0  0  0  0  0  0  0  0  0
  149.1321  139.4976  154.3440 C   0  0  0  0  0  0  0  0  0  0  0  0
  147.7127  141.5800  154.1462 C   0  0  0  0  0  0  0  0  0  0  0  0
  150.4926  139.7349  157.4813 C   0  0  0  0  0  0  0  0  0  0  0  0
  151.2369  140.6186  157.0550 O   0  0  0  0  0  0  0  0  0  0  0  0
  151.0298  138.6978  158.2349 N   0  0  0  0  0  0  0  0  0  0  0  0
  150.3140  137.6309  158.7700 C   0  0  0  0  0  0  0  0  0  0  0  0
  150.9070  136.7684  159.4164 O   0  0  0  0  0  0  0  0  0  0  0  0
  152.0249  138.7178  158.4042 H   0  0  0  0  0  0  0  0  0  0  0  0
  150.9278  135.5803  155.0539 H   0  0  0  0  0  0  0  0  0  0  0  0
  149.5532  134.5531  154.6805 H   0  0  0  0  0  0  0  0  0  0  0  0
  150.7033  134.0759  155.9442 H   0  0  0  0  0  0  0  0  0  0  0  0
  147.9738  134.1754  156.5057 H   0  0  0  0  0  0  0  0  0  0  0  0
  149.0585  134.2168  157.8659 H   0  0  0  0  0  0  0  0  0  0  0  0
  146.8599  136.2807  157.2940 H   0  0  0  0  0  0  0  0  0  0  0  0
  146.7690  135.0307  158.4788 H   0  0  0  0  0  0  0  0  0  0  0  0
  145.8981  135.3405  160.2588 H   0  0  0  0  0  0  0  0  0  0  0  0
  147.4984  135.5506  162.8922 H   0  0  0  0  0  0  0  0  0  0  0  0
  145.7141  135.4959  162.6547 H   0  0  0  0  0  0  0  0  0  0  0  0
  147.3890  133.1298  162.8328 H   0  0  0  0  0  0  0  0  0  0  0  0
  145.8099  133.1721  161.9548 H   0  0  0  0  0  0  0  0  0  0  0  0
  147.1680  133.2752  159.9419 H   0  0  0  0  0  0  0  0  0  0  0  0
  148.5836  133.9236  160.8525 H   0  0  0  0  0  0  0  0  0  0  0  0
  146.3617  137.9172  157.8059 H   0  0  0  0  0  0  0  0  0  0  0  0
  146.4941  139.4903  157.1429 H   0  0  0  0  0  0  0  0  0  0  0  0
  147.7737  141.2714  157.0119 H   0  0  0  0  0  0  0  0  0  0  0  0
  149.3556  141.5579  156.3863 H   0  0  0  0  0  0  0  0  0  0  0  0
  147.1842  139.7740  155.1506 H   0  0  0  0  0  0  0  0  0  0  0  0
  150.0664  140.0387  154.1907 H   0  0  0  0  0  0  0  0  0  0  0  0
  148.7803  139.1569  153.3698 H   0  0  0  0  0  0  0  0  0  0  0  0
  149.3541  138.6120  154.9401 H   0  0  0  0  0  0  0  0  0  0  0  0
  148.5609  142.2520  154.0136 H   0  0  0  0  0  0  0  0  0  0  0  0
  146.8917  142.1557  154.5740 H   0  0  0  0  0  0  0  0  0  0  0  0
  147.3927  141.2513  153.1571 H   0  0  0  0  0  0  0  0  0  0  0  0
  1  2  1  0  0  0  0
  1 26  1  0  0  0  0
  1 27  1  0  0  0  0
  1 28  1  0  0  0  0
  2  3  1  0  0  0  0
  3  4  1  0  0  0  0
  3 29  1  0  0  0  0
  3 30  1  0  0  0  0
  4  5  1  0  0  0  0
  4 31  1  0  0  0  0
  4 32  1  0  0  0  0
  5  6  1  0  0  0  0
  5 12  1  0  0  0  0
  6  7  2  0  0  0  0
  6  8  1  0  0  0  0
  8 11  1  0  0  0  0
  8  9  1  0  0  0  0
  8 33  1  0  0  0  0
  9 10  1  0  0  0  0
  9 34  1  0  0  0  0
  9 35  1  0  0  0  0
 10 11  1  0  0  0  0
 10 36  1  0  0  0  0
 10 37  1  0  0  0  0
 11 38  1  0  0  0  0
 11 39  1  0  0  0  0
 12 23  1  0  0  0  0
 12 13  2  0  0  0  0
 13 14  1  0  0  0  0
 13 15  1  0  0  0  0
 14 40  1  0  0  0  0
 14 41  1  0  0  0  0
 15 16  1  0  0  0  0
 15 20  1  0  0  0  0
 16 17  1  0  0  0  0
 16 42  1  0  0  0  0
 16 43  1  0  0  0  0
 17 18  1  0  0  0  0
 17 19  1  0  0  0  0
 17 44  1  0  0  0  0
 18 45  1  0  0  0  0
 18 46  1  0  0  0  0
 18 47  1  0  0  0  0
 19 48  1  0  0  0  0
 19 49  1  0  0  0  0
 19 50  1  0  0  0  0
 20 21  2  0  0  0  0
 20 22  1  0  0  0  0
 22 25  1  0  0  0  0
 22 23  1  0  0  0  0
 23 24  2  0  0  0  0
M  END
> <s_m_source_file>
AV-unprocessed.smi

> <i_m_source_file_index>
468

> <i_lp_mmshare_version>
43012

> <i_f3d_flags>
0

> <s_epik_input>
W0NIMl0xW0NIMl1bQ0gyXVtDSF0xQyg9TylOKFtDSDJdW0NIMl1PW0NIM10pYzJjKFtOSDJdKW4oW0NIMl1bQ0hdKFtDSDNdKVtDSDNdKWMoPU8pW25IXWMyPU8=

> <s_epik_cmdline>
J2VwaWtfcHl0aG9uJywgJy1waCcsICc3LjAnLCAnLXRuJywgJzgnLCAnLW1hJywgJzIwMCcsICctbWV0YWxfYmluZGluZycsICctaW1hZScsICc8aW5maWxlLm1hZT4nLCAnLW9tYWUnLCAnPG91dGZpbGUubWFlPic=

> <r_lp_tautomer_probability>
1

> <r_epik_Ionization_Penalty>
5.59455e-05

> <r_epik_Ionization_Penalty_Charging>
2.72738e-05

> <r_epik_Ionization_Penalty_Neutral>
2.86717e-05

> <r_epik_State_Penalty>
-0

> <r_epik_Charging_Adjusted_Penalty>
2.72738e-05

> <i_epik_Tot_Q>
0

> <i_epik_Tot_abs_Q>
0

> <r_epik_Metal_State_Penalty>
0.0266192

> <b_epik_Metal_Only>
0

> <s_lp_Force_Field>
OPLS_2005

> <r_lp_Energy>
37.1478

> <b_lp_Chiralities_Consistent>
1

> <s_lp_Variant>
AV-unprocessed.smi:468-1

> <Gold.Version>
5.8.1

> <Gold.Id.Protein>
6NUR|6NUR_protein|mol2

> <Gold.PLP.Fitness>
38.4623

> <Gold.PLP.PLP>
-31.8856

> <Gold.PLP.part.hbond>
-2.7333

> <Gold.PLP.part.metal>
0.0000

> <Gold.PLP.part.buried>
-4.9914

> <Gold.PLP.part.nonpolar>
-24.0031

> <Gold.PLP.part.repulsive>
0.1607

> <Gold.PLP.ligand.clash>
0.0000

> <Gold.PLP.ligand.torsion>
1.7165

> <Gold.PLP.Chemscore.Hbond>
2.4175

> <Gold.PLP.Chemscore.CHOScore>
0.0000

> <Gold.PLP.Chemscore.Metal>
0.0000

> <Gold.Chemscore.Hbonds>
donor molecule, donor type, donor heavy atom, donor atom, acceptor molecule, acceptor atom, score
      P1  H  6896  6909       L1    24  1.00
      P1  H  6931  6943       L1     7  0.88
      P1  H  6934  6947       L1     7  0.44

> <Gold.PLP.Chemscore.Internal.Correction>
2.7570

> <Gold.Rescore>
     Score         DG    S(hbond)    S(metal)    S(lipo)     H(rot)  DE(clash)    DE(int)     intcor
     13.22     -16.00       2.76        0.00      56.61       2.08       0.00       2.77       ----

> <Gold.Chemscore.Fitness>
13.2226

> <Gold.Chemscore.DG>
-15.9978

> <Gold.Chemscore.ZeroCoef>
-5.4800

> <Gold.Chemscore.Hbond>
2.7578

> <Gold.Chemscore.Metal>
0.0000

> <Gold.Chemscore.Lipo>
56.6091

> <Gold.Chemscore.Internal_Hbond>
0.0000

> <Gold.Chemscore.DEClash>
0.0004

> <Gold.Chemscore.DEInternal>
2.7748

> <Gold.Chemscore.Rot>
2.0768

> <Gold.Chemscore.Internal.Correction>
   9.000000E+99

> <Gold.Chemscore.Hbonds>
donor molecule, donor type, donor heavy atom, donor atom, acceptor molecule, acceptor atom, score
      P1  H  6896  6909       L1    24  0.99
      P1  H  6931  6943       L1     7  0.82
      P1  H  6934  6947       L1     7  0.24

> <Gold.Chemscore.Hbond.Weighted>
-9.2112

> <Gold.Chemscore.Metal.Weighted>
-0.0000

> <Gold.Chemscore.Lipo.Weighted>
-6.6233

> <Gold.Chemscore.Internal_Hbond.Weighted>
0.0000

> <Gold.Chemscore.DEClash.Weighted>
0.0004

> <Gold.Chemscore.DEInternal.Weighted>
2.7748

> <Gold.Chemscore.Rot.Weighted>
5.3166

> <Gold.Chemscore.Internal.Correction.Weighted>
   9.000000E+99

> <Gold.Protein.RotatedTorsions>
[ 6907 6896 6895 6894 ] final   86.65 input  -60.11 | X-H torsion
[ 7974 7965 7964 7962 ] final -134.79 input  175.53 | X-H torsion
[ 8008 7997 7996 7995 ] final -109.01 input   59.86 | X-H torsion
[ 10167 10162 10161 10158 ] final  -80.75 input  -65.29 | X-H torsion
[ 10718 10713 10712 10709 ] final   71.77 input   66.30 | X-H torsion
[ 10763 10752 10751 10750 ] final -170.69 input  -60.55 | X-H torsion
[ 11005 11000 10999 10996 ] final  127.56 input  -57.11 | X-H torsion

> <Gold.Protein.ActiveResidues>
 VAL166  LYS551  ARG553  GLY616  TRP617  ASP618  TYR619  PRO620  LYS621  CYS622 
 ASP623  PHE694  ASN695  SER759  ASP760  ASP761  ALA762  ILE779  LEU786  VAL792 
 PHE793  MET794  SER795  GLU796  ALA797  LYS798  CYS799  TRP800  GLU811  SER814 

> <Gold.Protein.RotatedAtoms>
  152.5398  134.2398  159.8857 H   0  0  0  0  0  0  0  0  0  0  0  0  # atno 6907 bound_to 6896
  151.2366  133.4415  159.2613 H   0  0  0  0  0  0  0  0  0  0  0  0  # atno 6908 bound_to 6896
  151.0666  134.9785  159.8343 H   0  0  0  0  0  0  0  0  0  0  0  0  # atno 6909 bound_to 6896
  144.9072  140.6848  143.5048 H   0  0  0  0  0  0  0  0  0  0  0  0  # atno 7974 bound_to 7965
  154.9529  140.0400  157.2152 H   0  0  0  0  0  0  0  0  0  0  0  0  # atno 8008 bound_to 7997
  154.7962  140.2844  155.5933 H   0  0  0  0  0  0  0  0  0  0  0  0  # atno 8009 bound_to 7997
  156.2956  140.2564  156.2820 H   0  0  0  0  0  0  0  0  0  0  0  0  # atno 8010 bound_to 7997
  140.4475  143.2494  151.8537 H   0  0  0  0  0  0  0  0  0  0  0  0  # atno 10167 bound_to 10162
  157.6468  130.9545  150.0836 H   0  0  0  0  0  0  0  0  0  0  0  0  # atno 10718 bound_to 10713
  154.6388  135.2896  155.0129 H   0  0  0  0  0  0  0  0  0  0  0  0  # atno 10763 bound_to 10752
  154.1263  135.6540  153.4917 H   0  0  0  0  0  0  0  0  0  0  0  0  # atno 10764 bound_to 10752
  153.0316  135.5299  154.7246 H   0  0  0  0  0  0  0  0  0  0  0  0  # atno 10765 bound_to 10752
  139.9514  134.9621  156.8872 H   0  0  0  0  0  0  0  0  0  0  0  0  # atno 11005 bound_to 11000
  145.3516  139.1705  143.4431 LP  0  0  0  0  0  0  0  0  0  0  0  0  # atno 17320 bound_to 7965
  146.3139  140.3569  142.8661 LP  0  0  0  0  0  0  0  0  0  0  0  0  # atno 17321 bound_to 7965
  139.4794  144.5158  151.8869 LP  0  0  0  0  0  0  0  0  0  0  0  0  # atno 17342 bound_to 10162
  140.4246  144.2197  150.5887 LP  0  0  0  0  0  0  0  0  0  0  0  0  # atno 17343 bound_to 10162
  156.1805  130.3650  149.9042 LP  0  0  0  0  0  0  0  0  0  0  0  0  # atno 17370 bound_to 10713
  156.6995  130.8927  151.3598 LP  0  0  0  0  0  0  0  0  0  0  0  0  # atno 17371 bound_to 10713
  140.5711  134.0442  155.7431 LP  0  0  0  0  0  0  0  0  0  0  0  0  # atno 17394 bound_to 11000
  141.1177  133.9513  157.2790 LP  0  0  0  0  0  0  0  0  0  0  0  0  # atno 17395 bound_to 11000

$$$$
