AV-unprocessed.smi:12|AV-procd|sdf|64|dock3
  -GOLD-   2262015183D 1   1.00000     0.00000
 Structure written by MMmdl.
 41 44  0  0  0  0  0  0  0  0  1 V2000
  144.6302  137.3391  157.0840 C   0  0  0  0  0  0  0  0  0  0  0  0
  145.3895  138.1984  156.0889 C   0  0  0  0  0  0  0  0  0  0  0  0
  146.0564  139.3122  156.4735 C   0  0  0  0  0  0  0  0  0  0  0  0
  146.7293  140.0478  155.5387 N   0  0  0  0  0  0  0  0  0  0  0  0
  146.7024  139.6511  154.1823 C   0  0  0  0  0  0  0  0  0  0  0  0
  146.0863  138.6008  153.7363 N   0  0  0  0  0  0  0  0  0  0  0  0
  145.3938  137.7949  154.6602 C   0  0  0  0  0  0  0  0  0  0  0  0
  144.8047  136.7819  154.2855 O   0  0  0  0  0  0  0  0  0  0  0  0
  147.4081  140.5512  153.4418 O   0  0  0  0  0  0  0  0  0  0  0  0
  147.9485  141.5614  154.3057 C   0  0  2  0  0  0  0  0  0  0  0  0
  149.4764  141.5270  154.4032 C   0  0  2  0  0  0  0  0  0  0  0  0
  150.0169  140.3085  153.9216 O   0  0  0  0  0  0  0  0  0  0  0  0
  149.7220  141.6699  155.9127 C   0  0  2  0  0  0  0  0  0  0  0  0
  151.0548  141.1306  156.4551 C   0  0  0  0  0  0  0  0  0  0  0  0
  151.3517  141.7554  157.6938 O   0  0  0  0  0  0  0  0  0  0  0  0
  152.2946  141.2317  158.5022 C   0  0  0  0  0  0  0  0  0  0  0  0
  152.9481  140.2243  158.2239 O   0  0  0  0  0  0  0  0  0  0  0  0
  152.4635  141.9962  159.7718 C   0  0  0  0  0  0  0  0  0  0  0  0
  153.2065  141.4240  160.8309 C   0  0  0  0  0  0  0  0  0  0  0  0
  153.3782  142.1183  162.0443 C   0  0  0  0  0  0  0  0  0  0  0  0
  152.8096  143.3941  162.2131 C   0  0  0  0  0  0  0  0  0  0  0  0
  152.0699  143.9753  161.1666 C   0  0  0  0  0  0  0  0  0  0  0  0
  151.8972  143.2824  159.9522 C   0  0  0  0  0  0  0  0  0  0  0  0
  148.6217  140.9902  156.4988 O   0  0  0  0  0  0  0  0  0  0  0  0
  147.4874  141.2812  155.7476 C   0  0  2  0  0  0  0  0  0  0  0  0
  144.7030  137.7445  158.0938 H   0  0  0  0  0  0  0  0  0  0  0  0
  145.0326  136.3257  157.0980 H   0  0  0  0  0  0  0  0  0  0  0  0
  143.5744  137.2874  156.8162 H   0  0  0  0  0  0  0  0  0  0  0  0
  146.0692  139.6249  157.5075 H   0  0  0  0  0  0  0  0  0  0  0  0
  147.5915  142.5495  154.0126 H   0  0  0  0  0  0  0  0  0  0  0  0
  149.9334  142.3446  153.8449 H   0  0  0  0  0  0  0  0  0  0  0  0
  149.6666  140.1433  153.0599 H   0  0  0  0  0  0  0  0  0  0  0  0
  149.6286  142.7228  156.1865 H   0  0  0  0  0  0  0  0  0  0  0  0
  150.9752  140.0537  156.6101 H   0  0  0  0  0  0  0  0  0  0  0  0
  151.8628  141.2935  155.7406 H   0  0  0  0  0  0  0  0  0  0  0  0
  153.6516  140.4452  160.7254 H   0  0  0  0  0  0  0  0  0  0  0  0
  153.9464  141.6701  162.8460 H   0  0  0  0  0  0  0  0  0  0  0  0
  152.9405  143.9258  163.1442 H   0  0  0  0  0  0  0  0  0  0  0  0
  151.6330  144.9547  161.2950 H   0  0  0  0  0  0  0  0  0  0  0  0
  151.3233  143.7570  159.1698 H   0  0  0  0  0  0  0  0  0  0  0  0
  146.8002  142.0079  156.1824 H   0  0  0  0  0  0  0  0  0  0  0  0
  1  2  1  0  0  0  0
  1 26  1  0  0  0  0
  1 27  1  0  0  0  0
  1 28  1  0  0  0  0
  2  7  1  0  0  0  0
  2  3  2  0  0  0  0
  3  4  1  0  0  0  0
  3 29  1  0  0  0  0
  4 25  1  0  0  0  0
  4  5  1  0  0  0  0
  5  6  2  0  0  0  0
  5  9  1  0  0  0  0
  6  7  1  0  0  0  0
  7  8  2  0  0  0  0
  9 10  1  0  0  0  0
 10 25  1  0  0  0  0
 10 11  1  0  0  0  0
 10 30  1  0  0  0  0
 11 12  1  0  0  0  0
 11 13  1  0  0  0  0
 11 31  1  0  0  0  0
 12 32  1  0  0  0  0
 13 14  1  0  0  0  0
 13 24  1  0  0  0  0
 13 33  1  0  0  0  0
 14 15  1  0  0  0  0
 14 34  1  0  0  0  0
 14 35  1  0  0  0  0
 15 16  1  0  0  0  0
 16 17  2  0  0  0  0
 16 18  1  0  0  0  0
 18 23  1  0  0  0  0
 18 19  2  0  0  0  0
 19 20  1  0  0  0  0
 19 36  1  0  0  0  0
 20 21  2  0  0  0  0
 20 37  1  0  0  0  0
 21 22  1  0  0  0  0
 21 38  1  0  0  0  0
 22 23  2  0  0  0  0
 22 39  1  0  0  0  0
 23 40  1  0  0  0  0
 24 25  1  0  0  0  0
 25 41  1  0  0  0  0
M  END
> <s_m_source_file>
AV-unprocessed.smi

> <i_m_source_file_index>
12

> <i_lp_mmshare_version>
43012

> <i_f3d_flags>
0

> <s_epik_input>
W0NIM11jKFtjSF0xKWMoPU8pbmMobjEyKU9bQ0BIXTNbQ0BASF0yT1tDQEBIXShbQ0BASF0zW09IXSlbQ0gyXU9DKD1PKWM0W2NIXVtjSF1bY0hdW2NIXVtjSF00

> <s_epik_cmdline>
J2VwaWtfcHl0aG9uJywgJy1waCcsICc3LjAnLCAnLXRuJywgJzgnLCAnLW1hJywgJzIwMCcsICctbWV0YWxfYmluZGluZycsICctaW1hZScsICc8aW5maWxlLm1hZT4nLCAnLW9tYWUnLCAnPG91dGZpbGUubWFlPic=

> <r_lp_tautomer_probability>
0.933681

> <r_epik_Ionization_Penalty>
0.00399549

> <r_epik_Ionization_Penalty_Charging>
3.09373e-09

> <r_epik_Ionization_Penalty_Neutral>
0.00399549

> <r_epik_State_Penalty>
0.00284953

> <r_epik_Charging_Adjusted_Penalty>
0.00284953

> <i_epik_Tot_Q>
0

> <i_epik_Tot_abs_Q>
0

> <r_epik_Metal_State_Penalty>
-0

> <b_epik_Metal_Only>
0

> <s_epik_Chemistry_Notes>
This compound has an ester and may undergo hydrolysis at high or low pH. This compound contains an acetal/aminal-like group ( X-CH(R)-Y where X, Y are N, S, or O) that may be acid/base labile, releasing an aldehyde.

> <s_lp_Force_Field>
OPLS_2005

> <r_lp_Energy>
52.4355

> <b_lp_Chiralities_Consistent>
1

> <s_lp_Variant>
AV-unprocessed.smi:12-4

> <Gold.Version>
5.8.1

> <Gold.Id.Protein>
6NUR|6NUR_protein|mol2

> <Gold.PLP.Fitness>
46.7699

> <Gold.PLP.PLP>
-39.3007

> <Gold.PLP.part.hbond>
-3.0000

> <Gold.PLP.part.metal>
0.0000

> <Gold.PLP.part.buried>
-3.3068

> <Gold.PLP.part.nonpolar>
-32.9771

> <Gold.PLP.part.repulsive>
0.4537

> <Gold.PLP.ligand.clash>
0.0000

> <Gold.PLP.ligand.torsion>
0.3608

> <Gold.PLP.Chemscore.Hbond>
2.7280

> <Gold.PLP.Chemscore.CHOScore>
0.0000

> <Gold.PLP.Chemscore.Metal>
0.0000

> <Gold.Chemscore.Hbonds>
donor molecule, donor type, donor heavy atom, donor atom, acceptor molecule, acceptor atom, score
      L1  H    12    32       P1  7957  1.00
      P1  H  7989  7998       L1    12  0.69
      P1  H  7997  8008       L1    17  0.95

> <Gold.PLP.Chemscore.Internal.Correction>
0.0067

> <Gold.Rescore>
     Score         DG    S(hbond)    S(metal)    S(lipo)     H(rot)  DE(clash)    DE(int)     intcor
     16.72     -17.70       1.99        0.00      95.44       2.18       0.59       0.38       ----

> <Gold.Chemscore.Fitness>
16.7240

> <Gold.Chemscore.DG>
-17.6954

> <Gold.Chemscore.ZeroCoef>
-5.4800

> <Gold.Chemscore.Hbond>
1.9851

> <Gold.Chemscore.Metal>
0.0000

> <Gold.Chemscore.Lipo>
95.4359

> <Gold.Chemscore.Internal_Hbond>
0.0000

> <Gold.Chemscore.DEClash>
0.5913

> <Gold.Chemscore.DEInternal>
0.3801

> <Gold.Chemscore.Rot>
2.1800

> <Gold.Chemscore.Internal.Correction>
   9.000000E+99

> <Gold.Chemscore.Hbonds>
donor molecule, donor type, donor heavy atom, donor atom, acceptor molecule, acceptor atom, score
      L1  H    12    32       P1  7957  0.99
      P1  H  7989  7998       L1    12  0.04
      P1  H  7997  8008       L1    17  0.85

> <Gold.Chemscore.Hbond.Weighted>
-6.6301

> <Gold.Chemscore.Metal.Weighted>
-0.0000

> <Gold.Chemscore.Lipo.Weighted>
-11.1660

> <Gold.Chemscore.Internal_Hbond.Weighted>
0.0000

> <Gold.Chemscore.DEClash.Weighted>
0.5913

> <Gold.Chemscore.DEInternal.Weighted>
0.3801

> <Gold.Chemscore.Rot.Weighted>
5.5807

> <Gold.Chemscore.Internal.Correction.Weighted>
   9.000000E+99

> <Gold.Protein.RotatedTorsions>
[ 6907 6896 6895 6894 ] final  -78.84 input  -60.11 | X-H torsion
[ 7974 7965 7964 7962 ] final -126.81 input  175.53 | X-H torsion
[ 8008 7997 7996 7995 ] final  -78.33 input   59.86 | X-H torsion
[ 10167 10162 10161 10158 ] final  146.67 input  -65.29 | X-H torsion
[ 10718 10713 10712 10709 ] final -162.83 input   66.30 | X-H torsion
[ 10763 10752 10751 10750 ] final   99.05 input  -60.55 | X-H torsion
[ 11005 11000 10999 10996 ] final   -8.85 input  -57.11 | X-H torsion

> <Gold.Protein.ActiveResidues>
 VAL166  LYS551  ARG553  GLY616  TRP617  ASP618  TYR619  PRO620  LYS621  CYS622 
 ASP623  PHE694  ASN695  SER759  ASP760  ASP761  ALA762  ILE779  LEU786  VAL792 
 PHE793  MET794  SER795  GLU796  ALA797  LYS798  CYS799  TRP800  GLU811  SER814 

> <Gold.Protein.RotatedAtoms>
  150.6963  134.4211  159.5205 H   0  0  0  0  0  0  0  0  0  0  0  0  # atno 6907 bound_to 6896
  152.1954  134.8632  160.0522 H   0  0  0  0  0  0  0  0  0  0  0  0  # atno 6908 bound_to 6896
  151.9572  133.3649  159.4059 H   0  0  0  0  0  0  0  0  0  0  0  0  # atno 6909 bound_to 6896
  144.9834  140.7662  143.4598 H   0  0  0  0  0  0  0  0  0  0  0  0  # atno 7974 bound_to 7965
  154.5679  140.0696  156.8920 H   0  0  0  0  0  0  0  0  0  0  0  0  # atno 8008 bound_to 7997
  155.2688  140.3363  155.4249 H   0  0  0  0  0  0  0  0  0  0  0  0  # atno 8009 bound_to 7997
  156.2095  140.1753  156.7711 H   0  0  0  0  0  0  0  0  0  0  0  0  # atno 8010 bound_to 7997
  139.4903  144.5812  151.6867 H   0  0  0  0  0  0  0  0  0  0  0  0  # atno 10167 bound_to 10162
  156.6160  130.8870  151.2947 H   0  0  0  0  0  0  0  0  0  0  0  0  # atno 10718 bound_to 10713
  153.2966  135.4127  155.1215 H   0  0  0  0  0  0  0  0  0  0  0  0  # atno 10763 bound_to 10752
  154.8537  135.3531  154.5908 H   0  0  0  0  0  0  0  0  0  0  0  0  # atno 10764 bound_to 10752
  153.6332  135.7060  153.5326 H   0  0  0  0  0  0  0  0  0  0  0  0  # atno 10765 bound_to 10752
  140.7279  133.8774  155.8870 H   0  0  0  0  0  0  0  0  0  0  0  0  # atno 11005 bound_to 11000
  145.2388  139.2082  143.5004 LP  0  0  0  0  0  0  0  0  0  0  0  0  # atno 17320 bound_to 7965
  146.3414  140.2279  142.8592 LP  0  0  0  0  0  0  0  0  0  0  0  0  # atno 17321 bound_to 7965
  140.5419  144.0565  150.6092 LP  0  0  0  0  0  0  0  0  0  0  0  0  # atno 17342 bound_to 10162
  140.3590  143.2919  152.0404 LP  0  0  0  0  0  0  0  0  0  0  0  0  # atno 17343 bound_to 10162
  157.7241  130.9598  150.1560 LP  0  0  0  0  0  0  0  0  0  0  0  0  # atno 17370 bound_to 10713
  156.2350  130.3685  149.8401 LP  0  0  0  0  0  0  0  0  0  0  0  0  # atno 17371 bound_to 10713
  140.9947  134.1231  157.4375 LP  0  0  0  0  0  0  0  0  0  0  0  0  # atno 17394 bound_to 11000
  139.8833  135.0051  156.6290 LP  0  0  0  0  0  0  0  0  0  0  0  0  # atno 17395 bound_to 11000

$$$$
