AV-unprocessed.smi:3056|AV-procd|sdf|11651|dock1
  -GOLD-   2272017 53D 1   1.00000     0.00000
 Structure written by MMmdl.
 48 49  0  0  0  0  0  0  0  0  2 V2000
  152.2698  144.5547  157.6134 C   0  0  0  0  0  0  0  0  0  0  0  0
  152.0318  143.0808  157.4518 C   0  0  0  0  0  0  0  0  0  0  0  0
  152.5086  142.0228  158.2757 C   0  0  0  0  0  0  0  0  0  0  0  0
  152.1150  140.8310  157.8584 N   0  0  0  0  0  0  0  0  0  0  0  0
  151.3842  141.0780  156.7498 N   0  0  0  0  0  0  0  0  0  0  0  0
  150.7697  139.9665  156.0298 C   0  0  2  0  0  0  0  0  0  0  0  0
  150.0549  140.4539  154.7569 C   0  0  0  0  0  0  0  0  0  0  0  0
  149.8868  139.0716  156.9417 C   0  0  1  0  0  0  0  0  0  0  0  0
  148.5175  139.7048  157.2384 C   0  0  0  0  0  0  0  0  0  0  0  0
  149.6820  137.7252  156.3609 N   0  3  0  0  0  0  0  0  0  0  0  0
  148.6134  136.9209  156.9926 C   0  0  0  0  0  0  0  0  0  0  0  0
  148.8767  136.6651  158.4836 C   0  0  0  0  0  0  0  0  0  0  0  0
  150.0042  136.3134  158.8352 O   0  0  0  0  0  0  0  0  0  0  0  0
  147.8643  136.8376  159.3667 N   0  0  0  0  0  0  0  0  0  0  0  0
  146.4836  137.2052  159.0373 C   0  0  0  0  0  0  0  0  0  0  0  0
  145.5680  136.0301  159.4223 C   0  0  0  0  0  0  0  0  0  0  0  0
  145.7279  135.7314  160.8071 O   0  0  0  0  0  0  0  0  0  0  0  0
  147.0675  135.3969  161.1672 C   0  0  2  0  0  0  0  0  0  0  0  0
  147.0961  135.0790  162.6659 C   0  0  0  0  0  0  0  0  0  0  0  0
  147.9956  136.5730  160.8020 C   0  0  0  0  0  0  0  0  0  0  0  0
  151.3138  142.4329  156.4874 C   0  0  0  0  0  0  0  0  0  0  0  0
  152.6173  144.8017  158.6167 H   0  0  0  0  0  0  0  0  0  0  0  0
  151.3615  145.1314  157.4380 H   0  0  0  0  0  0  0  0  0  0  0  0
  153.0228  144.9184  156.9141 H   0  0  0  0  0  0  0  0  0  0  0  0
  153.1232  142.0859  159.1617 H   0  0  0  0  0  0  0  0  0  0  0  0
  151.5853  139.3320  155.6774 H   0  0  0  0  0  0  0  0  0  0  0  0
  149.6441  139.6161  154.1929 H   0  0  0  0  0  0  0  0  0  0  0  0
  150.7484  140.9803  154.1004 H   0  0  0  0  0  0  0  0  0  0  0  0
  149.2362  141.1372  154.9825 H   0  0  0  0  0  0  0  0  0  0  0  0
  150.3937  138.9643  157.9023 H   0  0  0  0  0  0  0  0  0  0  0  0
  148.6309  140.7003  157.6684 H   0  0  0  0  0  0  0  0  0  0  0  0
  147.9553  139.1028  157.9529 H   0  0  0  0  0  0  0  0  0  0  0  0
  147.9094  139.7987  156.3384 H   0  0  0  0  0  0  0  0  0  0  0  0
  149.4419  137.8341  155.3858 H   0  0  0  0  0  0  0  0  0  0  0  0
  147.6581  137.4346  156.8863 H   0  0  0  0  0  0  0  0  0  0  0  0
  148.5425  135.9675  156.4672 H   0  0  0  0  0  0  0  0  0  0  0  0
  146.2055  138.0956  159.6031 H   0  0  0  0  0  0  0  0  0  0  0  0
  146.3302  137.4610  157.9905 H   0  0  0  0  0  0  0  0  0  0  0  0
  144.5252  136.2868  159.2358 H   0  0  0  0  0  0  0  0  0  0  0  0
  145.7929  135.1475  158.8215 H   0  0  0  0  0  0  0  0  0  0  0  0
  147.3709  134.5048  160.6160 H   0  0  0  0  0  0  0  0  0  0  0  0
  148.0995  134.8004  162.9890 H   0  0  0  0  0  0  0  0  0  0  0  0
  146.4294  134.2490  162.9013 H   0  0  0  0  0  0  0  0  0  0  0  0
  146.7799  135.9384  163.2577 H   0  0  0  0  0  0  0  0  0  0  0  0
  149.0201  136.3436  161.0982 H   0  0  0  0  0  0  0  0  0  0  0  0
  147.7139  137.4672  161.3602 H   0  0  0  0  0  0  0  0  0  0  0  0
  150.7648  142.8249  155.6439 H   0  0  0  0  0  0  0  0  0  0  0  0
  150.5526  137.2159  156.4145 H   0  0  0  0  0  0  0  0  0  0  0  0
  1  2  1  0  0  0  0
  1 22  1  0  0  0  0
  1 23  1  0  0  0  0
  1 24  1  0  0  0  0
  2 21  2  0  0  0  0
  2  3  1  0  0  0  0
  3  4  2  0  0  0  0
  3 25  1  0  0  0  0
  4  5  1  0  0  0  0
  5  6  1  0  0  0  0
  5 21  1  0  0  0  0
  6  7  1  0  0  0  0
  6  8  1  0  0  0  0
  6 26  1  0  0  0  0
  7 27  1  0  0  0  0
  7 28  1  0  0  0  0
  7 29  1  0  0  0  0
  8  9  1  0  0  0  0
  8 10  1  0  0  0  0
  8 30  1  0  0  0  0
  9 31  1  0  0  0  0
  9 32  1  0  0  0  0
  9 33  1  0  0  0  0
 10 11  1  0  0  0  0
 10 34  1  0  0  0  0
 10 48  1  0  0  0  0
 11 12  1  0  0  0  0
 11 35  1  0  0  0  0
 11 36  1  0  0  0  0
 12 13  2  0  0  0  0
 12 14  1  0  0  0  0
 14 20  1  0  0  0  0
 14 15  1  0  0  0  0
 15 16  1  0  0  0  0
 15 37  1  0  0  0  0
 15 38  1  0  0  0  0
 16 17  1  0  0  0  0
 16 39  1  0  0  0  0
 16 40  1  0  0  0  0
 17 18  1  0  0  0  0
 18 19  1  0  0  0  0
 18 20  1  0  0  0  0
 18 41  1  0  0  0  0
 19 42  1  0  0  0  0
 19 43  1  0  0  0  0
 19 44  1  0  0  0  0
 20 45  1  0  0  0  0
 20 46  1  0  0  0  0
 21 47  1  0  0  0  0
M  CHG  1  10   1
M  END
> <s_m_source_file>
AV-unprocessed.smi

> <i_m_source_file_index>
3056

> <i_lp_mmshare_version>
43012

> <i_f3d_flags>
0

> <s_epik_input>
W0NIM11jMVtjSF1ubihbY0hdMSlbQ0BIXShbQ0gzXSlbQ0BIXShbQ0gzXSlbTkhdW0NIMl1DKD1PKU4yW0NIMl1bQ0gyXU9bQ0BASF0oW0NIM10pW0NIMl0y

> <s_epik_cmdline>
J2VwaWtfcHl0aG9uJywgJy1waCcsICc3LjAnLCAnLXRuJywgJzgnLCAnLW1hJywgJzIwMCcsICctbWV0YWxfYmluZGluZycsICctaW1hZScsICc8aW5maWxlLm1hZT4nLCAnLW9tYWUnLCAnPG91dGZpbGUubWFlPic=

> <r_lp_tautomer_probability>
1

> <r_epik_Ionization_Penalty>
0.233715

> <r_epik_Ionization_Penalty_Charging>
0.233698

> <r_epik_Ionization_Penalty_Neutral>
1.68157e-05

> <r_epik_State_Penalty>
0.225221

> <r_epik_Charging_Adjusted_Penalty>
0.458919

> <i_epik_Tot_Q>
1

> <i_epik_Tot_abs_Q>
1

> <r_epik_Metal_State_Penalty>
0.225535

> <b_epik_Metal_Only>
0

> <s_lp_Force_Field>
OPLS_2005

> <r_lp_Energy>
29.3518

> <b_lp_Chiralities_Consistent>
1

> <s_lp_Variant>
AV-unprocessed.smi:3056-7

> <Gold.Version>
5.8.1

> <Gold.Id.Protein>
6NUR|6NUR_protein|mol2

> <Gold.PLP.Fitness>
42.0728

> <Gold.PLP.PLP>
-37.0885

> <Gold.PLP.part.hbond>
-1.0000

> <Gold.PLP.part.metal>
0.0000

> <Gold.PLP.part.buried>
-4.0707

> <Gold.PLP.part.nonpolar>
-31.9551

> <Gold.PLP.part.repulsive>
0.0000

> <Gold.PLP.ligand.clash>
0.0000

> <Gold.PLP.ligand.torsion>
0.5915

> <Gold.PLP.Chemscore.Hbond>
1.0000

> <Gold.PLP.Chemscore.CHOScore>
1.0000

> <Gold.PLP.Chemscore.Metal>
0.0000

> <Gold.Chemscore.Hbonds>
donor molecule, donor type, donor heavy atom, donor atom, acceptor molecule, acceptor atom, score
      P1  H  6896  6908       L1    13  1.00
      L1  C    21    47       P1  8028  0.65

> <Gold.PLP.Chemscore.Internal.Correction>
0.1672

> <Gold.Rescore>
     Score         DG    S(hbond)    S(metal)    S(lipo)     H(rot)  DE(clash)    DE(int)     intcor
     14.53     -15.20       1.00        0.00      92.49       1.74       0.14       0.53       ----

> <Gold.Chemscore.Fitness>
14.5260

> <Gold.Chemscore.DG>
-15.1961

> <Gold.Chemscore.ZeroCoef>
-5.4800

> <Gold.Chemscore.Hbond>
0.9992

> <Gold.Chemscore.Metal>
0.0000

> <Gold.Chemscore.Lipo>
92.4917

> <Gold.Chemscore.Internal_Hbond>
0.0000

> <Gold.Chemscore.DEClash>
0.1407

> <Gold.Chemscore.DEInternal>
0.5294

> <Gold.Chemscore.Rot>
1.7354

> <Gold.Chemscore.Internal.Correction>
   9.000000E+99

> <Gold.Chemscore.Hbonds>
donor molecule, donor type, donor heavy atom, donor atom, acceptor molecule, acceptor atom, score
      P1  H  6896  6908       L1    13  1.00

> <Gold.Chemscore.Hbond.Weighted>
-3.3372

> <Gold.Chemscore.Metal.Weighted>
-0.0000

> <Gold.Chemscore.Lipo.Weighted>
-10.8215

> <Gold.Chemscore.Internal_Hbond.Weighted>
0.0000

> <Gold.Chemscore.DEClash.Weighted>
0.1407

> <Gold.Chemscore.DEInternal.Weighted>
0.5294

> <Gold.Chemscore.Rot.Weighted>
4.4426

> <Gold.Chemscore.Internal.Correction.Weighted>
   9.000000E+99

> <Gold.Protein.RotatedTorsions>
[ 6907 6896 6895 6894 ] final -169.07 input  -60.11 | X-H torsion
[ 7974 7965 7964 7962 ] final  144.59 input  175.53 | X-H torsion
[ 8008 7997 7996 7995 ] final -175.76 input   59.86 | X-H torsion
[ 10167 10162 10161 10158 ] final  -58.47 input  -65.29 | X-H torsion
[ 10718 10713 10712 10709 ] final  -58.40 input   66.30 | X-H torsion
[ 10763 10752 10751 10750 ] final -160.82 input  -60.55 | X-H torsion
[ 11005 11000 10999 10996 ] final -132.74 input  -57.11 | X-H torsion

> <Gold.Protein.ActiveResidues>
 VAL166  LYS551  ARG553  GLY616  TRP617  ASP618  TYR619  PRO620  LYS621  CYS622 
 ASP623  PHE694  ASN695  SER759  ASP760  ASP761  ALA762  ILE779  LEU786  VAL792 
 PHE793  MET794  SER795  GLU796  ALA797  LYS798  CYS799  TRP800  GLU811  SER814 

> <Gold.Protein.RotatedAtoms>
  151.4858  133.3536  159.2845 H   0  0  0  0  0  0  0  0  0  0  0  0  # atno 6907 bound_to 6896
  150.8867  134.8268  159.7275 H   0  0  0  0  0  0  0  0  0  0  0  0  # atno 6908 bound_to 6896
  152.4797  134.4762  159.9703 H   0  0  0  0  0  0  0  0  0  0  0  0  # atno 6909 bound_to 6896
  144.8823  139.5681  143.5837 H   0  0  0  0  0  0  0  0  0  0  0  0  # atno 7974 bound_to 7965
  155.9866  140.1192  157.0677 H   0  0  0  0  0  0  0  0  0  0  0  0  # atno 8008 bound_to 7997
  154.4198  140.1134  156.5576 H   0  0  0  0  0  0  0  0  0  0  0  0  # atno 8009 bound_to 7997
  155.6399  140.3473  155.4713 H   0  0  0  0  0  0  0  0  0  0  0  0  # atno 8010 bound_to 7997
  140.6195  143.2414  151.5515 H   0  0  0  0  0  0  0  0  0  0  0  0  # atno 10167 bound_to 10162
  156.1138  130.4172  150.0571 H   0  0  0  0  0  0  0  0  0  0  0  0  # atno 10718 bound_to 10713
  154.7357  135.3057  154.8815 H   0  0  0  0  0  0  0  0  0  0  0  0  # atno 10763 bound_to 10752
  153.9645  135.6749  153.4750 H   0  0  0  0  0  0  0  0  0  0  0  0  # atno 10764 bound_to 10752
  153.0960  135.4935  154.8702 H   0  0  0  0  0  0  0  0  0  0  0  0  # atno 10765 bound_to 10752
  140.9143  134.1527  157.4365 H   0  0  0  0  0  0  0  0  0  0  0  0  # atno 11005 bound_to 11000
  146.3002  139.7403  142.9097 LP  0  0  0  0  0  0  0  0  0  0  0  0  # atno 17320 bound_to 7965
  145.3932  141.0375  143.3112 LP  0  0  0  0  0  0  0  0  0  0  0  0  # atno 17321 bound_to 7965
  139.5427  144.2605  152.1382 LP  0  0  0  0  0  0  0  0  0  0  0  0  # atno 17342 bound_to 10162
  140.1822  144.4833  150.6522 LP  0  0  0  0  0  0  0  0  0  0  0  0  # atno 17343 bound_to 10162
  156.8528  130.9464  151.3624 LP  0  0  0  0  0  0  0  0  0  0  0  0  # atno 17370 bound_to 10713
  157.6321  130.8737  149.9292 LP  0  0  0  0  0  0  0  0  0  0  0  0  # atno 17371 bound_to 10713
  139.8763  134.9947  156.5709 LP  0  0  0  0  0  0  0  0  0  0  0  0  # atno 17394 bound_to 11000
  140.8070  133.8459  155.8776 LP  0  0  0  0  0  0  0  0  0  0  0  0  # atno 17395 bound_to 11000

$$$$
