AV-unprocessed.smi:1671|AV-procd|sdf|6699|dock6
  -GOLD-   22720 7433D 1   1.00000     0.00000
 Structure written by MMmdl.
 44 45  0  0  0  0  0  0  0  0  1 V2000
  154.0646  133.4310  165.1882 C   0  0  0  0  0  0  0  0  0  0  0  0
  154.9535  134.6167  164.1429 S   0  0  0  0  0  0  0  0  0  0  0  0
  154.3639  134.1341  162.4923 C   0  0  2  0  0  0  0  0  0  0  0  0
  154.6684  132.6539  162.1981 C   0  0  0  0  0  0  0  0  0  0  0  0
  154.9402  135.0639  161.4170 C   0  0  0  0  0  0  0  0  0  0  0  0
  154.5684  134.9792  160.2456 O   0  0  0  0  0  0  0  0  0  0  0  0
  155.8615  135.9470  161.8294 N   0  0  0  0  0  0  0  0  0  0  0  0
  156.5466  136.8940  160.9594 C   0  0  0  0  0  0  0  0  0  0  0  0
  155.6868  138.0958  160.6120 C   0  0  0  0  0  0  0  0  0  0  0  0
  155.2633  139.0063  161.6008 C   0  0  0  0  0  0  0  0  0  0  0  0
  154.4595  140.0992  161.2242 C   0  0  0  0  0  0  0  0  0  0  0  0
  154.0995  140.2580  159.8639 C   0  0  0  0  0  0  0  0  0  0  0  0
  153.2969  141.3478  159.4570 N   0  0  0  0  0  0  0  0  0  0  0  0
  153.0803  142.4348  160.4107 C   0  0  0  0  0  0  0  0  0  0  0  0
  152.4575  143.6512  159.7064 C   0  0  0  0  0  0  0  0  0  0  0  0
  151.2654  143.2581  159.0355 O   0  0  0  0  0  0  0  0  0  0  0  0
  151.5149  142.2824  158.0277 C   0  0  2  0  0  0  0  0  0  0  0  0
  150.1971  141.9947  157.3006 C   0  0  0  0  0  0  0  0  0  0  0  0
  152.1044  141.0165  158.6798 C   0  0  0  0  0  0  0  0  0  0  0  0
  154.5004  139.3702  158.9196 N   0  0  0  0  0  0  0  0  0  0  0  0
  155.2681  138.3225  159.2861 C   0  0  0  0  0  0  0  0  0  0  0  0
  154.2666  133.6372  166.2393 H   0  0  0  0  0  0  0  0  0  0  0  0
  154.3820  132.4108  164.9746 H   0  0  0  0  0  0  0  0  0  0  0  0
  152.9896  133.5055  165.0237 H   0  0  0  0  0  0  0  0  0  0  0  0
  153.2807  134.2644  162.4827 H   0  0  0  0  0  0  0  0  0  0  0  0
  154.3783  132.3831  161.1822 H   0  0  0  0  0  0  0  0  0  0  0  0
  154.1216  131.9956  162.8726 H   0  0  0  0  0  0  0  0  0  0  0  0
  155.7307  132.4342  162.3116 H   0  0  0  0  0  0  0  0  0  0  0  0
  156.1190  135.9489  162.8057 H   0  0  0  0  0  0  0  0  0  0  0  0
  157.4660  137.2218  161.4465 H   0  0  0  0  0  0  0  0  0  0  0  0
  156.8350  136.4016  160.0292 H   0  0  0  0  0  0  0  0  0  0  0  0
  155.5423  138.8691  162.6353 H   0  0  0  0  0  0  0  0  0  0  0  0
  154.1186  140.7863  161.9836 H   0  0  0  0  0  0  0  0  0  0  0  0
  152.4221  142.0881  161.2087 H   0  0  0  0  0  0  0  0  0  0  0  0
  154.0235  142.7325  160.8703 H   0  0  0  0  0  0  0  0  0  0  0  0
  152.2159  144.4239  160.4363 H   0  0  0  0  0  0  0  0  0  0  0  0
  153.1601  144.0920  158.9972 H   0  0  0  0  0  0  0  0  0  0  0  0
  152.2266  142.6882  157.3060 H   0  0  0  0  0  0  0  0  0  0  0  0
  150.3376  141.2577  156.5095 H   0  0  0  0  0  0  0  0  0  0  0  0
  149.7988  142.9006  156.8433 H   0  0  0  0  0  0  0  0  0  0  0  0
  149.4431  141.6091  157.9875 H   0  0  0  0  0  0  0  0  0  0  0  0
  152.3190  140.2883  157.8994 H   0  0  0  0  0  0  0  0  0  0  0  0
  151.3701  140.5599  159.3451 H   0  0  0  0  0  0  0  0  0  0  0  0
  155.5575  137.6483  158.4934 H   0  0  0  0  0  0  0  0  0  0  0  0
  1  2  1  0  0  0  0
  1 22  1  0  0  0  0
  1 23  1  0  0  0  0
  1 24  1  0  0  0  0
  2  3  1  0  0  0  0
  3  4  1  0  0  0  0
  3  5  1  0  0  0  0
  3 25  1  0  0  0  0
  4 26  1  0  0  0  0
  4 27  1  0  0  0  0
  4 28  1  0  0  0  0
  5  6  2  0  0  0  0
  5  7  1  0  0  0  0
  7  8  1  0  0  0  0
  7 29  1  0  0  0  0
  8  9  1  0  0  0  0
  8 30  1  0  0  0  0
  8 31  1  0  0  0  0
  9 21  1  0  0  0  0
  9 10  2  0  0  0  0
 10 11  1  0  0  0  0
 10 32  1  0  0  0  0
 11 12  2  0  0  0  0
 11 33  1  0  0  0  0
 12 13  1  0  0  0  0
 12 20  1  0  0  0  0
 13 19  1  0  0  0  0
 13 14  1  0  0  0  0
 14 15  1  0  0  0  0
 14 34  1  0  0  0  0
 14 35  1  0  0  0  0
 15 16  1  0  0  0  0
 15 36  1  0  0  0  0
 15 37  1  0  0  0  0
 16 17  1  0  0  0  0
 17 18  1  0  0  0  0
 17 19  1  0  0  0  0
 17 38  1  0  0  0  0
 18 39  1  0  0  0  0
 18 40  1  0  0  0  0
 18 41  1  0  0  0  0
 19 42  1  0  0  0  0
 19 43  1  0  0  0  0
 20 21  2  0  0  0  0
 21 44  1  0  0  0  0
M  END
> <s_m_source_file>
AV-unprocessed.smi

> <i_m_source_file_index>
1671

> <i_lp_mmshare_version>
43012

> <i_f3d_flags>
0

> <s_epik_input>
W0NIM11TW0NASF0oW0NIM10pQyg9TylbTkhdW0NIMl1jMVtjSF1bY0hdYyhuW2NIXTEpTjJbQ0gyXVtDSDJdT1tDQEBIXShbQ0gzXSlbQ0gyXTI=

> <s_epik_cmdline>
J2VwaWtfcHl0aG9uJywgJy1waCcsICc3LjAnLCAnLXRuJywgJzgnLCAnLW1hJywgJzIwMCcsICctbWV0YWxfYmluZGluZycsICctaW1hZScsICc8aW5maWxlLm1hZT4nLCAnLW9tYWUnLCAnPG91dGZpbGUubWFlPic=

> <r_lp_tautomer_probability>
1

> <r_epik_Ionization_Penalty>
0.00480033

> <r_epik_Ionization_Penalty_Charging>
0

> <r_epik_Ionization_Penalty_Neutral>
0.00480033

> <r_epik_State_Penalty>
0.00347981

> <r_epik_Charging_Adjusted_Penalty>
0.00347981

> <i_epik_Tot_Q>
0

> <i_epik_Tot_abs_Q>
0

> <r_epik_Metal_State_Penalty>
-0

> <b_epik_Metal_Only>
0

> <s_lp_Force_Field>
OPLS_2005

> <r_lp_Energy>
17.324

> <b_lp_Chiralities_Consistent>
1

> <s_lp_Variant>
AV-unprocessed.smi:1671-3

> <Gold.Version>
5.8.1

> <Gold.Id.Protein>
6NUR|6NUR_protein|mol2

> <Gold.PLP.Fitness>
36.8141

> <Gold.PLP.PLP>
-31.1676

> <Gold.PLP.part.hbond>
-1.9862

> <Gold.PLP.part.metal>
0.0000

> <Gold.PLP.part.buried>
-4.5028

> <Gold.PLP.part.nonpolar>
-25.9079

> <Gold.PLP.part.repulsive>
0.0489

> <Gold.PLP.ligand.clash>
0.0000

> <Gold.PLP.ligand.torsion>
0.3846

> <Gold.PLP.Chemscore.Hbond>
1.9913

> <Gold.PLP.Chemscore.CHOScore>
0.0000

> <Gold.PLP.Chemscore.Metal>
0.0000

> <Gold.Chemscore.Hbonds>
donor molecule, donor type, donor heavy atom, donor atom, acceptor molecule, acceptor atom, score
      P1  H  6896  6907       L1     6  0.84
      P1  H  7997  8010       L1    20  1.00

> <Gold.PLP.Chemscore.Internal.Correction>
0.4420

> <Gold.Rescore>
     Score         DG    S(hbond)    S(metal)    S(lipo)     H(rot)  DE(clash)    DE(int)     intcor
     17.97     -18.28       1.76        0.00      94.85       1.63       0.07       0.24       ----

> <Gold.Chemscore.Fitness>
17.9742

> <Gold.Chemscore.DG>
-18.2846

> <Gold.Chemscore.ZeroCoef>
-5.4800

> <Gold.Chemscore.Hbond>
1.7583

> <Gold.Chemscore.Metal>
0.0000

> <Gold.Chemscore.Lipo>
94.8509

> <Gold.Chemscore.Internal_Hbond>
0.0000

> <Gold.Chemscore.DEClash>
0.0694

> <Gold.Chemscore.DEInternal>
0.2411

> <Gold.Chemscore.Rot>
1.6272

> <Gold.Chemscore.Internal.Correction>
   9.000000E+99

> <Gold.Chemscore.Hbonds>
donor molecule, donor type, donor heavy atom, donor atom, acceptor molecule, acceptor atom, score
      P1  H  6896  6907       L1     6  0.76
      P1  H  7997  8010       L1    20  0.48

> <Gold.Chemscore.Hbond.Weighted>
-5.8728

> <Gold.Chemscore.Metal.Weighted>
-0.0000

> <Gold.Chemscore.Lipo.Weighted>
-11.0976

> <Gold.Chemscore.Internal_Hbond.Weighted>
0.0000

> <Gold.Chemscore.DEClash.Weighted>
0.0694

> <Gold.Chemscore.DEInternal.Weighted>
0.2411

> <Gold.Chemscore.Rot.Weighted>
4.1657

> <Gold.Chemscore.Internal.Correction.Weighted>
   9.000000E+99

> <Gold.Protein.RotatedTorsions>
[ 6907 6896 6895 6894 ] final   74.04 input  -60.11 | X-H torsion
[ 7974 7965 7964 7962 ] final  134.05 input  175.53 | X-H torsion
[ 8008 7997 7996 7995 ] final  -10.13 input   59.86 | X-H torsion
[ 10167 10162 10161 10158 ] final -148.19 input  -65.29 | X-H torsion
[ 10718 10713 10712 10709 ] final -129.04 input   66.30 | X-H torsion
[ 10763 10752 10751 10750 ] final  -38.46 input  -60.55 | X-H torsion
[ 11005 11000 10999 10996 ] final  146.01 input  -57.11 | X-H torsion

> <Gold.Protein.ActiveResidues>
 VAL166  LYS551  ARG553  GLY616  TRP617  ASP618  TYR619  PRO620  LYS621  CYS622 
 ASP623  PHE694  ASN695  SER759  ASP760  ASP761  ALA762  ILE779  LEU786  VAL792 
 PHE793  MET794  SER795  GLU796  ALA797  LYS798  CYS799  TRP800  GLU811  SER814 

> <Gold.Protein.RotatedAtoms>
  152.4955  134.4331  159.9518 H   0  0  0  0  0  0  0  0  0  0  0  0  # atno 6907 bound_to 6896
  151.4310  133.3664  159.2776 H   0  0  0  0  0  0  0  0  0  0  0  0  # atno 6908 bound_to 6896
  150.9154  134.8595  159.7513 H   0  0  0  0  0  0  0  0  0  0  0  0  # atno 6909 bound_to 6896
  144.9802  139.4512  143.5390 H   0  0  0  0  0  0  0  0  0  0  0  0  # atno 7974 bound_to 7965
  154.5583  140.2337  155.8375 H   0  0  0  0  0  0  0  0  0  0  0  0  # atno 8008 bound_to 7997
  156.2007  140.3053  155.9481 H   0  0  0  0  0  0  0  0  0  0  0  0  # atno 8009 bound_to 7997
  155.2938  140.0428  157.3015 H   0  0  0  0  0  0  0  0  0  0  0  0  # atno 8010 bound_to 7997
  139.7554  143.8456  152.2596 H   0  0  0  0  0  0  0  0  0  0  0  0  # atno 10167 bound_to 10162
  156.2008  130.6856  151.0537 H   0  0  0  0  0  0  0  0  0  0  0  0  # atno 10718 bound_to 10713
  153.9133  135.6790  153.4750 H   0  0  0  0  0  0  0  0  0  0  0  0  # atno 10763 bound_to 10752
  153.1067  135.4802  154.8961 H   0  0  0  0  0  0  0  0  0  0  0  0  # atno 10764 bound_to 10752
  154.7516  135.3186  154.8503 H   0  0  0  0  0  0  0  0  0  0  0  0  # atno 10765 bound_to 10752
  140.0759  134.9125  157.1421 H   0  0  0  0  0  0  0  0  0  0  0  0  # atno 11005 bound_to 11000
  146.3406  139.9071  142.8786 LP  0  0  0  0  0  0  0  0  0  0  0  0  # atno 17320 bound_to 7965
  145.2431  141.0017  143.3924 LP  0  0  0  0  0  0  0  0  0  0  0  0  # atno 17321 bound_to 7965
  139.8447  144.7193  150.9288 LP  0  0  0  0  0  0  0  0  0  0  0  0  # atno 17342 bound_to 10162
  140.7802  143.3952  151.1241 LP  0  0  0  0  0  0  0  0  0  0  0  0  # atno 17343 bound_to 10162
  157.6984  131.0785  150.6896 LP  0  0  0  0  0  0  0  0  0  0  0  0  # atno 17370 bound_to 10713
  156.6953  130.4607  149.5588 LP  0  0  0  0  0  0  0  0  0  0  0  0  # atno 17371 bound_to 10713
  140.3559  134.2547  155.7192 LP  0  0  0  0  0  0  0  0  0  0  0  0  # atno 17394 bound_to 11000
  141.2029  133.7926  157.0367 LP  0  0  0  0  0  0  0  0  0  0  0  0  # atno 17395 bound_to 11000

$$$$
