AV-unprocessed.smi:2|AV-procd|sdf|25|dock9
  -GOLD-   2262015133D 1   1.00000     0.00000
 Structure written by MMmdl.
 52 54  0  0  0  0  0  0  0  0  3 V2000
  151.2134  145.3633  159.9750 C   0  0  0  0  0  0  0  0  0  0  0  0
  152.3471  144.3705  159.6826 C   0  0  0  0  0  0  0  0  0  0  0  0
  151.9966  142.9446  160.1208 C   0  0  0  0  0  0  0  0  0  0  0  0
  151.9425  142.7029  161.3263 O   0  0  0  0  0  0  0  0  0  0  0  0
  151.7330  141.9157  159.0709 C   0  0  0  0  0  0  0  0  0  0  0  0
  152.0251  140.5453  159.2640 C   0  0  0  0  0  0  0  0  0  0  0  0
  151.7650  139.6080  158.2459 C   0  0  0  0  0  0  0  0  0  0  0  0
  151.2111  140.0094  157.0147 C   0  0  0  0  0  0  0  0  0  0  0  0
  150.9954  139.0261  156.0732 O   0  0  0  0  0  0  0  0  0  0  0  0
  150.0874  139.2970  155.0135 C   0  0  0  0  0  0  0  0  0  0  0  0
  149.6161  137.9654  154.4081 C   0  0  2  0  0  0  0  0  0  0  0  0
  148.6953  138.2505  153.3749 O   0  0  0  0  0  0  0  0  0  0  0  0
  148.9487  137.0579  155.4684 C   0  0  0  0  0  0  0  0  0  0  0  0
  149.0579  135.6276  155.1592 N   0  0  0  0  0  0  0  0  0  0  0  0
  150.0522  134.7749  155.5531 C   0  0  0  0  0  0  0  0  0  0  0  0
  151.2277  135.1016  156.3489 N   0  3  0  0  0  0  0  0  0  0  0  0
  151.5543  134.3662  157.2720 O   0  0  0  0  0  0  0  0  0  0  0  0
  151.8240  136.1374  156.0700 O   0  5  0  0  0  0  0  0  0  0  0  0
  149.8975  133.5225  155.1251 N   0  0  0  0  0  0  0  0  0  0  0  0
  148.7300  133.5672  154.3910 C   0  0  0  0  0  0  0  0  0  0  0  0
  148.0711  132.4873  153.6314 C   0  0  0  0  0  0  0  0  0  0  0  0
  148.5153  131.3384  153.6451 O   0  0  0  0  0  0  0  0  0  0  0  0
  146.9744  132.8937  152.9203 N   0  0  0  0  0  0  0  0  0  0  0  0
  146.2904  131.9019  152.0683 C   0  0  0  0  0  0  0  0  0  0  0  0
  146.4410  134.1692  152.9367 C   0  0  0  0  0  0  0  0  0  0  0  0
  145.4660  134.4468  152.2316 O   0  0  0  0  0  0  0  0  0  0  0  0
  147.0122  135.1153  153.7588 N   0  0  0  0  0  0  0  0  0  0  0  0
  146.3314  136.4100  153.9054 C   0  0  0  0  0  0  0  0  0  0  0  0
  148.1811  134.8104  154.4073 C   0  0  0  0  0  0  0  0  0  0  0  0
  150.9126  141.3800  156.8203 C   0  0  0  0  0  0  0  0  0  0  0  0
  151.1710  142.3183  157.8381 C   0  0  0  0  0  0  0  0  0  0  0  0
  151.4775  146.3606  159.6232 H   0  0  0  0  0  0  0  0  0  0  0  0
  151.0032  145.4356  161.0422 H   0  0  0  0  0  0  0  0  0  0  0  0
  150.2916  145.0699  159.4714 H   0  0  0  0  0  0  0  0  0  0  0  0
  152.5460  144.3590  158.6105 H   0  0  0  0  0  0  0  0  0  0  0  0
  153.2749  144.6909  160.1555 H   0  0  0  0  0  0  0  0  0  0  0  0
  152.4497  140.1833  160.1877 H   0  0  0  0  0  0  0  0  0  0  0  0
  151.9968  138.5661  158.4126 H   0  0  0  0  0  0  0  0  0  0  0  0
  149.2299  139.8293  155.4283 H   0  0  0  0  0  0  0  0  0  0  0  0
  150.5360  139.9318  154.2472 H   0  0  0  0  0  0  0  0  0  0  0  0
  150.4645  137.4478  153.9619 H   0  0  0  0  0  0  0  0  0  0  0  0
  148.7569  137.5713  152.7204 H   0  0  0  0  0  0  0  0  0  0  0  0
  149.3569  137.2459  156.4551 H   0  0  0  0  0  0  0  0  0  0  0  0
  147.9070  137.3345  155.6055 H   0  0  0  0  0  0  0  0  0  0  0  0
  145.2621  131.7592  152.4046 H   0  0  0  0  0  0  0  0  0  0  0  0
  146.7524  130.9142  152.0496 H   0  0  0  0  0  0  0  0  0  0  0  0
  146.2600  132.2434  151.0323 H   0  0  0  0  0  0  0  0  0  0  0  0
  146.7889  137.1583  153.2582 H   0  0  0  0  0  0  0  0  0  0  0  0
  146.3461  136.7574  154.9335 H   0  0  0  0  0  0  0  0  0  0  0  0
  145.2706  136.3793  153.6531 H   0  0  0  0  0  0  0  0  0  0  0  0
  150.4833  141.7399  155.8977 H   0  0  0  0  0  0  0  0  0  0  0  0
  150.9321  143.3562  157.6557 H   0  0  0  0  0  0  0  0  0  0  0  0
  1  2  1  0  0  0  0
  1 32  1  0  0  0  0
  1 33  1  0  0  0  0
  1 34  1  0  0  0  0
  2  3  1  0  0  0  0
  2 35  1  0  0  0  0
  2 36  1  0  0  0  0
  3  4  2  0  0  0  0
  3  5  1  0  0  0  0
  5 31  1  0  0  0  0
  5  6  2  0  0  0  0
  6  7  1  0  0  0  0
  6 37  1  0  0  0  0
  7  8  2  0  0  0  0
  7 38  1  0  0  0  0
  8  9  1  0  0  0  0
  8 30  1  0  0  0  0
  9 10  1  0  0  0  0
 10 11  1  0  0  0  0
 10 39  1  0  0  0  0
 10 40  1  0  0  0  0
 11 12  1  0  0  0  0
 11 13  1  0  0  0  0
 11 41  1  0  0  0  0
 12 42  1  0  0  0  0
 13 14  1  0  0  0  0
 13 43  1  0  0  0  0
 13 44  1  0  0  0  0
 14 29  1  0  0  0  0
 14 15  1  0  0  0  0
 15 16  1  0  0  0  0
 15 19  2  0  0  0  0
 16 17  2  0  0  0  0
 16 18  1  0  0  0  0
 19 20  1  0  0  0  0
 20 29  2  0  0  0  0
 20 21  1  0  0  0  0
 21 22  2  0  0  0  0
 21 23  1  0  0  0  0
 23 24  1  0  0  0  0
 23 25  1  0  0  0  0
 24 45  1  0  0  0  0
 24 46  1  0  0  0  0
 24 47  1  0  0  0  0
 25 26  2  0  0  0  0
 25 27  1  0  0  0  0
 27 28  1  0  0  0  0
 27 29  1  0  0  0  0
 28 48  1  0  0  0  0
 28 49  1  0  0  0  0
 28 50  1  0  0  0  0
 30 31  2  0  0  0  0
 30 51  1  0  0  0  0
 31 52  1  0  0  0  0
M  CHG  1  16   1
M  CHG  1  18  -1
M  END
> <s_m_source_file>
AV-unprocessed.smi

> <i_m_source_file_index>
2

> <i_lp_mmshare_version>
43012

> <i_f3d_flags>
0

> <s_epik_input>
W0NIM11bQ0gyXUMoPU8pYzFbY0hdW2NIXWMoW2NIXVtjSF0xKU9bQ0gyXVtDQEhdKFtPSF0pW0NIMl1uKGMobjIpW04rXSg9TylbTy1dKWMoYzIzKW4oW0NIM10pYyg9TyluKGMzPU8pW0NIM10=

> <s_epik_cmdline>
J2VwaWtfcHl0aG9uJywgJy1waCcsICc3LjAnLCAnLXRuJywgJzgnLCAnLW1hJywgJzIwMCcsICctbWV0YWxfYmluZGluZycsICctaW1hZScsICc8aW5maWxlLm1hZT4nLCAnLW9tYWUnLCAnPG91dGZpbGUubWFlPic=

> <r_lp_tautomer_probability>
1

> <r_epik_Ionization_Penalty>
1.02275e-06

> <r_epik_Ionization_Penalty_Charging>
4.46226e-11

> <r_epik_Ionization_Penalty_Neutral>
1.02271e-06

> <r_epik_State_Penalty>
-0

> <r_epik_Charging_Adjusted_Penalty>
4.46226e-11

> <i_epik_Tot_Q>
0

> <i_epik_Tot_abs_Q>
2

> <r_epik_Metal_State_Penalty>
-0

> <b_epik_Metal_Only>
0

> <s_lp_Force_Field>
OPLS_2005

> <r_lp_Energy>
60.0216

> <b_lp_Chiralities_Consistent>
1

> <s_lp_Variant>
AV-unprocessed.smi:2-1

> <Gold.Version>
5.8.1

> <Gold.Id.Protein>
6NUR|6NUR_protein|mol2

> <Gold.PLP.Fitness>
48.8059

> <Gold.PLP.PLP>
-46.7096

> <Gold.PLP.part.hbond>
-4.1704

> <Gold.PLP.part.metal>
0.0000

> <Gold.PLP.part.buried>
-3.1936

> <Gold.PLP.part.nonpolar>
-40.1943

> <Gold.PLP.part.repulsive>
0.3312

> <Gold.PLP.ligand.clash>
0.0000

> <Gold.PLP.ligand.torsion>
2.3010

> <Gold.PLP.Chemscore.Hbond>
2.0819

> <Gold.PLP.Chemscore.CHOScore>
0.0000

> <Gold.PLP.Chemscore.Metal>
0.0000

> <Gold.Chemscore.Hbonds>
donor molecule, donor type, donor heavy atom, donor atom, acceptor molecule, acceptor atom, score
      L1  H    12    42       P1  7948  1.00
      P1  H  6896  6908       L1    17  0.13
      P1  H  6933  6945       L1     4  0.18
      P1  H 10752 10764       L1    18  1.00

> <Gold.PLP.Chemscore.Internal.Correction>
0.4526

> <Gold.Rescore>
     Score         DG    S(hbond)    S(metal)    S(lipo)     H(rot)  DE(clash)    DE(int)     intcor
     15.66     -18.12       3.20        0.00      85.95       3.16       0.01       2.46       ----

> <Gold.Chemscore.Fitness>
15.6562

> <Gold.Chemscore.DG>
-18.1234

> <Gold.Chemscore.ZeroCoef>
-5.4800

> <Gold.Chemscore.Hbond>
3.1966

> <Gold.Chemscore.Metal>
0.0000

> <Gold.Chemscore.Lipo>
85.9455

> <Gold.Chemscore.Internal_Hbond>
0.0000

> <Gold.Chemscore.DEClash>
0.0077

> <Gold.Chemscore.DEInternal>
2.4595

> <Gold.Chemscore.Rot>
3.1597

> <Gold.Chemscore.Internal.Correction>
   9.000000E+99

> <Gold.Chemscore.Hbonds>
donor molecule, donor type, donor heavy atom, donor atom, acceptor molecule, acceptor atom, score
      L1  H    12    42       P1  7948  0.98
      P1  H  6896  6908       L1    17  0.13
      P1  H  6933  6945       L1     4  0.18
      P1  H 10752 10764       L1    18  0.33

> <Gold.Chemscore.Hbond.Weighted>
-10.6766

> <Gold.Chemscore.Metal.Weighted>
-0.0000

> <Gold.Chemscore.Lipo.Weighted>
-10.0556

> <Gold.Chemscore.Internal_Hbond.Weighted>
0.0000

> <Gold.Chemscore.DEClash.Weighted>
0.0077

> <Gold.Chemscore.DEInternal.Weighted>
2.4595

> <Gold.Chemscore.Rot.Weighted>
8.0888

> <Gold.Chemscore.Internal.Correction.Weighted>
   9.000000E+99

> <Gold.Protein.RotatedTorsions>
[ 6907 6896 6895 6894 ] final   91.01 input  -60.11 | X-H torsion
[ 7974 7965 7964 7962 ] final   -8.71 input  175.53 | X-H torsion
[ 8008 7997 7996 7995 ] final -153.71 input   59.86 | X-H torsion
[ 10167 10162 10161 10158 ] final  178.26 input  -65.29 | X-H torsion
[ 10718 10713 10712 10709 ] final  -51.67 input   66.30 | X-H torsion
[ 10763 10752 10751 10750 ] final  -53.50 input  -60.55 | X-H torsion
[ 11005 11000 10999 10996 ] final -168.05 input  -57.11 | X-H torsion

> <Gold.Protein.ActiveResidues>
 VAL166  LYS551  ARG553  GLY616  TRP617  ASP618  TYR619  PRO620  LYS621  CYS622 
 ASP623  PHE694  ASN695  SER759  ASP760  ASP761  ALA762  ILE779  LEU786  VAL792 
 PHE793  MET794  SER795  GLU796  ALA797  LYS798  CYS799  TRP800  GLU811  SER814 

> <Gold.Protein.RotatedAtoms>
  152.5448  134.1723  159.8601 H   0  0  0  0  0  0  0  0  0  0  0  0  # atno 6907 bound_to 6896
  151.1732  133.4764  159.2601 H   0  0  0  0  0  0  0  0  0  0  0  0  # atno 6908 bound_to 6896
  151.1254  135.0113  159.8613 H   0  0  0  0  0  0  0  0  0  0  0  0  # atno 6909 bound_to 6896
  146.2273  140.2508  142.8347 H   0  0  0  0  0  0  0  0  0  0  0  0  # atno 7974 bound_to 7965
  155.6751  140.0738  157.2505 H   0  0  0  0  0  0  0  0  0  0  0  0  # atno 8008 bound_to 7997
  154.4116  140.1692  156.1973 H   0  0  0  0  0  0  0  0  0  0  0  0  # atno 8009 bound_to 7997
  155.9583  140.3372  155.6471 H   0  0  0  0  0  0  0  0  0  0  0  0  # atno 8010 bound_to 7997
  139.5287  144.2701  152.0635 H   0  0  0  0  0  0  0  0  0  0  0  0  # atno 10167 bound_to 10162
  156.1689  130.4149  149.9677 H   0  0  0  0  0  0  0  0  0  0  0  0  # atno 10718 bound_to 10713
  154.1599  135.6476  153.4983 H   0  0  0  0  0  0  0  0  0  0  0  0  # atno 10763 bound_to 10752
  153.0113  135.5358  154.6721 H   0  0  0  0  0  0  0  0  0  0  0  0  # atno 10764 bound_to 10752
  154.6032  135.2946  155.0484 H   0  0  0  0  0  0  0  0  0  0  0  0  # atno 10765 bound_to 10752
  140.5464  134.5472  157.5112 H   0  0  0  0  0  0  0  0  0  0  0  0  # atno 11005 bound_to 11000
  144.9413  140.8081  143.5629 LP  0  0  0  0  0  0  0  0  0  0  0  0  # atno 17320 bound_to 7965
  145.2460  139.2052  143.4967 LP  0  0  0  0  0  0  0  0  0  0  0  0  # atno 17321 bound_to 7965
  140.2161  144.4514  150.6363 LP  0  0  0  0  0  0  0  0  0  0  0  0  # atno 17342 bound_to 10162
  140.6449  143.2211  151.6208 LP  0  0  0  0  0  0  0  0  0  0  0  0  # atno 17343 bound_to 10162
  156.7484  130.9106  151.3636 LP  0  0  0  0  0  0  0  0  0  0  0  0  # atno 17370 bound_to 10713
  157.6788  130.9120  150.0216 LP  0  0  0  0  0  0  0  0  0  0  0  0  # atno 17371 bound_to 10713
  139.9478  134.7671  156.0521 LP  0  0  0  0  0  0  0  0  0  0  0  0  # atno 17394 bound_to 11000
  141.1197  133.6616  156.3184 LP  0  0  0  0  0  0  0  0  0  0  0  0  # atno 17395 bound_to 11000

$$$$
