AV-unprocessed.smi:1762|AV-procd|sdf|7108|dock4
  -GOLD-   22720 8333D 1   1.00000     0.00000
 Structure written by MMmdl.
 53 54  0  0  0  0  0  0  0  0  2 V2000
  144.4815  138.9560  159.0301 C   0  0  0  0  0  0  0  0  0  0  0  0
  145.5272  137.8391  158.9349 C   0  0  1  0  0  0  0  0  0  0  0  0
  146.7245  138.2302  158.0469 C   0  0  0  0  0  0  0  0  0  0  0  0
  147.7650  137.1953  158.0074 N   0  0  0  0  0  0  0  0  0  0  0  0
  148.9095  137.5526  157.1226 C   0  0  1  0  0  0  0  0  0  0  0  0
  149.7269  138.7586  157.6432 C   0  0  0  0  0  0  0  0  0  0  0  0
  149.5015  139.2291  158.7588 O   0  0  0  0  0  0  0  0  0  0  0  0
  150.6523  139.2656  156.8132 N   0  0  0  0  0  0  0  0  0  0  0  0
  151.4992  140.4132  157.1146 C   0  0  0  0  0  0  0  0  0  0  0  0
  150.7102  141.7314  157.0391 C   0  0  0  0  0  0  0  0  0  0  0  0
  151.2093  142.7567  158.0382 C   0  0  0  0  0  0  0  0  0  0  0  0
  152.2430  142.4674  158.9554 C   0  0  0  0  0  0  0  0  0  0  0  0
  152.6660  143.4681  159.8551 C   0  0  0  0  0  0  0  0  0  0  0  0
  152.0486  144.7355  159.8176 C   0  0  0  0  0  0  0  0  0  0  0  0
  151.0226  144.9708  158.8796 C   0  0  0  0  0  0  0  0  0  0  0  0
  150.6449  143.9862  158.0346 N   0  3  0  0  0  0  0  0  0  0  0  0
  149.8561  136.3618  156.7516 C   0  0  0  0  0  0  0  0  0  0  0  0
  150.6671  136.5874  155.4603 C   0  0  0  0  0  0  0  0  0  0  0  0
  149.1374  134.9984  156.7014 C   0  0  0  0  0  0  0  0  0  0  0  0
  148.1473  136.8671  159.3921 C   0  0  0  0  0  0  0  0  0  0  0  0
  146.9395  136.4903  160.2713 C   0  0  1  0  0  0  0  0  0  0  0  0
  147.3374  136.2365  161.7295 C   0  0  0  0  0  0  0  0  0  0  0  0
  145.9936  137.5515  160.2469 O   0  0  0  0  0  0  0  0  0  0  0  0
  144.0795  139.2020  158.0469 H   0  0  0  0  0  0  0  0  0  0  0  0
  144.9105  139.8644  159.4538 H   0  0  0  0  0  0  0  0  0  0  0  0
  143.6469  138.6547  159.6636 H   0  0  0  0  0  0  0  0  0  0  0  0
  145.0470  136.9480  158.5267 H   0  0  0  0  0  0  0  0  0  0  0  0
  146.3285  138.4177  157.0511 H   0  0  0  0  0  0  0  0  0  0  0  0
  147.1507  139.1711  158.3996 H   0  0  0  0  0  0  0  0  0  0  0  0
  148.4750  137.8836  156.1767 H   0  0  0  0  0  0  0  0  0  0  0  0
  150.7753  138.8252  155.9126 H   0  0  0  0  0  0  0  0  0  0  0  0
  151.9484  140.2926  158.1020 H   0  0  0  0  0  0  0  0  0  0  0  0
  152.3215  140.4267  156.3990 H   0  0  0  0  0  0  0  0  0  0  0  0
  150.7768  142.1510  156.0344 H   0  0  0  0  0  0  0  0  0  0  0  0
  149.6507  141.5497  157.2246 H   0  0  0  0  0  0  0  0  0  0  0  0
  152.7080  141.4923  158.9699 H   0  0  0  0  0  0  0  0  0  0  0  0
  153.4552  143.2665  160.5648 H   0  0  0  0  0  0  0  0  0  0  0  0
  152.3581  145.5155  160.4977 H   0  0  0  0  0  0  0  0  0  0  0  0
  150.4970  145.9096  158.7803 H   0  0  0  0  0  0  0  0  0  0  0  0
  150.5754  136.2456  157.5605 H   0  0  0  0  0  0  0  0  0  0  0  0
  150.0295  136.6106  154.5769 H   0  0  0  0  0  0  0  0  0  0  0  0
  151.3924  135.7866  155.3144 H   0  0  0  0  0  0  0  0  0  0  0  0
  151.2239  137.5238  155.4939 H   0  0  0  0  0  0  0  0  0  0  0  0
  148.4546  134.9245  155.8545 H   0  0  0  0  0  0  0  0  0  0  0  0
  148.5638  134.8221  157.6118 H   0  0  0  0  0  0  0  0  0  0  0  0
  149.8567  134.1845  156.6072 H   0  0  0  0  0  0  0  0  0  0  0  0
  148.8333  136.0217  159.4255 H   0  0  0  0  0  0  0  0  0  0  0  0
  148.6734  137.7136  159.8374 H   0  0  0  0  0  0  0  0  0  0  0  0
  146.4699  135.5875  159.8769 H   0  0  0  0  0  0  0  0  0  0  0  0
  148.0533  135.4178  161.8045 H   0  0  0  0  0  0  0  0  0  0  0  0
  146.4667  135.9717  162.3300 H   0  0  0  0  0  0  0  0  0  0  0  0
  147.7921  137.1217  162.1747 H   0  0  0  0  0  0  0  0  0  0  0  0
  149.9006  144.1790  157.3638 H   0  0  0  0  0  0  0  0  0  0  0  0
  1  2  1  0  0  0  0
  1 24  1  0  0  0  0
  1 25  1  0  0  0  0
  1 26  1  0  0  0  0
  2 23  1  0  0  0  0
  2  3  1  0  0  0  0
  2 27  1  0  0  0  0
  3  4  1  0  0  0  0
  3 28  1  0  0  0  0
  3 29  1  0  0  0  0
  4  5  1  0  0  0  0
  4 20  1  0  0  0  0
  5  6  1  0  0  0  0
  5 17  1  0  0  0  0
  5 30  1  0  0  0  0
  6  7  2  0  0  0  0
  6  8  1  0  0  0  0
  8  9  1  0  0  0  0
  8 31  1  0  0  0  0
  9 10  1  0  0  0  0
  9 32  1  0  0  0  0
  9 33  1  0  0  0  0
 10 11  1  0  0  0  0
 10 34  1  0  0  0  0
 10 35  1  0  0  0  0
 11 16  1  0  0  0  0
 11 12  2  0  0  0  0
 12 13  1  0  0  0  0
 12 36  1  0  0  0  0
 13 14  2  0  0  0  0
 13 37  1  0  0  0  0
 14 15  1  0  0  0  0
 14 38  1  0  0  0  0
 15 16  2  0  0  0  0
 15 39  1  0  0  0  0
 16 53  1  0  0  0  0
 17 18  1  0  0  0  0
 17 19  1  0  0  0  0
 17 40  1  0  0  0  0
 18 41  1  0  0  0  0
 18 42  1  0  0  0  0
 18 43  1  0  0  0  0
 19 44  1  0  0  0  0
 19 45  1  0  0  0  0
 19 46  1  0  0  0  0
 20 21  1  0  0  0  0
 20 47  1  0  0  0  0
 20 48  1  0  0  0  0
 21 22  1  0  0  0  0
 21 23  1  0  0  0  0
 21 49  1  0  0  0  0
 22 50  1  0  0  0  0
 22 51  1  0  0  0  0
 22 52  1  0  0  0  0
M  CHG  1  16   1
M  END
> <s_m_source_file>
AV-unprocessed.smi

> <i_m_source_file_index>
1762

> <i_lp_mmshare_version>
43012

> <i_f3d_flags>
0

> <s_epik_input>
W0NIM11bQ0BASF0xW0NIMl1OKFtDSDJdW0NASF0oTzEpW0NIM10pW0NAQEhdKFtDSF0oW0NIM10pW0NIM10pQyg9TylbTkhdW0NIMl1bQ0gyXWMyW2NIXVtjSF1bY0hdW2NIXW4y

> <s_epik_cmdline>
J2VwaWtfcHl0aG9uJywgJy1waCcsICc3LjAnLCAnLXRuJywgJzgnLCAnLW1hJywgJzIwMCcsICctbWV0YWxfYmluZGluZycsICctaW1hZScsICc8aW5maWxlLm1hZT4nLCAnLW9tYWUnLCAnPG91dGZpbGUubWFlPic=

> <r_epik_Ionization_Penalty>
1.86475

> <r_epik_Ionization_Penalty_Charging>
1.85347

> <r_epik_Ionization_Penalty_Neutral>
0.0112771

> <r_epik_State_Penalty>
1.99714

> <r_epik_Charging_Adjusted_Penalty>
3.85061

> <i_epik_Tot_Q>
1

> <i_epik_Tot_abs_Q>
1

> <r_epik_Metal_State_Penalty>
2.02271

> <b_epik_Metal_Only>
0

> <s_lp_Force_Field>
OPLS_2005

> <r_lp_Energy>
32.1869

> <b_lp_Chiralities_Consistent>
1

> <s_lp_Variant>
AV-unprocessed.smi:1762-10

> <Gold.Version>
5.8.1

> <Gold.Id.Protein>
6NUR|6NUR_protein|mol2

> <Gold.PLP.Fitness>
43.8121

> <Gold.PLP.PLP>
-36.2368

> <Gold.PLP.part.hbond>
-2.8653

> <Gold.PLP.part.metal>
0.0000

> <Gold.PLP.part.buried>
-4.1840

> <Gold.PLP.part.nonpolar>
-29.6775

> <Gold.PLP.part.repulsive>
0.0531

> <Gold.PLP.ligand.clash>
0.0000

> <Gold.PLP.ligand.torsion>
0.9255

> <Gold.PLP.Chemscore.Hbond>
3.0000

> <Gold.PLP.Chemscore.CHOScore>
0.0000

> <Gold.PLP.Chemscore.Metal>
0.0000

> <Gold.Chemscore.Hbonds>
donor molecule, donor type, donor heavy atom, donor atom, acceptor molecule, acceptor atom, score
      L1  H    16    53       P1  8028  2.00
      P1  H  6934  6947       L1    23  1.00

> <Gold.PLP.Chemscore.Internal.Correction>
0.4263

> <Gold.Rescore>
     Score         DG    S(hbond)    S(metal)    S(lipo)     H(rot)  DE(clash)    DE(int)     intcor
     14.38     -17.99       1.43        0.00     103.69       1.72       0.07       3.54       ----

> <Gold.Chemscore.Fitness>
14.3817

> <Gold.Chemscore.DG>
-17.9871

> <Gold.Chemscore.ZeroCoef>
-5.4800

> <Gold.Chemscore.Hbond>
1.4287

> <Gold.Chemscore.Metal>
0.0000

> <Gold.Chemscore.Lipo>
103.6900

> <Gold.Chemscore.Internal_Hbond>
0.0000

> <Gold.Chemscore.DEClash>
0.0684

> <Gold.Chemscore.DEInternal>
3.5371

> <Gold.Chemscore.Rot>
1.7174

> <Gold.Chemscore.Internal.Correction>
   9.000000E+99

> <Gold.Chemscore.Hbonds>
donor molecule, donor type, donor heavy atom, donor atom, acceptor molecule, acceptor atom, score
      L1  H    16    53       P1  8028  0.47
      P1  H  6934  6947       L1    23  0.18

> <Gold.Chemscore.Hbond.Weighted>
-4.7719

> <Gold.Chemscore.Metal.Weighted>
-0.0000

> <Gold.Chemscore.Lipo.Weighted>
-12.1317

> <Gold.Chemscore.Internal_Hbond.Weighted>
0.0000

> <Gold.Chemscore.DEClash.Weighted>
0.0684

> <Gold.Chemscore.DEInternal.Weighted>
3.5371

> <Gold.Chemscore.Rot.Weighted>
4.3966

> <Gold.Chemscore.Internal.Correction.Weighted>
   9.000000E+99

> <Gold.Protein.RotatedTorsions>
[ 6907 6896 6895 6894 ] final -144.33 input  -60.11 | X-H torsion
[ 7974 7965 7964 7962 ] final  176.58 input  175.53 | X-H torsion
[ 8008 7997 7996 7995 ] final -133.26 input   59.86 | X-H torsion
[ 10167 10162 10161 10158 ] final -155.99 input  -65.29 | X-H torsion
[ 10718 10713 10712 10709 ] final  -26.19 input   66.30 | X-H torsion
[ 10763 10752 10751 10750 ] final   14.86 input  -60.55 | X-H torsion
[ 11005 11000 10999 10996 ] final  172.52 input  -57.11 | X-H torsion

> <Gold.Protein.ActiveResidues>
 VAL166  LYS551  ARG553  GLY616  TRP617  ASP618  TYR619  PRO620  LYS621  CYS622 
 ASP623  PHE694  ASN695  SER759  ASP760  ASP761  ALA762  ILE779  LEU786  VAL792 
 PHE793  MET794  SER795  GLU796  ALA797  LYS798  CYS799  TRP800  GLU811  SER814 

> <Gold.Protein.RotatedAtoms>
  151.1126  133.5162  159.2604 H   0  0  0  0  0  0  0  0  0  0  0  0  # atno 6907 bound_to 6896
  151.1950  135.0418  159.8858 H   0  0  0  0  0  0  0  0  0  0  0  0  # atno 6908 bound_to 6896
  152.5451  134.0962  159.8351 H   0  0  0  0  0  0  0  0  0  0  0  0  # atno 6909 bound_to 6896
  144.7182  140.0117  143.6440 H   0  0  0  0  0  0  0  0  0  0  0  0  # atno 7974 bound_to 7965
  155.3426  140.0473  157.3045 H   0  0  0  0  0  0  0  0  0  0  0  0  # atno 8008 bound_to 7997
  154.5269  140.2244  155.8838 H   0  0  0  0  0  0  0  0  0  0  0  0  # atno 8009 bound_to 7997
  156.1749  140.3087  155.9047 H   0  0  0  0  0  0  0  0  0  0  0  0  # atno 8010 bound_to 7997
  139.6886  143.9459  152.2373 H   0  0  0  0  0  0  0  0  0  0  0  0  # atno 10167 bound_to 10162
  156.4544  130.4490  149.6969 H   0  0  0  0  0  0  0  0  0  0  0  0  # atno 10718 bound_to 10713
  153.1581  135.6791  153.8782 H   0  0  0  0  0  0  0  0  0  0  0  0  # atno 10763 bound_to 10752
  153.8187  135.3133  155.3409 H   0  0  0  0  0  0  0  0  0  0  0  0  # atno 10764 bound_to 10752
  154.7912  135.4833  154.0146 H   0  0  0  0  0  0  0  0  0  0  0  0  # atno 10765 bound_to 10752
  140.3306  134.7361  157.4131 H   0  0  0  0  0  0  0  0  0  0  0  0  # atno 11005 bound_to 11000
  146.0253  139.3286  143.0788 LP  0  0  0  0  0  0  0  0  0  0  0  0  # atno 17320 bound_to 7965
  145.8519  140.9524  143.0745 LP  0  0  0  0  0  0  0  0  0  0  0  0  # atno 17321 bound_to 7965
  139.9269  144.6765  150.8403 LP  0  0  0  0  0  0  0  0  0  0  0  0  # atno 17342 bound_to 10162
  140.7675  143.3336  151.2357 LP  0  0  0  0  0  0  0  0  0  0  0  0  # atno 17343 bound_to 10162
  156.3782  130.7565  151.2555 LP  0  0  0  0  0  0  0  0  0  0  0  0  # atno 17370 bound_to 10713
  157.7501  131.0303  150.4132 LP  0  0  0  0  0  0  0  0  0  0  0  0  # atno 17371 bound_to 10713
  140.0864  134.5661  155.8488 LP  0  0  0  0  0  0  0  0  0  0  0  0  # atno 17394 bound_to 11000
  141.2064  133.6655  156.6242 LP  0  0  0  0  0  0  0  0  0  0  0  0  # atno 17395 bound_to 11000

$$$$
