AV-unprocessed.smi:2109|AV-procd|sdf|8607|dock8
  -GOLD-   2272011353D 1   1.00000     0.00000
 Structure written by MMmdl.
 46 47  0  0  0  0  0  0  0  0  2 V2000
  152.0683  144.0036  161.2881 C   0  0  0  0  0  0  0  0  0  0  0  0
  151.7556  143.4802  159.8753 C   0  0  0  0  0  0  0  0  0  0  0  0
  153.0327  143.4392  159.0232 C   0  0  0  0  0  0  0  0  0  0  0  0
  150.6551  144.2958  159.1648 C   0  0  0  0  0  0  0  0  0  0  0  0
  150.3773  143.8015  157.8189 N   0  0  0  0  0  0  0  0  0  0  0  0
  150.4184  142.5169  157.4380 C   0  0  0  0  0  0  0  0  0  0  0  0
  150.7021  141.5803  158.1844 O   0  0  0  0  0  0  0  0  0  0  0  0
  150.1053  142.3719  156.1426 N   0  0  0  0  0  0  0  0  0  0  0  0
  150.1040  141.1043  155.4158 C   0  0  0  0  0  0  0  0  0  0  0  0
  148.8139  140.7621  154.6768 C   0  0  0  0  0  0  0  0  0  0  0  0
  148.0042  141.8169  154.2060 C   0  0  0  0  0  0  0  0  0  0  0  0
  146.8124  141.5196  153.5204 C   0  0  0  0  0  0  0  0  0  0  0  0
  146.4587  140.2336  153.3158 N   0  3  0  0  0  0  0  0  0  0  0  0
  147.1917  139.1737  153.7346 C   0  0  0  0  0  0  0  0  0  0  0  0
  146.7130  137.8778  153.4389 N   0  0  0  0  0  0  0  0  0  0  0  0
  146.3709  136.9969  154.5527 C   0  0  0  0  0  0  0  0  0  0  0  0
  146.1761  135.5530  154.0605 C   0  0  0  0  0  0  0  0  0  0  0  0
  145.2129  135.5296  153.0135 O   0  0  0  0  0  0  0  0  0  0  0  0
  145.6423  136.2859  151.8870 C   0  0  0  0  0  0  0  0  0  0  0  0
  145.8195  137.7604  152.2871 C   0  0  0  0  0  0  0  0  0  0  0  0
  148.3995  139.4295  154.4330 C   0  0  0  0  0  0  0  0  0  0  0  0
  152.3831  145.0474  161.2626 H   0  0  0  0  0  0  0  0  0  0  0  0
  152.8690  143.4267  161.7517 H   0  0  0  0  0  0  0  0  0  0  0  0
  151.2015  143.9330  161.9451 H   0  0  0  0  0  0  0  0  0  0  0  0
  151.4008  142.4533  159.9753 H   0  0  0  0  0  0  0  0  0  0  0  0
  153.4494  144.4377  158.8858 H   0  0  0  0  0  0  0  0  0  0  0  0
  152.8349  143.0224  158.0352 H   0  0  0  0  0  0  0  0  0  0  0  0
  153.7988  142.8203  159.4916 H   0  0  0  0  0  0  0  0  0  0  0  0
  149.7480  144.3184  159.7715 H   0  0  0  0  0  0  0  0  0  0  0  0
  150.9755  145.3332  159.0663 H   0  0  0  0  0  0  0  0  0  0  0  0
  150.1365  144.4944  157.1252 H   0  0  0  0  0  0  0  0  0  0  0  0
  149.8825  143.2013  155.6114 H   0  0  0  0  0  0  0  0  0  0  0  0
  150.9149  141.1474  154.6881 H   0  0  0  0  0  0  0  0  0  0  0  0
  150.3490  140.2828  156.0913 H   0  0  0  0  0  0  0  0  0  0  0  0
  148.2923  142.8455  154.3690 H   0  0  0  0  0  0  0  0  0  0  0  0
  146.1371  142.2665  153.1286 H   0  0  0  0  0  0  0  0  0  0  0  0
  147.1631  137.0064  155.3018 H   0  0  0  0  0  0  0  0  0  0  0  0
  145.4588  137.3568  155.0304 H   0  0  0  0  0  0  0  0  0  0  0  0
  147.1195  135.1296  153.7114 H   0  0  0  0  0  0  0  0  0  0  0  0
  145.8281  134.9220  154.8784 H   0  0  0  0  0  0  0  0  0  0  0  0
  146.5729  135.8751  151.4916 H   0  0  0  0  0  0  0  0  0  0  0  0
  144.8963  136.1994  151.0966 H   0  0  0  0  0  0  0  0  0  0  0  0
  144.8536  138.1959  152.5464 H   0  0  0  0  0  0  0  0  0  0  0  0
  146.1987  138.3122  151.4270 H   0  0  0  0  0  0  0  0  0  0  0  0
  149.0069  138.6117  154.7854 H   0  0  0  0  0  0  0  0  0  0  0  0
  145.5921  140.0498  152.8099 H   0  0  0  0  0  0  0  0  0  0  0  0
  1  2  1  0  0  0  0
  1 22  1  0  0  0  0
  1 23  1  0  0  0  0
  1 24  1  0  0  0  0
  2  3  1  0  0  0  0
  2  4  1  0  0  0  0
  2 25  1  0  0  0  0
  3 26  1  0  0  0  0
  3 27  1  0  0  0  0
  3 28  1  0  0  0  0
  4  5  1  0  0  0  0
  4 29  1  0  0  0  0
  4 30  1  0  0  0  0
  5  6  1  0  0  0  0
  5 31  1  0  0  0  0
  6  7  2  0  0  0  0
  6  8  1  0  0  0  0
  8  9  1  0  0  0  0
  8 32  1  0  0  0  0
  9 10  1  0  0  0  0
  9 33  1  0  0  0  0
  9 34  1  0  0  0  0
 10 21  1  0  0  0  0
 10 11  2  0  0  0  0
 11 12  1  0  0  0  0
 11 35  1  0  0  0  0
 12 13  2  0  0  0  0
 12 36  1  0  0  0  0
 13 14  1  0  0  0  0
 13 46  1  0  0  0  0
 14 15  1  0  0  0  0
 14 21  2  0  0  0  0
 15 20  1  0  0  0  0
 15 16  1  0  0  0  0
 16 17  1  0  0  0  0
 16 37  1  0  0  0  0
 16 38  1  0  0  0  0
 17 18  1  0  0  0  0
 17 39  1  0  0  0  0
 17 40  1  0  0  0  0
 18 19  1  0  0  0  0
 19 20  1  0  0  0  0
 19 41  1  0  0  0  0
 19 42  1  0  0  0  0
 20 43  1  0  0  0  0
 20 44  1  0  0  0  0
 21 45  1  0  0  0  0
M  CHG  1  13   1
M  END
> <s_m_source_file>
AV-unprocessed.smi

> <i_m_source_file_index>
2109

> <i_lp_mmshare_version>
43012

> <i_f3d_flags>
0

> <s_epik_input>
W0NIM11bQ0hdKFtDSDNdKVtDSDJdW05IXUMoPU8pW05IXVtDSDJdYzFbY0hdW2NIXW5jKFtjSF0xKU4yW0NIMl1bQ0gyXU9bQ0gyXVtDSDJdMg==

> <s_epik_cmdline>
J2VwaWtfcHl0aG9uJywgJy1waCcsICc3LjAnLCAnLXRuJywgJzgnLCAnLW1hJywgJzIwMCcsICctbWV0YWxfYmluZGluZycsICctaW1hZScsICc8aW5maWxlLm1hZT4nLCAnLW9tYWUnLCAnPG91dGZpbGUubWFlPic=

> <r_lp_tautomer_probability>
0.999994

> <r_epik_Ionization_Penalty>
2.29114

> <r_epik_Ionization_Penalty_Charging>
2.2911

> <r_epik_Ionization_Penalty_Neutral>
4.11828e-05

> <r_epik_State_Penalty>
2.44112

> <r_epik_Charging_Adjusted_Penalty>
4.73222

> <i_epik_Tot_Q>
1

> <i_epik_Tot_abs_Q>
1

> <r_epik_Metal_State_Penalty>
2.45346

> <b_epik_Metal_Only>
0

> <s_lp_Force_Field>
OPLS_2005

> <r_lp_Energy>
19.1618

> <b_lp_Chiralities_Consistent>
1

> <s_lp_Variant>
AV-unprocessed.smi:2109-2

> <Gold.Version>
5.8.1

> <Gold.Id.Protein>
6NUR|6NUR_protein|mol2

> <Gold.PLP.Fitness>
48.1311

> <Gold.PLP.PLP>
-38.0243

> <Gold.PLP.part.hbond>
-3.0000

> <Gold.PLP.part.metal>
0.0000

> <Gold.PLP.part.buried>
-3.4815

> <Gold.PLP.part.nonpolar>
-32.8376

> <Gold.PLP.part.repulsive>
0.9866

> <Gold.PLP.ligand.clash>
0.0000

> <Gold.PLP.ligand.torsion>
0.9297

> <Gold.PLP.Chemscore.Hbond>
3.8240

> <Gold.PLP.Chemscore.CHOScore>
0.0000

> <Gold.PLP.Chemscore.Metal>
0.0000

> <Gold.Chemscore.Hbonds>
donor molecule, donor type, donor heavy atom, donor atom, acceptor molecule, acceptor atom, score
      L1  H     5    31       P1  8028  0.80
      L1  H     8    32       P1  8028  0.86
      L1  H    13    46       P1 10175  1.98

> <Gold.PLP.Chemscore.Internal.Correction>
0.4943

> <Gold.Rescore>
     Score         DG    S(hbond)    S(metal)    S(lipo)     H(rot)  DE(clash)    DE(int)     intcor
     17.34     -19.64       2.34        0.00      93.97       1.82       0.05       2.26       ----

> <Gold.Chemscore.Fitness>
17.3379

> <Gold.Chemscore.DG>
-19.6430

> <Gold.Chemscore.ZeroCoef>
-5.4800

> <Gold.Chemscore.Hbond>
2.3420

> <Gold.Chemscore.Metal>
0.0000

> <Gold.Chemscore.Lipo>
93.9735

> <Gold.Chemscore.Internal_Hbond>
0.0000

> <Gold.Chemscore.DEClash>
0.0459

> <Gold.Chemscore.DEInternal>
2.2592

> <Gold.Chemscore.Rot>
1.8180

> <Gold.Chemscore.Internal.Correction>
   9.000000E+99

> <Gold.Chemscore.Hbonds>
donor molecule, donor type, donor heavy atom, donor atom, acceptor molecule, acceptor atom, score
      L1  H     5    31       P1  8028  0.48
      L1  H     8    32       P1  8028  0.85
      L1  H    13    46       P1 10175  0.90

> <Gold.Chemscore.Hbond.Weighted>
-7.8222

> <Gold.Chemscore.Metal.Weighted>
-0.0000

> <Gold.Chemscore.Lipo.Weighted>
-10.9949

> <Gold.Chemscore.Internal_Hbond.Weighted>
0.0000

> <Gold.Chemscore.DEClash.Weighted>
0.0459

> <Gold.Chemscore.DEInternal.Weighted>
2.2592

> <Gold.Chemscore.Rot.Weighted>
4.6541

> <Gold.Chemscore.Internal.Correction.Weighted>
   9.000000E+99

> <Gold.Protein.RotatedTorsions>
[ 6907 6896 6895 6894 ] final  149.01 input  -60.11 | X-H torsion
[ 7974 7965 7964 7962 ] final  107.30 input  175.53 | X-H torsion
[ 8008 7997 7996 7995 ] final  -32.32 input   59.86 | X-H torsion
[ 10167 10162 10161 10158 ] final -112.47 input  -65.29 | X-H torsion
[ 10718 10713 10712 10709 ] final -121.25 input   66.30 | X-H torsion
[ 10763 10752 10751 10750 ] final -166.63 input  -60.55 | X-H torsion
[ 11005 11000 10999 10996 ] final  -96.32 input  -57.11 | X-H torsion

> <Gold.Protein.ActiveResidues>
 VAL166  LYS551  ARG553  GLY616  TRP617  ASP618  TYR619  PRO620  LYS621  CYS622 
 ASP623  PHE694  ASN695  SER759  ASP760  ASP761  ALA762  ILE779  LEU786  VAL792 
 PHE793  MET794  SER795  GLU796  ALA797  LYS798  CYS799  TRP800  GLU811  SER814 

> <Gold.Protein.RotatedAtoms>
  152.1337  133.4423  159.4732 H   0  0  0  0  0  0  0  0  0  0  0  0  # atno 6907 bound_to 6896
  150.6880  134.2389  159.4473 H   0  0  0  0  0  0  0  0  0  0  0  0  # atno 6908 bound_to 6896
  152.0275  134.9787  160.0622 H   0  0  0  0  0  0  0  0  0  0  0  0  # atno 6909 bound_to 6896
  145.2953  139.2587  143.3843 H   0  0  0  0  0  0  0  0  0  0  0  0  # atno 7974 bound_to 7965
  154.4184  140.1740  156.1708 H   0  0  0  0  0  0  0  0  0  0  0  0  # atno 8008 bound_to 7997
  155.9762  140.3381  155.6597 H   0  0  0  0  0  0  0  0  0  0  0  0  # atno 8009 bound_to 7997
  155.6560  140.0695  157.2561 H   0  0  0  0  0  0  0  0  0  0  0  0  # atno 8010 bound_to 7997
  140.1224  143.4432  152.1682 H   0  0  0  0  0  0  0  0  0  0  0  0  # atno 10167 bound_to 10162
  156.1322  130.6404  150.9639 H   0  0  0  0  0  0  0  0  0  0  0  0  # atno 10718 bound_to 10713
  154.6814  135.2955  154.9608 H   0  0  0  0  0  0  0  0  0  0  0  0  # atno 10763 bound_to 10752
  154.0601  135.6632  153.4815 H   0  0  0  0  0  0  0  0  0  0  0  0  # atno 10764 bound_to 10752
  153.0550  135.5150  154.7859 H   0  0  0  0  0  0  0  0  0  0  0  0  # atno 10765 bound_to 10752
  141.1415  133.8089  157.0555 H   0  0  0  0  0  0  0  0  0  0  0  0  # atno 11005 bound_to 11000
  146.3171  140.3455  142.8651 LP  0  0  0  0  0  0  0  0  0  0  0  0  # atno 17320 bound_to 7965
  144.9138  140.7788  143.5791 LP  0  0  0  0  0  0  0  0  0  0  0  0  # atno 17321 bound_to 7965
  139.5562  144.7374  151.4288 LP  0  0  0  0  0  0  0  0  0  0  0  0  # atno 17342 bound_to 10162
  140.6864  143.7963  150.7193 LP  0  0  0  0  0  0  0  0  0  0  0  0  # atno 17343 bound_to 10162
  157.6499  131.0898  150.8074 LP  0  0  0  0  0  0  0  0  0  0  0  0  # atno 17370 bound_to 10713
  156.8157  130.4967  149.5350 LP  0  0  0  0  0  0  0  0  0  0  0  0  # atno 17371 bound_to 10713
  140.0605  134.9757  157.1295 LP  0  0  0  0  0  0  0  0  0  0  0  0  # atno 17394 bound_to 11000
  140.3856  134.2240  155.7168 LP  0  0  0  0  0  0  0  0  0  0  0  0  # atno 17395 bound_to 11000

$$$$
