AV-unprocessed.smi:2702|AV-procd|sdf|10435|dock1
  -GOLD-   2272014473D 1   1.00000     0.00000
 Structure written by MMmdl.
 47 48  0  0  0  0  0  0  0  0  1 V2000
  147.4482  136.4695  163.0748 C   0  0  0  0  0  0  0  0  0  0  0  0
  148.0433  137.0251  161.9155 O   0  0  0  0  0  0  0  0  0  0  0  0
  147.7860  136.2573  160.7512 C   0  0  0  0  0  0  0  0  0  0  0  0
  148.4429  136.8836  159.5367 C   0  0  0  0  0  0  0  0  0  0  0  0
  147.7194  137.4290  158.5310 C   0  0  0  0  0  0  0  0  0  0  0  0
  148.3838  138.0301  157.3745 C   0  0  0  0  0  0  0  0  0  0  0  0
  147.7608  138.5327  156.4387 O   0  0  0  0  0  0  0  0  0  0  0  0
  149.7488  137.9906  157.4102 N   0  0  0  0  0  0  0  0  0  0  0  0
  150.5585  138.5585  156.3166 C   0  0  0  0  0  0  0  0  0  0  0  0
  151.6195  139.5569  156.8026 C   0  0  0  0  0  0  0  0  0  0  0  0
  152.7961  139.4441  156.4564 O   0  0  0  0  0  0  0  0  0  0  0  0
  151.1763  140.5451  157.5945 N   0  0  0  0  0  0  0  0  0  0  0  0
  152.0047  141.5933  158.1883 C   0  0  1  0  0  0  0  0  0  0  0  0
  151.3211  142.9591  157.9860 C   0  0  0  0  0  0  0  0  0  0  0  0
  152.1348  144.0879  158.6249 C   0  0  0  0  0  0  0  0  0  0  0  0
  152.3557  143.8145  160.1162 C   0  0  0  0  0  0  0  0  0  0  0  0
  153.0561  142.4616  160.3566 C   0  0  1  0  0  0  0  0  0  0  0  0
  153.2732  142.2598  161.8677 C   0  0  0  0  0  0  0  0  0  0  0  0
  152.2710  141.2959  159.6893 C   0  0  2  0  0  0  0  0  0  0  0  0
  152.9900  139.9399  159.8653 C   0  0  0  0  0  0  0  0  0  0  0  0
  150.4533  137.4160  158.4868 C   0  0  0  0  0  0  0  0  0  0  0  0
  149.8411  136.8854  159.4971 N   0  0  0  0  0  0  0  0  0  0  0  0
  147.6763  137.0939  163.9385 H   0  0  0  0  0  0  0  0  0  0  0  0
  147.8309  135.4676  163.2731 H   0  0  0  0  0  0  0  0  0  0  0  0
  146.3634  136.4169  162.9747 H   0  0  0  0  0  0  0  0  0  0  0  0
  148.1771  135.2462  160.8741 H   0  0  0  0  0  0  0  0  0  0  0  0
  146.7094  136.1737  160.5929 H   0  0  0  0  0  0  0  0  0  0  0  0
  146.6399  137.4250  158.5742 H   0  0  0  0  0  0  0  0  0  0  0  0
  151.0651  137.7786  155.7448 H   0  0  0  0  0  0  0  0  0  0  0  0
  149.9026  139.0530  155.5971 H   0  0  0  0  0  0  0  0  0  0  0  0
  150.1925  140.5632  157.8205 H   0  0  0  0  0  0  0  0  0  0  0  0
  152.9697  141.6132  157.6778 H   0  0  0  0  0  0  0  0  0  0  0  0
  151.1926  143.1635  156.9224 H   0  0  0  0  0  0  0  0  0  0  0  0
  150.3203  142.9418  158.4201 H   0  0  0  0  0  0  0  0  0  0  0  0
  153.0963  144.1829  158.1191 H   0  0  0  0  0  0  0  0  0  0  0  0
  151.6189  145.0394  158.4933 H   0  0  0  0  0  0  0  0  0  0  0  0
  152.9491  144.6234  160.5441 H   0  0  0  0  0  0  0  0  0  0  0  0
  151.3958  143.8308  160.6343 H   0  0  0  0  0  0  0  0  0  0  0  0
  154.0408  142.5146  159.8894 H   0  0  0  0  0  0  0  0  0  0  0  0
  152.3260  142.1162  162.3885 H   0  0  0  0  0  0  0  0  0  0  0  0
  153.7646  143.1265  162.3105 H   0  0  0  0  0  0  0  0  0  0  0  0
  153.9082  141.4001  162.0794 H   0  0  0  0  0  0  0  0  0  0  0  0
  151.3036  141.2200  160.1887 H   0  0  0  0  0  0  0  0  0  0  0  0
  153.9875  139.9636  159.4256 H   0  0  0  0  0  0  0  0  0  0  0  0
  152.4426  139.1239  159.3939 H   0  0  0  0  0  0  0  0  0  0  0  0
  153.0930  139.6673  160.9146 H   0  0  0  0  0  0  0  0  0  0  0  0
  151.5413  137.4530  158.4097 H   0  0  0  0  0  0  0  0  0  0  0  0
  1  2  1  0  0  0  0
  1 23  1  0  0  0  0
  1 24  1  0  0  0  0
  1 25  1  0  0  0  0
  2  3  1  0  0  0  0
  3  4  1  0  0  0  0
  3 26  1  0  0  0  0
  3 27  1  0  0  0  0
  4 22  1  0  0  0  0
  4  5  2  0  0  0  0
  5  6  1  0  0  0  0
  5 28  1  0  0  0  0
  6  7  2  0  0  0  0
  6  8  1  0  0  0  0
  8  9  1  0  0  0  0
  8 21  1  0  0  0  0
  9 10  1  0  0  0  0
  9 29  1  0  0  0  0
  9 30  1  0  0  0  0
 10 11  2  0  0  0  0
 10 12  1  0  0  0  0
 12 13  1  0  0  0  0
 12 31  1  0  0  0  0
 13 19  1  0  0  0  0
 13 14  1  0  0  0  0
 13 32  1  0  0  0  0
 14 15  1  0  0  0  0
 14 33  1  0  0  0  0
 14 34  1  0  0  0  0
 15 16  1  0  0  0  0
 15 35  1  0  0  0  0
 15 36  1  0  0  0  0
 16 17  1  0  0  0  0
 16 37  1  0  0  0  0
 16 38  1  0  0  0  0
 17 18  1  0  0  0  0
 17 19  1  0  0  0  0
 17 39  1  0  0  0  0
 18 40  1  0  0  0  0
 18 41  1  0  0  0  0
 18 42  1  0  0  0  0
 19 20  1  0  0  0  0
 19 43  1  0  0  0  0
 20 44  1  0  0  0  0
 20 45  1  0  0  0  0
 20 46  1  0  0  0  0
 21 22  2  0  0  0  0
 21 47  1  0  0  0  0
M  END
> <s_m_source_file>
AV-unprocessed.smi

> <i_m_source_file_index>
2702

> <i_lp_mmshare_version>
43012

> <i_f3d_flags>
0

> <s_epik_input>
W0NIM11PW0NIMl1jMVtjSF1jKD1PKW4oW2NIXW4xKVtDSDJdQyg9TylbTkhdW0NAQEhdMltDSDJdW0NIMl1bQ0gyXVtDQEBIXShbQ0gzXSlbQ0BIXTJbQ0gzXQ==

> <s_epik_cmdline>
J2VwaWtfcHl0aG9uJywgJy1waCcsICc3LjAnLCAnLXRuJywgJzgnLCAnLW1hJywgJzIwMCcsICctbWV0YWxfYmluZGluZycsICctaW1hZScsICc8aW5maWxlLm1hZT4nLCAnLW9tYWUnLCAnPG91dGZpbGUubWFlPic=

> <r_lp_tautomer_probability>
1

> <r_epik_Ionization_Penalty>
1.22164e-06

> <r_epik_Ionization_Penalty_Charging>
3.17988e-07

> <r_epik_Ionization_Penalty_Neutral>
9.03656e-07

> <r_epik_State_Penalty>
-0

> <r_epik_Charging_Adjusted_Penalty>
3.17988e-07

> <i_epik_Tot_Q>
0

> <i_epik_Tot_abs_Q>
0

> <r_epik_Metal_State_Penalty>
-0

> <b_epik_Metal_Only>
0

> <s_lp_Force_Field>
OPLS_2005

> <r_lp_Energy>
18.0847

> <b_lp_Chiralities_Consistent>
1

> <s_lp_Variant>
AV-unprocessed.smi:2702-6

> <Gold.Version>
5.8.1

> <Gold.Id.Protein>
6NUR|6NUR_protein|mol2

> <Gold.PLP.Fitness>
51.7819

> <Gold.PLP.PLP>
-43.5203

> <Gold.PLP.part.hbond>
-3.1082

> <Gold.PLP.part.metal>
0.0000

> <Gold.PLP.part.buried>
-7.0254

> <Gold.PLP.part.nonpolar>
-34.5095

> <Gold.PLP.part.repulsive>
0.0560

> <Gold.PLP.ligand.clash>
0.0000

> <Gold.PLP.ligand.torsion>
0.3735

> <Gold.PLP.Chemscore.Hbond>
2.9913

> <Gold.PLP.Chemscore.CHOScore>
0.0000

> <Gold.PLP.Chemscore.Metal>
0.0000

> <Gold.Chemscore.Hbonds>
donor molecule, donor type, donor heavy atom, donor atom, acceptor molecule, acceptor atom, score
      P1  H  6896  6907       L1    22  0.52
      P1  H  6931  6943       L1     2  1.00
      P1  H  6934  6947       L1     2  0.06
      P1  H  7997  8010       L1    11  1.00

> <Gold.PLP.Chemscore.Internal.Correction>
0.0349

> <Gold.Rescore>
     Score         DG    S(hbond)    S(metal)    S(lipo)     H(rot)  DE(clash)    DE(int)     intcor
     22.35     -22.67       2.84        0.00     108.04       1.93       0.01       0.31       ----

> <Gold.Chemscore.Fitness>
22.3467

> <Gold.Chemscore.DG>
-22.6656

> <Gold.Chemscore.ZeroCoef>
-5.4800

> <Gold.Chemscore.Hbond>
2.8388

> <Gold.Chemscore.Metal>
0.0000

> <Gold.Chemscore.Lipo>
108.0399

> <Gold.Chemscore.Internal_Hbond>
0.0000

> <Gold.Chemscore.DEClash>
0.0075

> <Gold.Chemscore.DEInternal>
0.3114

> <Gold.Chemscore.Rot>
1.9284

> <Gold.Chemscore.Internal.Correction>
   9.000000E+99

> <Gold.Chemscore.Hbonds>
donor molecule, donor type, donor heavy atom, donor atom, acceptor molecule, acceptor atom, score
      P1  H  6896  6907       L1    22  0.18
      P1  H  6931  6943       L1     2  0.95
      P1  H  6934  6947       L1     2  0.01
      P1  H  7997  8010       L1    11  1.00

> <Gold.Chemscore.Hbond.Weighted>
-9.4817

> <Gold.Chemscore.Metal.Weighted>
-0.0000

> <Gold.Chemscore.Lipo.Weighted>
-12.6407

> <Gold.Chemscore.Internal_Hbond.Weighted>
0.0000

> <Gold.Chemscore.DEClash.Weighted>
0.0075

> <Gold.Chemscore.DEInternal.Weighted>
0.3114

> <Gold.Chemscore.Rot.Weighted>
4.9368

> <Gold.Chemscore.Internal.Correction.Weighted>
   9.000000E+99

> <Gold.Protein.RotatedTorsions>
[ 6907 6896 6895 6894 ] final  -37.35 input  -60.11 | X-H torsion
[ 7974 7965 7964 7962 ] final  -48.24 input  175.53 | X-H torsion
[ 8008 7997 7996 7995 ] final   85.62 input   59.86 | X-H torsion
[ 10167 10162 10161 10158 ] final -177.99 input  -65.29 | X-H torsion
[ 10718 10713 10712 10709 ] final   84.82 input   66.30 | X-H torsion
[ 10763 10752 10751 10750 ] final  -82.62 input  -60.55 | X-H torsion
[ 11005 11000 10999 10996 ] final   27.09 input  -57.11 | X-H torsion

> <Gold.Protein.ActiveResidues>
 VAL166  LYS551  ARG553  GLY616  TRP617  ASP618  TYR619  PRO620  LYS621  CYS622 
 ASP623  PHE694  ASN695  SER759  ASP760  ASP761  ALA762  ILE779  LEU786  VAL792 
 PHE793  MET794  SER795  GLU796  ALA797  LYS798  CYS799  TRP800  GLU811  SER814 

> <Gold.Protein.RotatedAtoms>
  151.0158  134.9432  159.8032 H   0  0  0  0  0  0  0  0  0  0  0  0  # atno 6907 bound_to 6896
  152.5313  134.2968  159.9073 H   0  0  0  0  0  0  0  0  0  0  0  0  # atno 6908 bound_to 6896
  151.2975  133.4095  159.2671 H   0  0  0  0  0  0  0  0  0  0  0  0  # atno 6909 bound_to 6896
  145.9533  140.7551  142.9494 H   0  0  0  0  0  0  0  0  0  0  0  0  # atno 7974 bound_to 7965
  155.9524  140.3400  155.6419 H   0  0  0  0  0  0  0  0  0  0  0  0  # atno 8008 bound_to 7997
  155.6903  140.0748  157.2469 H   0  0  0  0  0  0  0  0  0  0  0  0  # atno 8009 bound_to 7997
  154.4125  140.1658  156.2067 H   0  0  0  0  0  0  0  0  0  0  0  0  # atno 8010 bound_to 7997
  139.5453  144.2252  152.0976 H   0  0  0  0  0  0  0  0  0  0  0  0  # atno 10167 bound_to 10162
  157.6904  131.0149  150.2730 H   0  0  0  0  0  0  0  0  0  0  0  0  # atno 10718 bound_to 10713
  154.5779  135.5585  153.7157 H   0  0  0  0  0  0  0  0  0  0  0  0  # atno 10763 bound_to 10752
  153.0071  135.6313  154.2023 H   0  0  0  0  0  0  0  0  0  0  0  0  # atno 10764 bound_to 10752
  154.1964  135.2880  155.2985 H   0  0  0  0  0  0  0  0  0  0  0  0  # atno 10765 bound_to 10752
  140.3300  134.2448  155.7704 H   0  0  0  0  0  0  0  0  0  0  0  0  # atno 11005 bound_to 11000
  144.6800  140.2470  143.7336 LP  0  0  0  0  0  0  0  0  0  0  0  0  # atno 17320 bound_to 7965
  145.8141  139.2016  143.1976 LP  0  0  0  0  0  0  0  0  0  0  0  0  # atno 17321 bound_to 7965
  140.1737  144.4911  150.6565 LP  0  0  0  0  0  0  0  0  0  0  0  0  # atno 17342 bound_to 10162
  140.6699  143.2282  151.5651 LP  0  0  0  0  0  0  0  0  0  0  0  0  # atno 17343 bound_to 10162
  156.3289  130.3797  149.7508 LP  0  0  0  0  0  0  0  0  0  0  0  0  # atno 17370 bound_to 10713
  156.5054  130.8148  151.3148 LP  0  0  0  0  0  0  0  0  0  0  0  0  # atno 17371 bound_to 10713
  141.2066  133.7830  157.0169 LP  0  0  0  0  0  0  0  0  0  0  0  0  # atno 17394 bound_to 11000
  140.0869  134.9615  157.1714 LP  0  0  0  0  0  0  0  0  0  0  0  0  # atno 17395 bound_to 11000

$$$$
