AV-unprocessed.smi:2695|AV-procd|sdf|10410|dock8
  -GOLD-   2272014443D 1   1.00000     0.00000
 Structure written by MMmdl.
 42 43  0  0  0  0  0  0  0  0  1 V2000
  152.2810  138.8737  156.4664 C   0  0  0  0  0  0  0  0  0  0  0  0
  150.9601  139.5744  156.1718 C   0  0  0  0  0  0  0  0  0  0  0  0
  150.6652  140.0081  154.9326 C   0  0  0  0  0  0  0  0  0  0  0  0
  149.4225  140.6990  154.6917 C   0  0  0  0  0  0  0  0  0  0  0  0
  149.1200  141.1242  153.4588 O   0  0  0  0  0  0  0  0  0  0  0  0
  148.5753  140.9203  155.7135 C   0  0  0  0  0  0  0  0  0  0  0  0
  148.8705  140.4699  157.0757 C   0  0  0  0  0  0  0  0  0  0  0  0
  148.0940  140.6930  158.0057 O   0  0  0  0  0  0  0  0  0  0  0  0
  150.0494  139.7886  157.2481 N   0  0  0  0  0  0  0  0  0  0  0  0
  150.3713  139.2706  158.5984 C   0  0  0  0  0  0  0  0  0  0  0  0
  150.0696  137.7741  158.7741 C   0  0  0  0  0  0  0  0  0  0  0  0
  150.9788  136.9561  158.9201 O   0  0  0  0  0  0  0  0  0  0  0  0
  148.7710  137.4384  158.7521 N   0  0  0  0  0  0  0  0  0  0  0  0
  148.2271  136.0853  158.8857 C   0  0  1  0  0  0  0  0  0  0  0  0
  147.4364  135.9779  160.2148 C   0  0  0  0  0  0  0  0  0  0  0  0
  148.1116  136.6683  161.4072 C   0  0  0  0  0  0  0  0  0  0  0  0
  147.4219  136.0826  162.6398 C   0  0  0  0  0  0  0  0  0  0  0  0
  146.9810  134.6687  162.2402 C   0  0  0  0  0  0  0  0  0  0  0  0
  147.2235  134.5475  160.7296 C   0  0  0  0  0  0  0  0  0  0  0  0
  147.3882  135.7605  157.6284 C   0  0  0  0  0  0  0  0  0  0  0  0
  146.4075  136.6547  157.4961 F   0  0  0  0  0  0  0  0  0  0  0  0
  148.1356  135.8126  156.5267 F   0  0  0  0  0  0  0  0  0  0  0  0
  146.8469  134.5457  157.7270 F   0  0  0  0  0  0  0  0  0  0  0  0
  152.9763  139.0004  155.6359 H   0  0  0  0  0  0  0  0  0  0  0  0
  152.1252  137.8036  156.6051 H   0  0  0  0  0  0  0  0  0  0  0  0
  152.7714  139.2804  157.3504 H   0  0  0  0  0  0  0  0  0  0  0  0
  151.3606  139.8537  154.1200 H   0  0  0  0  0  0  0  0  0  0  0  0
  149.1491  140.3749  152.8840 H   0  0  0  0  0  0  0  0  0  0  0  0
  147.6470  141.4424  155.5311 H   0  0  0  0  0  0  0  0  0  0  0  0
  151.4257  139.4301  158.8310 H   0  0  0  0  0  0  0  0  0  0  0  0
  149.8589  139.8324  159.3782 H   0  0  0  0  0  0  0  0  0  0  0  0
  148.0974  138.1794  158.6229 H   0  0  0  0  0  0  0  0  0  0  0  0
  149.0451  135.3638  158.9251 H   0  0  0  0  0  0  0  0  0  0  0  0
  146.4553  136.4365  160.0804 H   0  0  0  0  0  0  0  0  0  0  0  0
  149.1732  136.4178  161.4300 H   0  0  0  0  0  0  0  0  0  0  0  0
  148.0294  137.7551  161.3690 H   0  0  0  0  0  0  0  0  0  0  0  0
  148.0757  136.0823  163.5126 H   0  0  0  0  0  0  0  0  0  0  0  0
  146.5448  136.6815  162.8885 H   0  0  0  0  0  0  0  0  0  0  0  0
  147.5458  133.9090  162.7816 H   0  0  0  0  0  0  0  0  0  0  0  0
  145.9270  134.5216  162.4786 H   0  0  0  0  0  0  0  0  0  0  0  0
  146.3963  134.0449  160.2276 H   0  0  0  0  0  0  0  0  0  0  0  0
  148.1218  133.9525  160.5577 H   0  0  0  0  0  0  0  0  0  0  0  0
  1  2  1  0  0  0  0
  1 24  1  0  0  0  0
  1 25  1  0  0  0  0
  1 26  1  0  0  0  0
  2  9  1  0  0  0  0
  2  3  2  0  0  0  0
  3  4  1  0  0  0  0
  3 27  1  0  0  0  0
  4  5  1  0  0  0  0
  4  6  2  0  0  0  0
  5 28  1  0  0  0  0
  6  7  1  0  0  0  0
  6 29  1  0  0  0  0
  7  8  2  0  0  0  0
  7  9  1  0  0  0  0
  9 10  1  0  0  0  0
 10 11  1  0  0  0  0
 10 30  1  0  0  0  0
 10 31  1  0  0  0  0
 11 12  2  0  0  0  0
 11 13  1  0  0  0  0
 13 14  1  0  0  0  0
 13 32  1  0  0  0  0
 14 15  1  0  0  0  0
 14 20  1  0  0  0  0
 14 33  1  0  0  0  0
 15 19  1  0  0  0  0
 15 16  1  0  0  0  0
 15 34  1  0  0  0  0
 16 17  1  0  0  0  0
 16 35  1  0  0  0  0
 16 36  1  0  0  0  0
 17 18  1  0  0  0  0
 17 37  1  0  0  0  0
 17 38  1  0  0  0  0
 18 19  1  0  0  0  0
 18 39  1  0  0  0  0
 18 40  1  0  0  0  0
 19 41  1  0  0  0  0
 19 42  1  0  0  0  0
 20 21  1  0  0  0  0
 20 22  1  0  0  0  0
 20 23  1  0  0  0  0
M  END
> <s_m_source_file>
AV-unprocessed.smi

> <i_m_source_file_index>
2695

> <i_lp_mmshare_version>
43012

> <i_f3d_flags>
0

> <s_epik_input>
W0NIM11jMVtjSF1jKFtPSF0pW2NIXWMoPU8pbjFbQ0gyXUMoPU8pW05IXVtDQEBIXShDKEYpKEYpRilbQ0hdMltDSDJdW0NIMl1bQ0gyXVtDSDJdMg==

> <s_epik_cmdline>
J2VwaWtfcHl0aG9uJywgJy1waCcsICc3LjAnLCAnLXRuJywgJzgnLCAnLW1hJywgJzIwMCcsICctbWV0YWxfYmluZGluZycsICctaW1hZScsICc8aW5maWxlLm1hZT4nLCAnLW9tYWUnLCAnPG91dGZpbGUubWFlPic=

> <r_lp_tautomer_probability>
0.999984

> <r_epik_Ionization_Penalty>
0.843628

> <r_epik_Ionization_Penalty_Charging>
1.18449e-07

> <r_epik_Ionization_Penalty_Neutral>
0.843628

> <r_epik_State_Penalty>
0.886913

> <r_epik_Charging_Adjusted_Penalty>
0.886913

> <i_epik_Tot_Q>
0

> <i_epik_Tot_abs_Q>
0

> <r_epik_Metal_State_Penalty>
0.886913

> <b_epik_Metal_Only>
0

> <s_lp_Force_Field>
OPLS_2005

> <r_lp_Energy>
35.4527

> <b_lp_Chiralities_Consistent>
1

> <s_lp_Variant>
AV-unprocessed.smi:2695-4

> <Gold.Version>
5.8.1

> <Gold.Id.Protein>
6NUR|6NUR_protein|mol2

> <Gold.PLP.Fitness>
40.8179

> <Gold.PLP.PLP>
-33.6699

> <Gold.PLP.part.hbond>
-4.7928

> <Gold.PLP.part.metal>
0.0000

> <Gold.PLP.part.buried>
-0.8814

> <Gold.PLP.part.nonpolar>
-27.6531

> <Gold.PLP.part.repulsive>
0.1781

> <Gold.PLP.ligand.clash>
0.0000

> <Gold.PLP.ligand.torsion>
0.6945

> <Gold.PLP.Chemscore.Hbond>
2.7360

> <Gold.PLP.Chemscore.CHOScore>
0.0000

> <Gold.PLP.Chemscore.Metal>
0.0000

> <Gold.Chemscore.Hbonds>
donor molecule, donor type, donor heavy atom, donor atom, acceptor molecule, acceptor atom, score
      L1  H     5    28       P1  7957  0.74
      P1  H  6896  6907       L1    12  0.86
      P1  H  8011  8017       L1     5  1.00

> <Gold.PLP.Chemscore.Internal.Correction>
0.3291

> <Gold.Rescore>
     Score         DG    S(hbond)    S(metal)    S(lipo)     H(rot)  DE(clash)    DE(int)     intcor
     14.33     -15.17       2.16        0.00      72.67       2.36       0.06       0.78       ----

> <Gold.Chemscore.Fitness>
14.3270

> <Gold.Chemscore.DG>
-15.1682

> <Gold.Chemscore.ZeroCoef>
-5.4800

> <Gold.Chemscore.Hbond>
2.1636

> <Gold.Chemscore.Metal>
0.0000

> <Gold.Chemscore.Lipo>
72.6748

> <Gold.Chemscore.Internal_Hbond>
0.0000

> <Gold.Chemscore.DEClash>
0.0592

> <Gold.Chemscore.DEInternal>
0.7819

> <Gold.Chemscore.Rot>
2.3599

> <Gold.Chemscore.Internal.Correction>
   9.000000E+99

> <Gold.Chemscore.Hbonds>
donor molecule, donor type, donor heavy atom, donor atom, acceptor molecule, acceptor atom, score
      L1  H     5    28       P1  7957  0.74
      P1  H  6896  6907       L1    12  0.82
      P1  H  8011  8017       L1     5  0.25

> <Gold.Chemscore.Hbond.Weighted>
-7.2265

> <Gold.Chemscore.Metal.Weighted>
-0.0000

> <Gold.Chemscore.Lipo.Weighted>
-8.5030

> <Gold.Chemscore.Internal_Hbond.Weighted>
0.0000

> <Gold.Chemscore.DEClash.Weighted>
0.0592

> <Gold.Chemscore.DEInternal.Weighted>
0.7819

> <Gold.Chemscore.Rot.Weighted>
6.0413

> <Gold.Chemscore.Internal.Correction.Weighted>
   9.000000E+99

> <Gold.Protein.RotatedTorsions>
[ 6907 6896 6895 6894 ] final  -22.43 input  -60.11 | X-H torsion
[ 7974 7965 7964 7962 ] final -133.37 input  175.53 | X-H torsion
[ 8008 7997 7996 7995 ] final  106.98 input   59.86 | X-H torsion
[ 10167 10162 10161 10158 ] final   24.75 input  -65.29 | X-H torsion
[ 10718 10713 10712 10709 ] final  109.99 input   66.30 | X-H torsion
[ 10763 10752 10751 10750 ] final -157.91 input  -60.55 | X-H torsion
[ 11005 11000 10999 10996 ] final -100.87 input  -57.11 | X-H torsion

> <Gold.Protein.ActiveResidues>
 VAL166  LYS551  ARG553  GLY616  TRP617  ASP618  TYR619  PRO620  LYS621  CYS622 
 ASP623  PHE694  ASN695  SER759  ASP760  ASP761  ALA762  ILE779  LEU786  VAL792 
 PHE793  MET794  SER795  GLU796  ALA797  LYS798  CYS799  TRP800  GLU811  SER814 

> <Gold.Protein.RotatedAtoms>
  151.2187  135.0510  159.8940 H   0  0  0  0  0  0  0  0  0  0  0  0  # atno 6907 bound_to 6896
  152.5417  134.0664  159.8185 H   0  0  0  0  0  0  0  0  0  0  0  0  # atno 6908 bound_to 6896
  151.0827  133.5329  159.2651 H   0  0  0  0  0  0  0  0  0  0  0  0  # atno 6909 bound_to 6896
  144.9200  140.7002  143.4971 H   0  0  0  0  0  0  0  0  0  0  0  0  # atno 7974 bound_to 7965
  156.1787  140.3103  155.9107 H   0  0  0  0  0  0  0  0  0  0  0  0  # atno 8008 bound_to 7997
  155.3431  140.0467  157.3062 H   0  0  0  0  0  0  0  0  0  0  0  0  # atno 8009 bound_to 7997
  154.5318  140.2233  155.8801 H   0  0  0  0  0  0  0  0  0  0  0  0  # atno 8010 bound_to 7997
  140.5162  144.0078  150.6395 H   0  0  0  0  0  0  0  0  0  0  0  0  # atno 10167 bound_to 10162
  157.6516  131.0924  150.6535 H   0  0  0  0  0  0  0  0  0  0  0  0  # atno 10718 bound_to 10713
  154.7599  135.3115  154.8399 H   0  0  0  0  0  0  0  0  0  0  0  0  # atno 10763 bound_to 10752
  153.9162  135.6800  153.4753 H   0  0  0  0  0  0  0  0  0  0  0  0  # atno 10764 bound_to 10752
  153.1199  135.4827  154.9108 H   0  0  0  0  0  0  0  0  0  0  0  0  # atno 10765 bound_to 10752
  141.1254  133.8433  157.1158 H   0  0  0  0  0  0  0  0  0  0  0  0  # atno 11005 bound_to 11000
  145.3312  139.1759  143.4535 LP  0  0  0  0  0  0  0  0  0  0  0  0  # atno 17320 bound_to 7965
  146.3200  140.3342  142.8643 LP  0  0  0  0  0  0  0  0  0  0  0  0  # atno 17321 bound_to 7965
  140.3414  143.3017  152.0584 LP  0  0  0  0  0  0  0  0  0  0  0  0  # atno 17342 bound_to 10162
  139.4910  144.6439  151.6819 LP  0  0  0  0  0  0  0  0  0  0  0  0  # atno 17343 bound_to 10162
  156.6846  130.4577  149.5617 LP  0  0  0  0  0  0  0  0  0  0  0  0  # atno 17370 bound_to 10713
  156.1905  130.6556  151.1055 LP  0  0  0  0  0  0  0  0  0  0  0  0  # atno 17371 bound_to 10713
  140.0247  134.9929  157.0662 LP  0  0  0  0  0  0  0  0  0  0  0  0  # atno 17394 bound_to 11000
  140.4382  134.1709  155.7172 LP  0  0  0  0  0  0  0  0  0  0  0  0  # atno 17395 bound_to 11000

$$$$
