AV-unprocessed.smi:2923|AV-procd|sdf|11205|dock10
  -GOLD-   2272016 93D 1   1.00000     0.00000
 Structure written by MMmdl.
 47 49  0  0  0  0  0  0  0  0  2 V2000
  144.2235  132.6359  148.9035 C   0  0  0  0  0  0  0  0  0  0  0  0
  144.5173  132.6195  150.3320 N   0  0  0  0  0  0  0  0  0  0  0  0
  144.1980  131.4463  151.1349 C   0  0  0  0  0  0  0  0  0  0  0  0
  145.0439  133.7730  150.9527 C   0  0  0  0  0  0  0  0  0  0  0  0
  145.1967  133.8983  152.3551 C   0  0  0  0  0  0  0  0  0  0  0  0
  145.7283  135.0854  152.8991 C   0  0  0  0  0  0  0  0  0  0  0  0
  146.1008  136.1458  152.0470 C   0  0  0  0  0  0  0  0  0  0  0  0
  146.6348  137.3175  152.6503 N   0  0  0  0  0  0  0  0  0  0  0  0
  146.8485  137.5769  153.9519 C   0  0  0  0  0  0  0  0  0  0  0  0
  146.6152  136.8062  154.8823 O   0  0  0  0  0  0  0  0  0  0  0  0
  147.3626  138.8020  154.1219 N   0  0  0  0  0  0  0  0  0  0  0  0
  147.6980  139.3923  155.4190 C   0  0  1  0  0  0  0  0  0  0  0  0
  148.9411  138.7467  156.0714 C   0  0  1  0  0  0  0  0  0  0  0  0
  149.5814  137.4829  155.5498 C   0  0  0  0  0  0  0  0  0  0  0  0
  150.7342  138.0156  154.6939 C   0  0  0  0  0  0  0  0  0  0  0  0
  150.3689  139.3592  154.3865 O   0  0  0  0  0  0  0  0  0  0  0  0
  149.7518  139.9190  155.5437 C   0  0  1  0  0  0  0  0  0  0  0  0
  148.4659  140.7371  155.3046 C   0  0  0  0  0  0  0  0  0  0  0  0
  148.4013  141.5250  153.9888 C   0  0  0  0  0  0  0  0  0  0  0  0
  148.1436  141.7370  156.4189 C   0  0  0  0  0  0  0  0  0  0  0  0
  145.9395  135.9678  150.6520 C   0  0  0  0  0  0  0  0  0  0  0  0
  145.4267  134.8136  150.1736 N   0  3  0  0  0  0  0  0  0  0  0  0
  145.1354  132.7964  148.3273 H   0  0  0  0  0  0  0  0  0  0  0  0
  143.5178  133.4324  148.6655 H   0  0  0  0  0  0  0  0  0  0  0  0
  143.7837  131.6934  148.5773 H   0  0  0  0  0  0  0  0  0  0  0  0
  143.4438  131.6887  151.8839 H   0  0  0  0  0  0  0  0  0  0  0  0
  145.0887  131.0747  151.6422 H   0  0  0  0  0  0  0  0  0  0  0  0
  143.8068  130.6375  150.5173 H   0  0  0  0  0  0  0  0  0  0  0  0
  144.9136  133.1020  153.0267 H   0  0  0  0  0  0  0  0  0  0  0  0
  145.8441  135.1785  153.9692 H   0  0  0  0  0  0  0  0  0  0  0  0
  146.9212  138.0411  152.0072 H   0  0  0  0  0  0  0  0  0  0  0  0
  147.5205  139.3767  153.3071 H   0  0  0  0  0  0  0  0  0  0  0  0
  146.8546  139.4369  156.1109 H   0  0  0  0  0  0  0  0  0  0  0  0
  148.8682  138.7828  157.1594 H   0  0  0  0  0  0  0  0  0  0  0  0
  149.9526  136.8466  156.3536 H   0  0  0  0  0  0  0  0  0  0  0  0
  148.8902  136.8845  154.9568 H   0  0  0  0  0  0  0  0  0  0  0  0
  151.6631  138.0236  155.2659 H   0  0  0  0  0  0  0  0  0  0  0  0
  150.8944  137.4277  153.7898 H   0  0  0  0  0  0  0  0  0  0  0  0
  150.4608  140.3320  156.2627 H   0  0  0  0  0  0  0  0  0  0  0  0
  149.0775  142.3804  154.0023 H   0  0  0  0  0  0  0  0  0  0  0  0
  147.3964  141.9036  153.7992 H   0  0  0  0  0  0  0  0  0  0  0  0
  148.6844  140.9171  153.1295 H   0  0  0  0  0  0  0  0  0  0  0  0
  148.8594  142.5594  156.4402 H   0  0  0  0  0  0  0  0  0  0  0  0
  148.1673  141.2664  157.4022 H   0  0  0  0  0  0  0  0  0  0  0  0
  147.1494  142.1672  156.2930 H   0  0  0  0  0  0  0  0  0  0  0  0
  146.2023  136.6883  149.8931 H   0  0  0  0  0  0  0  0  0  0  0  0
  145.3229  134.7206  149.1631 H   0  0  0  0  0  0  0  0  0  0  0  0
  1  2  1  0  0  0  0
  1 23  1  0  0  0  0
  1 24  1  0  0  0  0
  1 25  1  0  0  0  0
  2  3  1  0  0  0  0
  2  4  1  0  0  0  0
  3 26  1  0  0  0  0
  3 27  1  0  0  0  0
  3 28  1  0  0  0  0
  4 22  1  0  0  0  0
  4  5  2  0  0  0  0
  5  6  1  0  0  0  0
  5 29  1  0  0  0  0
  6  7  2  0  0  0  0
  6 30  1  0  0  0  0
  7  8  1  0  0  0  0
  7 21  1  0  0  0  0
  8  9  1  0  0  0  0
  8 31  1  0  0  0  0
  9 10  2  0  0  0  0
  9 11  1  0  0  0  0
 11 12  1  0  0  0  0
 11 32  1  0  0  0  0
 12 18  1  0  0  0  0
 12 13  1  0  0  0  0
 12 33  1  0  0  0  0
 13 17  1  0  0  0  0
 13 14  1  0  0  0  0
 13 34  1  0  0  0  0
 14 15  1  0  0  0  0
 14 35  1  0  0  0  0
 14 36  1  0  0  0  0
 15 16  1  0  0  0  0
 15 37  1  0  0  0  0
 15 38  1  0  0  0  0
 16 17  1  0  0  0  0
 17 18  1  0  0  0  0
 17 39  1  0  0  0  0
 18 19  1  0  0  0  0
 18 20  1  0  0  0  0
 19 40  1  0  0  0  0
 19 41  1  0  0  0  0
 19 42  1  0  0  0  0
 20 43  1  0  0  0  0
 20 44  1  0  0  0  0
 20 45  1  0  0  0  0
 21 22  2  0  0  0  0
 21 46  1  0  0  0  0
 22 47  1  0  0  0  0
M  CHG  1  22   1
M  END
> <s_m_source_file>
AV-unprocessed.smi

> <i_m_source_file_index>
2923

> <i_lp_mmshare_version>
43012

> <i_f3d_flags>
0

> <s_epik_input>
W0NIM11OKFtDSDNdKWMxW2NIXVtjSF1jKFtjSF1uMSlbTkhdQyg9TylbTkhdW0NASF0yQyhbQ0gzXSkoW0NIM10pW0NAQEhdKFtDQEhdMjMpT1tDSDJdW0NIMl0z

> <s_epik_cmdline>
J2VwaWtfcHl0aG9uJywgJy1waCcsICc3LjAnLCAnLXRuJywgJzgnLCAnLW1hJywgJzIwMCcsICctbWV0YWxfYmluZGluZycsICctaW1hZScsICc8aW5maWxlLm1hZT4nLCAnLW9tYWUnLCAnPG91dGZpbGUubWFlPic=

> <r_lp_tautomer_probability>
0.999994

> <r_epik_Ionization_Penalty>
0.252205

> <r_epik_Ionization_Penalty_Charging>
0.252185

> <r_epik_Ionization_Penalty_Neutral>
1.99479e-05

> <r_epik_State_Penalty>
0.243573

> <r_epik_Charging_Adjusted_Penalty>
0.495758

> <i_epik_Tot_Q>
1

> <i_epik_Tot_abs_Q>
1

> <r_epik_Metal_State_Penalty>
0.534372

> <b_epik_Metal_Only>
0

> <s_lp_Force_Field>
OPLS_2005

> <r_lp_Energy>
46.5408

> <b_lp_Chiralities_Consistent>
1

> <s_lp_Variant>
AV-unprocessed.smi:2923-4

> <Gold.Version>
5.8.1

> <Gold.Id.Protein>
6NUR|6NUR_protein|mol2

> <Gold.PLP.Fitness>
37.7117

> <Gold.PLP.PLP>
-32.8814

> <Gold.PLP.part.hbond>
-3.0000

> <Gold.PLP.part.metal>
0.0000

> <Gold.PLP.part.buried>
-4.6344

> <Gold.PLP.part.nonpolar>
-26.0878

> <Gold.PLP.part.repulsive>
1.0721

> <Gold.PLP.ligand.clash>
0.0000

> <Gold.PLP.ligand.torsion>
0.1143

> <Gold.PLP.Chemscore.Hbond>
1.6240

> <Gold.PLP.Chemscore.CHOScore>
0.0000

> <Gold.PLP.Chemscore.Metal>
0.0000

> <Gold.Chemscore.Hbonds>
donor molecule, donor type, donor heavy atom, donor atom, acceptor molecule, acceptor atom, score
      L1  H    22    47       P1  7921  0.90
      P1  H  7989  7998       L1    16  0.68

> <Gold.PLP.Chemscore.Internal.Correction>
0.1870

> <Gold.Rescore>
     Score         DG    S(hbond)    S(metal)    S(lipo)     H(rot)  DE(clash)    DE(int)     intcor
     13.09     -17.15       1.55        0.00      77.35       1.00       1.73       2.33       ----

> <Gold.Chemscore.Fitness>
13.0942

> <Gold.Chemscore.DG>
-17.1502

> <Gold.Chemscore.ZeroCoef>
-5.4800

> <Gold.Chemscore.Hbond>
1.5508

> <Gold.Chemscore.Metal>
0.0000

> <Gold.Chemscore.Lipo>
77.3543

> <Gold.Chemscore.Internal_Hbond>
0.0000

> <Gold.Chemscore.DEClash>
1.7283

> <Gold.Chemscore.DEInternal>
2.3277

> <Gold.Chemscore.Rot>
1.0000

> <Gold.Chemscore.Internal.Correction>
   9.000000E+99

> <Gold.Chemscore.Hbonds>
donor molecule, donor type, donor heavy atom, donor atom, acceptor molecule, acceptor atom, score
      L1  H    22    47       P1  7921  0.88
      P1  H  7989  7998       L1    16  0.48

> <Gold.Chemscore.Hbond.Weighted>
-5.1798

> <Gold.Chemscore.Metal.Weighted>
-0.0000

> <Gold.Chemscore.Lipo.Weighted>
-9.0505

> <Gold.Chemscore.Internal_Hbond.Weighted>
0.0000

> <Gold.Chemscore.DEClash.Weighted>
1.7283

> <Gold.Chemscore.DEInternal.Weighted>
2.3277

> <Gold.Chemscore.Rot.Weighted>
2.5600

> <Gold.Chemscore.Internal.Correction.Weighted>
   9.000000E+99

> <Gold.Protein.RotatedTorsions>
[ 6907 6896 6895 6894 ] final  -95.76 input  -60.11 | X-H torsion
[ 7974 7965 7964 7962 ] final   -7.63 input  175.53 | X-H torsion
[ 8008 7997 7996 7995 ] final -143.78 input   59.86 | X-H torsion
[ 10167 10162 10161 10158 ] final  -25.40 input  -65.29 | X-H torsion
[ 10718 10713 10712 10709 ] final  -50.69 input   66.30 | X-H torsion
[ 10763 10752 10751 10750 ] final -163.85 input  -60.55 | X-H torsion
[ 11005 11000 10999 10996 ] final   53.95 input  -57.11 | X-H torsion

> <Gold.Protein.ActiveResidues>
 VAL166  LYS551  ARG553  GLY616  TRP617  ASP618  TYR619  PRO620  LYS621  CYS622 
 ASP623  PHE694  ASN695  SER759  ASP760  ASP761  ALA762  ILE779  LEU786  VAL792 
 PHE793  MET794  SER795  GLU796  ALA797  LYS798  CYS799  TRP800  GLU811  SER814 

> <Gold.Protein.RotatedAtoms>
  150.6972  134.1607  159.4174 H   0  0  0  0  0  0  0  0  0  0  0  0  # atno 6907 bound_to 6896
  151.9588  135.0131  160.0555 H   0  0  0  0  0  0  0  0  0  0  0  0  # atno 6908 bound_to 6896
  152.1945  133.4762  159.5062 H   0  0  0  0  0  0  0  0  0  0  0  0  # atno 6909 bound_to 6896
  146.2302  140.2348  142.8341 H   0  0  0  0  0  0  0  0  0  0  0  0  # atno 7974 bound_to 7965
  155.5161  140.0587  157.2915 H   0  0  0  0  0  0  0  0  0  0  0  0  # atno 8008 bound_to 7997
  154.4534  140.1960  156.0398 H   0  0  0  0  0  0  0  0  0  0  0  0  # atno 8009 bound_to 7997
  156.0751  140.3255  155.7627 H   0  0  0  0  0  0  0  0  0  0  0  0  # atno 8010 bound_to 7997
  140.7286  143.4268  151.0864 H   0  0  0  0  0  0  0  0  0  0  0  0  # atno 10167 bound_to 10162
  156.1777  130.4150  149.9552 H   0  0  0  0  0  0  0  0  0  0  0  0  # atno 10718 bound_to 10713
  154.7083  135.3001  154.9236 H   0  0  0  0  0  0  0  0  0  0  0  0  # atno 10763 bound_to 10752
  154.0145  135.6690  153.4772 H   0  0  0  0  0  0  0  0  0  0  0  0  # atno 10764 bound_to 10752
  153.0735  135.5048  154.8267 H   0  0  0  0  0  0  0  0  0  0  0  0  # atno 10765 bound_to 10752
  140.0725  134.5450  155.9031 H   0  0  0  0  0  0  0  0  0  0  0  0  # atno 11005 bound_to 11000
  144.9530  140.8197  143.5560 LP  0  0  0  0  0  0  0  0  0  0  0  0  # atno 17320 bound_to 7965
  145.2311  139.2115  143.5042 LP  0  0  0  0  0  0  0  0  0  0  0  0  # atno 17321 bound_to 7965
  139.7920  143.8205  152.3153 LP  0  0  0  0  0  0  0  0  0  0  0  0  # atno 17342 bound_to 10162
  139.8192  144.7303  150.9595 LP  0  0  0  0  0  0  0  0  0  0  0  0  # atno 17343 bound_to 10162
  156.7333  130.9051  151.3627 LP  0  0  0  0  0  0  0  0  0  0  0  0  # atno 17370 bound_to 10713
  157.6847  130.9174  150.0356 LP  0  0  0  0  0  0  0  0  0  0  0  0  # atno 17371 bound_to 10713
  141.2017  133.6620  156.5966 LP  0  0  0  0  0  0  0  0  0  0  0  0  # atno 17394 bound_to 11000
  140.3606  134.7691  157.4531 LP  0  0  0  0  0  0  0  0  0  0  0  0  # atno 17395 bound_to 11000

$$$$
