AV-unprocessed.smi:218|AV-procd|sdf|1667|dock3
  -GOLD-   2262020 73D 1   1.00000     0.00000
 Structure written by MMmdl.
 54 57  0  0  0  0  0  0  0  0  1 V2000
  156.9667  129.9215  155.5802 C   0  0  0  0  0  0  0  0  0  0  0  0
  156.1602  129.5432  154.3320 C   0  0  0  0  0  0  0  0  0  0  0  0
  155.8610  130.7803  153.4675 C   0  0  0  0  0  0  0  0  0  0  0  0
  154.9434  128.9495  154.7889 O   0  0  0  0  0  0  0  0  0  0  0  0
  153.9816  129.7253  155.4072 C   0  0  0  0  0  0  0  0  0  0  0  0
  152.6879  129.7551  154.8478 C   0  0  0  0  0  0  0  0  0  0  0  0
  151.6919  130.5382  155.4693 C   0  0  0  0  0  0  0  0  0  0  0  0
  150.2790  130.6083  154.9112 C   0  0  0  0  0  0  0  0  0  0  0  0
  149.7027  129.3309  154.5030 N   0  0  0  0  0  0  0  0  0  0  0  0
  148.6011  129.2891  153.7217 C   0  0  0  0  0  0  0  0  0  0  0  0
  148.1641  128.1203  153.1831 N   0  0  0  0  0  0  0  0  0  0  0  0
  147.0705  128.1054  152.4147 C   0  0  0  0  0  0  0  0  0  0  0  0
  146.2780  129.1233  152.0704 N   0  0  0  0  0  0  0  0  0  0  0  0
  146.7117  130.2969  152.6146 C   0  0  0  0  0  0  0  0  0  0  0  0
  147.8543  130.4628  153.4442 C   0  0  0  0  0  0  0  0  0  0  0  0
  147.9807  131.7972  153.8080 N   0  0  0  0  0  0  0  0  0  0  0  0
  146.9678  132.3814  153.2254 C   0  0  0  0  0  0  0  0  0  0  0  0
  146.1564  131.5503  152.4807 N   0  0  0  0  0  0  0  0  0  0  0  0
  144.9239  131.8745  151.6907 C   0  0  1  0  0  0  0  0  0  0  0  0
  144.6240  133.2257  151.8789 O   0  0  0  0  0  0  0  0  0  0  0  0
  145.0079  133.9667  150.7280 C   0  0  2  0  0  0  0  0  0  0  0  0
  144.3026  135.3334  150.6873 C   0  0  0  0  0  0  0  0  0  0  0  0
  144.7899  136.1013  149.6078 O   0  0  0  0  0  0  0  0  0  0  0  0
  144.7186  132.9958  149.5761 C   0  0  2  0  0  0  0  0  0  0  0  0
  143.3456  133.0031  149.2313 O   0  0  0  0  0  0  0  0  0  0  0  0
  145.1137  131.6481  150.1690 C   0  0  1  0  0  0  0  0  0  0  0  0
  146.4427  131.3282  149.7920 O   0  0  0  0  0  0  0  0  0  0  0  0
  152.0363  131.2712  156.6221 C   0  0  0  0  0  0  0  0  0  0  0  0
  153.3559  131.1818  157.1051 C   0  0  0  0  0  0  0  0  0  0  0  0
  154.3113  130.4313  156.5174 N   0  0  0  0  0  0  0  0  0  0  0  0
  144.1427  131.2541  152.1318 H   0  0  0  0  0  0  0  0  0  0  0  0
  146.0859  134.1272  150.7842 H   0  0  0  0  0  0  0  0  0  0  0  0
  145.2896  133.2458  148.6804 H   0  0  0  0  0  0  0  0  0  0  0  0
  144.4596  130.8421  149.8335 H   0  0  0  0  0  0  0  0  0  0  0  0
  157.9238  130.3684  155.3094 H   0  0  0  0  0  0  0  0  0  0  0  0
  157.1729  129.0428  156.1920 H   0  0  0  0  0  0  0  0  0  0  0  0
  156.4256  130.6383  156.1988 H   0  0  0  0  0  0  0  0  0  0  0  0
  156.7586  128.8275  153.7663 H   0  0  0  0  0  0  0  0  0  0  0  0
  156.7835  131.2677  153.1516 H   0  0  0  0  0  0  0  0  0  0  0  0
  155.2703  131.5116  154.0196 H   0  0  0  0  0  0  0  0  0  0  0  0
  155.3059  130.5207  152.5669 H   0  0  0  0  0  0  0  0  0  0  0  0
  152.4681  129.1813  153.9594 H   0  0  0  0  0  0  0  0  0  0  0  0
  149.6189  131.0825  155.6390 H   0  0  0  0  0  0  0  0  0  0  0  0
  150.2932  131.2639  154.0406 H   0  0  0  0  0  0  0  0  0  0  0  0
  150.0833  128.5131  154.9568 H   0  0  0  0  0  0  0  0  0  0  0  0
  146.7903  127.1398  152.0203 H   0  0  0  0  0  0  0  0  0  0  0  0
  146.7893  133.4413  153.3298 H   0  0  0  0  0  0  0  0  0  0  0  0
  143.2205  135.2279  150.6064 H   0  0  0  0  0  0  0  0  0  0  0  0
  144.4988  135.8781  151.6111 H   0  0  0  0  0  0  0  0  0  0  0  0
  144.2295  136.8543  149.4977 H   0  0  0  0  0  0  0  0  0  0  0  0
  142.9539  133.7893  149.5808 H   0  0  0  0  0  0  0  0  0  0  0  0
  146.9590  131.2218  150.5761 H   0  0  0  0  0  0  0  0  0  0  0  0
  151.3076  131.8864  157.1292 H   0  0  0  0  0  0  0  0  0  0  0  0
  153.6529  131.7297  157.9873 H   0  0  0  0  0  0  0  0  0  0  0  0
  1  2  1  0  0  0  0
  1 35  1  0  0  0  0
  1 36  1  0  0  0  0
  1 37  1  0  0  0  0
  2  3  1  0  0  0  0
  2  4  1  0  0  0  0
  2 38  1  0  0  0  0
  3 39  1  0  0  0  0
  3 40  1  0  0  0  0
  3 41  1  0  0  0  0
  4  5  1  0  0  0  0
  5 30  1  0  0  0  0
  5  6  2  0  0  0  0
  6  7  1  0  0  0  0
  6 42  1  0  0  0  0
  7  8  1  0  0  0  0
  7 28  2  0  0  0  0
  8  9  1  0  0  0  0
  8 43  1  0  0  0  0
  8 44  1  0  0  0  0
  9 10  1  0  0  0  0
  9 45  1  0  0  0  0
 10 15  1  0  0  0  0
 10 11  2  0  0  0  0
 11 12  1  0  0  0  0
 12 13  2  0  0  0  0
 12 46  1  0  0  0  0
 13 14  1  0  0  0  0
 14 18  1  0  0  0  0
 14 15  2  0  0  0  0
 15 16  1  0  0  0  0
 16 17  2  0  0  0  0
 17 18  1  0  0  0  0
 17 47  1  0  0  0  0
 18 19  1  0  0  0  0
 19 31  1  0  0  0  0
 19 26  1  0  0  0  0
 19 20  1  0  0  0  0
 20 21  1  0  0  0  0
 21 32  1  0  0  0  0
 21 22  1  0  0  0  0
 21 24  1  0  0  0  0
 22 23  1  0  0  0  0
 22 48  1  0  0  0  0
 22 49  1  0  0  0  0
 23 50  1  0  0  0  0
 24 33  1  0  0  0  0
 24 25  1  0  0  0  0
 24 26  1  0  0  0  0
 25 51  1  0  0  0  0
 26 34  1  0  0  0  0
 26 27  1  0  0  0  0
 27 52  1  0  0  0  0
 28 29  1  0  0  0  0
 28 53  1  0  0  0  0
 29 30  2  0  0  0  0
 29 54  1  0  0  0  0
M  END
> <s_m_source_file>
AV-unprocessed.smi

> <i_m_source_file_index>
218

> <i_lp_mmshare_version>
43012

> <i_f3d_flags>
0

> <s_epik_input>
W0NIM11bQ0hdKFtDSDNdKU9jMVtjSF1jKFtjSF1bY0hdbjEpW0NIMl1bTkhdYyhuW2NIXW4yKWMoYzIzKW5bY0hdbjNbQ0BASF00T1tDQEhdKFtDSDJdW09IXSlbQ0BASF0oW09IXSlbQ0BIXTRbT0hd

> <s_epik_cmdline>
J2VwaWtfcHl0aG9uJywgJy1waCcsICc3LjAnLCAnLXRuJywgJzgnLCAnLW1hJywgJzIwMCcsICctbWV0YWxfYmluZGluZycsICctaW1hZScsICc8aW5maWxlLm1hZT4nLCAnLW9tYWUnLCAnPG91dGZpbGUubWFlPic=

> <r_lp_tautomer_probability>
1

> <r_epik_Ionization_Penalty>
0.00457014

> <r_epik_Ionization_Penalty_Charging>
0

> <r_epik_Ionization_Penalty_Neutral>
0.00457014

> <r_epik_State_Penalty>
-0

> <r_epik_Charging_Adjusted_Penalty>
0

> <i_epik_Tot_Q>
0

> <i_epik_Tot_abs_Q>
0

> <r_epik_Metal_State_Penalty>
-0

> <b_epik_Metal_Only>
0

> <s_epik_Chemistry_Notes>
This compound contains an acetal/aminal-like group ( X-CH(R)-Y where X, Y are N, S, or O) that may be acid/base labile, releasing an aldehyde.

> <s_lp_Force_Field>
OPLS_2005

> <r_lp_Energy>
40.1019

> <b_lp_Chiralities_Consistent>
1

> <s_lp_Variant>
AV-unprocessed.smi:218-6

> <Gold.Version>
5.8.1

> <Gold.Id.Protein>
6NUR|6NUR_protein|mol2

> <Gold.PLP.Fitness>
52.2365

> <Gold.PLP.PLP>
-47.2089

> <Gold.PLP.part.hbond>
-4.0000

> <Gold.PLP.part.metal>
0.0000

> <Gold.PLP.part.buried>
-8.3884

> <Gold.PLP.part.nonpolar>
-35.8042

> <Gold.PLP.part.repulsive>
0.4376

> <Gold.PLP.ligand.clash>
0.0000

> <Gold.PLP.ligand.torsion>
0.4445

> <Gold.PLP.Chemscore.Hbond>
1.8896

> <Gold.PLP.Chemscore.CHOScore>
0.0000

> <Gold.PLP.Chemscore.Metal>
0.0000

> <Gold.Chemscore.Hbonds>
donor molecule, donor type, donor heavy atom, donor atom, acceptor molecule, acceptor atom, score
      L1  H    23    50       P1 10171  1.00
      L1  H    25    51       P1 10186  0.58
      L1  H    27    52       P1 10747  0.28

> <Gold.PLP.Chemscore.Internal.Correction>
0.2479

> <Gold.Rescore>
     Score         DG    S(hbond)    S(metal)    S(lipo)     H(rot)  DE(clash)    DE(int)     intcor
      4.96      -9.20       2.00        0.00      82.01       4.90       0.19       4.05       ----

> <Gold.Chemscore.Fitness>
4.9645

> <Gold.Chemscore.DG>
-9.2043

> <Gold.Chemscore.ZeroCoef>
-5.4800

> <Gold.Chemscore.Hbond>
2.0002

> <Gold.Chemscore.Metal>
0.0000

> <Gold.Chemscore.Lipo>
82.0101

> <Gold.Chemscore.Internal_Hbond>
0.0000

> <Gold.Chemscore.DEClash>
0.1892

> <Gold.Chemscore.DEInternal>
4.0506

> <Gold.Chemscore.Rot>
4.9029

> <Gold.Chemscore.Internal.Correction>
   9.000000E+99

> <Gold.Chemscore.Hbonds>
donor molecule, donor type, donor heavy atom, donor atom, acceptor molecule, acceptor atom, score
      L1  H    23    50       P1 10171  0.96
      L1  H    25    51       P1 10186  0.55
      L1  H    27    52       P1 10747  0.26

> <Gold.Chemscore.Hbond.Weighted>
-6.6806

> <Gold.Chemscore.Metal.Weighted>
-0.0000

> <Gold.Chemscore.Lipo.Weighted>
-9.5952

> <Gold.Chemscore.Internal_Hbond.Weighted>
0.0000

> <Gold.Chemscore.DEClash.Weighted>
0.1892

> <Gold.Chemscore.DEInternal.Weighted>
4.0506

> <Gold.Chemscore.Rot.Weighted>
12.5515

> <Gold.Chemscore.Internal.Correction.Weighted>
   9.000000E+99

> <Gold.Protein.RotatedTorsions>
[ 6907 6896 6895 6894 ] final   68.04 input  -60.11 | X-H torsion
[ 7974 7965 7964 7962 ] final -116.13 input  175.53 | X-H torsion
[ 8008 7997 7996 7995 ] final   99.43 input   59.86 | X-H torsion
[ 10167 10162 10161 10158 ] final -150.69 input  -65.29 | X-H torsion
[ 10718 10713 10712 10709 ] final  -74.57 input   66.30 | X-H torsion
[ 10763 10752 10751 10750 ] final  169.95 input  -60.55 | X-H torsion
[ 11005 11000 10999 10996 ] final    3.72 input  -57.11 | X-H torsion

> <Gold.Protein.ActiveResidues>
 VAL166  LYS551  ARG553  GLY616  TRP617  ASP618  TYR619  PRO620  LYS621  CYS622 
 ASP623  PHE694  ASN695  SER759  ASP760  ASP761  ALA762  ILE779  LEU786  VAL792 
 PHE793  MET794  SER795  GLU796  ALA797  LYS798  CYS799  TRP800  GLU811  SER814 

> <Gold.Protein.RotatedAtoms>
  152.4593  134.5220  159.9785 H   0  0  0  0  0  0  0  0  0  0  0  0  # atno 6907 bound_to 6896
  151.5273  133.3449  159.2920 H   0  0  0  0  0  0  0  0  0  0  0  0  # atno 6908 bound_to 6896
  150.8550  134.7916  159.7101 H   0  0  0  0  0  0  0  0  0  0  0  0  # atno 6909 bound_to 6896
  145.1003  140.8547  143.3930 H   0  0  0  0  0  0  0  0  0  0  0  0  # atno 7974 bound_to 7965
  156.1104  140.3229  155.8065 H   0  0  0  0  0  0  0  0  0  0  0  0  # atno 8008 bound_to 7997
  155.4682  140.0544  157.3000 H   0  0  0  0  0  0  0  0  0  0  0  0  # atno 8009 bound_to 7997
  154.4756  140.2031  155.9900 H   0  0  0  0  0  0  0  0  0  0  0  0  # atno 8010 bound_to 7997
  139.7333  143.8775  152.2541 H   0  0  0  0  0  0  0  0  0  0  0  0  # atno 10167 bound_to 10162
  156.0238  130.4420  150.2912 H   0  0  0  0  0  0  0  0  0  0  0  0  # atno 10718 bound_to 10713
  154.3905  135.2754  155.2157 H   0  0  0  0  0  0  0  0  0  0  0  0  # atno 10763 bound_to 10752
  154.4226  135.5996  153.6022 H   0  0  0  0  0  0  0  0  0  0  0  0  # atno 10764 bound_to 10752
  152.9832  135.5976  154.4159 H   0  0  0  0  0  0  0  0  0  0  0  0  # atno 10765 bound_to 10752
  140.5899  133.9934  155.8084 H   0  0  0  0  0  0  0  0  0  0  0  0  # atno 11005 bound_to 11000
  145.0963  139.2854  143.5709 LP  0  0  0  0  0  0  0  0  0  0  0  0  # atno 17320 bound_to 7965
  146.3530  140.0516  142.8635 LP  0  0  0  0  0  0  0  0  0  0  0  0  # atno 17321 bound_to 7965
  139.8704  144.7071  150.8994 LP  0  0  0  0  0  0  0  0  0  0  0  0  # atno 17342 bound_to 10162
  140.7775  143.3743  151.1592 LP  0  0  0  0  0  0  0  0  0  0  0  0  # atno 17343 bound_to 10162
  157.1015  131.0197  151.3083 LP  0  0  0  0  0  0  0  0  0  0  0  0  # atno 17370 bound_to 10713
  157.4776  130.7746  149.7383 LP  0  0  0  0  0  0  0  0  0  0  0  0  # atno 17371 bound_to 10713
  141.0942  133.9870  157.3188 LP  0  0  0  0  0  0  0  0  0  0  0  0  # atno 17394 bound_to 11000
  139.9279  135.0201  156.8298 LP  0  0  0  0  0  0  0  0  0  0  0  0  # atno 17395 bound_to 11000

$$$$
