AV-unprocessed.smi:89|AV-procd|sdf|828|dock7
  -GOLD-   2262017243D 1   1.00000     0.00000
 Structure written by MMmdl.
 54 56  0  0  0  0  0  0  0  0  1 V2000
  148.1901  139.4267  157.1002 C   0  0  0  0  0  0  0  0  0  0  0  0
  147.2823  138.5530  156.2185 C   0  0  0  0  0  0  0  0  0  0  0  0
  146.8551  137.3110  156.8668 N   0  0  0  0  0  0  0  0  0  0  0  0
  146.2251  136.4212  156.0574 C   0  0  0  0  0  0  0  0  0  0  0  0
  146.1452  135.1370  156.4874 N   0  0  0  0  0  0  0  0  0  0  0  0
  145.5523  134.2081  155.7329 C   0  0  0  0  0  0  0  0  0  0  0  0
  144.9852  134.3456  154.5332 N   0  0  0  0  0  0  0  0  0  0  0  0
  145.0697  135.6330  154.0907 C   0  0  0  0  0  0  0  0  0  0  0  0
  145.6707  136.7247  154.7795 C   0  0  0  0  0  0  0  0  0  0  0  0
  145.5669  137.8785  154.0109 N   0  0  0  0  0  0  0  0  0  0  0  0
  144.9403  137.4920  152.9337 C   0  0  0  0  0  0  0  0  0  0  0  0
  144.5956  136.1600  152.9023 N   0  0  0  0  0  0  0  0  0  0  0  0
  143.8978  135.4638  151.8323 C   0  0  0  0  0  0  0  0  0  0  0  0
  144.8361  134.8405  150.7680 C   0  0  2  0  0  0  0  0  0  0  0  0
  145.3931  135.8761  149.9790 O   0  0  0  0  0  0  0  0  0  0  0  0
  144.1562  133.8220  149.8517 C   0  0  0  0  0  0  0  0  0  0  0  0
  144.4773  132.4985  150.5288 C   0  0  0  0  0  0  0  0  0  0  0  0
  145.8232  132.6847  150.9304 O   0  0  0  0  0  0  0  0  0  0  0  0
  145.9626  134.0137  151.4218 C   0  0  0  0  0  0  0  0  0  0  0  0
  146.3259  137.4364  158.2345 C   0  0  1  0  0  0  0  0  0  0  0  0
  144.8945  138.0049  158.2764 C   0  0  0  0  0  0  0  0  0  0  0  0
  146.4367  136.1423  159.0704 C   0  0  0  0  0  0  0  0  0  0  0  0
  146.3472  136.4874  160.8825 S   0  0  0  0  0  0  0  0  0  0  0  0
  147.6185  137.0779  161.3273 O   0  0  0  0  0  0  0  0  0  0  0  0
  145.0914  137.2015  161.1587 O   0  0  0  0  0  0  0  0  0  0  0  0
  146.2201  134.7906  161.5863 C   0  0  0  0  0  0  0  0  0  0  0  0
  147.3334  134.5373  162.6071 C   0  0  0  0  0  0  0  0  0  0  0  0
  148.4128  140.3703  156.6022 H   0  0  0  0  0  0  0  0  0  0  0  0
  149.1420  138.9408  157.3155 H   0  0  0  0  0  0  0  0  0  0  0  0
  147.7075  139.6590  158.0499 H   0  0  0  0  0  0  0  0  0  0  0  0
  146.3923  139.1307  155.9668 H   0  0  0  0  0  0  0  0  0  0  0  0
  147.7768  138.3376  155.2718 H   0  0  0  0  0  0  0  0  0  0  0  0
  145.5310  133.2124  156.1505 H   0  0  0  0  0  0  0  0  0  0  0  0
  144.7067  138.1734  152.1284 H   0  0  0  0  0  0  0  0  0  0  0  0
  143.2746  134.6902  152.2829 H   0  0  0  0  0  0  0  0  0  0  0  0
  143.2112  136.1676  151.3605 H   0  0  0  0  0  0  0  0  0  0  0  0
  145.8432  135.4843  149.2462 H   0  0  0  0  0  0  0  0  0  0  0  0
  143.0876  133.9766  149.7100 H   0  0  0  0  0  0  0  0  0  0  0  0
  144.6167  133.8262  148.8624 H   0  0  0  0  0  0  0  0  0  0  0  0
  143.8447  132.3396  151.4036 H   0  0  0  0  0  0  0  0  0  0  0  0
  144.3701  131.6438  149.8606 H   0  0  0  0  0  0  0  0  0  0  0  0
  146.9597  134.3895  151.1890 H   0  0  0  0  0  0  0  0  0  0  0  0
  145.8672  133.9977  152.5083 H   0  0  0  0  0  0  0  0  0  0  0  0
  146.9538  138.1746  158.7348 H   0  0  0  0  0  0  0  0  0  0  0  0
  144.5866  138.2053  159.3028 H   0  0  0  0  0  0  0  0  0  0  0  0
  144.1713  137.3086  157.8520 H   0  0  0  0  0  0  0  0  0  0  0  0
  144.8192  138.9445  157.7292 H   0  0  0  0  0  0  0  0  0  0  0  0
  145.6001  135.4823  158.8412 H   0  0  0  0  0  0  0  0  0  0  0  0
  147.3434  135.5785  158.8551 H   0  0  0  0  0  0  0  0  0  0  0  0
  145.2394  134.6849  162.0505 H   0  0  0  0  0  0  0  0  0  0  0  0
  146.2807  134.0750  160.7660 H   0  0  0  0  0  0  0  0  0  0  0  0
  147.2574  133.5332  163.0247 H   0  0  0  0  0  0  0  0  0  0  0  0
  147.2784  135.2474  163.4326 H   0  0  0  0  0  0  0  0  0  0  0  0
  148.3170  134.6342  162.1471 H   0  0  0  0  0  0  0  0  0  0  0  0
  1  2  1  0  0  0  0
  1 28  1  0  0  0  0
  1 29  1  0  0  0  0
  1 30  1  0  0  0  0
  2  3  1  0  0  0  0
  2 31  1  0  0  0  0
  2 32  1  0  0  0  0
  3  4  1  0  0  0  0
  3 20  1  0  0  0  0
  4  9  1  0  0  0  0
  4  5  2  0  0  0  0
  5  6  1  0  0  0  0
  6  7  2  0  0  0  0
  6 33  1  0  0  0  0
  7  8  1  0  0  0  0
  8 12  1  0  0  0  0
  8  9  2  0  0  0  0
  9 10  1  0  0  0  0
 10 11  2  0  0  0  0
 11 12  1  0  0  0  0
 11 34  1  0  0  0  0
 12 13  1  0  0  0  0
 13 14  1  0  0  0  0
 13 35  1  0  0  0  0
 13 36  1  0  0  0  0
 14 19  1  0  0  0  0
 14 15  1  0  0  0  0
 14 16  1  0  0  0  0
 15 37  1  0  0  0  0
 16 17  1  0  0  0  0
 16 38  1  0  0  0  0
 16 39  1  0  0  0  0
 17 18  1  0  0  0  0
 17 40  1  0  0  0  0
 17 41  1  0  0  0  0
 18 19  1  0  0  0  0
 19 42  1  0  0  0  0
 19 43  1  0  0  0  0
 20 21  1  0  0  0  0
 20 22  1  0  0  0  0
 20 44  1  0  0  0  0
 21 45  1  0  0  0  0
 21 46  1  0  0  0  0
 21 47  1  0  0  0  0
 22 23  1  0  0  0  0
 22 48  1  0  0  0  0
 22 49  1  0  0  0  0
 23 24  2  0  0  0  0
 23 25  2  0  0  0  0
 23 26  1  0  0  0  0
 26 27  1  0  0  0  0
 26 50  1  0  0  0  0
 26 51  1  0  0  0  0
 27 52  1  0  0  0  0
 27 53  1  0  0  0  0
 27 54  1  0  0  0  0
M  END
> <s_m_source_file>
AV-unprocessed.smi

> <i_m_source_file_index>
89

> <i_lp_mmshare_version>
43012

> <i_f3d_flags>
0

> <s_epik_input>
W0NIM11bQ0gyXVMoPU8pKD1PKVtDSDJdW0NAQEhdKFtDSDNdKU4oW0NIMl1bQ0gzXSljKG5bY0hdbjEpYyhjMTIpbltjSF1uMltDSDJdW0NAQF0zKFtPSF0pW0NIMl1bQ0gyXU9bQ0gyXTM=

> <s_epik_cmdline>
J2VwaWtfcHl0aG9uJywgJy1waCcsICc3LjAnLCAnLXRuJywgJzgnLCAnLW1hJywgJzIwMCcsICctbWV0YWxfYmluZGluZycsICctaW1hZScsICc8aW5maWxlLm1hZT4nLCAnLW9tYWUnLCAnPG91dGZpbGUubWFlPic=

> <r_lp_tautomer_probability>
1

> <r_epik_Ionization_Penalty>
0.00103773

> <r_epik_Ionization_Penalty_Charging>
0

> <r_epik_Ionization_Penalty_Neutral>
0.00103773

> <r_epik_State_Penalty>
0.000558914

> <r_epik_Charging_Adjusted_Penalty>
0.000558914

> <i_epik_Tot_Q>
0

> <i_epik_Tot_abs_Q>
0

> <r_epik_Metal_State_Penalty>
-0

> <b_epik_Metal_Only>
0

> <s_lp_Force_Field>
OPLS_2005

> <r_lp_Energy>
26.3804

> <b_lp_Chiralities_Consistent>
1

> <s_lp_Variant>
AV-unprocessed.smi:89-4

> <Gold.Version>
5.8.1

> <Gold.Id.Protein>
6NUR|6NUR_protein|mol2

> <Gold.PLP.Fitness>
41.0125

> <Gold.PLP.PLP>
-28.1822

> <Gold.PLP.part.hbond>
-4.0000

> <Gold.PLP.part.metal>
0.0000

> <Gold.PLP.part.buried>
-4.7527

> <Gold.PLP.part.nonpolar>
-19.3576

> <Gold.PLP.part.repulsive>
0.3578

> <Gold.PLP.ligand.clash>
0.0000

> <Gold.PLP.ligand.torsion>
1.3111

> <Gold.PLP.Chemscore.Hbond>
2.8560

> <Gold.PLP.Chemscore.CHOScore>
1.9298

> <Gold.PLP.Chemscore.Metal>
0.0000

> <Gold.Chemscore.Hbonds>
donor molecule, donor type, donor heavy atom, donor atom, acceptor molecule, acceptor atom, score
      L1  H    15    37       P1  7921  1.00
      P1  H  6931  6943       L1    24  1.00
      P1  H  6934  6947       L1    24  0.84
      L1  C    11    34       P1 10171  1.00
      L1  C    11    34       P1 10175  0.89

> <Gold.PLP.Chemscore.Internal.Correction>
1.0949

> <Gold.Rescore>
     Score         DG    S(hbond)    S(metal)    S(lipo)     H(rot)  DE(clash)    DE(int)     intcor
      7.68     -11.59       2.63        0.00      52.77       3.45       0.00       3.91       ----

> <Gold.Chemscore.Fitness>
7.6780

> <Gold.Chemscore.DG>
-11.5896

> <Gold.Chemscore.ZeroCoef>
-5.4800

> <Gold.Chemscore.Hbond>
2.6269

> <Gold.Chemscore.Metal>
0.0000

> <Gold.Chemscore.Lipo>
52.7687

> <Gold.Chemscore.Internal_Hbond>
0.0000

> <Gold.Chemscore.DEClash>
0.0004

> <Gold.Chemscore.DEInternal>
3.9112

> <Gold.Chemscore.Rot>
3.4524

> <Gold.Chemscore.Internal.Correction>
   9.000000E+99

> <Gold.Chemscore.Hbonds>
donor molecule, donor type, donor heavy atom, donor atom, acceptor molecule, acceptor atom, score
      L1  H    15    37       P1  7921  0.99
      P1  H  6931  6943       L1    24  0.94
      P1  H  6934  6947       L1    24  0.17

> <Gold.Chemscore.Hbond.Weighted>
-8.7739

> <Gold.Chemscore.Metal.Weighted>
-0.0000

> <Gold.Chemscore.Lipo.Weighted>
-6.1739

> <Gold.Chemscore.Internal_Hbond.Weighted>
0.0000

> <Gold.Chemscore.DEClash.Weighted>
0.0004

> <Gold.Chemscore.DEInternal.Weighted>
3.9112

> <Gold.Chemscore.Rot.Weighted>
8.8382

> <Gold.Chemscore.Internal.Correction.Weighted>
   9.000000E+99

> <Gold.Protein.RotatedTorsions>
[ 6907 6896 6895 6894 ] final  -11.83 input  -60.11 | X-H torsion
[ 7974 7965 7964 7962 ] final  -39.10 input  175.53 | X-H torsion
[ 8008 7997 7996 7995 ] final -113.74 input   59.86 | X-H torsion
[ 10167 10162 10161 10158 ] final   11.53 input  -65.29 | X-H torsion
[ 10718 10713 10712 10709 ] final  139.89 input   66.30 | X-H torsion
[ 10763 10752 10751 10750 ] final  -67.74 input  -60.55 | X-H torsion
[ 11005 11000 10999 10996 ] final -170.66 input  -57.11 | X-H torsion

> <Gold.Protein.ActiveResidues>
 VAL166  LYS551  ARG553  GLY616  TRP617  ASP618  TYR619  PRO620  LYS621  CYS622 
 ASP623  PHE694  ASN695  SER759  ASP760  ASP761  ALA762  ILE779  LEU786  VAL792 
 PHE793  MET794  SER795  GLU796  ALA797  LYS798  CYS799  TRP800  GLU811  SER814 

> <Gold.Protein.RotatedAtoms>
  151.3801  135.0938  159.9492 H   0  0  0  0  0  0  0  0  0  0  0  0  # atno 6907 bound_to 6896
  152.5111  133.9080  159.7484 H   0  0  0  0  0  0  0  0  0  0  0  0  # atno 6908 bound_to 6896
  150.9512  133.6492  159.2800 H   0  0  0  0  0  0  0  0  0  0  0  0  # atno 6909 bound_to 6896
  146.0427  140.6587  142.9079 H   0  0  0  0  0  0  0  0  0  0  0  0  # atno 7974 bound_to 7965
  155.0255  140.0393  157.2454 H   0  0  0  0  0  0  0  0  0  0  0  0  # atno 8008 bound_to 7997
  154.7341  140.2736  155.6407 H   0  0  0  0  0  0  0  0  0  0  0  0  # atno 8009 bound_to 7997
  156.2849  140.2678  156.2050 H   0  0  0  0  0  0  0  0  0  0  0  0  # atno 8010 bound_to 7997
  140.6126  143.8375  150.7082 H   0  0  0  0  0  0  0  0  0  0  0  0  # atno 10167 bound_to 10162
  157.4094  131.1026  151.0470 H   0  0  0  0  0  0  0  0  0  0  0  0  # atno 10718 bound_to 10713
  154.3789  135.6078  153.5780 H   0  0  0  0  0  0  0  0  0  0  0  0  # atno 10763 bound_to 10752
  152.9788  135.5856  154.4434 H   0  0  0  0  0  0  0  0  0  0  0  0  # atno 10764 bound_to 10752
  154.4200  135.2845  155.1959 H   0  0  0  0  0  0  0  0  0  0  0  0  # atno 10765 bound_to 10752
  140.5170  134.5746  157.5036 H   0  0  0  0  0  0  0  0  0  0  0  0  # atno 11005 bound_to 11000
  144.7082  140.3938  143.7101 LP  0  0  0  0  0  0  0  0  0  0  0  0  # atno 17320 bound_to 7965
  145.6857  139.1628  143.2675 LP  0  0  0  0  0  0  0  0  0  0  0  0  # atno 17321 bound_to 7965
  140.1947  143.4007  152.1837 LP  0  0  0  0  0  0  0  0  0  0  0  0  # atno 17342 bound_to 10162
  139.5373  144.7222  151.4850 LP  0  0  0  0  0  0  0  0  0  0  0  0  # atno 17343 bound_to 10162
  157.1440  130.6155  149.5563 LP  0  0  0  0  0  0  0  0  0  0  0  0  # atno 17370 bound_to 10713
  155.9846  130.4872  150.6991 LP  0  0  0  0  0  0  0  0  0  0  0  0  # atno 17371 bound_to 10713
  139.9627  134.7425  156.0203 LP  0  0  0  0  0  0  0  0  0  0  0  0  # atno 17394 bound_to 11000
  141.1355  133.6576  156.3581 LP  0  0  0  0  0  0  0  0  0  0  0  0  # atno 17395 bound_to 11000

$$$$
