AV-unprocessed.smi:1240|AV-procd|sdf|5196|dock1
  -GOLD-   22720 4283D 1   1.00000     0.00000
 Structure written by MMmdl.
 47 49  0  0  0  0  0  0  0  0  1 V2000
  144.6059  136.2814  153.1850 O   0  0  0  0  0  0  0  0  0  0  0  0
  145.7887  136.2810  152.8451 C   0  0  0  0  0  0  0  0  0  0  0  0
  146.6673  137.2212  153.2209 N   0  0  0  0  0  0  0  0  0  0  0  0
  146.3724  138.3712  154.0718 C   0  0  0  0  0  0  0  0  0  0  0  0
  147.4721  138.5839  155.1464 C   0  0  1  0  0  0  0  0  0  0  0  0
  147.9975  140.0539  155.1766 C   0  0  2  0  0  0  0  0  0  0  0  0
  146.9438  141.1646  155.1232 C   0  0  0  0  0  0  0  0  0  0  0  0
  147.4355  142.0853  154.0075 C   0  0  0  0  0  0  0  0  0  0  0  0
  148.8350  141.8613  153.9681 O   0  0  0  0  0  0  0  0  0  0  0  0
  149.0342  140.4647  154.1169 C   0  0  0  0  0  0  0  0  0  0  0  0
  147.1735  137.9924  156.4674 N   0  0  0  0  0  0  0  0  0  0  0  0
  146.0627  138.6461  157.1568 C   0  0  0  0  0  0  0  0  0  0  0  0
  145.6862  137.9138  158.4549 C   0  0  0  0  0  0  0  0  0  0  0  0
  146.8287  137.8392  159.3006 O   0  0  0  0  0  0  0  0  0  0  0  0
  147.9187  137.1588  158.6878 C   0  0  0  0  0  0  0  0  0  0  0  0
  148.3110  137.8616  157.3760 C   0  0  0  0  0  0  0  0  0  0  0  0
  146.3704  135.3715  152.0438 N   0  0  0  0  0  0  0  0  0  0  0  0
  145.8013  134.2187  151.4362 C   0  0  0  0  0  0  0  0  0  0  0  0
  144.3978  134.1760  151.3045 C   0  0  0  0  0  0  0  0  0  0  0  0
  143.8056  133.0534  150.6925 C   0  0  0  0  0  0  0  0  0  0  0  0
  144.5145  132.0098  150.2136 N   0  0  0  0  0  0  0  0  0  0  0  0
  145.8584  132.0570  150.3291 C   0  0  0  0  0  0  0  0  0  0  0  0
  146.5500  133.1315  150.9234 C   0  0  0  0  0  0  0  0  0  0  0  0
  147.6170  137.1399  152.8882 H   0  0  0  0  0  0  0  0  0  0  0  0
  146.2444  139.2779  153.4794 H   0  0  0  0  0  0  0  0  0  0  0  0
  145.4064  138.1716  154.5328 H   0  0  0  0  0  0  0  0  0  0  0  0
  148.3331  138.0224  154.7800 H   0  0  0  0  0  0  0  0  0  0  0  0
  148.5034  140.1800  156.1353 H   0  0  0  0  0  0  0  0  0  0  0  0
  145.9269  140.8224  154.9347 H   0  0  0  0  0  0  0  0  0  0  0  0
  146.9287  141.7024  156.0720 H   0  0  0  0  0  0  0  0  0  0  0  0
  146.9971  141.8013  153.0497 H   0  0  0  0  0  0  0  0  0  0  0  0
  147.2005  143.1335  154.1931 H   0  0  0  0  0  0  0  0  0  0  0  0
  150.0562  140.2552  154.4325 H   0  0  0  0  0  0  0  0  0  0  0  0
  148.8839  139.9744  153.1574 H   0  0  0  0  0  0  0  0  0  0  0  0
  146.3233  139.6742  157.4067 H   0  0  0  0  0  0  0  0  0  0  0  0
  145.1913  138.6905  156.5028 H   0  0  0  0  0  0  0  0  0  0  0  0
  144.8911  138.4483  158.9754 H   0  0  0  0  0  0  0  0  0  0  0  0
  145.3134  136.9108  158.2416 H   0  0  0  0  0  0  0  0  0  0  0  0
  148.7633  137.1447  159.3768 H   0  0  0  0  0  0  0  0  0  0  0  0
  147.6441  136.1199  158.4982 H   0  0  0  0  0  0  0  0  0  0  0  0
  149.0994  137.2732  156.9145 H   0  0  0  0  0  0  0  0  0  0  0  0
  148.7275  138.8434  157.6031 H   0  0  0  0  0  0  0  0  0  0  0  0
  147.3333  135.5516  151.8008 H   0  0  0  0  0  0  0  0  0  0  0  0
  143.7806  134.9847  151.6684 H   0  0  0  0  0  0  0  0  0  0  0  0
  142.7328  132.9937  150.5834 H   0  0  0  0  0  0  0  0  0  0  0  0
  146.4018  131.2137  149.9292 H   0  0  0  0  0  0  0  0  0  0  0  0
  147.6276  133.1015  150.9609 H   0  0  0  0  0  0  0  0  0  0  0  0
  1  2  2  0  0  0  0
  2  3  1  0  0  0  0
  2 17  1  0  0  0  0
  3  4  1  0  0  0  0
  3 24  1  0  0  0  0
  4  5  1  0  0  0  0
  4 25  1  0  0  0  0
  4 26  1  0  0  0  0
  5  6  1  0  0  0  0
  5 11  1  0  0  0  0
  5 27  1  0  0  0  0
  6 10  1  0  0  0  0
  6  7  1  0  0  0  0
  6 28  1  0  0  0  0
  7  8  1  0  0  0  0
  7 29  1  0  0  0  0
  7 30  1  0  0  0  0
  8  9  1  0  0  0  0
  8 31  1  0  0  0  0
  8 32  1  0  0  0  0
  9 10  1  0  0  0  0
 10 33  1  0  0  0  0
 10 34  1  0  0  0  0
 11 16  1  0  0  0  0
 11 12  1  0  0  0  0
 12 13  1  0  0  0  0
 12 35  1  0  0  0  0
 12 36  1  0  0  0  0
 13 14  1  0  0  0  0
 13 37  1  0  0  0  0
 13 38  1  0  0  0  0
 14 15  1  0  0  0  0
 15 16  1  0  0  0  0
 15 39  1  0  0  0  0
 15 40  1  0  0  0  0
 16 41  1  0  0  0  0
 16 42  1  0  0  0  0
 17 18  1  0  0  0  0
 17 43  1  0  0  0  0
 18 23  1  0  0  0  0
 18 19  2  0  0  0  0
 19 20  1  0  0  0  0
 19 44  1  0  0  0  0
 20 21  2  0  0  0  0
 20 45  1  0  0  0  0
 21 22  1  0  0  0  0
 22 23  2  0  0  0  0
 22 46  1  0  0  0  0
 23 47  1  0  0  0  0
M  END
> <s_m_source_file>
AV-unprocessed.smi

> <i_m_source_file_index>
1240

> <i_lp_mmshare_version>
43012

> <i_f3d_flags>
0

> <s_epik_input>
W2NIXTFbY0hdbltjSF1bY0hdYzFbTkhdQyg9TylbTkhdW0NIMl1bQ0BIXShbQ0BASF0yW0NIMl1bQ0gyXU9bQ0gyXTIpTjNbQ0gyXVtDSDJdT1tDSDJdW0NIMl0z

> <s_epik_cmdline>
J2VwaWtfcHl0aG9uJywgJy1waCcsICc3LjAnLCAnLXRuJywgJzgnLCAnLW1hJywgJzIwMCcsICctbWV0YWxfYmluZGluZycsICctaW1hZScsICc8aW5maWxlLm1hZT4nLCAnLW9tYWUnLCAnPG91dGZpbGUubWFlPic=

> <r_epik_Ionization_Penalty>
0.238664

> <r_epik_Ionization_Penalty_Charging>
0

> <r_epik_Ionization_Penalty_Neutral>
0.238664

> <r_epik_State_Penalty>
0.217087

> <r_epik_Charging_Adjusted_Penalty>
0.217087

> <i_epik_Tot_Q>
0

> <i_epik_Tot_abs_Q>
0

> <r_epik_Metal_State_Penalty>
0.199194

> <b_epik_Metal_Only>
0

> <s_lp_Force_Field>
OPLS_2005

> <r_lp_Energy>
59.2824

> <b_lp_Chiralities_Consistent>
1

> <s_lp_Variant>
AV-unprocessed.smi:1240-2

> <Gold.Version>
5.8.1

> <Gold.Id.Protein>
6NUR|6NUR_protein|mol2

> <Gold.PLP.Fitness>
41.9315

> <Gold.PLP.PLP>
-29.0645

> <Gold.PLP.part.hbond>
-4.0000

> <Gold.PLP.part.metal>
0.0000

> <Gold.PLP.part.buried>
-5.9159

> <Gold.PLP.part.nonpolar>
-20.4135

> <Gold.PLP.part.repulsive>
0.4834

> <Gold.PLP.ligand.clash>
0.0000

> <Gold.PLP.ligand.torsion>
1.4285

> <Gold.PLP.Chemscore.Hbond>
3.1747

> <Gold.PLP.Chemscore.CHOScore>
1.9059

> <Gold.PLP.Chemscore.Metal>
0.0000

> <Gold.Chemscore.Hbonds>
donor molecule, donor type, donor heavy atom, donor atom, acceptor molecule, acceptor atom, score
      L1  H     3    24       P1  7948  1.00
      L1  H    17    43       P1  7948  1.00
      P1  H  6934  6947       L1    14  0.72
      P1  H  8011  8017       L1     9  0.50
      L1  C    20    45       P1 10186  1.00
      L1  C    22    46       P1 10747  0.72

> <Gold.PLP.Chemscore.Internal.Correction>
0.4822

> <Gold.Rescore>
     Score         DG    S(hbond)    S(metal)    S(lipo)     H(rot)  DE(clash)    DE(int)     intcor
     16.20     -19.20       3.13        0.00      64.06       1.65       0.09       2.91       ----

> <Gold.Chemscore.Fitness>
16.2000

> <Gold.Chemscore.DG>
-19.2005

> <Gold.Chemscore.ZeroCoef>
-5.4800

> <Gold.Chemscore.Hbond>
3.1291

> <Gold.Chemscore.Metal>
0.0000

> <Gold.Chemscore.Lipo>
64.0632

> <Gold.Chemscore.Internal_Hbond>
0.0000

> <Gold.Chemscore.DEClash>
0.0901

> <Gold.Chemscore.DEInternal>
2.9104

> <Gold.Chemscore.Rot>
1.6508

> <Gold.Chemscore.Internal.Correction>
   9.000000E+99

> <Gold.Chemscore.Hbonds>
donor molecule, donor type, donor heavy atom, donor atom, acceptor molecule, acceptor atom, score
      L1  H     3    24       P1  7948  0.95
      L1  H    17    43       P1  7948  1.00
      P1  H  6934  6947       L1    14  0.66
      P1  H  8011  8017       L1     9  0.30

> <Gold.Chemscore.Hbond.Weighted>
-10.4513

> <Gold.Chemscore.Metal.Weighted>
-0.0000

> <Gold.Chemscore.Lipo.Weighted>
-7.4954

> <Gold.Chemscore.Internal_Hbond.Weighted>
0.0000

> <Gold.Chemscore.DEClash.Weighted>
0.0901

> <Gold.Chemscore.DEInternal.Weighted>
2.9104

> <Gold.Chemscore.Rot.Weighted>
4.2262

> <Gold.Chemscore.Internal.Correction.Weighted>
   9.000000E+99

> <Gold.Protein.RotatedTorsions>
[ 6907 6896 6895 6894 ] final -113.10 input  -60.11 | X-H torsion
[ 7974 7965 7964 7962 ] final   20.41 input  175.53 | X-H torsion
[ 8008 7997 7996 7995 ] final  136.24 input   59.86 | X-H torsion
[ 10167 10162 10161 10158 ] final  -80.15 input  -65.29 | X-H torsion
[ 10718 10713 10712 10709 ] final    3.99 input   66.30 | X-H torsion
[ 10763 10752 10751 10750 ] final  156.62 input  -60.55 | X-H torsion
[ 11005 11000 10999 10996 ] final -141.09 input  -57.11 | X-H torsion

> <Gold.Protein.ActiveResidues>
 VAL166  LYS551  ARG553  GLY616  TRP617  ASP618  TYR619  PRO620  LYS621  CYS622 
 ASP623  PHE694  ASN695  SER759  ASP760  ASP761  ALA762  ILE779  LEU786  VAL792 
 PHE793  MET794  SER795  GLU796  ALA797  LYS798  CYS799  TRP800  GLU811  SER814 

> <Gold.Protein.RotatedAtoms>
  150.7805  133.8993  159.3336 H   0  0  0  0  0  0  0  0  0  0  0  0  # atno 6907 bound_to 6896
  151.6857  135.0953  160.0234 H   0  0  0  0  0  0  0  0  0  0  0  0  # atno 6908 bound_to 6896
  152.3855  133.6566  159.6230 H   0  0  0  0  0  0  0  0  0  0  0  0  # atno 6909 bound_to 6896
  146.2112  139.8174  142.8687 H   0  0  0  0  0  0  0  0  0  0  0  0  # atno 7974 bound_to 7965
  156.3004  140.2450  156.3713 H   0  0  0  0  0  0  0  0  0  0  0  0  # atno 8008 bound_to 7997
  154.8786  140.0413  157.1788 H   0  0  0  0  0  0  0  0  0  0  0  0  # atno 8009 bound_to 7997
  154.8720  140.2936  155.5479 H   0  0  0  0  0  0  0  0  0  0  0  0  # atno 8010 bound_to 7997
  140.4529  143.2477  151.8462 H   0  0  0  0  0  0  0  0  0  0  0  0  # atno 10167 bound_to 10162
  156.8859  130.5670  149.5651 H   0  0  0  0  0  0  0  0  0  0  0  0  # atno 10718 bound_to 10713
  154.1872  135.2796  155.3033 H   0  0  0  0  0  0  0  0  0  0  0  0  # atno 10763 bound_to 10752
  154.5957  135.5545  153.7327 H   0  0  0  0  0  0  0  0  0  0  0  0  # atno 10764 bound_to 10752
  153.0122  135.6379  154.2010 H   0  0  0  0  0  0  0  0  0  0  0  0  # atno 10765 bound_to 10752
  140.8358  134.2461  157.4834 H   0  0  0  0  0  0  0  0  0  0  0  0  # atno 11005 bound_to 11000
  145.3132  141.0225  143.3543 LP  0  0  0  0  0  0  0  0  0  0  0  0  # atno 17320 bound_to 7965
  144.8921  139.4761  143.6673 LP  0  0  0  0  0  0  0  0  0  0  0  0  # atno 17321 bound_to 7965
  139.4798  144.5098  151.8948 LP  0  0  0  0  0  0  0  0  0  0  0  0  # atno 17342 bound_to 10162
  140.4185  144.2275  150.5887 LP  0  0  0  0  0  0  0  0  0  0  0  0  # atno 17343 bound_to 10162
  156.0653  130.5698  150.9276 LP  0  0  0  0  0  0  0  0  0  0  0  0  # atno 17370 bound_to 10713
  157.6112  131.0936  150.8791 LP  0  0  0  0  0  0  0  0  0  0  0  0  # atno 17371 bound_to 10713
  139.8704  134.9610  156.4382 LP  0  0  0  0  0  0  0  0  0  0  0  0  # atno 17394 bound_to 11000
  140.8949  133.7821  155.9613 LP  0  0  0  0  0  0  0  0  0  0  0  0  # atno 17395 bound_to 11000

$$$$
