AV-unprocessed.smi:2466|AV-procd|sdf|9724|dock9
  -GOLD-   2272013363D 1   1.00000     0.00000
 Structure written by MMmdl.
 36 37  0  0  0  0  0  0  0  0  1 V2000
  149.5412  134.0364  156.9918 C   0  0  0  0  0  0  0  0  0  0  0  0
  150.5160  133.0103  157.1410 O   0  0  0  0  0  0  0  0  0  0  0  0
  150.6102  132.0524  156.1527 C   0  0  0  0  0  0  0  0  0  0  0  0
  149.6486  132.0267  155.1220 C   0  0  0  0  0  0  0  0  0  0  0  0
  149.7832  131.0319  154.1276 C   0  0  0  0  0  0  0  0  0  0  0  0
  148.7975  131.0453  153.1055 N   0  0  0  0  0  0  0  0  0  0  0  0
  147.4776  131.2700  153.2291 C   0  0  0  0  0  0  0  0  0  0  0  0
  146.8961  131.5295  154.2830 O   0  0  0  0  0  0  0  0  0  0  0  0
  146.8582  131.1787  152.0428 N   0  0  0  0  0  0  0  0  0  0  0  0
  145.4253  131.3513  151.8131 C   0  0  0  0  0  0  0  0  0  0  0  0
  145.1274  132.4229  150.7523 C   0  0  0  0  0  0  0  0  0  0  0  0
  145.8416  133.7213  151.1568 C   0  0  0  0  0  0  0  0  0  0  0  0
  145.3242  131.9940  149.2821 C   0  0  0  0  0  0  0  0  0  0  0  0
  144.0379  132.7306  148.9132 C   0  0  0  0  0  0  0  0  0  0  0  0
  143.6383  132.5948  150.3817 C   0  0  0  0  0  0  0  0  0  0  0  0
  150.8083  130.1466  154.1909 N   0  0  0  0  0  0  0  0  0  0  0  0
  151.6655  130.2539  155.2078 C   0  0  0  0  0  0  0  0  0  0  0  0
  151.6249  131.1551  156.1899 N   0  0  0  0  0  0  0  0  0  0  0  0
  149.5919  134.7098  157.8474 H   0  0  0  0  0  0  0  0  0  0  0  0
  148.5317  133.6244  156.9548 H   0  0  0  0  0  0  0  0  0  0  0  0
  149.7193  134.6288  156.0932 H   0  0  0  0  0  0  0  0  0  0  0  0
  148.8429  132.7461  155.0991 H   0  0  0  0  0  0  0  0  0  0  0  0
  149.1344  130.8492  152.1748 H   0  0  0  0  0  0  0  0  0  0  0  0
  147.4203  130.9675  151.2312 H   0  0  0  0  0  0  0  0  0  0  0  0
  145.0404  130.3843  151.4879 H   0  0  0  0  0  0  0  0  0  0  0  0
  144.8983  131.5721  152.7429 H   0  0  0  0  0  0  0  0  0  0  0  0
  145.5547  134.5567  150.5179 H   0  0  0  0  0  0  0  0  0  0  0  0
  146.9252  133.6277  151.0835 H   0  0  0  0  0  0  0  0  0  0  0  0
  145.6039  134.0077  152.1818 H   0  0  0  0  0  0  0  0  0  0  0  0
  146.2238  132.3871  148.8072 H   0  0  0  0  0  0  0  0  0  0  0  0
  145.2408  130.9153  149.1364 H   0  0  0  0  0  0  0  0  0  0  0  0
  144.2092  133.7644  148.6100 H   0  0  0  0  0  0  0  0  0  0  0  0
  143.3921  132.2014  148.2119 H   0  0  0  0  0  0  0  0  0  0  0  0
  143.0429  131.6988  150.5666 H   0  0  0  0  0  0  0  0  0  0  0  0
  143.1592  133.4786  150.8042 H   0  0  0  0  0  0  0  0  0  0  0  0
  152.4746  129.5392  155.2379 H   0  0  0  0  0  0  0  0  0  0  0  0
  1  2  1  0  0  0  0
  1 19  1  0  0  0  0
  1 20  1  0  0  0  0
  1 21  1  0  0  0  0
  2  3  1  0  0  0  0
  3 18  1  0  0  0  0
  3  4  2  0  0  0  0
  4  5  1  0  0  0  0
  4 22  1  0  0  0  0
  5  6  1  0  0  0  0
  5 16  2  0  0  0  0
  6  7  1  0  0  0  0
  6 23  1  0  0  0  0
  7  8  2  0  0  0  0
  7  9  1  0  0  0  0
  9 10  1  0  0  0  0
  9 24  1  0  0  0  0
 10 11  1  0  0  0  0
 10 25  1  0  0  0  0
 10 26  1  0  0  0  0
 11 15  1  0  0  0  0
 11 12  1  0  0  0  0
 11 13  1  0  0  0  0
 12 27  1  0  0  0  0
 12 28  1  0  0  0  0
 12 29  1  0  0  0  0
 13 14  1  0  0  0  0
 13 30  1  0  0  0  0
 13 31  1  0  0  0  0
 14 15  1  0  0  0  0
 14 32  1  0  0  0  0
 14 33  1  0  0  0  0
 15 34  1  0  0  0  0
 15 35  1  0  0  0  0
 16 17  1  0  0  0  0
 17 18  2  0  0  0  0
 17 36  1  0  0  0  0
M  END
> <s_m_source_file>
AV-unprocessed.smi

> <i_m_source_file_index>
2466

> <i_lp_mmshare_version>
43012

> <i_f3d_flags>
0

> <s_epik_input>
W0NIM11PYzFbY0hdYyhuW2NIXW4xKVtOSF1DKD1PKVtOSF1bQ0gyXUMyKFtDSDNdKVtDSDJdW0NIMl1bQ0gyXTI=

> <s_epik_cmdline>
J2VwaWtfcHl0aG9uJywgJy1waCcsICc3LjAnLCAnLXRuJywgJzgnLCAnLW1hJywgJzIwMCcsICctbWV0YWxfYmluZGluZycsICctaW1hZScsICc8aW5maWxlLm1hZT4nLCAnLW9tYWUnLCAnPG91dGZpbGUubWFlPic=

> <r_lp_tautomer_probability>
1

> <r_epik_Ionization_Penalty>
2.72078e-05

> <r_epik_Ionization_Penalty_Charging>
0

> <r_epik_Ionization_Penalty_Neutral>
2.72078e-05

> <r_epik_State_Penalty>
-0

> <r_epik_Charging_Adjusted_Penalty>
0

> <i_epik_Tot_Q>
0

> <i_epik_Tot_abs_Q>
0

> <r_epik_Metal_State_Penalty>
-0

> <b_epik_Metal_Only>
0

> <s_lp_Force_Field>
OPLS_2005

> <r_lp_Energy>
15.1515

> <b_lp_Chiralities_Consistent>
1

> <s_lp_Variant>
AV-unprocessed.smi:2466-1

> <Gold.Version>
5.8.1

> <Gold.Id.Protein>
6NUR|6NUR_protein|mol2

> <Gold.PLP.Fitness>
39.0056

> <Gold.PLP.PLP>
-30.9137

> <Gold.PLP.part.hbond>
-3.0000

> <Gold.PLP.part.metal>
0.0000

> <Gold.PLP.part.buried>
-2.5063

> <Gold.PLP.part.nonpolar>
-24.3276

> <Gold.PLP.part.repulsive>
0.2103

> <Gold.PLP.ligand.clash>
0.1060

> <Gold.PLP.ligand.torsion>
0.4625

> <Gold.PLP.Chemscore.Hbond>
3.0000

> <Gold.PLP.Chemscore.CHOScore>
0.0000

> <Gold.PLP.Chemscore.Metal>
0.0000

> <Gold.Chemscore.Hbonds>
donor molecule, donor type, donor heavy atom, donor atom, acceptor molecule, acceptor atom, score
      L1  H     6    23       P1 10747  0.95
      L1  H     9    24       P1 10747  1.00
      P1  H  6896  6907       L1     2  0.48

> <Gold.PLP.Chemscore.Internal.Correction>
0.1229

> <Gold.Rescore>
     Score         DG    S(hbond)    S(metal)    S(lipo)     H(rot)  DE(clash)    DE(int)     intcor
     14.47     -16.34       2.14        0.00      67.18       1.62       0.11       1.77       ----

> <Gold.Chemscore.Fitness>
14.4650

> <Gold.Chemscore.DG>
-16.3446

> <Gold.Chemscore.ZeroCoef>
-5.4800

> <Gold.Chemscore.Hbond>
2.1419

> <Gold.Chemscore.Metal>
0.0000

> <Gold.Chemscore.Lipo>
67.1762

> <Gold.Chemscore.Internal_Hbond>
0.0000

> <Gold.Chemscore.DEClash>
0.1110

> <Gold.Chemscore.DEInternal>
1.7685

> <Gold.Chemscore.Rot>
1.6207

> <Gold.Chemscore.Internal.Correction>
   9.000000E+99

> <Gold.Chemscore.Hbonds>
donor molecule, donor type, donor heavy atom, donor atom, acceptor molecule, acceptor atom, score
      L1  H     6    23       P1 10747  0.21
      L1  H     9    24       P1 10747  0.98
      P1  H  6896  6907       L1     2  0.07

> <Gold.Chemscore.Hbond.Weighted>
-7.1540

> <Gold.Chemscore.Metal.Weighted>
-0.0000

> <Gold.Chemscore.Lipo.Weighted>
-7.8596

> <Gold.Chemscore.Internal_Hbond.Weighted>
0.0000

> <Gold.Chemscore.DEClash.Weighted>
0.1110

> <Gold.Chemscore.DEInternal.Weighted>
1.7685

> <Gold.Chemscore.Rot.Weighted>
4.1491

> <Gold.Chemscore.Internal.Correction.Weighted>
   9.000000E+99

> <Gold.Protein.RotatedTorsions>
[ 6907 6896 6895 6894 ] final -141.70 input  -60.11 | X-H torsion
[ 7974 7965 7964 7962 ] final  125.97 input  175.53 | X-H torsion
[ 8008 7997 7996 7995 ] final  120.01 input   59.86 | X-H torsion
[ 10167 10162 10161 10158 ] final -172.51 input  -65.29 | X-H torsion
[ 10718 10713 10712 10709 ] final -122.65 input   66.30 | X-H torsion
[ 10763 10752 10751 10750 ] final   78.25 input  -60.55 | X-H torsion
[ 11005 11000 10999 10996 ] final  156.92 input  -57.11 | X-H torsion

> <Gold.Protein.ActiveResidues>
 VAL166  LYS551  ARG553  GLY616  TRP617  ASP618  TYR619  PRO620  LYS621  CYS622 
 ASP623  PHE694  ASN695  SER759  ASP760  ASP761  ALA762  ILE779  LEU786  VAL792 
 PHE793  MET794  SER795  GLU796  ALA797  LYS798  CYS799  TRP800  GLU811  SER814 

> <Gold.Protein.RotatedAtoms>
  151.0773  133.5418  159.2622 H   0  0  0  0  0  0  0  0  0  0  0  0  # atno 6907 bound_to 6896
  151.2334  135.0562  159.9006 H   0  0  0  0  0  0  0  0  0  0  0  0  # atno 6908 bound_to 6896
  152.5419  134.0559  159.8184 H   0  0  0  0  0  0  0  0  0  0  0  0  # atno 6909 bound_to 6896
  145.0670  139.3760  143.4977 H   0  0  0  0  0  0  0  0  0  0  0  0  # atno 7974 bound_to 7965
  156.2622  140.2840  156.1081 H   0  0  0  0  0  0  0  0  0  0  0  0  # atno 8008 bound_to 7997
  155.1287  140.0393  157.2786 H   0  0  0  0  0  0  0  0  0  0  0  0  # atno 8009 bound_to 7997
  154.6616  140.2568  155.7109 H   0  0  0  0  0  0  0  0  0  0  0  0  # atno 8010 bound_to 7997
  139.5740  144.1574  152.1425 H   0  0  0  0  0  0  0  0  0  0  0  0  # atno 10167 bound_to 10162
  156.1436  130.6484  150.9808 H   0  0  0  0  0  0  0  0  0  0  0  0  # atno 10718 bound_to 10713
  153.0860  135.4884  154.8597 H   0  0  0  0  0  0  0  0  0  0  0  0  # atno 10763 bound_to 10752
  154.7210  135.3039  154.9049 H   0  0  0  0  0  0  0  0  0  0  0  0  # atno 10764 bound_to 10752
  153.9713  135.6801  153.4800 H   0  0  0  0  0  0  0  0  0  0  0  0  # atno 10765 bound_to 10752
  140.1721  134.8536  157.2702 H   0  0  0  0  0  0  0  0  0  0  0  0  # atno 11005 bound_to 11000
  146.3527  140.0396  142.8644 LP  0  0  0  0  0  0  0  0  0  0  0  0  # atno 17320 bound_to 7965
  145.1339  140.9533  143.4528 LP  0  0  0  0  0  0  0  0  0  0  0  0  # atno 17321 bound_to 7965
  140.1113  144.5454  150.6923 LP  0  0  0  0  0  0  0  0  0  0  0  0  # atno 17342 bound_to 10162
  140.7024  143.2444  151.4826 LP  0  0  0  0  0  0  0  0  0  0  0  0  # atno 17343 bound_to 10162
  157.6597  131.0883  150.7867 LP  0  0  0  0  0  0  0  0  0  0  0  0  # atno 17370 bound_to 10713
  156.7940  130.4899  149.5380 LP  0  0  0  0  0  0  0  0  0  0  0  0  # atno 17371 bound_to 10713
  140.2366  134.3846  155.7498 LP  0  0  0  0  0  0  0  0  0  0  0  0  # atno 17394 bound_to 11000
  141.2218  133.7243  156.8723 LP  0  0  0  0  0  0  0  0  0  0  0  0  # atno 17395 bound_to 11000

$$$$
