AV-unprocessed.smi:228|AV-procd|sdf|1746|dock7
  -GOLD-   2262020263D 1   1.00000     0.00000
 Structure written by MMmdl.
 59 62  0  0  0  0  0  0  0  0  1 V2000
  152.0498  139.0067  154.5429 C   0  0  0  0  0  0  0  0  0  0  0  0
  150.7882  138.9340  155.2690 N   0  0  0  0  0  0  0  0  0  0  0  0
  149.8817  140.0831  155.1918 C   0  0  0  0  0  0  0  0  0  0  0  0
  150.4557  141.3456  155.8663 C   0  0  1  0  0  0  0  0  0  0  0  0
  149.5503  142.4000  155.6136 O   0  0  0  0  0  0  0  0  0  0  0  0
  150.6064  141.1991  157.3973 C   0  0  0  0  0  0  0  0  0  0  0  0
  151.6070  142.0633  158.0242 N   0  0  0  0  0  0  0  0  0  0  0  0
  151.7581  141.8026  159.4554 C   0  0  0  0  0  0  0  0  0  0  0  0
  152.7797  142.7502  160.1087 C   0  0  0  0  0  0  0  0  0  0  0  0
  152.3985  144.1020  159.8762 O   0  0  0  0  0  0  0  0  0  0  0  0
  152.2899  144.4087  158.4904 C   0  0  0  0  0  0  0  0  0  0  0  0
  151.2627  143.4691  157.8364 C   0  0  0  0  0  0  0  0  0  0  0  0
  150.6156  137.9917  156.2387 C   0  0  0  0  0  0  0  0  0  0  0  0
  151.6509  137.1515  156.5059 N   0  0  0  0  0  0  0  0  0  0  0  0
  151.5422  136.2044  157.4405 C   0  0  0  0  0  0  0  0  0  0  0  0
  150.4975  135.9167  158.2158 N   0  0  0  0  0  0  0  0  0  0  0  0
  149.4469  136.7448  157.9546 C   0  0  0  0  0  0  0  0  0  0  0  0
  149.4200  137.8036  156.9997 C   0  0  0  0  0  0  0  0  0  0  0  0
  148.1724  138.4198  157.0339 N   0  0  0  0  0  0  0  0  0  0  0  0
  147.5136  137.7779  157.9586 C   0  0  0  0  0  0  0  0  0  0  0  0
  148.1944  136.7358  158.5431 N   0  0  0  0  0  0  0  0  0  0  0  0
  147.7314  135.8883  159.6030 C   0  0  0  0  0  0  0  0  0  0  0  0
  146.3892  136.1524  160.2910 C   0  0  0  0  0  0  0  0  0  0  0  0
  146.9776  135.6915  161.6429 C   0  0  0  0  0  0  0  0  0  0  0  0
  146.6642  136.6050  162.8382 C   0  0  0  0  0  0  0  0  0  0  0  0
  146.7108  137.9695  162.4727 O   0  0  0  0  0  0  0  0  0  0  0  0
  146.6702  134.2434  162.0862 C   0  0  0  0  0  0  0  0  0  0  0  0
  145.3486  134.0675  162.5548 O   0  0  0  0  0  0  0  0  0  0  0  0
  148.3615  135.9350  160.9993 C   0  0  0  0  0  0  0  0  0  0  0  0
  152.3632  138.0185  154.2050 H   0  0  0  0  0  0  0  0  0  0  0  0
  152.8325  139.4311  155.1721 H   0  0  0  0  0  0  0  0  0  0  0  0
  151.9508  139.6391  153.6602 H   0  0  0  0  0  0  0  0  0  0  0  0
  149.7180  140.2903  154.1336 H   0  0  0  0  0  0  0  0  0  0  0  0
  148.8929  139.8573  155.5911 H   0  0  0  0  0  0  0  0  0  0  0  0
  151.4035  141.5960  155.3920 H   0  0  0  0  0  0  0  0  0  0  0  0
  148.7111  142.1691  155.9815 H   0  0  0  0  0  0  0  0  0  0  0  0
  149.6317  141.3840  157.8512 H   0  0  0  0  0  0  0  0  0  0  0  0
  150.8505  140.1662  157.6438 H   0  0  0  0  0  0  0  0  0  0  0  0
  150.7948  141.9121  159.9559 H   0  0  0  0  0  0  0  0  0  0  0  0
  152.0836  140.7776  159.6255 H   0  0  0  0  0  0  0  0  0  0  0  0
  152.8282  142.5732  161.1833 H   0  0  0  0  0  0  0  0  0  0  0  0
  153.7796  142.5741  159.7092 H   0  0  0  0  0  0  0  0  0  0  0  0
  151.9790  145.4475  158.3782 H   0  0  0  0  0  0  0  0  0  0  0  0
  153.2647  144.3111  158.0101 H   0  0  0  0  0  0  0  0  0  0  0  0
  151.1981  143.6951  156.7716 H   0  0  0  0  0  0  0  0  0  0  0  0
  150.2756  143.6677  158.2571 H   0  0  0  0  0  0  0  0  0  0  0  0
  152.4170  135.5878  157.5863 H   0  0  0  0  0  0  0  0  0  0  0  0
  146.5039  138.0467  158.2337 H   0  0  0  0  0  0  0  0  0  0  0  0
  147.7627  134.8750  159.2013 H   0  0  0  0  0  0  0  0  0  0  0  0
  146.1224  137.2107  160.2841 H   0  0  0  0  0  0  0  0  0  0  0  0
  145.5659  135.5423  159.9184 H   0  0  0  0  0  0  0  0  0  0  0  0
  145.6812  136.3850  163.2565 H   0  0  0  0  0  0  0  0  0  0  0  0
  147.3827  136.4529  163.6442 H   0  0  0  0  0  0  0  0  0  0  0  0
  146.3840  138.4856  163.1937 H   0  0  0  0  0  0  0  0  0  0  0  0
  146.8232  133.5463  161.2618 H   0  0  0  0  0  0  0  0  0  0  0  0
  147.3410  133.9306  162.8868 H   0  0  0  0  0  0  0  0  0  0  0  0
  145.1639  134.7405  163.1920 H   0  0  0  0  0  0  0  0  0  0  0  0
  149.0988  135.1533  161.1849 H   0  0  0  0  0  0  0  0  0  0  0  0
  148.7712  136.9180  161.2372 H   0  0  0  0  0  0  0  0  0  0  0  0
  1  2  1  0  0  0  0
  1 30  1  0  0  0  0
  1 31  1  0  0  0  0
  1 32  1  0  0  0  0
  2  3  1  0  0  0  0
  2 13  1  0  0  0  0
  3  4  1  0  0  0  0
  3 33  1  0  0  0  0
  3 34  1  0  0  0  0
  4  5  1  0  0  0  0
  4  6  1  0  0  0  0
  4 35  1  0  0  0  0
  5 36  1  0  0  0  0
  6  7  1  0  0  0  0
  6 37  1  0  0  0  0
  6 38  1  0  0  0  0
  7 12  1  0  0  0  0
  7  8  1  0  0  0  0
  8  9  1  0  0  0  0
  8 39  1  0  0  0  0
  8 40  1  0  0  0  0
  9 10  1  0  0  0  0
  9 41  1  0  0  0  0
  9 42  1  0  0  0  0
 10 11  1  0  0  0  0
 11 12  1  0  0  0  0
 11 43  1  0  0  0  0
 11 44  1  0  0  0  0
 12 45  1  0  0  0  0
 12 46  1  0  0  0  0
 13 18  1  0  0  0  0
 13 14  2  0  0  0  0
 14 15  1  0  0  0  0
 15 16  2  0  0  0  0
 15 47  1  0  0  0  0
 16 17  1  0  0  0  0
 17 21  1  0  0  0  0
 17 18  2  0  0  0  0
 18 19  1  0  0  0  0
 19 20  2  0  0  0  0
 20 21  1  0  0  0  0
 20 48  1  0  0  0  0
 21 22  1  0  0  0  0
 22 29  1  0  0  0  0
 22 23  1  0  0  0  0
 22 49  1  0  0  0  0
 23 24  1  0  0  0  0
 23 50  1  0  0  0  0
 23 51  1  0  0  0  0
 24 25  1  0  0  0  0
 24 27  1  0  0  0  0
 24 29  1  0  0  0  0
 25 26  1  0  0  0  0
 25 52  1  0  0  0  0
 25 53  1  0  0  0  0
 26 54  1  0  0  0  0
 27 28  1  0  0  0  0
 27 55  1  0  0  0  0
 27 56  1  0  0  0  0
 28 57  1  0  0  0  0
 29 58  1  0  0  0  0
 29 59  1  0  0  0  0
M  END
> <s_m_source_file>
AV-unprocessed.smi

> <i_m_source_file_index>
228

> <i_lp_mmshare_version>
43012

> <i_f3d_flags>
0

> <s_epik_input>
W0NIMl0xW0NIMl1PW0NIMl1bQ0gyXU4xW0NIMl1bQ0BASF0oW09IXSlbQ0gyXU4oW0NIM10pYyhuW2NIXW4yKWMoYzIzKW5bY0hdbjNbQ0hdKFtDSDJdNClbQ0gyXUM0KFtDSDJdW09IXSlbQ0gyXVtPSF0=

> <s_epik_cmdline>
J2VwaWtfcHl0aG9uJywgJy1waCcsICc3LjAnLCAnLXRuJywgJzgnLCAnLW1hJywgJzIwMCcsICctbWV0YWxfYmluZGluZycsICctaW1hZScsICc8aW5maWxlLm1hZT4nLCAnLW9tYWUnLCAnPG91dGZpbGUubWFlPic=

> <r_lp_tautomer_probability>
1

> <r_epik_Ionization_Penalty>
0.423559

> <r_epik_Ionization_Penalty_Charging>
0

> <r_epik_Ionization_Penalty_Neutral>
0.423559

> <r_epik_State_Penalty>
0.438466

> <r_epik_Charging_Adjusted_Penalty>
0.438466

> <i_epik_Tot_Q>
0

> <i_epik_Tot_abs_Q>
0

> <r_epik_Metal_State_Penalty>
0.436601

> <b_epik_Metal_Only>
0

> <s_lp_Force_Field>
OPLS_2005

> <r_lp_Energy>
57.656

> <b_lp_Chiralities_Consistent>
1

> <s_lp_Variant>
AV-unprocessed.smi:228-4

> <Gold.Version>
5.8.1

> <Gold.Id.Protein>
6NUR|6NUR_protein|mol2

> <Gold.PLP.Fitness>
49.1372

> <Gold.PLP.PLP>
-46.3068

> <Gold.PLP.part.hbond>
-4.5785

> <Gold.PLP.part.metal>
0.0000

> <Gold.PLP.part.buried>
-5.1039

> <Gold.PLP.part.nonpolar>
-37.5659

> <Gold.PLP.part.repulsive>
0.0425

> <Gold.PLP.ligand.clash>
0.0000

> <Gold.PLP.ligand.torsion>
0.8388

> <Gold.PLP.Chemscore.Hbond>
1.2192

> <Gold.PLP.Chemscore.CHOScore>
0.0000

> <Gold.PLP.Chemscore.Metal>
0.0000

> <Gold.Chemscore.Hbonds>
donor molecule, donor type, donor heavy atom, donor atom, acceptor molecule, acceptor atom, score
      P1  H  6896  6909       L1    16  0.74
      P1  H  6931  6943       L1    26  0.05
      P1  H  6934  6947       L1    26  0.42

> <Gold.PLP.Chemscore.Internal.Correction>
0.8505

> <Gold.Rescore>
     Score         DG    S(hbond)    S(metal)    S(lipo)     H(rot)  DE(clash)    DE(int)     intcor
      8.17     -10.58       1.07        0.00     114.91       4.66       0.46       1.95       ----

> <Gold.Chemscore.Fitness>
8.1681

> <Gold.Chemscore.DG>
-10.5754

> <Gold.Chemscore.ZeroCoef>
-5.4800

> <Gold.Chemscore.Hbond>
1.0722

> <Gold.Chemscore.Metal>
0.0000

> <Gold.Chemscore.Lipo>
114.9053

> <Gold.Chemscore.Internal_Hbond>
0.0000

> <Gold.Chemscore.DEClash>
0.4608

> <Gold.Chemscore.DEInternal>
1.9464

> <Gold.Chemscore.Rot>
4.6600

> <Gold.Chemscore.Internal.Correction>
   9.000000E+99

> <Gold.Chemscore.Hbonds>
donor molecule, donor type, donor heavy atom, donor atom, acceptor molecule, acceptor atom, score
      P1  H  6896  6909       L1    16  0.67
      P1  H  6931  6943       L1    26  0.02
      P1  H  6934  6947       L1    26  0.33

> <Gold.Chemscore.Hbond.Weighted>
-3.5811

> <Gold.Chemscore.Metal.Weighted>
-0.0000

> <Gold.Chemscore.Lipo.Weighted>
-13.4439

> <Gold.Chemscore.Internal_Hbond.Weighted>
0.0000

> <Gold.Chemscore.DEClash.Weighted>
0.4608

> <Gold.Chemscore.DEInternal.Weighted>
1.9464

> <Gold.Chemscore.Rot.Weighted>
11.9297

> <Gold.Chemscore.Internal.Correction.Weighted>
   9.000000E+99

> <Gold.Protein.RotatedTorsions>
[ 6907 6896 6895 6894 ] final   73.43 input  -60.11 | X-H torsion
[ 7974 7965 7964 7962 ] final   27.96 input  175.53 | X-H torsion
[ 8008 7997 7996 7995 ] final   58.06 input   59.86 | X-H torsion
[ 10167 10162 10161 10158 ] final  -85.22 input  -65.29 | X-H torsion
[ 10718 10713 10712 10709 ] final  -12.92 input   66.30 | X-H torsion
[ 10763 10752 10751 10750 ] final  -57.14 input  -60.55 | X-H torsion
[ 11005 11000 10999 10996 ] final -110.97 input  -57.11 | X-H torsion

> <Gold.Protein.ActiveResidues>
 VAL166  LYS551  ARG553  GLY616  TRP617  ASP618  TYR619  PRO620  LYS621  CYS622 
 ASP623  PHE694  ASN695  SER759  ASP760  ASP761  ALA762  ILE779  LEU786  VAL792 
 PHE793  MET794  SER795  GLU796  ALA797  LYS798  CYS799  TRP800  GLU811  SER814 

> <Gold.Protein.RotatedAtoms>
  152.4923  134.4422  159.9546 H   0  0  0  0  0  0  0  0  0  0  0  0  # atno 6907 bound_to 6896
  151.4407  133.3638  159.2789 H   0  0  0  0  0  0  0  0  0  0  0  0  # atno 6908 bound_to 6896
  150.9090  134.8529  159.7472 H   0  0  0  0  0  0  0  0  0  0  0  0  # atno 6909 bound_to 6896
  146.1755  139.7121  142.8937 H   0  0  0  0  0  0  0  0  0  0  0  0  # atno 7974 bound_to 7965
  155.5439  140.3485  155.4453 H   0  0  0  0  0  0  0  0  0  0  0  0  # atno 8008 bound_to 7997
  156.0631  140.1345  156.9943 H   0  0  0  0  0  0  0  0  0  0  0  0  # atno 8009 bound_to 7997
  154.4490  140.0981  156.6532 H   0  0  0  0  0  0  0  0  0  0  0  0  # atno 8010 bound_to 7997
  140.4058  143.2643  151.9083 H   0  0  0  0  0  0  0  0  0  0  0  0  # atno 10167 bound_to 10162
  156.6377  130.4919  149.6106 H   0  0  0  0  0  0  0  0  0  0  0  0  # atno 10718 bound_to 10713
  154.2178  135.6383  153.5135 H   0  0  0  0  0  0  0  0  0  0  0  0  # atno 10763 bound_to 10752
  152.9975  135.5489  154.6147 H   0  0  0  0  0  0  0  0  0  0  0  0  # atno 10764 bound_to 10752
  154.5599  135.2908  155.0903 H   0  0  0  0  0  0  0  0  0  0  0  0  # atno 10765 bound_to 10752
  141.0761  133.9298  157.2386 H   0  0  0  0  0  0  0  0  0  0  0  0  # atno 11005 bound_to 11000
  145.4222  141.0407  143.2957 LP  0  0  0  0  0  0  0  0  0  0  0  0  # atno 17320 bound_to 7965
  144.8230  139.5759  143.6978 LP  0  0  0  0  0  0  0  0  0  0  0  0  # atno 17321 bound_to 7965
  139.4783  144.5587  151.8273 LP  0  0  0  0  0  0  0  0  0  0  0  0  # atno 17342 bound_to 10162
  140.4691  144.1613  150.5915 LP  0  0  0  0  0  0  0  0  0  0  0  0  # atno 17343 bound_to 10162
  156.2184  130.6722  151.1342 LP  0  0  0  0  0  0  0  0  0  0  0  0  # atno 17370 bound_to 10713
  157.7181  131.0698  150.6248 LP  0  0  0  0  0  0  0  0  0  0  0  0  # atno 17371 bound_to 10713
  139.9574  135.0162  156.9165 LP  0  0  0  0  0  0  0  0  0  0  0  0  # atno 17394 bound_to 11000
  140.5569  134.0572  155.7386 LP  0  0  0  0  0  0  0  0  0  0  0  0  # atno 17395 bound_to 11000

$$$$
