AV-unprocessed.smi:682|AV-procd|sdf|3327|dock10
  -GOLD-   22720 0293D 1   1.00000     0.00000
 Structure written by MMmdl.
 41 42  0  0  0  0  0  0  0  0  1 V2000
  145.9769  142.4970  154.1234 C   0  0  0  0  0  0  0  0  0  0  0  0
  146.1965  141.1221  154.4139 O   0  0  0  0  0  0  0  0  0  0  0  0
  147.3739  140.5131  153.8659 C   0  0  2  0  0  0  0  0  0  0  0  0
  148.5923  141.4248  154.0583 C   0  0  0  0  0  0  0  0  0  0  0  0
  147.0739  139.9380  152.4680 C   0  0  0  0  0  0  0  0  0  0  0  0
  146.5197  138.7034  153.1762 C   0  0  1  0  0  0  0  0  0  0  0  0
  146.8369  137.4617  152.4789 N   0  0  0  0  0  0  0  0  0  0  0  0
  145.9203  136.5901  152.0371 C   0  0  0  0  0  0  0  0  0  0  0  0
  144.7069  136.7601  152.1577 O   0  0  0  0  0  0  0  0  0  0  0  0
  146.4976  135.5217  151.4634 N   0  0  0  0  0  0  0  0  0  0  0  0
  145.8492  134.3933  150.9005 C   0  0  0  0  0  0  0  0  0  0  0  0
  146.4845  133.1602  150.6005 C   0  0  0  0  0  0  0  0  0  0  0  0
  145.6270  132.2920  150.0851 N   0  0  0  0  0  0  0  0  0  0  0  0
  144.4425  132.9496  150.0477 N   0  0  0  0  0  0  0  0  0  0  0  0
  143.2724  132.2726  149.5311 C   0  0  0  0  0  0  0  0  0  0  0  0
  144.5414  134.2368  150.5371 C   0  0  0  0  0  0  0  0  0  0  0  0
  147.4472  139.0357  154.3738 C   0  0  0  0  0  0  0  0  0  0  0  0
  148.8459  138.3896  154.3673 C   0  0  0  0  0  0  0  0  0  0  0  0
  146.8685  138.7585  155.7657 C   0  0  0  0  0  0  0  0  0  0  0  0
  144.9769  142.7748  154.4561 H   0  0  0  0  0  0  0  0  0  0  0  0
  146.0422  142.7132  153.0575 H   0  0  0  0  0  0  0  0  0  0  0  0
  146.6816  143.1364  154.6549 H   0  0  0  0  0  0  0  0  0  0  0  0
  149.5139  140.9435  153.7331 H   0  0  0  0  0  0  0  0  0  0  0  0
  148.7194  141.7000  155.1054 H   0  0  0  0  0  0  0  0  0  0  0  0
  148.5117  142.3430  153.4770 H   0  0  0  0  0  0  0  0  0  0  0  0
  146.3389  140.4791  151.8730 H   0  0  0  0  0  0  0  0  0  0  0  0
  147.9775  139.7411  151.8883 H   0  0  0  0  0  0  0  0  0  0  0  0
  145.4595  138.8193  153.4140 H   0  0  0  0  0  0  0  0  0  0  0  0
  147.8135  137.2489  152.3383 H   0  0  0  0  0  0  0  0  0  0  0  0
  147.5065  135.5089  151.4355 H   0  0  0  0  0  0  0  0  0  0  0  0
  147.5161  132.8710  150.7374 H   0  0  0  0  0  0  0  0  0  0  0  0
  142.4090  132.9375  149.5662 H   0  0  0  0  0  0  0  0  0  0  0  0
  143.0622  131.3881  150.1328 H   0  0  0  0  0  0  0  0  0  0  0  0
  143.4456  131.9714  148.4975 H   0  0  0  0  0  0  0  0  0  0  0  0
  143.6918  134.9022  150.5796 H   0  0  0  0  0  0  0  0  0  0  0  0
  148.7961  137.3180  154.5633 H   0  0  0  0  0  0  0  0  0  0  0  0
  149.4901  138.8258  155.1314 H   0  0  0  0  0  0  0  0  0  0  0  0
  149.3536  138.5141  153.4107 H   0  0  0  0  0  0  0  0  0  0  0  0
  146.8945  137.6954  156.0067 H   0  0  0  0  0  0  0  0  0  0  0  0
  145.8265  139.0693  155.8444 H   0  0  0  0  0  0  0  0  0  0  0  0
  147.4242  139.2871  156.5406 H   0  0  0  0  0  0  0  0  0  0  0  0
  1  2  1  0  0  0  0
  1 20  1  0  0  0  0
  1 21  1  0  0  0  0
  1 22  1  0  0  0  0
  2  3  1  0  0  0  0
  3 17  1  0  0  0  0
  3  4  1  0  0  0  0
  3  5  1  0  0  0  0
  4 23  1  0  0  0  0
  4 24  1  0  0  0  0
  4 25  1  0  0  0  0
  5  6  1  0  0  0  0
  5 26  1  0  0  0  0
  5 27  1  0  0  0  0
  6  7  1  0  0  0  0
  6 17  1  0  0  0  0
  6 28  1  0  0  0  0
  7  8  1  0  0  0  0
  7 29  1  0  0  0  0
  8  9  2  0  0  0  0
  8 10  1  0  0  0  0
 10 11  1  0  0  0  0
 10 30  1  0  0  0  0
 11 16  2  0  0  0  0
 11 12  1  0  0  0  0
 12 13  2  0  0  0  0
 12 31  1  0  0  0  0
 13 14  1  0  0  0  0
 14 15  1  0  0  0  0
 14 16  1  0  0  0  0
 15 32  1  0  0  0  0
 15 33  1  0  0  0  0
 15 34  1  0  0  0  0
 16 35  1  0  0  0  0
 17 18  1  0  0  0  0
 17 19  1  0  0  0  0
 18 36  1  0  0  0  0
 18 37  1  0  0  0  0
 18 38  1  0  0  0  0
 19 39  1  0  0  0  0
 19 40  1  0  0  0  0
 19 41  1  0  0  0  0
M  END
> <s_m_source_file>
AV-unprocessed.smi

> <i_m_source_file_index>
682

> <i_lp_mmshare_version>
43012

> <i_f3d_flags>
0

> <s_epik_input>
W0NIM11PW0NAQF0xKFtDSDNdKVtDSDJdW0NASF0oQzEoW0NIM10pW0NIM10pW05IXUMoPU8pW05IXWMyW2NIXW5uKFtDSDNdKVtjSF0y

> <s_epik_cmdline>
J2VwaWtfcHl0aG9uJywgJy1waCcsICc3LjAnLCAnLXRuJywgJzgnLCAnLW1hJywgJzIwMCcsICctbWV0YWxfYmluZGluZycsICctaW1hZScsICc8aW5maWxlLm1hZT4nLCAnLW9tYWUnLCAnPG91dGZpbGUubWFlPic=

> <r_lp_tautomer_probability>
1

> <r_epik_Ionization_Penalty>
0.000192302

> <r_epik_Ionization_Penalty_Charging>
0

> <r_epik_Ionization_Penalty_Neutral>
0.000192302

> <r_epik_State_Penalty>
-0

> <r_epik_Charging_Adjusted_Penalty>
0

> <i_epik_Tot_Q>
0

> <i_epik_Tot_abs_Q>
0

> <r_epik_Metal_State_Penalty>
-0

> <b_epik_Metal_Only>
0

> <s_lp_Force_Field>
OPLS_2005

> <r_lp_Energy>
24.7984

> <b_lp_Chiralities_Consistent>
1

> <s_lp_Variant>
AV-unprocessed.smi:682-2

> <Gold.Version>
5.8.1

> <Gold.Id.Protein>
6NUR|6NUR_protein|mol2

> <Gold.PLP.Fitness>
37.3866

> <Gold.PLP.PLP>
-28.5561

> <Gold.PLP.part.hbond>
-1.9486

> <Gold.PLP.part.metal>
0.0000

> <Gold.PLP.part.buried>
2.5087

> <Gold.PLP.part.nonpolar>
-30.0307

> <Gold.PLP.part.repulsive>
1.3082

> <Gold.PLP.ligand.clash>
0.0000

> <Gold.PLP.ligand.torsion>
0.4240

> <Gold.PLP.Chemscore.Hbond>
2.0000

> <Gold.PLP.Chemscore.CHOScore>
1.1015

> <Gold.PLP.Chemscore.Metal>
0.0000

> <Gold.Chemscore.Hbonds>
donor molecule, donor type, donor heavy atom, donor atom, acceptor molecule, acceptor atom, score
      L1  H     7    29       P1  7948  1.00
      L1  H    10    30       P1  7948  1.00
      L1  C    12    31       P1 10747  1.00
      L1  C    16    35       P1 10186  0.07

> <Gold.PLP.Chemscore.Internal.Correction>
0.3742

> <Gold.Rescore>
     Score         DG    S(hbond)    S(metal)    S(lipo)     H(rot)  DE(clash)    DE(int)     intcor
     15.33     -16.73       1.90        0.00      68.98       1.23       0.07       1.32       ----

> <Gold.Chemscore.Fitness>
15.3345

> <Gold.Chemscore.DG>
-16.7306

> <Gold.Chemscore.ZeroCoef>
-5.4800

> <Gold.Chemscore.Hbond>
1.8976

> <Gold.Chemscore.Metal>
0.0000

> <Gold.Chemscore.Lipo>
68.9799

> <Gold.Chemscore.Internal_Hbond>
0.0000

> <Gold.Chemscore.DEClash>
0.0735

> <Gold.Chemscore.DEInternal>
1.3226

> <Gold.Chemscore.Rot>
1.2336

> <Gold.Chemscore.Internal.Correction>
   9.000000E+99

> <Gold.Chemscore.Hbonds>
donor molecule, donor type, donor heavy atom, donor atom, acceptor molecule, acceptor atom, score
      L1  H     7    29       P1  7948  0.92
      L1  H    10    30       P1  7948  0.85

> <Gold.Chemscore.Hbond.Weighted>
-6.3381

> <Gold.Chemscore.Metal.Weighted>
-0.0000

> <Gold.Chemscore.Lipo.Weighted>
-8.0707

> <Gold.Chemscore.Internal_Hbond.Weighted>
0.0000

> <Gold.Chemscore.DEClash.Weighted>
0.0735

> <Gold.Chemscore.DEInternal.Weighted>
1.3226

> <Gold.Chemscore.Rot.Weighted>
3.1581

> <Gold.Chemscore.Internal.Correction.Weighted>
   9.000000E+99

> <Gold.Protein.RotatedTorsions>
[ 6907 6896 6895 6894 ] final  134.26 input  -60.11 | X-H torsion
[ 7974 7965 7964 7962 ] final    8.16 input  175.53 | X-H torsion
[ 8008 7997 7996 7995 ] final  -33.52 input   59.86 | X-H torsion
[ 10167 10162 10161 10158 ] final   -9.73 input  -65.29 | X-H torsion
[ 10718 10713 10712 10709 ] final  146.70 input   66.30 | X-H torsion
[ 10763 10752 10751 10750 ] final  133.38 input  -60.55 | X-H torsion
[ 11005 11000 10999 10996 ] final   88.63 input  -57.11 | X-H torsion

> <Gold.Protein.ActiveResidues>
 VAL166  LYS551  ARG553  GLY616  TRP617  ASP618  TYR619  PRO620  LYS621  CYS622 
 ASP623  PHE694  ASN695  SER759  ASP760  ASP761  ALA762  ILE779  LEU786  VAL792 
 PHE793  MET794  SER795  GLU796  ALA797  LYS798  CYS799  TRP800  GLU811  SER814 

> <Gold.Protein.RotatedAtoms>
  152.3131  133.5774  159.5694 H   0  0  0  0  0  0  0  0  0  0  0  0  # atno 6907 bound_to 6896
  150.7333  134.0122  159.3682 H   0  0  0  0  0  0  0  0  0  0  0  0  # atno 6908 bound_to 6896
  151.8013  135.0708  160.0451 H   0  0  0  0  0  0  0  0  0  0  0  0  # atno 6909 bound_to 6896
  146.2419  139.9974  142.8419 H   0  0  0  0  0  0  0  0  0  0  0  0  # atno 7974 bound_to 7965
  154.4147  140.1708  156.1901 H   0  0  0  0  0  0  0  0  0  0  0  0  # atno 8008 bound_to 7997
  155.9611  140.3393  155.6467 H   0  0  0  0  0  0  0  0  0  0  0  0  # atno 8009 bound_to 7997
  155.6748  140.0716  157.2497 H   0  0  0  0  0  0  0  0  0  0  0  0  # atno 8010 bound_to 7997
  140.7095  143.5826  150.8976 H   0  0  0  0  0  0  0  0  0  0  0  0  # atno 10167 bound_to 10162
  157.3299  131.0918  151.1171 H   0  0  0  0  0  0  0  0  0  0  0  0  # atno 10718 bound_to 10713
  153.8061  135.3135  155.3395 H   0  0  0  0  0  0  0  0  0  0  0  0  # atno 10763 bound_to 10752
  154.8070  135.4691  154.0420 H   0  0  0  0  0  0  0  0  0  0  0  0  # atno 10764 bound_to 10752
  153.1783  135.6889  153.8600 H   0  0  0  0  0  0  0  0  0  0  0  0  # atno 10765 bound_to 10752
  139.8892  134.8500  156.3028 H   0  0  0  0  0  0  0  0  0  0  0  0  # atno 11005 bound_to 11000
  145.1446  140.9590  143.4468 LP  0  0  0  0  0  0  0  0  0  0  0  0  # atno 17320 bound_to 7965
  145.0263  139.3380  143.6047 LP  0  0  0  0  0  0  0  0  0  0  0  0  # atno 17321 bound_to 7965
  139.9552  143.6227  152.3018 LP  0  0  0  0  0  0  0  0  0  0  0  0  # atno 17342 bound_to 10162
  139.6759  144.7658  151.1696 LP  0  0  0  0  0  0  0  0  0  0  0  0  # atno 17343 bound_to 10162
  157.2423  130.6575  149.5895 LP  0  0  0  0  0  0  0  0  0  0  0  0  # atno 17370 bound_to 10713
  155.9694  130.4564  150.5925 LP  0  0  0  0  0  0  0  0  0  0  0  0  # atno 17371 bound_to 10713
  140.9902  133.7213  156.0802 LP  0  0  0  0  0  0  0  0  0  0  0  0  # atno 17394 bound_to 11000
  140.7635  134.3912  157.5521 LP  0  0  0  0  0  0  0  0  0  0  0  0  # atno 17395 bound_to 11000

$$$$
