AV-unprocessed.smi:1389|AV-procd|sdf|5652|dock1
  -GOLD-   22720 5273D 1   1.00000     0.00000
 Structure written by MMmdl.
 53 55  0  0  0  0  0  0  0  0  3 V2000
  150.1316  137.4853  154.6520 C   0  0  0  0  0  0  0  0  0  0  0  0
  151.3004  136.6227  155.1904 C   0  0  2  0  0  0  0  0  0  0  0  0
  150.9399  135.1118  155.1296 C   0  0  0  0  0  0  0  0  0  0  0  0
  150.0637  134.7673  154.0111 N   0  0  0  0  0  0  0  0  0  0  0  0
  149.6747  133.5260  153.6845 C   0  0  0  0  0  0  0  0  0  0  0  0
  149.9935  132.5232  154.3229 O   0  0  0  0  0  0  0  0  0  0  0  0
  148.9151  133.5257  152.5762 N   0  0  0  0  0  0  0  0  0  0  0  0
  148.3415  132.4046  151.9111 C   0  0  0  0  0  0  0  0  0  0  0  0
  148.8900  131.1001  152.0072 C   0  0  0  0  0  0  0  0  0  0  0  0
  148.2644  130.0281  151.3407 C   0  0  0  0  0  0  0  0  0  0  0  0
  147.0955  130.2727  150.5971 C   0  0  0  0  0  0  0  0  0  0  0  0
  146.5893  131.5223  150.5384 N   0  3  0  0  0  0  0  0  0  0  0  0
  147.1530  132.5880  151.1590 C   0  0  0  0  0  0  0  0  0  0  0  0
  146.5408  133.8477  151.0385 N   0  0  0  0  0  0  0  0  0  0  0  0
  145.4459  133.9346  150.0857 C   0  0  0  0  0  0  0  0  0  0  0  0
  144.7191  135.2397  150.4193 C   0  0  0  0  0  0  0  0  0  0  0  0
  145.0944  135.5376  151.8762 C   0  0  0  0  0  0  0  0  0  0  0  0
  146.0338  134.3990  152.2837 C   0  0  0  0  0  0  0  0  0  0  0  0
  151.7192  137.0283  156.5756 N   0  3  0  0  0  0  0  0  0  0  0  0
  152.9136  136.2881  157.0721 C   0  0  0  0  0  0  0  0  0  0  0  0
  153.2877  136.7138  158.5014 C   0  0  0  0  0  0  0  0  0  0  0  0
  153.5276  138.1112  158.5341 O   0  0  0  0  0  0  0  0  0  0  0  0
  152.3607  138.8390  158.1869 C   0  0  0  0  0  0  0  0  0  0  0  0
  151.9357  138.4933  156.7492 C   0  0  0  0  0  0  0  0  0  0  0  0
  149.8112  137.1682  153.6607 H   0  0  0  0  0  0  0  0  0  0  0  0
  150.4093  138.5319  154.5327 H   0  0  0  0  0  0  0  0  0  0  0  0
  149.2635  137.4330  155.3098 H   0  0  0  0  0  0  0  0  0  0  0  0
  152.1524  136.7922  154.5300 H   0  0  0  0  0  0  0  0  0  0  0  0
  151.8282  134.5021  154.9777 H   0  0  0  0  0  0  0  0  0  0  0  0
  150.5105  134.7908  156.0803 H   0  0  0  0  0  0  0  0  0  0  0  0
  149.7510  135.5312  153.4295 H   0  0  0  0  0  0  0  0  0  0  0  0
  148.8149  134.4117  152.1026 H   0  0  0  0  0  0  0  0  0  0  0  0
  149.7741  130.9002  152.5932 H   0  0  0  0  0  0  0  0  0  0  0  0
  148.6739  129.0303  151.4038 H   0  0  0  0  0  0  0  0  0  0  0  0
  146.5503  129.5121  150.0571 H   0  0  0  0  0  0  0  0  0  0  0  0
  145.8166  133.9330  149.0602 H   0  0  0  0  0  0  0  0  0  0  0  0
  144.7647  133.0902  150.1991 H   0  0  0  0  0  0  0  0  0  0  0  0
  145.0712  136.0452  149.7736 H   0  0  0  0  0  0  0  0  0  0  0  0
  143.6419  135.1478  150.2779 H   0  0  0  0  0  0  0  0  0  0  0  0
  145.6093  136.4971  151.9383 H   0  0  0  0  0  0  0  0  0  0  0  0
  144.2209  135.5873  152.5269 H   0  0  0  0  0  0  0  0  0  0  0  0
  145.4838  133.6387  152.8401 H   0  0  0  0  0  0  0  0  0  0  0  0
  146.8475  134.7565  152.9155 H   0  0  0  0  0  0  0  0  0  0  0  0
  152.7364  135.2152  157.0936 H   0  0  0  0  0  0  0  0  0  0  0  0
  153.7560  136.4625  156.4009 H   0  0  0  0  0  0  0  0  0  0  0  0
  152.5001  136.4463  159.2082 H   0  0  0  0  0  0  0  0  0  0  0  0
  154.1908  136.1945  158.8224 H   0  0  0  0  0  0  0  0  0  0  0  0
  151.5575  138.6245  158.8939 H   0  0  0  0  0  0  0  0  0  0  0  0
  152.5760  139.9047  158.2669 H   0  0  0  0  0  0  0  0  0  0  0  0
  152.6930  138.8369  156.0428 H   0  0  0  0  0  0  0  0  0  0  0  0
  151.0222  139.0503  156.5474 H   0  0  0  0  0  0  0  0  0  0  0  0
  150.9536  136.7850  157.1882 H   0  0  0  0  0  0  0  0  0  0  0  0
  145.7371  131.6720  149.9978 H   0  0  0  0  0  0  0  0  0  0  0  0
  1  2  1  0  0  0  0
  1 25  1  0  0  0  0
  1 26  1  0  0  0  0
  1 27  1  0  0  0  0
  2  3  1  0  0  0  0
  2 19  1  0  0  0  0
  2 28  1  0  0  0  0
  3  4  1  0  0  0  0
  3 29  1  0  0  0  0
  3 30  1  0  0  0  0
  4  5  1  0  0  0  0
  4 31  1  0  0  0  0
  5  6  2  0  0  0  0
  5  7  1  0  0  0  0
  7  8  1  0  0  0  0
  7 32  1  0  0  0  0
  8 13  1  0  0  0  0
  8  9  2  0  0  0  0
  9 10  1  0  0  0  0
  9 33  1  0  0  0  0
 10 11  2  0  0  0  0
 10 34  1  0  0  0  0
 11 12  1  0  0  0  0
 11 35  1  0  0  0  0
 12 13  2  0  0  0  0
 12 53  1  0  0  0  0
 13 14  1  0  0  0  0
 14 18  1  0  0  0  0
 14 15  1  0  0  0  0
 15 16  1  0  0  0  0
 15 36  1  0  0  0  0
 15 37  1  0  0  0  0
 16 17  1  0  0  0  0
 16 38  1  0  0  0  0
 16 39  1  0  0  0  0
 17 18  1  0  0  0  0
 17 40  1  0  0  0  0
 17 41  1  0  0  0  0
 18 42  1  0  0  0  0
 18 43  1  0  0  0  0
 19 24  1  0  0  0  0
 19 20  1  0  0  0  0
 19 52  1  0  0  0  0
 20 21  1  0  0  0  0
 20 44  1  0  0  0  0
 20 45  1  0  0  0  0
 21 22  1  0  0  0  0
 21 46  1  0  0  0  0
 21 47  1  0  0  0  0
 22 23  1  0  0  0  0
 23 24  1  0  0  0  0
 23 48  1  0  0  0  0
 23 49  1  0  0  0  0
 24 50  1  0  0  0  0
 24 51  1  0  0  0  0
M  CHG  1  12   1
M  CHG  1  19   1
M  END
> <s_m_source_file>
AV-unprocessed.smi

> <i_m_source_file_index>
1389

> <i_lp_mmshare_version>
43012

> <i_f3d_flags>
0

> <s_epik_input>
W0NIMl0xW0NIMl1PW0NIMl1bQ0gyXU4xW0NASF0oW0NIM10pW0NIMl1bTkhdQyg9TylbTkhdYzJbY0hdW2NIXVtjSF1uYzJOM1tDSDJdW0NIMl1bQ0gyXVtDSDJdMw==

> <s_epik_cmdline>
J2VwaWtfcHl0aG9uJywgJy1waCcsICc3LjAnLCAnLXRuJywgJzgnLCAnLW1hJywgJzIwMCcsICctbWV0YWxfYmluZGluZycsICctaW1hZScsICc8aW5maWxlLm1hZT4nLCAnLW9tYWUnLCAnPG91dGZpbGUubWFlPic=

> <r_lp_tautomer_probability>
0.999994

> <r_epik_Ionization_Penalty>
1.80872

> <r_epik_Ionization_Penalty_Charging>
1.8087

> <r_epik_Ionization_Penalty_Neutral>
2.02981e-05

> <r_epik_State_Penalty>
1.84892

> <r_epik_Charging_Adjusted_Penalty>
3.65762

> <i_epik_Tot_Q>
2

> <i_epik_Tot_abs_Q>
2

> <r_epik_Metal_State_Penalty>
1.9311

> <b_epik_Metal_Only>
0

> <s_lp_Force_Field>
OPLS_2005

> <r_lp_Energy>
59.2072

> <b_lp_Chiralities_Consistent>
1

> <s_lp_Variant>
AV-unprocessed.smi:1389-7

> <Gold.Version>
5.8.1

> <Gold.Id.Protein>
6NUR|6NUR_protein|mol2

> <Gold.PLP.Fitness>
42.6888

> <Gold.PLP.PLP>
-36.5243

> <Gold.PLP.part.hbond>
-3.0000

> <Gold.PLP.part.metal>
0.0000

> <Gold.PLP.part.buried>
-3.8162

> <Gold.PLP.part.nonpolar>
-29.7543

> <Gold.PLP.part.repulsive>
0.2887

> <Gold.PLP.ligand.clash>
1.5263

> <Gold.PLP.ligand.torsion>
0.5751

> <Gold.PLP.Chemscore.Hbond>
2.8500

> <Gold.PLP.Chemscore.CHOScore>
0.0000

> <Gold.PLP.Chemscore.Metal>
0.0000

> <Gold.Chemscore.Hbonds>
donor molecule, donor type, donor heavy atom, donor atom, acceptor molecule, acceptor atom, score
      L1  H     4    31       P1  7948  0.50

> <Gold.PLP.Chemscore.Internal.Correction>
0.2911

> <Gold.Rescore>
     Score         DG    S(hbond)    S(metal)    S(lipo)     H(rot)  DE(clash)    DE(int)     intcor
     16.96     -18.74       2.43        0.00      80.38       1.66       0.04       1.74       ----

> <Gold.Chemscore.Fitness>
16.9617

> <Gold.Chemscore.DG>
-18.7357

> <Gold.Chemscore.ZeroCoef>
-5.4800

> <Gold.Chemscore.Hbond>
2.4270

> <Gold.Chemscore.Metal>
0.0000

> <Gold.Chemscore.Lipo>
80.3766

> <Gold.Chemscore.Internal_Hbond>
0.0000

> <Gold.Chemscore.DEClash>
0.0356

> <Gold.Chemscore.DEInternal>
1.7384

> <Gold.Chemscore.Rot>
1.6620

> <Gold.Chemscore.Internal.Correction>
   9.000000E+99

> <Gold.Chemscore.Hbonds>
donor molecule, donor type, donor heavy atom, donor atom, acceptor molecule, acceptor atom, score
      L1  H     4    31       P1  7948  0.02

> <Gold.Chemscore.Hbond.Weighted>
-8.1063

> <Gold.Chemscore.Metal.Weighted>
-0.0000

> <Gold.Chemscore.Lipo.Weighted>
-9.4041

> <Gold.Chemscore.Internal_Hbond.Weighted>
0.0000

> <Gold.Chemscore.DEClash.Weighted>
0.0356

> <Gold.Chemscore.DEInternal.Weighted>
1.7384

> <Gold.Chemscore.Rot.Weighted>
4.2547

> <Gold.Chemscore.Internal.Correction.Weighted>
   9.000000E+99

> <Gold.Protein.RotatedTorsions>
[ 6907 6896 6895 6894 ] final  117.71 input  -60.11 | X-H torsion
[ 7974 7965 7964 7962 ] final  -64.35 input  175.53 | X-H torsion
[ 8008 7997 7996 7995 ] final   34.61 input   59.86 | X-H torsion
[ 10167 10162 10161 10158 ] final  163.49 input  -65.29 | X-H torsion
[ 10718 10713 10712 10709 ] final   30.49 input   66.30 | X-H torsion
[ 10763 10752 10751 10750 ] final  -44.27 input  -60.55 | X-H torsion
[ 11005 11000 10999 10996 ] final    0.45 input  -57.11 | X-H torsion

> <Gold.Protein.ActiveResidues>
 VAL166  LYS551  ARG553  GLY616  TRP617  ASP618  TYR619  PRO620  LYS621  CYS622 
 ASP623  PHE694  ASN695  SER759  ASP760  ASP761  ALA762  ILE779  LEU786  VAL792 
 PHE793  MET794  SER795  GLU796  ALA797  LYS798  CYS799  TRP800  GLU811  SER814 

> <Gold.Protein.RotatedAtoms>
  152.4593  133.7789  159.6839 H   0  0  0  0  0  0  0  0  0  0  0  0  # atno 6907 bound_to 6896
  150.8531  133.7747  159.3025 H   0  0  0  0  0  0  0  0  0  0  0  0  # atno 6908 bound_to 6896
  151.5336  135.1071  159.9960 H   0  0  0  0  0  0  0  0  0  0  0  0  # atno 6909 bound_to 6896
  145.7678  140.8829  143.0396 H   0  0  0  0  0  0  0  0  0  0  0  0  # atno 7974 bound_to 7965
  155.1575  140.3280  155.4418 H   0  0  0  0  0  0  0  0  0  0  0  0  # atno 8008 bound_to 7997
  156.2553  140.1966  156.6635 H   0  0  0  0  0  0  0  0  0  0  0  0  # atno 8009 bound_to 7997
  154.6428  140.0568  156.9852 H   0  0  0  0  0  0  0  0  0  0  0  0  # atno 8010 bound_to 7997
  139.4874  144.4332  151.9045 H   0  0  0  0  0  0  0  0  0  0  0  0  # atno 10167 bound_to 10162
  157.2603  130.7158  149.6450 H   0  0  0  0  0  0  0  0  0  0  0  0  # atno 10718 bound_to 10713
  154.0092  135.6683  153.4764 H   0  0  0  0  0  0  0  0  0  0  0  0  # atno 10763 bound_to 10752
  153.0628  135.5018  154.8128 H   0  0  0  0  0  0  0  0  0  0  0  0  # atno 10764 bound_to 10752
  154.7006  135.3078  154.9311 H   0  0  0  0  0  0  0  0  0  0  0  0  # atno 10765 bound_to 10752
  140.6264  133.9615  155.8251 H   0  0  0  0  0  0  0  0  0  0  0  0  # atno 11005 bound_to 11000
  144.6818  139.9812  143.7483 LP  0  0  0  0  0  0  0  0  0  0  0  0  # atno 17320 bound_to 7965
  146.0200  139.3243  143.0818 LP  0  0  0  0  0  0  0  0  0  0  0  0  # atno 17321 bound_to 7965
  140.3781  144.2771  150.5912 LP  0  0  0  0  0  0  0  0  0  0  0  0  # atno 17342 bound_to 10162
  140.5259  143.2254  151.8316 LP  0  0  0  0  0  0  0  0  0  0  0  0  # atno 17343 bound_to 10162
  155.9664  130.4400  150.5280 LP  0  0  0  0  0  0  0  0  0  0  0  0  # atno 17370 bound_to 10713
  157.3183  131.0677  151.1950 LP  0  0  0  0  0  0  0  0  0  0  0  0  # atno 17371 bound_to 10713
  141.0706  134.0211  157.3531 LP  0  0  0  0  0  0  0  0  0  0  0  0  # atno 17394 bound_to 11000
  139.9133  135.0193  156.7780 LP  0  0  0  0  0  0  0  0  0  0  0  0  # atno 17395 bound_to 11000

$$$$
