AV-unprocessed.smi:2136|AV-procd|sdf|8704|dock8
  -GOLD-   2272011463D 1   1.00000     0.00000
 Structure written by MMmdl.
 43 44  0  0  0  0  0  0  0  0  2 V2000
  150.2876  134.3436  154.9055 C   0  0  0  0  0  0  0  0  0  0  0  0
  149.6420  133.1821  156.1811 S   0  0  0  0  0  0  0  0  0  0  0  0
  150.0921  133.6226  157.5106 O   0  0  0  0  0  0  0  0  0  0  0  0
  148.2024  133.0263  155.9207 O   0  0  0  0  0  0  0  0  0  0  0  0
  150.4271  131.6632  155.8030 N   0  0  0  0  0  0  0  0  0  0  0  0
  151.8356  131.5431  156.2532 C   0  0  0  0  0  0  0  0  0  0  0  0
  152.3746  130.1080  156.1946 C   0  0  0  0  0  0  0  0  0  0  0  0
  152.1809  129.5103  154.8066 C   0  0  0  0  0  0  0  0  0  0  0  0
  150.6877  129.5208  154.4945 C   0  0  0  0  0  0  0  0  0  0  0  0
  150.0881  130.9481  154.5317 C   0  0  1  0  0  0  0  0  0  0  0  0
  148.5888  130.8474  154.2037 C   0  0  0  0  0  0  0  0  0  0  0  0
  147.8199  130.2751  154.9773 O   0  0  0  0  0  0  0  0  0  0  0  0
  148.1833  131.4073  153.0532 N   0  0  0  0  0  0  0  0  0  0  0  0
  146.8071  131.4347  152.5745 C   0  0  0  0  0  0  0  0  0  0  0  0
  146.4261  132.8171  152.0180 C   0  0  0  0  0  0  0  0  0  0  0  0
  145.4286  132.7237  150.8798 C   0  0  0  0  0  0  0  0  0  0  0  0
  145.7631  132.0412  149.6892 C   0  0  0  0  0  0  0  0  0  0  0  0
  144.8178  131.9676  148.6451 C   0  0  0  0  0  0  0  0  0  0  0  0
  143.5594  132.5806  148.8141 C   0  0  0  0  0  0  0  0  0  0  0  0
  143.2753  133.2260  149.9668 N   0  3  0  0  0  0  0  0  0  0  0  0
  144.1524  133.3173  150.9907 C   0  0  0  0  0  0  0  0  0  0  0  0
  149.7186  135.2719  154.9487 H   0  0  0  0  0  0  0  0  0  0  0  0
  150.1749  133.8992  153.9170 H   0  0  0  0  0  0  0  0  0  0  0  0
  151.3353  134.5706  155.0885 H   0  0  0  0  0  0  0  0  0  0  0  0
  152.4534  132.2003  155.6401 H   0  0  0  0  0  0  0  0  0  0  0  0
  151.9247  131.8935  157.2814 H   0  0  0  0  0  0  0  0  0  0  0  0
  153.4327  130.1003  156.4580 H   0  0  0  0  0  0  0  0  0  0  0  0
  151.8667  129.4926  156.9385 H   0  0  0  0  0  0  0  0  0  0  0  0
  152.7323  130.0850  154.0616 H   0  0  0  0  0  0  0  0  0  0  0  0
  152.5673  128.4912  154.7760 H   0  0  0  0  0  0  0  0  0  0  0  0
  150.5261  129.0740  153.5124 H   0  0  0  0  0  0  0  0  0  0  0  0
  150.1764  128.8744  155.2102 H   0  0  0  0  0  0  0  0  0  0  0  0
  150.5596  131.5146  153.7264 H   0  0  0  0  0  0  0  0  0  0  0  0
  148.8768  131.8675  152.4807 H   0  0  0  0  0  0  0  0  0  0  0  0
  146.6642  130.6605  151.8185 H   0  0  0  0  0  0  0  0  0  0  0  0
  146.1550  131.1773  153.4096 H   0  0  0  0  0  0  0  0  0  0  0  0
  146.0092  133.4365  152.8134 H   0  0  0  0  0  0  0  0  0  0  0  0
  147.3127  133.3394  151.6560 H   0  0  0  0  0  0  0  0  0  0  0  0
  146.7327  131.5775  149.5776 H   0  0  0  0  0  0  0  0  0  0  0  0
  145.0556  131.4489  147.7278 H   0  0  0  0  0  0  0  0  0  0  0  0
  142.7776  132.5742  148.0683 H   0  0  0  0  0  0  0  0  0  0  0  0
  143.8078  133.8588  151.8599 H   0  0  0  0  0  0  0  0  0  0  0  0
  142.3591  133.6636  150.0684 H   0  0  0  0  0  0  0  0  0  0  0  0
  1  2  1  0  0  0  0
  1 22  1  0  0  0  0
  1 23  1  0  0  0  0
  1 24  1  0  0  0  0
  2  3  2  0  0  0  0
  2  4  2  0  0  0  0
  2  5  1  0  0  0  0
  5 10  1  0  0  0  0
  5  6  1  0  0  0  0
  6  7  1  0  0  0  0
  6 25  1  0  0  0  0
  6 26  1  0  0  0  0
  7  8  1  0  0  0  0
  7 27  1  0  0  0  0
  7 28  1  0  0  0  0
  8  9  1  0  0  0  0
  8 29  1  0  0  0  0
  8 30  1  0  0  0  0
  9 10  1  0  0  0  0
  9 31  1  0  0  0  0
  9 32  1  0  0  0  0
 10 11  1  0  0  0  0
 10 33  1  0  0  0  0
 11 12  2  0  0  0  0
 11 13  1  0  0  0  0
 13 14  1  0  0  0  0
 13 34  1  0  0  0  0
 14 15  1  0  0  0  0
 14 35  1  0  0  0  0
 14 36  1  0  0  0  0
 15 16  1  0  0  0  0
 15 37  1  0  0  0  0
 15 38  1  0  0  0  0
 16 21  1  0  0  0  0
 16 17  2  0  0  0  0
 17 18  1  0  0  0  0
 17 39  1  0  0  0  0
 18 19  2  0  0  0  0
 18 40  1  0  0  0  0
 19 20  1  0  0  0  0
 19 41  1  0  0  0  0
 20 21  2  0  0  0  0
 20 43  1  0  0  0  0
 21 42  1  0  0  0  0
M  CHG  1  20   1
M  END
> <s_m_source_file>
AV-unprocessed.smi

> <i_m_source_file_index>
2136

> <i_lp_mmshare_version>
43012

> <i_f3d_flags>
0

> <s_epik_input>
W0NIM11TKD1PKSg9TylOMVtDSDJdW0NIMl1bQ0gyXVtDSDJdW0NASF0xQyg9TylbTkhdW0NIMl1bQ0gyXWMyW2NIXVtjSF1bY0hdbltjSF0y

> <s_epik_cmdline>
J2VwaWtfcHl0aG9uJywgJy1waCcsICc3LjAnLCAnLXRuJywgJzgnLCAnLW1hJywgJzIwMCcsICctbWV0YWxfYmluZGluZycsICctaW1hZScsICc8aW5maWxlLm1hZT4nLCAnLW9tYWUnLCAnPG91dGZpbGUubWFlPic=

> <r_epik_Ionization_Penalty>
2.2835

> <r_epik_Ionization_Penalty_Charging>
2.2835

> <r_epik_Ionization_Penalty_Neutral>
1.35461e-07

> <r_epik_State_Penalty>
2.43297

> <r_epik_Charging_Adjusted_Penalty>
4.71647

> <i_epik_Tot_Q>
1

> <i_epik_Tot_abs_Q>
1

> <r_epik_Metal_State_Penalty>
2.44557

> <b_epik_Metal_Only>
0

> <s_lp_Force_Field>
OPLS_2005

> <r_lp_Energy>
13.1957

> <b_lp_Chiralities_Consistent>
1

> <s_lp_Variant>
AV-unprocessed.smi:2136-3

> <Gold.Version>
5.8.1

> <Gold.Id.Protein>
6NUR|6NUR_protein|mol2

> <Gold.PLP.Fitness>
46.3461

> <Gold.PLP.PLP>
-37.9815

> <Gold.PLP.part.hbond>
-3.0000

> <Gold.PLP.part.metal>
0.0000

> <Gold.PLP.part.buried>
-1.1139

> <Gold.PLP.part.nonpolar>
-33.4542

> <Gold.PLP.part.repulsive>
0.0763

> <Gold.PLP.ligand.clash>
0.0000

> <Gold.PLP.ligand.torsion>
1.3849

> <Gold.PLP.Chemscore.Hbond>
3.0031

> <Gold.PLP.Chemscore.CHOScore>
0.0000

> <Gold.PLP.Chemscore.Metal>
0.0000

> <Gold.Chemscore.Hbonds>
donor molecule, donor type, donor heavy atom, donor atom, acceptor molecule, acceptor atom, score
      L1  H    13    34       P1 10747  0.01
      L1  H    20    43       P1 10186  2.00
      P1  H  6896  6909       L1     3  1.00

> <Gold.PLP.Chemscore.Internal.Correction>
2.1251

> <Gold.Rescore>
     Score         DG    S(hbond)    S(metal)    S(lipo)     H(rot)  DE(clash)    DE(int)     intcor
     14.59     -19.47       1.99        0.00      99.08       1.65       0.83       4.06       ----

> <Gold.Chemscore.Fitness>
14.5885

> <Gold.Chemscore.DG>
-19.4726

> <Gold.Chemscore.ZeroCoef>
-5.4800

> <Gold.Chemscore.Hbond>
1.9863

> <Gold.Chemscore.Metal>
0.0000

> <Gold.Chemscore.Lipo>
99.0768

> <Gold.Chemscore.Internal_Hbond>
0.0000

> <Gold.Chemscore.DEClash>
0.8290

> <Gold.Chemscore.DEInternal>
4.0551

> <Gold.Chemscore.Rot>
1.6538

> <Gold.Chemscore.Internal.Correction>
   9.000000E+99

> <Gold.Chemscore.Hbonds>
donor molecule, donor type, donor heavy atom, donor atom, acceptor molecule, acceptor atom, score
      L1  H    13    34       P1 10747  0.02
      L1  H    20    43       P1 10186  0.98
      P1  H  6896  6909       L1     3  0.97

> <Gold.Chemscore.Hbond.Weighted>
-6.6343

> <Gold.Chemscore.Metal.Weighted>
-0.0000

> <Gold.Chemscore.Lipo.Weighted>
-11.5920

> <Gold.Chemscore.Internal_Hbond.Weighted>
0.0000

> <Gold.Chemscore.DEClash.Weighted>
0.8290

> <Gold.Chemscore.DEInternal.Weighted>
4.0551

> <Gold.Chemscore.Rot.Weighted>
4.2337

> <Gold.Chemscore.Internal.Correction.Weighted>
   9.000000E+99

> <Gold.Protein.RotatedTorsions>
[ 6907 6896 6895 6894 ] final   -7.07 input  -60.11 | X-H torsion
[ 7974 7965 7964 7962 ] final  -48.25 input  175.53 | X-H torsion
[ 8008 7997 7996 7995 ] final  144.10 input   59.86 | X-H torsion
[ 10167 10162 10161 10158 ] final   17.90 input  -65.29 | X-H torsion
[ 10718 10713 10712 10709 ] final  -21.45 input   66.30 | X-H torsion
[ 10763 10752 10751 10750 ] final  -61.73 input  -60.55 | X-H torsion
[ 11005 11000 10999 10996 ] final  -20.25 input  -57.11 | X-H torsion

> <Gold.Protein.ActiveResidues>
 VAL166  LYS551  ARG553  GLY616  TRP617  ASP618  TYR619  PRO620  LYS621  CYS622 
 ASP623  PHE694  ASN695  SER759  ASP760  ASP761  ALA762  ILE779  LEU786  VAL792 
 PHE793  MET794  SER795  GLU796  ALA797  LYS798  CYS799  TRP800  GLU811  SER814 

> <Gold.Protein.RotatedAtoms>
  151.4554  135.1033  159.9709 H   0  0  0  0  0  0  0  0  0  0  0  0  # atno 6907 bound_to 6896
  152.4873  133.8402  159.7159 H   0  0  0  0  0  0  0  0  0  0  0  0  # atno 6908 bound_to 6896
  150.8993  133.7079  159.2910 H   0  0  0  0  0  0  0  0  0  0  0  0  # atno 6909 bound_to 6896
  145.9531  140.7553  142.9495 H   0  0  0  0  0  0  0  0  0  0  0  0  # atno 7974 bound_to 7965
  156.2916  140.2245  156.4997 H   0  0  0  0  0  0  0  0  0  0  0  0  # atno 8008 bound_to 7997
  154.7700  140.0467  157.1065 H   0  0  0  0  0  0  0  0  0  0  0  0  # atno 8009 bound_to 7997
  154.9886  140.3087  155.4919 H   0  0  0  0  0  0  0  0  0  0  0  0  # atno 8010 bound_to 7997
  140.5693  143.9192  150.6700 H   0  0  0  0  0  0  0  0  0  0  0  0  # atno 10167 bound_to 10162
  156.5179  130.4625  149.6612 H   0  0  0  0  0  0  0  0  0  0  0  0  # atno 10718 bound_to 10713
  154.2890  135.6257  153.5377 H   0  0  0  0  0  0  0  0  0  0  0  0  # atno 10763 bound_to 10752
  152.9855  135.5651  154.5411 H   0  0  0  0  0  0  0  0  0  0  0  0  # atno 10764 bound_to 10752
  154.5018  135.2872  155.1390 H   0  0  0  0  0  0  0  0  0  0  0  0  # atno 10765 bound_to 10752
  140.8446  133.7901  155.9898 H   0  0  0  0  0  0  0  0  0  0  0  0  # atno 11005 bound_to 11000
  144.6799  140.2467  143.7337 LP  0  0  0  0  0  0  0  0  0  0  0  0  # atno 17320 bound_to 7965
  145.8144  139.2016  143.1974 LP  0  0  0  0  0  0  0  0  0  0  0  0  # atno 17321 bound_to 7965
  140.2663  143.3488  152.1278 LP  0  0  0  0  0  0  0  0  0  0  0  0  # atno 17342 bound_to 10162
  139.5109  144.6891  151.5807 LP  0  0  0  0  0  0  0  0  0  0  0  0  # atno 17343 bound_to 10162
  156.3177  130.7263  151.2169 LP  0  0  0  0  0  0  0  0  0  0  0  0  # atno 17370 bound_to 10713
  157.7441  131.0464  150.4892 LP  0  0  0  0  0  0  0  0  0  0  0  0  # atno 17371 bound_to 10713
  140.8858  134.2556  157.5121 LP  0  0  0  0  0  0  0  0  0  0  0  0  # atno 17394 bound_to 11000
  139.8703  134.9637  156.4471 LP  0  0  0  0  0  0  0  0  0  0  0  0  # atno 17395 bound_to 11000

$$$$
