AV-unprocessed.smi:1207|AV-procd|sdf|5053|dock10
  -GOLD-   22720 4 83D 1   1.00000     0.00000
 Structure written by MMmdl.
 52 54  0  0  0  0  0  0  0  0  2 V2000
  152.5224  142.9183  160.5588 C   0  0  0  0  0  0  0  0  0  0  0  0
  151.9918  142.3065  159.2741 C   0  0  0  0  0  0  0  0  0  0  0  0
  152.6354  141.1684  158.7385 C   0  0  0  0  0  0  0  0  0  0  0  0
  152.1734  140.5686  157.5470 C   0  0  0  0  0  0  0  0  0  0  0  0
  152.6391  139.4615  156.8590 N   0  0  0  0  0  0  0  0  0  0  0  0
  151.7930  139.4058  155.8351 C   0  0  0  0  0  0  0  0  0  0  0  0
  150.8273  140.3431  155.7818 N   0  0  0  0  0  0  0  0  0  0  0  0
  149.7939  140.4699  154.7707 C   0  0  0  0  0  0  0  0  0  0  0  0
  149.1881  139.1083  154.3805 C   0  0  2  0  0  0  0  0  0  0  0  0
  150.1084  138.4502  153.5340 O   0  0  0  0  0  0  0  0  0  0  0  0
  147.8326  139.2209  153.6475 C   0  0  0  0  0  0  0  0  0  0  0  0
  147.2898  137.8901  153.2766 N   0  3  2  0  0  0  0  0  0  0  0  0
  146.1673  137.9927  152.3145 C   0  0  0  0  0  0  0  0  0  0  0  0
  146.9592  137.0512  154.4578 C   0  0  0  0  0  0  0  0  0  0  0  0
  146.7287  135.6164  154.0628 C   0  0  0  0  0  0  0  0  0  0  0  0
  147.6005  134.5015  154.2311 C   0  0  0  0  0  0  0  0  0  0  0  0
  148.9724  134.4629  154.8416 C   0  0  0  0  0  0  0  0  0  0  0  0
  147.0687  133.3861  153.7617 N   0  0  0  0  0  0  0  0  0  0  0  0
  145.8129  133.7397  153.2594 O   0  0  0  0  0  0  0  0  0  0  0  0
  145.6349  135.0712  153.4478 C   0  0  0  0  0  0  0  0  0  0  0  0
  144.3426  135.6433  152.9712 C   0  0  0  0  0  0  0  0  0  0  0  0
  151.0416  141.1443  156.8988 C   0  0  0  0  0  0  0  0  0  0  0  0
  150.3931  142.2776  157.4212 C   0  0  0  0  0  0  0  0  0  0  0  0
  150.8671  142.8634  158.6137 C   0  0  0  0  0  0  0  0  0  0  0  0
  150.1609  144.0869  159.1706 C   0  0  0  0  0  0  0  0  0  0  0  0
  153.3684  142.3521  160.9493 H   0  0  0  0  0  0  0  0  0  0  0  0
  151.7482  142.9320  161.3262 H   0  0  0  0  0  0  0  0  0  0  0  0
  152.8564  143.9411  160.3844 H   0  0  0  0  0  0  0  0  0  0  0  0
  153.4923  140.7443  159.2411 H   0  0  0  0  0  0  0  0  0  0  0  0
  151.8750  138.6351  155.0826 H   0  0  0  0  0  0  0  0  0  0  0  0
  149.0211  141.1448  155.1403 H   0  0  0  0  0  0  0  0  0  0  0  0
  150.2352  140.9509  153.8962 H   0  0  0  0  0  0  0  0  0  0  0  0
  149.0847  138.5075  155.2837 H   0  0  0  0  0  0  0  0  0  0  0  0
  150.2109  138.9585  152.7434 H   0  0  0  0  0  0  0  0  0  0  0  0
  147.0905  139.7372  154.2571 H   0  0  0  0  0  0  0  0  0  0  0  0
  147.9705  139.8379  152.7580 H   0  0  0  0  0  0  0  0  0  0  0  0
  145.3098  138.4935  152.7660 H   0  0  0  0  0  0  0  0  0  0  0  0
  145.8486  137.0080  151.9732 H   0  0  0  0  0  0  0  0  0  0  0  0
  146.4662  138.5567  151.4303 H   0  0  0  0  0  0  0  0  0  0  0  0
  147.7694  137.0992  155.1849 H   0  0  0  0  0  0  0  0  0  0  0  0
  146.0924  137.4734  154.9681 H   0  0  0  0  0  0  0  0  0  0  0  0
  149.0742  135.2015  155.6361 H   0  0  0  0  0  0  0  0  0  0  0  0
  149.7373  134.6721  154.0937 H   0  0  0  0  0  0  0  0  0  0  0  0
  149.1899  133.4859  155.2748 H   0  0  0  0  0  0  0  0  0  0  0  0
  144.2421  136.6881  153.2641 H   0  0  0  0  0  0  0  0  0  0  0  0
  143.4992  135.0947  153.3907 H   0  0  0  0  0  0  0  0  0  0  0  0
  144.2747  135.5896  151.8846 H   0  0  0  0  0  0  0  0  0  0  0  0
  149.5372  142.6925  156.9101 H   0  0  0  0  0  0  0  0  0  0  0  0
  149.3267  144.3889  158.5369 H   0  0  0  0  0  0  0  0  0  0  0  0
  150.8509  144.9280  159.2385 H   0  0  0  0  0  0  0  0  0  0  0  0
  149.7672  143.8804  160.1660 H   0  0  0  0  0  0  0  0  0  0  0  0
  148.0377  137.4206  152.7857 H   0  0  0  0  0  0  0  0  0  0  0  0
  1  2  1  0  0  0  0
  1 26  1  0  0  0  0
  1 27  1  0  0  0  0
  1 28  1  0  0  0  0
  2 24  1  0  0  0  0
  2  3  2  0  0  0  0
  3  4  1  0  0  0  0
  3 29  1  0  0  0  0
  4 22  2  0  0  0  0
  4  5  1  0  0  0  0
  5  6  2  0  0  0  0
  6  7  1  0  0  0  0
  6 30  1  0  0  0  0
  7  8  1  0  0  0  0
  7 22  1  0  0  0  0
  8  9  1  0  0  0  0
  8 31  1  0  0  0  0
  8 32  1  0  0  0  0
  9 10  1  0  0  0  0
  9 11  1  0  0  0  0
  9 33  1  0  0  0  0
 10 34  1  0  0  0  0
 11 12  1  0  0  0  0
 11 35  1  0  0  0  0
 11 36  1  0  0  0  0
 12 13  1  0  0  0  0
 12 14  1  0  0  0  0
 12 52  1  0  0  0  0
 13 37  1  0  0  0  0
 13 38  1  0  0  0  0
 13 39  1  0  0  0  0
 14 15  1  0  0  0  0
 14 40  1  0  0  0  0
 14 41  1  0  0  0  0
 15 20  2  0  0  0  0
 15 16  1  0  0  0  0
 16 17  1  0  0  0  0
 16 18  2  0  0  0  0
 17 42  1  0  0  0  0
 17 43  1  0  0  0  0
 17 44  1  0  0  0  0
 18 19  1  0  0  0  0
 19 20  1  0  0  0  0
 20 21  1  0  0  0  0
 21 45  1  0  0  0  0
 21 46  1  0  0  0  0
 21 47  1  0  0  0  0
 22 23  1  0  0  0  0
 23 24  2  0  0  0  0
 23 48  1  0  0  0  0
 24 25  1  0  0  0  0
 25 49  1  0  0  0  0
 25 50  1  0  0  0  0
 25 51  1  0  0  0  0
M  CHG  1  12   1
M  END
> <s_m_source_file>
AV-unprocessed.smi

> <i_m_source_file_index>
1207

> <i_lp_mmshare_version>
43012

> <i_f3d_flags>
0

> <s_epik_input>
W0NIM11jKFtjSF0xKWMoW0NIM10pW2NIXWMoYzEyKW4oW2NIXW4yKVtDSDJdW0NASF0oW09IXSlbQ0gyXU4oW0NIM10pW0NIMl1jM2MoW0NIM10pbm9jM1tDSDNd

> <s_epik_cmdline>
J2VwaWtfcHl0aG9uJywgJy1waCcsICc3LjAnLCAnLXRuJywgJzgnLCAnLW1hJywgJzIwMCcsICctbWV0YWxfYmluZGluZycsICctaW1hZScsICc8aW5maWxlLm1hZT4nLCAnLW9tYWUnLCAnPG91dGZpbGUubWFlPic=

> <r_epik_Ionization_Penalty>
0.646518

> <r_epik_Ionization_Penalty_Charging>
0.559419

> <r_epik_Ionization_Penalty_Neutral>
0.0870981

> <r_epik_State_Penalty>
0.661677

> <r_epik_Charging_Adjusted_Penalty>
1.2211

> <i_epik_Tot_Q>
1

> <i_epik_Tot_abs_Q>
1

> <r_epik_Metal_State_Penalty>
0.649158

> <b_epik_Metal_Only>
0

> <s_lp_Force_Field>
OPLS_2005

> <r_lp_Energy>
8.09653

> <b_lp_Chiralities_Consistent>
1

> <s_lp_Variant>
AV-unprocessed.smi:1207-5

> <Gold.Version>
5.8.1

> <Gold.Id.Protein>
6NUR|6NUR_protein|mol2

> <Gold.PLP.Fitness>
52.0900

> <Gold.PLP.PLP>
-40.8416

> <Gold.PLP.part.hbond>
-4.0000

> <Gold.PLP.part.metal>
0.0000

> <Gold.PLP.part.buried>
-1.9175

> <Gold.PLP.part.nonpolar>
-33.8603

> <Gold.PLP.part.repulsive>
0.1970

> <Gold.PLP.ligand.clash>
0.0000

> <Gold.PLP.ligand.torsion>
0.6866

> <Gold.PLP.Chemscore.Hbond>
4.0000

> <Gold.PLP.Chemscore.CHOScore>
0.0000

> <Gold.PLP.Chemscore.Metal>
0.0000

> <Gold.Chemscore.Hbonds>
donor molecule, donor type, donor heavy atom, donor atom, acceptor molecule, acceptor atom, score
      L1  H    10    34       P1  7957  1.00
      L1  H    12    52       P1  7948  2.00
      P1  H  7997  8008       L1     5  1.00

> <Gold.PLP.Chemscore.Internal.Correction>
0.6217

> <Gold.Rescore>
     Score         DG    S(hbond)    S(metal)    S(lipo)     H(rot)  DE(clash)    DE(int)     intcor
     18.45     -20.26       2.83        0.00      99.30       2.46       0.19       1.62       ----

> <Gold.Chemscore.Fitness>
18.4485

> <Gold.Chemscore.DG>
-20.2578

> <Gold.Chemscore.ZeroCoef>
-5.4800

> <Gold.Chemscore.Hbond>
2.8287

> <Gold.Chemscore.Metal>
0.0000

> <Gold.Chemscore.Lipo>
99.3041

> <Gold.Chemscore.Internal_Hbond>
0.0000

> <Gold.Chemscore.DEClash>
0.1865

> <Gold.Chemscore.DEInternal>
1.6229

> <Gold.Chemscore.Rot>
2.4565

> <Gold.Chemscore.Internal.Correction>
   9.000000E+99

> <Gold.Chemscore.Hbonds>
donor molecule, donor type, donor heavy atom, donor atom, acceptor molecule, acceptor atom, score
      L1  H    10    34       P1  7957  0.53
      L1  H    12    52       P1  7948  1.00
      P1  H  7997  8008       L1     5  0.17

> <Gold.Chemscore.Hbond.Weighted>
-9.4479

> <Gold.Chemscore.Metal.Weighted>
-0.0000

> <Gold.Chemscore.Lipo.Weighted>
-11.6186

> <Gold.Chemscore.Internal_Hbond.Weighted>
0.0000

> <Gold.Chemscore.DEClash.Weighted>
0.1865

> <Gold.Chemscore.DEInternal.Weighted>
1.6229

> <Gold.Chemscore.Rot.Weighted>
6.2887

> <Gold.Chemscore.Internal.Correction.Weighted>
   9.000000E+99

> <Gold.Protein.RotatedTorsions>
[ 6907 6896 6895 6894 ] final  119.94 input  -60.11 | X-H torsion
[ 7974 7965 7964 7962 ] final   18.98 input  175.53 | X-H torsion
[ 8008 7997 7996 7995 ] final  -35.63 input   59.86 | X-H torsion
[ 10167 10162 10161 10158 ] final  175.19 input  -65.29 | X-H torsion
[ 10718 10713 10712 10709 ] final   67.17 input   66.30 | X-H torsion
[ 10763 10752 10751 10750 ] final -147.42 input  -60.55 | X-H torsion
[ 11005 11000 10999 10996 ] final  125.30 input  -57.11 | X-H torsion

> <Gold.Protein.ActiveResidues>
 VAL166  LYS551  ARG553  GLY616  TRP617  ASP618  TYR619  PRO620  LYS621  CYS622 
 ASP623  PHE694  ASN695  SER759  ASP760  ASP761  ALA762  ILE779  LEU786  VAL792 
 PHE793  MET794  SER795  GLU796  ALA797  LYS798  CYS799  TRP800  GLU811  SER814 

> <Gold.Protein.RotatedAtoms>
  152.4435  133.7492  159.6683 H   0  0  0  0  0  0  0  0  0  0  0  0  # atno 6907 bound_to 6896
  150.8330  133.8050  159.3097 H   0  0  0  0  0  0  0  0  0  0  0  0  # atno 6908 bound_to 6896
  151.5698  135.1065  160.0044 H   0  0  0  0  0  0  0  0  0  0  0  0  # atno 6909 bound_to 6896
  146.2166  139.8379  142.8647 H   0  0  0  0  0  0  0  0  0  0  0  0  # atno 7974 bound_to 7965
  154.4091  140.1652  156.2243 H   0  0  0  0  0  0  0  0  0  0  0  0  # atno 8008 bound_to 7997
  155.9337  140.3413  155.6247 H   0  0  0  0  0  0  0  0  0  0  0  0  # atno 8009 bound_to 7997
  155.7075  140.0752  157.2375 H   0  0  0  0  0  0  0  0  0  0  0  0  # atno 8010 bound_to 7997
  139.5168  144.3060  152.0335 H   0  0  0  0  0  0  0  0  0  0  0  0  # atno 10167 bound_to 10162
  157.6214  130.9307  150.0207 H   0  0  0  0  0  0  0  0  0  0  0  0  # atno 10718 bound_to 10713
  154.8286  135.3360  154.6816 H   0  0  0  0  0  0  0  0  0  0  0  0  # atno 10763 bound_to 10752
  153.7438  135.6944  153.4965 H   0  0  0  0  0  0  0  0  0  0  0  0  # atno 10764 bound_to 10752
  153.2225  135.4444  155.0456 H   0  0  0  0  0  0  0  0  0  0  0  0  # atno 10765 bound_to 10752
  139.9400  134.9636  156.8538 H   0  0  0  0  0  0  0  0  0  0  0  0  # atno 11005 bound_to 11000
  145.2929  141.0172  143.3653 LP  0  0  0  0  0  0  0  0  0  0  0  0  # atno 17320 bound_to 7965
  144.9064  139.4584  143.6608 LP  0  0  0  0  0  0  0  0  0  0  0  0  # atno 17321 bound_to 7965
  140.2506  144.4173  150.6223 LP  0  0  0  0  0  0  0  0  0  0  0  0  # atno 17342 bound_to 10162
  140.6227  143.2178  151.6661 LP  0  0  0  0  0  0  0  0  0  0  0  0  # atno 17343 bound_to 10162
  156.1362  130.3642  149.9654 LP  0  0  0  0  0  0  0  0  0  0  0  0  # atno 17370 bound_to 10713
  156.7704  130.9184  151.3644 LP  0  0  0  0  0  0  0  0  0  0  0  0  # atno 17371 bound_to 10713
  140.5977  134.0202  155.7524 LP  0  0  0  0  0  0  0  0  0  0  0  0  # atno 17394 bound_to 11000
  141.1030  133.9738  157.3046 LP  0  0  0  0  0  0  0  0  0  0  0  0  # atno 17395 bound_to 11000

$$$$
