AV-unprocessed.smi:2061|AV-procd|sdf|8393|dock1
  -GOLD-   2272011 73D 1   1.00000     0.00000
 Structure written by MMmdl.
 45 46  0  0  0  0  0  0  0  0  3 V2000
  147.3209  135.6908  163.1445 C   0  0  0  0  0  0  0  0  0  0  0  0
  147.6868  135.8580  161.7090 C   0  0  0  0  0  0  0  0  0  0  0  0
  147.4518  135.0977  160.5984 C   0  0  0  0  0  0  0  0  0  0  0  0
  148.0801  135.8390  159.5627 C   0  0  0  0  0  0  0  0  0  0  0  0
  148.0471  135.3790  158.2200 N   0  0  0  0  0  0  0  0  0  0  0  0
  149.0689  135.2324  157.3583 C   0  0  0  0  0  0  0  0  0  0  0  0
  150.2336  135.4056  157.7360 O   0  0  0  0  0  0  0  0  0  0  0  0
  148.6468  134.9015  156.1069 N   0  5  0  0  0  0  0  0  0  0  0  0
  149.5232  134.7382  154.9428 C   0  0  0  0  0  0  0  0  0  0  0  0
  149.0506  133.5703  154.0344 C   0  0  1  0  0  0  0  0  0  0  0  0
  148.8763  132.2212  154.7766 C   0  0  0  0  0  0  0  0  0  0  0  0
  147.8771  133.9721  153.1911 N   0  3  1  0  0  0  0  0  0  0  0  0
  147.5216  132.9808  152.1482 C   0  0  0  0  0  0  0  0  0  0  0  0
  146.4770  133.5721  151.1846 C   0  0  1  0  0  0  0  0  0  0  0  0
  146.0168  132.5502  150.1394 C   0  0  0  0  0  0  0  0  0  0  0  0
  145.3302  133.9932  151.9192 O   0  0  0  0  0  0  0  0  0  0  0  0
  145.5926  134.9549  152.9412 C   0  0  2  0  0  0  0  0  0  0  0  0
  145.9193  136.3448  152.3679 C   0  0  0  0  0  0  0  0  0  0  0  0
  146.6547  134.4136  153.9170 C   0  0  0  0  0  0  0  0  0  0  0  0
  148.6413  136.9563  160.0014 N   0  0  0  0  0  0  0  0  0  0  0  0
  148.3950  136.9723  161.3792 O   0  0  0  0  0  0  0  0  0  0  0  0
  146.2380  135.6638  163.2654 H   0  0  0  0  0  0  0  0  0  0  0  0
  147.7071  136.5125  163.7481 H   0  0  0  0  0  0  0  0  0  0  0  0
  147.7292  134.7608  163.5404 H   0  0  0  0  0  0  0  0  0  0  0  0
  146.9168  134.1616  160.5386 H   0  0  0  0  0  0  0  0  0  0  0  0
  147.1298  135.1749  157.8515 H   0  0  0  0  0  0  0  0  0  0  0  0
  149.5804  135.6448  154.3387 H   0  0  0  0  0  0  0  0  0  0  0  0
  150.5498  134.5451  155.2541 H   0  0  0  0  0  0  0  0  0  0  0  0
  149.8889  133.4050  153.3561 H   0  0  0  0  0  0  0  0  0  0  0  0
  149.7976  131.9118  155.2736 H   0  0  0  0  0  0  0  0  0  0  0  0
  148.6219  131.4245  154.0770 H   0  0  0  0  0  0  0  0  0  0  0  0
  148.0955  132.2534  155.5383 H   0  0  0  0  0  0  0  0  0  0  0  0
  148.4115  132.7020  151.5820 H   0  0  0  0  0  0  0  0  0  0  0  0
  147.1417  132.0742  152.6219 H   0  0  0  0  0  0  0  0  0  0  0  0
  146.9091  134.4222  150.6562 H   0  0  0  0  0  0  0  0  0  0  0  0
  146.8547  132.2003  149.5362 H   0  0  0  0  0  0  0  0  0  0  0  0
  145.2826  132.9890  149.4632 H   0  0  0  0  0  0  0  0  0  0  0  0
  145.5572  131.6813  150.6115 H   0  0  0  0  0  0  0  0  0  0  0  0
  144.6616  135.0613  153.4987 H   0  0  0  0  0  0  0  0  0  0  0  0
  146.0161  137.0795  153.1676 H   0  0  0  0  0  0  0  0  0  0  0  0
  145.1266  136.6868  151.7023 H   0  0  0  0  0  0  0  0  0  0  0  0
  146.8520  136.3542  151.8060 H   0  0  0  0  0  0  0  0  0  0  0  0
  146.2293  133.5696  154.4609 H   0  0  0  0  0  0  0  0  0  0  0  0
  146.8977  135.1784  154.6549 H   0  0  0  0  0  0  0  0  0  0  0  0
  148.2032  134.7865  152.6886 H   0  0  0  0  0  0  0  0  0  0  0  0
  1  2  1  0  0  0  0
  1 22  1  0  0  0  0
  1 23  1  0  0  0  0
  1 24  1  0  0  0  0
  2 21  1  0  0  0  0
  2  3  2  0  0  0  0
  3  4  1  0  0  0  0
  3 25  1  0  0  0  0
  4  5  1  0  0  0  0
  4 20  2  0  0  0  0
  5  6  1  0  0  0  0
  5 26  1  0  0  0  0
  6  7  2  0  0  0  0
  6  8  1  0  0  0  0
  8  9  1  0  0  0  0
  9 10  1  0  0  0  0
  9 27  1  0  0  0  0
  9 28  1  0  0  0  0
 10 11  1  0  0  0  0
 10 12  1  0  0  0  0
 10 29  1  0  0  0  0
 11 30  1  0  0  0  0
 11 31  1  0  0  0  0
 11 32  1  0  0  0  0
 12 19  1  0  0  0  0
 12 13  1  0  0  0  0
 12 45  1  0  0  0  0
 13 14  1  0  0  0  0
 13 33  1  0  0  0  0
 13 34  1  0  0  0  0
 14 15  1  0  0  0  0
 14 16  1  0  0  0  0
 14 35  1  0  0  0  0
 15 36  1  0  0  0  0
 15 37  1  0  0  0  0
 15 38  1  0  0  0  0
 16 17  1  0  0  0  0
 17 18  1  0  0  0  0
 17 19  1  0  0  0  0
 17 39  1  0  0  0  0
 18 40  1  0  0  0  0
 18 41  1  0  0  0  0
 18 42  1  0  0  0  0
 19 43  1  0  0  0  0
 19 44  1  0  0  0  0
 20 21  1  0  0  0  0
M  CHG  1   8  -1
M  CHG  1  12   1
M  END
> <s_m_source_file>
AV-unprocessed.smi

> <i_m_source_file_index>
2061

> <i_lp_mmshare_version>
43012

> <i_f3d_flags>
0

> <s_epik_input>
W0NIM11jMVtjSF1jKG5vMSlbTkhdQyg9TylbTkhdW0NIMl1bQ0BIXShbQ0gzXSlOMltDSDJdW0NAQEhdKFtDSDNdKU9bQ0BASF0oW0NIM10pW0NIMl0y

> <s_epik_cmdline>
J2VwaWtfcHl0aG9uJywgJy1waCcsICc3LjAnLCAnLXRuJywgJzgnLCAnLW1hJywgJzIwMCcsICctbWV0YWxfYmluZGluZycsICctaW1hZScsICc8aW5maWxlLm1hZT4nLCAnLW9tYWUnLCAnPG91dGZpbGUubWFlPic=

> <r_epik_Ionization_Penalty>
6.8073

> <r_epik_Ionization_Penalty_Charging>
6.80729

> <r_epik_Ionization_Penalty_Neutral>
5.65391e-06

> <r_epik_State_Penalty>
7.47323

> <r_epik_Charging_Adjusted_Penalty>
14.2805

> <i_epik_Tot_Q>
0

> <i_epik_Tot_abs_Q>
2

> <r_epik_Metal_State_Penalty>
3.40035

> <b_epik_Metal_Only>
1

> <s_lp_Force_Field>
OPLS_2005

> <r_lp_Energy>
16.8806

> <b_lp_Chiralities_Consistent>
1

> <s_lp_Variant>
AV-unprocessed.smi:2061-34

> <Gold.Version>
5.8.1

> <Gold.Id.Protein>
6NUR|6NUR_protein|mol2

> <Gold.PLP.Fitness>
42.5699

> <Gold.PLP.PLP>
-32.6693

> <Gold.PLP.part.hbond>
-4.2363

> <Gold.PLP.part.metal>
0.0000

> <Gold.PLP.part.buried>
-3.4472

> <Gold.PLP.part.nonpolar>
-26.6311

> <Gold.PLP.part.repulsive>
0.1716

> <Gold.PLP.ligand.clash>
0.0000

> <Gold.PLP.ligand.torsion>
0.7586

> <Gold.PLP.Chemscore.Hbond>
3.6880

> <Gold.PLP.Chemscore.CHOScore>
0.0000

> <Gold.PLP.Chemscore.Metal>
0.0000

> <Gold.Chemscore.Hbonds>
donor molecule, donor type, donor heavy atom, donor atom, acceptor molecule, acceptor atom, score
      L1  H    12    45       P1  7948  2.00
      P1  H  6896  6909       L1     7  0.70
      P1  H  6931  6943       L1    21  0.98
      P1  H  6934  6947       L1    21  0.01

> <Gold.PLP.Chemscore.Internal.Correction>
0.3537

> <Gold.Rescore>
     Score         DG    S(hbond)    S(metal)    S(lipo)     H(rot)  DE(clash)    DE(int)     intcor
     15.95     -17.83       2.53        0.00      67.36       1.56       0.03       1.84       ----

> <Gold.Chemscore.Fitness>
15.9525

> <Gold.Chemscore.DG>
-17.8254

> <Gold.Chemscore.ZeroCoef>
-5.4800

> <Gold.Chemscore.Hbond>
2.5283

> <Gold.Chemscore.Metal>
0.0000

> <Gold.Chemscore.Lipo>
67.3646

> <Gold.Chemscore.Internal_Hbond>
0.0000

> <Gold.Chemscore.DEClash>
0.0294

> <Gold.Chemscore.DEInternal>
1.8435

> <Gold.Chemscore.Rot>
1.5550

> <Gold.Chemscore.Internal.Correction>
   9.000000E+99

> <Gold.Chemscore.Hbonds>
donor molecule, donor type, donor heavy atom, donor atom, acceptor molecule, acceptor atom, score
      L1  H    12    45       P1  7948  0.60
      P1  H  6896  6909       L1     7  0.58
      P1  H  6931  6943       L1    21  0.50

> <Gold.Chemscore.Hbond.Weighted>
-8.4446

> <Gold.Chemscore.Metal.Weighted>
-0.0000

> <Gold.Chemscore.Lipo.Weighted>
-7.8817

> <Gold.Chemscore.Internal_Hbond.Weighted>
0.0000

> <Gold.Chemscore.DEClash.Weighted>
0.0294

> <Gold.Chemscore.DEInternal.Weighted>
1.8435

> <Gold.Chemscore.Rot.Weighted>
3.9809

> <Gold.Chemscore.Internal.Correction.Weighted>
   9.000000E+99

> <Gold.Protein.RotatedTorsions>
[ 6907 6896 6895 6894 ] final   44.06 input  -60.11 | X-H torsion
[ 7974 7965 7964 7962 ] final  -87.93 input  175.53 | X-H torsion
[ 8008 7997 7996 7995 ] final   73.20 input   59.86 | X-H torsion
[ 10167 10162 10161 10158 ] final  113.70 input  -65.29 | X-H torsion
[ 10718 10713 10712 10709 ] final  -39.57 input   66.30 | X-H torsion
[ 10763 10752 10751 10750 ] final  -49.44 input  -60.55 | X-H torsion
[ 11005 11000 10999 10996 ] final -136.67 input  -57.11 | X-H torsion

> <Gold.Protein.ActiveResidues>
 VAL166  LYS551  ARG553  GLY616  TRP617  ASP618  TYR619  PRO620  LYS621  CYS622 
 ASP623  PHE694  ASN695  SER759  ASP760  ASP761  ALA762  ILE779  LEU786  VAL792 
 PHE793  MET794  SER795  GLU796  ALA797  LYS798  CYS799  TRP800  GLU811  SER814 

> <Gold.Protein.RotatedAtoms>
  152.2279  134.8350  160.0477 H   0  0  0  0  0  0  0  0  0  0  0  0  # atno 6907 bound_to 6896
  151.9109  133.3556  159.3871 H   0  0  0  0  0  0  0  0  0  0  0  0  # atno 6908 bound_to 6896
  150.7017  134.4658  159.5446 H   0  0  0  0  0  0  0  0  0  0  0  0  # atno 6909 bound_to 6896
  145.4599  140.9561  143.1975 H   0  0  0  0  0  0  0  0  0  0  0  0  # atno 7974 bound_to 7965
  155.7802  140.3482  155.5293 H   0  0  0  0  0  0  0  0  0  0  0  0  # atno 8008 bound_to 7997
  155.8736  140.0990  157.1554 H   0  0  0  0  0  0  0  0  0  0  0  0  # atno 8009 bound_to 7997
  154.4019  140.1336  156.4096 H   0  0  0  0  0  0  0  0  0  0  0  0  # atno 8010 bound_to 7997
  139.6442  144.7125  151.2176 H   0  0  0  0  0  0  0  0  0  0  0  0  # atno 10167 bound_to 10162
  156.2910  130.4228  149.8239 H   0  0  0  0  0  0  0  0  0  0  0  0  # atno 10718 bound_to 10713
  154.0941  135.6573  153.4857 H   0  0  0  0  0  0  0  0  0  0  0  0  # atno 10763 bound_to 10752
  153.0311  135.5209  154.7352 H   0  0  0  0  0  0  0  0  0  0  0  0  # atno 10764 bound_to 10752
  154.6484  135.2998  154.9986 H   0  0  0  0  0  0  0  0  0  0  0  0  # atno 10765 bound_to 10752
  140.8783  134.1964  157.4607 H   0  0  0  0  0  0  0  0  0  0  0  0  # atno 11005 bound_to 11000
  144.8009  139.6143  143.7072 LP  0  0  0  0  0  0  0  0  0  0  0  0  # atno 17320 bound_to 7965
  146.2457  139.6093  142.9461 LP  0  0  0  0  0  0  0  0  0  0  0  0  # atno 17321 bound_to 7965
  140.7506  143.6259  150.8468 LP  0  0  0  0  0  0  0  0  0  0  0  0  # atno 17342 bound_to 10162
  139.9900  143.5857  152.2913 LP  0  0  0  0  0  0  0  0  0  0  0  0  # atno 17343 bound_to 10162
  156.5652  130.8400  151.3340 LP  0  0  0  0  0  0  0  0  0  0  0  0  # atno 17370 bound_to 10713
  157.7342  130.9743  150.2018 LP  0  0  0  0  0  0  0  0  0  0  0  0  # atno 17371 bound_to 10713
  139.8717  134.9806  156.5081 LP  0  0  0  0  0  0  0  0  0  0  0  0  # atno 17394 bound_to 11000
  140.8491  133.8145  155.9151 LP  0  0  0  0  0  0  0  0  0  0  0  0  # atno 17395 bound_to 11000

$$$$
