AV-unprocessed.smi:1900|AV-procd|sdf|7711|dock1
  -GOLD-   22720 9453D 1   1.00000     0.00000
 Structure written by MMmdl.
 44 45  0  0  0  0  0  0  0  0  2 V2000
  152.7660  138.6010  155.2239 C   0  0  0  0  0  0  0  0  0  0  0  0
  151.2384  138.7216  155.1986 C   0  0  2  0  0  0  0  0  0  0  0  0
  150.6099  137.8749  154.0726 C   0  0  0  0  0  0  0  0  0  0  0  0
  149.1414  138.0727  154.0037 N   0  3  1  0  0  0  0  0  0  0  0  0
  148.3924  137.3355  155.0560 C   0  0  0  0  0  0  0  0  0  0  0  0
  146.9452  137.8340  155.2068 C   0  0  0  0  0  0  0  0  0  0  0  0
  146.2340  137.9689  153.8500 C   0  0  0  0  0  0  0  0  0  0  0  0
  146.5137  136.8357  152.9755 N   0  0  0  0  0  0  0  0  0  0  0  0
  145.5846  136.0508  152.4119 C   0  0  0  0  0  0  0  0  0  0  0  0
  144.3747  136.1942  152.5906 O   0  0  0  0  0  0  0  0  0  0  0  0
  146.1459  135.1061  151.6398 N   0  0  0  0  0  0  0  0  0  0  0  0
  145.4831  134.1067  150.8832 C   0  0  0  0  0  0  0  0  0  0  0  0
  146.0891  132.9070  150.4210 C   0  0  0  0  0  0  0  0  0  0  0  0
  145.2299  132.1622  149.7405 N   0  0  0  0  0  0  0  0  0  0  0  0
  144.0808  132.8744  149.7651 N   0  0  0  0  0  0  0  0  0  0  0  0
  144.1874  134.0644  150.4502 C   0  0  0  0  0  0  0  0  0  0  0  0
  148.8208  139.5196  153.9038 C   0  0  0  0  0  0  0  0  0  0  0  0
  149.5057  140.3339  155.0225 C   0  0  2  0  0  0  0  0  0  0  0  0
  149.2808  141.8406  154.8558 C   0  0  0  0  0  0  0  0  0  0  0  0
  150.9078  140.0899  154.9870 O   0  0  0  0  0  0  0  0  0  0  0  0
  143.2412  132.5387  149.3147 H   0  0  0  0  0  0  0  0  0  0  0  0
  153.0756  137.5683  155.3858 H   0  0  0  0  0  0  0  0  0  0  0  0
  153.1916  139.2046  156.0260 H   0  0  0  0  0  0  0  0  0  0  0  0
  153.2048  138.9390  154.2847 H   0  0  0  0  0  0  0  0  0  0  0  0
  150.8526  138.4029  156.1682 H   0  0  0  0  0  0  0  0  0  0  0  0
  151.0378  138.1700  153.1136 H   0  0  0  0  0  0  0  0  0  0  0  0
  150.8482  136.8181  154.1996 H   0  0  0  0  0  0  0  0  0  0  0  0
  148.3534  136.2798  154.7838 H   0  0  0  0  0  0  0  0  0  0  0  0
  148.9147  137.3832  156.0115 H   0  0  0  0  0  0  0  0  0  0  0  0
  146.3718  137.1550  155.8374 H   0  0  0  0  0  0  0  0  0  0  0  0
  146.9510  138.7989  155.7156 H   0  0  0  0  0  0  0  0  0  0  0  0
  145.1566  138.0728  153.9896 H   0  0  0  0  0  0  0  0  0  0  0  0
  146.5697  138.8744  153.3440 H   0  0  0  0  0  0  0  0  0  0  0  0
  147.4841  136.6454  152.7714 H   0  0  0  0  0  0  0  0  0  0  0  0
  147.1535  135.1076  151.5769 H   0  0  0  0  0  0  0  0  0  0  0  0
  147.1032  132.5596  150.5529 H   0  0  0  0  0  0  0  0  0  0  0  0
  143.3563  134.7452  150.5601 H   0  0  0  0  0  0  0  0  0  0  0  0
  149.1747  139.8729  152.9342 H   0  0  0  0  0  0  0  0  0  0  0  0
  147.7446  139.6867  153.9085 H   0  0  0  0  0  0  0  0  0  0  0  0
  149.1159  140.0401  155.9979 H   0  0  0  0  0  0  0  0  0  0  0  0
  148.2184  142.0841  154.8857 H   0  0  0  0  0  0  0  0  0  0  0  0
  149.6800  142.1981  153.9061 H   0  0  0  0  0  0  0  0  0  0  0  0
  149.7714  142.3983  155.6537 H   0  0  0  0  0  0  0  0  0  0  0  0
  148.8493  137.6522  153.1326 H   0  0  0  0  0  0  0  0  0  0  0  0
  1  2  1  0  0  0  0
  1 22  1  0  0  0  0
  1 23  1  0  0  0  0
  1 24  1  0  0  0  0
  2 20  1  0  0  0  0
  2  3  1  0  0  0  0
  2 25  1  0  0  0  0
  3  4  1  0  0  0  0
  3 26  1  0  0  0  0
  3 27  1  0  0  0  0
  4  5  1  0  0  0  0
  4 17  1  0  0  0  0
  4 44  1  0  0  0  0
  5  6  1  0  0  0  0
  5 28  1  0  0  0  0
  5 29  1  0  0  0  0
  6  7  1  0  0  0  0
  6 30  1  0  0  0  0
  6 31  1  0  0  0  0
  7  8  1  0  0  0  0
  7 32  1  0  0  0  0
  7 33  1  0  0  0  0
  8  9  1  0  0  0  0
  8 34  1  0  0  0  0
  9 10  2  0  0  0  0
  9 11  1  0  0  0  0
 11 12  1  0  0  0  0
 11 35  1  0  0  0  0
 12 16  2  0  0  0  0
 12 13  1  0  0  0  0
 13 14  2  0  0  0  0
 13 36  1  0  0  0  0
 14 15  1  0  0  0  0
 15 21  1  0  0  0  0
 15 16  1  0  0  0  0
 16 37  1  0  0  0  0
 17 18  1  0  0  0  0
 17 38  1  0  0  0  0
 17 39  1  0  0  0  0
 18 19  1  0  0  0  0
 18 20  1  0  0  0  0
 18 40  1  0  0  0  0
 19 41  1  0  0  0  0
 19 42  1  0  0  0  0
 19 43  1  0  0  0  0
M  CHG  1   4   1
M  END
> <s_m_source_file>
AV-unprocessed.smi

> <i_m_source_file_index>
1900

> <i_lp_mmshare_version>
43012

> <i_f3d_flags>
0

> <s_epik_input>
W0NIM11bQ0BASF0xW0NIMl1OKFtDSDJdW0NASF0oTzEpW0NIM10pW0NIMl1bQ0gyXVtDSDJdW05IXUMoPU8pW05IXWMyW2NIXW5bbkhdW2NIXTI=

> <s_epik_cmdline>
J2VwaWtfcHl0aG9uJywgJy1waCcsICc3LjAnLCAnLXRuJywgJzgnLCAnLW1hJywgJzIwMCcsICctbWV0YWxfYmluZGluZycsICctaW1hZScsICc8aW5maWxlLm1hZT4nLCAnLW9tYWUnLCAnPG91dGZpbGUubWFlPic=

> <r_lp_tautomer_probability>
0.5

> <r_epik_Ionization_Penalty>
0.270543

> <r_epik_Ionization_Penalty_Charging>
0.270496

> <r_epik_Ionization_Penalty_Neutral>
4.67091e-05

> <r_epik_State_Penalty>
0.262618

> <r_epik_Charging_Adjusted_Penalty>
0.533114

> <i_epik_Tot_Q>
1

> <i_epik_Tot_abs_Q>
1

> <r_epik_Metal_State_Penalty>
0.262618

> <b_epik_Metal_Only>
0

> <s_lp_Force_Field>
OPLS_2005

> <r_lp_Energy>
20.3326

> <b_lp_Chiralities_Consistent>
1

> <s_lp_Variant>
AV-unprocessed.smi:1900-3

> <Gold.Version>
5.8.1

> <Gold.Id.Protein>
6NUR|6NUR_protein|mol2

> <Gold.PLP.Fitness>
48.2267

> <Gold.PLP.PLP>
-28.6682

> <Gold.PLP.part.hbond>
-4.0000

> <Gold.PLP.part.metal>
0.0000

> <Gold.PLP.part.buried>
-1.5604

> <Gold.PLP.part.nonpolar>
-24.9447

> <Gold.PLP.part.repulsive>
0.5329

> <Gold.PLP.ligand.clash>
0.0000

> <Gold.PLP.ligand.torsion>
0.3889

> <Gold.PLP.Chemscore.Hbond>
4.9600

> <Gold.PLP.Chemscore.CHOScore>
1.7986

> <Gold.PLP.Chemscore.Metal>
0.0000

> <Gold.Chemscore.Hbonds>
donor molecule, donor type, donor heavy atom, donor atom, acceptor molecule, acceptor atom, score
      L1  H     4    44       P1  7948  2.00
      L1  H     8    34       P1  7948  1.00
      L1  H    11    35       P1  7948  0.81
      P1  H  7989  7998       L1    20  1.00
      L1  C    13    36       P1 10747  0.98
      L1  C    16    37       P1 10186  0.85

> <Gold.PLP.Chemscore.Internal.Correction>
0.0604

> <Gold.Rescore>
     Score         DG    S(hbond)    S(metal)    S(lipo)     H(rot)  DE(clash)    DE(int)     intcor
     18.44     -19.77       3.20        0.00      73.11       1.93       0.34       0.99       ----

> <Gold.Chemscore.Fitness>
18.4372

> <Gold.Chemscore.DG>
-19.7721

> <Gold.Chemscore.ZeroCoef>
-5.4800

> <Gold.Chemscore.Hbond>
3.2009

> <Gold.Chemscore.Metal>
0.0000

> <Gold.Chemscore.Lipo>
73.1117

> <Gold.Chemscore.Internal_Hbond>
0.0000

> <Gold.Chemscore.DEClash>
0.3435

> <Gold.Chemscore.DEInternal>
0.9914

> <Gold.Chemscore.Rot>
1.9347

> <Gold.Chemscore.Internal.Correction>
   9.000000E+99

> <Gold.Chemscore.Hbonds>
donor molecule, donor type, donor heavy atom, donor atom, acceptor molecule, acceptor atom, score
      L1  H     4    44       P1  7948  0.94
      L1  H     8    34       P1  7948  1.00
      L1  H    11    35       P1  7948  0.69
      P1  H  7989  7998       L1    20  0.69

> <Gold.Chemscore.Hbond.Weighted>
-10.6909

> <Gold.Chemscore.Metal.Weighted>
-0.0000

> <Gold.Chemscore.Lipo.Weighted>
-8.5541

> <Gold.Chemscore.Internal_Hbond.Weighted>
0.0000

> <Gold.Chemscore.DEClash.Weighted>
0.3435

> <Gold.Chemscore.DEInternal.Weighted>
0.9914

> <Gold.Chemscore.Rot.Weighted>
4.9528

> <Gold.Chemscore.Internal.Correction.Weighted>
   9.000000E+99

> <Gold.Protein.RotatedTorsions>
[ 6907 6896 6895 6894 ] final   83.58 input  -60.11 | X-H torsion
[ 7974 7965 7964 7962 ] final  152.02 input  175.53 | X-H torsion
[ 8008 7997 7996 7995 ] final   71.52 input   59.86 | X-H torsion
[ 10167 10162 10161 10158 ] final    9.70 input  -65.29 | X-H torsion
[ 10718 10713 10712 10709 ] final -178.98 input   66.30 | X-H torsion
[ 10763 10752 10751 10750 ] final  -69.25 input  -60.55 | X-H torsion
[ 11005 11000 10999 10996 ] final   64.88 input  -57.11 | X-H torsion

> <Gold.Protein.ActiveResidues>
 VAL166  LYS551  ARG553  GLY616  TRP617  ASP618  TYR619  PRO620  LYS621  CYS622 
 ASP623  PHE694  ASN695  SER759  ASP760  ASP761  ALA762  ILE779  LEU786  VAL792 
 PHE793  MET794  SER795  GLU796  ALA797  LYS798  CYS799  TRP800  GLU811  SER814 

> <Gold.Protein.RotatedAtoms>
  152.5331  134.2874  159.9029 H   0  0  0  0  0  0  0  0  0  0  0  0  # atno 6907 bound_to 6896
  151.2827  133.4196  159.2635 H   0  0  0  0  0  0  0  0  0  0  0  0  # atno 6908 bound_to 6896
  151.0270  134.9526  159.8147 H   0  0  0  0  0  0  0  0  0  0  0  0  # atno 6909 bound_to 6896
  144.8252  139.6613  143.6083 H   0  0  0  0  0  0  0  0  0  0  0  0  # atno 7974 bound_to 7965
  155.7551  140.3488  155.5169 H   0  0  0  0  0  0  0  0  0  0  0  0  # atno 8008 bound_to 7997
  155.8968  140.1027  157.1400 H   0  0  0  0  0  0  0  0  0  0  0  0  # atno 8009 bound_to 7997
  154.4039  140.1294  156.4372 H   0  0  0  0  0  0  0  0  0  0  0  0  # atno 8010 bound_to 7997
  140.6239  143.8144  150.7209 H   0  0  0  0  0  0  0  0  0  0  0  0  # atno 10167 bound_to 10162
  156.8524  130.9723  151.3091 H   0  0  0  0  0  0  0  0  0  0  0  0  # atno 10718 bound_to 10713
  154.4007  135.6031  153.5896 H   0  0  0  0  0  0  0  0  0  0  0  0  # atno 10763 bound_to 10752
  152.9788  135.5906  154.4187 H   0  0  0  0  0  0  0  0  0  0  0  0  # atno 10764 bound_to 10752
  154.3985  135.2842  155.2089 H   0  0  0  0  0  0  0  0  0  0  0  0  # atno 10765 bound_to 10752
  139.9930  134.6561  156.0058 H   0  0  0  0  0  0  0  0  0  0  0  0  # atno 11005 bound_to 11000
  146.2557  139.6297  142.9397 LP  0  0  0  0  0  0  0  0  0  0  0  0  # atno 17320 bound_to 7965
  145.5017  141.0437  143.2537 LP  0  0  0  0  0  0  0  0  0  0  0  0  # atno 17321 bound_to 7965
  140.1740  143.4170  152.1980 LP  0  0  0  0  0  0  0  0  0  0  0  0  # atno 17342 bound_to 10162
  139.5462  144.7300  151.4575 LP  0  0  0  0  0  0  0  0  0  0  0  0  # atno 17343 bound_to 10162
  157.6296  130.8719  149.9250 LP  0  0  0  0  0  0  0  0  0  0  0  0  # atno 17370 bound_to 10713
  156.0821  130.3672  150.0560 LP  0  0  0  0  0  0  0  0  0  0  0  0  # atno 17371 bound_to 10713
  141.1581  133.6541  156.4229 LP  0  0  0  0  0  0  0  0  0  0  0  0  # atno 17394 bound_to 11000
  140.4872  134.6610  157.5195 LP  0  0  0  0  0  0  0  0  0  0  0  0  # atno 17395 bound_to 11000

$$$$
