AV-unprocessed.smi:2324|AV-procd|sdf|9292|dock5
  -GOLD-   2272012513D 1   1.00000     0.00000
 Structure written by MMmdl.
 37 39  0  0  0  0  0  0  0  0  1 V2000
  151.5168  134.6586  155.3134 O   0  0  0  0  0  0  0  0  0  0  0  0
  150.7827  135.0541  154.4092 C   0  0  0  0  0  0  0  0  0  0  0  0
  150.1636  134.1809  153.5860 N   0  0  0  0  0  0  0  0  0  0  0  0
  150.1749  132.7563  153.5372 C   0  0  0  0  0  0  0  0  0  0  0  0
  149.0920  132.1818  152.8374 C   0  0  0  0  0  0  0  0  0  0  0  0
  149.0246  130.7815  152.7391 C   0  0  0  0  0  0  0  0  0  0  0  0
  150.0526  130.0436  153.3496 C   0  0  0  0  0  0  0  0  0  0  0  0
  151.0732  130.6330  154.0091 N   0  0  0  0  0  0  0  0  0  0  0  0
  151.1287  131.9662  154.0982 N   0  0  0  0  0  0  0  0  0  0  0  0
  150.5547  136.3576  154.1780 N   0  0  0  0  0  0  0  0  0  0  0  0
  151.1262  137.4676  154.9337 C   0  0  1  0  0  0  0  0  0  0  0  0
  152.3371  138.0654  154.1976 C   0  0  0  0  0  0  0  0  0  0  0  0
  152.8310  139.3348  154.9087 C   0  0  0  0  0  0  0  0  0  0  0  0
  151.7682  140.2755  155.0202 O   0  0  0  0  0  0  0  0  0  0  0  0
  150.6801  139.8012  155.8076 C   0  0  1  0  0  0  0  0  0  0  0  0
  149.6741  140.9266  155.9453 C   0  0  0  0  0  0  0  0  0  0  0  0
  148.2198  140.6324  156.2301 C   0  0  0  0  0  0  0  0  0  0  0  0
  148.6309  141.1653  154.8786 C   0  0  0  0  0  0  0  0  0  0  0  0
  150.0650  138.5590  155.1364 C   0  0  0  0  0  0  0  0  0  0  0  0
  149.5879  134.6151  152.8795 H   0  0  0  0  0  0  0  0  0  0  0  0
  148.3274  132.7973  152.3858 H   0  0  0  0  0  0  0  0  0  0  0  0
  148.2167  130.2922  152.2157 H   0  0  0  0  0  0  0  0  0  0  0  0
  150.0587  128.9646  153.3085 H   0  0  0  0  0  0  0  0  0  0  0  0
  149.9375  136.5978  153.4148 H   0  0  0  0  0  0  0  0  0  0  0  0
  151.4438  137.1113  155.9155 H   0  0  0  0  0  0  0  0  0  0  0  0
  153.1456  137.3360  154.1360 H   0  0  0  0  0  0  0  0  0  0  0  0
  152.0618  138.3144  153.1718 H   0  0  0  0  0  0  0  0  0  0  0  0
  153.2269  139.0977  155.8973 H   0  0  0  0  0  0  0  0  0  0  0  0
  153.6437  139.7889  154.3419 H   0  0  0  0  0  0  0  0  0  0  0  0
  151.0455  139.5392  156.8024 H   0  0  0  0  0  0  0  0  0  0  0  0
  150.0782  141.8190  156.4200 H   0  0  0  0  0  0  0  0  0  0  0  0
  147.9149  139.5893  156.2871 H   0  0  0  0  0  0  0  0  0  0  0  0
  147.6925  141.3093  156.8994 H   0  0  0  0  0  0  0  0  0  0  0  0
  148.3786  142.1979  154.6461 H   0  0  0  0  0  0  0  0  0  0  0  0
  148.5989  140.4764  154.0368 H   0  0  0  0  0  0  0  0  0  0  0  0
  149.6370  138.8416  154.1730 H   0  0  0  0  0  0  0  0  0  0  0  0
  149.2430  138.1743  155.7415 H   0  0  0  0  0  0  0  0  0  0  0  0
  1  2  2  0  0  0  0
  2  3  1  0  0  0  0
  2 10  1  0  0  0  0
  3  4  1  0  0  0  0
  3 20  1  0  0  0  0
  4  9  1  0  0  0  0
  4  5  2  0  0  0  0
  5  6  1  0  0  0  0
  5 21  1  0  0  0  0
  6  7  2  0  0  0  0
  6 22  1  0  0  0  0
  7  8  1  0  0  0  0
  7 23  1  0  0  0  0
  8  9  2  0  0  0  0
 10 11  1  0  0  0  0
 10 24  1  0  0  0  0
 11 19  1  0  0  0  0
 11 12  1  0  0  0  0
 11 25  1  0  0  0  0
 12 13  1  0  0  0  0
 12 26  1  0  0  0  0
 12 27  1  0  0  0  0
 13 14  1  0  0  0  0
 13 28  1  0  0  0  0
 13 29  1  0  0  0  0
 14 15  1  0  0  0  0
 15 16  1  0  0  0  0
 15 19  1  0  0  0  0
 15 30  1  0  0  0  0
 16 18  1  0  0  0  0
 16 17  1  0  0  0  0
 16 31  1  0  0  0  0
 17 18  1  0  0  0  0
 17 32  1  0  0  0  0
 17 33  1  0  0  0  0
 18 34  1  0  0  0  0
 18 35  1  0  0  0  0
 19 36  1  0  0  0  0
 19 37  1  0  0  0  0
M  END
> <s_m_source_file>
AV-unprocessed.smi

> <i_m_source_file_index>
2324

> <i_lp_mmshare_version>
43012

> <i_f3d_flags>
0

> <s_epik_input>
bjFuW2NIXVtjSF1bY0hdYzFbTkhdQyg9TylbTkhdW0NAQEhdMltDSDJdW0NIMl1PW0NASF0oW0NIMl0yKVtDSF0zW0NIMl1bQ0gyXTM=

> <s_epik_cmdline>
J2VwaWtfcHl0aG9uJywgJy1waCcsICc3LjAnLCAnLXRuJywgJzgnLCAnLW1hJywgJzIwMCcsICctbWV0YWxfYmluZGluZycsICctaW1hZScsICc8aW5maWxlLm1hZT4nLCAnLW9tYWUnLCAnPG91dGZpbGUubWFlPic=

> <r_lp_tautomer_probability>
1

> <r_epik_Ionization_Penalty>
0.00521499

> <r_epik_Ionization_Penalty_Charging>
0

> <r_epik_Ionization_Penalty_Neutral>
0.00521499

> <r_epik_State_Penalty>
-0

> <r_epik_Charging_Adjusted_Penalty>
0

> <i_epik_Tot_Q>
0

> <i_epik_Tot_abs_Q>
0

> <r_epik_Metal_State_Penalty>
-0

> <b_epik_Metal_Only>
0

> <s_lp_Force_Field>
OPLS_2005

> <r_lp_Energy>
26.0147

> <b_lp_Chiralities_Consistent>
1

> <s_lp_Variant>
AV-unprocessed.smi:2324-2

> <Gold.Version>
5.8.1

> <Gold.Id.Protein>
6NUR|6NUR_protein|mol2

> <Gold.PLP.Fitness>
40.4276

> <Gold.PLP.PLP>
-33.4269

> <Gold.PLP.part.hbond>
-3.3929

> <Gold.PLP.part.metal>
0.0000

> <Gold.PLP.part.buried>
-1.1917

> <Gold.PLP.part.nonpolar>
-29.4935

> <Gold.PLP.part.repulsive>
0.2076

> <Gold.PLP.ligand.clash>
0.0000

> <Gold.PLP.ligand.torsion>
0.9113

> <Gold.PLP.Chemscore.Hbond>
2.5840

> <Gold.PLP.Chemscore.CHOScore>
0.0000

> <Gold.PLP.Chemscore.Metal>
0.0000

> <Gold.Chemscore.Hbonds>
donor molecule, donor type, donor heavy atom, donor atom, acceptor molecule, acceptor atom, score
      L1  H    10    24       P1  7948  0.85
      P1  H  7989  7998       L1    14  0.88
      P1  H 10752 10763       L1     1  0.05
      L1  C     7    23       P1 10737  0.20

> <Gold.PLP.Chemscore.Internal.Correction>
1.0712

> <Gold.Rescore>
     Score         DG    S(hbond)    S(metal)    S(lipo)     H(rot)  DE(clash)    DE(int)     intcor
     14.62     -16.83       2.12        0.00      63.67       1.25       0.05       2.16       ----

> <Gold.Chemscore.Fitness>
14.6205

> <Gold.Chemscore.DG>
-16.8310

> <Gold.Chemscore.ZeroCoef>
-5.4800

> <Gold.Chemscore.Hbond>
2.1242

> <Gold.Chemscore.Metal>
0.0000

> <Gold.Chemscore.Lipo>
63.6742

> <Gold.Chemscore.Internal_Hbond>
0.0000

> <Gold.Chemscore.DEClash>
0.0465

> <Gold.Chemscore.DEInternal>
2.1640

> <Gold.Chemscore.Rot>
1.2476

> <Gold.Chemscore.Internal.Correction>
   9.000000E+99

> <Gold.Chemscore.Hbonds>
donor molecule, donor type, donor heavy atom, donor atom, acceptor molecule, acceptor atom, score
      L1  H    10    24       P1  7948  0.14
      P1  H  7989  7998       L1    14  0.34

> <Gold.Chemscore.Hbond.Weighted>
-7.0949

> <Gold.Chemscore.Metal.Weighted>
-0.0000

> <Gold.Chemscore.Lipo.Weighted>
-7.4499

> <Gold.Chemscore.Internal_Hbond.Weighted>
0.0000

> <Gold.Chemscore.DEClash.Weighted>
0.0465

> <Gold.Chemscore.DEInternal.Weighted>
2.1640

> <Gold.Chemscore.Rot.Weighted>
3.1938

> <Gold.Chemscore.Internal.Correction.Weighted>
   9.000000E+99

> <Gold.Protein.RotatedTorsions>
[ 6907 6896 6895 6894 ] final   44.15 input  -60.11 | X-H torsion
[ 7974 7965 7964 7962 ] final   81.18 input  175.53 | X-H torsion
[ 8008 7997 7996 7995 ] final  -15.57 input   59.86 | X-H torsion
[ 10167 10162 10161 10158 ] final  173.53 input  -65.29 | X-H torsion
[ 10718 10713 10712 10709 ] final   81.62 input   66.30 | X-H torsion
[ 10763 10752 10751 10750 ] final   39.02 input  -60.55 | X-H torsion
[ 11005 11000 10999 10996 ] final   48.38 input  -57.11 | X-H torsion

> <Gold.Protein.ActiveResidues>
 VAL166  LYS551  ARG553  GLY616  TRP617  ASP618  TYR619  PRO620  LYS621  CYS622 
 ASP623  PHE694  ASN695  SER759  ASP760  ASP761  ALA762  ILE779  LEU786  VAL792 
 PHE793  MET794  SER795  GLU796  ALA797  LYS798  CYS799  TRP800  GLU811  SER814 

> <Gold.Protein.RotatedAtoms>
  152.2290  134.8340  160.0475 H   0  0  0  0  0  0  0  0  0  0  0  0  # atno 6907 bound_to 6896
  151.9096  133.3553  159.3867 H   0  0  0  0  0  0  0  0  0  0  0  0  # atno 6908 bound_to 6896
  150.7020  134.4670  159.5452 H   0  0  0  0  0  0  0  0  0  0  0  0  # atno 6909 bound_to 6896
  145.6415  139.2426  143.2028 H   0  0  0  0  0  0  0  0  0  0  0  0  # atno 7974 bound_to 7965
  154.5120  140.2192  155.9138 H   0  0  0  0  0  0  0  0  0  0  0  0  # atno 8008 bound_to 7997
  156.1563  140.3151  155.8697 H   0  0  0  0  0  0  0  0  0  0  0  0  # atno 8009 bound_to 7997
  155.3840  140.0474  157.3033 H   0  0  0  0  0  0  0  0  0  0  0  0  # atno 8010 bound_to 7997
  139.5111  144.3250  152.0166 H   0  0  0  0  0  0  0  0  0  0  0  0  # atno 10167 bound_to 10162
  157.6837  131.0012  150.2254 H   0  0  0  0  0  0  0  0  0  0  0  0  # atno 10718 bound_to 10713
  152.9981  135.6233  154.2398 H   0  0  0  0  0  0  0  0  0  0  0  0  # atno 10763 bound_to 10752
  154.2138  135.2799  155.2950 H   0  0  0  0  0  0  0  0  0  0  0  0  # atno 10764 bound_to 10752
  154.5584  135.5712  153.7044 H   0  0  0  0  0  0  0  0  0  0  0  0  # atno 10765 bound_to 10752
  140.1196  134.4847  155.8609 H   0  0  0  0  0  0  0  0  0  0  0  0  # atno 11005 bound_to 11000
  146.1277  140.7227  142.9427 LP  0  0  0  0  0  0  0  0  0  0  0  0  # atno 17320 bound_to 7965
  144.7155  140.4195  143.7047 LP  0  0  0  0  0  0  0  0  0  0  0  0  # atno 17321 bound_to 7965
  140.2691  144.3984  150.6158 LP  0  0  0  0  0  0  0  0  0  0  0  0  # atno 17342 bound_to 10162
  140.6102  143.2169  151.6902 LP  0  0  0  0  0  0  0  0  0  0  0  0  # atno 17343 bound_to 10162
  156.2897  130.3744  149.7853 LP  0  0  0  0  0  0  0  0  0  0  0  0  # atno 17370 bound_to 10713
  156.5517  130.8344  151.3301 LP  0  0  0  0  0  0  0  0  0  0  0  0  # atno 17371 bound_to 10713
  141.2149  133.6756  156.6862 LP  0  0  0  0  0  0  0  0  0  0  0  0  # atno 17394 bound_to 11000
  140.2983  134.8184  157.4076 LP  0  0  0  0  0  0  0  0  0  0  0  0  # atno 17395 bound_to 11000

$$$$
