AV-unprocessed.smi:3251|AV-procd|sdf|12435|dock9
  -GOLD-   2272018323D 1   1.00000     0.00000
 Structure written by MMmdl.
 41 42  0  0  0  0  0  0  0  0  2 V2000
  153.4674  141.8010  162.9232 C   0  0  0  0  0  0  0  0  0  0  0  0
  152.9123  142.6347  161.8045 C   0  0  0  0  0  0  0  0  0  0  0  0
  152.4349  143.9749  161.8657 C   0  0  0  0  0  0  0  0  0  0  0  0
  152.0034  144.4208  160.6970 N   0  0  0  0  0  0  0  0  0  0  0  0
  152.1915  143.3856  159.8511 N   0  0  0  0  0  0  0  0  0  0  0  0
  151.8011  143.5105  158.4584 C   0  0  0  0  0  0  0  0  0  0  0  0
  150.6551  142.5513  158.1029 C   0  0  0  0  0  0  0  0  0  0  0  0
  150.4265  142.5059  156.6417 N   0  3  0  0  0  0  0  0  0  0  0  0
  149.9662  141.2021  156.1136 C   0  0  2  0  0  0  0  0  0  0  0  0
  151.1814  140.2877  155.8909 C   0  0  0  0  0  0  0  0  0  0  0  0
  149.1896  141.3772  154.7924 C   0  0  0  0  0  0  0  0  0  0  0  0
  149.7054  140.9864  153.7436 O   0  0  0  0  0  0  0  0  0  0  0  0
  147.9630  141.9420  154.8154 N   0  0  0  0  0  0  0  0  0  0  0  0
  147.0940  142.1783  153.6623 C   0  0  0  0  0  0  0  0  0  0  0  0
  145.9576  143.0632  154.1747 C   0  0  0  0  0  0  0  0  0  0  0  0
  145.8810  142.7473  155.6613 C   0  0  0  0  0  0  0  0  0  0  0  0
  147.3211  142.4069  156.0442 C   0  0  0  0  0  0  0  0  0  0  0  0
  152.7392  142.2952  160.4926 C   0  0  0  0  0  0  0  0  0  0  0  0
  153.7912  142.4148  163.7641 H   0  0  0  0  0  0  0  0  0  0  0  0
  154.3301  141.2172  162.6018 H   0  0  0  0  0  0  0  0  0  0  0  0
  152.7267  141.0979  163.3045 H   0  0  0  0  0  0  0  0  0  0  0  0
  152.3878  144.6323  162.7215 H   0  0  0  0  0  0  0  0  0  0  0  0
  151.5230  144.5456  158.2531 H   0  0  0  0  0  0  0  0  0  0  0  0
  152.6729  143.2921  157.8405 H   0  0  0  0  0  0  0  0  0  0  0  0
  150.8865  141.5447  158.4520 H   0  0  0  0  0  0  0  0  0  0  0  0
  149.7478  142.8650  158.6210 H   0  0  0  0  0  0  0  0  0  0  0  0
  149.7304  143.1994  156.4037 H   0  0  0  0  0  0  0  0  0  0  0  0
  149.3296  140.7522  156.8757 H   0  0  0  0  0  0  0  0  0  0  0  0
  150.8855  139.3070  155.5176 H   0  0  0  0  0  0  0  0  0  0  0  0
  151.7261  140.1289  156.8221 H   0  0  0  0  0  0  0  0  0  0  0  0
  151.8789  140.7173  155.1703 H   0  0  0  0  0  0  0  0  0  0  0  0
  147.6151  142.6580  152.8336 H   0  0  0  0  0  0  0  0  0  0  0  0
  146.7005  141.2230  153.3119 H   0  0  0  0  0  0  0  0  0  0  0  0
  146.2223  144.1129  154.0392 H   0  0  0  0  0  0  0  0  0  0  0  0
  145.0154  142.8868  153.6547 H   0  0  0  0  0  0  0  0  0  0  0  0
  145.4703  143.5694  156.2485 H   0  0  0  0  0  0  0  0  0  0  0  0
  145.2446  141.8751  155.8171 H   0  0  0  0  0  0  0  0  0  0  0  0
  147.3523  141.6549  156.8344 H   0  0  0  0  0  0  0  0  0  0  0  0
  147.8419  143.2966  156.4023 H   0  0  0  0  0  0  0  0  0  0  0  0
  152.9538  141.3746  159.9695 H   0  0  0  0  0  0  0  0  0  0  0  0
  151.2927  142.7525  156.1852 H   0  0  0  0  0  0  0  0  0  0  0  0
  1  2  1  0  0  0  0
  1 19  1  0  0  0  0
  1 20  1  0  0  0  0
  1 21  1  0  0  0  0
  2 18  2  0  0  0  0
  2  3  1  0  0  0  0
  3  4  2  0  0  0  0
  3 22  1  0  0  0  0
  4  5  1  0  0  0  0
  5  6  1  0  0  0  0
  5 18  1  0  0  0  0
  6  7  1  0  0  0  0
  6 23  1  0  0  0  0
  6 24  1  0  0  0  0
  7  8  1  0  0  0  0
  7 25  1  0  0  0  0
  7 26  1  0  0  0  0
  8  9  1  0  0  0  0
  8 27  1  0  0  0  0
  8 41  1  0  0  0  0
  9 10  1  0  0  0  0
  9 11  1  0  0  0  0
  9 28  1  0  0  0  0
 10 29  1  0  0  0  0
 10 30  1  0  0  0  0
 10 31  1  0  0  0  0
 11 12  2  0  0  0  0
 11 13  1  0  0  0  0
 13 17  1  0  0  0  0
 13 14  1  0  0  0  0
 14 15  1  0  0  0  0
 14 32  1  0  0  0  0
 14 33  1  0  0  0  0
 15 16  1  0  0  0  0
 15 34  1  0  0  0  0
 15 35  1  0  0  0  0
 16 17  1  0  0  0  0
 16 36  1  0  0  0  0
 16 37  1  0  0  0  0
 17 38  1  0  0  0  0
 17 39  1  0  0  0  0
 18 40  1  0  0  0  0
M  CHG  1   8   1
M  END
> <s_m_source_file>
AV-unprocessed.smi

> <i_m_source_file_index>
3251

> <i_lp_mmshare_version>
43012

> <i_f3d_flags>
0

> <s_epik_input>
W0NIM11jMVtjSF1ubihbY0hdMSlbQ0gyXVtDSDJdW05IXVtDQEhdKFtDSDNdKUMoPU8pTjJbQ0gyXVtDSDJdW0NIMl1bQ0gyXTI=

> <s_epik_cmdline>
J2VwaWtfcHl0aG9uJywgJy1waCcsICc3LjAnLCAnLXRuJywgJzgnLCAnLW1hJywgJzIwMCcsICctbWV0YWxfYmluZGluZycsICctaW1hZScsICc8aW5maWxlLm1hZT4nLCAnLW9tYWUnLCAnPG91dGZpbGUubWFlPic=

> <r_lp_tautomer_probability>
1

> <r_epik_Ionization_Penalty>
0.203173

> <r_epik_Ionization_Penalty_Charging>
0.203168

> <r_epik_Ionization_Penalty_Neutral>
5.06494e-06

> <r_epik_State_Penalty>
0.193072

> <r_epik_Charging_Adjusted_Penalty>
0.39624

> <i_epik_Tot_Q>
1

> <i_epik_Tot_abs_Q>
1

> <r_epik_Metal_State_Penalty>
0.193587

> <b_epik_Metal_Only>
0

> <s_lp_Force_Field>
OPLS_2005

> <r_lp_Energy>
29.5605

> <b_lp_Chiralities_Consistent>
1

> <s_lp_Variant>
AV-unprocessed.smi:3251-1

> <Gold.Version>
5.8.1

> <Gold.Id.Protein>
6NUR|6NUR_protein|mol2

> <Gold.PLP.Fitness>
52.1778

> <Gold.PLP.PLP>
-43.6244

> <Gold.PLP.part.hbond>
-3.0000

> <Gold.PLP.part.metal>
0.0000

> <Gold.PLP.part.buried>
-4.3841

> <Gold.PLP.part.nonpolar>
-38.3358

> <Gold.PLP.part.repulsive>
2.6340

> <Gold.PLP.ligand.clash>
0.0000

> <Gold.PLP.ligand.torsion>
0.7415

> <Gold.PLP.Chemscore.Hbond>
3.3356

> <Gold.PLP.Chemscore.CHOScore>
0.0000

> <Gold.PLP.Chemscore.Metal>
0.0000

> <Gold.Chemscore.Hbonds>
donor molecule, donor type, donor heavy atom, donor atom, acceptor molecule, acceptor atom, score
      L1  H     8    27       P1  8028  2.00
      P1  H  7989  7998       L1    12  0.37
      P1  H  8011  8017       L1    12  0.96

> <Gold.PLP.Chemscore.Internal.Correction>
0.0296

> <Gold.Rescore>
     Score         DG    S(hbond)    S(metal)    S(lipo)     H(rot)  DE(clash)    DE(int)     intcor
     15.83     -18.32       1.70        0.00      99.84       1.76       1.69       0.81       ----

> <Gold.Chemscore.Fitness>
15.8265

> <Gold.Chemscore.DG>
-18.3208

> <Gold.Chemscore.ZeroCoef>
-5.4800

> <Gold.Chemscore.Hbond>
1.6962

> <Gold.Chemscore.Metal>
0.0000

> <Gold.Chemscore.Lipo>
99.8353

> <Gold.Chemscore.Internal_Hbond>
0.0000

> <Gold.Chemscore.DEClash>
1.6869

> <Gold.Chemscore.DEInternal>
0.8074

> <Gold.Chemscore.Rot>
1.7599

> <Gold.Chemscore.Internal.Correction>
   9.000000E+99

> <Gold.Chemscore.Hbonds>
donor molecule, donor type, donor heavy atom, donor atom, acceptor molecule, acceptor atom, score
      L1  H     8    27       P1  8028  1.00
      P1  H  7989  7998       L1    12  0.36
      P1  H  8011  8017       L1    12  0.75

> <Gold.Chemscore.Hbond.Weighted>
-5.6654

> <Gold.Chemscore.Metal.Weighted>
-0.0000

> <Gold.Chemscore.Lipo.Weighted>
-11.6807

> <Gold.Chemscore.Internal_Hbond.Weighted>
0.0000

> <Gold.Chemscore.DEClash.Weighted>
1.6869

> <Gold.Chemscore.DEInternal.Weighted>
0.8074

> <Gold.Chemscore.Rot.Weighted>
4.5053

> <Gold.Chemscore.Internal.Correction.Weighted>
   9.000000E+99

> <Gold.Protein.RotatedTorsions>
[ 6907 6896 6895 6894 ] final -107.69 input  -60.11 | X-H torsion
[ 7974 7965 7964 7962 ] final -100.66 input  175.53 | X-H torsion
[ 8008 7997 7996 7995 ] final   38.24 input   59.86 | X-H torsion
[ 10167 10162 10161 10158 ] final  -21.00 input  -65.29 | X-H torsion
[ 10718 10713 10712 10709 ] final  -13.92 input   66.30 | X-H torsion
[ 10763 10752 10751 10750 ] final  -53.61 input  -60.55 | X-H torsion
[ 11005 11000 10999 10996 ] final   72.04 input  -57.11 | X-H torsion

> <Gold.Protein.ActiveResidues>
 VAL166  LYS551  ARG553  GLY616  TRP617  ASP618  TYR619  PRO620  LYS621  CYS622 
 ASP623  PHE694  ASN695  SER759  ASP760  ASP761  ALA762  ILE779  LEU786  VAL792 
 PHE793  MET794  SER795  GLU796  ALA797  LYS798  CYS799  TRP800  GLU811  SER814 

> <Gold.Protein.RotatedAtoms>
  150.7459  133.9788  159.3569 H   0  0  0  0  0  0  0  0  0  0  0  0  # atno 6907 bound_to 6896
  151.7728  135.0780  160.0372 H   0  0  0  0  0  0  0  0  0  0  0  0  # atno 6908 bound_to 6896
  152.3327  133.5940  159.5857 H   0  0  0  0  0  0  0  0  0  0  0  0  # atno 6909 bound_to 6896
  145.2917  140.9354  143.2874 H   0  0  0  0  0  0  0  0  0  0  0  0  # atno 7974 bound_to 7965
  155.2169  140.3328  155.4321 H   0  0  0  0  0  0  0  0  0  0  0  0  # atno 8008 bound_to 7997
  156.2349  140.1867  156.7195 H   0  0  0  0  0  0  0  0  0  0  0  0  # atno 8009 bound_to 7997
  154.6041  140.0618  156.9393 H   0  0  0  0  0  0  0  0  0  0  0  0  # atno 8010 bound_to 7997
  140.7279  143.4669  151.0301 H   0  0  0  0  0  0  0  0  0  0  0  0  # atno 10167 bound_to 10162
  156.6234  130.4881  149.6156 H   0  0  0  0  0  0  0  0  0  0  0  0  # atno 10718 bound_to 10713
  154.1615  135.6474  153.4987 H   0  0  0  0  0  0  0  0  0  0  0  0  # atno 10763 bound_to 10752
  153.0109  135.5362  154.6706 H   0  0  0  0  0  0  0  0  0  0  0  0  # atno 10764 bound_to 10752
  154.6020  135.2945  155.0496 H   0  0  0  0  0  0  0  0  0  0  0  0  # atno 10765 bound_to 10752
  139.9511  134.7225  156.0860 H   0  0  0  0  0  0  0  0  0  0  0  0  # atno 11005 bound_to 11000
  144.9167  139.4461  143.6561 LP  0  0  0  0  0  0  0  0  0  0  0  0  # atno 17320 bound_to 7965
  146.3182  139.8005  142.8966 LP  0  0  0  0  0  0  0  0  0  0  0  0  # atno 17321 bound_to 7965
  139.8358  143.7630  152.3180 LP  0  0  0  0  0  0  0  0  0  0  0  0  # atno 17342 bound_to 10162
  139.7761  144.7460  151.0154 LP  0  0  0  0  0  0  0  0  0  0  0  0  # atno 17343 bound_to 10162
  156.2293  130.6785  151.1448 LP  0  0  0  0  0  0  0  0  0  0  0  0  # atno 17370 bound_to 10713
  157.7221  131.0674  150.6091 LP  0  0  0  0  0  0  0  0  0  0  0  0  # atno 17371 bound_to 10713
  141.1174  133.6623  156.3129 LP  0  0  0  0  0  0  0  0  0  0  0  0  # atno 17394 bound_to 11000
  140.5716  134.5834  157.5459 LP  0  0  0  0  0  0  0  0  0  0  0  0  # atno 17395 bound_to 11000

$$$$
