AV-unprocessed.smi:1511|AV-procd|sdf|6099|dock1
  -GOLD-   22720 6233D 1   1.00000     0.00000
 Structure written by MMmdl.
 32 33  0  0  0  0  0  0  0  0  1 V2000
  144.4603  136.3886  152.9619 O   0  0  0  0  0  0  0  0  0  0  0  0
  145.5295  136.4406  152.3546 C   0  0  0  0  0  0  0  0  0  0  0  0
  145.6008  135.9977  150.8942 C   0  0  0  0  0  0  0  0  0  0  0  0
  145.5028  134.5517  150.8011 N   0  0  0  0  0  0  0  0  0  0  0  0
  144.4247  133.7912  150.3982 C   0  0  0  0  0  0  0  0  0  0  0  0
  144.7908  132.4799  150.5015 C   0  0  0  0  0  0  0  0  0  0  0  0
  146.1286  132.5392  150.9824 C   0  0  0  0  0  0  0  0  0  0  0  0
  146.5522  133.7801  151.1614 N   0  0  0  0  0  0  0  0  0  0  0  0
  146.6854  136.8338  152.9121 N   0  0  0  0  0  0  0  0  0  0  0  0
  146.8874  137.1225  154.3276 C   0  0  0  0  0  0  0  0  0  0  0  0
  147.3114  138.5890  154.5368 C   0  0  1  0  0  0  0  0  0  0  0  0
  147.5404  138.9328  156.0213 C   0  0  0  0  0  0  0  0  0  0  0  0
  148.1959  140.3153  156.1089 C   0  0  0  0  0  0  0  0  0  0  0  0
  149.2626  140.4541  154.6260 S   0  0  0  0  0  0  0  0  0  0  0  0
  148.8957  141.6710  153.8861 O   0  0  0  0  0  0  0  0  0  0  0  0
  150.6601  140.1856  154.9974 O   0  0  0  0  0  0  0  0  0  0  0  0
  148.5823  138.9870  153.7655 C   0  0  0  0  0  0  0  0  0  0  0  0
  144.7833  136.4438  150.3261 H   0  0  0  0  0  0  0  0  0  0  0  0
  146.5338  136.3344  150.4389 H   0  0  0  0  0  0  0  0  0  0  0  0
  143.4958  134.2427  150.0814 H   0  0  0  0  0  0  0  0  0  0  0  0
  144.1932  131.6107  150.2706 H   0  0  0  0  0  0  0  0  0  0  0  0
  146.7993  131.7228  151.2069 H   0  0  0  0  0  0  0  0  0  0  0  0
  147.5076  136.8448  152.3256 H   0  0  0  0  0  0  0  0  0  0  0  0
  145.9480  136.9330  154.8475 H   0  0  0  0  0  0  0  0  0  0  0  0
  147.6215  136.4465  154.7691 H   0  0  0  0  0  0  0  0  0  0  0  0
  146.5038  139.2310  154.1808 H   0  0  0  0  0  0  0  0  0  0  0  0
  146.6128  138.8957  156.5931 H   0  0  0  0  0  0  0  0  0  0  0  0
  148.2146  138.1957  156.4598 H   0  0  0  0  0  0  0  0  0  0  0  0
  147.4447  141.1040  156.0587 H   0  0  0  0  0  0  0  0  0  0  0  0
  148.7869  140.4521  157.0145 H   0  0  0  0  0  0  0  0  0  0  0  0
  149.3321  138.1964  153.8111 H   0  0  0  0  0  0  0  0  0  0  0  0
  148.3906  139.2222  152.7180 H   0  0  0  0  0  0  0  0  0  0  0  0
  1  2  2  0  0  0  0
  2  3  1  0  0  0  0
  2  9  1  0  0  0  0
  3  4  1  0  0  0  0
  3 18  1  0  0  0  0
  3 19  1  0  0  0  0
  4  8  1  0  0  0  0
  4  5  1  0  0  0  0
  5  6  2  0  0  0  0
  5 20  1  0  0  0  0
  6  7  1  0  0  0  0
  6 21  1  0  0  0  0
  7  8  2  0  0  0  0
  7 22  1  0  0  0  0
  9 10  1  0  0  0  0
  9 23  1  0  0  0  0
 10 11  1  0  0  0  0
 10 24  1  0  0  0  0
 10 25  1  0  0  0  0
 11 17  1  0  0  0  0
 11 12  1  0  0  0  0
 11 26  1  0  0  0  0
 12 13  1  0  0  0  0
 12 27  1  0  0  0  0
 12 28  1  0  0  0  0
 13 14  1  0  0  0  0
 13 29  1  0  0  0  0
 13 30  1  0  0  0  0
 14 15  2  0  0  0  0
 14 16  2  0  0  0  0
 14 17  1  0  0  0  0
 17 31  1  0  0  0  0
 17 32  1  0  0  0  0
M  END
> <s_m_source_file>
AV-unprocessed.smi

> <i_m_source_file_index>
1511

> <i_lp_mmshare_version>
43012

> <i_f3d_flags>
0

> <s_epik_input>
bjFbY0hdW2NIXVtjSF1uMVtDSDJdQyg9TylbTkhdW0NIMl1bQ0BASF0oW0NIMl0yKVtDSDJdW0NIMl1TMig9Tyk9Tw==

> <s_epik_cmdline>
J2VwaWtfcHl0aG9uJywgJy1waCcsICc3LjAnLCAnLXRuJywgJzgnLCAnLW1hJywgJzIwMCcsICctbWV0YWxfYmluZGluZycsICctaW1hZScsICc8aW5maWxlLm1hZT4nLCAnLW9tYWUnLCAnPG91dGZpbGUubWFlPic=

> <r_lp_tautomer_probability>
1

> <r_epik_Ionization_Penalty>
1.34373e-05

> <r_epik_Ionization_Penalty_Charging>
0

> <r_epik_Ionization_Penalty_Neutral>
1.34373e-05

> <r_epik_State_Penalty>
-0

> <r_epik_Charging_Adjusted_Penalty>
0

> <i_epik_Tot_Q>
0

> <i_epik_Tot_abs_Q>
0

> <r_epik_Metal_State_Penalty>
-0

> <b_epik_Metal_Only>
0

> <s_lp_Force_Field>
OPLS_2005

> <r_lp_Energy>
3.15153

> <b_lp_Chiralities_Consistent>
1

> <s_lp_Variant>
AV-unprocessed.smi:1511-2

> <Gold.Version>
5.8.1

> <Gold.Id.Protein>
6NUR|6NUR_protein|mol2

> <Gold.PLP.Fitness>
38.0136

> <Gold.PLP.PLP>
-24.8229

> <Gold.PLP.part.hbond>
-3.0923

> <Gold.PLP.part.metal>
0.0000

> <Gold.PLP.part.buried>
-4.0343

> <Gold.PLP.part.nonpolar>
-18.2188

> <Gold.PLP.part.repulsive>
0.6025

> <Gold.PLP.ligand.clash>
0.0000

> <Gold.PLP.ligand.torsion>
0.3449

> <Gold.PLP.Chemscore.Hbond>
2.6240

> <Gold.PLP.Chemscore.CHOScore>
2.0000

> <Gold.PLP.Chemscore.Metal>
0.0000

> <Gold.Chemscore.Hbonds>
donor molecule, donor type, donor heavy atom, donor atom, acceptor molecule, acceptor atom, score
      L1  H     9    23       P1  7948  1.00
      P1  H  7989  7998       L1    16  1.00
      P1  H  8011  8017       L1    15  0.62
      L1  C     5    20       P1 10186  0.96
      L1  C     7    22       P1 10747  1.00

> <Gold.PLP.Chemscore.Internal.Correction>
0.0085

> <Gold.Rescore>
     Score         DG    S(hbond)    S(metal)    S(lipo)     H(rot)  DE(clash)    DE(int)     intcor
     13.13     -13.52       2.23        0.00      44.71       1.82       0.24       0.15       ----

> <Gold.Chemscore.Fitness>
13.1291

> <Gold.Chemscore.DG>
-13.5206

> <Gold.Chemscore.ZeroCoef>
-5.4800

> <Gold.Chemscore.Hbond>
2.2347

> <Gold.Chemscore.Metal>
0.0000

> <Gold.Chemscore.Lipo>
44.7058

> <Gold.Chemscore.Internal_Hbond>
0.0000

> <Gold.Chemscore.DEClash>
0.2434

> <Gold.Chemscore.DEInternal>
0.1482

> <Gold.Chemscore.Rot>
1.8178

> <Gold.Chemscore.Internal.Correction>
   9.000000E+99

> <Gold.Chemscore.Hbonds>
donor molecule, donor type, donor heavy atom, donor atom, acceptor molecule, acceptor atom, score
      L1  H     9    23       P1  7948  0.96
      P1  H  7989  7998       L1    16  0.39
      P1  H  8011  8017       L1    15  0.61

> <Gold.Chemscore.Hbond.Weighted>
-7.4637

> <Gold.Chemscore.Metal.Weighted>
-0.0000

> <Gold.Chemscore.Lipo.Weighted>
-5.2306

> <Gold.Chemscore.Internal_Hbond.Weighted>
0.0000

> <Gold.Chemscore.DEClash.Weighted>
0.2434

> <Gold.Chemscore.DEInternal.Weighted>
0.1482

> <Gold.Chemscore.Rot.Weighted>
4.6537

> <Gold.Chemscore.Internal.Correction.Weighted>
   9.000000E+99

> <Gold.Protein.RotatedTorsions>
[ 6907 6896 6895 6894 ] final -157.10 input  -60.11 | X-H torsion
[ 7974 7965 7964 7962 ] final  110.98 input  175.53 | X-H torsion
[ 8008 7997 7996 7995 ] final  -15.17 input   59.86 | X-H torsion
[ 10167 10162 10161 10158 ] final -116.84 input  -65.29 | X-H torsion
[ 10718 10713 10712 10709 ] final    0.94 input   66.30 | X-H torsion
[ 10763 10752 10751 10750 ] final   89.84 input  -60.55 | X-H torsion
[ 11005 11000 10999 10996 ] final  -93.40 input  -57.11 | X-H torsion

> <Gold.Protein.ActiveResidues>
 VAL166  LYS551  ARG553  GLY616  TRP617  ASP618  TYR619  PRO620  LYS621  CYS622 
 ASP623  PHE694  ASN695  SER759  ASP760  ASP761  ALA762  ILE779  LEU786  VAL792 
 PHE793  MET794  SER795  GLU796  ALA797  LYS798  CYS799  TRP800  GLU811  SER814 

> <Gold.Protein.RotatedAtoms>
  151.2977  133.4136  159.2637 H   0  0  0  0  0  0  0  0  0  0  0  0  # atno 6907 bound_to 6896
  151.0223  134.9478  159.8076 H   0  0  0  0  0  0  0  0  0  0  0  0  # atno 6908 bound_to 6896
  152.5327  134.2939  159.9106 H   0  0  0  0  0  0  0  0  0  0  0  0  # atno 6909 bound_to 6896
  145.2481  139.2751  143.4082 H   0  0  0  0  0  0  0  0  0  0  0  0  # atno 7974 bound_to 7965
  154.5151  140.2203  155.9081 H   0  0  0  0  0  0  0  0  0  0  0  0  # atno 8008 bound_to 7997
  156.1598  140.3144  155.8754 H   0  0  0  0  0  0  0  0  0  0  0  0  # atno 8009 bound_to 7997
  155.3774  140.0470  157.3035 H   0  0  0  0  0  0  0  0  0  0  0  0  # atno 8010 bound_to 7997
  140.0748  143.4843  152.1959 H   0  0  0  0  0  0  0  0  0  0  0  0  # atno 10167 bound_to 10162
  156.8408  130.5520  149.5678 H   0  0  0  0  0  0  0  0  0  0  0  0  # atno 10718 bound_to 10713
  153.1913  135.4455  155.0153 H   0  0  0  0  0  0  0  0  0  0  0  0  # atno 10763 bound_to 10752
  154.8092  135.3287  154.7353 H   0  0  0  0  0  0  0  0  0  0  0  0  # atno 10764 bound_to 10752
  153.7807  135.6978  153.4944 H   0  0  0  0  0  0  0  0  0  0  0  0  # atno 10765 bound_to 10752
  141.1498  133.7885  157.0154 H   0  0  0  0  0  0  0  0  0  0  0  0  # atno 11005 bound_to 11000
  146.3310  140.2864  142.8613 LP  0  0  0  0  0  0  0  0  0  0  0  0  # atno 17320 bound_to 7965
  144.9528  140.8196  143.5561 LP  0  0  0  0  0  0  0  0  0  0  0  0  # atno 17321 bound_to 7965
  139.5814  144.7512  151.3630 LP  0  0  0  0  0  0  0  0  0  0  0  0  # atno 17342 bound_to 10162
  140.7107  143.7397  150.7562 LP  0  0  0  0  0  0  0  0  0  0  0  0  # atno 17343 bound_to 10162
  156.0881  130.5874  150.9685 LP  0  0  0  0  0  0  0  0  0  0  0  0  # atno 17370 bound_to 10713
  157.6356  131.0916  150.8354 LP  0  0  0  0  0  0  0  0  0  0  0  0  # atno 17371 bound_to 10713
  140.0850  134.9626  157.1686 LP  0  0  0  0  0  0  0  0  0  0  0  0  # atno 17394 bound_to 11000
  140.3524  134.2584  155.7197 LP  0  0  0  0  0  0  0  0  0  0  0  0  # atno 17395 bound_to 11000

$$$$
