AV-unprocessed.smi:2110|AV-procd|sdf|8610|dock3
  -GOLD-   2272011353D 1   1.00000     0.00000
 Structure written by MMmdl.
 45 46  0  0  0  0  0  0  0  0  2 V2000
  150.0546  136.0205  156.1988 C   0  0  0  0  0  0  0  0  0  0  0  0
  149.9353  136.7366  157.5541 C   0  0  0  0  0  0  0  0  0  0  0  0
  150.6952  138.0021  157.6088 N   0  0  0  0  0  0  0  0  0  0  0  0
  149.9559  139.2073  158.0351 C   0  0  0  0  0  0  0  0  0  0  0  0
  148.9197  139.6750  157.0017 C   0  0  0  0  0  0  0  0  0  0  0  0
  152.4372  137.9938  157.6064 S   0  0  0  0  0  0  0  0  0  0  0  0
  152.8423  136.8154  156.8218 O   0  0  0  0  0  0  0  0  0  0  0  0
  152.8571  139.3189  157.1220 O   0  0  0  0  0  0  0  0  0  0  0  0
  152.6456  137.8099  159.2023 N   0  5  0  0  0  0  0  0  0  0  0  0
  153.9386  138.1124  159.7861 C   0  0  0  0  0  0  0  0  0  0  0  0
  153.9134  139.4257  160.5571 C   0  0  0  0  0  0  0  0  0  0  0  0
  154.4019  139.4938  161.8806 C   0  0  0  0  0  0  0  0  0  0  0  0
  154.3524  140.7301  162.5495 C   0  0  0  0  0  0  0  0  0  0  0  0
  153.8713  141.8585  161.9884 N   0  0  0  0  0  0  0  0  0  0  0  0
  153.4075  141.8107  160.7151 C   0  0  0  0  0  0  0  0  0  0  0  0
  152.9181  143.0029  160.1377 N   0  0  0  0  0  0  0  0  0  0  0  0
  152.0176  143.7875  160.9791 C   0  0  0  0  0  0  0  0  0  0  0  0
  151.8033  145.1862  160.3755 C   0  0  0  0  0  0  0  0  0  0  0  0
  151.3407  145.0677  159.0341 O   0  0  0  0  0  0  0  0  0  0  0  0
  152.2849  144.3959  158.2070 C   0  0  0  0  0  0  0  0  0  0  0  0
  152.5124  142.9689  158.7337 C   0  0  0  0  0  0  0  0  0  0  0  0
  153.4050  140.6072  159.9692 C   0  0  0  0  0  0  0  0  0  0  0  0
  149.5467  135.0568  156.2290 H   0  0  0  0  0  0  0  0  0  0  0  0
  151.0925  135.8375  155.9232 H   0  0  0  0  0  0  0  0  0  0  0  0
  149.5961  136.6014  155.3986 H   0  0  0  0  0  0  0  0  0  0  0  0
  148.8864  136.9508  157.7595 H   0  0  0  0  0  0  0  0  0  0  0  0
  150.2694  136.0742  158.3531 H   0  0  0  0  0  0  0  0  0  0  0  0
  149.4571  139.0107  158.9836 H   0  0  0  0  0  0  0  0  0  0  0  0
  150.6695  140.0085  158.2282 H   0  0  0  0  0  0  0  0  0  0  0  0
  148.3591  140.5276  157.3844 H   0  0  0  0  0  0  0  0  0  0  0  0
  148.2007  138.8903  156.7686 H   0  0  0  0  0  0  0  0  0  0  0  0
  149.3917  139.9904  156.0717 H   0  0  0  0  0  0  0  0  0  0  0  0
  154.2584  137.3362  160.4820 H   0  0  0  0  0  0  0  0  0  0  0  0
  154.7189  138.1624  159.0257 H   0  0  0  0  0  0  0  0  0  0  0  0
  154.7994  138.6247  162.3870 H   0  0  0  0  0  0  0  0  0  0  0  0
  154.7114  140.8163  163.5643 H   0  0  0  0  0  0  0  0  0  0  0  0
  151.0636  143.2644  161.0546 H   0  0  0  0  0  0  0  0  0  0  0  0
  152.3999  143.8947  161.9932 H   0  0  0  0  0  0  0  0  0  0  0  0
  151.0640  145.7363  160.9579 H   0  0  0  0  0  0  0  0  0  0  0  0
  152.7266  145.7672  160.4041 H   0  0  0  0  0  0  0  0  0  0  0  0
  151.9033  144.3627  157.1865 H   0  0  0  0  0  0  0  0  0  0  0  0
  153.2224  144.9538  158.1789 H   0  0  0  0  0  0  0  0  0  0  0  0
  153.2781  142.4790  158.1310 H   0  0  0  0  0  0  0  0  0  0  0  0
  151.5961  142.3852  158.6359 H   0  0  0  0  0  0  0  0  0  0  0  0
  153.0053  140.5924  158.9645 H   0  0  0  0  0  0  0  0  0  0  0  0
  1  2  1  0  0  0  0
  1 23  1  0  0  0  0
  1 24  1  0  0  0  0
  1 25  1  0  0  0  0
  2  3  1  0  0  0  0
  2 26  1  0  0  0  0
  2 27  1  0  0  0  0
  3  4  1  0  0  0  0
  3  6  1  0  0  0  0
  4  5  1  0  0  0  0
  4 28  1  0  0  0  0
  4 29  1  0  0  0  0
  5 30  1  0  0  0  0
  5 31  1  0  0  0  0
  5 32  1  0  0  0  0
  6  7  2  0  0  0  0
  6  8  2  0  0  0  0
  6  9  1  0  0  0  0
  9 10  1  0  0  0  0
 10 11  1  0  0  0  0
 10 33  1  0  0  0  0
 10 34  1  0  0  0  0
 11 22  1  0  0  0  0
 11 12  2  0  0  0  0
 12 13  1  0  0  0  0
 12 35  1  0  0  0  0
 13 14  2  0  0  0  0
 13 36  1  0  0  0  0
 14 15  1  0  0  0  0
 15 16  1  0  0  0  0
 15 22  2  0  0  0  0
 16 21  1  0  0  0  0
 16 17  1  0  0  0  0
 17 18  1  0  0  0  0
 17 37  1  0  0  0  0
 17 38  1  0  0  0  0
 18 19  1  0  0  0  0
 18 39  1  0  0  0  0
 18 40  1  0  0  0  0
 19 20  1  0  0  0  0
 20 21  1  0  0  0  0
 20 41  1  0  0  0  0
 20 42  1  0  0  0  0
 21 43  1  0  0  0  0
 21 44  1  0  0  0  0
 22 45  1  0  0  0  0
M  CHG  1   9  -1
M  END
> <s_m_source_file>
AV-unprocessed.smi

> <i_m_source_file_index>
2110

> <i_lp_mmshare_version>
43012

> <i_f3d_flags>
0

> <s_epik_input>
W0NIM11bQ0gyXU4oW0NIMl1bQ0gzXSlTKD1PKSg9TylbTkhdW0NIMl1jMVtjSF1bY0hdbmMoW2NIXTEpTjJbQ0gyXVtDSDJdT1tDSDJdW0NIMl0y

> <s_epik_cmdline>
J2VwaWtfcHl0aG9uJywgJy1waCcsICc3LjAnLCAnLXRuJywgJzgnLCAnLW1hJywgJzIwMCcsICctbWV0YWxfYmluZGluZycsICctaW1hZScsICc8aW5maWxlLm1hZT4nLCAnLW9tYWUnLCAnPG91dGZpbGUubWFlPic=

> <r_lp_tautomer_probability>
1

> <r_epik_Ionization_Penalty>
2.67693

> <r_epik_Ionization_Penalty_Charging>
2.41478

> <r_epik_Ionization_Penalty_Neutral>
0.262148

> <r_epik_State_Penalty>
2.66454

> <r_epik_Charging_Adjusted_Penalty>
5.07933

> <i_epik_Tot_Q>
-1

> <i_epik_Tot_abs_Q>
1

> <r_epik_Metal_State_Penalty>
0.588443

> <b_epik_Metal_Only>
0

> <s_lp_Force_Field>
OPLS_2005

> <r_lp_Energy>
11.2641

> <b_lp_Chiralities_Consistent>
1

> <s_lp_Variant>
AV-unprocessed.smi:2110-3

> <Gold.Version>
5.8.1

> <Gold.Id.Protein>
6NUR|6NUR_protein|mol2

> <Gold.PLP.Fitness>
43.6199

> <Gold.PLP.PLP>
-38.3101

> <Gold.PLP.part.hbond>
-3.0000

> <Gold.PLP.part.metal>
0.0000

> <Gold.PLP.part.buried>
-6.0330

> <Gold.PLP.part.nonpolar>
-29.5041

> <Gold.PLP.part.repulsive>
0.1181

> <Gold.PLP.ligand.clash>
0.0000

> <Gold.PLP.ligand.torsion>
2.1852

> <Gold.PLP.Chemscore.Hbond>
1.9833

> <Gold.PLP.Chemscore.CHOScore>
0.0000

> <Gold.PLP.Chemscore.Metal>
0.0000

> <Gold.Chemscore.Hbonds>
donor molecule, donor type, donor heavy atom, donor atom, acceptor molecule, acceptor atom, score
      P1  H  7997  8009       L1     8  1.00
      P1  H 10752 10765       L1     7  0.67

> <Gold.PLP.Chemscore.Internal.Correction>
3.7302

> <Gold.Rescore>
     Score         DG    S(hbond)    S(metal)    S(lipo)     H(rot)  DE(clash)    DE(int)     intcor
     16.77     -18.88       1.98        0.00      94.36       1.66       0.01       2.11       ----

> <Gold.Chemscore.Fitness>
16.7682

> <Gold.Chemscore.DG>
-18.8839

> <Gold.Chemscore.ZeroCoef>
-5.4800

> <Gold.Chemscore.Hbond>
1.9834

> <Gold.Chemscore.Metal>
0.0000

> <Gold.Chemscore.Lipo>
94.3560

> <Gold.Chemscore.Internal_Hbond>
0.0000

> <Gold.Chemscore.DEClash>
0.0060

> <Gold.Chemscore.DEInternal>
2.1098

> <Gold.Chemscore.Rot>
1.6642

> <Gold.Chemscore.Internal.Correction>
   9.000000E+99

> <Gold.Chemscore.Hbonds>
donor molecule, donor type, donor heavy atom, donor atom, acceptor molecule, acceptor atom, score
      P1  H  7997  8009       L1     8  1.00
      P1  H 10752 10765       L1     7  0.64

> <Gold.Chemscore.Hbond.Weighted>
-6.6246

> <Gold.Chemscore.Metal.Weighted>
-0.0000

> <Gold.Chemscore.Lipo.Weighted>
-11.0397

> <Gold.Chemscore.Internal_Hbond.Weighted>
0.0000

> <Gold.Chemscore.DEClash.Weighted>
0.0060

> <Gold.Chemscore.DEInternal.Weighted>
2.1098

> <Gold.Chemscore.Rot.Weighted>
4.2604

> <Gold.Chemscore.Internal.Correction.Weighted>
   9.000000E+99

> <Gold.Protein.RotatedTorsions>
[ 6907 6896 6895 6894 ] final   79.66 input  -60.11 | X-H torsion
[ 7974 7965 7964 7962 ] final   55.73 input  175.53 | X-H torsion
[ 8008 7997 7996 7995 ] final  178.01 input   59.86 | X-H torsion
[ 10167 10162 10161 10158 ] final  -83.20 input  -65.29 | X-H torsion
[ 10718 10713 10712 10709 ] final -135.58 input   66.30 | X-H torsion
[ 10763 10752 10751 10750 ] final -133.03 input  -60.55 | X-H torsion
[ 11005 11000 10999 10996 ] final   -5.14 input  -57.11 | X-H torsion

> <Gold.Protein.ActiveResidues>
 VAL166  LYS551  ARG553  GLY616  TRP617  ASP618  TYR619  PRO620  LYS621  CYS622 
 ASP623  PHE694  ASN695  SER759  ASP760  ASP761  ALA762  ILE779  LEU786  VAL792 
 PHE793  MET794  SER795  GLU796  ALA797  LYS798  CYS799  TRP800  GLU811  SER814 

> <Gold.Protein.RotatedAtoms>
  152.5207  134.3476  159.9239 H   0  0  0  0  0  0  0  0  0  0  0  0  # atno 6907 bound_to 6896
  151.3427  133.3950  159.2680 H   0  0  0  0  0  0  0  0  0  0  0  0  # atno 6908 bound_to 6896
  150.9790  134.9167  159.7891 H   0  0  0  0  0  0  0  0  0  0  0  0  # atno 6909 bound_to 6896
  145.9473  139.3941  143.0327 H   0  0  0  0  0  0  0  0  0  0  0  0  # atno 7974 bound_to 7965
  156.0594  140.1344  156.9959 H   0  0  0  0  0  0  0  0  0  0  0  0  # atno 8008 bound_to 7997
  154.4474  140.0994  156.6565 H   0  0  0  0  0  0  0  0  0  0  0  0  # atno 8009 bound_to 7997
  155.5401  140.3460  155.4447 H   0  0  0  0  0  0  0  0  0  0  0  0  # atno 8010 bound_to 7997
  140.4248  143.2570  151.8840 H   0  0  0  0  0  0  0  0  0  0  0  0  # atno 10167 bound_to 10162
  156.2677  130.7247  151.1203 H   0  0  0  0  0  0  0  0  0  0  0  0  # atno 10718 bound_to 10713
  154.8737  135.3779  154.4506 H   0  0  0  0  0  0  0  0  0  0  0  0  # atno 10763 bound_to 10752
  153.5182  135.7029  153.5750 H   0  0  0  0  0  0  0  0  0  0  0  0  # atno 10764 bound_to 10752
  153.4009  135.3948  155.1952 H   0  0  0  0  0  0  0  0  0  0  0  0  # atno 10765 bound_to 10752
  140.6879  133.9097  155.8598 H   0  0  0  0  0  0  0  0  0  0  0  0  # atno 11005 bound_to 11000
  145.8219  140.9675  143.0894 LP  0  0  0  0  0  0  0  0  0  0  0  0  # atno 17320 bound_to 7965
  144.6789  140.0052  143.7484 LP  0  0  0  0  0  0  0  0  0  0  0  0  # atno 17321 bound_to 7965
  139.4783  144.5398  151.8544 LP  0  0  0  0  0  0  0  0  0  0  0  0  # atno 17342 bound_to 10162
  140.4493  144.1877  150.5896 LP  0  0  0  0  0  0  0  0  0  0  0  0  # atno 17343 bound_to 10162
  157.7273  131.0640  150.5872 LP  0  0  0  0  0  0  0  0  0  0  0  0  # atno 17370 bound_to 10713
  156.5965  130.4343  149.5915 LP  0  0  0  0  0  0  0  0  0  0  0  0  # atno 17371 bound_to 10713
  141.0265  134.0816  157.4062 LP  0  0  0  0  0  0  0  0  0  0  0  0  # atno 17394 bound_to 11000
  139.8932  135.0129  156.6887 LP  0  0  0  0  0  0  0  0  0  0  0  0  # atno 17395 bound_to 11000

$$$$
