AV-unprocessed.smi:2458|AV-procd|sdf|9710|dock7
  -GOLD-   2272013353D 1   1.00000     0.00000
 Structure written by MMmdl.
 47 48  0  0  0  0  0  0  0  0  1 V2000
  152.1540  144.5263  158.8992 C   0  0  0  0  0  0  0  0  0  0  0  0
  152.1484  143.0162  159.2078 C   0  0  0  0  0  0  0  0  0  0  0  0
  153.5440  142.6131  159.7226 C   0  0  0  0  0  0  0  0  0  0  0  0
  151.6807  142.1566  157.9960 C   0  0  1  0  0  0  0  0  0  0  0  0
  151.9253  140.6436  158.2152 C   0  0  0  0  0  0  0  0  0  0  0  0
  151.4539  139.7853  157.0256 C   0  0  0  0  0  0  0  0  0  0  0  0
  149.9845  140.0296  156.6209 C   0  0  1  0  0  0  0  0  0  0  0  0
  148.9755  139.3524  157.5679 C   0  0  0  0  0  0  0  0  0  0  0  0
  148.0943  140.0035  158.1286 O   0  0  0  0  0  0  0  0  0  0  0  0
  149.1189  138.0302  157.7385 N   0  0  0  0  0  0  0  0  0  0  0  0
  148.2628  137.2077  158.5833 C   0  0  0  0  0  0  0  0  0  0  0  0
  148.8896  137.0077  159.9744 C   0  0  2  0  0  0  0  0  0  0  0  0
  150.2718  136.7534  159.8162 O   0  0  0  0  0  0  0  0  0  0  0  0
  148.2009  135.8841  160.7325 C   0  0  0  0  0  0  0  0  0  0  0  0
  147.7370  136.0657  162.0536 C   0  0  0  0  0  0  0  0  0  0  0  0
  147.1152  134.9873  162.7118 C   0  0  0  0  0  0  0  0  0  0  0  0
  146.9836  133.7664  162.0213 C   0  0  0  0  0  0  0  0  0  0  0  0
  147.4250  133.5779  160.7593 N   0  0  0  0  0  0  0  0  0  0  0  0
  148.0199  134.6174  160.1352 C   0  0  0  0  0  0  0  0  0  0  0  0
  149.7221  141.5402  156.4547 C   0  0  0  0  0  0  0  0  0  0  0  0
  150.1881  142.3837  157.6552 C   0  0  0  0  0  0  0  0  0  0  0  0
  152.2668  142.4618  157.1278 H   0  0  0  0  0  0  0  0  0  0  0  0
  149.8455  139.5711  155.6402 H   0  0  0  0  0  0  0  0  0  0  0  0
  152.7578  144.7492  158.0188 H   0  0  0  0  0  0  0  0  0  0  0  0
  152.5645  145.0970  159.7326 H   0  0  0  0  0  0  0  0  0  0  0  0
  151.1501  144.9135  158.7286 H   0  0  0  0  0  0  0  0  0  0  0  0
  151.4452  142.8571  160.0265 H   0  0  0  0  0  0  0  0  0  0  0  0
  154.2883  142.6561  158.9269 H   0  0  0  0  0  0  0  0  0  0  0  0
  153.5517  141.6071  160.1402 H   0  0  0  0  0  0  0  0  0  0  0  0
  153.8758  143.2780  160.5205 H   0  0  0  0  0  0  0  0  0  0  0  0
  152.9869  140.4453  158.3562 H   0  0  0  0  0  0  0  0  0  0  0  0
  151.4355  140.3192  159.1331 H   0  0  0  0  0  0  0  0  0  0  0  0
  152.0921  139.9992  156.1673 H   0  0  0  0  0  0  0  0  0  0  0  0
  151.6105  138.7298  157.2530 H   0  0  0  0  0  0  0  0  0  0  0  0
  149.8618  137.5600  157.2417 H   0  0  0  0  0  0  0  0  0  0  0  0
  147.3101  137.7304  158.6842 H   0  0  0  0  0  0  0  0  0  0  0  0
  148.0493  136.2477  158.1093 H   0  0  0  0  0  0  0  0  0  0  0  0
  148.7876  137.9248  160.5568 H   0  0  0  0  0  0  0  0  0  0  0  0
  150.7551  137.4084  160.2958 H   0  0  0  0  0  0  0  0  0  0  0  0
  147.8567  137.0140  162.5569 H   0  0  0  0  0  0  0  0  0  0  0  0
  146.7490  135.0928  163.7223 H   0  0  0  0  0  0  0  0  0  0  0  0
  146.5124  132.9184  162.4959 H   0  0  0  0  0  0  0  0  0  0  0  0
  148.3624  134.4293  159.1283 H   0  0  0  0  0  0  0  0  0  0  0  0
  150.2385  141.8895  155.5597 H   0  0  0  0  0  0  0  0  0  0  0  0
  148.6617  141.7199  156.2720 H   0  0  0  0  0  0  0  0  0  0  0  0
  149.5713  142.1697  158.5283 H   0  0  0  0  0  0  0  0  0  0  0  0
  150.0066  143.4283  157.4069 H   0  0  0  0  0  0  0  0  0  0  0  0
  1  2  1  0  0  0  0
  1 24  1  0  0  0  0
  1 25  1  0  0  0  0
  1 26  1  0  0  0  0
  2  3  1  0  0  0  0
  2  4  1  0  0  0  0
  2 27  1  0  0  0  0
  3 28  1  0  0  0  0
  3 29  1  0  0  0  0
  3 30  1  0  0  0  0
  4 22  1  0  0  0  0
  4 21  1  0  0  0  0
  4  5  1  0  0  0  0
  5  6  1  0  0  0  0
  5 31  1  0  0  0  0
  5 32  1  0  0  0  0
  6  7  1  0  0  0  0
  6 33  1  0  0  0  0
  6 34  1  0  0  0  0
  7 23  1  0  0  0  0
  7  8  1  0  0  0  0
  7 20  1  0  0  0  0
  8  9  2  0  0  0  0
  8 10  1  0  0  0  0
 10 11  1  0  0  0  0
 10 35  1  0  0  0  0
 11 12  1  0  0  0  0
 11 36  1  0  0  0  0
 11 37  1  0  0  0  0
 12 13  1  0  0  0  0
 12 14  1  0  0  0  0
 12 38  1  0  0  0  0
 13 39  1  0  0  0  0
 14 19  1  0  0  0  0
 14 15  2  0  0  0  0
 15 16  1  0  0  0  0
 15 40  1  0  0  0  0
 16 17  2  0  0  0  0
 16 41  1  0  0  0  0
 17 18  1  0  0  0  0
 17 42  1  0  0  0  0
 18 19  2  0  0  0  0
 19 43  1  0  0  0  0
 20 21  1  0  0  0  0
 20 44  1  0  0  0  0
 20 45  1  0  0  0  0
 21 46  1  0  0  0  0
 21 47  1  0  0  0  0
M  END
> <s_m_source_file>
AV-unprocessed.smi

> <i_m_source_file_index>
2458

> <i_lp_mmshare_version>
43012

> <i_f3d_flags>
0

> <s_epik_input>
W0NIM11bQ0hdKFtDSDNdKVtDQEhdMVtDSDJdW0NIMl1bQ0BASF0oW0NIMl1bQ0gyXTEpQyg9TylbTkhdW0NIMl1bQ0BIXShbT0hdKWMyW2NIXVtjSF1bY0hdbltjSF0y

> <s_epik_cmdline>
J2VwaWtfcHl0aG9uJywgJy1waCcsICc3LjAnLCAnLXRuJywgJzgnLCAnLW1hJywgJzIwMCcsICctbWV0YWxfYmluZGluZycsICctaW1hZScsICc8aW5maWxlLm1hZT4nLCAnLW9tYWUnLCAnPG91dGZpbGUubWFlPic=

> <r_epik_Ionization_Penalty>
0.00169206

> <r_epik_Ionization_Penalty_Charging>
0

> <r_epik_Ionization_Penalty_Neutral>
0.00169206

> <r_epik_State_Penalty>
0.0011427

> <r_epik_Charging_Adjusted_Penalty>
0.0011427

> <i_epik_Tot_Q>
0

> <i_epik_Tot_abs_Q>
0

> <r_epik_Metal_State_Penalty>
-0

> <b_epik_Metal_Only>
0

> <s_lp_Force_Field>
OPLS_2005

> <r_lp_Energy>
16.378

> <b_lp_Chiralities_Consistent>
1

> <s_lp_Variant>
AV-unprocessed.smi:2458-3

> <Gold.Version>
5.8.1

> <Gold.Id.Protein>
6NUR|6NUR_protein|mol2

> <Gold.PLP.Fitness>
42.0874

> <Gold.PLP.PLP>
-40.2925

> <Gold.PLP.part.hbond>
-2.0000

> <Gold.PLP.part.metal>
0.0000

> <Gold.PLP.part.buried>
-3.6622

> <Gold.PLP.part.nonpolar>
-35.7876

> <Gold.PLP.part.repulsive>
0.0692

> <Gold.PLP.ligand.clash>
0.0000

> <Gold.PLP.ligand.torsion>
0.6185

> <Gold.PLP.Chemscore.Hbond>
0.9920

> <Gold.PLP.Chemscore.CHOScore>
0.0000

> <Gold.PLP.Chemscore.Metal>
0.0000

> <Gold.Chemscore.Hbonds>
donor molecule, donor type, donor heavy atom, donor atom, acceptor molecule, acceptor atom, score
      P1  H  6896  6909       L1    13  0.98

> <Gold.PLP.Chemscore.Internal.Correction>
0.0559

> <Gold.Rescore>
     Score         DG    S(hbond)    S(metal)    S(lipo)     H(rot)  DE(clash)    DE(int)     intcor
     16.51     -16.96       0.93        0.00     116.71       2.06       0.04       0.41       ----

> <Gold.Chemscore.Fitness>
16.5147

> <Gold.Chemscore.DG>
-16.9624

> <Gold.Chemscore.ZeroCoef>
-5.4800

> <Gold.Chemscore.Hbond>
0.9274

> <Gold.Chemscore.Metal>
0.0000

> <Gold.Chemscore.Lipo>
116.7116

> <Gold.Chemscore.Internal_Hbond>
0.0000

> <Gold.Chemscore.DEClash>
0.0391

> <Gold.Chemscore.DEInternal>
0.4085

> <Gold.Chemscore.Rot>
2.0588

> <Gold.Chemscore.Internal.Correction>
   9.000000E+99

> <Gold.Chemscore.Hbonds>
donor molecule, donor type, donor heavy atom, donor atom, acceptor molecule, acceptor atom, score
      P1  H  6896  6909       L1    13  0.87

> <Gold.Chemscore.Hbond.Weighted>
-3.0976

> <Gold.Chemscore.Metal.Weighted>
-0.0000

> <Gold.Chemscore.Lipo.Weighted>
-13.6553

> <Gold.Chemscore.Internal_Hbond.Weighted>
0.0000

> <Gold.Chemscore.DEClash.Weighted>
0.0391

> <Gold.Chemscore.DEInternal.Weighted>
0.4085

> <Gold.Chemscore.Rot.Weighted>
5.2705

> <Gold.Chemscore.Internal.Correction.Weighted>
   9.000000E+99

> <Gold.Protein.RotatedTorsions>
[ 6907 6896 6895 6894 ] final   69.46 input  -60.11 | X-H torsion
[ 7974 7965 7964 7962 ] final  -36.79 input  175.53 | X-H torsion
[ 8008 7997 7996 7995 ] final -103.59 input   59.86 | X-H torsion
[ 10167 10162 10161 10158 ] final   72.97 input  -65.29 | X-H torsion
[ 10718 10713 10712 10709 ] final  -27.43 input   66.30 | X-H torsion
[ 10763 10752 10751 10750 ] final   59.45 input  -60.55 | X-H torsion
[ 11005 11000 10999 10996 ] final  145.51 input  -57.11 | X-H torsion

> <Gold.Protein.ActiveResidues>
 VAL166  LYS551  ARG553  GLY616  TRP617  ASP618  TYR619  PRO620  LYS621  CYS622 
 ASP623  PHE694  ASN695  SER759  ASP760  ASP761  ALA762  ILE779  LEU786  VAL792 
 PHE793  MET794  SER795  GLU796  ALA797  LYS798  CYS799  TRP800  GLU811  SER814 

> <Gold.Protein.RotatedAtoms>
  152.4687  134.5012  159.9725 H   0  0  0  0  0  0  0  0  0  0  0  0  # atno 6907 bound_to 6896
  151.5044  133.3492  159.2882 H   0  0  0  0  0  0  0  0  0  0  0  0  # atno 6908 bound_to 6896
  150.8685  134.8082  159.7199 H   0  0  0  0  0  0  0  0  0  0  0  0  # atno 6909 bound_to 6896
  146.0631  140.6320  142.8988 H   0  0  0  0  0  0  0  0  0  0  0  0  # atno 7974 bound_to 7965
  154.8731  140.0422  157.1736 H   0  0  0  0  0  0  0  0  0  0  0  0  # atno 8008 bound_to 7997
  154.8718  140.2959  155.5456 H   0  0  0  0  0  0  0  0  0  0  0  0  # atno 8009 bound_to 7997
  156.2999  140.2427  156.3708 H   0  0  0  0  0  0  0  0  0  0  0  0  # atno 8010 bound_to 7997
  140.0296  144.5476  150.7518 H   0  0  0  0  0  0  0  0  0  0  0  0  # atno 10167 bound_to 10162
  156.4382  130.4459  149.7070 H   0  0  0  0  0  0  0  0  0  0  0  0  # atno 10718 bound_to 10713
  152.9895  135.5571  154.5715 H   0  0  0  0  0  0  0  0  0  0  0  0  # atno 10763 bound_to 10752
  154.5114  135.2802  155.1341 H   0  0  0  0  0  0  0  0  0  0  0  0  # atno 10764 bound_to 10752
  154.2731  135.6359  153.5371 H   0  0  0  0  0  0  0  0  0  0  0  0  # atno 10765 bound_to 10752
  140.0718  134.9147  157.1357 H   0  0  0  0  0  0  0  0  0  0  0  0  # atno 11005 bound_to 11000
  144.7186  140.4297  143.7025 LP  0  0  0  0  0  0  0  0  0  0  0  0  # atno 17320 bound_to 7965
  145.6525  139.1567  143.2854 LP  0  0  0  0  0  0  0  0  0  0  0  0  # atno 17321 bound_to 7965
  140.7308  143.2687  151.3959 LP  0  0  0  0  0  0  0  0  0  0  0  0  # atno 17342 bound_to 10162
  139.6085  144.1147  152.2274 LP  0  0  0  0  0  0  0  0  0  0  0  0  # atno 17343 bound_to 10162
  156.3945  130.7644  151.2647 LP  0  0  0  0  0  0  0  0  0  0  0  0  # atno 17370 bound_to 10713
  157.7507  131.0258  150.3934 LP  0  0  0  0  0  0  0  0  0  0  0  0  # atno 17371 bound_to 10713
  140.3616  134.2488  155.7186 LP  0  0  0  0  0  0  0  0  0  0  0  0  # atno 17394 bound_to 11000
  141.2014  133.7962  157.0439 LP  0  0  0  0  0  0  0  0  0  0  0  0  # atno 17395 bound_to 11000

$$$$
