AV-unprocessed.smi:485|AV-procd|sdf|2693|dock2
  -GOLD-   2262023123D 1   1.00000     0.00000
 Structure written by MMmdl.
 37 39  0  0  0  0  0  0  0  0  2 V2000
  151.5529  136.5679  154.1416 O   0  0  0  0  0  0  0  0  0  0  0  0
  151.7575  137.8484  154.6964 C   0  0  0  0  0  0  0  0  0  0  0  0
  150.5863  138.7509  154.4854 C   0  0  0  0  0  0  0  0  0  0  0  0
  149.5050  138.4762  153.7032 N   0  3  0  0  0  0  0  0  0  0  0  0
  148.6205  139.5544  153.7226 C   0  0  0  0  0  0  0  0  0  0  0  0
  147.3992  139.7397  153.0819 C   0  0  0  0  0  0  0  0  0  0  0  0
  146.7462  140.9690  153.3074 C   0  0  0  0  0  0  0  0  0  0  0  0
  147.3086  141.9559  154.1420 C   0  0  0  0  0  0  0  0  0  0  0  0
  148.5458  141.7551  154.7882 C   0  0  0  0  0  0  0  0  0  0  0  0
  149.1873  140.5368  154.5607 C   0  0  0  0  0  0  0  0  0  0  0  0
  150.4012  139.9980  155.0084 N   0  0  0  0  0  0  0  0  0  0  0  0
  151.2665  140.7892  155.8998 C   0  0  0  0  0  0  0  0  0  0  0  0
  150.9307  140.5755  157.3894 C   0  0  2  0  0  0  0  0  0  0  0  0
  149.5293  140.6636  157.5422 O   0  0  0  0  0  0  0  0  0  0  0  0
  151.6746  141.5462  158.2960 C   0  0  0  0  0  0  0  0  0  0  0  0
  152.5009  141.0502  159.3275 C   0  0  0  0  0  0  0  0  0  0  0  0
  153.2177  141.9383  160.1524 C   0  0  0  0  0  0  0  0  0  0  0  0
  153.1117  143.3280  159.9513 C   0  0  0  0  0  0  0  0  0  0  0  0
  152.2883  143.8290  158.9247 C   0  0  0  0  0  0  0  0  0  0  0  0
  151.5718  142.9412  158.0991 C   0  0  0  0  0  0  0  0  0  0  0  0
  151.2991  136.6692  153.2366 H   0  0  0  0  0  0  0  0  0  0  0  0
  151.9456  137.7459  155.7654 H   0  0  0  0  0  0  0  0  0  0  0  0
  152.6515  138.2900  154.2571 H   0  0  0  0  0  0  0  0  0  0  0  0
  146.9676  138.9860  152.4397 H   0  0  0  0  0  0  0  0  0  0  0  0
  145.7960  141.1594  152.8296 H   0  0  0  0  0  0  0  0  0  0  0  0
  146.7815  142.8875  154.2891 H   0  0  0  0  0  0  0  0  0  0  0  0
  148.9653  142.5238  155.4196 H   0  0  0  0  0  0  0  0  0  0  0  0
  152.3132  140.5689  155.6922 H   0  0  0  0  0  0  0  0  0  0  0  0
  151.1249  141.8368  155.6325 H   0  0  0  0  0  0  0  0  0  0  0  0
  151.2045  139.5588  157.6731 H   0  0  0  0  0  0  0  0  0  0  0  0
  149.3216  140.5676  158.4593 H   0  0  0  0  0  0  0  0  0  0  0  0
  152.5946  139.9852  159.4831 H   0  0  0  0  0  0  0  0  0  0  0  0
  153.8500  141.5530  160.9385 H   0  0  0  0  0  0  0  0  0  0  0  0
  153.6617  144.0093  160.5837 H   0  0  0  0  0  0  0  0  0  0  0  0
  152.2075  144.8947  158.7686 H   0  0  0  0  0  0  0  0  0  0  0  0
  150.9505  143.3346  157.3078 H   0  0  0  0  0  0  0  0  0  0  0  0
  149.3881  137.6138  153.1868 H   0  0  0  0  0  0  0  0  0  0  0  0
  1  2  1  0  0  0  0
  1 21  1  0  0  0  0
  2  3  1  0  0  0  0
  2 22  1  0  0  0  0
  2 23  1  0  0  0  0
  3 11  1  0  0  0  0
  3  4  2  0  0  0  0
  4  5  1  0  0  0  0
  4 37  1  0  0  0  0
  5 10  2  0  0  0  0
  5  6  1  0  0  0  0
  6  7  2  0  0  0  0
  6 24  1  0  0  0  0
  7  8  1  0  0  0  0
  7 25  1  0  0  0  0
  8  9  2  0  0  0  0
  8 26  1  0  0  0  0
  9 10  1  0  0  0  0
  9 27  1  0  0  0  0
 10 11  1  0  0  0  0
 11 12  1  0  0  0  0
 12 13  1  0  0  0  0
 12 28  1  0  0  0  0
 12 29  1  0  0  0  0
 13 14  1  0  0  0  0
 13 15  1  0  0  0  0
 13 30  1  0  0  0  0
 14 31  1  0  0  0  0
 15 20  1  0  0  0  0
 15 16  2  0  0  0  0
 16 17  1  0  0  0  0
 16 32  1  0  0  0  0
 17 18  2  0  0  0  0
 17 33  1  0  0  0  0
 18 19  1  0  0  0  0
 18 34  1  0  0  0  0
 19 20  2  0  0  0  0
 19 35  1  0  0  0  0
 20 36  1  0  0  0  0
M  CHG  1   4   1
M  END
> <s_m_source_file>
AV-unprocessed.smi

> <i_m_source_file_index>
485

> <i_lp_mmshare_version>
43012

> <i_f3d_flags>
0

> <s_epik_input>
W2NIXTFbY0hdW2NIXVtjSF1jKGMxMiluKGMobjIpW0NIMl1bT0hdKVtDSDJdW0NASF0oW09IXSljM1tjSF1bY0hdW2NIXVtjSF1bY0hdMw==

> <s_epik_cmdline>
J2VwaWtfcHl0aG9uJywgJy1waCcsICc3LjAnLCAnLXRuJywgJzgnLCAnLW1hJywgJzIwMCcsICctbWV0YWxfYmluZGluZycsICctaW1hZScsICc8aW5maWxlLm1hZT4nLCAnLW9tYWUnLCAnPG91dGZpbGUubWFlPic=

> <r_epik_Ionization_Penalty>
1.35643

> <r_epik_Ionization_Penalty_Charging>
1.35557

> <r_epik_Ionization_Penalty_Neutral>
0.000857128

> <r_epik_State_Penalty>
1.43401

> <r_epik_Charging_Adjusted_Penalty>
2.78958

> <i_epik_Tot_Q>
1

> <i_epik_Tot_abs_Q>
1

> <r_epik_Metal_State_Penalty>
5.47166

> <b_epik_Metal_Only>
0

> <s_lp_Force_Field>
OPLS_2005

> <r_lp_Energy>
15.2591

> <b_lp_Chiralities_Consistent>
1

> <s_lp_Variant>
AV-unprocessed.smi:485-3

> <Gold.Version>
5.8.1

> <Gold.Id.Protein>
6NUR|6NUR_protein|mol2

> <Gold.PLP.Fitness>
58.8706

> <Gold.PLP.PLP>
-47.9152

> <Gold.PLP.part.hbond>
-4.0000

> <Gold.PLP.part.metal>
0.0000

> <Gold.PLP.part.buried>
1.6587

> <Gold.PLP.part.nonpolar>
-45.6565

> <Gold.PLP.part.repulsive>
0.0627

> <Gold.PLP.ligand.clash>
0.0000

> <Gold.PLP.ligand.torsion>
0.5472

> <Gold.PLP.Chemscore.Hbond>
4.0000

> <Gold.PLP.Chemscore.CHOScore>
0.0000

> <Gold.PLP.Chemscore.Metal>
0.0000

> <Gold.Chemscore.Hbonds>
donor molecule, donor type, donor heavy atom, donor atom, acceptor molecule, acceptor atom, score
      L1  H     1    21       P1  7949  1.00
      L1  H     4    37       P1  7948  2.00
      P1  H 10752 10764       L1     1  1.00

> <Gold.PLP.Chemscore.Internal.Correction>
0.0497

> <Gold.Rescore>
     Score         DG    S(hbond)    S(metal)    S(lipo)     H(rot)  DE(clash)    DE(int)     intcor
     20.30     -21.44       2.50        0.00     124.00       2.70       0.75       0.40       ----

> <Gold.Chemscore.Fitness>
20.2960

> <Gold.Chemscore.DG>
-21.4425

> <Gold.Chemscore.ZeroCoef>
-5.4800

> <Gold.Chemscore.Hbond>
2.5020

> <Gold.Chemscore.Metal>
0.0000

> <Gold.Chemscore.Lipo>
124.0004

> <Gold.Chemscore.Internal_Hbond>
0.0000

> <Gold.Chemscore.DEClash>
0.7496

> <Gold.Chemscore.DEInternal>
0.3968

> <Gold.Chemscore.Rot>
2.6963

> <Gold.Chemscore.Internal.Correction>
   9.000000E+99

> <Gold.Chemscore.Hbonds>
donor molecule, donor type, donor heavy atom, donor atom, acceptor molecule, acceptor atom, score
      L1  H     1    21       P1  7949  0.66
      L1  H     4    37       P1  7948  0.94
      P1  H 10752 10764       L1     1  0.28

> <Gold.Chemscore.Hbond.Weighted>
-8.3568

> <Gold.Chemscore.Metal.Weighted>
-0.0000

> <Gold.Chemscore.Lipo.Weighted>
-14.5080

> <Gold.Chemscore.Internal_Hbond.Weighted>
0.0000

> <Gold.Chemscore.DEClash.Weighted>
0.7496

> <Gold.Chemscore.DEInternal.Weighted>
0.3968

> <Gold.Chemscore.Rot.Weighted>
6.9024

> <Gold.Chemscore.Internal.Correction.Weighted>
   9.000000E+99

> <Gold.Protein.RotatedTorsions>
[ 6907 6896 6895 6894 ] final   71.78 input  -60.11 | X-H torsion
[ 7974 7965 7964 7962 ] final  -97.28 input  175.53 | X-H torsion
[ 8008 7997 7996 7995 ] final   96.13 input   59.86 | X-H torsion
[ 10167 10162 10161 10158 ] final  -95.43 input  -65.29 | X-H torsion
[ 10718 10713 10712 10709 ] final  -35.66 input   66.30 | X-H torsion
[ 10763 10752 10751 10750 ] final  -95.01 input  -60.55 | X-H torsion
[ 11005 11000 10999 10996 ] final   -2.46 input  -57.11 | X-H torsion

> <Gold.Protein.ActiveResidues>
 VAL166  LYS551  ARG553  GLY616  TRP617  ASP618  TYR619  PRO620  LYS621  CYS622 
 ASP623  PHE694  ASN695  SER759  ASP760  ASP761  ALA762  ILE779  LEU786  VAL792 
 PHE793  MET794  SER795  GLU796  ALA797  LYS798  CYS799  TRP800  GLU811  SER814 

> <Gold.Protein.RotatedAtoms>
  152.4830  134.4669  159.9622 H   0  0  0  0  0  0  0  0  0  0  0  0  # atno 6907 bound_to 6896
  151.4671  133.3572  159.2825 H   0  0  0  0  0  0  0  0  0  0  0  0  # atno 6908 bound_to 6896
  150.8918  134.8347  159.7359 H   0  0  0  0  0  0  0  0  0  0  0  0  # atno 6909 bound_to 6896
  145.3358  140.9450  143.2636 H   0  0  0  0  0  0  0  0  0  0  0  0  # atno 7974 bound_to 7965
  156.0764  140.3277  155.7638 H   0  0  0  0  0  0  0  0  0  0  0  0  # atno 8008 bound_to 7997
  155.5224  140.0586  157.2921 H   0  0  0  0  0  0  0  0  0  0  0  0  # atno 8009 bound_to 7997
  154.4557  140.1941  156.0403 H   0  0  0  0  0  0  0  0  0  0  0  0  # atno 8010 bound_to 7997
  140.3042  143.3144  152.0216 H   0  0  0  0  0  0  0  0  0  0  0  0  # atno 10167 bound_to 10162
  156.3360  130.4286  149.7830 H   0  0  0  0  0  0  0  0  0  0  0  0  # atno 10718 bound_to 10713
  154.7109  135.5136  153.8665 H   0  0  0  0  0  0  0  0  0  0  0  0  # atno 10763 bound_to 10752
  153.0779  135.6622  154.0115 H   0  0  0  0  0  0  0  0  0  0  0  0  # atno 10764 bound_to 10752
  153.9957  135.3015  155.3387 H   0  0  0  0  0  0  0  0  0  0  0  0  # atno 10765 bound_to 10752
  140.6585  133.9341  155.8422 H   0  0  0  0  0  0  0  0  0  0  0  0  # atno 11005 bound_to 11000
  144.8828  139.4880  143.6715 LP  0  0  0  0  0  0  0  0  0  0  0  0  # atno 17320 bound_to 7965
  146.3027  139.7479  142.9079 LP  0  0  0  0  0  0  0  0  0  0  0  0  # atno 17321 bound_to 7965
  139.4908  144.6433  151.6832 LP  0  0  0  0  0  0  0  0  0  0  0  0  # atno 17342 bound_to 10162
  140.5624  144.0246  150.6176 LP  0  0  0  0  0  0  0  0  0  0  0  0  # atno 17343 bound_to 10162
  156.5084  130.8161  151.3159 LP  0  0  0  0  0  0  0  0  0  0  0  0  # atno 17370 bound_to 10713
  157.7439  130.9922  150.2627 LP  0  0  0  0  0  0  0  0  0  0  0  0  # atno 17371 bound_to 10713
  141.0483  134.0522  157.3816 LP  0  0  0  0  0  0  0  0  0  0  0  0  # atno 17394 bound_to 11000
  139.9021  135.0168  156.7317 LP  0  0  0  0  0  0  0  0  0  0  0  0  # atno 17395 bound_to 11000

$$$$
