AV-unprocessed.smi:1601|AV-procd|sdf|6437|dock6
  -GOLD-   22720 7 83D 1   1.00000     0.00000
 Structure written by MMmdl.
 42 43  0  0  0  0  0  0  0  0  2 V2000
  145.8319  135.4269  152.4220 C   0  0  0  0  0  0  0  0  0  0  0  0
  146.3952  135.2327  153.8511 C   0  0  2  0  0  0  0  0  0  0  0  0
  146.4216  136.5935  154.6057 C   0  0  0  0  0  0  0  0  0  0  0  0
  147.4316  137.5172  154.0958 N   0  0  0  0  0  0  0  0  0  0  0  0
  147.8119  138.6531  154.7024 C   0  0  0  0  0  0  0  0  0  0  0  0
  147.3379  139.0293  155.7750 O   0  0  0  0  0  0  0  0  0  0  0  0
  148.8807  139.4884  153.9800 C   0  0  1  0  0  0  0  0  0  0  0  0
  148.6451  141.0055  154.1285 C   0  0  0  0  0  0  0  0  0  0  0  0
  150.2157  139.0901  154.4120 N   0  0  0  0  0  0  0  0  0  0  0  0
  150.7750  137.8287  154.3832 C   0  0  0  0  0  0  0  0  0  0  0  0
  152.0285  137.9219  154.9164 C   0  0  0  0  0  0  0  0  0  0  0  0
  152.1472  139.2965  155.2618 C   0  0  0  0  0  0  0  0  0  0  0  0
  151.0598  139.9901  154.9688 N   0  0  0  0  0  0  0  0  0  0  0  0
  147.7345  134.5543  153.8158 N   0  3  0  0  0  0  0  0  0  0  0  0
  148.4766  134.5787  155.1081 C   0  0  0  0  0  0  0  0  0  0  0  0
  149.8327  133.8608  154.9967 C   0  0  0  0  0  0  0  0  0  0  0  0
  149.6395  132.5282  154.5510 O   0  0  0  0  0  0  0  0  0  0  0  0
  149.0539  132.4997  153.2595 C   0  0  0  0  0  0  0  0  0  0  0  0
  147.6639  133.1544  153.3093 C   0  0  0  0  0  0  0  0  0  0  0  0
  144.8848  135.9655  152.4233 H   0  0  0  0  0  0  0  0  0  0  0  0
  145.6196  134.4827  151.9236 H   0  0  0  0  0  0  0  0  0  0  0  0
  146.5263  135.9897  151.7975 H   0  0  0  0  0  0  0  0  0  0  0  0
  145.7167  134.5713  154.3923 H   0  0  0  0  0  0  0  0  0  0  0  0
  145.4647  137.1112  154.5390 H   0  0  0  0  0  0  0  0  0  0  0  0
  146.6166  136.4299  155.6660 H   0  0  0  0  0  0  0  0  0  0  0  0
  147.8697  137.2781  153.2178 H   0  0  0  0  0  0  0  0  0  0  0  0
  148.8081  139.2586  152.9154 H   0  0  0  0  0  0  0  0  0  0  0  0
  147.6626  141.2895  153.7496 H   0  0  0  0  0  0  0  0  0  0  0  0
  149.3876  141.5702  153.5642 H   0  0  0  0  0  0  0  0  0  0  0  0
  148.7033  141.3316  155.1677 H   0  0  0  0  0  0  0  0  0  0  0  0
  150.2405  136.9776  153.9876 H   0  0  0  0  0  0  0  0  0  0  0  0
  152.7502  137.1287  155.0435 H   0  0  0  0  0  0  0  0  0  0  0  0
  152.9835  139.8062  155.7167 H   0  0  0  0  0  0  0  0  0  0  0  0
  148.6862  135.6009  155.4191 H   0  0  0  0  0  0  0  0  0  0  0  0
  147.8694  134.1153  155.8873 H   0  0  0  0  0  0  0  0  0  0  0  0
  150.5007  134.3925  154.3169 H   0  0  0  0  0  0  0  0  0  0  0  0
  150.3250  133.8377  155.9691 H   0  0  0  0  0  0  0  0  0  0  0  0
  149.6987  133.0047  152.5382 H   0  0  0  0  0  0  0  0  0  0  0  0
  148.9673  131.4623  152.9360 H   0  0  0  0  0  0  0  0  0  0  0  0
  147.0017  132.5680  153.9486 H   0  0  0  0  0  0  0  0  0  0  0  0
  147.2516  133.1190  152.3032 H   0  0  0  0  0  0  0  0  0  0  0  0
  148.3002  135.0725  153.1590 H   0  0  0  0  0  0  0  0  0  0  0  0
  1  2  1  0  0  0  0
  1 20  1  0  0  0  0
  1 21  1  0  0  0  0
  1 22  1  0  0  0  0
  2  3  1  0  0  0  0
  2 14  1  0  0  0  0
  2 23  1  0  0  0  0
  3  4  1  0  0  0  0
  3 24  1  0  0  0  0
  3 25  1  0  0  0  0
  4  5  1  0  0  0  0
  4 26  1  0  0  0  0
  5  6  2  0  0  0  0
  5  7  1  0  0  0  0
  7  8  1  0  0  0  0
  7  9  1  0  0  0  0
  7 27  1  0  0  0  0
  8 28  1  0  0  0  0
  8 29  1  0  0  0  0
  8 30  1  0  0  0  0
  9 13  1  0  0  0  0
  9 10  1  0  0  0  0
 10 11  2  0  0  0  0
 10 31  1  0  0  0  0
 11 12  1  0  0  0  0
 11 32  1  0  0  0  0
 12 13  2  0  0  0  0
 12 33  1  0  0  0  0
 14 19  1  0  0  0  0
 14 15  1  0  0  0  0
 14 42  1  0  0  0  0
 15 16  1  0  0  0  0
 15 34  1  0  0  0  0
 15 35  1  0  0  0  0
 16 17  1  0  0  0  0
 16 36  1  0  0  0  0
 16 37  1  0  0  0  0
 17 18  1  0  0  0  0
 18 19  1  0  0  0  0
 18 38  1  0  0  0  0
 18 39  1  0  0  0  0
 19 40  1  0  0  0  0
 19 41  1  0  0  0  0
M  CHG  1  14   1
M  END
> <s_m_source_file>
AV-unprocessed.smi

> <i_m_source_file_index>
1601

> <i_lp_mmshare_version>
43012

> <i_f3d_flags>
0

> <s_epik_input>
W0NIMl0xW0NIMl1PW0NIMl1bQ0gyXU4xW0NASF0oW0NIM10pW0NIMl1bTkhdQyg9TylbQ0BIXShbQ0gzXSluMltjSF1bY0hdW2NIXW4y

> <s_epik_cmdline>
J2VwaWtfcHl0aG9uJywgJy1waCcsICc3LjAnLCAnLXRuJywgJzgnLCAnLW1hJywgJzIwMCcsICctbWV0YWxfYmluZGluZycsICctaW1hZScsICc8aW5maWxlLm1hZT4nLCAnLW9tYWUnLCAnPG91dGZpbGUubWFlPic=

> <r_lp_tautomer_probability>
1

> <r_epik_Ionization_Penalty>
0.732551

> <r_epik_Ionization_Penalty_Charging>
0.732531

> <r_epik_Ionization_Penalty_Neutral>
2.04647e-05

> <r_epik_State_Penalty>
0.757939

> <r_epik_Charging_Adjusted_Penalty>
1.49047

> <i_epik_Tot_Q>
1

> <i_epik_Tot_abs_Q>
1

> <r_epik_Metal_State_Penalty>
0.757952

> <b_epik_Metal_Only>
0

> <s_lp_Force_Field>
OPLS_2005

> <r_lp_Energy>
24.7345

> <b_lp_Chiralities_Consistent>
1

> <s_lp_Variant>
AV-unprocessed.smi:1601-7

> <Gold.Version>
5.8.1

> <Gold.Id.Protein>
6NUR|6NUR_protein|mol2

> <Gold.PLP.Fitness>
43.9730

> <Gold.PLP.PLP>
-30.6014

> <Gold.PLP.part.hbond>
-3.0000

> <Gold.PLP.part.metal>
0.0000

> <Gold.PLP.part.buried>
-2.4143

> <Gold.PLP.part.nonpolar>
-26.0478

> <Gold.PLP.part.repulsive>
0.0972

> <Gold.PLP.ligand.clash>
0.0000

> <Gold.PLP.ligand.torsion>
0.9638

> <Gold.PLP.Chemscore.Hbond>
4.0000

> <Gold.PLP.Chemscore.CHOScore>
1.0507

> <Gold.PLP.Chemscore.Metal>
0.0000

> <Gold.Chemscore.Hbonds>
donor molecule, donor type, donor heavy atom, donor atom, acceptor molecule, acceptor atom, score
      L1  H     4    26       P1  7948  1.00
      L1  H    14    42       P1  7948  2.00
      P1  H  7989  7998       L1    13  1.00
      L1  C    10    31       P1  7948  0.93
      L1  C    10    31       P1  7949  0.05

> <Gold.PLP.Chemscore.Internal.Correction>
0.1470

> <Gold.Rescore>
     Score         DG    S(hbond)    S(metal)    S(lipo)     H(rot)  DE(clash)    DE(int)     intcor
     15.64     -17.82       2.84        0.00      65.25       1.86       0.81       1.37       ----

> <Gold.Chemscore.Fitness>
15.6446

> <Gold.Chemscore.DG>
-17.8237

> <Gold.Chemscore.ZeroCoef>
-5.4800

> <Gold.Chemscore.Hbond>
2.8381

> <Gold.Chemscore.Metal>
0.0000

> <Gold.Chemscore.Lipo>
65.2481

> <Gold.Chemscore.Internal_Hbond>
0.0000

> <Gold.Chemscore.DEClash>
0.8087

> <Gold.Chemscore.DEInternal>
1.3703

> <Gold.Chemscore.Rot>
1.8631

> <Gold.Chemscore.Internal.Correction>
   9.000000E+99

> <Gold.Chemscore.Hbonds>
donor molecule, donor type, donor heavy atom, donor atom, acceptor molecule, acceptor atom, score
      L1  H     4    26       P1  7948  0.93
      L1  H    14    42       P1  7948  0.93
      P1  H  7989  7998       L1    13  0.08

> <Gold.Chemscore.Hbond.Weighted>
-9.4793

> <Gold.Chemscore.Metal.Weighted>
-0.0000

> <Gold.Chemscore.Lipo.Weighted>
-7.6340

> <Gold.Chemscore.Internal_Hbond.Weighted>
0.0000

> <Gold.Chemscore.DEClash.Weighted>
0.8087

> <Gold.Chemscore.DEInternal.Weighted>
1.3703

> <Gold.Chemscore.Rot.Weighted>
4.7697

> <Gold.Chemscore.Internal.Correction.Weighted>
   9.000000E+99

> <Gold.Protein.RotatedTorsions>
[ 6907 6896 6895 6894 ] final   63.81 input  -60.11 | X-H torsion
[ 7974 7965 7964 7962 ] final   85.82 input  175.53 | X-H torsion
[ 8008 7997 7996 7995 ] final -122.15 input   59.86 | X-H torsion
[ 10167 10162 10161 10158 ] final    6.34 input  -65.29 | X-H torsion
[ 10718 10713 10712 10709 ] final   98.84 input   66.30 | X-H torsion
[ 10763 10752 10751 10750 ] final  121.60 input  -60.55 | X-H torsion
[ 11005 11000 10999 10996 ] final -115.12 input  -57.11 | X-H torsion

> <Gold.Protein.ActiveResidues>
 VAL166  LYS551  ARG553  GLY616  TRP617  ASP618  TYR619  PRO620  LYS621  CYS622 
 ASP623  PHE694  ASN695  SER759  ASP760  ASP761  ALA762  ILE779  LEU786  VAL792 
 PHE793  MET794  SER795  GLU796  ALA797  LYS798  CYS799  TRP800  GLU811  SER814 

> <Gold.Protein.RotatedAtoms>
  152.4282  134.5828  159.9952 H   0  0  0  0  0  0  0  0  0  0  0  0  # atno 6907 bound_to 6896
  151.5958  133.3356  159.3045 H   0  0  0  0  0  0  0  0  0  0  0  0  # atno 6908 bound_to 6896
  150.8173  134.7398  159.6806 H   0  0  0  0  0  0  0  0  0  0  0  0  # atno 6909 bound_to 6896
  145.5804  139.2324  143.2356 H   0  0  0  0  0  0  0  0  0  0  0  0  # atno 7974 bound_to 7965
  155.1596  140.0405  157.2839 H   0  0  0  0  0  0  0  0  0  0  0  0  # atno 8008 bound_to 7997
  154.6346  140.2532  155.7366 H   0  0  0  0  0  0  0  0  0  0  0  0  # atno 8009 bound_to 7997
  156.2502  140.2868  156.0713 H   0  0  0  0  0  0  0  0  0  0  0  0  # atno 8010 bound_to 7997
  140.6433  143.7723  150.7460 H   0  0  0  0  0  0  0  0  0  0  0  0  # atno 10167 bound_to 10162
  157.6888  131.0652  150.4858 H   0  0  0  0  0  0  0  0  0  0  0  0  # atno 10718 bound_to 10713
  153.6166  135.3420  155.2997 H   0  0  0  0  0  0  0  0  0  0  0  0  # atno 10763 bound_to 10752
  154.8608  135.4263  154.2252 H   0  0  0  0  0  0  0  0  0  0  0  0  # atno 10764 bound_to 10752
  153.3115  135.7032  153.7184 H   0  0  0  0  0  0  0  0  0  0  0  0  # atno 10765 bound_to 10752
  141.0508  133.9690  157.2839 H   0  0  0  0  0  0  0  0  0  0  0  0  # atno 11005 bound_to 11000
  146.1720  140.6630  142.9229 LP  0  0  0  0  0  0  0  0  0  0  0  0  # atno 17320 bound_to 7965
  144.7396  140.4906  143.6878 LP  0  0  0  0  0  0  0  0  0  0  0  0  # atno 17321 bound_to 7965
  140.1358  143.4485  152.2225 LP  0  0  0  0  0  0  0  0  0  0  0  0  # atno 17342 bound_to 10162
  139.5642  144.7425  151.4068 LP  0  0  0  0  0  0  0  0  0  0  0  0  # atno 17343 bound_to 10162
  156.5187  130.4156  149.6262 LP  0  0  0  0  0  0  0  0  0  0  0  0  # atno 17370 bound_to 10713
  156.3174  130.7262  151.2167 LP  0  0  0  0  0  0  0  0  0  0  0  0  # atno 17371 bound_to 10713
  139.9349  135.0197  156.8522 LP  0  0  0  0  0  0  0  0  0  0  0  0  # atno 17394 bound_to 11000
  140.6059  134.0128  155.7556 LP  0  0  0  0  0  0  0  0  0  0  0  0  # atno 17395 bound_to 11000

$$$$
