AV-unprocessed.smi:17|AV-procd|sdf|103|dock10
  -GOLD-   2262015253D 1   1.00000     0.00000
 Structure written by MMmdl.
 57 59  0  0  0  0  0  0  0  0  1 V2000
  147.5020  141.9929  154.1009 C   0  0  0  0  0  0  0  0  0  0  0  0
  148.1414  140.5954  154.0824 C   0  0  0  0  0  0  0  0  0  0  0  0
  148.0234  139.8886  155.3613 N   0  0  0  0  0  0  0  0  0  0  0  0
  147.4195  138.6683  155.3622 C   0  0  0  0  0  0  0  0  0  0  0  0
  147.4884  137.8976  156.4806 N   0  0  0  0  0  0  0  0  0  0  0  0
  146.9141  136.6924  156.5136 C   0  0  0  0  0  0  0  0  0  0  0  0
  146.2282  136.0701  155.5548 N   0  0  0  0  0  0  0  0  0  0  0  0
  146.1498  136.8347  154.4293 C   0  0  0  0  0  0  0  0  0  0  0  0
  146.7137  138.1303  154.2457 C   0  0  0  0  0  0  0  0  0  0  0  0
  146.4133  138.5915  152.9684 N   0  0  0  0  0  0  0  0  0  0  0  0
  145.7156  137.6290  152.4310 C   0  0  0  0  0  0  0  0  0  0  0  0
  145.5039  136.5387  153.2415 N   0  0  0  0  0  0  0  0  0  0  0  0
  144.7579  135.3399  152.8993 C   0  0  0  0  0  0  0  0  0  0  0  0
  145.6125  134.2787  152.1556 C   0  0  2  0  0  0  0  0  0  0  0  0
  146.1438  134.8237  150.8045 C   0  0  0  0  0  0  0  0  0  0  0  0
  145.1108  135.4176  150.0453 O   0  0  0  0  0  0  0  0  0  0  0  0
  144.8498  132.9250  152.0208 C   0  0  2  0  0  0  0  0  0  0  0  0
  145.6273  131.8536  151.2612 C   0  0  0  0  0  0  0  0  0  0  0  0
  145.2790  132.1175  149.7941 C   0  0  0  0  0  0  0  0  0  0  0  0
  144.0926  132.9039  149.8070 O   0  0  0  0  0  0  0  0  0  0  0  0
  143.5973  132.9674  151.1357 C   0  0  0  0  0  0  0  0  0  0  0  0
  148.8451  140.2810  156.5156 C   0  0  1  0  0  0  0  0  0  0  0  0
  147.9780  140.6831  157.7208 C   0  0  0  0  0  0  0  0  0  0  0  0
  149.8846  139.2054  156.8986 C   0  0  0  0  0  0  0  0  0  0  0  0
  151.2641  139.0543  155.6722 S   0  0  0  0  0  0  0  0  0  0  0  0
  151.2357  137.2643  155.2454 C   0  0  0  0  0  0  0  0  0  0  0  0
  150.9262  139.8190  154.4618 O   0  0  0  0  0  0  0  0  0  0  0  0
  152.5270  139.3209  156.3768 O   0  0  0  0  0  0  0  0  0  0  0  0
  147.5764  142.4610  153.1195 H   0  0  0  0  0  0  0  0  0  0  0  0
  147.9964  142.6515  154.8151 H   0  0  0  0  0  0  0  0  0  0  0  0
  146.4456  141.9465  154.3647 H   0  0  0  0  0  0  0  0  0  0  0  0
  147.6565  140.0096  153.3028 H   0  0  0  0  0  0  0  0  0  0  0  0
  149.1851  140.6639  153.7813 H   0  0  0  0  0  0  0  0  0  0  0  0
  147.0178  136.1495  157.4415 H   0  0  0  0  0  0  0  0  0  0  0  0
  145.3269  137.6905  151.4248 H   0  0  0  0  0  0  0  0  0  0  0  0
  144.3513  134.9443  153.8280 H   0  0  0  0  0  0  0  0  0  0  0  0
  143.8984  135.6247  152.2914 H   0  0  0  0  0  0  0  0  0  0  0  0
  146.4943  134.0945  152.7709 H   0  0  0  0  0  0  0  0  0  0  0  0
  146.9298  135.5624  150.9576 H   0  0  0  0  0  0  0  0  0  0  0  0
  146.6112  134.0376  150.2141 H   0  0  0  0  0  0  0  0  0  0  0  0
  145.3898  135.4651  149.1436 H   0  0  0  0  0  0  0  0  0  0  0  0
  144.5863  132.5706  153.0184 H   0  0  0  0  0  0  0  0  0  0  0  0
  146.7013  131.8444  151.4373 H   0  0  0  0  0  0  0  0  0  0  0  0
  145.2515  130.8697  151.5463 H   0  0  0  0  0  0  0  0  0  0  0  0
  146.0688  132.6803  149.2960 H   0  0  0  0  0  0  0  0  0  0  0  0
  145.1255  131.1885  149.2447 H   0  0  0  0  0  0  0  0  0  0  0  0
  142.9874  132.0806  151.3161 H   0  0  0  0  0  0  0  0  0  0  0  0
  142.9482  133.8269  151.2890 H   0  0  0  0  0  0  0  0  0  0  0  0
  149.4264  141.1650  156.2532 H   0  0  0  0  0  0  0  0  0  0  0  0
  148.5945  141.0656  158.5346 H   0  0  0  0  0  0  0  0  0  0  0  0
  147.4104  139.8370  158.1083 H   0  0  0  0  0  0  0  0  0  0  0  0
  147.2693  141.4672  157.4528 H   0  0  0  0  0  0  0  0  0  0  0  0
  150.3500  139.4889  157.8429 H   0  0  0  0  0  0  0  0  0  0  0  0
  149.4419  138.2230  157.0566 H   0  0  0  0  0  0  0  0  0  0  0  0
  152.0918  137.0329  154.6125 H   0  0  0  0  0  0  0  0  0  0  0  0
  150.3239  137.0248  154.7036 H   0  0  0  0  0  0  0  0  0  0  0  0
  151.2892  136.6677  156.1557 H   0  0  0  0  0  0  0  0  0  0  0  0
  1  2  1  0  0  0  0
  1 29  1  0  0  0  0
  1 30  1  0  0  0  0
  1 31  1  0  0  0  0
  2  3  1  0  0  0  0
  2 32  1  0  0  0  0
  2 33  1  0  0  0  0
  3  4  1  0  0  0  0
  3 22  1  0  0  0  0
  4  9  1  0  0  0  0
  4  5  2  0  0  0  0
  5  6  1  0  0  0  0
  6  7  2  0  0  0  0
  6 34  1  0  0  0  0
  7  8  1  0  0  0  0
  8 12  1  0  0  0  0
  8  9  2  0  0  0  0
  9 10  1  0  0  0  0
 10 11  2  0  0  0  0
 11 12  1  0  0  0  0
 11 35  1  0  0  0  0
 12 13  1  0  0  0  0
 13 14  1  0  0  0  0
 13 36  1  0  0  0  0
 13 37  1  0  0  0  0
 14 15  1  0  0  0  0
 14 17  1  0  0  0  0
 14 38  1  0  0  0  0
 15 16  1  0  0  0  0
 15 39  1  0  0  0  0
 15 40  1  0  0  0  0
 16 41  1  0  0  0  0
 17 21  1  0  0  0  0
 17 18  1  0  0  0  0
 17 42  1  0  0  0  0
 18 19  1  0  0  0  0
 18 43  1  0  0  0  0
 18 44  1  0  0  0  0
 19 20  1  0  0  0  0
 19 45  1  0  0  0  0
 19 46  1  0  0  0  0
 20 21  1  0  0  0  0
 21 47  1  0  0  0  0
 21 48  1  0  0  0  0
 22 23  1  0  0  0  0
 22 24  1  0  0  0  0
 22 49  1  0  0  0  0
 23 50  1  0  0  0  0
 23 51  1  0  0  0  0
 23 52  1  0  0  0  0
 24 25  1  0  0  0  0
 24 53  1  0  0  0  0
 24 54  1  0  0  0  0
 25 26  1  0  0  0  0
 25 27  2  0  0  0  0
 25 28  2  0  0  0  0
 26 55  1  0  0  0  0
 26 56  1  0  0  0  0
 26 57  1  0  0  0  0
M  END
> <s_m_source_file>
AV-unprocessed.smi

> <i_m_source_file_index>
17

> <i_lp_mmshare_version>
43012

> <i_f3d_flags>
0

> <s_epik_input>
W0NIM11TKD1PKSg9TylbQ0gyXVtDQEBIXShbQ0gzXSlOKFtDSDJdW0NIM10pYyhuW2NIXW4xKWMoYzEyKW5bY0hdbjJbQ0gyXVtDQEhdKFtDSDJdW09IXSlbQ0BASF0zW0NIMl1bQ0gyXU9bQ0gyXTM=

> <s_epik_cmdline>
J2VwaWtfcHl0aG9uJywgJy1waCcsICc3LjAnLCAnLXRuJywgJzgnLCAnLW1hJywgJzIwMCcsICctbWV0YWxfYmluZGluZycsICctaW1hZScsICc8aW5maWxlLm1hZT4nLCAnLW9tYWUnLCAnPG91dGZpbGUubWFlPic=

> <r_lp_tautomer_probability>
1

> <r_epik_Ionization_Penalty>
0.00119955

> <r_epik_Ionization_Penalty_Charging>
0

> <r_epik_Ionization_Penalty_Neutral>
0.00119955

> <r_epik_State_Penalty>
0.000665399

> <r_epik_Charging_Adjusted_Penalty>
0.000665399

> <i_epik_Tot_Q>
0

> <i_epik_Tot_abs_Q>
0

> <r_epik_Metal_State_Penalty>
-0

> <b_epik_Metal_Only>
0

> <s_lp_Force_Field>
OPLS_2005

> <r_lp_Energy>
34.7732

> <b_lp_Chiralities_Consistent>
1

> <s_lp_Variant>
AV-unprocessed.smi:17-5

> <Gold.Version>
5.8.1

> <Gold.Id.Protein>
6NUR|6NUR_protein|mol2

> <Gold.PLP.Fitness>
44.8560

> <Gold.PLP.PLP>
-33.2437

> <Gold.PLP.part.hbond>
-3.0000

> <Gold.PLP.part.metal>
0.0000

> <Gold.PLP.part.buried>
-8.5596

> <Gold.PLP.part.nonpolar>
-23.0617

> <Gold.PLP.part.repulsive>
0.6032

> <Gold.PLP.ligand.clash>
0.0000

> <Gold.PLP.ligand.torsion>
0.9787

> <Gold.PLP.Chemscore.Hbond>
3.0000

> <Gold.PLP.Chemscore.CHOScore>
1.0000

> <Gold.PLP.Chemscore.Metal>
0.0000

> <Gold.Chemscore.Hbonds>
donor molecule, donor type, donor heavy atom, donor atom, acceptor molecule, acceptor atom, score
      L1  H    16    41       P1  7921  1.00
      P1  H  7989  7998       L1    27  1.00
      P1  H  7997  8009       L1    28  1.00
      L1  C    11    35       P1 10171  1.00

> <Gold.PLP.Chemscore.Internal.Correction>
1.5697

> <Gold.Rescore>
     Score         DG    S(hbond)    S(metal)    S(lipo)     H(rot)  DE(clash)    DE(int)     intcor
      7.47     -14.95       2.92        0.00      74.41       3.51       0.04       7.44       ----

> <Gold.Chemscore.Fitness>
7.4706

> <Gold.Chemscore.DG>
-14.9512

> <Gold.Chemscore.ZeroCoef>
-5.4800

> <Gold.Chemscore.Hbond>
2.9162

> <Gold.Chemscore.Metal>
0.0000

> <Gold.Chemscore.Lipo>
74.4093

> <Gold.Chemscore.Internal_Hbond>
0.0000

> <Gold.Chemscore.DEClash>
0.0404

> <Gold.Chemscore.DEInternal>
7.4401

> <Gold.Chemscore.Rot>
3.5059

> <Gold.Chemscore.Internal.Correction>
   9.000000E+99

> <Gold.Chemscore.Hbonds>
donor molecule, donor type, donor heavy atom, donor atom, acceptor molecule, acceptor atom, score
      L1  H    16    41       P1  7921  0.98
      P1  H  7989  7998       L1    27  0.98
      P1  H  7997  8009       L1    28  0.96

> <Gold.Chemscore.Hbond.Weighted>
-9.7402

> <Gold.Chemscore.Metal.Weighted>
-0.0000

> <Gold.Chemscore.Lipo.Weighted>
-8.7059

> <Gold.Chemscore.Internal_Hbond.Weighted>
0.0000

> <Gold.Chemscore.DEClash.Weighted>
0.0404

> <Gold.Chemscore.DEInternal.Weighted>
7.4401

> <Gold.Chemscore.Rot.Weighted>
8.9750

> <Gold.Chemscore.Internal.Correction.Weighted>
   9.000000E+99

> <Gold.Protein.RotatedTorsions>
[ 6907 6896 6895 6894 ] final -115.95 input  -60.11 | X-H torsion
[ 7974 7965 7964 7962 ] final  -13.84 input  175.53 | X-H torsion
[ 8008 7997 7996 7995 ] final -178.82 input   59.86 | X-H torsion
[ 10167 10162 10161 10158 ] final  107.37 input  -65.29 | X-H torsion
[ 10718 10713 10712 10709 ] final  126.05 input   66.30 | X-H torsion
[ 10763 10752 10751 10750 ] final   33.69 input  -60.55 | X-H torsion
[ 11005 11000 10999 10996 ] final   21.90 input  -57.11 | X-H torsion

> <Gold.Protein.ActiveResidues>
 VAL166  LYS551  ARG553  GLY616  TRP617  ASP618  TYR619  PRO620  LYS621  CYS622 
 ASP623  PHE694  ASN695  SER759  ASP760  ASP761  ALA762  ILE779  LEU786  VAL792 
 PHE793  MET794  SER795  GLU796  ALA797  LYS798  CYS799  TRP800  GLU811  SER814 

> <Gold.Protein.RotatedAtoms>
  150.8017  133.8586  159.3225 H   0  0  0  0  0  0  0  0  0  0  0  0  # atno 6907 bound_to 6896
  151.6396  135.1012  160.0148 H   0  0  0  0  0  0  0  0  0  0  0  0  # atno 6908 bound_to 6896
  152.4105  133.6916  159.6429 H   0  0  0  0  0  0  0  0  0  0  0  0  # atno 6909 bound_to 6896
  146.2098  140.3261  142.8395 H   0  0  0  0  0  0  0  0  0  0  0  0  # atno 7974 bound_to 7965
  156.0233  140.1266  157.0335 H   0  0  0  0  0  0  0  0  0  0  0  0  # atno 8008 bound_to 7997
  154.4320  140.1064  156.6065 H   0  0  0  0  0  0  0  0  0  0  0  0  # atno 8009 bound_to 7997
  155.5913  140.3469  155.4569 H   0  0  0  0  0  0  0  0  0  0  0  0  # atno 8010 bound_to 7997
  139.6932  144.7105  151.1312 H   0  0  0  0  0  0  0  0  0  0  0  0  # atno 10167 bound_to 10162
  157.5452  131.1096  150.8793 H   0  0  0  0  0  0  0  0  0  0  0  0  # atno 10718 bound_to 10713
  153.0200  135.6380  154.1551 H   0  0  0  0  0  0  0  0  0  0  0  0  # atno 10763 bound_to 10752
  154.1286  135.2842  155.3192 H   0  0  0  0  0  0  0  0  0  0  0  0  # atno 10764 bound_to 10752
  154.6211  135.5524  153.7638 H   0  0  0  0  0  0  0  0  0  0  0  0  # atno 10765 bound_to 10752
  140.3864  134.1865  155.7663 H   0  0  0  0  0  0  0  0  0  0  0  0  # atno 11005 bound_to 11000
  144.8885  140.7493  143.5941 LP  0  0  0  0  0  0  0  0  0  0  0  0  # atno 17320 bound_to 7965
  145.3183  139.1796  143.4601 LP  0  0  0  0  0  0  0  0  0  0  0  0  # atno 17321 bound_to 7965
  140.7689  143.5529  150.9185 LP  0  0  0  0  0  0  0  0  0  0  0  0  # atno 17342 bound_to 10162
  139.9207  143.6609  152.3097 LP  0  0  0  0  0  0  0  0  0  0  0  0  # atno 17343 bound_to 10162
  156.9334  130.5358  149.5279 LP  0  0  0  0  0  0  0  0  0  0  0  0  # atno 17370 bound_to 10713
  156.0530  130.5596  150.9030 LP  0  0  0  0  0  0  0  0  0  0  0  0  # atno 17371 bound_to 10713
  141.1906  133.8214  157.0913 LP  0  0  0  0  0  0  0  0  0  0  0  0  # atno 17394 bound_to 11000
  140.0439  134.9840  157.1013 LP  0  0  0  0  0  0  0  0  0  0  0  0  # atno 17395 bound_to 11000

$$$$
