AV-unprocessed.smi:2786|AV-procd|sdf|10755|dock8
  -GOLD-   2272015183D 1   1.00000     0.00000
 Structure written by MMmdl.
 26 27  0  0  0  0  0  0  0  0  1 V2000
  151.4237  143.4097  158.6195 C   0  0  0  0  0  0  0  0  0  0  0  0
  152.1573  142.1639  158.7309 N   0  0  0  0  0  0  0  0  0  0  0  0
  152.9784  141.7966  159.7888 C   0  0  0  0  0  0  0  0  0  0  0  0
  153.4787  140.5537  159.4864 C   0  0  0  0  0  0  0  0  0  0  0  0
  152.9806  140.1445  158.2546 N   0  0  0  0  0  0  0  0  0  0  0  0
  152.1917  141.1400  157.8548 C   0  0  0  0  0  0  0  0  0  0  0  0
  151.4429  141.1550  156.5522 C   0  0  1  0  0  0  0  0  0  0  0  0
  151.7254  139.8749  155.7359 C   0  0  0  0  0  0  0  0  0  0  0  0
  151.0018  139.8925  154.4625 N   0  0  0  0  0  0  0  0  0  0  0  0
  149.5630  140.0503  154.6796 C   0  0  0  0  0  0  0  0  0  0  0  0
  149.2739  141.3300  155.4850 C   0  0  0  0  0  0  0  0  0  0  0  0
  149.9976  141.3147  156.7579 N   0  0  0  0  0  0  0  0  0  0  0  0
  151.6972  144.0813  159.4338 H   0  0  0  0  0  0  0  0  0  0  0  0
  150.3528  143.2118  158.6696 H   0  0  0  0  0  0  0  0  0  0  0  0
  151.6574  143.8945  157.6712 H   0  0  0  0  0  0  0  0  0  0  0  0
  153.1375  142.4348  160.6459 H   0  0  0  0  0  0  0  0  0  0  0  0
  154.1537  139.9293  160.0527 H   0  0  0  0  0  0  0  0  0  0  0  0
  151.7966  142.0088  155.9737 H   0  0  0  0  0  0  0  0  0  0  0  0
  152.7955  139.7850  155.5481 H   0  0  0  0  0  0  0  0  0  0  0  0
  151.4377  138.9957  156.3142 H   0  0  0  0  0  0  0  0  0  0  0  0
  151.1746  139.0248  153.9653 H   0  0  0  0  0  0  0  0  0  0  0  0
  149.0446  140.0909  153.7216 H   0  0  0  0  0  0  0  0  0  0  0  0
  149.1686  139.1826  155.2103 H   0  0  0  0  0  0  0  0  0  0  0  0
  149.5621  142.2062  154.9024 H   0  0  0  0  0  0  0  0  0  0  0  0
  148.2030  141.4171  155.6686 H   0  0  0  0  0  0  0  0  0  0  0  0
  149.8242  142.1829  157.2540 H   0  0  0  0  0  0  0  0  0  0  0  0
  1  2  1  0  0  0  0
  1 13  1  0  0  0  0
  1 14  1  0  0  0  0
  1 15  1  0  0  0  0
  2  6  1  0  0  0  0
  2  3  1  0  0  0  0
  3  4  2  0  0  0  0
  3 16  1  0  0  0  0
  4  5  1  0  0  0  0
  4 17  1  0  0  0  0
  5  6  2  0  0  0  0
  6  7  1  0  0  0  0
  7 12  1  0  0  0  0
  7  8  1  0  0  0  0
  7 18  1  0  0  0  0
  8  9  1  0  0  0  0
  8 19  1  0  0  0  0
  8 20  1  0  0  0  0
  9 10  1  0  0  0  0
  9 21  1  0  0  0  0
 10 11  1  0  0  0  0
 10 22  1  0  0  0  0
 10 23  1  0  0  0  0
 11 12  1  0  0  0  0
 11 24  1  0  0  0  0
 11 25  1  0  0  0  0
 12 26  1  0  0  0  0
M  END
> <s_m_source_file>
AV-unprocessed.smi

> <i_m_source_file_index>
2786

> <i_lp_mmshare_version>
43012

> <i_f3d_flags>
0

> <s_epik_input>
W0NIM11uMVtjSF1bY0hdbmMxW0NAQEhdMltDSDJdW05IXVtDSDJdW0NIMl1bTkhdMg==

> <s_epik_cmdline>
J2VwaWtfcHl0aG9uJywgJy1waCcsICc3LjAnLCAnLXRuJywgJzgnLCAnLW1hJywgJzIwMCcsICctbWV0YWxfYmluZGluZycsICctaW1hZScsICc8aW5maWxlLm1hZT4nLCAnLW9tYWUnLCAnPG91dGZpbGUubWFlPic=

> <r_lp_tautomer_probability>
1

> <r_epik_Ionization_Penalty>
3.5722

> <r_epik_Ionization_Penalty_Charging>
1.66148

> <r_epik_Ionization_Penalty_Neutral>
1.91072

> <r_epik_State_Penalty>
2.63328

> <r_epik_Charging_Adjusted_Penalty>
4.29476

> <i_epik_Tot_Q>
0

> <i_epik_Tot_abs_Q>
0

> <r_epik_Metal_State_Penalty>
0.942173

> <b_epik_Metal_Only>
0

> <s_lp_Force_Field>
OPLS_2005

> <r_lp_Energy>
22.0451

> <b_lp_Chiralities_Consistent>
1

> <s_lp_Variant>
AV-unprocessed.smi:2786-8

> <Gold.Version>
5.8.1

> <Gold.Id.Protein>
6NUR|6NUR_protein|mol2

> <Gold.PLP.Fitness>
29.9987

> <Gold.PLP.PLP>
-24.0737

> <Gold.PLP.part.hbond>
-2.0000

> <Gold.PLP.part.metal>
0.0000

> <Gold.PLP.part.buried>
-3.6166

> <Gold.PLP.part.nonpolar>
-17.8985

> <Gold.PLP.part.repulsive>
0.0000

> <Gold.PLP.ligand.clash>
0.0000

> <Gold.PLP.ligand.torsion>
0.0075

> <Gold.PLP.Chemscore.Hbond>
1.9750

> <Gold.PLP.Chemscore.CHOScore>
0.0000

> <Gold.PLP.Chemscore.Metal>
0.0000

> <Gold.Chemscore.Hbonds>
donor molecule, donor type, donor heavy atom, donor atom, acceptor molecule, acceptor atom, score
      P1  H  7989  7998       L1     9  0.90
      P1  H  7997  8008       L1     5  1.00

> <Gold.PLP.Chemscore.Internal.Correction>
0.0150

> <Gold.Rescore>
     Score         DG    S(hbond)    S(metal)    S(lipo)     H(rot)  DE(clash)    DE(int)     intcor
     12.66     -12.70       1.15        0.00      50.88       1.00       0.02       0.02       ----

> <Gold.Chemscore.Fitness>
12.6568

> <Gold.Chemscore.DG>
-12.6985

> <Gold.Chemscore.ZeroCoef>
-5.4800

> <Gold.Chemscore.Hbond>
1.1455

> <Gold.Chemscore.Metal>
0.0000

> <Gold.Chemscore.Lipo>
50.8773

> <Gold.Chemscore.Internal_Hbond>
0.0000

> <Gold.Chemscore.DEClash>
0.0234

> <Gold.Chemscore.DEInternal>
0.0182

> <Gold.Chemscore.Rot>
1.0000

> <Gold.Chemscore.Internal.Correction>
   9.000000E+99

> <Gold.Chemscore.Hbonds>
donor molecule, donor type, donor heavy atom, donor atom, acceptor molecule, acceptor atom, score
      P1  H  7989  7998       L1     9  0.14
      P1  H  7997  8008       L1     5  0.32

> <Gold.Chemscore.Hbond.Weighted>
-3.8258

> <Gold.Chemscore.Metal.Weighted>
-0.0000

> <Gold.Chemscore.Lipo.Weighted>
-5.9526

> <Gold.Chemscore.Internal_Hbond.Weighted>
0.0000

> <Gold.Chemscore.DEClash.Weighted>
0.0234

> <Gold.Chemscore.DEInternal.Weighted>
0.0182

> <Gold.Chemscore.Rot.Weighted>
2.5600

> <Gold.Chemscore.Internal.Correction.Weighted>
   9.000000E+99

> <Gold.Protein.RotatedTorsions>
[ 6907 6896 6895 6894 ] final   16.91 input  -60.11 | X-H torsion
[ 7974 7965 7964 7962 ] final   20.57 input  175.53 | X-H torsion
[ 8008 7997 7996 7995 ] final  -82.86 input   59.86 | X-H torsion
[ 10167 10162 10161 10158 ] final    0.71 input  -65.29 | X-H torsion
[ 10718 10713 10712 10709 ] final -172.98 input   66.30 | X-H torsion
[ 10763 10752 10751 10750 ] final -128.52 input  -60.55 | X-H torsion
[ 11005 11000 10999 10996 ] final  -45.77 input  -57.11 | X-H torsion

> <Gold.Protein.ActiveResidues>
 VAL166  LYS551  ARG553  GLY616  TRP617  ASP618  TYR619  PRO620  LYS621  CYS622 
 ASP623  PHE694  ASN695  SER759  ASP760  ASP761  ALA762  ILE779  LEU786  VAL792 
 PHE793  MET794  SER795  GLU796  ALA797  LYS798  CYS799  TRP800  GLU811  SER814 

> <Gold.Protein.RotatedAtoms>
  151.8414  135.0589  160.0448 H   0  0  0  0  0  0  0  0  0  0  0  0  # atno 6907 bound_to 6896
  152.2806  133.5462  159.5504 H   0  0  0  0  0  0  0  0  0  0  0  0  # atno 6908 bound_to 6896
  150.7188  134.0485  159.3832 H   0  0  0  0  0  0  0  0  0  0  0  0  # atno 6909 bound_to 6896
  146.2106  139.8151  142.8692 H   0  0  0  0  0  0  0  0  0  0  0  0  # atno 7974 bound_to 7965
  154.6131  140.0627  156.9519 H   0  0  0  0  0  0  0  0  0  0  0  0  # atno 8008 bound_to 7997
  155.1941  140.3309  155.4335 H   0  0  0  0  0  0  0  0  0  0  0  0  # atno 8009 bound_to 7997
  156.2388  140.1876  156.7029 H   0  0  0  0  0  0  0  0  0  0  0  0  # atno 8010 bound_to 7997
  140.6716  143.7032  150.7935 H   0  0  0  0  0  0  0  0  0  0  0  0  # atno 10167 bound_to 10162
  156.7635  130.9422  151.3118 H   0  0  0  0  0  0  0  0  0  0  0  0  # atno 10718 bound_to 10713
  154.8756  135.3925  154.3771 H   0  0  0  0  0  0  0  0  0  0  0  0  # atno 10763 bound_to 10752
  153.4523  135.7028  153.6106 H   0  0  0  0  0  0  0  0  0  0  0  0  # atno 10764 bound_to 10752
  153.4641  135.3805  155.2323 H   0  0  0  0  0  0  0  0  0  0  0  0  # atno 10765 bound_to 10752
  141.0536  133.6734  156.3060 H   0  0  0  0  0  0  0  0  0  0  0  0  # atno 11005 bound_to 11000
  145.3155  141.0231  143.3530 LP  0  0  0  0  0  0  0  0  0  0  0  0  # atno 17320 bound_to 7965
  144.8904  139.4782  143.6680 LP  0  0  0  0  0  0  0  0  0  0  0  0  # atno 17321 bound_to 7965
  140.0718  143.5053  152.2576 LP  0  0  0  0  0  0  0  0  0  0  0  0  # atno 17342 bound_to 10162
  139.5988  144.7576  151.3222 LP  0  0  0  0  0  0  0  0  0  0  0  0  # atno 17343 bound_to 10162
  157.6724  130.9063  150.0070 LP  0  0  0  0  0  0  0  0  0  0  0  0  # atno 17370 bound_to 10713
  156.1323  130.3643  149.9711 LP  0  0  0  0  0  0  0  0  0  0  0  0  # atno 17371 bound_to 10713
  140.6007  134.5558  157.5517 LP  0  0  0  0  0  0  0  0  0  0  0  0  # atno 17394 bound_to 11000
  139.9371  134.7855  156.0774 LP  0  0  0  0  0  0  0  0  0  0  0  0  # atno 17395 bound_to 11000

$$$$
