AV-unprocessed.smi:52|AV-procd|sdf|511|dock3
  -GOLD-   2262016383D 1   1.00000     0.00000
 Structure written by MMmdl.
 26 27  0  0  0  0  0  0  0  0  2 V2000
  154.2964  135.2430  159.3807 O   0  0  0  0  0  0  0  0  0  0  0  0
  154.1009  135.8278  158.2922 C   0  0  0  0  0  0  0  0  0  0  0  0
  154.2198  135.2375  157.1959 O   0  5  0  0  0  0  0  0  0  0  0  0
  153.7167  137.2634  158.3033 C   0  0  0  0  0  0  0  0  0  0  0  0
  153.3348  138.0193  157.2239 C   0  0  0  0  0  0  0  0  0  0  0  0
  153.0598  139.2936  157.6409 O   0  0  0  0  0  0  0  0  0  0  0  0
  153.2907  139.2641  158.9815 C   0  0  0  0  0  0  0  0  0  0  0  0
  153.0978  140.5119  159.7787 C   0  0  0  0  0  0  0  0  0  0  0  0
  152.7214  141.6602  158.9612 N   0  0  0  0  0  0  0  0  0  0  0  0
  152.6528  142.9104  159.7005 C   0  0  0  0  0  0  0  0  0  0  0  0
  151.7854  143.8636  158.8666 C   0  0  0  0  0  0  0  0  0  0  0  0
  151.0664  142.9386  157.8708 C   0  0  2  0  0  0  0  0  0  0  0  0
  149.6730  143.1612  157.8229 O   0  0  0  0  0  0  0  0  0  0  0  0
  151.4027  141.5354  158.3767 C   0  0  0  0  0  0  0  0  0  0  0  0
  153.6854  138.0749  159.4308 N   0  0  0  0  0  0  0  0  0  0  0  0
  151.4859  143.0777  156.8735 H   0  0  0  0  0  0  0  0  0  0  0  0
  153.2171  137.8135  156.1704 H   0  0  0  0  0  0  0  0  0  0  0  0
  152.3197  140.3182  160.5176 H   0  0  0  0  0  0  0  0  0  0  0  0
  154.0127  140.7223  160.3345 H   0  0  0  0  0  0  0  0  0  0  0  0
  152.1713  142.7457  160.6660 H   0  0  0  0  0  0  0  0  0  0  0  0
  153.6465  143.3159  159.8935 H   0  0  0  0  0  0  0  0  0  0  0  0
  151.0929  144.4110  159.5075 H   0  0  0  0  0  0  0  0  0  0  0  0
  152.3980  144.5935  158.3362 H   0  0  0  0  0  0  0  0  0  0  0  0
  149.4783  143.6772  157.0555 H   0  0  0  0  0  0  0  0  0  0  0  0
  151.3808  140.7894  157.5817 H   0  0  0  0  0  0  0  0  0  0  0  0
  150.6849  141.2329  159.1418 H   0  0  0  0  0  0  0  0  0  0  0  0
  1  2  2  0  0  0  0
  2  3  1  0  0  0  0
  2  4  1  0  0  0  0
  4 15  1  0  0  0  0
  4  5  2  0  0  0  0
  5  6  1  0  0  0  0
  5 17  1  0  0  0  0
  6  7  1  0  0  0  0
  7  8  1  0  0  0  0
  7 15  2  0  0  0  0
  8  9  1  0  0  0  0
  8 18  1  0  0  0  0
  8 19  1  0  0  0  0
  9 14  1  0  0  0  0
  9 10  1  0  0  0  0
 10 11  1  0  0  0  0
 10 20  1  0  0  0  0
 10 21  1  0  0  0  0
 11 12  1  0  0  0  0
 11 22  1  0  0  0  0
 11 23  1  0  0  0  0
 12 16  1  0  0  0  0
 12 13  1  0  0  0  0
 12 14  1  0  0  0  0
 13 24  1  0  0  0  0
 14 25  1  0  0  0  0
 14 26  1  0  0  0  0
M  CHG  1   3  -1
M  END
> <s_m_source_file>
AV-unprocessed.smi

> <i_m_source_file_index>
52

> <i_lp_mmshare_version>
43012

> <i_f3d_flags>
0

> <s_epik_input>
Tz1DKFtPSF0pYzFbY0hdb2MobjEpW0NIMl1OMltDSDJdW0NIMl1bQ0BIXShbT0hdKVtDSDJdMg==

> <s_epik_cmdline>
J2VwaWtfcHl0aG9uJywgJy1waCcsICc3LjAnLCAnLXRuJywgJzgnLCAnLW1hJywgJzIwMCcsICctbWV0YWxfYmluZGluZycsICctaW1hZScsICc8aW5maWxlLm1hZT4nLCAnLW9tYWUnLCAnPG91dGZpbGUubWFlPic=

> <r_epik_Ionization_Penalty>
1.6537

> <r_epik_Ionization_Penalty_Charging>
0.000221913

> <r_epik_Ionization_Penalty_Neutral>
1.65348

> <r_epik_State_Penalty>
1.75577

> <r_epik_Charging_Adjusted_Penalty>
1.75599

> <i_epik_Tot_Q>
-1

> <i_epik_Tot_abs_Q>
1

> <r_epik_Metal_State_Penalty>
1.75577

> <b_epik_Metal_Only>
0

> <s_lp_Force_Field>
OPLS_2005

> <r_lp_Energy>
35.4981

> <b_lp_Chiralities_Consistent>
1

> <s_lp_Variant>
AV-unprocessed.smi:52-5

> <Gold.Version>
5.8.1

> <Gold.Id.Protein>
6NUR|6NUR_protein|mol2

> <Gold.PLP.Fitness>
40.6992

> <Gold.PLP.PLP>
-22.8007

> <Gold.PLP.part.hbond>
-4.0000

> <Gold.PLP.part.metal>
0.0000

> <Gold.PLP.part.buried>
-2.5840

> <Gold.PLP.part.nonpolar>
-16.1627

> <Gold.PLP.part.repulsive>
0.0000

> <Gold.PLP.ligand.clash>
0.0000

> <Gold.PLP.ligand.torsion>
0.0519

> <Gold.PLP.Chemscore.Hbond>
6.0000

> <Gold.PLP.Chemscore.CHOScore>
0.0000

> <Gold.PLP.Chemscore.Metal>
0.0000

> <Gold.Chemscore.Hbonds>
donor molecule, donor type, donor heavy atom, donor atom, acceptor molecule, acceptor atom, score
      L1  H    13    24       P1  8028  1.00
      P1  H  6896  6909       L1     1  2.00
      P1  H  7997  8008       L1     6  0.80
      P1  H 10752 10764       L1     3  2.00

> <Gold.PLP.Chemscore.Internal.Correction>
0.0023

> <Gold.Rescore>
     Score         DG    S(hbond)    S(metal)    S(lipo)     H(rot)  DE(clash)    DE(int)     intcor
     18.79     -18.96       3.47        0.00      58.91       1.95       0.00       0.17       ----

> <Gold.Chemscore.Fitness>
18.7929

> <Gold.Chemscore.DG>
-18.9625

> <Gold.Chemscore.ZeroCoef>
-5.4800

> <Gold.Chemscore.Hbond>
3.4676

> <Gold.Chemscore.Metal>
0.0000

> <Gold.Chemscore.Lipo>
58.9051

> <Gold.Chemscore.Internal_Hbond>
0.0000

> <Gold.Chemscore.DEClash>
0.0000

> <Gold.Chemscore.DEInternal>
0.1697

> <Gold.Chemscore.Rot>
1.9497

> <Gold.Chemscore.Internal.Correction>
   9.000000E+99

> <Gold.Chemscore.Hbonds>
donor molecule, donor type, donor heavy atom, donor atom, acceptor molecule, acceptor atom, score
      L1  H    13    24       P1  8028  0.85
      P1  H  6896  6909       L1     1  0.62
      P1  H  7997  8008       L1     6  0.04
      P1  H 10752 10764       L1     3  1.00

> <Gold.Chemscore.Hbond.Weighted>
-11.5819

> <Gold.Chemscore.Metal.Weighted>
-0.0000

> <Gold.Chemscore.Lipo.Weighted>
-6.8919

> <Gold.Chemscore.Internal_Hbond.Weighted>
0.0000

> <Gold.Chemscore.DEClash.Weighted>
0.0000

> <Gold.Chemscore.DEInternal.Weighted>
0.1697

> <Gold.Chemscore.Rot.Weighted>
4.9912

> <Gold.Chemscore.Internal.Correction.Weighted>
   9.000000E+99

> <Gold.Protein.RotatedTorsions>
[ 6907 6896 6895 6894 ] final -155.31 input  -60.11 | X-H torsion
[ 7974 7965 7964 7962 ] final -148.84 input  175.53 | X-H torsion
[ 8008 7997 7996 7995 ] final  -84.82 input   59.86 | X-H torsion
[ 10167 10162 10161 10158 ] final  -89.35 input  -65.29 | X-H torsion
[ 10718 10713 10712 10709 ] final -126.72 input   66.30 | X-H torsion
[ 10763 10752 10751 10750 ] final   26.18 input  -60.55 | X-H torsion
[ 11005 11000 10999 10996 ] final   52.97 input  -57.11 | X-H torsion

> <Gold.Protein.ActiveResidues>
 VAL166  LYS551  ARG553  GLY616  TRP617  ASP618  TYR619  PRO620  LYS621  CYS622 
 ASP623  PHE694  ASN695  SER759  ASP760  ASP761  ALA762  ILE779  LEU786  VAL792 
 PHE793  MET794  SER795  GLU796  ALA797  LYS798  CYS799  TRP800  GLU811  SER814 

> <Gold.Protein.RotatedAtoms>
  151.2707  133.4257  159.2620 H   0  0  0  0  0  0  0  0  0  0  0  0  # atno 6907 bound_to 6896
  151.0448  134.9632  159.8191 H   0  0  0  0  0  0  0  0  0  0  0  0  # atno 6908 bound_to 6896
  152.5372  134.2663  159.9007 H   0  0  0  0  0  0  0  0  0  0  0  0  # atno 6909 bound_to 6896
  144.8004  140.5144  143.5711 H   0  0  0  0  0  0  0  0  0  0  0  0  # atno 7974 bound_to 7965
  154.6340  140.0600  156.9766 H   0  0  0  0  0  0  0  0  0  0  0  0  # atno 8008 bound_to 7997
  155.1621  140.3283  155.4391 H   0  0  0  0  0  0  0  0  0  0  0  0  # atno 8009 bound_to 7997
  156.2497  140.1929  156.6728 H   0  0  0  0  0  0  0  0  0  0  0  0  # atno 8010 bound_to 7997
  140.3657  143.2819  151.9561 H   0  0  0  0  0  0  0  0  0  0  0  0  # atno 10167 bound_to 10162
  156.1791  130.6719  151.0280 H   0  0  0  0  0  0  0  0  0  0  0  0  # atno 10718 bound_to 10713
  153.0640  135.6566  154.0396 H   0  0  0  0  0  0  0  0  0  0  0  0  # atno 10763 bound_to 10752
  154.0057  135.2933  155.3399 H   0  0  0  0  0  0  0  0  0  0  0  0  # atno 10764 bound_to 10752
  154.6991  135.5252  153.8569 H   0  0  0  0  0  0  0  0  0  0  0  0  # atno 10765 bound_to 10752
  140.0805  134.5345  155.8951 H   0  0  0  0  0  0  0  0  0  0  0  0  # atno 11005 bound_to 11000
  145.5566  139.1478  143.3364 LP  0  0  0  0  0  0  0  0  0  0  0  0  # atno 17320 bound_to 7965
  146.2284  140.5703  142.8986 LP  0  0  0  0  0  0  0  0  0  0  0  0  # atno 17321 bound_to 7965
  139.4809  144.5952  151.7702 LP  0  0  0  0  0  0  0  0  0  0  0  0  # atno 17342 bound_to 10162
  140.5083  144.1064  150.5988 LP  0  0  0  0  0  0  0  0  0  0  0  0  # atno 17343 bound_to 10162
  157.6856  131.0826  150.7253 LP  0  0  0  0  0  0  0  0  0  0  0  0  # atno 17370 bound_to 10713
  156.7310  130.4709  149.5499 LP  0  0  0  0  0  0  0  0  0  0  0  0  # atno 17371 bound_to 10713
  141.2045  133.6639  156.6124 LP  0  0  0  0  0  0  0  0  0  0  0  0  # atno 17394 bound_to 11000
  140.3495  134.7781  157.4456 LP  0  0  0  0  0  0  0  0  0  0  0  0  # atno 17395 bound_to 11000

$$$$
