AV-unprocessed.smi:2007|AV-procd|sdf|8138|dock3
  -GOLD-   2272010373D 1   1.00000     0.00000
 Structure written by MMmdl.
 35 36  0  0  0  0  0  0  0  0  2 V2000
  148.1387  134.1534  156.2180 C   0  0  0  0  0  0  0  0  0  0  0  0
  148.8135  135.5047  156.4890 C   0  0  1  0  0  0  0  0  0  0  0  0
  148.7504  136.4190  155.2468 C   0  0  0  0  0  0  0  0  0  0  0  0
  149.3258  137.7553  155.4088 N   0  0  0  0  0  0  0  0  0  0  0  0
  150.7846  137.7394  155.4890 C   0  0  0  0  0  0  0  0  0  0  0  0
  151.3632  139.1563  155.6464 C   0  0  0  0  0  0  0  0  0  0  0  0
  150.9229  139.9760  154.5683 O   0  0  0  0  0  0  0  0  0  0  0  0
  149.5034  140.0528  154.4839 C   0  0  0  0  0  0  0  0  0  0  0  0
  148.9192  138.6389  154.3223 C   0  0  0  0  0  0  0  0  0  0  0  0
  148.1515  136.1481  157.6241 N   0  0  0  0  0  0  0  0  0  0  0  0
  148.7366  136.6157  158.7370 C   0  0  0  0  0  0  0  0  0  0  0  0
  149.9555  136.5087  158.8899 O   0  0  0  0  0  0  0  0  0  0  0  0
  147.8696  137.1844  159.6060 N   0  5  0  0  0  0  0  0  0  0  0  0
  147.4831  136.5149  160.7040 C   0  0  0  0  0  0  0  0  0  0  0  0
  147.1425  137.1232  161.8460 N   0  0  0  0  0  0  0  0  0  0  0  0
  146.7794  136.2359  162.8609 C   0  0  0  0  0  0  0  0  0  0  0  0
  146.8533  134.9207  162.4854 C   0  0  0  0  0  0  0  0  0  0  0  0
  147.3859  134.7563  160.8365 S   0  0  0  0  0  0  0  0  0  0  0  0
  148.6178  133.6360  155.3866 H   0  0  0  0  0  0  0  0  0  0  0  0
  147.0838  134.2775  155.9704 H   0  0  0  0  0  0  0  0  0  0  0  0
  148.2014  133.5023  157.0908 H   0  0  0  0  0  0  0  0  0  0  0  0
  149.8561  135.2887  156.7233 H   0  0  0  0  0  0  0  0  0  0  0  0
  149.2331  135.9178  154.4065 H   0  0  0  0  0  0  0  0  0  0  0  0
  147.7011  136.5218  154.9660 H   0  0  0  0  0  0  0  0  0  0  0  0
  151.1126  137.1366  156.3344 H   0  0  0  0  0  0  0  0  0  0  0  0
  151.2000  137.2754  154.5935 H   0  0  0  0  0  0  0  0  0  0  0  0
  151.0537  139.5948  156.5966 H   0  0  0  0  0  0  0  0  0  0  0  0
  152.4526  139.1235  155.6486 H   0  0  0  0  0  0  0  0  0  0  0  0
  149.1042  140.5356  155.3772 H   0  0  0  0  0  0  0  0  0  0  0  0
  149.2298  140.6756  153.6323 H   0  0  0  0  0  0  0  0  0  0  0  0
  149.2409  138.2228  153.3664 H   0  0  0  0  0  0  0  0  0  0  0  0
  147.8310  138.7026  154.2851 H   0  0  0  0  0  0  0  0  0  0  0  0
  147.1519  136.2670  157.5528 H   0  0  0  0  0  0  0  0  0  0  0  0
  146.4822  136.6291  163.8218 H   0  0  0  0  0  0  0  0  0  0  0  0
  146.6302  134.0437  163.0737 H   0  0  0  0  0  0  0  0  0  0  0  0
  1  2  1  0  0  0  0
  1 19  1  0  0  0  0
  1 20  1  0  0  0  0
  1 21  1  0  0  0  0
  2  3  1  0  0  0  0
  2 10  1  0  0  0  0
  2 22  1  0  0  0  0
  3  4  1  0  0  0  0
  3 23  1  0  0  0  0
  3 24  1  0  0  0  0
  4  9  1  0  0  0  0
  4  5  1  0  0  0  0
  5  6  1  0  0  0  0
  5 25  1  0  0  0  0
  5 26  1  0  0  0  0
  6  7  1  0  0  0  0
  6 27  1  0  0  0  0
  6 28  1  0  0  0  0
  7  8  1  0  0  0  0
  8  9  1  0  0  0  0
  8 29  1  0  0  0  0
  8 30  1  0  0  0  0
  9 31  1  0  0  0  0
  9 32  1  0  0  0  0
 10 11  1  0  0  0  0
 10 33  1  0  0  0  0
 11 12  2  0  0  0  0
 11 13  1  0  0  0  0
 13 14  1  0  0  0  0
 14 18  1  0  0  0  0
 14 15  2  0  0  0  0
 15 16  1  0  0  0  0
 16 17  2  0  0  0  0
 16 34  1  0  0  0  0
 17 18  1  0  0  0  0
 17 35  1  0  0  0  0
M  CHG  1  13  -1
M  END
> <s_m_source_file>
AV-unprocessed.smi

> <i_m_source_file_index>
2007

> <i_lp_mmshare_version>
43012

> <i_f3d_flags>
0

> <s_epik_input>
W0NIMl0xW0NIMl1PW0NIMl1bQ0gyXU4xW0NIMl1bQ0BASF0oW0NIM10pW05IXUMoPU8pW05IXWMybltjSF1bY0hdczI=

> <s_epik_cmdline>
J2VwaWtfcHl0aG9uJywgJy1waCcsICc3LjAnLCAnLXRuJywgJzgnLCAnLW1hJywgJzIwMCcsICctbWV0YWxfYmluZGluZycsICctaW1hZScsICc8aW5maWxlLm1hZT4nLCAnLW9tYWUnLCAnPG91dGZpbGUubWFlPic=

> <r_lp_tautomer_probability>
0.999

> <r_epik_Ionization_Penalty>
7.09127

> <r_epik_Ionization_Penalty_Charging>
5.74083

> <r_epik_Ionization_Penalty_Neutral>
1.35044

> <r_epik_State_Penalty>
5.95014

> <r_epik_Charging_Adjusted_Penalty>
11.691

> <i_epik_Tot_Q>
-1

> <i_epik_Tot_abs_Q>
1

> <r_epik_Metal_State_Penalty>
1.93831

> <b_epik_Metal_Only>
1

> <s_lp_Force_Field>
OPLS_2005

> <r_lp_Energy>
21.094

> <b_lp_Chiralities_Consistent>
1

> <s_lp_Variant>
AV-unprocessed.smi:2007-6

> <Gold.Version>
5.8.1

> <Gold.Id.Protein>
6NUR|6NUR_protein|mol2

> <Gold.PLP.Fitness>
37.3790

> <Gold.PLP.PLP>
-29.7412

> <Gold.PLP.part.hbond>
-4.9761

> <Gold.PLP.part.metal>
0.0000

> <Gold.PLP.part.buried>
-2.0491

> <Gold.PLP.part.nonpolar>
-22.2013

> <Gold.PLP.part.repulsive>
0.2305

> <Gold.PLP.ligand.clash>
0.0000

> <Gold.PLP.ligand.torsion>
1.0395

> <Gold.PLP.Chemscore.Hbond>
3.1802

> <Gold.PLP.Chemscore.CHOScore>
0.0000

> <Gold.PLP.Chemscore.Metal>
0.0000

> <Gold.Chemscore.Hbonds>
donor molecule, donor type, donor heavy atom, donor atom, acceptor molecule, acceptor atom, score
      P1  H  6896  6909       L1    12  1.00
      P1  H  6931  6943       L1    15  0.33
      P1  H  6934  6947       L1    15  0.47
      P1  H  7989  7998       L1     7  1.00

> <Gold.PLP.Chemscore.Internal.Correction>
0.1763

> <Gold.Rescore>
     Score         DG    S(hbond)    S(metal)    S(lipo)     H(rot)  DE(clash)    DE(int)     intcor
     16.09     -17.34       2.77        0.00      56.33       1.55       0.00       1.25       ----

> <Gold.Chemscore.Fitness>
16.0874

> <Gold.Chemscore.DG>
-17.3380

> <Gold.Chemscore.ZeroCoef>
-5.4800

> <Gold.Chemscore.Hbond>
2.7660

> <Gold.Chemscore.Metal>
0.0000

> <Gold.Chemscore.Lipo>
56.3252

> <Gold.Chemscore.Internal_Hbond>
0.0000

> <Gold.Chemscore.DEClash>
0.0000

> <Gold.Chemscore.DEInternal>
1.2506

> <Gold.Chemscore.Rot>
1.5510

> <Gold.Chemscore.Internal.Correction>
   9.000000E+99

> <Gold.Chemscore.Hbonds>
donor molecule, donor type, donor heavy atom, donor atom, acceptor molecule, acceptor atom, score
      P1  H  6896  6909       L1    12  0.93
      P1  H  6931  6943       L1    15  0.03
      P1  H  6934  6947       L1    15  0.04
      P1  H  7989  7998       L1     7  0.79

> <Gold.Chemscore.Hbond.Weighted>
-9.2385

> <Gold.Chemscore.Metal.Weighted>
-0.0000

> <Gold.Chemscore.Lipo.Weighted>
-6.5901

> <Gold.Chemscore.Internal_Hbond.Weighted>
0.0000

> <Gold.Chemscore.DEClash.Weighted>
0.0000

> <Gold.Chemscore.DEInternal.Weighted>
1.2506

> <Gold.Chemscore.Rot.Weighted>
3.9706

> <Gold.Chemscore.Internal.Correction.Weighted>
   9.000000E+99

> <Gold.Protein.RotatedTorsions>
[ 6907 6896 6895 6894 ] final   79.22 input  -60.11 | X-H torsion
[ 7974 7965 7964 7962 ] final  122.44 input  175.53 | X-H torsion
[ 8008 7997 7996 7995 ] final   99.97 input   59.86 | X-H torsion
[ 10167 10162 10161 10158 ] final  174.54 input  -65.29 | X-H torsion
[ 10718 10713 10712 10709 ] final   10.01 input   66.30 | X-H torsion
[ 10763 10752 10751 10750 ] final  -18.08 input  -60.55 | X-H torsion
[ 11005 11000 10999 10996 ] final  124.60 input  -57.11 | X-H torsion

> <Gold.Protein.ActiveResidues>
 VAL166  LYS551  ARG553  GLY616  TRP617  ASP618  TYR619  PRO620  LYS621  CYS622 
 ASP623  PHE694  ASN695  SER759  ASP760  ASP761  ALA762  ILE779  LEU786  VAL792 
 PHE793  MET794  SER795  GLU796  ALA797  LYS798  CYS799  TRP800  GLU811  SER814 

> <Gold.Protein.RotatedAtoms>
  152.5190  134.3544  159.9262 H   0  0  0  0  0  0  0  0  0  0  0  0  # atno 6907 bound_to 6896
  151.3495  133.3924  159.2686 H   0  0  0  0  0  0  0  0  0  0  0  0  # atno 6908 bound_to 6896
  150.9738  134.9125  159.7862 H   0  0  0  0  0  0  0  0  0  0  0  0  # atno 6909 bound_to 6896
  145.1075  139.3476  143.4780 H   0  0  0  0  0  0  0  0  0  0  0  0  # atno 7974 bound_to 7965
  156.1158  140.3220  155.8137 H   0  0  0  0  0  0  0  0  0  0  0  0  # atno 8008 bound_to 7997
  155.4593  140.0538  157.3010 H   0  0  0  0  0  0  0  0  0  0  0  0  # atno 8009 bound_to 7997
  154.4791  140.2045  155.9819 H   0  0  0  0  0  0  0  0  0  0  0  0  # atno 8010 bound_to 7997
  139.5145  144.3135  152.0269 H   0  0  0  0  0  0  0  0  0  0  0  0  # atno 10167 bound_to 10162
  156.9746  130.5982  149.5671 H   0  0  0  0  0  0  0  0  0  0  0  0  # atno 10718 bound_to 10713
  153.5837  135.7004  153.5452 H   0  0  0  0  0  0  0  0  0  0  0  0  # atno 10763 bound_to 10752
  153.3238  135.4066  155.1439 H   0  0  0  0  0  0  0  0  0  0  0  0  # atno 10764 bound_to 10752
  154.8613  135.3702  154.5366 H   0  0  0  0  0  0  0  0  0  0  0  0  # atno 10765 bound_to 10752
  139.9366  134.9639  156.8434 H   0  0  0  0  0  0  0  0  0  0  0  0  # atno 11005 bound_to 11000
  146.3527  140.0979  142.8609 LP  0  0  0  0  0  0  0  0  0  0  0  0  # atno 17320 bound_to 7965
  145.0885  140.9268  143.4783 LP  0  0  0  0  0  0  0  0  0  0  0  0  # atno 17321 bound_to 7965
  140.2579  144.4099  150.6196 LP  0  0  0  0  0  0  0  0  0  0  0  0  # atno 17342 bound_to 10162
  140.6178  143.2174  151.6756 LP  0  0  0  0  0  0  0  0  0  0  0  0  # atno 17343 bound_to 10162
  156.0269  130.5362  150.8430 LP  0  0  0  0  0  0  0  0  0  0  0  0  # atno 17370 bound_to 10713
  157.5568  131.0945  150.9616 LP  0  0  0  0  0  0  0  0  0  0  0  0  # atno 17371 bound_to 10713
  140.6059  134.0128  155.7556 LP  0  0  0  0  0  0  0  0  0  0  0  0  # atno 17394 bound_to 11000
  141.0983  133.9808  157.3122 LP  0  0  0  0  0  0  0  0  0  0  0  0  # atno 17395 bound_to 11000

$$$$
