AV-unprocessed.smi:2453|AV-procd|sdf|9691|dock9
  -GOLD-   2272013333D 1   1.00000     0.00000
 Structure written by MMmdl.
 41 42  0  0  0  0  0  0  0  0  2 V2000
  144.4565  146.4425  158.4078 C   0  0  0  0  0  0  0  0  0  0  0  0
  144.2237  145.6456  159.6798 C   0  0  0  0  0  0  0  0  0  0  0  0
  142.9417  145.6397  160.2718 C   0  0  0  0  0  0  0  0  0  0  0  0
  142.7187  144.9329  161.3997 N   0  3  0  0  0  0  0  0  0  0  0  0
  143.6798  144.2077  162.0084 C   0  0  0  0  0  0  0  0  0  0  0  0
  144.9808  144.1719  161.4686 C   0  0  0  0  0  0  0  0  0  0  0  0
  145.2710  144.9096  160.2920 C   0  0  0  0  0  0  0  0  0  0  0  0
  146.5532  144.9033  159.6728 N   0  0  0  0  0  0  0  0  0  0  0  0
  147.7064  144.3919  160.1371 C   0  0  0  0  0  0  0  0  0  0  0  0
  147.8564  143.8709  161.2419 O   0  0  0  0  0  0  0  0  0  0  0  0
  148.6931  144.5348  159.2400 N   0  0  0  0  0  0  0  0  0  0  0  0
  150.0759  144.0866  159.4048 C   0  0  2  0  0  0  0  0  0  0  0  0
  150.9400  145.2978  159.8099 C   0  0  0  0  0  0  0  0  0  0  0  0
  152.4233  144.9246  159.9327 C   0  0  0  0  0  0  0  0  0  0  0  0
  152.9370  144.3021  158.6288 C   0  0  0  0  0  0  0  0  0  0  0  0
  152.0959  143.0794  158.2354 C   0  0  0  0  0  0  0  0  0  0  0  0
  150.5938  143.4203  158.1022 C   0  0  1  0  0  0  0  0  0  0  0  0
  149.7751  142.1649  157.7253 C   0  0  0  0  0  0  0  0  0  0  0  0
  148.4373  142.5056  157.4275 O   0  0  0  0  0  0  0  0  0  0  0  0
  143.5475  146.9526  158.0873 H   0  0  0  0  0  0  0  0  0  0  0  0
  144.7765  145.7849  157.5992 H   0  0  0  0  0  0  0  0  0  0  0  0
  145.2276  147.1969  158.5666 H   0  0  0  0  0  0  0  0  0  0  0  0
  142.0892  146.1744  159.8782 H   0  0  0  0  0  0  0  0  0  0  0  0
  143.3805  143.6745  162.8989 H   0  0  0  0  0  0  0  0  0  0  0  0
  145.7274  143.5673  161.9603 H   0  0  0  0  0  0  0  0  0  0  0  0
  146.6089  145.3889  158.7897 H   0  0  0  0  0  0  0  0  0  0  0  0
  148.4722  144.9838  158.3631 H   0  0  0  0  0  0  0  0  0  0  0  0
  150.1410  143.3476  160.2055 H   0  0  0  0  0  0  0  0  0  0  0  0
  150.8305  146.0939  159.0717 H   0  0  0  0  0  0  0  0  0  0  0  0
  150.5882  145.7067  160.7579 H   0  0  0  0  0  0  0  0  0  0  0  0
  153.0110  145.8089  160.1807 H   0  0  0  0  0  0  0  0  0  0  0  0
  152.5584  144.2211  160.7552 H   0  0  0  0  0  0  0  0  0  0  0  0
  152.9045  145.0429  157.8289 H   0  0  0  0  0  0  0  0  0  0  0  0
  153.9824  144.0133  158.7412 H   0  0  0  0  0  0  0  0  0  0  0  0
  152.4761  142.6751  157.2969 H   0  0  0  0  0  0  0  0  0  0  0  0
  152.2289  142.2953  158.9820 H   0  0  0  0  0  0  0  0  0  0  0  0
  150.4856  144.1461  157.2938 H   0  0  0  0  0  0  0  0  0  0  0  0
  150.2183  141.6576  156.8678 H   0  0  0  0  0  0  0  0  0  0  0  0
  149.7518  141.4456  158.5436 H   0  0  0  0  0  0  0  0  0  0  0  0
  148.4392  143.2402  156.8329 H   0  0  0  0  0  0  0  0  0  0  0  0
  141.7829  144.9425  161.8063 H   0  0  0  0  0  0  0  0  0  0  0  0
  1  2  1  0  0  0  0
  1 20  1  0  0  0  0
  1 21  1  0  0  0  0
  1 22  1  0  0  0  0
  2  7  1  0  0  0  0
  2  3  2  0  0  0  0
  3  4  1  0  0  0  0
  3 23  1  0  0  0  0
  4  5  2  0  0  0  0
  4 41  1  0  0  0  0
  5  6  1  0  0  0  0
  5 24  1  0  0  0  0
  6  7  2  0  0  0  0
  6 25  1  0  0  0  0
  7  8  1  0  0  0  0
  8  9  1  0  0  0  0
  8 26  1  0  0  0  0
  9 10  2  0  0  0  0
  9 11  1  0  0  0  0
 11 12  1  0  0  0  0
 11 27  1  0  0  0  0
 12 17  1  0  0  0  0
 12 13  1  0  0  0  0
 12 28  1  0  0  0  0
 13 14  1  0  0  0  0
 13 29  1  0  0  0  0
 13 30  1  0  0  0  0
 14 15  1  0  0  0  0
 14 31  1  0  0  0  0
 14 32  1  0  0  0  0
 15 16  1  0  0  0  0
 15 33  1  0  0  0  0
 15 34  1  0  0  0  0
 16 17  1  0  0  0  0
 16 35  1  0  0  0  0
 16 36  1  0  0  0  0
 17 18  1  0  0  0  0
 17 37  1  0  0  0  0
 18 19  1  0  0  0  0
 18 38  1  0  0  0  0
 18 39  1  0  0  0  0
 19 40  1  0  0  0  0
M  CHG  1   4   1
M  END
> <s_m_source_file>
AV-unprocessed.smi

> <i_m_source_file_index>
2453

> <i_lp_mmshare_version>
43012

> <i_f3d_flags>
0

> <s_epik_input>
W0NIM11jMVtjSF1uW2NIXVtjSF1jMVtOSF1DKD1PKVtOSF1bQ0BASF0yW0NIMl1bQ0gyXVtDSDJdW0NIMl1bQ0BIXTJbQ0gyXVtPSF0=

> <s_epik_cmdline>
J2VwaWtfcHl0aG9uJywgJy1waCcsICc3LjAnLCAnLXRuJywgJzgnLCAnLW1hJywgJzIwMCcsICctbWV0YWxfYmluZGluZycsICctaW1hZScsICc8aW5maWxlLm1hZT4nLCAnLW9tYWUnLCAnPG91dGZpbGUubWFlPic=

> <r_epik_Ionization_Penalty>
0.71493

> <r_epik_Ionization_Penalty_Charging>
0.714909

> <r_epik_Ionization_Penalty_Neutral>
2.10174e-05

> <r_epik_State_Penalty>
0.738815

> <r_epik_Charging_Adjusted_Penalty>
1.45372

> <i_epik_Tot_Q>
1

> <i_epik_Tot_abs_Q>
1

> <r_epik_Metal_State_Penalty>
0.896004

> <b_epik_Metal_Only>
0

> <s_lp_Force_Field>
OPLS_2005

> <r_lp_Energy>
24.2673

> <b_lp_Chiralities_Consistent>
1

> <s_lp_Variant>
AV-unprocessed.smi:2453-5

> <Gold.Version>
5.8.1

> <Gold.Id.Protein>
6NUR|6NUR_protein|mol2

> <Gold.PLP.Fitness>
46.3003

> <Gold.PLP.PLP>
-35.1360

> <Gold.PLP.part.hbond>
-4.8120

> <Gold.PLP.part.metal>
0.0000

> <Gold.PLP.part.buried>
-5.0560

> <Gold.PLP.part.nonpolar>
-24.8521

> <Gold.PLP.part.repulsive>
0.3551

> <Gold.PLP.ligand.clash>
0.0000

> <Gold.PLP.ligand.torsion>
0.2906

> <Gold.PLP.Chemscore.Hbond>
3.9120

> <Gold.PLP.Chemscore.CHOScore>
0.0000

> <Gold.PLP.Chemscore.Metal>
0.0000

> <Gold.Chemscore.Hbonds>
donor molecule, donor type, donor heavy atom, donor atom, acceptor molecule, acceptor atom, score
      L1  H     8    26       P1  8029  0.90
      L1  H    11    27       P1  8029  1.00
      L1  H    19    40       P1  8028  1.00
      P1  H  6933  6944       L1    10  1.00

> <Gold.PLP.Chemscore.Internal.Correction>
0.0095

> <Gold.Rescore>
     Score         DG    S(hbond)    S(metal)    S(lipo)     H(rot)  DE(clash)    DE(int)     intcor
     22.10     -25.09       3.86        0.00      96.12       1.77       0.06       2.93       ----

> <Gold.Chemscore.Fitness>
22.0965

> <Gold.Chemscore.DG>
-25.0868

> <Gold.Chemscore.ZeroCoef>
-5.4800

> <Gold.Chemscore.Hbond>
3.8632

> <Gold.Chemscore.Metal>
0.0000

> <Gold.Chemscore.Lipo>
96.1172

> <Gold.Chemscore.Internal_Hbond>
0.0000

> <Gold.Chemscore.DEClash>
0.0630

> <Gold.Chemscore.DEInternal>
2.9273

> <Gold.Chemscore.Rot>
1.7742

> <Gold.Chemscore.Internal.Correction>
   9.000000E+99

> <Gold.Chemscore.Hbonds>
donor molecule, donor type, donor heavy atom, donor atom, acceptor molecule, acceptor atom, score
      L1  H     8    26       P1  8029  0.82
      L1  H    11    27       P1  8029  0.91
      L1  H    19    40       P1  8028  0.39
      P1  H  6933  6944       L1    10  0.99

> <Gold.Chemscore.Hbond.Weighted>
-12.9030

> <Gold.Chemscore.Metal.Weighted>
-0.0000

> <Gold.Chemscore.Lipo.Weighted>
-11.2457

> <Gold.Chemscore.Internal_Hbond.Weighted>
0.0000

> <Gold.Chemscore.DEClash.Weighted>
0.0630

> <Gold.Chemscore.DEInternal.Weighted>
2.9273

> <Gold.Chemscore.Rot.Weighted>
4.5419

> <Gold.Chemscore.Internal.Correction.Weighted>
   9.000000E+99

> <Gold.Protein.RotatedTorsions>
[ 6907 6896 6895 6894 ] final  -87.44 input  -60.11 | X-H torsion
[ 7974 7965 7964 7962 ] final   40.68 input  175.53 | X-H torsion
[ 8008 7997 7996 7995 ] final  117.78 input   59.86 | X-H torsion
[ 10167 10162 10161 10158 ] final -177.18 input  -65.29 | X-H torsion
[ 10718 10713 10712 10709 ] final  -29.94 input   66.30 | X-H torsion
[ 10763 10752 10751 10750 ] final  -43.36 input  -60.55 | X-H torsion
[ 11005 11000 10999 10996 ] final -138.99 input  -57.11 | X-H torsion

> <Gold.Protein.ActiveResidues>
 VAL166  LYS551  ARG553  GLY616  TRP617  ASP618  TYR619  PRO620  LYS621  CYS622 
 ASP623  PHE694  ASN695  SER759  ASP760  ASP761  ALA762  ILE779  LEU786  VAL792 
 PHE793  MET794  SER795  GLU796  ALA797  LYS798  CYS799  TRP800  GLU811  SER814 

> <Gold.Protein.RotatedAtoms>
  150.6866  134.2895  159.4660 H   0  0  0  0  0  0  0  0  0  0  0  0  # atno 6907 bound_to 6896
  152.0802  134.9474  160.0583 H   0  0  0  0  0  0  0  0  0  0  0  0  # atno 6908 bound_to 6896
  152.0829  133.4127  159.4546 H   0  0  0  0  0  0  0  0  0  0  0  0  # atno 6909 bound_to 6896
  146.0885  139.5505  142.9491 H   0  0  0  0  0  0  0  0  0  0  0  0  # atno 7974 bound_to 7965
  156.2512  140.2889  156.0731 H   0  0  0  0  0  0  0  0  0  0  0  0  # atno 8008 bound_to 7997
  155.1648  140.0400  157.2868 H   0  0  0  0  0  0  0  0  0  0  0  0  # atno 8009 bound_to 7997
  154.6367  140.2512  155.7377 H   0  0  0  0  0  0  0  0  0  0  0  0  # atno 8010 bound_to 7997
  139.5492  144.2153  152.1046 H   0  0  0  0  0  0  0  0  0  0  0  0  # atno 10167 bound_to 10162
  156.4061  130.4399  149.7287 H   0  0  0  0  0  0  0  0  0  0  0  0  # atno 10718 bound_to 10713
  153.9943  135.6701  153.4755 H   0  0  0  0  0  0  0  0  0  0  0  0  # atno 10763 bound_to 10752
  153.0691  135.4984  154.8261 H   0  0  0  0  0  0  0  0  0  0  0  0  # atno 10764 bound_to 10752
  154.7091  135.3093  154.9188 H   0  0  0  0  0  0  0  0  0  0  0  0  # atno 10765 bound_to 10752
  140.8563  134.2224  157.4733 H   0  0  0  0  0  0  0  0  0  0  0  0  # atno 11005 bound_to 11000
  145.6084  141.0344  143.1980 LP  0  0  0  0  0  0  0  0  0  0  0  0  # atno 17320 bound_to 7965
  144.7343  139.7632  143.7335 LP  0  0  0  0  0  0  0  0  0  0  0  0  # atno 17321 bound_to 7965
  140.1645  144.4994  150.6614 LP  0  0  0  0  0  0  0  0  0  0  0  0  # atno 17342 bound_to 10162
  140.6750  143.2301  151.5529 LP  0  0  0  0  0  0  0  0  0  0  0  0  # atno 17343 bound_to 10162
  156.4284  130.7803  151.2822 LP  0  0  0  0  0  0  0  0  0  0  0  0  # atno 17370 bound_to 10713
  157.7505  131.0161  150.3533 LP  0  0  0  0  0  0  0  0  0  0  0  0  # atno 17371 bound_to 10713
  139.8705  134.9708  156.4713 LP  0  0  0  0  0  0  0  0  0  0  0  0  # atno 17394 bound_to 11000
  140.8734  133.7971  155.9388 LP  0  0  0  0  0  0  0  0  0  0  0  0  # atno 17395 bound_to 11000

$$$$
