AV-unprocessed.smi:2751|AV-procd|sdf|10598|dock7
  -GOLD-   2272015 53D 1   1.00000     0.00000
 Structure written by MMmdl.
 35 36  0  0  0  0  0  0  0  0  2 V2000
  150.4373  140.8165  154.6524 O   0  0  0  0  0  0  0  0  0  0  0  0
  150.1936  139.7109  155.1372 C   0  0  0  0  0  0  0  0  0  0  0  0
  150.8935  139.1733  156.1476 N   0  0  0  0  0  0  0  0  0  0  0  0
  152.0322  139.8067  156.8038 C   0  0  0  0  0  0  0  0  0  0  0  0
  151.6319  140.4329  158.1509 C   0  0  0  0  0  0  0  0  0  0  0  0
  152.2393  141.8280  158.3672 C   0  0  1  0  0  0  0  0  0  0  0  0
  151.4655  142.9157  157.5969 C   0  0  0  0  0  0  0  0  0  0  0  0
  152.0400  144.3044  157.8977 C   0  0  0  0  0  0  0  0  0  0  0  0
  152.0907  144.5247  159.4130 C   0  0  0  0  0  0  0  0  0  0  0  0
  152.8256  143.3612  160.0968 C   0  0  0  0  0  0  0  0  0  0  0  0
  152.1994  142.1266  159.7615 O   0  0  0  0  0  0  0  0  0  0  0  0
  149.2079  138.8939  154.7289 N   0  0  0  0  0  0  0  0  0  0  0  0
  148.2791  139.1297  153.6836 C   0  0  0  0  0  0  0  0  0  0  0  0
  147.9632  138.3017  152.6851 N   0  3  0  0  0  0  0  0  0  0  0  0
  147.0246  138.9050  151.8864 C   0  0  0  0  0  0  0  0  0  0  0  0
  146.7908  140.1347  152.4526 C   0  0  0  0  0  0  0  0  0  0  0  0
  147.5716  140.2890  153.5814 O   0  0  0  0  0  0  0  0  0  0  0  0
  150.6261  138.2607  156.4871 H   0  0  0  0  0  0  0  0  0  0  0  0
  152.8368  139.0819  156.9383 H   0  0  0  0  0  0  0  0  0  0  0  0
  152.4193  140.5778  156.1373 H   0  0  0  0  0  0  0  0  0  0  0  0
  150.5445  140.5052  158.1978 H   0  0  0  0  0  0  0  0  0  0  0  0
  151.9317  139.7788  158.9708 H   0  0  0  0  0  0  0  0  0  0  0  0
  153.2779  141.8171  158.0313 H   0  0  0  0  0  0  0  0  0  0  0  0
  151.5055  142.7221  156.5246 H   0  0  0  0  0  0  0  0  0  0  0  0
  150.4126  142.8888  157.8806 H   0  0  0  0  0  0  0  0  0  0  0  0
  153.0445  144.3854  157.4806 H   0  0  0  0  0  0  0  0  0  0  0  0
  151.4378  145.0776  157.4200 H   0  0  0  0  0  0  0  0  0  0  0  0
  152.5832  145.4703  159.6413 H   0  0  0  0  0  0  0  0  0  0  0  0
  151.0763  144.5964  159.8074 H   0  0  0  0  0  0  0  0  0  0  0  0
  153.8767  143.3391  159.8051 H   0  0  0  0  0  0  0  0  0  0  0  0
  152.7992  143.4866  161.1793 H   0  0  0  0  0  0  0  0  0  0  0  0
  148.3340  137.3746  152.5141 H   0  0  0  0  0  0  0  0  0  0  0  0
  146.6254  138.4090  151.0132 H   0  0  0  0  0  0  0  0  0  0  0  0
  146.1455  140.9628  152.1969 H   0  0  0  0  0  0  0  0  0  0  0  0
  149.1132  138.0129  155.2122 H   0  0  0  0  0  0  0  0  0  0  0  0
  1  2  2  0  0  0  0
  2 12  1  0  0  0  0
  2  3  1  0  0  0  0
  3  4  1  0  0  0  0
  3 18  1  0  0  0  0
  4  5  1  0  0  0  0
  4 19  1  0  0  0  0
  4 20  1  0  0  0  0
  5  6  1  0  0  0  0
  5 21  1  0  0  0  0
  5 22  1  0  0  0  0
  6 11  1  0  0  0  0
  6  7  1  0  0  0  0
  6 23  1  0  0  0  0
  7  8  1  0  0  0  0
  7 24  1  0  0  0  0
  7 25  1  0  0  0  0
  8  9  1  0  0  0  0
  8 26  1  0  0  0  0
  8 27  1  0  0  0  0
  9 10  1  0  0  0  0
  9 28  1  0  0  0  0
  9 29  1  0  0  0  0
 10 11  1  0  0  0  0
 10 30  1  0  0  0  0
 10 31  1  0  0  0  0
 12 13  1  0  0  0  0
 12 35  1  0  0  0  0
 13 17  1  0  0  0  0
 13 14  2  0  0  0  0
 14 32  1  0  0  0  0
 14 15  1  0  0  0  0
 15 33  1  0  0  0  0
 15 16  2  0  0  0  0
 16 34  1  0  0  0  0
 16 17  1  0  0  0  0
M  CHG  1  14   1
M  END
> <s_m_source_file>
AV-unprocessed.smi

> <i_m_source_file_index>
2751

> <i_lp_mmshare_version>
43012

> <i_f3d_flags>
0

> <s_epik_input>
bzFbY0hdW2NIXW5jMVtOSF1DKD1PKVtOSF1bQ0gyXVtDSDJdW0NAQEhdMltDSDJdW0NIMl1bQ0gyXVtDSDJdTzI=

> <s_epik_cmdline>
J2VwaWtfcHl0aG9uJywgJy1waCcsICc3LjAnLCAnLXRuJywgJzgnLCAnLW1hJywgJzIwMCcsICctbWV0YWxfYmluZGluZycsICctaW1hZScsICc8aW5maWxlLm1hZT4nLCAnLW9tYWUnLCAnPG91dGZpbGUubWFlPic=

> <r_epik_Ionization_Penalty>
6.63408

> <r_epik_Ionization_Penalty_Charging>
6.57733

> <r_epik_Ionization_Penalty_Neutral>
0.0567487

> <r_epik_State_Penalty>
1.8175

> <r_epik_Charging_Adjusted_Penalty>
8.39483

> <i_epik_Tot_Q>
1

> <i_epik_Tot_abs_Q>
1

> <r_epik_Metal_State_Penalty>
1.83396

> <b_epik_Metal_Only>
0

> <s_lp_Force_Field>
OPLS_2005

> <r_lp_Energy>
17.5714

> <b_lp_Chiralities_Consistent>
1

> <s_lp_Variant>
AV-unprocessed.smi:2751-4

> <Gold.Version>
5.8.1

> <Gold.Id.Protein>
6NUR|6NUR_protein|mol2

> <Gold.PLP.Fitness>
40.8421

> <Gold.PLP.PLP>
-32.5837

> <Gold.PLP.part.hbond>
-2.8999

> <Gold.PLP.part.metal>
0.0000

> <Gold.PLP.part.buried>
-1.1064

> <Gold.PLP.part.nonpolar>
-30.0210

> <Gold.PLP.part.repulsive>
0.4168

> <Gold.PLP.ligand.clash>
0.0000

> <Gold.PLP.ligand.torsion>
1.0399

> <Gold.PLP.Chemscore.Hbond>
2.7680

> <Gold.PLP.Chemscore.CHOScore>
0.6712

> <Gold.PLP.Chemscore.Metal>
0.0000

> <Gold.Chemscore.Hbonds>
donor molecule, donor type, donor heavy atom, donor atom, acceptor molecule, acceptor atom, score
      L1  H    14    32       P1  7948  1.56
      P1  H  7989  7998       L1     1  0.80
      L1  C    16    34       P1 10175  0.43

> <Gold.PLP.Chemscore.Internal.Correction>
0.0207

> <Gold.Rescore>
     Score         DG    S(hbond)    S(metal)    S(lipo)     H(rot)  DE(clash)    DE(int)     intcor
     16.26     -17.42       1.85        0.00      85.43       1.66       0.12       1.04       ----

> <Gold.Chemscore.Fitness>
16.2594

> <Gold.Chemscore.DG>
-17.4200

> <Gold.Chemscore.ZeroCoef>
-5.4800

> <Gold.Chemscore.Hbond>
1.8527

> <Gold.Chemscore.Metal>
0.0000

> <Gold.Chemscore.Lipo>
85.4290

> <Gold.Chemscore.Internal_Hbond>
0.0000

> <Gold.Chemscore.DEClash>
0.1191

> <Gold.Chemscore.DEInternal>
1.0416

> <Gold.Chemscore.Rot>
1.6575

> <Gold.Chemscore.Internal.Correction>
   9.000000E+99

> <Gold.Chemscore.Hbonds>
donor molecule, donor type, donor heavy atom, donor atom, acceptor molecule, acceptor atom, score
      L1  H    14    32       P1  7948  0.76
      P1  H  7989  7998       L1     1  0.76

> <Gold.Chemscore.Hbond.Weighted>
-6.1879

> <Gold.Chemscore.Metal.Weighted>
-0.0000

> <Gold.Chemscore.Lipo.Weighted>
-9.9952

> <Gold.Chemscore.Internal_Hbond.Weighted>
0.0000

> <Gold.Chemscore.DEClash.Weighted>
0.1191

> <Gold.Chemscore.DEInternal.Weighted>
1.0416

> <Gold.Chemscore.Rot.Weighted>
4.2431

> <Gold.Chemscore.Internal.Correction.Weighted>
   9.000000E+99

> <Gold.Protein.RotatedTorsions>
[ 6907 6896 6895 6894 ] final  -44.75 input  -60.11 | X-H torsion
[ 7974 7965 7964 7962 ] final  -61.42 input  175.53 | X-H torsion
[ 8008 7997 7996 7995 ] final   53.73 input   59.86 | X-H torsion
[ 10167 10162 10161 10158 ] final  148.24 input  -65.29 | X-H torsion
[ 10718 10713 10712 10709 ] final   49.10 input   66.30 | X-H torsion
[ 10763 10752 10751 10750 ] final   18.70 input  -60.55 | X-H torsion
[ 11005 11000 10999 10996 ] final   98.88 input  -57.11 | X-H torsion

> <Gold.Protein.ActiveResidues>
 VAL166  LYS551  ARG553  GLY616  TRP617  ASP618  TYR619  PRO620  LYS621  CYS622 
 ASP623  PHE694  ASN695  SER759  ASP760  ASP761  ALA762  ILE779  LEU786  VAL792 
 PHE793  MET794  SER795  GLU796  ALA797  LYS798  CYS799  TRP800  GLU811  SER814 

> <Gold.Protein.RotatedAtoms>
  150.9294  134.8710  159.7541 H   0  0  0  0  0  0  0  0  0  0  0  0  # atno 6907 bound_to 6896
  152.5031  134.4101  159.9455 H   0  0  0  0  0  0  0  0  0  0  0  0  # atno 6908 bound_to 6896
  151.4129  133.3682  159.2781 H   0  0  0  0  0  0  0  0  0  0  0  0  # atno 6909 bound_to 6896
  145.8036  140.8640  143.0218 H   0  0  0  0  0  0  0  0  0  0  0  0  # atno 7974 bound_to 7965
  155.4730  140.3466  155.4328 H   0  0  0  0  0  0  0  0  0  0  0  0  # atno 8008 bound_to 7997
  156.1088  140.1455  156.9396 H   0  0  0  0  0  0  0  0  0  0  0  0  # atno 8009 bound_to 7997
  154.4742  140.0890  156.7199 H   0  0  0  0  0  0  0  0  0  0  0  0  # atno 8010 bound_to 7997
  139.4878  144.5694  151.7083 H   0  0  0  0  0  0  0  0  0  0  0  0  # atno 10167 bound_to 10162
  157.4753  130.8281  149.8032 H   0  0  0  0  0  0  0  0  0  0  0  0  # atno 10718 bound_to 10713
  153.1226  135.6722  153.9310 H   0  0  0  0  0  0  0  0  0  0  0  0  # atno 10763 bound_to 10752
  153.8821  135.3057  155.3447 H   0  0  0  0  0  0  0  0  0  0  0  0  # atno 10764 bound_to 10752
  154.7635  135.4976  153.9590 H   0  0  0  0  0  0  0  0  0  0  0  0  # atno 10765 bound_to 10752
  139.8771  134.9069  156.4522 H   0  0  0  0  0  0  0  0  0  0  0  0  # atno 11005 bound_to 11000
  144.6765  140.0295  143.7483 LP  0  0  0  0  0  0  0  0  0  0  0  0  # atno 17320 bound_to 7965
  145.9852  139.2971  143.1018 LP  0  0  0  0  0  0  0  0  0  0  0  0  # atno 17321 bound_to 7965
  140.5279  144.0777  150.6043 LP  0  0  0  0  0  0  0  0  0  0  0  0  # atno 17342 bound_to 10162
  140.3757  143.2830  152.0228 LP  0  0  0  0  0  0  0  0  0  0  0  0  # atno 17343 bound_to 10162
  156.0094  130.3840  150.2318 LP  0  0  0  0  0  0  0  0  0  0  0  0  # atno 17370 bound_to 10713
  157.0502  131.0060  151.3256 LP  0  0  0  0  0  0  0  0  0  0  0  0  # atno 17371 bound_to 10713
  140.8924  133.7838  155.9587 LP  0  0  0  0  0  0  0  0  0  0  0  0  # atno 17394 bound_to 11000
  140.8739  134.2693  157.5177 LP  0  0  0  0  0  0  0  0  0  0  0  0  # atno 17395 bound_to 11000

$$$$
