AV-unprocessed.smi:2728|AV-procd|sdf|10525|dock3
  -GOLD-   2272014563D 1   1.00000     0.00000
 Structure written by MMmdl.
 34 35  0  0  0  0  0  0  0  0  1 V2000
  146.1355  139.2279  153.2676 O   0  0  0  0  0  0  0  0  0  0  0  0
  146.9689  138.4118  152.8727 C   0  0  0  0  0  0  0  0  0  0  0  0
  146.6643  137.3626  152.0950 N   0  0  0  0  0  0  0  0  0  0  0  0
  145.3282  137.0445  151.6047 C   0  0  0  0  0  0  0  0  0  0  0  0
  144.7262  135.8396  152.3472 C   0  0  0  0  0  0  0  0  0  0  0  0
  145.0750  134.5183  151.6907 C   0  0  0  0  0  0  0  0  0  0  0  0
  146.2989  134.0380  151.4753 C   0  0  0  0  0  0  0  0  0  0  0  0
  146.2840  132.6845  150.8195 C   0  0  0  0  0  0  0  0  0  0  0  0
  144.7816  132.3716  150.6409 C   0  0  0  0  0  0  0  0  0  0  0  0
  144.0000  133.5704  151.2244 C   0  0  0  0  0  0  0  0  0  0  0  0
  148.2840  138.4443  153.1528 N   0  0  0  0  0  0  0  0  0  0  0  0
  148.9946  139.4034  153.9230 C   0  0  0  0  0  0  0  0  0  0  0  0
  150.2835  138.9997  154.3400 C   0  0  0  0  0  0  0  0  0  0  0  0
  151.0719  139.8807  155.1060 C   0  0  0  0  0  0  0  0  0  0  0  0
  150.5484  141.1435  155.4351 C   0  0  0  0  0  0  0  0  0  0  0  0
  151.2693  142.0243  156.1687 F   0  0  0  0  0  0  0  0  0  0  0  0
  149.2563  141.4680  154.9822 C   0  0  0  0  0  0  0  0  0  0  0  0
  148.4998  140.6246  154.2477 N   0  0  0  0  0  0  0  0  0  0  0  0
  147.4100  136.7413  151.8173 H   0  0  0  0  0  0  0  0  0  0  0  0
  144.6818  137.9192  151.6937 H   0  0  0  0  0  0  0  0  0  0  0  0
  145.4048  136.8223  150.5399 H   0  0  0  0  0  0  0  0  0  0  0  0
  145.0852  135.8257  153.3772 H   0  0  0  0  0  0  0  0  0  0  0  0
  143.6399  135.9245  152.3953 H   0  0  0  0  0  0  0  0  0  0  0  0
  147.2200  134.5383  151.7356 H   0  0  0  0  0  0  0  0  0  0  0  0
  146.8066  132.7217  149.8635 H   0  0  0  0  0  0  0  0  0  0  0  0
  146.7764  131.9514  151.4588 H   0  0  0  0  0  0  0  0  0  0  0  0
  144.5419  132.2347  149.5859 H   0  0  0  0  0  0  0  0  0  0  0  0
  144.5147  131.4480  151.1554 H   0  0  0  0  0  0  0  0  0  0  0  0
  143.3719  133.2711  152.0639 H   0  0  0  0  0  0  0  0  0  0  0  0
  143.3697  134.0406  150.4691 H   0  0  0  0  0  0  0  0  0  0  0  0
  148.8437  137.7016  152.7612 H   0  0  0  0  0  0  0  0  0  0  0  0
  150.6697  138.0258  154.0766 H   0  0  0  0  0  0  0  0  0  0  0  0
  152.0596  139.5918  155.4336 H   0  0  0  0  0  0  0  0  0  0  0  0
  148.8186  142.4277  155.2138 H   0  0  0  0  0  0  0  0  0  0  0  0
  1  2  2  0  0  0  0
  2  3  1  0  0  0  0
  2 11  1  0  0  0  0
  3  4  1  0  0  0  0
  3 19  1  0  0  0  0
  4  5  1  0  0  0  0
  4 20  1  0  0  0  0
  4 21  1  0  0  0  0
  5  6  1  0  0  0  0
  5 22  1  0  0  0  0
  5 23  1  0  0  0  0
  6 10  1  0  0  0  0
  6  7  2  0  0  0  0
  7  8  1  0  0  0  0
  7 24  1  0  0  0  0
  8  9  1  0  0  0  0
  8 25  1  0  0  0  0
  8 26  1  0  0  0  0
  9 10  1  0  0  0  0
  9 27  1  0  0  0  0
  9 28  1  0  0  0  0
 10 29  1  0  0  0  0
 10 30  1  0  0  0  0
 11 12  1  0  0  0  0
 11 31  1  0  0  0  0
 12 18  1  0  0  0  0
 12 13  2  0  0  0  0
 13 14  1  0  0  0  0
 13 32  1  0  0  0  0
 14 15  2  0  0  0  0
 14 33  1  0  0  0  0
 15 16  1  0  0  0  0
 15 17  1  0  0  0  0
 17 18  2  0  0  0  0
 17 34  1  0  0  0  0
M  END
> <s_m_source_file>
AV-unprocessed.smi

> <i_m_source_file_index>
2728

> <i_lp_mmshare_version>
43012

> <i_f3d_flags>
0

> <s_epik_input>
bjFbY0hdYyhGKVtjSF1bY0hdYzFbTkhdQyg9TylbTkhdW0NIMl1bQ0gyXUMyPVtDSF1bQ0gyXVtDSDJdW0NIMl0y

> <s_epik_cmdline>
J2VwaWtfcHl0aG9uJywgJy1waCcsICc3LjAnLCAnLXRuJywgJzgnLCAnLW1hJywgJzIwMCcsICctbWV0YWxfYmluZGluZycsICctaW1hZScsICc8aW5maWxlLm1hZT4nLCAnLW9tYWUnLCAnPG91dGZpbGUubWFlPic=

> <r_lp_tautomer_probability>
1

> <r_epik_Ionization_Penalty>
3.75783e-05

> <r_epik_Ionization_Penalty_Charging>
0

> <r_epik_Ionization_Penalty_Neutral>
3.75783e-05

> <r_epik_State_Penalty>
-0

> <r_epik_Charging_Adjusted_Penalty>
0

> <i_epik_Tot_Q>
0

> <i_epik_Tot_abs_Q>
0

> <r_epik_Metal_State_Penalty>
-0

> <b_epik_Metal_Only>
0

> <s_lp_Force_Field>
OPLS_2005

> <r_lp_Energy>
20.4042

> <b_lp_Chiralities_Consistent>
1

> <s_lp_Variant>
AV-unprocessed.smi:2728-1

> <Gold.Version>
5.8.1

> <Gold.Id.Protein>
6NUR|6NUR_protein|mol2

> <Gold.PLP.Fitness>
40.9097

> <Gold.PLP.PLP>
-32.5732

> <Gold.PLP.part.hbond>
-2.8098

> <Gold.PLP.part.metal>
0.0000

> <Gold.PLP.part.buried>
1.8127

> <Gold.PLP.part.nonpolar>
-34.7743

> <Gold.PLP.part.repulsive>
2.7214

> <Gold.PLP.ligand.clash>
0.0000

> <Gold.PLP.ligand.torsion>
0.3220

> <Gold.PLP.Chemscore.Hbond>
1.9920

> <Gold.PLP.Chemscore.CHOScore>
1.0000

> <Gold.PLP.Chemscore.Metal>
0.0000

> <Gold.Chemscore.Hbonds>
donor molecule, donor type, donor heavy atom, donor atom, acceptor molecule, acceptor atom, score
      L1  H     3    19       P1  7948  1.00
      L1  H    11    31       P1  7948  1.00
      L1  C    17    34       P1  8028  1.00

> <Gold.PLP.Chemscore.Internal.Correction>
0.0045

> <Gold.Rescore>
     Score         DG    S(hbond)    S(metal)    S(lipo)     H(rot)  DE(clash)    DE(int)     intcor
     12.58     -15.87       1.87        0.00      67.77       1.48       1.70       1.59       ----

> <Gold.Chemscore.Fitness>
12.5769

> <Gold.Chemscore.DG>
-15.8662

> <Gold.Chemscore.ZeroCoef>
-5.4800

> <Gold.Chemscore.Hbond>
1.8715

> <Gold.Chemscore.Metal>
0.0000

> <Gold.Chemscore.Lipo>
67.7670

> <Gold.Chemscore.Internal_Hbond>
0.0000

> <Gold.Chemscore.DEClash>
1.7006

> <Gold.Chemscore.DEInternal>
1.5887

> <Gold.Chemscore.Rot>
1.4818

> <Gold.Chemscore.Internal.Correction>
   9.000000E+99

> <Gold.Chemscore.Hbonds>
donor molecule, donor type, donor heavy atom, donor atom, acceptor molecule, acceptor atom, score
      L1  H     3    19       P1  7948  0.96
      L1  H    11    31       P1  7948  0.95

> <Gold.Chemscore.Hbond.Weighted>
-6.2507

> <Gold.Chemscore.Metal.Weighted>
-0.0000

> <Gold.Chemscore.Lipo.Weighted>
-7.9287

> <Gold.Chemscore.Internal_Hbond.Weighted>
0.0000

> <Gold.Chemscore.DEClash.Weighted>
1.7006

> <Gold.Chemscore.DEInternal.Weighted>
1.5887

> <Gold.Chemscore.Rot.Weighted>
3.7933

> <Gold.Chemscore.Internal.Correction.Weighted>
   9.000000E+99

> <Gold.Protein.RotatedTorsions>
[ 6907 6896 6895 6894 ] final  113.42 input  -60.11 | X-H torsion
[ 7974 7965 7964 7962 ] final -165.22 input  175.53 | X-H torsion
[ 8008 7997 7996 7995 ] final -176.51 input   59.86 | X-H torsion
[ 10167 10162 10161 10158 ] final -133.20 input  -65.29 | X-H torsion
[ 10718 10713 10712 10709 ] final -177.07 input   66.30 | X-H torsion
[ 10763 10752 10751 10750 ] final  108.78 input  -60.55 | X-H torsion
[ 11005 11000 10999 10996 ] final  149.53 input  -57.11 | X-H torsion

> <Gold.Protein.ActiveResidues>
 VAL166  LYS551  ARG553  GLY616  TRP617  ASP618  TYR619  PRO620  LYS621  CYS622 
 ASP623  PHE694  ASN695  SER759  ASP760  ASP761  ALA762  ILE779  LEU786  VAL792 
 PHE793  MET794  SER795  GLU796  ALA797  LYS798  CYS799  TRP800  GLU811  SER814 

> <Gold.Protein.RotatedAtoms>
  152.4862  133.8378  159.7136 H   0  0  0  0  0  0  0  0  0  0  0  0  # atno 6907 bound_to 6896
  150.8950  133.7183  159.2901 H   0  0  0  0  0  0  0  0  0  0  0  0  # atno 6908 bound_to 6896
  151.4644  135.1045  159.9786 H   0  0  0  0  0  0  0  0  0  0  0  0  # atno 6909 bound_to 6896
  144.7275  140.2846  143.6230 H   0  0  0  0  0  0  0  0  0  0  0  0  # atno 7974 bound_to 7965
  155.9957  140.1210  157.0596 H   0  0  0  0  0  0  0  0  0  0  0  0  # atno 8008 bound_to 7997
  154.4226  140.1117  156.5695 H   0  0  0  0  0  0  0  0  0  0  0  0  # atno 8009 bound_to 7997
  155.6282  140.3473  155.4676 H   0  0  0  0  0  0  0  0  0  0  0  0  # atno 8010 bound_to 7997
  139.9007  143.6610  152.2595 H   0  0  0  0  0  0  0  0  0  0  0  0  # atno 10167 bound_to 10162
  156.8240  130.9630  151.3110 H   0  0  0  0  0  0  0  0  0  0  0  0  # atno 10718 bound_to 10713
  153.4255  135.3801  155.2138 H   0  0  0  0  0  0  0  0  0  0  0  0  # atno 10763 bound_to 10752
  154.8747  135.3827  154.4332 H   0  0  0  0  0  0  0  0  0  0  0  0  # atno 10764 bound_to 10752
  153.4858  135.7088  153.5975 H   0  0  0  0  0  0  0  0  0  0  0  0  # atno 10765 bound_to 10752
  140.1053  134.8958  157.1856 H   0  0  0  0  0  0  0  0  0  0  0  0  # atno 11005 bound_to 11000
  145.7916  139.1929  143.2100 LP  0  0  0  0  0  0  0  0  0  0  0  0  # atno 17320 bound_to 7965
  146.0751  140.7826  142.9669 LP  0  0  0  0  0  0  0  0  0  0  0  0  # atno 17321 bound_to 7965
  139.7027  144.7632  151.1245 LP  0  0  0  0  0  0  0  0  0  0  0  0  # atno 17342 bound_to 10162
  140.7707  143.5436  150.9285 LP  0  0  0  0  0  0  0  0  0  0  0  0  # atno 17343 bound_to 10162
  157.6442  130.8830  149.9506 LP  0  0  0  0  0  0  0  0  0  0  0  0  # atno 17370 bound_to 10713
  156.0972  130.3658  150.0284 LP  0  0  0  0  0  0  0  0  0  0  0  0  # atno 17371 bound_to 10713
  140.3165  134.2965  155.7255 LP  0  0  0  0  0  0  0  0  0  0  0  0  # atno 17394 bound_to 11000
  141.2116  133.7683  156.9850 LP  0  0  0  0  0  0  0  0  0  0  0  0  # atno 17395 bound_to 11000

$$$$
