AV-unprocessed.smi:2593|AV-procd|sdf|10164|dock7
  -GOLD-   2272014183D 1   1.00000     0.00000
 Structure written by MMmdl.
 41 43  0  0  0  0  0  0  0  0  2 V2000
  153.3986  138.5621  154.4029 C   0  0  0  0  0  0  0  0  0  0  0  0
  153.3094  139.0002  155.7470 O   0  0  0  0  0  0  0  0  0  0  0  0
  152.0359  139.5409  156.0604 C   0  0  0  0  0  0  0  0  0  0  0  0
  152.0693  140.1448  157.4712 C   0  0  0  0  0  0  0  0  0  0  0  0
  151.4014  141.4527  157.5314 N   0  0  0  0  0  0  0  0  0  0  0  0
  150.4325  141.9933  156.7404 C   0  0  0  0  0  0  0  0  0  0  0  0
  149.6275  141.2233  155.3744 S   0  0  0  0  0  0  0  0  0  0  0  0
  147.9713  140.8109  155.9937 C   0  0  0  0  0  0  0  0  0  0  0  0
  146.9682  141.8381  155.5048 C   0  0  0  0  0  0  0  0  0  0  0  0
  146.9000  142.1824  154.1386 C   0  0  0  0  0  0  0  0  0  0  0  0
  145.9733  143.1652  153.7409 C   0  0  0  0  0  0  0  0  0  0  0  0
  145.1596  143.7668  154.7206 C   0  0  0  0  0  0  0  0  0  0  0  0
  145.3045  143.3535  156.0606 C   0  0  0  0  0  0  0  0  0  0  0  0
  144.5239  143.9299  157.0590 N   0  0  0  0  0  0  0  0  0  0  0  0
  146.1858  142.4082  156.4495 N   0  0  0  0  0  0  0  0  0  0  0  0
  150.1635  143.2427  157.2081 N   0  3  0  0  0  0  0  0  0  0  0  0
  150.9665  143.5059  158.3186 C   0  0  0  0  0  0  0  0  0  0  0  0
  151.0527  144.6297  159.1344 C   0  0  0  0  0  0  0  0  0  0  0  0
  151.9855  144.5748  160.1907 C   0  0  0  0  0  0  0  0  0  0  0  0
  152.7884  143.4354  160.4034 C   0  0  0  0  0  0  0  0  0  0  0  0
  152.6925  142.3013  159.5700 C   0  0  0  0  0  0  0  0  0  0  0  0
  151.7660  142.3624  158.5298 C   0  0  0  0  0  0  0  0  0  0  0  0
  154.3911  138.1518  154.2166 H   0  0  0  0  0  0  0  0  0  0  0  0
  153.2397  139.3876  153.7080 H   0  0  0  0  0  0  0  0  0  0  0  0
  152.6668  137.7811  154.1932 H   0  0  0  0  0  0  0  0  0  0  0  0
  151.7663  140.3107  155.3359 H   0  0  0  0  0  0  0  0  0  0  0  0
  151.2763  138.7599  156.0042 H   0  0  0  0  0  0  0  0  0  0  0  0
  151.5659  139.4778  158.1703 H   0  0  0  0  0  0  0  0  0  0  0  0
  153.0929  140.2524  157.8307 H   0  0  0  0  0  0  0  0  0  0  0  0
  147.6904  139.8180  155.6416 H   0  0  0  0  0  0  0  0  0  0  0  0
  147.9818  140.7762  157.0835 H   0  0  0  0  0  0  0  0  0  0  0  0
  147.5453  141.7088  153.4129 H   0  0  0  0  0  0  0  0  0  0  0  0
  145.8916  143.4561  152.7041 H   0  0  0  0  0  0  0  0  0  0  0  0
  144.4424  144.5265  154.4453 H   0  0  0  0  0  0  0  0  0  0  0  0
  143.8457  144.6476  156.8476 H   0  0  0  0  0  0  0  0  0  0  0  0
  144.5297  143.5686  158.0019 H   0  0  0  0  0  0  0  0  0  0  0  0
  150.4396  145.5045  158.9731 H   0  0  0  0  0  0  0  0  0  0  0  0
  152.0879  145.4241  160.8506 H   0  0  0  0  0  0  0  0  0  0  0  0
  153.4926  143.4307  161.2227 H   0  0  0  0  0  0  0  0  0  0  0  0
  153.3127  141.4337  159.7406 H   0  0  0  0  0  0  0  0  0  0  0  0
  149.4744  143.8618  156.8014 H   0  0  0  0  0  0  0  0  0  0  0  0
  1  2  1  0  0  0  0
  1 23  1  0  0  0  0
  1 24  1  0  0  0  0
  1 25  1  0  0  0  0
  2  3  1  0  0  0  0
  3  4  1  0  0  0  0
  3 26  1  0  0  0  0
  3 27  1  0  0  0  0
  4  5  1  0  0  0  0
  4 28  1  0  0  0  0
  4 29  1  0  0  0  0
  5 22  1  0  0  0  0
  5  6  1  0  0  0  0
  6  7  1  0  0  0  0
  6 16  2  0  0  0  0
  7  8  1  0  0  0  0
  8  9  1  0  0  0  0
  8 30  1  0  0  0  0
  8 31  1  0  0  0  0
  9 15  1  0  0  0  0
  9 10  2  0  0  0  0
 10 11  1  0  0  0  0
 10 32  1  0  0  0  0
 11 12  2  0  0  0  0
 11 33  1  0  0  0  0
 12 13  1  0  0  0  0
 12 34  1  0  0  0  0
 13 14  1  0  0  0  0
 13 15  2  0  0  0  0
 14 35  1  0  0  0  0
 14 36  1  0  0  0  0
 16 17  1  0  0  0  0
 16 41  1  0  0  0  0
 17 22  2  0  0  0  0
 17 18  1  0  0  0  0
 18 19  2  0  0  0  0
 18 37  1  0  0  0  0
 19 20  1  0  0  0  0
 19 38  1  0  0  0  0
 20 21  2  0  0  0  0
 20 39  1  0  0  0  0
 21 22  1  0  0  0  0
 21 40  1  0  0  0  0
M  CHG  1  16   1
M  END
> <s_m_source_file>
AV-unprocessed.smi

> <i_m_source_file_index>
2593

> <i_lp_mmshare_version>
43012

> <i_f3d_flags>
0

> <s_epik_input>
W2NIXTFbY0hdW2NIXVtjSF1jKGMxMiluKFtDSDJdW0NIMl1PW0NIM10pYyhuMilTW0NIMl1jM1tjSF1bY0hdW2NIXWMobjMpW05IMl0=

> <s_epik_cmdline>
J2VwaWtfcHl0aG9uJywgJy1waCcsICc3LjAnLCAnLXRuJywgJzgnLCAnLW1hJywgJzIwMCcsICctbWV0YWxfYmluZGluZycsICctaW1hZScsICc8aW5maWxlLm1hZT4nLCAnLW9tYWUnLCAnPG91dGZpbGUubWFlPic=

> <r_lp_tautomer_probability>
1

> <r_epik_Ionization_Penalty>
1.62501

> <r_epik_Ionization_Penalty_Charging>
1.62036

> <r_epik_Ionization_Penalty_Neutral>
0.00464699

> <r_epik_State_Penalty>
1.7318

> <r_epik_Charging_Adjusted_Penalty>
3.35216

> <i_epik_Tot_Q>
1

> <i_epik_Tot_abs_Q>
1

> <r_epik_Metal_State_Penalty>
1.7649

> <b_epik_Metal_Only>
0

> <s_lp_Force_Field>
OPLS_2005

> <r_lp_Energy>
8.46533

> <b_lp_Chiralities_Consistent>
1

> <s_lp_Variant>
AV-unprocessed.smi:2593-2

> <Gold.Version>
5.8.1

> <Gold.Id.Protein>
6NUR|6NUR_protein|mol2

> <Gold.PLP.Fitness>
55.2208

> <Gold.PLP.PLP>
-48.5424

> <Gold.PLP.part.hbond>
-1.8424

> <Gold.PLP.part.metal>
0.0000

> <Gold.PLP.part.buried>
-8.4445

> <Gold.PLP.part.nonpolar>
-39.4756

> <Gold.PLP.part.repulsive>
0.1277

> <Gold.PLP.ligand.clash>
0.0000

> <Gold.PLP.ligand.torsion>
1.1904

> <Gold.PLP.Chemscore.Hbond>
3.0000

> <Gold.PLP.Chemscore.CHOScore>
0.0000

> <Gold.PLP.Chemscore.Metal>
0.0000

> <Gold.Chemscore.Hbonds>
donor molecule, donor type, donor heavy atom, donor atom, acceptor molecule, acceptor atom, score
      L1  H    16    41       P1  8028  2.00
      P1  H  7997  8009       L1     2  1.00

> <Gold.PLP.Chemscore.Internal.Correction>
0.0592

> <Gold.Rescore>
     Score         DG    S(hbond)    S(metal)    S(lipo)     H(rot)  DE(clash)    DE(int)     intcor
     18.45     -20.64       1.94        0.00     122.14       2.19       0.13       2.06       ----

> <Gold.Chemscore.Fitness>
18.4544

> <Gold.Chemscore.DG>
-20.6359

> <Gold.Chemscore.ZeroCoef>
-5.4800

> <Gold.Chemscore.Hbond>
1.9409

> <Gold.Chemscore.Metal>
0.0000

> <Gold.Chemscore.Lipo>
122.1385

> <Gold.Chemscore.Internal_Hbond>
0.0000

> <Gold.Chemscore.DEClash>
0.1263

> <Gold.Chemscore.DEInternal>
2.0552

> <Gold.Chemscore.Rot>
2.1941

> <Gold.Chemscore.Internal.Correction>
   9.000000E+99

> <Gold.Chemscore.Hbonds>
donor molecule, donor type, donor heavy atom, donor atom, acceptor molecule, acceptor atom, score
      L1  H    16    41       P1  8028  0.83
      P1  H  7997  8009       L1     2  0.45

> <Gold.Chemscore.Hbond.Weighted>
-6.4826

> <Gold.Chemscore.Metal.Weighted>
-0.0000

> <Gold.Chemscore.Lipo.Weighted>
-14.2902

> <Gold.Chemscore.Internal_Hbond.Weighted>
0.0000

> <Gold.Chemscore.DEClash.Weighted>
0.1263

> <Gold.Chemscore.DEInternal.Weighted>
2.0552

> <Gold.Chemscore.Rot.Weighted>
5.6169

> <Gold.Chemscore.Internal.Correction.Weighted>
   9.000000E+99

> <Gold.Protein.RotatedTorsions>
[ 6907 6896 6895 6894 ] final  -84.15 input  -60.11 | X-H torsion
[ 7974 7965 7964 7962 ] final -101.42 input  175.53 | X-H torsion
[ 8008 7997 7996 7995 ] final -154.46 input   59.86 | X-H torsion
[ 10167 10162 10161 10158 ] final  134.72 input  -65.29 | X-H torsion
[ 10718 10713 10712 10709 ] final  169.51 input   66.30 | X-H torsion
[ 10763 10752 10751 10750 ] final   37.11 input  -60.55 | X-H torsion
[ 11005 11000 10999 10996 ] final  113.70 input  -57.11 | X-H torsion

> <Gold.Protein.ActiveResidues>
 VAL166  LYS551  ARG553  GLY616  TRP617  ASP618  TYR619  PRO620  LYS621  CYS622 
 ASP623  PHE694  ASN695  SER759  ASP760  ASP761  ALA762  ILE779  LEU786  VAL792 
 PHE793  MET794  SER795  GLU796  ALA797  LYS798  CYS799  TRP800  GLU811  SER814 

> <Gold.Protein.RotatedAtoms>
  150.6879  134.3402  159.4864 H   0  0  0  0  0  0  0  0  0  0  0  0  # atno 6907 bound_to 6896
  152.1256  134.9170  160.0570 H   0  0  0  0  0  0  0  0  0  0  0  0  # atno 6908 bound_to 6896
  152.0360  133.3922  159.4354 H   0  0  0  0  0  0  0  0  0  0  0  0  # atno 6909 bound_to 6896
  145.2818  140.9328  143.2927 H   0  0  0  0  0  0  0  0  0  0  0  0  # atno 7974 bound_to 7965
  155.6868  140.0750  157.2464 H   0  0  0  0  0  0  0  0  0  0  0  0  # atno 8008 bound_to 7997
  154.4096  140.1672  156.2094 H   0  0  0  0  0  0  0  0  0  0  0  0  # atno 8009 bound_to 7997
  155.9487  140.3379  155.6392 H   0  0  0  0  0  0  0  0  0  0  0  0  # atno 8010 bound_to 7997
  139.5245  144.6553  151.5180 H   0  0  0  0  0  0  0  0  0  0  0  0  # atno 10167 bound_to 10162
  157.0216  131.0233  151.2773 H   0  0  0  0  0  0  0  0  0  0  0  0  # atno 10718 bound_to 10713
  153.0050  135.6287  154.2093 H   0  0  0  0  0  0  0  0  0  0  0  0  # atno 10763 bound_to 10752
  154.1836  135.2812  155.3046 H   0  0  0  0  0  0  0  0  0  0  0  0  # atno 10764 bound_to 10752
  154.5815  135.5646  153.7249 H   0  0  0  0  0  0  0  0  0  0  0  0  # atno 10765 bound_to 10752
  139.8960  134.9554  156.6779 H   0  0  0  0  0  0  0  0  0  0  0  0  # atno 11005 bound_to 11000
  144.9246  139.4370  143.6524 LP  0  0  0  0  0  0  0  0  0  0  0  0  # atno 17320 bound_to 7965
  146.3214  139.8125  142.8943 LP  0  0  0  0  0  0  0  0  0  0  0  0  # atno 17321 bound_to 7965
  140.6376  143.8953  150.6662 LP  0  0  0  0  0  0  0  0  0  0  0  0  # atno 17342 bound_to 10162
  140.2277  143.3760  152.1591 LP  0  0  0  0  0  0  0  0  0  0  0  0  # atno 17343 bound_to 10162
  157.5245  130.8019  149.7847 LP  0  0  0  0  0  0  0  0  0  0  0  0  # atno 17370 bound_to 10713
  156.0100  130.3837  150.2297 LP  0  0  0  0  0  0  0  0  0  0  0  0  # atno 17371 bound_to 10713
  140.7322  133.9049  155.8219 LP  0  0  0  0  0  0  0  0  0  0  0  0  # atno 17394 bound_to 11000
  141.0144  134.0976  157.4188 LP  0  0  0  0  0  0  0  0  0  0  0  0  # atno 17395 bound_to 11000

$$$$
