AV-unprocessed.smi:745|AV-procd|sdf|3573|dock9
  -GOLD-   22720 0563D 1   1.00000     0.00000
 Structure written by MMmdl.
 42 43  0  0  0  0  0  0  0  0  2 V2000
  147.3792  141.0949  153.9086 C   0  0  0  0  0  0  0  0  0  0  0  0
  147.0167  141.6856  155.2823 C   0  0  1  0  0  0  0  0  0  0  0  0
  148.1926  142.3986  155.7839 N   0  0  0  0  0  0  0  0  0  0  0  0
  148.9001  142.0792  156.8788 C   0  0  0  0  0  0  0  0  0  0  0  0
  148.6078  141.1483  157.6299 O   0  0  0  0  0  0  0  0  0  0  0  0
  149.9465  142.9083  157.0388 N   0  0  0  0  0  0  0  0  0  0  0  0
  150.9206  142.9030  158.0726 C   0  0  0  0  0  0  0  0  0  0  0  0
  151.7250  144.0628  158.1427 C   0  0  0  0  0  0  0  0  0  0  0  0
  152.7212  144.1563  159.1339 C   0  0  0  0  0  0  0  0  0  0  0  0
  152.8874  143.0862  160.0311 C   0  0  0  0  0  0  0  0  0  0  0  0
  152.0441  141.9685  159.8928 C   0  0  0  0  0  0  0  0  0  0  0  0
  151.0883  141.8770  158.9441 N   0  0  0  0  0  0  0  0  0  0  0  0
  145.7722  142.6162  155.2462 C   0  0  2  0  0  0  0  0  0  0  0  0
  144.4432  141.8277  155.1708 C   0  0  0  0  0  0  0  0  0  0  0  0
  143.2206  142.7554  155.0825 C   0  0  0  0  0  0  0  0  0  0  0  0
  143.3341  143.6740  153.9256 N   0  3  1  0  0  0  0  0  0  0  0  0
  142.1184  144.4931  153.7327 C   0  0  0  0  0  0  0  0  0  0  0  0
  144.5646  144.4959  154.0015 C   0  0  0  0  0  0  0  0  0  0  0  0
  145.8179  143.6073  154.0617 C   0  0  0  0  0  0  0  0  0  0  0  0
  146.6072  140.4210  153.5391 H   0  0  0  0  0  0  0  0  0  0  0  0
  148.2999  140.5129  153.9655 H   0  0  0  0  0  0  0  0  0  0  0  0
  147.5282  141.8777  153.1643 H   0  0  0  0  0  0  0  0  0  0  0  0
  146.7937  140.8450  155.9421 H   0  0  0  0  0  0  0  0  0  0  0  0
  148.5084  143.1847  155.2347 H   0  0  0  0  0  0  0  0  0  0  0  0
  150.0627  143.6252  156.3381 H   0  0  0  0  0  0  0  0  0  0  0  0
  151.5840  144.8758  157.4452 H   0  0  0  0  0  0  0  0  0  0  0  0
  153.3464  145.0342  159.2035 H   0  0  0  0  0  0  0  0  0  0  0  0
  153.6404  143.1212  160.8044 H   0  0  0  0  0  0  0  0  0  0  0  0
  152.1382  141.1257  160.5617 H   0  0  0  0  0  0  0  0  0  0  0  0
  145.7606  143.1984  156.1693 H   0  0  0  0  0  0  0  0  0  0  0  0
  144.4586  141.1633  154.3054 H   0  0  0  0  0  0  0  0  0  0  0  0
  144.3241  141.1892  156.0459 H   0  0  0  0  0  0  0  0  0  0  0  0
  142.3160  142.1539  154.9836 H   0  0  0  0  0  0  0  0  0  0  0  0
  143.1191  143.3336  156.0024 H   0  0  0  0  0  0  0  0  0  0  0  0
  141.9505  145.1514  154.5861 H   0  0  0  0  0  0  0  0  0  0  0  0
  141.2411  143.8568  153.6125 H   0  0  0  0  0  0  0  0  0  0  0  0
  142.2076  145.1089  152.8371 H   0  0  0  0  0  0  0  0  0  0  0  0
  144.6233  145.1470  153.1284 H   0  0  0  0  0  0  0  0  0  0  0  0
  144.5198  145.1443  154.8782 H   0  0  0  0  0  0  0  0  0  0  0  0
  146.6912  144.2548  154.1359 H   0  0  0  0  0  0  0  0  0  0  0  0
  145.9192  143.0576  153.1248 H   0  0  0  0  0  0  0  0  0  0  0  0
  143.4232  143.0940  153.1034 H   0  0  0  0  0  0  0  0  0  0  0  0
  1  2  1  0  0  0  0
  1 20  1  0  0  0  0
  1 21  1  0  0  0  0
  1 22  1  0  0  0  0
  2  3  1  0  0  0  0
  2 13  1  0  0  0  0
  2 23  1  0  0  0  0
  3  4  1  0  0  0  0
  3 24  1  0  0  0  0
  4  5  2  0  0  0  0
  4  6  1  0  0  0  0
  6  7  1  0  0  0  0
  6 25  1  0  0  0  0
  7 12  1  0  0  0  0
  7  8  2  0  0  0  0
  8  9  1  0  0  0  0
  8 26  1  0  0  0  0
  9 10  2  0  0  0  0
  9 27  1  0  0  0  0
 10 11  1  0  0  0  0
 10 28  1  0  0  0  0
 11 12  2  0  0  0  0
 11 29  1  0  0  0  0
 13 19  1  0  0  0  0
 13 14  1  0  0  0  0
 13 30  1  0  0  0  0
 14 15  1  0  0  0  0
 14 31  1  0  0  0  0
 14 32  1  0  0  0  0
 15 16  1  0  0  0  0
 15 33  1  0  0  0  0
 15 34  1  0  0  0  0
 16 17  1  0  0  0  0
 16 18  1  0  0  0  0
 16 42  1  0  0  0  0
 17 35  1  0  0  0  0
 17 36  1  0  0  0  0
 17 37  1  0  0  0  0
 18 19  1  0  0  0  0
 18 38  1  0  0  0  0
 18 39  1  0  0  0  0
 19 40  1  0  0  0  0
 19 41  1  0  0  0  0
M  CHG  1  16   1
M  END
> <s_m_source_file>
AV-unprocessed.smi

> <i_m_source_file_index>
745

> <i_lp_mmshare_version>
43012

> <i_f3d_flags>
0

> <s_epik_input>
W0NIMl0xW0NIMl1OKFtDSDNdKVtDSDJdW0NIMl1bQ0hdMVtDQEhdKFtDSDNdKVtOSF1DKD1PKVtOSF1jMltjSF1bY0hdW2NIXVtjSF1uMg==

> <s_epik_cmdline>
J2VwaWtfcHl0aG9uJywgJy1waCcsICc3LjAnLCAnLXRuJywgJzgnLCAnLW1hJywgJzIwMCcsICctbWV0YWxfYmluZGluZycsICctaW1hZScsICc8aW5maWxlLm1hZT4nLCAnLW9tYWUnLCAnPG91dGZpbGUubWFlPic=

> <r_epik_Ionization_Penalty>
0.0011087

> <r_epik_Ionization_Penalty_Charging>
0.00106265

> <r_epik_Ionization_Penalty_Neutral>
4.60506e-05

> <r_epik_State_Penalty>
0.000695551

> <r_epik_Charging_Adjusted_Penalty>
0.0017582

> <i_epik_Tot_Q>
1

> <i_epik_Tot_abs_Q>
1

> <r_epik_Metal_State_Penalty>
-0

> <b_epik_Metal_Only>
0

> <s_lp_Force_Field>
OPLS_2005

> <r_lp_Energy>
20.1287

> <b_lp_Chiralities_Consistent>
1

> <s_lp_Variant>
AV-unprocessed.smi:745-2

> <Gold.Version>
5.8.1

> <Gold.Id.Protein>
6NUR|6NUR_protein|mol2

> <Gold.PLP.Fitness>
44.6222

> <Gold.PLP.PLP>
-33.5652

> <Gold.PLP.part.hbond>
-2.9969

> <Gold.PLP.part.metal>
0.0000

> <Gold.PLP.part.buried>
-4.9520

> <Gold.PLP.part.nonpolar>
-26.6309

> <Gold.PLP.part.repulsive>
0.1300

> <Gold.PLP.ligand.clash>
0.0000

> <Gold.PLP.ligand.torsion>
0.3118

> <Gold.PLP.Chemscore.Hbond>
3.8880

> <Gold.PLP.Chemscore.CHOScore>
0.0000

> <Gold.PLP.Chemscore.Metal>
0.0000

> <Gold.Chemscore.Hbonds>
donor molecule, donor type, donor heavy atom, donor atom, acceptor molecule, acceptor atom, score
      L1  H     3    24       P1  8028  0.64
      L1  H     6    25       P1  8028  0.61
      L1  H    16    42       P1 10174  0.97

> <Gold.PLP.Chemscore.Internal.Correction>
0.0166

> <Gold.Rescore>
     Score         DG    S(hbond)    S(metal)    S(lipo)     H(rot)  DE(clash)    DE(int)     intcor
     18.57     -20.08       2.65        0.00      76.72       1.26       0.12       1.38       ----

> <Gold.Chemscore.Fitness>
18.5733

> <Gold.Chemscore.DG>
-20.0789

> <Gold.Chemscore.ZeroCoef>
-5.4800

> <Gold.Chemscore.Hbond>
2.6492

> <Gold.Chemscore.Metal>
0.0000

> <Gold.Chemscore.Lipo>
76.7224

> <Gold.Chemscore.Internal_Hbond>
0.0000

> <Gold.Chemscore.DEClash>
0.1237

> <Gold.Chemscore.DEInternal>
1.3819

> <Gold.Chemscore.Rot>
1.2601

> <Gold.Chemscore.Internal.Correction>
   9.000000E+99

> <Gold.Chemscore.Hbonds>
donor molecule, donor type, donor heavy atom, donor atom, acceptor molecule, acceptor atom, score
      L1  H     3    24       P1  8028  0.63
      L1  H     6    25       P1  8028  0.60
      L1  H    16    42       P1 10174  0.24

> <Gold.Chemscore.Hbond.Weighted>
-8.8483

> <Gold.Chemscore.Metal.Weighted>
-0.0000

> <Gold.Chemscore.Lipo.Weighted>
-8.9765

> <Gold.Chemscore.Internal_Hbond.Weighted>
0.0000

> <Gold.Chemscore.DEClash.Weighted>
0.1237

> <Gold.Chemscore.DEInternal.Weighted>
1.3819

> <Gold.Chemscore.Rot.Weighted>
3.2260

> <Gold.Chemscore.Internal.Correction.Weighted>
   9.000000E+99

> <Gold.Protein.RotatedTorsions>
[ 6907 6896 6895 6894 ] final -110.02 input  -60.11 | X-H torsion
[ 7974 7965 7964 7962 ] final  -31.80 input  175.53 | X-H torsion
[ 8008 7997 7996 7995 ] final   23.68 input   59.86 | X-H torsion
[ 10167 10162 10161 10158 ] final  109.71 input  -65.29 | X-H torsion
[ 10718 10713 10712 10709 ] final  -72.19 input   66.30 | X-H torsion
[ 10763 10752 10751 10750 ] final   35.55 input  -60.55 | X-H torsion
[ 11005 11000 10999 10996 ] final    3.80 input  -57.11 | X-H torsion

> <Gold.Protein.ActiveResidues>
 VAL166  LYS551  ARG553  GLY616  TRP617  ASP618  TYR619  PRO620  LYS621  CYS622 
 ASP623  PHE694  ASN695  SER759  ASP760  ASP761  ALA762  ILE779  LEU786  VAL792 
 PHE793  MET794  SER795  GLU796  ALA797  LYS798  CYS799  TRP800  GLU811  SER814 

> <Gold.Protein.RotatedAtoms>
  150.7598  133.9443  159.3465 H   0  0  0  0  0  0  0  0  0  0  0  0  # atno 6907 bound_to 6896
  151.7355  135.0864  160.0316 H   0  0  0  0  0  0  0  0  0  0  0  0  # atno 6908 bound_to 6896
  152.3562  133.6203  159.6017 H   0  0  0  0  0  0  0  0  0  0  0  0  # atno 6909 bound_to 6896
  146.1040  140.5712  142.8808 H   0  0  0  0  0  0  0  0  0  0  0  0  # atno 7974 bound_to 7965
  154.9847  140.3106  155.4931 H   0  0  0  0  0  0  0  0  0  0  0  0  # atno 8008 bound_to 7997
  156.2948  140.2260  156.4888 H   0  0  0  0  0  0  0  0  0  0  0  0  # atno 8009 bound_to 7997
  154.7757  140.0449  157.1075 H   0  0  0  0  0  0  0  0  0  0  0  0  # atno 8010 bound_to 7997
  139.6745  144.7123  151.1628 H   0  0  0  0  0  0  0  0  0  0  0  0  # atno 10167 bound_to 10162
  156.0330  130.4367  150.2556 H   0  0  0  0  0  0  0  0  0  0  0  0  # atno 10718 bound_to 10713
  153.0114  135.6330  154.1844 H   0  0  0  0  0  0  0  0  0  0  0  0  # atno 10763 bound_to 10752
  154.1586  135.2825  155.3117 H   0  0  0  0  0  0  0  0  0  0  0  0  # atno 10764 bound_to 10752
  154.5999  135.5591  153.7424 H   0  0  0  0  0  0  0  0  0  0  0  0  # atno 10765 bound_to 10752
  140.5891  133.9941  155.8081 H   0  0  0  0  0  0  0  0  0  0  0  0  # atno 11005 bound_to 11000
  144.7455  140.5057  143.6838 LP  0  0  0  0  0  0  0  0  0  0  0  0  # atno 17320 bound_to 7965
  145.5798  139.1488  143.3241 LP  0  0  0  0  0  0  0  0  0  0  0  0  # atno 17321 bound_to 7965
  140.7630  143.5793  150.8912 LP  0  0  0  0  0  0  0  0  0  0  0  0  # atno 17342 bound_to 10162
  139.9461  143.6326  152.3041 LP  0  0  0  0  0  0  0  0  0  0  0  0  # atno 17343 bound_to 10162
  157.0658  131.0102  151.3207 LP  0  0  0  0  0  0  0  0  0  0  0  0  # atno 17370 bound_to 10713
  157.5037  130.7895  149.7631 LP  0  0  0  0  0  0  0  0  0  0  0  0  # atno 17371 bound_to 10713
  141.0947  133.9862  157.3180 LP  0  0  0  0  0  0  0  0  0  0  0  0  # atno 17394 bound_to 11000
  139.9282  135.0201  156.8310 LP  0  0  0  0  0  0  0  0  0  0  0  0  # atno 17395 bound_to 11000

$$$$
