AV-unprocessed.smi:332|AV-procd|sdf|2357|dock10
  -GOLD-   2262022273D 1   1.00000     0.00000
 Structure written by MMmdl.
 42 44  0  0  0  0  0  0  0  0  1 V2000
  151.9354  139.3975  154.6969 C   0  0  0  0  0  0  0  0  0  0  0  0
  151.0857  140.0065  155.8240 C   0  0  1  0  0  0  0  0  0  0  0  0
  151.9702  140.5649  156.8449 N   0  0  0  0  0  0  0  0  0  0  0  0
  151.6283  140.8555  158.1095 C   0  0  0  0  0  0  0  0  0  0  0  0
  150.4958  140.6794  158.5614 O   0  0  0  0  0  0  0  0  0  0  0  0
  152.7525  141.4320  158.9831 C   0  0  0  0  0  0  0  0  0  0  0  0
  152.3875  142.6804  159.6740 N   0  0  0  0  0  0  0  0  0  0  0  0
  152.4945  142.6870  161.0792 C   0  0  0  0  0  0  0  0  0  0  0  0
  152.1861  143.7699  161.8100 C   0  0  0  0  0  0  0  0  0  0  0  0
  151.7347  144.9539  161.1185 C   0  0  0  0  0  0  0  0  0  0  0  0
  151.6324  144.9600  159.7745 C   0  0  0  0  0  0  0  0  0  0  0  0
  151.9683  143.7784  158.9713 C   0  0  0  0  0  0  0  0  0  0  0  0
  151.8787  143.7760  157.7432 O   0  0  0  0  0  0  0  0  0  0  0  0
  150.1293  141.1123  155.3183 C   0  0  2  0  0  0  0  0  0  0  0  0
  149.1221  141.6254  156.3738 C   0  0  0  0  0  0  0  0  0  0  0  0
  147.7764  141.5656  155.6274 C   0  0  2  0  0  0  0  0  0  0  0  0
  147.3329  140.0962  155.5062 C   0  0  0  0  0  0  0  0  0  0  0  0
  148.3014  139.5385  154.4476 C   0  0  0  0  0  0  0  0  0  0  0  0
  149.2006  140.7516  154.1316 C   0  0  1  0  0  0  0  0  0  0  0  0
  148.1872  141.8904  154.1958 C   0  0  0  0  0  0  0  0  0  0  0  0
  151.3108  138.9158  153.9447 H   0  0  0  0  0  0  0  0  0  0  0  0
  152.6164  138.6391  155.0845 H   0  0  0  0  0  0  0  0  0  0  0  0
  152.5351  140.1582  154.1957 H   0  0  0  0  0  0  0  0  0  0  0  0
  150.4910  139.2101  156.2723 H   0  0  0  0  0  0  0  0  0  0  0  0
  152.9233  140.7445  156.5645 H   0  0  0  0  0  0  0  0  0  0  0  0
  153.0582  140.6731  159.7054 H   0  0  0  0  0  0  0  0  0  0  0  0
  153.6297  141.5946  158.3548 H   0  0  0  0  0  0  0  0  0  0  0  0
  152.8461  141.7647  161.5187 H   0  0  0  0  0  0  0  0  0  0  0  0
  152.2768  143.7572  162.8862 H   0  0  0  0  0  0  0  0  0  0  0  0
  151.4793  145.8397  161.6810 H   0  0  0  0  0  0  0  0  0  0  0  0
  151.2947  145.8558  159.2742 H   0  0  0  0  0  0  0  0  0  0  0  0
  150.7426  141.9582  155.0014 H   0  0  0  0  0  0  0  0  0  0  0  0
  149.1060  141.0189  157.2805 H   0  0  0  0  0  0  0  0  0  0  0  0
  149.3631  142.6480  156.6667 H   0  0  0  0  0  0  0  0  0  0  0  0
  147.0124  142.2190  156.0498 H   0  0  0  0  0  0  0  0  0  0  0  0
  147.4012  139.5628  156.4551 H   0  0  0  0  0  0  0  0  0  0  0  0
  146.3021  140.0264  155.1565 H   0  0  0  0  0  0  0  0  0  0  0  0
  148.8520  138.6651  154.7940 H   0  0  0  0  0  0  0  0  0  0  0  0
  147.7492  139.2362  153.5566 H   0  0  0  0  0  0  0  0  0  0  0  0
  149.7228  140.6696  153.1780 H   0  0  0  0  0  0  0  0  0  0  0  0
  147.3719  141.7879  153.4774 H   0  0  0  0  0  0  0  0  0  0  0  0
  148.6355  142.8797  154.0881 H   0  0  0  0  0  0  0  0  0  0  0  0
  1  2  1  0  0  0  0
  1 21  1  0  0  0  0
  1 22  1  0  0  0  0
  1 23  1  0  0  0  0
  2  3  1  0  0  0  0
  2 14  1  0  0  0  0
  2 24  1  0  0  0  0
  3  4  1  0  0  0  0
  3 25  1  0  0  0  0
  4  5  2  0  0  0  0
  4  6  1  0  0  0  0
  6  7  1  0  0  0  0
  6 26  1  0  0  0  0
  6 27  1  0  0  0  0
  7 12  1  0  0  0  0
  7  8  1  0  0  0  0
  8  9  2  0  0  0  0
  8 28  1  0  0  0  0
  9 10  1  0  0  0  0
  9 29  1  0  0  0  0
 10 11  2  0  0  0  0
 10 30  1  0  0  0  0
 11 12  1  0  0  0  0
 11 31  1  0  0  0  0
 12 13  2  0  0  0  0
 14 19  1  0  0  0  0
 14 15  1  0  0  0  0
 14 32  1  0  0  0  0
 15 16  1  0  0  0  0
 15 33  1  0  0  0  0
 15 34  1  0  0  0  0
 16 20  1  0  0  0  0
 16 17  1  0  0  0  0
 16 35  1  0  0  0  0
 17 18  1  0  0  0  0
 17 36  1  0  0  0  0
 17 37  1  0  0  0  0
 18 19  1  0  0  0  0
 18 38  1  0  0  0  0
 18 39  1  0  0  0  0
 19 20  1  0  0  0  0
 19 40  1  0  0  0  0
 20 41  1  0  0  0  0
 20 42  1  0  0  0  0
M  END
> <s_m_source_file>
AV-unprocessed.smi

> <i_m_source_file_index>
332

> <i_lp_mmshare_version>
43012

> <i_f3d_flags>
0

> <s_epik_input>
W0NIMl0xW0NIMl1bQ0BIXShbQ0gyXTIpW0NAQEhdKFtDSDJdW0NAQEhdMTIpW0NASF0oW0NIM10pW05IXUMoPU8pW0NIMl1uM1tjSF1bY0hdW2NIXVtjSF1jMz1P

> <s_epik_cmdline>
J2VwaWtfcHl0aG9uJywgJy1waCcsICc3LjAnLCAnLXRuJywgJzgnLCAnLW1hJywgJzIwMCcsICctbWV0YWxfYmluZGluZycsICctaW1hZScsICc8aW5maWxlLm1hZT4nLCAnLW9tYWUnLCAnPG91dGZpbGUubWFlPic=

> <r_lp_tautomer_probability>
1

> <r_epik_Ionization_Penalty>
4.05802e-07

> <r_epik_Ionization_Penalty_Charging>
3.84175e-07

> <r_epik_Ionization_Penalty_Neutral>
2.16269e-08

> <r_epik_State_Penalty>
-0

> <r_epik_Charging_Adjusted_Penalty>
3.84175e-07

> <i_epik_Tot_Q>
0

> <i_epik_Tot_abs_Q>
0

> <r_epik_Metal_State_Penalty>
-0

> <b_epik_Metal_Only>
0

> <s_lp_Force_Field>
OPLS_2005

> <r_lp_Energy>
60.6372

> <b_lp_Chiralities_Consistent>
1

> <s_lp_Variant>
AV-unprocessed.smi:332-6

> <Gold.Version>
5.8.1

> <Gold.Id.Protein>
6NUR|6NUR_protein|mol2

> <Gold.PLP.Fitness>
42.7574

> <Gold.PLP.PLP>
-43.4317

> <Gold.PLP.part.hbond>
0.0000

> <Gold.PLP.part.metal>
0.0000

> <Gold.PLP.part.buried>
1.2761

> <Gold.PLP.part.nonpolar>
-43.5324

> <Gold.PLP.part.repulsive>
0.2195

> <Gold.PLP.ligand.clash>
0.0000

> <Gold.PLP.ligand.torsion>
0.3456

> <Gold.PLP.Chemscore.Hbond>
0.0000

> <Gold.PLP.Chemscore.CHOScore>
0.0000

> <Gold.PLP.Chemscore.Metal>
0.0000

> <Gold.PLP.Chemscore.Internal.Correction>
0.0169

> <Gold.Rescore>
     Score         DG    S(hbond)    S(metal)    S(lipo)     H(rot)  DE(clash)    DE(int)     intcor
     10.99     -14.58       0.00        0.00     111.50       1.54       0.40       3.20       ----

> <Gold.Chemscore.Fitness>
10.9860

> <Gold.Chemscore.DG>
-14.5832

> <Gold.Chemscore.ZeroCoef>
-5.4800

> <Gold.Chemscore.Hbond>
0.0000

> <Gold.Chemscore.Metal>
0.0000

> <Gold.Chemscore.Lipo>
111.4968

> <Gold.Chemscore.Internal_Hbond>
0.0000

> <Gold.Chemscore.DEClash>
0.4010

> <Gold.Chemscore.DEInternal>
3.1963

> <Gold.Chemscore.Rot>
1.5398

> <Gold.Chemscore.Internal.Correction>
   9.000000E+99

> <Gold.Chemscore.Hbond.Weighted>
-0.0000

> <Gold.Chemscore.Metal.Weighted>
-0.0000

> <Gold.Chemscore.Lipo.Weighted>
-13.0451

> <Gold.Chemscore.Internal_Hbond.Weighted>
0.0000

> <Gold.Chemscore.DEClash.Weighted>
0.4010

> <Gold.Chemscore.DEInternal.Weighted>
3.1963

> <Gold.Chemscore.Rot.Weighted>
3.9419

> <Gold.Chemscore.Internal.Correction.Weighted>
   9.000000E+99

> <Gold.Protein.RotatedTorsions>
[ 6907 6896 6895 6894 ] final  -44.45 input  -60.11 | X-H torsion
[ 7974 7965 7964 7962 ] final   81.32 input  175.53 | X-H torsion
[ 8008 7997 7996 7995 ] final  144.51 input   59.86 | X-H torsion
[ 10167 10162 10161 10158 ] final   61.01 input  -65.29 | X-H torsion
[ 10718 10713 10712 10709 ] final  -20.33 input   66.30 | X-H torsion
[ 10763 10752 10751 10750 ] final    6.66 input  -60.55 | X-H torsion
[ 11005 11000 10999 10996 ] final -141.14 input  -57.11 | X-H torsion

> <Gold.Protein.ActiveResidues>
 VAL166  LYS551  ARG553  GLY616  TRP617  ASP618  TYR619  PRO620  LYS621  CYS622 
 ASP623  PHE694  ASN695  SER759  ASP760  ASP761  ALA762  ILE779  LEU786  VAL792 
 PHE793  MET794  SER795  GLU796  ALA797  LYS798  CYS799  TRP800  GLU811  SER814 

> <Gold.Protein.RotatedAtoms>
  150.9327  134.8742  159.7561 H   0  0  0  0  0  0  0  0  0  0  0  0  # atno 6907 bound_to 6896
  152.5045  134.4055  159.9441 H   0  0  0  0  0  0  0  0  0  0  0  0  # atno 6908 bound_to 6896
  151.4081  133.3696  159.2775 H   0  0  0  0  0  0  0  0  0  0  0  0  # atno 6909 bound_to 6896
  145.6397  139.2423  143.2038 H   0  0  0  0  0  0  0  0  0  0  0  0  # atno 7974 bound_to 7965
  156.2906  140.2234  156.5064 H   0  0  0  0  0  0  0  0  0  0  0  0  # atno 8008 bound_to 7997
  154.7646  140.0471  157.1023 H   0  0  0  0  0  0  0  0  0  0  0  0  # atno 8009 bound_to 7997
  154.9949  140.3094  155.4894 H   0  0  0  0  0  0  0  0  0  0  0  0  # atno 8010 bound_to 7997
  140.1594  144.4385  150.6717 H   0  0  0  0  0  0  0  0  0  0  0  0  # atno 10167 bound_to 10162
  156.5333  130.4660  149.6536 H   0  0  0  0  0  0  0  0  0  0  0  0  # atno 10718 bound_to 10713
  153.2452  135.6908  153.7739 H   0  0  0  0  0  0  0  0  0  0  0  0  # atno 10763 bound_to 10752
  153.6854  135.3321  155.3189 H   0  0  0  0  0  0  0  0  0  0  0  0  # atno 10764 bound_to 10752
  154.8372  135.4532  154.1389 H   0  0  0  0  0  0  0  0  0  0  0  0  # atno 10765 bound_to 10752
  140.8353  134.2467  157.4837 H   0  0  0  0  0  0  0  0  0  0  0  0  # atno 11005 bound_to 11000
  146.1291  140.7210  142.9421 LP  0  0  0  0  0  0  0  0  0  0  0  0  # atno 17320 bound_to 7965
  144.7162  140.4217  143.7042 LP  0  0  0  0  0  0  0  0  0  0  0  0  # atno 17321 bound_to 7965
  140.6652  143.2265  151.5759 LP  0  0  0  0  0  0  0  0  0  0  0  0  # atno 17342 bound_to 10162
  139.5388  144.2705  152.1308 LP  0  0  0  0  0  0  0  0  0  0  0  0  # atno 17343 bound_to 10162
  156.3040  130.7192  151.2070 LP  0  0  0  0  0  0  0  0  0  0  0  0  # atno 17370 bound_to 10713
  157.7418  131.0499  150.5071 LP  0  0  0  0  0  0  0  0  0  0  0  0  # atno 17371 bound_to 10713
  139.8704  134.9607  156.4374 LP  0  0  0  0  0  0  0  0  0  0  0  0  # atno 17394 bound_to 11000
  140.8954  133.7818  155.9619 LP  0  0  0  0  0  0  0  0  0  0  0  0  # atno 17395 bound_to 11000

$$$$
