AV-unprocessed.smi:2294|AV-procd|sdf|9217|dock4
  -GOLD-   2272012433D 1   1.00000     0.00000
 Structure written by MMmdl.
 34 35  0  0  0  0  0  0  0  0  1 V2000
  152.7839  142.9608  161.5148 C   0  0  0  0  0  0  0  0  0  0  0  0
  152.6623  141.9486  160.3897 C   0  0  0  0  0  0  0  0  0  0  0  0
  151.5070  142.0491  159.6091 N   0  0  0  0  0  0  0  0  0  0  0  0
  151.3152  141.2241  158.6322 C   0  0  0  0  0  0  0  0  0  0  0  0
  152.2456  140.2190  158.3220 N   0  0  0  0  0  0  0  0  0  0  0  0
  151.9029  139.3382  157.1924 C   0  0  0  0  0  0  0  0  0  0  0  0
  151.9206  140.0872  155.8412 C   0  0  1  0  0  0  0  0  0  0  0  0
  152.9003  139.4950  155.0098 O   0  0  0  0  0  0  0  0  0  0  0  0
  150.5442  140.0636  155.1882 C   0  0  0  0  0  0  0  0  0  0  0  0
  149.7845  141.2501  155.0753 C   0  0  0  0  0  0  0  0  0  0  0  0
  148.5150  141.2285  154.4662 C   0  0  0  0  0  0  0  0  0  0  0  0
  147.9972  140.0214  153.9606 C   0  0  0  0  0  0  0  0  0  0  0  0
  148.7516  138.8371  154.0613 C   0  0  0  0  0  0  0  0  0  0  0  0
  150.0216  138.8563  154.6704 C   0  0  0  0  0  0  0  0  0  0  0  0
  150.7352  137.7075  154.7515 F   0  0  0  0  0  0  0  0  0  0  0  0
  153.3986  140.0512  159.0325 C   0  0  0  0  0  0  0  0  0  0  0  0
  154.2053  139.1613  158.7555 O   0  0  0  0  0  0  0  0  0  0  0  0
  153.6019  140.9953  160.1430 C   0  0  0  0  0  0  0  0  0  0  0  0
  154.8770  140.8350  160.9617 C   0  0  0  0  0  0  0  0  0  0  0  0
  153.6884  143.5583  161.3962 H   0  0  0  0  0  0  0  0  0  0  0  0
  152.8229  142.4549  162.4799 H   0  0  0  0  0  0  0  0  0  0  0  0
  151.9328  143.6431  161.5294 H   0  0  0  0  0  0  0  0  0  0  0  0
  150.4270  141.2544  157.9987 H   0  0  0  0  0  0  0  0  0  0  0  0
  152.5368  138.4500  157.1475 H   0  0  0  0  0  0  0  0  0  0  0  0
  150.9007  138.9424  157.3694 H   0  0  0  0  0  0  0  0  0  0  0  0
  152.2145  141.1264  155.9900 H   0  0  0  0  0  0  0  0  0  0  0  0
  152.7546  138.5613  154.9950 H   0  0  0  0  0  0  0  0  0  0  0  0
  150.1731  142.1841  155.4541 H   0  0  0  0  0  0  0  0  0  0  0  0
  147.9391  142.1387  154.3859 H   0  0  0  0  0  0  0  0  0  0  0  0
  147.0236  140.0041  153.4930 H   0  0  0  0  0  0  0  0  0  0  0  0
  148.3562  137.9116  153.6692 H   0  0  0  0  0  0  0  0  0  0  0  0
  154.9134  139.8407  161.4083 H   0  0  0  0  0  0  0  0  0  0  0  0
  154.9630  141.5596  161.7700 H   0  0  0  0  0  0  0  0  0  0  0  0
  155.7521  140.9514  160.3215 H   0  0  0  0  0  0  0  0  0  0  0  0
  1  2  1  0  0  0  0
  1 20  1  0  0  0  0
  1 21  1  0  0  0  0
  1 22  1  0  0  0  0
  2 18  2  0  0  0  0
  2  3  1  0  0  0  0
  3  4  2  0  0  0  0
  4  5  1  0  0  0  0
  4 23  1  0  0  0  0
  5  6  1  0  0  0  0
  5 16  1  0  0  0  0
  6  7  1  0  0  0  0
  6 24  1  0  0  0  0
  6 25  1  0  0  0  0
  7  8  1  0  0  0  0
  7  9  1  0  0  0  0
  7 26  1  0  0  0  0
  8 27  1  0  0  0  0
  9 14  1  0  0  0  0
  9 10  2  0  0  0  0
 10 11  1  0  0  0  0
 10 28  1  0  0  0  0
 11 12  2  0  0  0  0
 11 29  1  0  0  0  0
 12 13  1  0  0  0  0
 12 30  1  0  0  0  0
 13 14  2  0  0  0  0
 13 31  1  0  0  0  0
 14 15  1  0  0  0  0
 16 17  2  0  0  0  0
 16 18  1  0  0  0  0
 18 19  1  0  0  0  0
 19 32  1  0  0  0  0
 19 33  1  0  0  0  0
 19 34  1  0  0  0  0
M  END
> <s_m_source_file>
AV-unprocessed.smi

> <i_m_source_file_index>
2294

> <i_lp_mmshare_version>
43012

> <i_f3d_flags>
0

> <s_epik_input>
W0NIM11jMW5bY0hdbihjKD1PKWMxW0NIM10pW0NIMl1bQ0BIXShbT0hdKWMyW2NIXVtjSF1bY0hdW2NIXWMyRg==

> <s_epik_cmdline>
J2VwaWtfcHl0aG9uJywgJy1waCcsICc3LjAnLCAnLXRuJywgJzgnLCAnLW1hJywgJzIwMCcsICctbWV0YWxfYmluZGluZycsICctaW1hZScsICc8aW5maWxlLm1hZT4nLCAnLW9tYWUnLCAnPG91dGZpbGUubWFlPic=

> <r_lp_tautomer_probability>
1

> <r_epik_Ionization_Penalty>
5.07259e-05

> <r_epik_Ionization_Penalty_Charging>
7.56727e-08

> <r_epik_Ionization_Penalty_Neutral>
5.06502e-05

> <r_epik_State_Penalty>
-0

> <r_epik_Charging_Adjusted_Penalty>
7.56727e-08

> <i_epik_Tot_Q>
0

> <i_epik_Tot_abs_Q>
0

> <r_epik_Metal_State_Penalty>
-0

> <b_epik_Metal_Only>
0

> <s_lp_Force_Field>
OPLS_2005

> <r_lp_Energy>
19.7062

> <b_lp_Chiralities_Consistent>
1

> <s_lp_Variant>
AV-unprocessed.smi:2294-2

> <Gold.Version>
5.8.1

> <Gold.Id.Protein>
6NUR|6NUR_protein|mol2

> <Gold.PLP.Fitness>
47.5965

> <Gold.PLP.PLP>
-43.4731

> <Gold.PLP.part.hbond>
-3.6182

> <Gold.PLP.part.metal>
0.0000

> <Gold.PLP.part.buried>
-2.4493

> <Gold.PLP.part.nonpolar>
-36.8351

> <Gold.PLP.part.repulsive>
0.0000

> <Gold.PLP.ligand.clash>
0.0000

> <Gold.PLP.ligand.torsion>
0.9529

> <Gold.PLP.Chemscore.Hbond>
2.0073

> <Gold.PLP.Chemscore.CHOScore>
0.0000

> <Gold.PLP.Chemscore.Metal>
0.0000

> <Gold.Chemscore.Hbonds>
donor molecule, donor type, donor heavy atom, donor atom, acceptor molecule, acceptor atom, score
      P1  H  7997  8009       L1    17  1.00
      P1  H  7997  8010       L1     8  1.00

> <Gold.PLP.Chemscore.Internal.Correction>
0.0074

> <Gold.Rescore>
     Score         DG    S(hbond)    S(metal)    S(lipo)     H(rot)  DE(clash)    DE(int)     intcor
     13.49     -15.72       1.61        0.00      85.62       2.02       0.05       2.17       ----

> <Gold.Chemscore.Fitness>
13.4949

> <Gold.Chemscore.DG>
-15.7154

> <Gold.Chemscore.ZeroCoef>
-5.4800

> <Gold.Chemscore.Hbond>
1.6120

> <Gold.Chemscore.Metal>
0.0000

> <Gold.Chemscore.Lipo>
85.6211

> <Gold.Chemscore.Internal_Hbond>
0.0000

> <Gold.Chemscore.DEClash>
0.0515

> <Gold.Chemscore.DEInternal>
2.1690

> <Gold.Chemscore.Rot>
2.0181

> <Gold.Chemscore.Internal.Correction>
   9.000000E+99

> <Gold.Chemscore.Hbonds>
donor molecule, donor type, donor heavy atom, donor atom, acceptor molecule, acceptor atom, score
      P1  H  7997  8009       L1    17  0.25
      P1  H  7997  8010       L1     8  0.33

> <Gold.Chemscore.Hbond.Weighted>
-5.3841

> <Gold.Chemscore.Metal.Weighted>
-0.0000

> <Gold.Chemscore.Lipo.Weighted>
-10.0177

> <Gold.Chemscore.Internal_Hbond.Weighted>
0.0000

> <Gold.Chemscore.DEClash.Weighted>
0.0515

> <Gold.Chemscore.DEInternal.Weighted>
2.1690

> <Gold.Chemscore.Rot.Weighted>
5.1663

> <Gold.Chemscore.Internal.Correction.Weighted>
   9.000000E+99

> <Gold.Protein.RotatedTorsions>
[ 6907 6896 6895 6894 ] final   49.64 input  -60.11 | X-H torsion
[ 7974 7965 7964 7962 ] final   -8.76 input  175.53 | X-H torsion
[ 8008 7997 7996 7995 ] final  115.91 input   59.86 | X-H torsion
[ 10167 10162 10161 10158 ] final  -75.00 input  -65.29 | X-H torsion
[ 10718 10713 10712 10709 ] final  153.41 input   66.30 | X-H torsion
[ 10763 10752 10751 10750 ] final   53.64 input  -60.55 | X-H torsion
[ 11005 11000 10999 10996 ] final  -35.51 input  -57.11 | X-H torsion

> <Gold.Protein.ActiveResidues>
 VAL166  LYS551  ARG553  GLY616  TRP617  ASP618  TYR619  PRO620  LYS621  CYS622 
 ASP623  PHE694  ASN695  SER759  ASP760  ASP761  ALA762  ILE779  LEU786  VAL792 
 PHE793  MET794  SER795  GLU796  ALA797  LYS798  CYS799  TRP800  GLU811  SER814 

> <Gold.Protein.RotatedAtoms>
  152.2930  134.7699  160.0373 H   0  0  0  0  0  0  0  0  0  0  0  0  # atno 6907 bound_to 6896
  151.8239  133.3393  159.3600 H   0  0  0  0  0  0  0  0  0  0  0  0  # atno 6908 bound_to 6896
  150.7239  134.5477  159.5823 H   0  0  0  0  0  0  0  0  0  0  0  0  # atno 6909 bound_to 6896
  146.2271  140.2515  142.8347 H   0  0  0  0  0  0  0  0  0  0  0  0  # atno 7974 bound_to 7965
  156.2409  140.2928  156.0442 H   0  0  0  0  0  0  0  0  0  0  0  0  # atno 8008 bound_to 7997
  155.1954  140.0408  157.2925 H   0  0  0  0  0  0  0  0  0  0  0  0  # atno 8009 bound_to 7997
  154.6166  140.2465  155.7608 H   0  0  0  0  0  0  0  0  0  0  0  0  # atno 8010 bound_to 7997
  140.4979  143.2367  151.7800 H   0  0  0  0  0  0  0  0  0  0  0  0  # atno 10167 bound_to 10162
  157.2451  131.0767  151.1767 H   0  0  0  0  0  0  0  0  0  0  0  0  # atno 10718 bound_to 10713
  152.9797  135.5772  154.4774 H   0  0  0  0  0  0  0  0  0  0  0  0  # atno 10763 bound_to 10752
  154.4328  135.2774  155.1903 H   0  0  0  0  0  0  0  0  0  0  0  0  # atno 10764 bound_to 10752
  154.3604  135.6190  153.5741 H   0  0  0  0  0  0  0  0  0  0  0  0  # atno 10765 bound_to 10752
  140.9802  133.7061  156.1670 H   0  0  0  0  0  0  0  0  0  0  0  0  # atno 11005 bound_to 11000
  144.9408  140.8076  143.5632 LP  0  0  0  0  0  0  0  0  0  0  0  0  # atno 17320 bound_to 7965
  145.2467  139.2049  143.4964 LP  0  0  0  0  0  0  0  0  0  0  0  0  # atno 17321 bound_to 7965
  139.4865  144.4561  151.9596 LP  0  0  0  0  0  0  0  0  0  0  0  0  # atno 17342 bound_to 10162
  140.3650  144.2926  150.5928 LP  0  0  0  0  0  0  0  0  0  0  0  0  # atno 17343 bound_to 10162
  157.3337  130.6998  149.6340 LP  0  0  0  0  0  0  0  0  0  0  0  0  # atno 17370 bound_to 10713
  155.9668  130.4300  150.4857 LP  0  0  0  0  0  0  0  0  0  0  0  0  # atno 17371 bound_to 10713
  140.7198  134.4370  157.5575 LP  0  0  0  0  0  0  0  0  0  0  0  0  # atno 17394 bound_to 11000
  139.8947  134.8701  156.2166 LP  0  0  0  0  0  0  0  0  0  0  0  0  # atno 17395 bound_to 11000

$$$$
