AV-unprocessed.smi:2078|AV-procd|sdf|8472|dock2
  -GOLD-   2272011173D 1   1.00000     0.00000
 Structure written by MMmdl.
 41 42  0  0  0  0  0  0  0  0  3 V2000
  154.8931  135.5460  164.6521 C   0  0  0  0  0  0  0  0  0  0  0  0
  154.7416  136.1905  163.3165 C   0  0  0  0  0  0  0  0  0  0  0  0
  154.5095  137.4803  162.9299 C   0  0  0  0  0  0  0  0  0  0  0  0
  154.4765  137.3903  161.5127 C   0  0  0  0  0  0  0  0  0  0  0  0
  154.2501  138.5464  160.7203 N   0  0  0  0  0  0  0  0  0  0  0  0
  154.0946  138.6384  159.3872 C   0  0  0  0  0  0  0  0  0  0  0  0
  154.1662  137.6280  158.6773 O   0  0  0  0  0  0  0  0  0  0  0  0
  153.8719  139.9194  158.9821 N   0  5  0  0  0  0  0  0  0  0  0  0
  154.4001  141.1091  159.6471 C   0  0  0  0  0  0  0  0  0  0  0  0
  153.3189  141.7465  160.5427 C   0  0  0  0  0  0  0  0  0  0  0  0
  152.7504  142.9713  159.9216 N   0  3  2  0  0  0  0  0  0  0  0  0
  152.1892  143.9324  160.9107 C   0  0  0  0  0  0  0  0  0  0  0  0
  151.7873  145.2502  160.2304 C   0  0  0  0  0  0  0  0  0  0  0  0
  150.7981  144.9973  159.0837 C   0  0  0  0  0  0  0  0  0  0  0  0
  151.3448  143.9534  158.0918 C   0  0  1  0  0  0  0  0  0  0  0  0
  152.4666  144.5115  157.1982 C   0  0  0  0  0  0  0  0  0  0  0  0
  151.7786  142.6734  158.8360 C   0  0  0  0  0  0  0  0  0  0  0  0
  154.6734  136.1556  161.0742 N   0  0  0  0  0  0  0  0  0  0  0  0
  154.8432  135.3805  162.2276 O   0  0  0  0  0  0  0  0  0  0  0  0
  155.3607  136.2293  165.3611 H   0  0  0  0  0  0  0  0  0  0  0  0
  155.5132  134.6518  164.5870 H   0  0  0  0  0  0  0  0  0  0  0  0
  153.9213  135.2564  165.0521 H   0  0  0  0  0  0  0  0  0  0  0  0
  154.3821  138.3476  163.5606 H   0  0  0  0  0  0  0  0  0  0  0  0
  154.1839  139.4158  161.2285 H   0  0  0  0  0  0  0  0  0  0  0  0
  155.2819  140.8869  160.2495 H   0  0  0  0  0  0  0  0  0  0  0  0
  154.7297  141.8501  158.9184 H   0  0  0  0  0  0  0  0  0  0  0  0
  152.5311  141.0082  160.7010 H   0  0  0  0  0  0  0  0  0  0  0  0
  153.7137  141.9786  161.5334 H   0  0  0  0  0  0  0  0  0  0  0  0
  151.3250  143.4850  161.4042 H   0  0  0  0  0  0  0  0  0  0  0  0
  152.9231  144.1413  161.6902 H   0  0  0  0  0  0  0  0  0  0  0  0
  151.3412  145.9240  160.9623 H   0  0  0  0  0  0  0  0  0  0  0  0
  152.6765  145.7557  159.8527 H   0  0  0  0  0  0  0  0  0  0  0  0
  149.8569  144.6364  159.5005 H   0  0  0  0  0  0  0  0  0  0  0  0
  150.5657  145.9308  158.5700 H   0  0  0  0  0  0  0  0  0  0  0  0
  150.5271  143.6816  157.4232 H   0  0  0  0  0  0  0  0  0  0  0  0
  153.3510  144.7823  157.7752 H   0  0  0  0  0  0  0  0  0  0  0  0
  152.1352  145.4010  156.6620 H   0  0  0  0  0  0  0  0  0  0  0  0
  152.7741  143.7765  156.4538 H   0  0  0  0  0  0  0  0  0  0  0  0
  152.2185  141.9727  158.1244 H   0  0  0  0  0  0  0  0  0  0  0  0
  150.9070  142.1769  159.2657 H   0  0  0  0  0  0  0  0  0  0  0  0
  153.5303  143.4323  159.4751 H   0  0  0  0  0  0  0  0  0  0  0  0
  1  2  1  0  0  0  0
  1 20  1  0  0  0  0
  1 21  1  0  0  0  0
  1 22  1  0  0  0  0
  2 19  1  0  0  0  0
  2  3  2  0  0  0  0
  3  4  1  0  0  0  0
  3 23  1  0  0  0  0
  4  5  1  0  0  0  0
  4 18  2  0  0  0  0
  5  6  1  0  0  0  0
  5 24  1  0  0  0  0
  6  7  2  0  0  0  0
  6  8  1  0  0  0  0
  8  9  1  0  0  0  0
  9 10  1  0  0  0  0
  9 25  1  0  0  0  0
  9 26  1  0  0  0  0
 10 11  1  0  0  0  0
 10 27  1  0  0  0  0
 10 28  1  0  0  0  0
 11 17  1  0  0  0  0
 11 12  1  0  0  0  0
 11 41  1  0  0  0  0
 12 13  1  0  0  0  0
 12 29  1  0  0  0  0
 12 30  1  0  0  0  0
 13 14  1  0  0  0  0
 13 31  1  0  0  0  0
 13 32  1  0  0  0  0
 14 15  1  0  0  0  0
 14 33  1  0  0  0  0
 14 34  1  0  0  0  0
 15 16  1  0  0  0  0
 15 17  1  0  0  0  0
 15 35  1  0  0  0  0
 16 36  1  0  0  0  0
 16 37  1  0  0  0  0
 16 38  1  0  0  0  0
 17 39  1  0  0  0  0
 17 40  1  0  0  0  0
 18 19  1  0  0  0  0
M  CHG  1   8  -1
M  CHG  1  11   1
M  END
> <s_m_source_file>
AV-unprocessed.smi

> <i_m_source_file_index>
2078

> <i_lp_mmshare_version>
43012

> <i_f3d_flags>
0

> <s_epik_input>
W0NIM11jMVtjSF1jKG5vMSlbTkhdQyg9TylbTkhdW0NIMl1bQ0gyXU4yW0NIMl1bQ0gyXVtDSDJdW0NAQEhdKFtDSDNdKVtDSDJdMg==

> <s_epik_cmdline>
J2VwaWtfcHl0aG9uJywgJy1waCcsICc3LjAnLCAnLXRuJywgJzgnLCAnLW1hJywgJzIwMCcsICctbWV0YWxfYmluZGluZycsICctaW1hZScsICc8aW5maWxlLm1hZT4nLCAnLW9tYWUnLCAnPG91dGZpbGUubWFlPic=

> <r_epik_Ionization_Penalty>
6.76934

> <r_epik_Ionization_Penalty_Charging>
6.76934

> <r_epik_Ionization_Penalty_Neutral>
5.77849e-06

> <r_epik_State_Penalty>
6.79457

> <r_epik_Charging_Adjusted_Penalty>
13.5639

> <i_epik_Tot_Q>
0

> <i_epik_Tot_abs_Q>
2

> <r_epik_Metal_State_Penalty>
2.72837

> <b_epik_Metal_Only>
1

> <s_lp_Force_Field>
OPLS_2005

> <r_lp_Energy>
14.163

> <b_lp_Chiralities_Consistent>
1

> <s_lp_Variant>
AV-unprocessed.smi:2078-10

> <Gold.Version>
5.8.1

> <Gold.Id.Protein>
6NUR|6NUR_protein|mol2

> <Gold.PLP.Fitness>
46.4007

> <Gold.PLP.PLP>
-42.1193

> <Gold.PLP.part.hbond>
-1.0000

> <Gold.PLP.part.metal>
0.0000

> <Gold.PLP.part.buried>
-5.0113

> <Gold.PLP.part.nonpolar>
-36.0529

> <Gold.PLP.part.repulsive>
0.0370

> <Gold.PLP.ligand.clash>
0.0000

> <Gold.PLP.ligand.torsion>
0.8733

> <Gold.PLP.Chemscore.Hbond>
2.0000

> <Gold.PLP.Chemscore.CHOScore>
0.0000

> <Gold.PLP.Chemscore.Metal>
0.0000

> <Gold.Chemscore.Hbonds>
donor molecule, donor type, donor heavy atom, donor atom, acceptor molecule, acceptor atom, score
      P1  H  7997  8008       L1     8  1.90

> <Gold.PLP.Chemscore.Internal.Correction>
0.0281

> <Gold.Rescore>
     Score         DG    S(hbond)    S(metal)    S(lipo)     H(rot)  DE(clash)    DE(int)     intcor
     14.09     -16.67       0.24        0.00     122.48       1.54       0.23       2.35       ----

> <Gold.Chemscore.Fitness>
14.0884

> <Gold.Chemscore.DG>
-16.6687

> <Gold.Chemscore.ZeroCoef>
-5.4800

> <Gold.Chemscore.Hbond>
0.2403

> <Gold.Chemscore.Metal>
0.0000

> <Gold.Chemscore.Lipo>
122.4842

> <Gold.Chemscore.Internal_Hbond>
0.0000

> <Gold.Chemscore.DEClash>
0.2291

> <Gold.Chemscore.DEInternal>
2.3512

> <Gold.Chemscore.Rot>
1.5409

> <Gold.Chemscore.Internal.Correction>
   9.000000E+99

> <Gold.Chemscore.Hbonds>
donor molecule, donor type, donor heavy atom, donor atom, acceptor molecule, acceptor atom, score
      P1  H  7997  8008       L1     8  0.08

> <Gold.Chemscore.Hbond.Weighted>
-0.8027

> <Gold.Chemscore.Metal.Weighted>
-0.0000

> <Gold.Chemscore.Lipo.Weighted>
-14.3306

> <Gold.Chemscore.Internal_Hbond.Weighted>
0.0000

> <Gold.Chemscore.DEClash.Weighted>
0.2291

> <Gold.Chemscore.DEInternal.Weighted>
2.3512

> <Gold.Chemscore.Rot.Weighted>
3.9446

> <Gold.Chemscore.Internal.Correction.Weighted>
   9.000000E+99

> <Gold.Protein.RotatedTorsions>
[ 6907 6896 6895 6894 ] final  -55.77 input  -60.11 | X-H torsion
[ 7974 7965 7964 7962 ] final -126.86 input  175.53 | X-H torsion
[ 8008 7997 7996 7995 ] final -108.34 input   59.86 | X-H torsion
[ 10167 10162 10161 10158 ] final  115.76 input  -65.29 | X-H torsion
[ 10718 10713 10712 10709 ] final  114.82 input   66.30 | X-H torsion
[ 10763 10752 10751 10750 ] final  -90.10 input  -60.55 | X-H torsion
[ 11005 11000 10999 10996 ] final  -77.40 input  -57.11 | X-H torsion

> <Gold.Protein.ActiveResidues>
 VAL166  LYS551  ARG553  GLY616  TRP617  ASP618  TYR619  PRO620  LYS621  CYS622 
 ASP623  PHE694  ASN695  SER759  ASP760  ASP761  ALA762  ILE779  LEU786  VAL792 
 PHE793  MET794  SER795  GLU796  ALA797  LYS798  CYS799  TRP800  GLU811  SER814 

> <Gold.Protein.RotatedAtoms>
  150.8223  134.7437  159.6782 H   0  0  0  0  0  0  0  0  0  0  0  0  # atno 6907 bound_to 6896
  152.4338  134.5723  159.9934 H   0  0  0  0  0  0  0  0  0  0  0  0  # atno 6908 bound_to 6896
  151.5904  133.3330  159.3062 H   0  0  0  0  0  0  0  0  0  0  0  0  # atno 6909 bound_to 6896
  144.9829  140.7658  143.4601 H   0  0  0  0  0  0  0  0  0  0  0  0  # atno 7974 bound_to 7965
  154.9429  140.0402  157.2106 H   0  0  0  0  0  0  0  0  0  0  0  0  # atno 8008 bound_to 7997
  154.8052  140.2858  155.5871 H   0  0  0  0  0  0  0  0  0  0  0  0  # atno 8009 bound_to 7997
  156.2966  140.2547  156.2928 H   0  0  0  0  0  0  0  0  0  0  0  0  # atno 8010 bound_to 7997
  139.6294  144.7113  151.2463 H   0  0  0  0  0  0  0  0  0  0  0  0  # atno 10167 bound_to 10162
  157.6258  131.1004  150.7241 H   0  0  0  0  0  0  0  0  0  0  0  0  # atno 10718 bound_to 10713
  154.6622  135.5317  153.8033 H   0  0  0  0  0  0  0  0  0  0  0  0  # atno 10763 bound_to 10752
  153.0449  135.6508  154.0854 H   0  0  0  0  0  0  0  0  0  0  0  0  # atno 10764 bound_to 10752
  154.0761  135.2950  155.3279 H   0  0  0  0  0  0  0  0  0  0  0  0  # atno 10765 bound_to 10752
  141.1660  133.7021  156.7815 H   0  0  0  0  0  0  0  0  0  0  0  0  # atno 11005 bound_to 11000
  145.2395  139.2079  143.5000 LP  0  0  0  0  0  0  0  0  0  0  0  0  # atno 17320 bound_to 7965
  146.3412  140.2288  142.8593 LP  0  0  0  0  0  0  0  0  0  0  0  0  # atno 17321 bound_to 7965
  140.7430  143.6507  150.8251 LP  0  0  0  0  0  0  0  0  0  0  0  0  # atno 17342 bound_to 10162
  140.0130  143.5622  152.2831 LP  0  0  0  0  0  0  0  0  0  0  0  0  # atno 17343 bound_to 10162
  156.7590  130.4792  149.5441 LP  0  0  0  0  0  0  0  0  0  0  0  0  # atno 17370 bound_to 10713
  156.1430  130.6258  151.0493 LP  0  0  0  0  0  0  0  0  0  0  0  0  # atno 17371 bound_to 10713
  140.2391  134.8627  157.3555 LP  0  0  0  0  0  0  0  0  0  0  0  0  # atno 17394 bound_to 11000
  140.1814  134.4485  155.7770 LP  0  0  0  0  0  0  0  0  0  0  0  0  # atno 17395 bound_to 11000

$$$$
