AV-unprocessed.smi:2413|AV-procd|sdf|9534|dock1
  -GOLD-   2272013163D 1   1.00000     0.00000
 Structure written by MMmdl.
 45 46  0  0  0  0  0  0  0  0  1 V2000
  146.7518  138.7873  151.7008 C   0  0  0  0  0  0  0  0  0  0  0  0
  147.0113  139.3475  153.0961 C   0  0  0  0  0  0  0  0  0  0  0  0
  146.2208  139.1068  154.0076 O   0  0  0  0  0  0  0  0  0  0  0  0
  148.1172  140.0921  153.2488 N   0  0  0  0  0  0  0  0  0  0  0  0
  148.5395  140.7313  154.4911 C   0  0  0  0  0  0  0  0  0  0  0  0
  149.6570  139.9363  155.1875 C   0  0  2  0  0  0  0  0  0  0  0  0
  150.3155  140.7484  156.3204 C   0  0  0  0  0  0  0  0  0  0  0  0
  151.4143  139.9906  156.9059 N   0  0  0  0  0  0  0  0  0  0  0  0
  152.0006  140.6000  158.0224 C   0  0  0  0  0  0  0  0  0  0  0  0
  152.9390  139.9333  158.8411 C   0  0  0  0  0  0  0  0  0  0  0  0
  153.4472  140.6659  159.9304 C   0  0  0  0  0  0  0  0  0  0  0  0
  153.0547  141.9330  160.1795 N   0  0  0  0  0  0  0  0  0  0  0  0
  152.1301  142.4669  159.3699 C   0  0  0  0  0  0  0  0  0  0  0  0
  151.7989  143.9564  159.5652 C   0  0  0  0  0  0  0  0  0  0  0  0
  152.5046  144.8275  158.4992 C   0  0  0  0  0  0  0  0  0  0  0  0
  152.2449  144.3997  160.9706 C   0  0  0  0  0  0  0  0  0  0  0  0
  150.2836  144.2167  159.3959 C   0  0  0  0  0  0  0  0  0  0  0  0
  151.6157  141.8664  158.2881 N   0  0  0  0  0  0  0  0  0  0  0  0
  152.3947  139.5667  155.9162 C   0  0  0  0  0  0  0  0  0  0  0  0
  151.6969  138.7994  154.7816 C   0  0  0  0  0  0  0  0  0  0  0  0
  150.6618  139.6068  154.2289 O   0  0  0  0  0  0  0  0  0  0  0  0
  147.5524  139.0469  151.0071 H   0  0  0  0  0  0  0  0  0  0  0  0
  145.8161  139.1834  151.3057 H   0  0  0  0  0  0  0  0  0  0  0  0
  146.6741  137.7006  151.7400 H   0  0  0  0  0  0  0  0  0  0  0  0
  148.7055  140.2350  152.4408 H   0  0  0  0  0  0  0  0  0  0  0  0
  148.8508  141.7626  154.3167 H   0  0  0  0  0  0  0  0  0  0  0  0
  147.6672  140.7807  155.1433 H   0  0  0  0  0  0  0  0  0  0  0  0
  149.2339  139.0176  155.5990 H   0  0  0  0  0  0  0  0  0  0  0  0
  150.6840  141.6975  155.9291 H   0  0  0  0  0  0  0  0  0  0  0  0
  149.5807  140.9803  157.0925 H   0  0  0  0  0  0  0  0  0  0  0  0
  153.2558  138.9189  158.6492 H   0  0  0  0  0  0  0  0  0  0  0  0
  154.1751  140.2355  160.6022 H   0  0  0  0  0  0  0  0  0  0  0  0
  152.2327  145.8787  158.6016 H   0  0  0  0  0  0  0  0  0  0  0  0
  152.2344  144.5161  157.4894 H   0  0  0  0  0  0  0  0  0  0  0  0
  153.5908  144.7750  158.5821 H   0  0  0  0  0  0  0  0  0  0  0  0
  153.3172  144.2569  161.1089 H   0  0  0  0  0  0  0  0  0  0  0  0
  151.7349  143.8273  161.7464 H   0  0  0  0  0  0  0  0  0  0  0  0
  152.0282  145.4543  161.1435 H   0  0  0  0  0  0  0  0  0  0  0  0
  150.0507  145.2783  159.4857 H   0  0  0  0  0  0  0  0  0  0  0  0
  149.6929  143.7009  160.1538 H   0  0  0  0  0  0  0  0  0  0  0  0
  149.9303  143.8854  158.4187 H   0  0  0  0  0  0  0  0  0  0  0  0
  152.9100  140.4392  155.5120 H   0  0  0  0  0  0  0  0  0  0  0  0
  153.1484  138.9347  156.3875 H   0  0  0  0  0  0  0  0  0  0  0  0
  152.4129  138.5530  153.9975 H   0  0  0  0  0  0  0  0  0  0  0  0
  151.2839  137.8567  155.1444 H   0  0  0  0  0  0  0  0  0  0  0  0
  1  2  1  0  0  0  0
  1 22  1  0  0  0  0
  1 23  1  0  0  0  0
  1 24  1  0  0  0  0
  2  3  2  0  0  0  0
  2  4  1  0  0  0  0
  4  5  1  0  0  0  0
  4 25  1  0  0  0  0
  5  6  1  0  0  0  0
  5 26  1  0  0  0  0
  5 27  1  0  0  0  0
  6 21  1  0  0  0  0
  6  7  1  0  0  0  0
  6 28  1  0  0  0  0
  7  8  1  0  0  0  0
  7 29  1  0  0  0  0
  7 30  1  0  0  0  0
  8  9  1  0  0  0  0
  8 19  1  0  0  0  0
  9 18  1  0  0  0  0
  9 10  2  0  0  0  0
 10 11  1  0  0  0  0
 10 31  1  0  0  0  0
 11 12  2  0  0  0  0
 11 32  1  0  0  0  0
 12 13  1  0  0  0  0
 13 14  1  0  0  0  0
 13 18  2  0  0  0  0
 14 15  1  0  0  0  0
 14 16  1  0  0  0  0
 14 17  1  0  0  0  0
 15 33  1  0  0  0  0
 15 34  1  0  0  0  0
 15 35  1  0  0  0  0
 16 36  1  0  0  0  0
 16 37  1  0  0  0  0
 16 38  1  0  0  0  0
 17 39  1  0  0  0  0
 17 40  1  0  0  0  0
 17 41  1  0  0  0  0
 19 20  1  0  0  0  0
 19 42  1  0  0  0  0
 19 43  1  0  0  0  0
 20 21  1  0  0  0  0
 20 44  1  0  0  0  0
 20 45  1  0  0  0  0
M  END
> <s_m_source_file>
AV-unprocessed.smi

> <i_m_source_file_index>
2413

> <i_lp_mmshare_version>
43012

> <i_f3d_flags>
0

> <s_epik_input>
W0NIM11DKD1PKVtOSF1bQ0gyXVtDQEBIXTFbQ0gyXU4oW0NIMl1bQ0gyXU8xKWMyW2NIXVtjSF1uYyhuMilDKFtDSDNdKShbQ0gzXSlbQ0gzXQ==

> <s_epik_cmdline>
J2VwaWtfcHl0aG9uJywgJy1waCcsICc3LjAnLCAnLXRuJywgJzgnLCAnLW1hJywgJzIwMCcsICctbWV0YWxfYmluZGluZycsICctaW1hZScsICc8aW5maWxlLm1hZT4nLCAnLW9tYWUnLCAnPG91dGZpbGUubWFlPic=

> <r_lp_tautomer_probability>
1

> <r_epik_Ionization_Penalty>
0.0132021

> <r_epik_Ionization_Penalty_Charging>
0

> <r_epik_Ionization_Penalty_Neutral>
0.0132021

> <r_epik_State_Penalty>
0.0102452

> <r_epik_Charging_Adjusted_Penalty>
0.0102452

> <i_epik_Tot_Q>
0

> <i_epik_Tot_abs_Q>
0

> <r_epik_Metal_State_Penalty>
0.0100219

> <b_epik_Metal_Only>
0

> <s_lp_Force_Field>
OPLS_2005

> <r_lp_Energy>
13.0347

> <b_lp_Chiralities_Consistent>
1

> <s_lp_Variant>
AV-unprocessed.smi:2413-1

> <Gold.Version>
5.8.1

> <Gold.Id.Protein>
6NUR|6NUR_protein|mol2

> <Gold.PLP.Fitness>
49.4395

> <Gold.PLP.PLP>
-44.8979

> <Gold.PLP.part.hbond>
-2.0000

> <Gold.PLP.part.metal>
0.0000

> <Gold.PLP.part.buried>
-4.9401

> <Gold.PLP.part.nonpolar>
-38.7340

> <Gold.PLP.part.repulsive>
0.4246

> <Gold.PLP.ligand.clash>
0.0000

> <Gold.PLP.ligand.torsion>
0.8622

> <Gold.PLP.Chemscore.Hbond>
2.0000

> <Gold.PLP.Chemscore.CHOScore>
0.0000

> <Gold.PLP.Chemscore.Metal>
0.0000

> <Gold.Chemscore.Hbonds>
donor molecule, donor type, donor heavy atom, donor atom, acceptor molecule, acceptor atom, score
      L1  H     4    25       P1  7957  1.00
      P1  H  7989  7998       L1    21  1.00

> <Gold.PLP.Chemscore.Internal.Correction>
0.2660

> <Gold.Rescore>
     Score         DG    S(hbond)    S(metal)    S(lipo)     H(rot)  DE(clash)    DE(int)     intcor
     17.30     -18.57       1.60        0.00     104.17       1.73       0.23       1.04       ----

> <Gold.Chemscore.Fitness>
17.3007

> <Gold.Chemscore.DG>
-18.5690

> <Gold.Chemscore.ZeroCoef>
-5.4800

> <Gold.Chemscore.Hbond>
1.5984

> <Gold.Chemscore.Metal>
0.0000

> <Gold.Chemscore.Lipo>
104.1658

> <Gold.Chemscore.Internal_Hbond>
0.0000

> <Gold.Chemscore.DEClash>
0.2270

> <Gold.Chemscore.DEInternal>
1.0413

> <Gold.Chemscore.Rot>
1.7332

> <Gold.Chemscore.Internal.Correction>
   9.000000E+99

> <Gold.Chemscore.Hbonds>
donor molecule, donor type, donor heavy atom, donor atom, acceptor molecule, acceptor atom, score
      L1  H     4    25       P1  7957  0.97
      P1  H  7989  7998       L1    21  0.25

> <Gold.Chemscore.Hbond.Weighted>
-5.3387

> <Gold.Chemscore.Metal.Weighted>
-0.0000

> <Gold.Chemscore.Lipo.Weighted>
-12.1874

> <Gold.Chemscore.Internal_Hbond.Weighted>
0.0000

> <Gold.Chemscore.DEClash.Weighted>
0.2270

> <Gold.Chemscore.DEInternal.Weighted>
1.0413

> <Gold.Chemscore.Rot.Weighted>
4.4370

> <Gold.Chemscore.Internal.Correction.Weighted>
   9.000000E+99

> <Gold.Protein.RotatedTorsions>
[ 6907 6896 6895 6894 ] final   75.22 input  -60.11 | X-H torsion
[ 7974 7965 7964 7962 ] final  -53.11 input  175.53 | X-H torsion
[ 8008 7997 7996 7995 ] final  122.16 input   59.86 | X-H torsion
[ 10167 10162 10161 10158 ] final  -73.04 input  -65.29 | X-H torsion
[ 10718 10713 10712 10709 ] final   59.81 input   66.30 | X-H torsion
[ 10763 10752 10751 10750 ] final -129.75 input  -60.55 | X-H torsion
[ 11005 11000 10999 10996 ] final   79.09 input  -57.11 | X-H torsion

> <Gold.Protein.ActiveResidues>
 VAL166  LYS551  ARG553  GLY616  TRP617  ASP618  TYR619  PRO620  LYS621  CYS622 
 ASP623  PHE694  ASN695  SER759  ASP760  ASP761  ALA762  ILE779  LEU786  VAL792 
 PHE793  MET794  SER795  GLU796  ALA797  LYS798  CYS799  TRP800  GLU811  SER814 

> <Gold.Protein.RotatedAtoms>
  152.5015  134.4153  159.9462 H   0  0  0  0  0  0  0  0  0  0  0  0  # atno 6907 bound_to 6896
  151.4123  133.3717  159.2753 H   0  0  0  0  0  0  0  0  0  0  0  0  # atno 6908 bound_to 6896
  150.9282  134.8720  159.7593 H   0  0  0  0  0  0  0  0  0  0  0  0  # atno 6909 bound_to 6896
  145.9005  140.7998  142.9746 H   0  0  0  0  0  0  0  0  0  0  0  0  # atno 7974 bound_to 7965
  156.2716  140.2792  156.1423 H   0  0  0  0  0  0  0  0  0  0  0  0  # atno 8008 bound_to 7997
  155.0941  140.0389  157.2695 H   0  0  0  0  0  0  0  0  0  0  0  0  # atno 8009 bound_to 7997
  154.6866  140.2620  155.6860 H   0  0  0  0  0  0  0  0  0  0  0  0  # atno 8010 bound_to 7997
  140.5143  143.2340  151.7540 H   0  0  0  0  0  0  0  0  0  0  0  0  # atno 10167 bound_to 10162
  157.5705  130.8904  149.9259 H   0  0  0  0  0  0  0  0  0  0  0  0  # atno 10718 bound_to 10713
  154.8757  135.3885  154.3971 H   0  0  0  0  0  0  0  0  0  0  0  0  # atno 10763 bound_to 10752
  153.4700  135.7030  153.6004 H   0  0  0  0  0  0  0  0  0  0  0  0  # atno 10764 bound_to 10752
  153.4466  135.3843  155.2227 H   0  0  0  0  0  0  0  0  0  0  0  0  # atno 10765 bound_to 10752
  139.9186  134.7815  156.1734 H   0  0  0  0  0  0  0  0  0  0  0  0  # atno 11005 bound_to 11000
  144.6735  140.1669  143.7417 LP  0  0  0  0  0  0  0  0  0  0  0  0  # atno 17320 bound_to 7965
  145.8797  139.2316  143.1612 LP  0  0  0  0  0  0  0  0  0  0  0  0  # atno 17321 bound_to 7965
  139.4905  144.4346  151.9834 LP  0  0  0  0  0  0  0  0  0  0  0  0  # atno 17342 bound_to 10162
  140.3440  144.3169  150.5962 LP  0  0  0  0  0  0  0  0  0  0  0  0  # atno 17343 bound_to 10162
  156.0751  130.3680  150.0695 LP  0  0  0  0  0  0  0  0  0  0  0  0  # atno 17370 bound_to 10713
  156.8849  130.9569  151.3595 LP  0  0  0  0  0  0  0  0  0  0  0  0  # atno 17371 bound_to 10713
  141.0687  133.6807  156.2096 LP  0  0  0  0  0  0  0  0  0  0  0  0  # atno 17394 bound_to 11000
  140.6543  134.5034  157.5579 LP  0  0  0  0  0  0  0  0  0  0  0  0  # atno 17395 bound_to 11000

$$$$
