AV-unprocessed.smi:3|AV-procd|sdf|31|dock1
  -GOLD-   2262015143D 1   1.00000     0.00000
 Structure written by MMmdl.
 33 35  0  0  0  0  0  0  0  0  1 V2000
  153.0638  139.8070  159.8725 C   0  0  0  0  0  0  0  0  0  0  0  0
  152.3669  140.1714  158.6476 N   0  0  0  0  0  0  0  0  0  0  0  0
  151.7822  139.1135  157.8269 C   0  0  0  0  0  0  0  0  0  0  0  0
  152.1286  139.2785  156.3489 C   0  0  1  0  0  0  0  0  0  0  0  0
  153.1510  138.3381  155.6923 C   0  0  0  0  0  0  0  0  0  0  0  0
  152.3150  138.3812  154.4096 C   0  0  1  0  0  0  0  0  0  0  0  0
  152.1870  137.1801  153.6824 O   0  0  0  0  0  0  0  0  0  0  0  0
  151.1298  138.7989  155.2867 C   0  0  0  0  0  0  0  0  0  0  0  0
  151.9201  141.4954  158.4444 C   0  0  0  0  0  0  0  0  0  0  0  0
  151.2668  141.7549  157.2833 N   0  0  0  0  0  0  0  0  0  0  0  0
  150.8297  143.0209  157.0684 C   0  0  0  0  0  0  0  0  0  0  0  0
  150.9563  144.0952  157.8841 N   0  0  0  0  0  0  0  0  0  0  0  0
  151.6003  143.8581  159.0646 C   0  0  0  0  0  0  0  0  0  0  0  0
  151.8391  144.7230  160.0448 N   0  0  0  0  0  0  0  0  0  0  0  0
  152.4718  144.0341  161.0081 C   0  0  0  0  0  0  0  0  0  0  0  0
  152.6746  142.6406  160.6760 C   0  0  0  0  0  0  0  0  0  0  0  0
  152.0943  142.5650  159.3702 C   0  0  0  0  0  0  0  0  0  0  0  0
  152.3987  140.3118  156.1208 H   0  0  0  0  0  0  0  0  0  0  0  0
  152.6301  139.1879  153.7455 H   0  0  0  0  0  0  0  0  0  0  0  0
  153.6576  140.6378  160.2543 H   0  0  0  0  0  0  0  0  0  0  0  0
  153.7458  138.9778  159.6826 H   0  0  0  0  0  0  0  0  0  0  0  0
  152.3574  139.4894  160.6393 H   0  0  0  0  0  0  0  0  0  0  0  0
  152.0853  138.1295  158.1849 H   0  0  0  0  0  0  0  0  0  0  0  0
  150.7000  139.1440  157.9559 H   0  0  0  0  0  0  0  0  0  0  0  0
  154.1526  138.7594  155.5999 H   0  0  0  0  0  0  0  0  0  0  0  0
  153.1762  137.3480  156.1514 H   0  0  0  0  0  0  0  0  0  0  0  0
  151.9756  137.4167  152.7920 H   0  0  0  0  0  0  0  0  0  0  0  0
  150.5278  137.9513  155.6195 H   0  0  0  0  0  0  0  0  0  0  0  0
  150.5072  139.5887  154.8653 H   0  0  0  0  0  0  0  0  0  0  0  0
  150.3168  143.1928  156.1336 H   0  0  0  0  0  0  0  0  0  0  0  0
  152.7768  144.5113  161.9311 H   0  0  0  0  0  0  0  0  0  0  0  0
  153.1425  141.8724  161.2768 H   0  0  0  0  0  0  0  0  0  0  0  0
  150.5760  144.9856  157.5969 H   0  0  0  0  0  0  0  0  0  0  0  0
  1  2  1  0  0  0  0
  1 20  1  0  0  0  0
  1 21  1  0  0  0  0
  1 22  1  0  0  0  0
  2  3  1  0  0  0  0
  2  9  1  0  0  0  0
  3  4  1  0  0  0  0
  3 23  1  0  0  0  0
  3 24  1  0  0  0  0
  4 18  1  0  0  0  0
  4  8  1  0  0  0  0
  4  5  1  0  0  0  0
  5  6  1  0  0  0  0
  5 25  1  0  0  0  0
  5 26  1  0  0  0  0
  6 19  1  0  0  0  0
  6  7  1  0  0  0  0
  6  8  1  0  0  0  0
  7 27  1  0  0  0  0
  8 28  1  0  0  0  0
  8 29  1  0  0  0  0
  9 17  2  0  0  0  0
  9 10  1  0  0  0  0
 10 11  2  0  0  0  0
 11 12  1  0  0  0  0
 11 30  1  0  0  0  0
 12 13  1  0  0  0  0
 12 33  1  0  0  0  0
 13 17  1  0  0  0  0
 13 14  2  0  0  0  0
 14 15  1  0  0  0  0
 15 16  2  0  0  0  0
 15 31  1  0  0  0  0
 16 17  1  0  0  0  0
 16 32  1  0  0  0  0
M  END
> <s_m_source_file>
AV-unprocessed.smi

> <i_m_source_file_index>
3

> <i_lp_mmshare_version>
43012

> <i_f3d_flags>
0

> <s_epik_input>
W25IXTFbY0hdW2NIXWMoYzEyKWMobltjSF1uMilOKFtDSDNdKVtDSDJdW0NASF0zW0NIMl1bQ0BASF0oW09IXSlbQ0gyXTM=

> <s_epik_cmdline>
J2VwaWtfcHl0aG9uJywgJy1waCcsICc3LjAnLCAnLXRuJywgJzgnLCAnLW1hJywgJzIwMCcsICctbWV0YWxfYmluZGluZycsICctaW1hZScsICc8aW5maWxlLm1hZT4nLCAnLW9tYWUnLCAnPG91dGZpbGUubWFlPic=

> <r_lp_tautomer_probability>
1.75997e-05

> <r_epik_Ionization_Penalty>
5.52529

> <r_epik_Ionization_Penalty_Charging>
0

> <r_epik_Ionization_Penalty_Neutral>
5.52529

> <r_epik_State_Penalty>
8.99615

> <r_epik_Charging_Adjusted_Penalty>
8.99615

> <i_epik_Tot_Q>
0

> <i_epik_Tot_abs_Q>
0

> <r_epik_Metal_State_Penalty>
6.01519

> <b_epik_Metal_Only>
1

> <s_lp_Force_Field>
OPLS_2005

> <r_lp_Energy>
25.1021

> <b_lp_Chiralities_Consistent>
1

> <s_lp_Variant>
AV-unprocessed.smi:3-5

> <Gold.Version>
5.8.1

> <Gold.Id.Protein>
6NUR|6NUR_protein|mol2

> <Gold.PLP.Fitness>
40.9021

> <Gold.PLP.PLP>
-34.9111

> <Gold.PLP.part.hbond>
-2.8741

> <Gold.PLP.part.metal>
0.0000

> <Gold.PLP.part.buried>
-2.8761

> <Gold.PLP.part.nonpolar>
-28.6514

> <Gold.PLP.part.repulsive>
0.1482

> <Gold.PLP.ligand.clash>
0.9650

> <Gold.PLP.ligand.torsion>
0.6851

> <Gold.PLP.Chemscore.Hbond>
1.3705

> <Gold.PLP.Chemscore.CHOScore>
0.9792

> <Gold.PLP.Chemscore.Metal>
0.0000

> <Gold.Chemscore.Hbonds>
donor molecule, donor type, donor heavy atom, donor atom, acceptor molecule, acceptor atom, score
      L1  H     7    27       P1  7949  0.36
      P1  H 10752 10765       L1     7  0.99
      L1  C    11    30       P1  8028  0.96

> <Gold.PLP.Chemscore.Internal.Correction>
1.2772

> <Gold.Rescore>
     Score         DG    S(hbond)    S(metal)    S(lipo)     H(rot)  DE(clash)    DE(int)     intcor
     11.80     -15.01       1.66        0.00      74.29       1.84       0.04       3.17       ----

> <Gold.Chemscore.Fitness>
11.8002

> <Gold.Chemscore.DG>
-15.0078

> <Gold.Chemscore.ZeroCoef>
-5.4800

> <Gold.Chemscore.Hbond>
1.6601

> <Gold.Chemscore.Metal>
0.0000

> <Gold.Chemscore.Lipo>
74.2949

> <Gold.Chemscore.Internal_Hbond>
0.0000

> <Gold.Chemscore.DEClash>
0.0373

> <Gold.Chemscore.DEInternal>
3.1703

> <Gold.Chemscore.Rot>
1.8396

> <Gold.Chemscore.Internal.Correction>
   9.000000E+99

> <Gold.Chemscore.Hbonds>
donor molecule, donor type, donor heavy atom, donor atom, acceptor molecule, acceptor atom, score
      L1  H     7    27       P1  7949  0.35
      P1  H 10752 10765       L1     7  0.93

> <Gold.Chemscore.Hbond.Weighted>
-5.5448

> <Gold.Chemscore.Metal.Weighted>
-0.0000

> <Gold.Chemscore.Lipo.Weighted>
-8.6925

> <Gold.Chemscore.Internal_Hbond.Weighted>
0.0000

> <Gold.Chemscore.DEClash.Weighted>
0.0373

> <Gold.Chemscore.DEInternal.Weighted>
3.1703

> <Gold.Chemscore.Rot.Weighted>
4.7095

> <Gold.Chemscore.Internal.Correction.Weighted>
   9.000000E+99

> <Gold.Protein.RotatedTorsions>
[ 6907 6896 6895 6894 ] final -141.93 input  -60.11 | X-H torsion
[ 7974 7965 7964 7962 ] final   60.66 input  175.53 | X-H torsion
[ 8008 7997 7996 7995 ] final   35.15 input   59.86 | X-H torsion
[ 10167 10162 10161 10158 ] final  -38.35 input  -65.29 | X-H torsion
[ 10718 10713 10712 10709 ] final  -90.47 input   66.30 | X-H torsion
[ 10763 10752 10751 10750 ] final  151.33 input  -60.55 | X-H torsion
[ 11005 11000 10999 10996 ] final  103.72 input  -57.11 | X-H torsion

> <Gold.Protein.ActiveResidues>
 VAL166  LYS551  ARG553  GLY616  TRP617  ASP618  TYR619  PRO620  LYS621  CYS622 
 ASP623  PHE694  ASN695  SER759  ASP760  ASP761  ALA762  ILE779  LEU786  VAL792 
 PHE793  MET794  SER795  GLU796  ALA797  LYS798  CYS799  TRP800  GLU811  SER814 

> <Gold.Protein.RotatedAtoms>
  151.0803  133.5396  159.2620 H   0  0  0  0  0  0  0  0  0  0  0  0  # atno 6907 bound_to 6896
  151.2302  135.0551  159.8994 H   0  0  0  0  0  0  0  0  0  0  0  0  # atno 6908 bound_to 6896
  152.5423  134.0593  159.8198 H   0  0  0  0  0  0  0  0  0  0  0  0  # atno 6909 bound_to 6896
  145.8935  139.3528  143.0635 H   0  0  0  0  0  0  0  0  0  0  0  0  # atno 7974 bound_to 7965
  155.1664  140.3288  155.4401 H   0  0  0  0  0  0  0  0  0  0  0  0  # atno 8008 bound_to 7997
  156.2525  140.1951  156.6720 H   0  0  0  0  0  0  0  0  0  0  0  0  # atno 8009 bound_to 7997
  154.6368  140.0575  156.9784 H   0  0  0  0  0  0  0  0  0  0  0  0  # atno 8010 bound_to 7997
  140.7094  143.3283  151.2629 H   0  0  0  0  0  0  0  0  0  0  0  0  # atno 10167 bound_to 10162
  155.9988  130.4911  150.5327 H   0  0  0  0  0  0  0  0  0  0  0  0  # atno 10718 bound_to 10713
  154.1021  135.2845  155.3249 H   0  0  0  0  0  0  0  0  0  0  0  0  # atno 10763 bound_to 10752
  154.6548  135.5356  153.7949 H   0  0  0  0  0  0  0  0  0  0  0  0  # atno 10764 bound_to 10752
  153.0375  135.6519  154.1184 H   0  0  0  0  0  0  0  0  0  0  0  0  # atno 10765 bound_to 10752
  139.8786  134.9274  156.5252 H   0  0  0  0  0  0  0  0  0  0  0  0  # atno 11005 bound_to 11000
  145.8879  140.9322  143.0567 LP  0  0  0  0  0  0  0  0  0  0  0  0  # atno 17320 bound_to 7965
  144.6731  140.0867  143.7467 LP  0  0  0  0  0  0  0  0  0  0  0  0  # atno 17321 bound_to 7965
  139.6757  143.9941  152.2780 LP  0  0  0  0  0  0  0  0  0  0  0  0  # atno 17342 bound_to 10162
  139.9555  144.6592  150.8130 LP  0  0  0  0  0  0  0  0  0  0  0  0  # atno 17343 bound_to 10162
  157.3274  131.0693  151.1886 LP  0  0  0  0  0  0  0  0  0  0  0  0  # atno 17370 bound_to 10713
  157.2778  130.6735  149.6051 LP  0  0  0  0  0  0  0  0  0  0  0  0  # atno 17371 bound_to 10713
  140.8421  133.8197  155.9085 LP  0  0  0  0  0  0  0  0  0  0  0  0  # atno 17394 bound_to 11000
  140.9227  134.2121  157.4916 LP  0  0  0  0  0  0  0  0  0  0  0  0  # atno 17395 bound_to 11000

$$$$
