AV-unprocessed.smi:1560|AV-procd|sdf|6279|dock8
  -GOLD-   22720 6473D 1   1.00000     0.00000
 Structure written by MMmdl.
 46 47  0  0  0  0  0  0  0  0  2 V2000
  147.5927  130.4462  153.3156 C   0  0  0  0  0  0  0  0  0  0  0  0
  148.0003  131.9310  153.2967 C   0  0  0  0  0  0  0  0  0  0  0  0
  146.8413  132.9534  153.5220 C   0  0  1  0  0  0  0  0  0  0  0  0
  146.2673  132.6591  154.9343 C   0  0  0  0  0  0  0  0  0  0  0  0
  147.4407  134.3972  153.5305 C   0  0  0  0  0  0  0  0  0  0  0  0
  148.7436  134.4963  154.1882 N   0  0  0  0  0  0  0  0  0  0  0  0
  148.9532  134.8295  155.4711 C   0  0  0  0  0  0  0  0  0  0  0  0
  148.0478  135.1307  156.2500 O   0  0  0  0  0  0  0  0  0  0  0  0
  150.4173  134.8594  155.9288 C   0  0  0  0  0  0  0  0  0  0  0  0
  151.0235  136.1954  155.8120 N   0  0  0  0  0  0  0  0  0  0  0  0
  150.7245  136.9540  154.6663 C   0  0  0  0  0  0  0  0  0  0  0  0
  151.2341  138.1862  154.4774 C   0  0  0  0  0  0  0  0  0  0  0  0
  152.1184  138.7320  155.4998 C   0  0  0  0  0  0  0  0  0  0  0  0
  152.5976  139.8532  155.3416 O   0  0  0  0  0  0  0  0  0  0  0  0
  152.3735  137.9593  156.5964 N   0  5  0  0  0  0  0  0  0  0  0  0
  151.8467  136.7084  156.7760 C   0  0  0  0  0  0  0  0  0  0  0  0
  152.0894  136.0283  157.7739 O   0  0  0  0  0  0  0  0  0  0  0  0
  145.7835  132.7948  152.4836 N   0  0  0  0  0  0  0  0  0  0  0  0
  146.2697  132.7564  151.0985 C   0  0  0  0  0  0  0  0  0  0  0  0
  145.1422  132.4422  150.1010 C   0  0  0  0  0  0  0  0  0  0  0  0
  144.1003  133.4011  150.2382 O   0  0  0  0  0  0  0  0  0  0  0  0
  143.5611  133.4326  151.5540 C   0  0  0  0  0  0  0  0  0  0  0  0
  144.6760  133.7549  152.5636 C   0  0  0  0  0  0  0  0  0  0  0  0
  148.4623  129.8112  153.1468 H   0  0  0  0  0  0  0  0  0  0  0  0
  146.8664  130.2137  152.5370 H   0  0  0  0  0  0  0  0  0  0  0  0
  147.1622  130.1564  154.2737 H   0  0  0  0  0  0  0  0  0  0  0  0
  148.7663  132.0633  154.0609 H   0  0  0  0  0  0  0  0  0  0  0  0
  148.5144  132.1430  152.3591 H   0  0  0  0  0  0  0  0  0  0  0  0
  147.0542  132.5343  155.6790 H   0  0  0  0  0  0  0  0  0  0  0  0
  145.6693  131.7474  154.9441 H   0  0  0  0  0  0  0  0  0  0  0  0
  145.6315  133.4687  155.2932 H   0  0  0  0  0  0  0  0  0  0  0  0
  147.5099  134.7968  152.5185 H   0  0  0  0  0  0  0  0  0  0  0  0
  146.7843  135.0789  154.0699 H   0  0  0  0  0  0  0  0  0  0  0  0
  149.5514  134.2724  153.6255 H   0  0  0  0  0  0  0  0  0  0  0  0
  150.4948  134.5036  156.9580 H   0  0  0  0  0  0  0  0  0  0  0  0
  150.9719  134.1337  155.3325 H   0  0  0  0  0  0  0  0  0  0  0  0
  150.0576  136.4797  153.9612 H   0  0  0  0  0  0  0  0  0  0  0  0
  150.9926  138.7574  153.5930 H   0  0  0  0  0  0  0  0  0  0  0  0
  146.7156  133.7130  150.8270 H   0  0  0  0  0  0  0  0  0  0  0  0
  147.0438  132.0013  150.9754 H   0  0  0  0  0  0  0  0  0  0  0  0
  145.5214  132.4727  149.0794 H   0  0  0  0  0  0  0  0  0  0  0  0
  144.7486  131.4382  150.2673 H   0  0  0  0  0  0  0  0  0  0  0  0
  142.7777  134.1892  151.5998 H   0  0  0  0  0  0  0  0  0  0  0  0
  143.0948  132.4742  151.7874 H   0  0  0  0  0  0  0  0  0  0  0  0
  144.2317  133.7565  153.5574 H   0  0  0  0  0  0  0  0  0  0  0  0
  145.0356  134.7663  152.3750 H   0  0  0  0  0  0  0  0  0  0  0  0
  1  2  1  0  0  0  0
  1 24  1  0  0  0  0
  1 25  1  0  0  0  0
  1 26  1  0  0  0  0
  2  3  1  0  0  0  0
  2 27  1  0  0  0  0
  2 28  1  0  0  0  0
  3  4  1  0  0  0  0
  3  5  1  0  0  0  0
  3 18  1  0  0  0  0
  4 29  1  0  0  0  0
  4 30  1  0  0  0  0
  4 31  1  0  0  0  0
  5  6  1  0  0  0  0
  5 32  1  0  0  0  0
  5 33  1  0  0  0  0
  6  7  1  0  0  0  0
  6 34  1  0  0  0  0
  7  8  2  0  0  0  0
  7  9  1  0  0  0  0
  9 10  1  0  0  0  0
  9 35  1  0  0  0  0
  9 36  1  0  0  0  0
 10 16  1  0  0  0  0
 10 11  1  0  0  0  0
 11 12  2  0  0  0  0
 11 37  1  0  0  0  0
 12 13  1  0  0  0  0
 12 38  1  0  0  0  0
 13 14  2  0  0  0  0
 13 15  1  0  0  0  0
 15 16  1  0  0  0  0
 16 17  2  0  0  0  0
 18 23  1  0  0  0  0
 18 19  1  0  0  0  0
 19 20  1  0  0  0  0
 19 39  1  0  0  0  0
 19 40  1  0  0  0  0
 20 21  1  0  0  0  0
 20 41  1  0  0  0  0
 20 42  1  0  0  0  0
 21 22  1  0  0  0  0
 22 23  1  0  0  0  0
 22 43  1  0  0  0  0
 22 44  1  0  0  0  0
 23 45  1  0  0  0  0
 23 46  1  0  0  0  0
M  CHG  1  15  -1
M  END
> <s_m_source_file>
AV-unprocessed.smi

> <i_m_source_file_index>
1560

> <i_lp_mmshare_version>
43012

> <i_f3d_flags>
0

> <s_epik_input>
W0NIMl0xW0NIMl1PW0NIMl1bQ0gyXU4xW0NAQF0oW0NIM10pKFtDSDJdW0NIM10pW0NIMl1bTkhdQyg9TylbQ0gyXW4yW2NIXVtjSF1jKD1PKVtuSF1jMj1P

> <s_epik_cmdline>
J2VwaWtfcHl0aG9uJywgJy1waCcsICc3LjAnLCAnLXRuJywgJzgnLCAnLW1hJywgJzIwMCcsICctbWV0YWxfYmluZGluZycsICctaW1hZScsICc8aW5maWxlLm1hZT4nLCAnLW9tYWUnLCAnPG91dGZpbGUubWFlPic=

> <r_lp_tautomer_probability>
0.999537

> <r_epik_Ionization_Penalty>
3.35108

> <r_epik_Ionization_Penalty_Charging>
2.65778e-08

> <r_epik_Ionization_Penalty_Neutral>
3.35108

> <r_epik_State_Penalty>
3.36199

> <r_epik_Charging_Adjusted_Penalty>
3.36199

> <i_epik_Tot_Q>
-1

> <i_epik_Tot_abs_Q>
1

> <r_epik_Metal_State_Penalty>
0.748914

> <b_epik_Metal_Only>
1

> <s_lp_Force_Field>
OPLS_2005

> <r_lp_Energy>
51.7621

> <b_lp_Chiralities_Consistent>
1

> <s_lp_Variant>
AV-unprocessed.smi:1560-5

> <Gold.Version>
5.8.1

> <Gold.Id.Protein>
6NUR|6NUR_protein|mol2

> <Gold.PLP.Fitness>
36.4126

> <Gold.PLP.PLP>
-31.5087

> <Gold.PLP.part.hbond>
-3.9992

> <Gold.PLP.part.metal>
0.0000

> <Gold.PLP.part.buried>
-2.8678

> <Gold.PLP.part.nonpolar>
-25.4858

> <Gold.PLP.part.repulsive>
0.3265

> <Gold.PLP.ligand.clash>
0.0000

> <Gold.PLP.ligand.torsion>
1.1856

> <Gold.PLP.Chemscore.Hbond>
1.3963

> <Gold.PLP.Chemscore.CHOScore>
0.9705

> <Gold.PLP.Chemscore.Metal>
0.0000

> <Gold.Chemscore.Hbonds>
donor molecule, donor type, donor heavy atom, donor atom, acceptor molecule, acceptor atom, score
      P1  H  7989  7998       L1    14  0.21
      P1  H  7997  8010       L1    14  1.00
      L1  C    11    37       P1  7948  0.97
      L1  C    11    37       P1  7949  0.01

> <Gold.PLP.Chemscore.Internal.Correction>
0.1745

> <Gold.Rescore>
     Score         DG    S(hbond)    S(metal)    S(lipo)     H(rot)  DE(clash)    DE(int)     intcor
     11.37     -12.71       1.89        0.00      60.85       2.42       0.33       1.02       ----

> <Gold.Chemscore.Fitness>
11.3721

> <Gold.Chemscore.DG>
-12.7144

> <Gold.Chemscore.ZeroCoef>
-5.4800

> <Gold.Chemscore.Hbond>
1.8889

> <Gold.Chemscore.Metal>
0.0000

> <Gold.Chemscore.Lipo>
60.8522

> <Gold.Chemscore.Internal_Hbond>
0.0000

> <Gold.Chemscore.DEClash>
0.3271

> <Gold.Chemscore.DEInternal>
1.0152

> <Gold.Chemscore.Rot>
2.4197

> <Gold.Chemscore.Internal.Correction>
   9.000000E+99

> <Gold.Chemscore.Hbonds>
donor molecule, donor type, donor heavy atom, donor atom, acceptor molecule, acceptor atom, score
      P1  H  7989  7998       L1    14  0.17
      P1  H  7997  8010       L1    14  0.95

> <Gold.Chemscore.Hbond.Weighted>
-6.3090

> <Gold.Chemscore.Metal.Weighted>
-0.0000

> <Gold.Chemscore.Lipo.Weighted>
-7.1197

> <Gold.Chemscore.Internal_Hbond.Weighted>
0.0000

> <Gold.Chemscore.DEClash.Weighted>
0.3271

> <Gold.Chemscore.DEInternal.Weighted>
1.0152

> <Gold.Chemscore.Rot.Weighted>
6.1943

> <Gold.Chemscore.Internal.Correction.Weighted>
   9.000000E+99

> <Gold.Protein.RotatedTorsions>
[ 6907 6896 6895 6894 ] final   82.00 input  -60.11 | X-H torsion
[ 7974 7965 7964 7962 ] final   98.77 input  175.53 | X-H torsion
[ 8008 7997 7996 7995 ] final   95.14 input   59.86 | X-H torsion
[ 10167 10162 10161 10158 ] final  161.71 input  -65.29 | X-H torsion
[ 10718 10713 10712 10709 ] final   -2.58 input   66.30 | X-H torsion
[ 10763 10752 10751 10750 ] final -101.46 input  -60.55 | X-H torsion
[ 11005 11000 10999 10996 ] final   44.24 input  -57.11 | X-H torsion

> <Gold.Protein.ActiveResidues>
 VAL166  LYS551  ARG553  GLY616  TRP617  ASP618  TYR619  PRO620  LYS621  CYS622 
 ASP623  PHE694  ASN695  SER759  ASP760  ASP761  ALA762  ILE779  LEU786  VAL792 
 PHE793  MET794  SER795  GLU796  ALA797  LYS798  CYS799  TRP800  GLU811  SER814 

> <Gold.Protein.RotatedAtoms>
  152.5286  134.3117  159.9115 H   0  0  0  0  0  0  0  0  0  0  0  0  # atno 6907 bound_to 6896
  151.3066  133.4092  159.2651 H   0  0  0  0  0  0  0  0  0  0  0  0  # atno 6908 bound_to 6896
  151.0074  134.9386  159.8045 H   0  0  0  0  0  0  0  0  0  0  0  0  # atno 6909 bound_to 6896
  145.4077  139.2338  143.3265 H   0  0  0  0  0  0  0  0  0  0  0  0  # atno 7974 bound_to 7965
  156.0657  140.3290  155.7514 H   0  0  0  0  0  0  0  0  0  0  0  0  # atno 8008 bound_to 7997
  155.5385  140.0599  157.2892 H   0  0  0  0  0  0  0  0  0  0  0  0  # atno 8009 bound_to 7997
  154.4504  140.1915  156.0556 H   0  0  0  0  0  0  0  0  0  0  0  0  # atno 8010 bound_to 7997
  139.4852  144.4509  151.8831 H   0  0  0  0  0  0  0  0  0  0  0  0  # atno 10167 bound_to 10162
  156.7887  130.5354  149.5739 H   0  0  0  0  0  0  0  0  0  0  0  0  # atno 10718 bound_to 10713
  154.7659  135.4897  153.9554 H   0  0  0  0  0  0  0  0  0  0  0  0  # atno 10763 bound_to 10752
  153.1307  135.6752  153.9190 H   0  0  0  0  0  0  0  0  0  0  0  0  # atno 10764 bound_to 10752
  153.8894  135.3122  155.3426 H   0  0  0  0  0  0  0  0  0  0  0  0  # atno 10765 bound_to 10752
  140.1570  134.4389  155.8343 H   0  0  0  0  0  0  0  0  0  0  0  0  # atno 11005 bound_to 11000
  146.2720  140.4784  142.8810 LP  0  0  0  0  0  0  0  0  0  0  0  0  # atno 17320 bound_to 7965
  144.8330  140.6737  143.6278 LP  0  0  0  0  0  0  0  0  0  0  0  0  # atno 17321 bound_to 7965
  140.3966  144.2547  150.5896 LP  0  0  0  0  0  0  0  0  0  0  0  0  # atno 17342 bound_to 10162
  140.5096  143.2294  151.8555 LP  0  0  0  0  0  0  0  0  0  0  0  0  # atno 17343 bound_to 10162
  156.1172  130.6084  151.0139 LP  0  0  0  0  0  0  0  0  0  0  0  0  # atno 17370 bound_to 10713
  157.6611  131.0880  150.7836 LP  0  0  0  0  0  0  0  0  0  0  0  0  # atno 17371 bound_to 10713
  141.2205  133.6897  156.7526 LP  0  0  0  0  0  0  0  0  0  0  0  0  # atno 17394 bound_to 11000
  140.2535  134.8522  157.3690 LP  0  0  0  0  0  0  0  0  0  0  0  0  # atno 17395 bound_to 11000

$$$$
