AV-unprocessed.smi:210|AV-procd|sdf|1613|dock3
  -GOLD-   2262019533D 1   1.00000     0.00000
 Structure written by MMmdl.
 57 61  0  0  0  0  0  0  0  0  1 V2000
  151.2737  145.4103  159.6414 C   0  0  0  0  0  0  0  0  0  0  0  0
  150.3752  144.4228  159.1671 O   0  0  0  0  0  0  0  0  0  0  0  0
  150.9384  143.6158  158.1450 C   0  0  2  0  0  0  0  0  0  0  0  0
  150.0883  142.3985  157.7517 C   0  0  0  0  0  0  0  0  0  0  0  0
  151.4111  141.6184  157.6504 C   0  0  2  0  0  0  0  0  0  0  0  0
  151.3766  140.2127  158.0839 N   0  0  0  0  0  0  0  0  0  0  0  0
  152.5902  139.4192  158.2663 C   0  0  0  0  0  0  0  0  0  0  0  0
  150.2082  139.5544  157.8522 C   0  0  0  0  0  0  0  0  0  0  0  0
  149.7075  138.7844  158.8542 N   0  0  0  0  0  0  0  0  0  0  0  0
  148.5645  138.1133  158.6914 C   0  0  0  0  0  0  0  0  0  0  0  0
  147.7644  138.0759  157.6256 N   0  0  0  0  0  0  0  0  0  0  0  0
  148.2473  138.8565  156.6176 C   0  0  0  0  0  0  0  0  0  0  0  0
  149.4526  139.6177  156.6413 C   0  0  0  0  0  0  0  0  0  0  0  0
  149.6040  140.2804  155.4271 N   0  0  0  0  0  0  0  0  0  0  0  0
  148.5659  139.9188  154.7258 C   0  0  0  0  0  0  0  0  0  0  0  0
  147.6833  139.0869  155.3744 N   0  0  0  0  0  0  0  0  0  0  0  0
  146.4881  138.5125  154.8288 C   0  0  0  0  0  0  0  0  0  0  0  0
  146.3961  137.0144  154.5175 C   0  0  0  0  0  0  0  0  0  0  0  0
  145.4572  137.3320  153.3306 C   0  0  0  0  0  0  0  0  0  0  0  0
  145.6566  136.4984  152.0494 C   0  0  0  0  0  0  0  0  0  0  0  0
  145.5754  137.2804  150.8748 O   0  0  0  0  0  0  0  0  0  0  0  0
  143.9581  137.2750  153.6816 C   0  0  0  0  0  0  0  0  0  0  0  0
  143.1632  137.8552  152.6672 O   0  0  0  0  0  0  0  0  0  0  0  0
  146.0943  138.7408  153.3665 C   0  0  0  0  0  0  0  0  0  0  0  0
  152.0061  142.6256  158.6566 C   0  0  0  0  0  0  0  0  0  0  0  0
  152.1661  142.3392  160.1630 C   0  0  0  0  0  0  0  0  0  0  0  0
  153.3931  143.2561  160.1452 C   0  0  0  0  0  0  0  0  0  0  0  0
  153.4906  143.0106  158.6356 C   0  0  0  0  0  0  0  0  0  0  0  0
  150.7978  145.9871  160.4344 H   0  0  0  0  0  0  0  0  0  0  0  0
  151.5582  146.1023  158.8481 H   0  0  0  0  0  0  0  0  0  0  0  0
  152.1767  144.9565  160.0511 H   0  0  0  0  0  0  0  0  0  0  0  0
  151.2895  144.1855  157.2818 H   0  0  0  0  0  0  0  0  0  0  0  0
  149.4243  142.1031  158.5644 H   0  0  0  0  0  0  0  0  0  0  0  0
  149.5492  142.5073  156.8104 H   0  0  0  0  0  0  0  0  0  0  0  0
  151.8415  141.7577  156.6569 H   0  0  0  0  0  0  0  0  0  0  0  0
  152.3695  138.4527  158.7200 H   0  0  0  0  0  0  0  0  0  0  0  0
  153.2783  139.9219  158.9451 H   0  0  0  0  0  0  0  0  0  0  0  0
  153.1008  139.2509  157.3185 H   0  0  0  0  0  0  0  0  0  0  0  0
  148.2442  137.5231  159.5372 H   0  0  0  0  0  0  0  0  0  0  0  0
  148.4122  140.2590  153.7121 H   0  0  0  0  0  0  0  0  0  0  0  0
  145.6799  138.8177  155.4955 H   0  0  0  0  0  0  0  0  0  0  0  0
  147.3577  136.5950  154.2179 H   0  0  0  0  0  0  0  0  0  0  0  0
  145.9464  136.4171  155.3113 H   0  0  0  0  0  0  0  0  0  0  0  0
  146.6287  136.0041  152.0551 H   0  0  0  0  0  0  0  0  0  0  0  0
  144.9047  135.7125  151.9714 H   0  0  0  0  0  0  0  0  0  0  0  0
  144.8491  137.8785  150.9620 H   0  0  0  0  0  0  0  0  0  0  0  0
  143.6309  136.2463  153.8371 H   0  0  0  0  0  0  0  0  0  0  0  0
  143.7481  137.8044  154.6110 H   0  0  0  0  0  0  0  0  0  0  0  0
  142.9889  138.7547  152.8991 H   0  0  0  0  0  0  0  0  0  0  0  0
  145.3990  139.5668  153.2140 H   0  0  0  0  0  0  0  0  0  0  0  0
  146.9644  138.8441  152.7160 H   0  0  0  0  0  0  0  0  0  0  0  0
  151.3478  142.6805  160.7971 H   0  0  0  0  0  0  0  0  0  0  0  0
  152.4412  141.3096  160.3899 H   0  0  0  0  0  0  0  0  0  0  0  0
  153.1486  144.2913  160.3891 H   0  0  0  0  0  0  0  0  0  0  0  0
  154.2437  142.8931  160.7223 H   0  0  0  0  0  0  0  0  0  0  0  0
  154.1414  142.1708  158.3871 H   0  0  0  0  0  0  0  0  0  0  0  0
  153.7285  143.8950  158.0438 H   0  0  0  0  0  0  0  0  0  0  0  0
  1  2  1  0  0  0  0
  1 29  1  0  0  0  0
  1 30  1  0  0  0  0
  1 31  1  0  0  0  0
  2  3  1  0  0  0  0
  3 25  1  0  0  0  0
  3  4  1  0  0  0  0
  3 32  1  0  0  0  0
  4  5  1  0  0  0  0
  4 33  1  0  0  0  0
  4 34  1  0  0  0  0
  5  6  1  0  0  0  0
  5 25  1  0  0  0  0
  5 35  1  0  0  0  0
  6  7  1  0  0  0  0
  6  8  1  0  0  0  0
  7 36  1  0  0  0  0
  7 37  1  0  0  0  0
  7 38  1  0  0  0  0
  8 13  1  0  0  0  0
  8  9  2  0  0  0  0
  9 10  1  0  0  0  0
 10 11  2  0  0  0  0
 10 39  1  0  0  0  0
 11 12  1  0  0  0  0
 12 16  1  0  0  0  0
 12 13  2  0  0  0  0
 13 14  1  0  0  0  0
 14 15  2  0  0  0  0
 15 16  1  0  0  0  0
 15 40  1  0  0  0  0
 16 17  1  0  0  0  0
 17 24  1  0  0  0  0
 17 18  1  0  0  0  0
 17 41  1  0  0  0  0
 18 19  1  0  0  0  0
 18 42  1  0  0  0  0
 18 43  1  0  0  0  0
 19 20  1  0  0  0  0
 19 22  1  0  0  0  0
 19 24  1  0  0  0  0
 20 21  1  0  0  0  0
 20 44  1  0  0  0  0
 20 45  1  0  0  0  0
 21 46  1  0  0  0  0
 22 23  1  0  0  0  0
 22 47  1  0  0  0  0
 22 48  1  0  0  0  0
 23 49  1  0  0  0  0
 24 50  1  0  0  0  0
 24 51  1  0  0  0  0
 25 28  1  0  0  0  0
 25 26  1  0  0  0  0
 26 27  1  0  0  0  0
 26 52  1  0  0  0  0
 26 53  1  0  0  0  0
 27 28  1  0  0  0  0
 27 54  1  0  0  0  0
 27 55  1  0  0  0  0
 28 56  1  0  0  0  0
 28 57  1  0  0  0  0
M  END
> <s_m_source_file>
AV-unprocessed.smi

> <i_m_source_file_index>
210

> <i_lp_mmshare_version>
43012

> <i_f3d_flags>
0

> <s_epik_input>
W0NIMl0xW0NIMl1bQ0gyXUMxMltDQEhdKE9bQ0gzXSlbQ0gyXVtDQEhdMk4oW0NIM10pYyhuW2NIXW4zKWMoYzM0KW5bY0hdbjRbQ0hdKFtDSDJdNSlbQ0gyXUM1KFtDSDJdW09IXSlbQ0gyXVtPSF0=

> <s_epik_cmdline>
J2VwaWtfcHl0aG9uJywgJy1waCcsICc3LjAnLCAnLXRuJywgJzgnLCAnLW1hJywgJzIwMCcsICctbWV0YWxfYmluZGluZycsICctaW1hZScsICc8aW5maWxlLm1hZT4nLCAnLW9tYWUnLCAnPG91dGZpbGUubWFlPic=

> <r_lp_tautomer_probability>
1

> <r_epik_Ionization_Penalty>
0.00313676

> <r_epik_Ionization_Penalty_Charging>
0

> <r_epik_Ionization_Penalty_Neutral>
0.00313676

> <r_epik_State_Penalty>
0.00199132

> <r_epik_Charging_Adjusted_Penalty>
0.00199132

> <i_epik_Tot_Q>
0

> <i_epik_Tot_abs_Q>
0

> <r_epik_Metal_State_Penalty>
-0

> <b_epik_Metal_Only>
0

> <s_lp_Force_Field>
OPLS_2005

> <r_lp_Energy>
62.7777

> <b_lp_Chiralities_Consistent>
1

> <s_lp_Variant>
AV-unprocessed.smi:210-3

> <Gold.Version>
5.8.1

> <Gold.Id.Protein>
6NUR|6NUR_protein|mol2

> <Gold.PLP.Fitness>
44.5387

> <Gold.PLP.PLP>
-36.2423

> <Gold.PLP.part.hbond>
-3.3920

> <Gold.PLP.part.metal>
0.0000

> <Gold.PLP.part.buried>
-2.6656

> <Gold.PLP.part.nonpolar>
-30.2126

> <Gold.PLP.part.repulsive>
0.2311

> <Gold.PLP.ligand.clash>
0.0000

> <Gold.PLP.ligand.torsion>
2.1971

> <Gold.PLP.Chemscore.Hbond>
2.7956

> <Gold.PLP.Chemscore.CHOScore>
0.9420

> <Gold.PLP.Chemscore.Metal>
0.0000

> <Gold.Chemscore.Hbonds>
donor molecule, donor type, donor heavy atom, donor atom, acceptor molecule, acceptor atom, score
      L1  H    21    46       P1 10171  0.62
      L1  H    23    49       P1 10175  0.77
      L1  C    15    40       P1  7957  0.26

> <Gold.PLP.Chemscore.Internal.Correction>
1.4778

> <Gold.Rescore>
     Score         DG    S(hbond)    S(metal)    S(lipo)     H(rot)  DE(clash)    DE(int)     intcor
     15.12     -19.07       2.63        0.00     113.03       3.29       1.79       2.16       ----

> <Gold.Chemscore.Fitness>
15.1211

> <Gold.Chemscore.DG>
-19.0707

> <Gold.Chemscore.ZeroCoef>
-5.4800

> <Gold.Chemscore.Hbond>
2.6291

> <Gold.Chemscore.Metal>
0.0000

> <Gold.Chemscore.Lipo>
113.0269

> <Gold.Chemscore.Internal_Hbond>
0.0000

> <Gold.Chemscore.DEClash>
1.7913

> <Gold.Chemscore.DEInternal>
2.1584

> <Gold.Chemscore.Rot>
3.2870

> <Gold.Chemscore.Internal.Correction>
   9.000000E+99

> <Gold.Chemscore.Hbonds>
donor molecule, donor type, donor heavy atom, donor atom, acceptor molecule, acceptor atom, score
      L1  H    21    46       P1 10171  0.62
      L1  H    23    49       P1 10175  0.76

> <Gold.Chemscore.Hbond.Weighted>
-8.7813

> <Gold.Chemscore.Metal.Weighted>
-0.0000

> <Gold.Chemscore.Lipo.Weighted>
-13.2241

> <Gold.Chemscore.Internal_Hbond.Weighted>
0.0000

> <Gold.Chemscore.DEClash.Weighted>
1.7913

> <Gold.Chemscore.DEInternal.Weighted>
2.1584

> <Gold.Chemscore.Rot.Weighted>
8.4147

> <Gold.Chemscore.Internal.Correction.Weighted>
   9.000000E+99

> <Gold.Protein.RotatedTorsions>
[ 6907 6896 6895 6894 ] final  -96.57 input  -60.11 | X-H torsion
[ 7974 7965 7964 7962 ] final  -94.56 input  175.53 | X-H torsion
[ 8008 7997 7996 7995 ] final   54.65 input   59.86 | X-H torsion
[ 10167 10162 10161 10158 ] final   90.59 input  -65.29 | X-H torsion
[ 10718 10713 10712 10709 ] final  159.01 input   66.30 | X-H torsion
[ 10763 10752 10751 10750 ] final -142.90 input  -60.55 | X-H torsion
[ 11005 11000 10999 10996 ] final   92.81 input  -57.11 | X-H torsion

> <Gold.Protein.ActiveResidues>
 VAL166  LYS551  ARG553  GLY616  TRP617  ASP618  TYR619  PRO620  LYS621  CYS622 
 ASP623  PHE694  ASN695  SER759  ASP760  ASP761  ALA762  ILE779  LEU786  VAL792 
 PHE793  MET794  SER795  GLU796  ALA797  LYS798  CYS799  TRP800  GLU811  SER814 

> <Gold.Protein.RotatedAtoms>
  150.6992  134.1483  159.4130 H   0  0  0  0  0  0  0  0  0  0  0  0  # atno 6907 bound_to 6896
  151.9466  135.0186  160.0548 H   0  0  0  0  0  0  0  0  0  0  0  0  # atno 6908 bound_to 6896
  152.2047  133.4831  159.5114 H   0  0  0  0  0  0  0  0  0  0  0  0  # atno 6909 bound_to 6896
  145.3716  140.9506  143.2444 H   0  0  0  0  0  0  0  0  0  0  0  0  # atno 7974 bound_to 7965
  155.4882  140.3470  155.4350 H   0  0  0  0  0  0  0  0  0  0  0  0  # atno 8008 bound_to 7997
  156.0994  140.1431  156.9516 H   0  0  0  0  0  0  0  0  0  0  0  0  # atno 8009 bound_to 7997
  154.4684  140.0909  156.7059 H   0  0  0  0  0  0  0  0  0  0  0  0  # atno 8010 bound_to 7997
  139.8458  144.6618  150.9228 H   0  0  0  0  0  0  0  0  0  0  0  0  # atno 10167 bound_to 10162
  157.1700  131.0608  151.2187 H   0  0  0  0  0  0  0  0  0  0  0  0  # atno 10718 bound_to 10713
  154.8491  135.3483  154.6102 H   0  0  0  0  0  0  0  0  0  0  0  0  # atno 10763 bound_to 10752
  153.6710  135.6985  153.5152 H   0  0  0  0  0  0  0  0  0  0  0  0  # atno 10764 bound_to 10752
  153.2742  135.4283  155.0974 H   0  0  0  0  0  0  0  0  0  0  0  0  # atno 10765 bound_to 10752
  139.8818  134.8754  156.3626 H   0  0  0  0  0  0  0  0  0  0  0  0  # atno 11005 bound_to 11000
  144.8572  139.5232  143.6829 LP  0  0  0  0  0  0  0  0  0  0  0  0  # atno 17320 bound_to 7965
  146.2882  139.7065  142.9180 LP  0  0  0  0  0  0  0  0  0  0  0  0  # atno 17321 bound_to 7965
  140.7793  143.3871  151.1375 LP  0  0  0  0  0  0  0  0  0  0  0  0  # atno 17342 bound_to 10162
  139.7513  143.8774  152.3077 LP  0  0  0  0  0  0  0  0  0  0  0  0  # atno 17343 bound_to 10162
  157.4052  130.7355  149.6797 LP  0  0  0  0  0  0  0  0  0  0  0  0  # atno 17370 bound_to 10713
  155.9740  130.4110  150.3959 LP  0  0  0  0  0  0  0  0  0  0  0  0  # atno 17371 bound_to 10713
  140.9519  133.7445  156.0283 LP  0  0  0  0  0  0  0  0  0  0  0  0  # atno 17394 bound_to 11000
  140.8095  134.3415  157.5416 LP  0  0  0  0  0  0  0  0  0  0  0  0  # atno 17395 bound_to 11000

$$$$
