AV-unprocessed.smi:1965|AV-procd|sdf|7935|dock1
  -GOLD-   2272010103D 1   1.00000     0.00000
 Structure written by MMmdl.
 37 39  0  0  0  0  0  0  0  0  2 V2000
  145.0852  138.1462  153.1210 O   0  0  0  0  0  0  0  0  0  0  0  0
  146.1557  137.6289  152.8073 C   0  0  0  0  0  0  0  0  0  0  0  0
  147.3233  138.2862  152.9698 N   0  0  0  0  0  0  0  0  0  0  0  0
  147.6058  139.5870  153.4791 C   0  0  0  0  0  0  0  0  0  0  0  0
  146.8029  140.6526  153.3590 N   0  0  0  0  0  0  0  0  0  0  0  0
  147.3565  141.7981  153.9365 C   0  0  0  0  0  0  0  0  0  0  0  0
  148.5953  141.5894  154.4889 C   0  0  0  0  0  0  0  0  0  0  0  0
  149.1188  139.9369  154.3034 S   0  0  0  0  0  0  0  0  0  0  0  0
  146.2408  136.3917  152.2902 N   0  0  0  0  0  0  0  0  0  0  0  0
  145.1217  135.4806  152.0626 C   0  0  1  0  0  0  0  0  0  0  0  0
  144.7207  135.3869  150.5775 C   0  0  0  0  0  0  0  0  0  0  0  0
  144.4572  133.8968  150.3387 C   0  0  0  0  0  0  0  0  0  0  0  0
  145.4119  133.2461  151.2432 N   0  3  2  0  0  0  0  0  0  0  0  0
  145.2881  131.7925  151.4738 C   0  0  0  0  0  0  0  0  0  0  0  0
  146.5040  131.3246  152.3025 C   0  0  0  0  0  0  0  0  0  0  0  0
  146.6923  132.1614  153.5884 C   0  0  0  0  0  0  0  0  0  0  0  0
  146.6834  133.6768  153.2929 C   0  0  0  0  0  0  0  0  0  0  0  0
  145.4142  134.0242  152.4938 C   0  0  1  0  0  0  0  0  0  0  0  0
  148.1311  137.7980  152.6108 H   0  0  0  0  0  0  0  0  0  0  0  0
  146.7997  142.7231  153.9074 H   0  0  0  0  0  0  0  0  0  0  0  0
  149.2306  142.3053  154.9895 H   0  0  0  0  0  0  0  0  0  0  0  0
  147.1623  136.0492  152.0569 H   0  0  0  0  0  0  0  0  0  0  0  0
  144.2531  135.8354  152.6210 H   0  0  0  0  0  0  0  0  0  0  0  0
  143.8568  136.0066  150.3351 H   0  0  0  0  0  0  0  0  0  0  0  0
  145.5458  135.7112  149.9410 H   0  0  0  0  0  0  0  0  0  0  0  0
  143.4379  133.6354  150.6275 H   0  0  0  0  0  0  0  0  0  0  0  0
  144.6113  133.6021  149.3002 H   0  0  0  0  0  0  0  0  0  0  0  0
  144.3546  131.5721  151.9934 H   0  0  0  0  0  0  0  0  0  0  0  0
  145.2594  131.2682  150.5181 H   0  0  0  0  0  0  0  0  0  0  0  0
  146.4004  130.2688  152.5547 H   0  0  0  0  0  0  0  0  0  0  0  0
  147.4044  131.4061  151.6918 H   0  0  0  0  0  0  0  0  0  0  0  0
  145.8893  131.9273  154.2885 H   0  0  0  0  0  0  0  0  0  0  0  0
  147.6222  131.8820  154.0848 H   0  0  0  0  0  0  0  0  0  0  0  0
  146.7121  134.2352  154.2290 H   0  0  0  0  0  0  0  0  0  0  0  0
  147.5758  133.9526  152.7291 H   0  0  0  0  0  0  0  0  0  0  0  0
  144.5514  133.7016  153.0810 H   0  0  0  0  0  0  0  0  0  0  0  0
  146.3191  133.3926  150.8242 H   0  0  0  0  0  0  0  0  0  0  0  0
  1  2  2  0  0  0  0
  2  3  1  0  0  0  0
  2  9  1  0  0  0  0
  3  4  1  0  0  0  0
  3 19  1  0  0  0  0
  4  8  1  0  0  0  0
  4  5  2  0  0  0  0
  5  6  1  0  0  0  0
  6  7  2  0  0  0  0
  6 20  1  0  0  0  0
  7  8  1  0  0  0  0
  7 21  1  0  0  0  0
  9 10  1  0  0  0  0
  9 22  1  0  0  0  0
 10 18  1  0  0  0  0
 10 11  1  0  0  0  0
 10 23  1  0  0  0  0
 11 12  1  0  0  0  0
 11 24  1  0  0  0  0
 11 25  1  0  0  0  0
 12 13  1  0  0  0  0
 12 26  1  0  0  0  0
 12 27  1  0  0  0  0
 13 18  1  0  0  0  0
 13 14  1  0  0  0  0
 13 37  1  0  0  0  0
 14 15  1  0  0  0  0
 14 28  1  0  0  0  0
 14 29  1  0  0  0  0
 15 16  1  0  0  0  0
 15 30  1  0  0  0  0
 15 31  1  0  0  0  0
 16 17  1  0  0  0  0
 16 32  1  0  0  0  0
 16 33  1  0  0  0  0
 17 18  1  0  0  0  0
 17 34  1  0  0  0  0
 17 35  1  0  0  0  0
 18 36  1  0  0  0  0
M  CHG  1  13   1
M  END
> <s_m_source_file>
AV-unprocessed.smi

> <i_m_source_file_index>
1965

> <i_lp_mmshare_version>
43012

> <i_f3d_flags>
0

> <s_epik_input>
czFbY0hdW2NIXW5jMVtOSF1DKD1PKVtOSF1bQ0BIXShbQ0gyXVtDSDJdMilbQ0BASF0oTjIzKVtDSDJdW0NIMl1bQ0gyXVtDSDJdMw==

> <s_epik_cmdline>
J2VwaWtfcHl0aG9uJywgJy1waCcsICc3LjAnLCAnLXRuJywgJzgnLCAnLW1hJywgJzIwMCcsICctbWV0YWxfYmluZGluZycsICctaW1hZScsICc8aW5maWxlLm1hZT4nLCAnLW9tYWUnLCAnPG91dGZpbGUubWFlPic=

> <r_lp_tautomer_probability>
1

> <r_epik_Ionization_Penalty>
0.00125962

> <r_epik_Ionization_Penalty_Charging>
0.00107044

> <r_epik_Ionization_Penalty_Neutral>
0.000189176

> <r_epik_State_Penalty>
-0

> <r_epik_Charging_Adjusted_Penalty>
0.00107044

> <i_epik_Tot_Q>
1

> <i_epik_Tot_abs_Q>
1

> <r_epik_Metal_State_Penalty>
0.0179285

> <b_epik_Metal_Only>
0

> <s_lp_Force_Field>
OPLS_2005

> <r_lp_Energy>
42.2865

> <b_lp_Chiralities_Consistent>
1

> <s_lp_Variant>
AV-unprocessed.smi:1965-4

> <Gold.Version>
5.8.1

> <Gold.Id.Protein>
6NUR|6NUR_protein|mol2

> <Gold.PLP.Fitness>
35.7662

> <Gold.PLP.PLP>
-27.5821

> <Gold.PLP.part.hbond>
-2.0000

> <Gold.PLP.part.metal>
0.0000

> <Gold.PLP.part.buried>
-3.8803

> <Gold.PLP.part.nonpolar>
-24.1389

> <Gold.PLP.part.repulsive>
2.5840

> <Gold.PLP.ligand.clash>
0.0000

> <Gold.PLP.ligand.torsion>
0.4085

> <Gold.PLP.Chemscore.Hbond>
2.0000

> <Gold.PLP.Chemscore.CHOScore>
1.0000

> <Gold.PLP.Chemscore.Metal>
0.0000

> <Gold.Chemscore.Hbonds>
donor molecule, donor type, donor heavy atom, donor atom, acceptor molecule, acceptor atom, score
      L1  H     3    19       P1  7948  1.00
      L1  H     9    22       P1  7948  1.00
      L1  C     7    21       P1  8028  1.00

> <Gold.PLP.Chemscore.Internal.Correction>
0.0012

> <Gold.Rescore>
     Score         DG    S(hbond)    S(metal)    S(lipo)     H(rot)  DE(clash)    DE(int)     intcor
     15.47     -16.68       1.90        0.00      63.42       1.00       0.01       1.19       ----

> <Gold.Chemscore.Fitness>
15.4749

> <Gold.Chemscore.DG>
-16.6791

> <Gold.Chemscore.ZeroCoef>
-5.4800

> <Gold.Chemscore.Hbond>
1.8979

> <Gold.Chemscore.Metal>
0.0000

> <Gold.Chemscore.Lipo>
63.4197

> <Gold.Chemscore.Internal_Hbond>
0.0000

> <Gold.Chemscore.DEClash>
0.0135

> <Gold.Chemscore.DEInternal>
1.1907

> <Gold.Chemscore.Rot>
1.0000

> <Gold.Chemscore.Internal.Correction>
   9.000000E+99

> <Gold.Chemscore.Hbonds>
donor molecule, donor type, donor heavy atom, donor atom, acceptor molecule, acceptor atom, score
      L1  H     3    19       P1  7948  0.96
      L1  H     9    22       P1  7948  0.98

> <Gold.Chemscore.Hbond.Weighted>
-6.3390

> <Gold.Chemscore.Metal.Weighted>
-0.0000

> <Gold.Chemscore.Lipo.Weighted>
-7.4201

> <Gold.Chemscore.Internal_Hbond.Weighted>
0.0000

> <Gold.Chemscore.DEClash.Weighted>
0.0135

> <Gold.Chemscore.DEInternal.Weighted>
1.1907

> <Gold.Chemscore.Rot.Weighted>
2.5600

> <Gold.Chemscore.Internal.Correction.Weighted>
   9.000000E+99

> <Gold.Protein.RotatedTorsions>
[ 6907 6896 6895 6894 ] final  -53.40 input  -60.11 | X-H torsion
[ 7974 7965 7964 7962 ] final   61.97 input  175.53 | X-H torsion
[ 8008 7997 7996 7995 ] final -174.87 input   59.86 | X-H torsion
[ 10167 10162 10161 10158 ] final  -12.36 input  -65.29 | X-H torsion
[ 10718 10713 10712 10709 ] final  -52.95 input   66.30 | X-H torsion
[ 10763 10752 10751 10750 ] final -161.01 input  -60.55 | X-H torsion
[ 11005 11000 10999 10996 ] final  -87.75 input  -57.11 | X-H torsion

> <Gold.Protein.ActiveResidues>
 VAL166  LYS551  ARG553  GLY616  TRP617  ASP618  TYR619  PRO620  LYS621  CYS622 
 ASP623  PHE694  ASN695  SER759  ASP760  ASP761  ALA762  ILE779  LEU786  VAL792 
 PHE793  MET794  SER795  GLU796  ALA797  LYS798  CYS799  TRP800  GLU811  SER814 

> <Gold.Protein.RotatedAtoms>
  150.8430  134.7729  159.6947 H   0  0  0  0  0  0  0  0  0  0  0  0  # atno 6907 bound_to 6896
  152.4513  134.5384  159.9841 H   0  0  0  0  0  0  0  0  0  0  0  0  # atno 6908 bound_to 6896
  151.5520  133.3378  159.2990 H   0  0  0  0  0  0  0  0  0  0  0  0  # atno 6909 bound_to 6896
  145.8787  139.3428  143.0719 H   0  0  0  0  0  0  0  0  0  0  0  0  # atno 7974 bound_to 7965
  155.9755  140.1171  157.0774 H   0  0  0  0  0  0  0  0  0  0  0  0  # atno 8008 bound_to 7997
  154.4168  140.1155  156.5432 H   0  0  0  0  0  0  0  0  0  0  0  0  # atno 8009 bound_to 7997
  155.6540  140.3473  155.4760 H   0  0  0  0  0  0  0  0  0  0  0  0  # atno 8010 bound_to 7997
  140.7159  143.5540  150.9269 H   0  0  0  0  0  0  0  0  0  0  0  0  # atno 10167 bound_to 10162
  156.1577  130.4150  149.9843 H   0  0  0  0  0  0  0  0  0  0  0  0  # atno 10718 bound_to 10713
  154.7340  135.3053  154.8842 H   0  0  0  0  0  0  0  0  0  0  0  0  # atno 10763 bound_to 10752
  153.9676  135.6745  153.4750 H   0  0  0  0  0  0  0  0  0  0  0  0  # atno 10764 bound_to 10752
  153.0945  135.4942  154.8675 H   0  0  0  0  0  0  0  0  0  0  0  0  # atno 10765 bound_to 10752
  141.1612  133.7530  156.9352 H   0  0  0  0  0  0  0  0  0  0  0  0  # atno 11005 bound_to 11000
  145.9050  140.9218  143.0483 LP  0  0  0  0  0  0  0  0  0  0  0  0  # atno 17320 bound_to 7965
  144.6727  140.1083  143.7457 LP  0  0  0  0  0  0  0  0  0  0  0  0  # atno 17321 bound_to 7965
  139.9265  143.6544  152.3086 LP  0  0  0  0  0  0  0  0  0  0  0  0  # atno 17342 bound_to 10162
  139.6979  144.7639  151.1323 LP  0  0  0  0  0  0  0  0  0  0  0  0  # atno 17343 bound_to 10162
  156.7682  130.9176  151.3643 LP  0  0  0  0  0  0  0  0  0  0  0  0  # atno 17370 bound_to 10713
  157.6708  130.9049  150.0035 LP  0  0  0  0  0  0  0  0  0  0  0  0  # atno 17371 bound_to 10713
  140.1359  134.9325  157.2401 LP  0  0  0  0  0  0  0  0  0  0  0  0  # atno 17394 bound_to 11000
  140.2896  134.3256  155.7319 LP  0  0  0  0  0  0  0  0  0  0  0  0  # atno 17395 bound_to 11000

$$$$
