AV-unprocessed.smi:1843|AV-procd|sdf|7502|dock10
  -GOLD-   22720 9203D 1   1.00000     0.00000
 Structure written by MMmdl.
 37 39  0  0  0  0  0  0  0  0  1 V2000
  151.6234  138.8578  158.9606 O   0  0  0  0  0  0  0  0  0  0  0  0
  150.5374  139.3226  158.6133 C   0  0  0  0  0  0  0  0  0  0  0  0
  149.3765  138.6454  158.5770 N   0  0  0  0  0  0  0  0  0  0  0  0
  149.1384  137.2884  158.9212 C   0  0  0  0  0  0  0  0  0  0  0  0
  149.8483  136.2610  158.4351 N   0  0  0  0  0  0  0  0  0  0  0  0
  149.4073  135.0440  158.9357 N   0  0  0  0  0  0  0  0  0  0  0  0
  148.3816  135.1847  159.7838 C   0  0  0  0  0  0  0  0  0  0  0  0
  147.7371  134.0177  160.4545 C   0  0  0  0  0  0  0  0  0  0  0  0
  146.4851  134.1755  161.2897 C   0  0  0  0  0  0  0  0  0  0  0  0
  147.7992  133.8582  161.9562 C   0  0  0  0  0  0  0  0  0  0  0  0
  147.8594  136.8468  160.0390 S   0  0  0  0  0  0  0  0  0  0  0  0
  150.3706  140.5927  158.2168 N   0  0  0  0  0  0  0  0  0  0  0  0
  151.4268  141.6009  158.1476 C   0  0  2  0  0  0  0  0  0  0  0  0
  151.9480  141.9328  159.5591 C   0  0  0  0  0  0  0  0  0  0  0  0
  153.0727  142.9791  159.5024 C   0  0  0  0  0  0  0  0  0  0  0  0
  152.6158  144.2531  158.7740 C   0  0  0  0  0  0  0  0  0  0  0  0
  152.0769  143.9366  157.3666 C   0  0  0  0  0  0  0  0  0  0  0  0
  150.9629  142.8718  157.3938 C   0  0  2  0  0  0  0  0  0  0  0  0
  149.8094  143.4256  158.0002 O   0  0  0  0  0  0  0  0  0  0  0  0
  148.5654  139.1623  158.2711 H   0  0  0  0  0  0  0  0  0  0  0  0
  147.8299  133.1230  159.8419 H   0  0  0  0  0  0  0  0  0  0  0  0
  146.0841  135.1767  161.4349 H   0  0  0  0  0  0  0  0  0  0  0  0
  145.7441  133.3806  161.2363 H   0  0  0  0  0  0  0  0  0  0  0  0
  147.9353  132.8525  162.3488 H   0  0  0  0  0  0  0  0  0  0  0  0
  148.2750  134.6511  162.5299 H   0  0  0  0  0  0  0  0  0  0  0  0
  149.4444  140.8900  157.9470 H   0  0  0  0  0  0  0  0  0  0  0  0
  152.2627  141.1692  157.5930 H   0  0  0  0  0  0  0  0  0  0  0  0
  151.1341  142.3051  160.1827 H   0  0  0  0  0  0  0  0  0  0  0  0
  152.3171  141.0277  160.0429 H   0  0  0  0  0  0  0  0  0  0  0  0
  153.4009  143.2263  160.5124 H   0  0  0  0  0  0  0  0  0  0  0  0
  153.9384  142.5565  158.9908 H   0  0  0  0  0  0  0  0  0  0  0  0
  151.8429  144.7507  159.3608 H   0  0  0  0  0  0  0  0  0  0  0  0
  153.4456  144.9565  158.7023 H   0  0  0  0  0  0  0  0  0  0  0  0
  151.7168  144.8490  156.8897 H   0  0  0  0  0  0  0  0  0  0  0  0
  152.8983  143.5753  156.7464 H   0  0  0  0  0  0  0  0  0  0  0  0
  150.6975  142.6149  156.3675 H   0  0  0  0  0  0  0  0  0  0  0  0
  149.2731  143.8092  157.3234 H   0  0  0  0  0  0  0  0  0  0  0  0
  1  2  2  0  0  0  0
  2  3  1  0  0  0  0
  2 12  1  0  0  0  0
  3  4  1  0  0  0  0
  3 20  1  0  0  0  0
  4 11  1  0  0  0  0
  4  5  2  0  0  0  0
  5  6  1  0  0  0  0
  6  7  2  0  0  0  0
  7  8  1  0  0  0  0
  7 11  1  0  0  0  0
  8 10  1  0  0  0  0
  8  9  1  0  0  0  0
  8 21  1  0  0  0  0
  9 10  1  0  0  0  0
  9 22  1  0  0  0  0
  9 23  1  0  0  0  0
 10 24  1  0  0  0  0
 10 25  1  0  0  0  0
 12 13  1  0  0  0  0
 12 26  1  0  0  0  0
 13 18  1  0  0  0  0
 13 14  1  0  0  0  0
 13 27  1  0  0  0  0
 14 15  1  0  0  0  0
 14 28  1  0  0  0  0
 14 29  1  0  0  0  0
 15 16  1  0  0  0  0
 15 30  1  0  0  0  0
 15 31  1  0  0  0  0
 16 17  1  0  0  0  0
 16 32  1  0  0  0  0
 16 33  1  0  0  0  0
 17 18  1  0  0  0  0
 17 34  1  0  0  0  0
 17 35  1  0  0  0  0
 18 19  1  0  0  0  0
 18 36  1  0  0  0  0
 19 37  1  0  0  0  0
M  END
> <s_m_source_file>
AV-unprocessed.smi

> <i_m_source_file_index>
1843

> <i_lp_mmshare_version>
43012

> <i_f3d_flags>
0

> <s_epik_input>
W09IXVtDQEBIXTFbQ0gyXVtDSDJdW0NIMl1bQ0gyXVtDQEhdMVtOSF1DKD1PKVtOSF1jMm5uYyhzMilbQ0hdM1tDSDJdW0NIMl0z

> <s_epik_cmdline>
J2VwaWtfcHl0aG9uJywgJy1waCcsICc3LjAnLCAnLXRuJywgJzgnLCAnLW1hJywgJzIwMCcsICctbWV0YWxfYmluZGluZycsICctaW1hZScsICc8aW5maWxlLm1hZT4nLCAnLW9tYWUnLCAnPG91dGZpbGUubWFlPic=

> <r_lp_tautomer_probability>
1

> <r_epik_Ionization_Penalty>
0.000257313

> <r_epik_Ionization_Penalty_Charging>
0

> <r_epik_Ionization_Penalty_Neutral>
0.000257313

> <r_epik_State_Penalty>
-0

> <r_epik_Charging_Adjusted_Penalty>
0

> <i_epik_Tot_Q>
0

> <i_epik_Tot_abs_Q>
0

> <r_epik_Metal_State_Penalty>
0.147479

> <b_epik_Metal_Only>
0

> <s_lp_Force_Field>
OPLS_2005

> <r_lp_Energy>
10.7354

> <b_lp_Chiralities_Consistent>
1

> <s_lp_Variant>
AV-unprocessed.smi:1843-3

> <Gold.Version>
5.8.1

> <Gold.Id.Protein>
6NUR|6NUR_protein|mol2

> <Gold.PLP.Fitness>
37.4500

> <Gold.PLP.PLP>
-32.5119

> <Gold.PLP.part.hbond>
-2.9643

> <Gold.PLP.part.metal>
0.0000

> <Gold.PLP.part.buried>
-3.7579

> <Gold.PLP.part.nonpolar>
-25.8706

> <Gold.PLP.part.repulsive>
0.3690

> <Gold.PLP.ligand.clash>
0.0000

> <Gold.PLP.ligand.torsion>
0.6009

> <Gold.PLP.Chemscore.Hbond>
2.0000

> <Gold.PLP.Chemscore.CHOScore>
0.0000

> <Gold.PLP.Chemscore.Metal>
0.0000

> <Gold.Chemscore.Hbonds>
donor molecule, donor type, donor heavy atom, donor atom, acceptor molecule, acceptor atom, score
      L1  H    19    37       P1  8028  1.00
      P1  H  6896  6908       L1     6  0.99

> <Gold.PLP.Chemscore.Internal.Correction>
0.1400

> <Gold.Rescore>
     Score         DG    S(hbond)    S(metal)    S(lipo)     H(rot)  DE(clash)    DE(int)     intcor
     15.59     -17.64       1.65        0.00      94.89       1.74       1.39       0.66       ----

> <Gold.Chemscore.Fitness>
15.5917

> <Gold.Chemscore.DG>
-17.6445

> <Gold.Chemscore.ZeroCoef>
-5.4800

> <Gold.Chemscore.Hbond>
1.6521

> <Gold.Chemscore.Metal>
0.0000

> <Gold.Chemscore.Lipo>
94.8877

> <Gold.Chemscore.Internal_Hbond>
0.0000

> <Gold.Chemscore.DEClash>
1.3918

> <Gold.Chemscore.DEInternal>
0.6610

> <Gold.Chemscore.Rot>
1.7404

> <Gold.Chemscore.Internal.Correction>
   9.000000E+99

> <Gold.Chemscore.Hbonds>
donor molecule, donor type, donor heavy atom, donor atom, acceptor molecule, acceptor atom, score
      L1  H    19    37       P1  8028  0.34
      P1  H  6896  6908       L1     6  0.60

> <Gold.Chemscore.Hbond.Weighted>
-5.5181

> <Gold.Chemscore.Metal.Weighted>
-0.0000

> <Gold.Chemscore.Lipo.Weighted>
-11.1019

> <Gold.Chemscore.Internal_Hbond.Weighted>
0.0000

> <Gold.Chemscore.DEClash.Weighted>
1.3918

> <Gold.Chemscore.DEInternal.Weighted>
0.6610

> <Gold.Chemscore.Rot.Weighted>
4.4555

> <Gold.Chemscore.Internal.Correction.Weighted>
   9.000000E+99

> <Gold.Protein.RotatedTorsions>
[ 6907 6896 6895 6894 ] final  144.43 input  -60.11 | X-H torsion
[ 7974 7965 7964 7962 ] final  138.53 input  175.53 | X-H torsion
[ 8008 7997 7996 7995 ] final   17.93 input   59.86 | X-H torsion
[ 10167 10162 10161 10158 ] final  -74.64 input  -65.29 | X-H torsion
[ 10718 10713 10712 10709 ] final  176.25 input   66.30 | X-H torsion
[ 10763 10752 10751 10750 ] final  -72.91 input  -60.55 | X-H torsion
[ 11005 11000 10999 10996 ] final  -67.79 input  -57.11 | X-H torsion

> <Gold.Protein.ActiveResidues>
 VAL166  LYS551  ARG553  GLY616  TRP617  ASP618  TYR619  PRO620  LYS621  CYS622 
 ASP623  PHE694  ASN695  SER759  ASP760  ASP761  ALA762  ILE779  LEU786  VAL792 
 PHE793  MET794  SER795  GLU796  ALA797  LYS798  CYS799  TRP800  GLU811  SER814 

> <Gold.Protein.RotatedAtoms>
  152.1937  133.4791  159.5021 H   0  0  0  0  0  0  0  0  0  0  0  0  # atno 6907 bound_to 6896
  150.6956  134.1679  159.4210 H   0  0  0  0  0  0  0  0  0  0  0  0  # atno 6908 bound_to 6896
  151.9594  135.0130  160.0597 H   0  0  0  0  0  0  0  0  0  0  0  0  # atno 6909 bound_to 6896
  144.9363  139.4985  143.5593 H   0  0  0  0  0  0  0  0  0  0  0  0  # atno 7974 bound_to 7965
  154.8985  140.2997  155.5330 H   0  0  0  0  0  0  0  0  0  0  0  0  # atno 8008 bound_to 7997
  156.3019  140.2411  156.3945 H   0  0  0  0  0  0  0  0  0  0  0  0  # atno 8009 bound_to 7997
  154.8545  140.0408  157.1614 H   0  0  0  0  0  0  0  0  0  0  0  0  # atno 8010 bound_to 7997
  140.5010  143.2361  151.7752 H   0  0  0  0  0  0  0  0  0  0  0  0  # atno 10167 bound_to 10162
  156.9229  130.9946  151.3001 H   0  0  0  0  0  0  0  0  0  0  0  0  # atno 10718 bound_to 10713
  154.4523  135.5914  153.6199 H   0  0  0  0  0  0  0  0  0  0  0  0  # atno 10763 bound_to 10752
  152.9815  135.6024  154.3590 H   0  0  0  0  0  0  0  0  0  0  0  0  # atno 10764 bound_to 10752
  154.3452  135.2841  155.2380 H   0  0  0  0  0  0  0  0  0  0  0  0  # atno 10765 bound_to 10752
  141.1517  133.6726  156.6347 H   0  0  0  0  0  0  0  0  0  0  0  0  # atno 11005 bound_to 11000
  146.3268  139.8350  142.8901 LP  0  0  0  0  0  0  0  0  0  0  0  0  # atno 17320 bound_to 7965
  145.3061  141.0207  143.3581 LP  0  0  0  0  0  0  0  0  0  0  0  0  # atno 17321 bound_to 7965
  139.4872  144.4521  151.9641 LP  0  0  0  0  0  0  0  0  0  0  0  0  # atno 17342 bound_to 10162
  140.3610  144.2972  150.5933 LP  0  0  0  0  0  0  0  0  0  0  0  0  # atno 17343 bound_to 10162
  157.5896  130.8434  149.8640 LP  0  0  0  0  0  0  0  0  0  0  0  0  # atno 17370 bound_to 10713
  156.0483  130.3723  150.1264 LP  0  0  0  0  0  0  0  0  0  0  0  0  # atno 17371 bound_to 10713
  140.3439  134.7825  157.4418 LP  0  0  0  0  0  0  0  0  0  0  0  0  # atno 17394 bound_to 11000
  140.0915  134.5594  155.8439 LP  0  0  0  0  0  0  0  0  0  0  0  0  # atno 17395 bound_to 11000

$$$$
