AV-unprocessed.smi:2076|AV-procd|sdf|8459|dock8
  -GOLD-   2272011153D 1   1.00000     0.00000
 Structure written by MMmdl.
 45 46  0  0  0  0  0  0  0  0  2 V2000
  153.4678  140.3204  160.1825 C   0  0  0  0  0  0  0  0  0  0  0  0
  152.8543  141.4376  159.3914 C   0  0  0  0  0  0  0  0  0  0  0  0
  152.8985  142.8346  159.6586 C   0  0  0  0  0  0  0  0  0  0  0  0
  152.1929  143.3971  158.6327 C   0  0  0  0  0  0  0  0  0  0  0  0
  151.8900  144.8310  158.3452 C   0  0  0  0  0  0  0  0  0  0  0  0
  151.7659  142.3598  157.8227 N   0  0  0  0  0  0  0  0  0  0  0  0
  150.9963  142.4154  156.5889 C   0  0  0  0  0  0  0  0  0  0  0  0
  150.0834  141.1952  156.4588 C   0  0  0  0  0  0  0  0  0  0  0  0
  149.4508  140.7873  157.4323 O   0  0  0  0  0  0  0  0  0  0  0  0
  150.0159  140.6313  155.2447 N   0  0  0  0  0  0  0  0  0  0  0  0
  149.1388  139.5239  154.8900 C   0  0  0  0  0  0  0  0  0  0  0  0
  148.3626  139.7990  153.5751 C   0  0  2  0  0  0  0  0  0  0  0  0
  147.4721  141.0549  153.7275 C   0  0  0  0  0  0  0  0  0  0  0  0
  147.5380  138.6355  153.1097 N   0  3  0  0  0  0  0  0  0  0  0  0
  146.7164  138.0438  154.2008 C   0  0  0  0  0  0  0  0  0  0  0  0
  145.9638  136.7955  153.7129 C   0  0  0  0  0  0  0  0  0  0  0  0
  145.1402  137.1418  152.6097 O   0  0  0  0  0  0  0  0  0  0  0  0
  145.9098  137.6151  151.5145 C   0  0  0  0  0  0  0  0  0  0  0  0
  146.6764  138.8859  151.9208 C   0  0  0  0  0  0  0  0  0  0  0  0
  152.1749  141.1595  158.2908 N   0  0  0  0  0  0  0  0  0  0  0  0
  153.9206  140.6919  161.1020 H   0  0  0  0  0  0  0  0  0  0  0  0
  154.2465  139.8164  159.6095 H   0  0  0  0  0  0  0  0  0  0  0  0
  152.7204  139.5763  160.4587 H   0  0  0  0  0  0  0  0  0  0  0  0
  153.3793  143.3471  160.4786 H   0  0  0  0  0  0  0  0  0  0  0  0
  152.3219  145.4801  159.1070 H   0  0  0  0  0  0  0  0  0  0  0  0
  150.8142  145.0060  158.3276 H   0  0  0  0  0  0  0  0  0  0  0  0
  152.2995  145.1291  157.3800 H   0  0  0  0  0  0  0  0  0  0  0  0
  150.3998  143.3291  156.5724 H   0  0  0  0  0  0  0  0  0  0  0  0
  151.6803  142.4683  155.7414 H   0  0  0  0  0  0  0  0  0  0  0  0
  150.5739  141.0338  154.5050 H   0  0  0  0  0  0  0  0  0  0  0  0
  149.7732  138.6418  154.7946 H   0  0  0  0  0  0  0  0  0  0  0  0
  148.4382  139.3404  155.7067 H   0  0  0  0  0  0  0  0  0  0  0  0
  149.1096  140.0019  152.8056 H   0  0  0  0  0  0  0  0  0  0  0  0
  148.0492  141.9333  154.0175 H   0  0  0  0  0  0  0  0  0  0  0  0
  146.7066  140.9019  154.4887 H   0  0  0  0  0  0  0  0  0  0  0  0
  146.9670  141.3267  152.8025 H   0  0  0  0  0  0  0  0  0  0  0  0
  147.3336  137.7623  155.0516 H   0  0  0  0  0  0  0  0  0  0  0  0
  146.0017  138.7854  154.5614 H   0  0  0  0  0  0  0  0  0  0  0  0
  146.6595  136.0021  153.4342 H   0  0  0  0  0  0  0  0  0  0  0  0
  145.3348  136.4012  154.5114 H   0  0  0  0  0  0  0  0  0  0  0  0
  146.5971  136.8382  151.1752 H   0  0  0  0  0  0  0  0  0  0  0  0
  145.2405  137.8319  150.6819 H   0  0  0  0  0  0  0  0  0  0  0  0
  145.9757  139.6940  152.1373 H   0  0  0  0  0  0  0  0  0  0  0  0
  147.2748  139.1903  151.0625 H   0  0  0  0  0  0  0  0  0  0  0  0
  148.1967  137.9257  152.8218 H   0  0  0  0  0  0  0  0  0  0  0  0
  1  2  1  0  0  0  0
  1 21  1  0  0  0  0
  1 22  1  0  0  0  0
  1 23  1  0  0  0  0
  2 20  2  0  0  0  0
  2  3  1  0  0  0  0
  3  4  2  0  0  0  0
  3 24  1  0  0  0  0
  4  5  1  0  0  0  0
  4  6  1  0  0  0  0
  5 25  1  0  0  0  0
  5 26  1  0  0  0  0
  5 27  1  0  0  0  0
  6  7  1  0  0  0  0
  6 20  1  0  0  0  0
  7  8  1  0  0  0  0
  7 28  1  0  0  0  0
  7 29  1  0  0  0  0
  8  9  2  0  0  0  0
  8 10  1  0  0  0  0
 10 11  1  0  0  0  0
 10 30  1  0  0  0  0
 11 12  1  0  0  0  0
 11 31  1  0  0  0  0
 11 32  1  0  0  0  0
 12 13  1  0  0  0  0
 12 14  1  0  0  0  0
 12 33  1  0  0  0  0
 13 34  1  0  0  0  0
 13 35  1  0  0  0  0
 13 36  1  0  0  0  0
 14 19  1  0  0  0  0
 14 15  1  0  0  0  0
 14 45  1  0  0  0  0
 15 16  1  0  0  0  0
 15 37  1  0  0  0  0
 15 38  1  0  0  0  0
 16 17  1  0  0  0  0
 16 39  1  0  0  0  0
 16 40  1  0  0  0  0
 17 18  1  0  0  0  0
 18 19  1  0  0  0  0
 18 41  1  0  0  0  0
 18 42  1  0  0  0  0
 19 43  1  0  0  0  0
 19 44  1  0  0  0  0
M  CHG  1  14   1
M  END
> <s_m_source_file>
AV-unprocessed.smi

> <i_m_source_file_index>
2076

> <i_lp_mmshare_version>
43012

> <i_f3d_flags>
0

> <s_epik_input>
W0NIM11jMVtjSF1jKFtDSDNdKW4objEpW0NIMl1DKD1PKVtOSF1bQ0gyXVtDQEhdKFtDSDNdKU4yW0NIMl1bQ0gyXU9bQ0gyXVtDSDJdMg==

> <s_epik_cmdline>
J2VwaWtfcHl0aG9uJywgJy1waCcsICc3LjAnLCAnLXRuJywgJzgnLCAnLW1hJywgJzIwMCcsICctbWV0YWxfYmluZGluZycsICctaW1hZScsICc8aW5maWxlLm1hZT4nLCAnLW9tYWUnLCAnPG91dGZpbGUubWFlPic=

> <r_lp_tautomer_probability>
1

> <r_epik_Ionization_Penalty>
0.748594

> <r_epik_Ionization_Penalty_Charging>
0.748396

> <r_epik_Ionization_Penalty_Neutral>
0.000197403

> <r_epik_State_Penalty>
0.775162

> <r_epik_Charging_Adjusted_Penalty>
1.52356

> <i_epik_Tot_Q>
1

> <i_epik_Tot_abs_Q>
1

> <r_epik_Metal_State_Penalty>
0.77529

> <b_epik_Metal_Only>
0

> <s_lp_Force_Field>
OPLS_2005

> <r_lp_Energy>
18.1598

> <b_lp_Chiralities_Consistent>
1

> <s_lp_Variant>
AV-unprocessed.smi:2076-3

> <Gold.Version>
5.8.1

> <Gold.Id.Protein>
6NUR|6NUR_protein|mol2

> <Gold.PLP.Fitness>
40.9664

> <Gold.PLP.PLP>
-36.5162

> <Gold.PLP.part.hbond>
-2.0000

> <Gold.PLP.part.metal>
0.0000

> <Gold.PLP.part.buried>
4.3609

> <Gold.PLP.part.nonpolar>
-38.6687

> <Gold.PLP.part.repulsive>
0.5076

> <Gold.PLP.ligand.clash>
0.0000

> <Gold.PLP.ligand.torsion>
0.7977

> <Gold.PLP.Chemscore.Hbond>
2.0000

> <Gold.PLP.Chemscore.CHOScore>
0.0000

> <Gold.PLP.Chemscore.Metal>
0.0000

> <Gold.Chemscore.Hbonds>
donor molecule, donor type, donor heavy atom, donor atom, acceptor molecule, acceptor atom, score
      L1  H    14    45       P1  7948  1.79

> <Gold.PLP.Chemscore.Internal.Correction>
0.0454

> <Gold.Rescore>
     Score         DG    S(hbond)    S(metal)    S(lipo)     H(rot)  DE(clash)    DE(int)     intcor
     12.43     -16.49       0.89        0.00     107.60       1.78       1.96       2.10       ----

> <Gold.Chemscore.Fitness>
12.4281

> <Gold.Chemscore.DG>
-16.4920

> <Gold.Chemscore.ZeroCoef>
-5.4800

> <Gold.Chemscore.Hbond>
0.8889

> <Gold.Chemscore.Metal>
0.0000

> <Gold.Chemscore.Lipo>
107.6035

> <Gold.Chemscore.Internal_Hbond>
0.0000

> <Gold.Chemscore.DEClash>
1.9645

> <Gold.Chemscore.DEInternal>
2.0995

> <Gold.Chemscore.Rot>
1.7760

> <Gold.Chemscore.Internal.Correction>
   9.000000E+99

> <Gold.Chemscore.Hbonds>
donor molecule, donor type, donor heavy atom, donor atom, acceptor molecule, acceptor atom, score
      L1  H    14    45       P1  7948  0.87

> <Gold.Chemscore.Hbond.Weighted>
-2.9689

> <Gold.Chemscore.Metal.Weighted>
-0.0000

> <Gold.Chemscore.Lipo.Weighted>
-12.5896

> <Gold.Chemscore.Internal_Hbond.Weighted>
0.0000

> <Gold.Chemscore.DEClash.Weighted>
1.9645

> <Gold.Chemscore.DEInternal.Weighted>
2.0995

> <Gold.Chemscore.Rot.Weighted>
4.5464

> <Gold.Chemscore.Internal.Correction.Weighted>
   9.000000E+99

> <Gold.Protein.RotatedTorsions>
[ 6907 6896 6895 6894 ] final -155.95 input  -60.11 | X-H torsion
[ 7974 7965 7964 7962 ] final -102.50 input  175.53 | X-H torsion
[ 8008 7997 7996 7995 ] final   40.15 input   59.86 | X-H torsion
[ 10167 10162 10161 10158 ] final   -1.87 input  -65.29 | X-H torsion
[ 10718 10713 10712 10709 ] final  -11.37 input   66.30 | X-H torsion
[ 10763 10752 10751 10750 ] final   74.45 input  -60.55 | X-H torsion
[ 11005 11000 10999 10996 ] final   92.46 input  -57.11 | X-H torsion

> <Gold.Protein.ActiveResidues>
 VAL166  LYS551  ARG553  GLY616  TRP617  ASP618  TYR619  PRO620  LYS621  CYS622 
 ASP623  PHE694  ASN695  SER759  ASP760  ASP761  ALA762  ILE779  LEU786  VAL792 
 PHE793  MET794  SER795  GLU796  ALA797  LYS798  CYS799  TRP800  GLU811  SER814 

> <Gold.Protein.RotatedAtoms>
  151.2803  133.4213  159.2626 H   0  0  0  0  0  0  0  0  0  0  0  0  # atno 6907 bound_to 6896
  151.0367  134.9578  159.8150 H   0  0  0  0  0  0  0  0  0  0  0  0  # atno 6908 bound_to 6896
  152.5357  134.2762  159.9043 H   0  0  0  0  0  0  0  0  0  0  0  0  # atno 6909 bound_to 6896
  145.2680  140.9290  143.3003 H   0  0  0  0  0  0  0  0  0  0  0  0  # atno 7974 bound_to 7965
  155.2483  140.3350  155.4285 H   0  0  0  0  0  0  0  0  0  0  0  0  # atno 8008 bound_to 7997
  156.2226  140.1816  156.7483 H   0  0  0  0  0  0  0  0  0  0  0  0  # atno 8009 bound_to 7997
  154.5849  140.0647  156.9142 H   0  0  0  0  0  0  0  0  0  0  0  0  # atno 8010 bound_to 7997
  140.6828  143.6724  150.8174 H   0  0  0  0  0  0  0  0  0  0  0  0  # atno 10167 bound_to 10162
  156.6601  130.4979  149.6033 H   0  0  0  0  0  0  0  0  0  0  0  0  # atno 10718 bound_to 10713
  153.0587  135.5025  154.8044 H   0  0  0  0  0  0  0  0  0  0  0  0  # atno 10763 bound_to 10752
  154.6849  135.2974  154.9564 H   0  0  0  0  0  0  0  0  0  0  0  0  # atno 10764 bound_to 10752
  154.0337  135.6726  153.4836 H   0  0  0  0  0  0  0  0  0  0  0  0  # atno 10765 bound_to 10752
  139.8823  134.8734  156.3576 H   0  0  0  0  0  0  0  0  0  0  0  0  # atno 11005 bound_to 11000
  144.9360  139.4243  143.6472 LP  0  0  0  0  0  0  0  0  0  0  0  0  # atno 17320 bound_to 7965
  146.3255  139.8296  142.8911 LP  0  0  0  0  0  0  0  0  0  0  0  0  # atno 17321 bound_to 7965
  140.0427  143.5330  152.2710 LP  0  0  0  0  0  0  0  0  0  0  0  0  # atno 17342 bound_to 10162
  139.6163  144.7620  151.2840 LP  0  0  0  0  0  0  0  0  0  0  0  0  # atno 17343 bound_to 10162
  156.2018  130.6624  151.1175 LP  0  0  0  0  0  0  0  0  0  0  0  0  # atno 17370 bound_to 10713
  157.7112  131.0733  150.6492 LP  0  0  0  0  0  0  0  0  0  0  0  0  # atno 17371 bound_to 10713
  140.9552  133.7425  156.0325 LP  0  0  0  0  0  0  0  0  0  0  0  0  # atno 17394 bound_to 11000
  140.8058  134.3457  157.5426 LP  0  0  0  0  0  0  0  0  0  0  0  0  # atno 17395 bound_to 11000

$$$$
