AV-unprocessed.smi:1371|AV-procd|sdf|5581|dock4
  -GOLD-   22720 5183D 1   1.00000     0.00000
 Structure written by MMmdl.
 31 31  0  0  0  0  0  0  0  0  1 V2000
  152.4543  144.6306  158.3976 C   0  0  0  0  0  0  0  0  0  0  0  0
  151.5667  144.1330  159.5443 C   0  0  0  0  0  0  0  0  0  0  0  0
  152.4056  143.7428  160.7723 C   0  0  0  0  0  0  0  0  0  0  0  0
  150.8430  143.0128  159.0522 O   0  0  0  0  0  0  0  0  0  0  0  0
  151.6253  141.8468  158.8357 C   0  0  0  0  0  0  0  0  0  0  0  0
  151.0818  141.1057  157.6106 C   0  0  0  0  0  0  0  0  0  0  0  0
  150.6371  142.2579  156.2751 S   0  0  0  0  0  0  0  0  0  0  0  0
  149.5467  141.2808  155.2531 C   0  0  0  0  0  0  0  0  0  0  0  0
  148.2886  141.7054  155.0975 N   0  0  0  0  0  0  0  0  0  0  0  0
  147.4880  140.9485  154.3177 C   0  0  0  0  0  0  0  0  0  0  0  0
  146.1743  141.3765  154.1425 N   0  0  0  0  0  0  0  0  0  0  0  0
  147.9527  139.7690  153.6992 C   0  0  0  0  0  0  0  0  0  0  0  0
  149.2991  139.4257  153.9431 C   0  0  0  0  0  0  0  0  0  0  0  0
  149.8561  138.2804  153.3799 N   0  0  0  0  0  0  0  0  0  0  0  0
  150.0969  140.1853  154.7238 N   0  0  0  0  0  0  0  0  0  0  0  0
  153.0244  145.5112  158.6943 H   0  0  0  0  0  0  0  0  0  0  0  0
  151.8533  144.9023  157.5293 H   0  0  0  0  0  0  0  0  0  0  0  0
  153.1630  143.8631  158.0849 H   0  0  0  0  0  0  0  0  0  0  0  0
  150.8763  144.9351  159.8104 H   0  0  0  0  0  0  0  0  0  0  0  0
  153.0230  144.5784  161.1031 H   0  0  0  0  0  0  0  0  0  0  0  0
  153.0697  142.9084  160.5454 H   0  0  0  0  0  0  0  0  0  0  0  0
  151.7806  143.4523  161.6161 H   0  0  0  0  0  0  0  0  0  0  0  0
  152.6745  142.0978  158.6811 H   0  0  0  0  0  0  0  0  0  0  0  0
  151.5691  141.1967  159.7095 H   0  0  0  0  0  0  0  0  0  0  0  0
  151.8349  140.4101  157.2396 H   0  0  0  0  0  0  0  0  0  0  0  0
  150.2066  140.5198  157.8929 H   0  0  0  0  0  0  0  0  0  0  0  0
  145.8291  142.2189  154.5793 H   0  0  0  0  0  0  0  0  0  0  0  0
  145.5258  140.8585  153.5675 H   0  0  0  0  0  0  0  0  0  0  0  0
  147.3133  139.1623  153.0745 H   0  0  0  0  0  0  0  0  0  0  0  0
  149.3176  137.6671  152.7855 H   0  0  0  0  0  0  0  0  0  0  0  0
  150.8269  138.0432  153.5262 H   0  0  0  0  0  0  0  0  0  0  0  0
  1  2  1  0  0  0  0
  1 16  1  0  0  0  0
  1 17  1  0  0  0  0
  1 18  1  0  0  0  0
  2  3  1  0  0  0  0
  2  4  1  0  0  0  0
  2 19  1  0  0  0  0
  3 20  1  0  0  0  0
  3 21  1  0  0  0  0
  3 22  1  0  0  0  0
  4  5  1  0  0  0  0
  5  6  1  0  0  0  0
  5 23  1  0  0  0  0
  5 24  1  0  0  0  0
  6  7  1  0  0  0  0
  6 25  1  0  0  0  0
  6 26  1  0  0  0  0
  7  8  1  0  0  0  0
  8 15  1  0  0  0  0
  8  9  2  0  0  0  0
  9 10  1  0  0  0  0
 10 11  1  0  0  0  0
 10 12  2  0  0  0  0
 11 27  1  0  0  0  0
 11 28  1  0  0  0  0
 12 13  1  0  0  0  0
 12 29  1  0  0  0  0
 13 14  1  0  0  0  0
 13 15  2  0  0  0  0
 14 30  1  0  0  0  0
 14 31  1  0  0  0  0
M  END
> <s_m_source_file>
AV-unprocessed.smi

> <i_m_source_file_index>
1371

> <i_lp_mmshare_version>
43012

> <i_f3d_flags>
0

> <s_epik_input>
W0NIM11bQ0hdKFtDSDNdKU9bQ0gyXVtDSDJdU2MxbmMoW05IMl0pW2NIXWMobjEpW05IMl0=

> <s_epik_cmdline>
J2VwaWtfcHl0aG9uJywgJy1waCcsICc3LjAnLCAnLXRuJywgJzgnLCAnLW1hJywgJzIwMCcsICctbWV0YWxfYmluZGluZycsICctaW1hZScsICc8aW5maWxlLm1hZT4nLCAnLW9tYWUnLCAnPG91dGZpbGUubWFlPic=

> <r_lp_tautomer_probability>
1

> <r_epik_Ionization_Penalty>
0.00548925

> <r_epik_Ionization_Penalty_Charging>
0

> <r_epik_Ionization_Penalty_Neutral>
0.00548925

> <r_epik_State_Penalty>
0.0040157

> <r_epik_Charging_Adjusted_Penalty>
0.0040157

> <i_epik_Tot_Q>
0

> <i_epik_Tot_abs_Q>
0

> <r_epik_Metal_State_Penalty>
-0

> <b_epik_Metal_Only>
0

> <s_lp_Force_Field>
OPLS_2005

> <r_lp_Energy>
-2.92027

> <b_lp_Chiralities_Consistent>
1

> <s_lp_Variant>
AV-unprocessed.smi:1371-1

> <Gold.Version>
5.8.1

> <Gold.Id.Protein>
6NUR|6NUR_protein|mol2

> <Gold.PLP.Fitness>
37.3874

> <Gold.PLP.PLP>
-30.2131

> <Gold.PLP.part.hbond>
-4.1994

> <Gold.PLP.part.metal>
0.0000

> <Gold.PLP.part.buried>
-0.2101

> <Gold.PLP.part.nonpolar>
-26.6576

> <Gold.PLP.part.repulsive>
0.4759

> <Gold.PLP.ligand.clash>
0.0000

> <Gold.PLP.ligand.torsion>
0.4560

> <Gold.PLP.Chemscore.Hbond>
2.6825

> <Gold.PLP.Chemscore.CHOScore>
0.0000

> <Gold.PLP.Chemscore.Metal>
0.0000

> <Gold.Chemscore.Hbonds>
donor molecule, donor type, donor heavy atom, donor atom, acceptor molecule, acceptor atom, score
      L1  H    11    28       P1 10175  0.65
      L1  H    14    30       P1  7948  1.00
      P1  H  7989  7998       L1    15  0.89

> <Gold.PLP.Chemscore.Internal.Correction>
0.0388

> <Gold.Rescore>
     Score         DG    S(hbond)    S(metal)    S(lipo)     H(rot)  DE(clash)    DE(int)     intcor
     12.38     -13.95       2.02        0.00      68.75       2.47       1.14       0.43       ----

> <Gold.Chemscore.Fitness>
12.3808

> <Gold.Chemscore.DG>
-13.9466

> <Gold.Chemscore.ZeroCoef>
-5.4800

> <Gold.Chemscore.Hbond>
2.0203

> <Gold.Chemscore.Metal>
0.0000

> <Gold.Chemscore.Lipo>
68.7540

> <Gold.Chemscore.Internal_Hbond>
0.0000

> <Gold.Chemscore.DEClash>
1.1368

> <Gold.Chemscore.DEInternal>
0.4290

> <Gold.Chemscore.Rot>
2.4708

> <Gold.Chemscore.Internal.Correction>
   9.000000E+99

> <Gold.Chemscore.Hbonds>
donor molecule, donor type, donor heavy atom, donor atom, acceptor molecule, acceptor atom, score
      L1  H    11    28       P1 10175  0.52
      L1  H    14    30       P1  7948  0.91
      P1  H  7989  7998       L1    15  0.23

> <Gold.Chemscore.Hbond.Weighted>
-6.7477

> <Gold.Chemscore.Metal.Weighted>
-0.0000

> <Gold.Chemscore.Lipo.Weighted>
-8.0442

> <Gold.Chemscore.Internal_Hbond.Weighted>
0.0000

> <Gold.Chemscore.DEClash.Weighted>
1.1368

> <Gold.Chemscore.DEInternal.Weighted>
0.4290

> <Gold.Chemscore.Rot.Weighted>
6.3253

> <Gold.Chemscore.Internal.Correction.Weighted>
   9.000000E+99

> <Gold.Protein.RotatedTorsions>
[ 6907 6896 6895 6894 ] final  -89.71 input  -60.11 | X-H torsion
[ 7974 7965 7964 7962 ] final  -17.35 input  175.53 | X-H torsion
[ 8008 7997 7996 7995 ] final  100.88 input   59.86 | X-H torsion
[ 10167 10162 10161 10158 ] final  -63.60 input  -65.29 | X-H torsion
[ 10718 10713 10712 10709 ] final   34.60 input   66.30 | X-H torsion
[ 10763 10752 10751 10750 ] final  143.64 input  -60.55 | X-H torsion
[ 11005 11000 10999 10996 ] final  -11.94 input  -57.11 | X-H torsion

> <Gold.Protein.ActiveResidues>
 VAL166  LYS551  ARG553  GLY616  TRP617  ASP618  TYR619  PRO620  LYS621  CYS622 
 ASP623  PHE694  ASN695  SER759  ASP760  ASP761  ALA762  ILE779  LEU786  VAL792 
 PHE793  MET794  SER795  GLU796  ALA797  LYS798  CYS799  TRP800  GLU811  SER814 

> <Gold.Protein.RotatedAtoms>
  150.6876  134.2545  159.4524 H   0  0  0  0  0  0  0  0  0  0  0  0  # atno 6907 bound_to 6896
  152.0480  134.9668  160.0584 H   0  0  0  0  0  0  0  0  0  0  0  0  # atno 6908 bound_to 6896
  152.1144  133.4283  159.4683 H   0  0  0  0  0  0  0  0  0  0  0  0  # atno 6909 bound_to 6896
  146.1945  140.3767  142.8446 H   0  0  0  0  0  0  0  0  0  0  0  0  # atno 7974 bound_to 7965
  156.1246  140.3206  155.8258 H   0  0  0  0  0  0  0  0  0  0  0  0  # atno 8008 bound_to 7997
  155.4444  140.0528  157.3024 H   0  0  0  0  0  0  0  0  0  0  0  0  # atno 8009 bound_to 7997
  154.4852  140.2070  155.9684 H   0  0  0  0  0  0  0  0  0  0  0  0  # atno 8010 bound_to 7997
  140.5860  143.2334  151.6242 H   0  0  0  0  0  0  0  0  0  0  0  0  # atno 10167 bound_to 10162
  157.3124  130.7406  149.6733 H   0  0  0  0  0  0  0  0  0  0  0  0  # atno 10718 bound_to 10713
  153.9757  135.2946  155.3424 H   0  0  0  0  0  0  0  0  0  0  0  0  # atno 10763 bound_to 10752
  154.7297  135.5073  153.8947 H   0  0  0  0  0  0  0  0  0  0  0  0  # atno 10764 bound_to 10752
  153.0878  135.6699  154.0027 H   0  0  0  0  0  0  0  0  0  0  0  0  # atno 10765 bound_to 10752
  140.7606  133.8518  155.9121 H   0  0  0  0  0  0  0  0  0  0  0  0  # atno 11005 bound_to 11000
  144.8552  140.7060  143.6142 LP  0  0  0  0  0  0  0  0  0  0  0  0  # atno 17320 bound_to 7965
  145.3688  139.1663  143.4343 LP  0  0  0  0  0  0  0  0  0  0  0  0  # atno 17321 bound_to 7965
  139.5198  144.3243  152.0882 LP  0  0  0  0  0  0  0  0  0  0  0  0  # atno 17342 bound_to 10162
  140.2400  144.4279  150.6264 LP  0  0  0  0  0  0  0  0  0  0  0  0  # atno 17343 bound_to 10162
  155.9679  130.4247  150.4622 LP  0  0  0  0  0  0  0  0  0  0  0  0  # atno 17370 bound_to 10713
  157.2623  131.0569  151.2313 LP  0  0  0  0  0  0  0  0  0  0  0  0  # atno 17371 bound_to 10713
  140.9667  134.1585  157.4610 LP  0  0  0  0  0  0  0  0  0  0  0  0  # atno 17394 bound_to 11000
  139.8771  134.9964  156.5793 LP  0  0  0  0  0  0  0  0  0  0  0  0  # atno 17395 bound_to 11000

$$$$
