AV-unprocessed.smi:2825|AV-procd|sdf|10890|dock3
  -GOLD-   2272015333D 1   1.00000     0.00000
 Structure written by MMmdl.
 49 50  0  0  0  0  0  0  0  0  2 V2000
  147.1584  136.4250  162.6549 C   0  0  0  0  0  0  0  0  0  0  0  0
  146.8405  135.0942  161.9659 C   0  0  0  0  0  0  0  0  0  0  0  0
  147.2864  135.0717  160.4963 C   0  0  0  0  0  0  0  0  0  0  0  0
  148.0418  136.6772  159.9813 S   0  0  0  0  0  0  0  0  0  0  0  0
  146.9573  137.6557  159.8083 O   0  0  0  0  0  0  0  0  0  0  0  0
  149.1758  136.9873  160.8662 O   0  0  0  0  0  0  0  0  0  0  0  0
  148.6803  136.3343  158.4010 N   0  0  0  0  0  0  0  0  0  0  0  0
  148.3583  135.0484  157.7662 C   0  0  0  0  0  0  0  0  0  0  0  0
  149.8843  137.0468  157.9184 C   0  0  0  0  0  0  0  0  0  0  0  0
  149.6507  138.5263  157.5276 C   0  0  2  0  0  0  0  0  0  0  0  0
  149.0547  138.5956  156.2487 O   0  0  0  0  0  0  0  0  0  0  0  0
  150.9830  139.3003  157.4692 C   0  0  0  0  0  0  0  0  0  0  0  0
  150.7973  140.7367  157.2228 N   0  0  0  0  0  0  0  0  0  0  0  0
  150.2141  141.3799  156.1749 C   0  0  0  0  0  0  0  0  0  0  0  0
  150.2914  142.7173  156.4205 N   0  3  0  0  0  0  0  0  0  0  0  0
  150.9335  142.9307  157.6423 C   0  0  0  0  0  0  0  0  0  0  0  0
  151.2454  144.1059  158.3157 C   0  0  0  0  0  0  0  0  0  0  0  0
  151.9104  143.9812  159.5567 C   0  0  0  0  0  0  0  0  0  0  0  0
  152.2670  145.2464  160.3185 C   0  0  0  0  0  0  0  0  0  0  0  0
  152.2413  142.7054  160.0832 C   0  0  0  0  0  0  0  0  0  0  0  0
  152.9570  142.5825  161.4177 C   0  0  0  0  0  0  0  0  0  0  0  0
  151.9140  141.5219  159.3836 C   0  0  0  0  0  0  0  0  0  0  0  0
  151.2602  141.6633  158.1623 C   0  0  0  0  0  0  0  0  0  0  0  0
  146.8286  136.4126  163.6941 H   0  0  0  0  0  0  0  0  0  0  0  0
  146.6582  137.2559  162.1565 H   0  0  0  0  0  0  0  0  0  0  0  0
  148.2303  136.6249  162.6483 H   0  0  0  0  0  0  0  0  0  0  0  0
  147.3278  134.2833  162.5083 H   0  0  0  0  0  0  0  0  0  0  0  0
  145.7692  134.9048  162.0309 H   0  0  0  0  0  0  0  0  0  0  0  0
  147.9962  134.2700  160.2962 H   0  0  0  0  0  0  0  0  0  0  0  0
  146.4212  134.8966  159.8568 H   0  0  0  0  0  0  0  0  0  0  0  0
  148.9262  134.2418  158.2299 H   0  0  0  0  0  0  0  0  0  0  0  0
  148.5828  135.0772  156.6998 H   0  0  0  0  0  0  0  0  0  0  0  0
  147.2969  134.8256  157.8716 H   0  0  0  0  0  0  0  0  0  0  0  0
  150.6129  137.0120  158.7291 H   0  0  0  0  0  0  0  0  0  0  0  0
  150.3413  136.5032  157.0914 H   0  0  0  0  0  0  0  0  0  0  0  0
  148.9995  139.0301  158.2404 H   0  0  0  0  0  0  0  0  0  0  0  0
  148.7261  137.7385  156.0239 H   0  0  0  0  0  0  0  0  0  0  0  0
  151.5450  139.1834  158.3966 H   0  0  0  0  0  0  0  0  0  0  0  0
  151.6181  138.9082  156.6733 H   0  0  0  0  0  0  0  0  0  0  0  0
  149.7677  140.9141  155.3081 H   0  0  0  0  0  0  0  0  0  0  0  0
  150.9907  145.0738  157.9090 H   0  0  0  0  0  0  0  0  0  0  0  0
  153.3491  145.3464  160.4051 H   0  0  0  0  0  0  0  0  0  0  0  0
  151.8394  145.2259  161.3209 H   0  0  0  0  0  0  0  0  0  0  0  0
  151.8883  146.1362  159.8145 H   0  0  0  0  0  0  0  0  0  0  0  0
  153.1853  141.5426  161.6532 H   0  0  0  0  0  0  0  0  0  0  0  0
  152.3358  142.9782  162.2216 H   0  0  0  0  0  0  0  0  0  0  0  0
  153.8977  143.1334  161.4020 H   0  0  0  0  0  0  0  0  0  0  0  0
  152.1629  140.5506  159.7849 H   0  0  0  0  0  0  0  0  0  0  0  0
  149.9308  143.4298  155.7988 H   0  0  0  0  0  0  0  0  0  0  0  0
  1  2  1  0  0  0  0
  1 24  1  0  0  0  0
  1 25  1  0  0  0  0
  1 26  1  0  0  0  0
  2  3  1  0  0  0  0
  2 27  1  0  0  0  0
  2 28  1  0  0  0  0
  3  4  1  0  0  0  0
  3 29  1  0  0  0  0
  3 30  1  0  0  0  0
  4  5  2  0  0  0  0
  4  6  2  0  0  0  0
  4  7  1  0  0  0  0
  7  8  1  0  0  0  0
  7  9  1  0  0  0  0
  8 31  1  0  0  0  0
  8 32  1  0  0  0  0
  8 33  1  0  0  0  0
  9 10  1  0  0  0  0
  9 34  1  0  0  0  0
  9 35  1  0  0  0  0
 10 11  1  0  0  0  0
 10 12  1  0  0  0  0
 10 36  1  0  0  0  0
 11 37  1  0  0  0  0
 12 13  1  0  0  0  0
 12 38  1  0  0  0  0
 12 39  1  0  0  0  0
 13 23  1  0  0  0  0
 13 14  1  0  0  0  0
 14 15  2  0  0  0  0
 14 40  1  0  0  0  0
 15 16  1  0  0  0  0
 15 49  1  0  0  0  0
 16 23  2  0  0  0  0
 16 17  1  0  0  0  0
 17 18  2  0  0  0  0
 17 41  1  0  0  0  0
 18 19  1  0  0  0  0
 18 20  1  0  0  0  0
 19 42  1  0  0  0  0
 19 43  1  0  0  0  0
 19 44  1  0  0  0  0
 20 21  1  0  0  0  0
 20 22  2  0  0  0  0
 21 45  1  0  0  0  0
 21 46  1  0  0  0  0
 21 47  1  0  0  0  0
 22 23  1  0  0  0  0
 22 48  1  0  0  0  0
M  CHG  1  15   1
M  END
> <s_m_source_file>
AV-unprocessed.smi

> <i_m_source_file_index>
2825

> <i_lp_mmshare_version>
43012

> <i_f3d_flags>
0

> <s_epik_input>
W0NIM11bQ0gyXVtDSDJdUyg9TykoPU8pTihbQ0gzXSlbQ0gyXVtDQEhdKFtPSF0pW0NIMl1uKFtjSF1uMSljKGMxMilbY0hdYyhbQ0gzXSljKFtjSF0yKVtDSDNd

> <s_epik_cmdline>
J2VwaWtfcHl0aG9uJywgJy1waCcsICc3LjAnLCAnLXRuJywgJzgnLCAnLW1hJywgJzIwMCcsICctbWV0YWxfYmluZGluZycsICctaW1hZScsICc8aW5maWxlLm1hZT4nLCAnLW9tYWUnLCAnPG91dGZpbGUubWFlPic=

> <r_epik_Ionization_Penalty>
1.0773

> <r_epik_Ionization_Penalty_Charging>
1.0773

> <r_epik_Ionization_Penalty_Neutral>
1.44651e-06

> <r_epik_State_Penalty>
1.13242

> <r_epik_Charging_Adjusted_Penalty>
2.20972

> <i_epik_Tot_Q>
1

> <i_epik_Tot_abs_Q>
1

> <r_epik_Metal_State_Penalty>
5.13045

> <b_epik_Metal_Only>
0

> <s_lp_Force_Field>
OPLS_2005

> <r_lp_Energy>
13.8299

> <b_lp_Chiralities_Consistent>
1

> <s_lp_Variant>
AV-unprocessed.smi:2825-3

> <Gold.Version>
5.8.1

> <Gold.Id.Protein>
6NUR|6NUR_protein|mol2

> <Gold.PLP.Fitness>
56.0672

> <Gold.PLP.PLP>
-46.3713

> <Gold.PLP.part.hbond>
-2.8162

> <Gold.PLP.part.metal>
0.0000

> <Gold.PLP.part.buried>
-4.6844

> <Gold.PLP.part.nonpolar>
-39.3327

> <Gold.PLP.part.repulsive>
0.0684

> <Gold.PLP.ligand.clash>
0.0000

> <Gold.PLP.ligand.torsion>
1.9881

> <Gold.PLP.Chemscore.Hbond>
3.7360

> <Gold.PLP.Chemscore.CHOScore>
0.0000

> <Gold.PLP.Chemscore.Metal>
0.0000

> <Gold.Chemscore.Hbonds>
donor molecule, donor type, donor heavy atom, donor atom, acceptor molecule, acceptor atom, score
      L1  H    15    49       P1  8028  1.82
      P1  H  6931  6943       L1     6  0.78
      P1  H  6934  6947       L1     5  0.98

> <Gold.PLP.Chemscore.Internal.Correction>
2.4640

> <Gold.Rescore>
     Score         DG    S(hbond)    S(metal)    S(lipo)     H(rot)  DE(clash)    DE(int)     intcor
     16.45     -21.08       2.60        0.00     114.12       2.51       0.06       4.57       ----

> <Gold.Chemscore.Fitness>
16.4457

> <Gold.Chemscore.DG>
-21.0768

> <Gold.Chemscore.ZeroCoef>
-5.4800

> <Gold.Chemscore.Hbond>
2.5962

> <Gold.Chemscore.Metal>
0.0000

> <Gold.Chemscore.Lipo>
114.1249

> <Gold.Chemscore.Internal_Hbond>
0.0000

> <Gold.Chemscore.DEClash>
0.0604

> <Gold.Chemscore.DEInternal>
4.5707

> <Gold.Chemscore.Rot>
2.5106

> <Gold.Chemscore.Internal.Correction>
   9.000000E+99

> <Gold.Chemscore.Hbonds>
donor molecule, donor type, donor heavy atom, donor atom, acceptor molecule, acceptor atom, score
      L1  H    15    49       P1  8028  0.89
      P1  H  6931  6943       L1     6  0.75
      P1  H  6934  6947       L1     5  0.73

> <Gold.Chemscore.Hbond.Weighted>
-8.6713

> <Gold.Chemscore.Metal.Weighted>
-0.0000

> <Gold.Chemscore.Lipo.Weighted>
-13.3526

> <Gold.Chemscore.Internal_Hbond.Weighted>
0.0000

> <Gold.Chemscore.DEClash.Weighted>
0.0604

> <Gold.Chemscore.DEInternal.Weighted>
4.5707

> <Gold.Chemscore.Rot.Weighted>
6.4271

> <Gold.Chemscore.Internal.Correction.Weighted>
   9.000000E+99

> <Gold.Protein.RotatedTorsions>
[ 6907 6896 6895 6894 ] final   33.10 input  -60.11 | X-H torsion
[ 7974 7965 7964 7962 ] final  -27.84 input  175.53 | X-H torsion
[ 8008 7997 7996 7995 ] final  127.04 input   59.86 | X-H torsion
[ 10167 10162 10161 10158 ] final -169.25 input  -65.29 | X-H torsion
[ 10718 10713 10712 10709 ] final   39.60 input   66.30 | X-H torsion
[ 10763 10752 10751 10750 ] final   68.49 input  -60.55 | X-H torsion
[ 11005 11000 10999 10996 ] final   99.94 input  -57.11 | X-H torsion

> <Gold.Protein.ActiveResidues>
 VAL166  LYS551  ARG553  GLY616  TRP617  ASP618  TYR619  PRO620  LYS621  CYS622 
 ASP623  PHE694  ASN695  SER759  ASP760  ASP761  ALA762  ILE779  LEU786  VAL792 
 PHE793  MET794  SER795  GLU796  ALA797  LYS798  CYS799  TRP800  GLU811  SER814 

> <Gold.Protein.RotatedAtoms>
  152.0838  134.9453  160.0572 H   0  0  0  0  0  0  0  0  0  0  0  0  # atno 6907 bound_to 6896
  152.0731  133.4111  159.4476 H   0  0  0  0  0  0  0  0  0  0  0  0  # atno 6908 bound_to 6896
  150.6836  134.2988  159.4741 H   0  0  0  0  0  0  0  0  0  0  0  0  # atno 6909 bound_to 6896
  146.1330  140.5205  142.8685 H   0  0  0  0  0  0  0  0  0  0  0  0  # atno 7974 bound_to 7965
  156.2880  140.2678  156.2208 H   0  0  0  0  0  0  0  0  0  0  0  0  # atno 8008 bound_to 7997
  155.0169  140.0387  157.2440 H   0  0  0  0  0  0  0  0  0  0  0  0  # atno 8009 bound_to 7997
  154.7469  140.2735  155.6330 H   0  0  0  0  0  0  0  0  0  0  0  0  # atno 8010 bound_to 7997
  139.5935  144.1163  152.1661 H   0  0  0  0  0  0  0  0  0  0  0  0  # atno 10167 bound_to 10162
  157.3725  130.7709  149.7130 H   0  0  0  0  0  0  0  0  0  0  0  0  # atno 10718 bound_to 10713
  153.0238  135.5245  154.7142 H   0  0  0  0  0  0  0  0  0  0  0  0  # atno 10763 bound_to 10752
  154.6216  135.2889  155.0322 H   0  0  0  0  0  0  0  0  0  0  0  0  # atno 10764 bound_to 10752
  154.1306  135.6593  153.4974 H   0  0  0  0  0  0  0  0  0  0  0  0  # atno 10765 bound_to 10752
  139.8770  134.9118  156.4682 H   0  0  0  0  0  0  0  0  0  0  0  0  # atno 11005 bound_to 11000
  144.7710  140.5637  143.6670 LP  0  0  0  0  0  0  0  0  0  0  0  0  # atno 17320 bound_to 7965
  145.5219  139.1476  143.3547 LP  0  0  0  0  0  0  0  0  0  0  0  0  # atno 17321 bound_to 7965
  140.0743  144.5754  150.7169 LP  0  0  0  0  0  0  0  0  0  0  0  0  # atno 17342 bound_to 10162
  140.7192  143.2573  151.4333 LP  0  0  0  0  0  0  0  0  0  0  0  0  # atno 17343 bound_to 10162
  155.9758  130.4083  150.3821 LP  0  0  0  0  0  0  0  0  0  0  0  0  # atno 17370 bound_to 10713
  157.1914  131.0416  151.2698 LP  0  0  0  0  0  0  0  0  0  0  0  0  # atno 17371 bound_to 10713
  140.8815  133.7914  155.9472 LP  0  0  0  0  0  0  0  0  0  0  0  0  # atno 17394 bound_to 11000
  140.8849  134.2566  157.5125 LP  0  0  0  0  0  0  0  0  0  0  0  0  # atno 17395 bound_to 11000

$$$$
