AV-unprocessed.smi:2928|AV-procd|sdf|11233|dock8
  -GOLD-   2272016123D 1   1.00000     0.00000
 Structure written by MMmdl.
 55 58  0  0  0  0  0  0  0  0  2 V2000
  149.0919  141.2867  156.9284 C   0  0  0  0  0  0  0  0  0  0  0  0
  149.3283  139.9528  156.3264 N   0  3  2  0  0  0  0  0  0  0  0  0
  149.3764  138.8310  157.2958 C   0  0  2  0  0  0  0  0  0  0  0  0
  150.6566  138.8934  158.1672 C   0  0  0  0  0  0  0  0  0  0  0  0
  151.9610  139.0210  157.3573 C   0  0  0  0  0  0  0  0  0  0  0  0
  151.8276  140.0004  156.1756 C   0  0  0  0  0  0  0  0  0  0  0  0
  150.4882  139.8803  155.4049 C   0  0  1  0  0  0  0  0  0  0  0  0
  150.3547  138.6111  154.5318 C   0  0  0  0  0  0  0  0  0  0  0  0
  150.1341  137.3012  155.3318 C   0  0  2  0  0  0  0  0  0  0  0  0
  149.5939  136.2588  154.4617 N   0  0  0  0  0  0  0  0  0  0  0  0
  149.4570  134.9668  154.7937 C   0  0  0  0  0  0  0  0  0  0  0  0
  149.8109  134.5030  155.8775 O   0  0  0  0  0  0  0  0  0  0  0  0
  148.9074  134.2643  153.7892 N   0  0  0  0  0  0  0  0  0  0  0  0
  148.6107  132.8722  153.7389 C   0  0  0  0  0  0  0  0  0  0  0  0
  149.2760  131.9352  154.5678 C   0  0  0  0  0  0  0  0  0  0  0  0
  148.8944  130.5832  154.5256 C   0  0  0  0  0  0  0  0  0  0  0  0
  147.8466  130.2148  153.6659 C   0  0  0  0  0  0  0  0  0  0  0  0
  147.1939  131.0952  152.8813 N   0  0  0  0  0  0  0  0  0  0  0  0
  147.5601  132.4004  152.9007 C   0  0  0  0  0  0  0  0  0  0  0  0
  146.8524  133.2767  152.0467 N   0  0  0  0  0  0  0  0  0  0  0  0
  146.0785  132.6845  150.9591 C   0  0  0  0  0  0  0  0  0  0  0  0
  144.8250  133.5518  150.7945 C   0  0  0  0  0  0  0  0  0  0  0  0
  145.2025  134.8694  151.4649 C   0  0  0  0  0  0  0  0  0  0  0  0
  146.1128  134.4066  152.5982 C   0  0  0  0  0  0  0  0  0  0  0  0
  149.1766  137.5018  156.5311 C   0  0  0  0  0  0  0  0  0  0  0  0
  149.9056  141.5968  157.5830 H   0  0  0  0  0  0  0  0  0  0  0  0
  148.1720  141.2807  157.5139 H   0  0  0  0  0  0  0  0  0  0  0  0
  148.9805  142.0407  156.1487 H   0  0  0  0  0  0  0  0  0  0  0  0
  148.5222  138.9335  157.9667 H   0  0  0  0  0  0  0  0  0  0  0  0
  150.5835  139.7498  158.8380 H   0  0  0  0  0  0  0  0  0  0  0  0
  150.7105  138.0206  158.8189 H   0  0  0  0  0  0  0  0  0  0  0  0
  152.7654  139.3526  158.0146 H   0  0  0  0  0  0  0  0  0  0  0  0
  152.2857  138.0456  157.0054 H   0  0  0  0  0  0  0  0  0  0  0  0
  151.9222  141.0167  156.5587 H   0  0  0  0  0  0  0  0  0  0  0  0
  152.6677  139.8705  155.4924 H   0  0  0  0  0  0  0  0  0  0  0  0
  150.4280  140.7314  154.7248 H   0  0  0  0  0  0  0  0  0  0  0  0
  149.5020  138.7590  153.8666 H   0  0  0  0  0  0  0  0  0  0  0  0
  151.2230  138.5127  153.8791 H   0  0  0  0  0  0  0  0  0  0  0  0
  151.0885  136.9387  155.7062 H   0  0  0  0  0  0  0  0  0  0  0  0
  149.2802  136.5465  153.5463 H   0  0  0  0  0  0  0  0  0  0  0  0
  148.7564  134.7651  152.9257 H   0  0  0  0  0  0  0  0  0  0  0  0
  150.0552  132.2317  155.2530 H   0  0  0  0  0  0  0  0  0  0  0  0
  149.3844  129.8489  155.1477 H   0  0  0  0  0  0  0  0  0  0  0  0
  147.5190  129.1872  153.6106 H   0  0  0  0  0  0  0  0  0  0  0  0
  146.6724  132.7135  150.0455 H   0  0  0  0  0  0  0  0  0  0  0  0
  145.8184  131.6441  151.1606 H   0  0  0  0  0  0  0  0  0  0  0  0
  144.5280  133.6743  149.7528 H   0  0  0  0  0  0  0  0  0  0  0  0
  143.9912  133.0960  151.3302 H   0  0  0  0  0  0  0  0  0  0  0  0
  145.7609  135.4962  150.7684 H   0  0  0  0  0  0  0  0  0  0  0  0
  144.3391  135.4351  151.8160 H   0  0  0  0  0  0  0  0  0  0  0  0
  145.5031  134.0940  153.4469 H   0  0  0  0  0  0  0  0  0  0  0  0
  146.7841  135.1990  152.9303 H   0  0  0  0  0  0  0  0  0  0  0  0
  149.2528  136.6564  157.2159 H   0  0  0  0  0  0  0  0  0  0  0  0
  148.1496  137.4906  156.1616 H   0  0  0  0  0  0  0  0  0  0  0  0
  148.5136  139.7843  155.7535 H   0  0  0  0  0  0  0  0  0  0  0  0
  1  2  1  0  0  0  0
  1 26  1  0  0  0  0
  1 27  1  0  0  0  0
  1 28  1  0  0  0  0
  2  7  1  0  0  0  0
  2  3  1  0  0  0  0
  2 55  1  0  0  0  0
  3 25  1  0  0  0  0
  3  4  1  0  0  0  0
  3 29  1  0  0  0  0
  4  5  1  0  0  0  0
  4 30  1  0  0  0  0
  4 31  1  0  0  0  0
  5  6  1  0  0  0  0
  5 32  1  0  0  0  0
  5 33  1  0  0  0  0
  6  7  1  0  0  0  0
  6 34  1  0  0  0  0
  6 35  1  0  0  0  0
  7  8  1  0  0  0  0
  7 36  1  0  0  0  0
  8  9  1  0  0  0  0
  8 37  1  0  0  0  0
  8 38  1  0  0  0  0
  9 10  1  0  0  0  0
  9 25  1  0  0  0  0
  9 39  1  0  0  0  0
 10 11  1  0  0  0  0
 10 40  1  0  0  0  0
 11 12  2  0  0  0  0
 11 13  1  0  0  0  0
 13 14  1  0  0  0  0
 13 41  1  0  0  0  0
 14 19  1  0  0  0  0
 14 15  2  0  0  0  0
 15 16  1  0  0  0  0
 15 42  1  0  0  0  0
 16 17  2  0  0  0  0
 16 43  1  0  0  0  0
 17 18  1  0  0  0  0
 17 44  1  0  0  0  0
 18 19  2  0  0  0  0
 19 20  1  0  0  0  0
 20 24  1  0  0  0  0
 20 21  1  0  0  0  0
 21 22  1  0  0  0  0
 21 45  1  0  0  0  0
 21 46  1  0  0  0  0
 22 23  1  0  0  0  0
 22 47  1  0  0  0  0
 22 48  1  0  0  0  0
 23 24  1  0  0  0  0
 23 49  1  0  0  0  0
 23 50  1  0  0  0  0
 24 51  1  0  0  0  0
 24 52  1  0  0  0  0
 25 53  1  0  0  0  0
 25 54  1  0  0  0  0
M  CHG  1   2   1
M  END
> <s_m_source_file>
AV-unprocessed.smi

> <i_m_source_file_index>
2928

> <i_lp_mmshare_version>
43012

> <i_f3d_flags>
0

> <s_epik_input>
W0NIMl0xW0NIMl1bQ0gyXVtDQEhdKE4oW0NIM10pW0NIXTEyKVtDSDJdW0NASF0oW0NIMl0yKVtOSF1DKD1PKVtOSF1jM1tjSF1bY0hdW2NIXW5jM040W0NIMl1bQ0gyXVtDSDJdW0NIMl00

> <s_epik_cmdline>
J2VwaWtfcHl0aG9uJywgJy1waCcsICc3LjAnLCAnLXRuJywgJzgnLCAnLW1hJywgJzIwMCcsICctbWV0YWxfYmluZGluZycsICctaW1hZScsICc8aW5maWxlLm1hZT4nLCAnLW9tYWUnLCAnPG91dGZpbGUubWFlPic=

> <r_lp_tautomer_probability>
1

> <r_epik_Ionization_Penalty>
0.07954

> <r_epik_Ionization_Penalty_Charging>
0.00089841

> <r_epik_Ionization_Penalty_Neutral>
0.0786416

> <r_epik_State_Penalty>
0.0689917

> <r_epik_Charging_Adjusted_Penalty>
0.0698901

> <i_epik_Tot_Q>
1

> <i_epik_Tot_abs_Q>
1

> <r_epik_Metal_State_Penalty>
0.0608947

> <b_epik_Metal_Only>
0

> <s_lp_Force_Field>
OPLS_2005

> <r_lp_Energy>
63.7088

> <b_lp_Chiralities_Consistent>
1

> <s_lp_Variant>
AV-unprocessed.smi:2928-3

> <Gold.Version>
5.8.1

> <Gold.Id.Protein>
6NUR|6NUR_protein|mol2

> <Gold.PLP.Fitness>
41.4496

> <Gold.PLP.PLP>
-36.4520

> <Gold.PLP.part.hbond>
-2.1344

> <Gold.PLP.part.metal>
0.0000

> <Gold.PLP.part.buried>
-3.9194

> <Gold.PLP.part.nonpolar>
-30.9082

> <Gold.PLP.part.repulsive>
0.3708

> <Gold.PLP.ligand.clash>
0.0000

> <Gold.PLP.ligand.torsion>
0.4251

> <Gold.PLP.Chemscore.Hbond>
1.8500

> <Gold.PLP.Chemscore.CHOScore>
0.0000

> <Gold.PLP.Chemscore.Metal>
0.0000

> <Gold.Chemscore.Hbonds>
donor molecule, donor type, donor heavy atom, donor atom, acceptor molecule, acceptor atom, score
      L1  H    10    40       P1  7948  1.00
      L1  H    13    41       P1  7948  0.85

> <Gold.PLP.Chemscore.Internal.Correction>
0.2979

> <Gold.Rescore>
     Score         DG    S(hbond)    S(metal)    S(lipo)     H(rot)  DE(clash)    DE(int)     intcor
     14.68     -16.54       1.58        0.00      75.09       1.18       0.20       1.66       ----

> <Gold.Chemscore.Fitness>
14.6751

> <Gold.Chemscore.DG>
-16.5426

> <Gold.Chemscore.ZeroCoef>
-5.4800

> <Gold.Chemscore.Hbond>
1.5844

> <Gold.Chemscore.Metal>
0.0000

> <Gold.Chemscore.Lipo>
75.0877

> <Gold.Chemscore.Internal_Hbond>
0.0000

> <Gold.Chemscore.DEClash>
0.2047

> <Gold.Chemscore.DEInternal>
1.6627

> <Gold.Chemscore.Rot>
1.1776

> <Gold.Chemscore.Internal.Correction>
   9.000000E+99

> <Gold.Chemscore.Hbonds>
donor molecule, donor type, donor heavy atom, donor atom, acceptor molecule, acceptor atom, score
      L1  H    10    40       P1  7948  0.90
      L1  H    13    41       P1  7948  0.14

> <Gold.Chemscore.Hbond.Weighted>
-5.2921

> <Gold.Chemscore.Metal.Weighted>
-0.0000

> <Gold.Chemscore.Lipo.Weighted>
-8.7853

> <Gold.Chemscore.Internal_Hbond.Weighted>
0.0000

> <Gold.Chemscore.DEClash.Weighted>
0.2047

> <Gold.Chemscore.DEInternal.Weighted>
1.6627

> <Gold.Chemscore.Rot.Weighted>
3.0147

> <Gold.Chemscore.Internal.Correction.Weighted>
   9.000000E+99

> <Gold.Protein.RotatedTorsions>
[ 6907 6896 6895 6894 ] final  -73.87 input  -60.11 | X-H torsion
[ 7974 7965 7964 7962 ] final  133.41 input  175.53 | X-H torsion
[ 8008 7997 7996 7995 ] final    0.02 input   59.86 | X-H torsion
[ 10167 10162 10161 10158 ] final  168.09 input  -65.29 | X-H torsion
[ 10718 10713 10712 10709 ] final   75.11 input   66.30 | X-H torsion
[ 10763 10752 10751 10750 ] final   43.37 input  -60.55 | X-H torsion
[ 11005 11000 10999 10996 ] final  -43.82 input  -57.11 | X-H torsion

> <Gold.Protein.ActiveResidues>
 VAL166  LYS551  ARG553  GLY616  TRP617  ASP618  TYR619  PRO620  LYS621  CYS622 
 ASP623  PHE694  ASN695  SER759  ASP760  ASP761  ALA762  ILE779  LEU786  VAL792 
 PHE793  MET794  SER795  GLU796  ALA797  LYS798  CYS799  TRP800  GLU811  SER814 

> <Gold.Protein.RotatedAtoms>
  150.7114  134.4952  159.5534 H   0  0  0  0  0  0  0  0  0  0  0  0  # atno 6907 bound_to 6896
  152.2561  134.8080  160.0447 H   0  0  0  0  0  0  0  0  0  0  0  0  # atno 6908 bound_to 6896
  151.8810  133.3460  159.3803 H   0  0  0  0  0  0  0  0  0  0  0  0  # atno 6909 bound_to 6896
  144.9868  139.4447  143.5359 H   0  0  0  0  0  0  0  0  0  0  0  0  # atno 7974 bound_to 7965
  154.6633  140.2595  155.7085 H   0  0  0  0  0  0  0  0  0  0  0  0  # atno 8008 bound_to 7997
  156.2628  140.2844  156.1036 H   0  0  0  0  0  0  0  0  0  0  0  0  # atno 8009 bound_to 7997
  155.1275  140.0378  157.2756 H   0  0  0  0  0  0  0  0  0  0  0  0  # atno 8010 bound_to 7997
  139.4960  144.3852  151.9578 H   0  0  0  0  0  0  0  0  0  0  0  0  # atno 10167 bound_to 10162
  157.6620  130.9710  150.1306 H   0  0  0  0  0  0  0  0  0  0  0  0  # atno 10718 bound_to 10713
  152.9862  135.6103  154.3101 H   0  0  0  0  0  0  0  0  0  0  0  0  # atno 10763 bound_to 10752
  154.2816  135.2777  155.2696 H   0  0  0  0  0  0  0  0  0  0  0  0  # atno 10764 bound_to 10752
  154.5032  135.5861  153.6604 H   0  0  0  0  0  0  0  0  0  0  0  0  # atno 10765 bound_to 10752
  141.0409  133.6780  156.2786 H   0  0  0  0  0  0  0  0  0  0  0  0  # atno 11005 bound_to 11000
  146.3422  139.9175  142.8771 LP  0  0  0  0  0  0  0  0  0  0  0  0  # atno 17320 bound_to 7965
  145.2342  140.9985  143.3973 LP  0  0  0  0  0  0  0  0  0  0  0  0  # atno 17321 bound_to 7965
  140.3289  144.3340  150.5992 LP  0  0  0  0  0  0  0  0  0  0  0  0  # atno 17342 bound_to 10162
  140.5662  143.2186  151.7680 LP  0  0  0  0  0  0  0  0  0  0  0  0  # atno 17343 bound_to 10162
  156.2154  130.3670  149.8620 LP  0  0  0  0  0  0  0  0  0  0  0  0  # atno 17370 bound_to 10713
  156.6487  130.8735  151.3527 LP  0  0  0  0  0  0  0  0  0  0  0  0  # atno 17371 bound_to 10713
  140.6236  134.5336  157.5551 LP  0  0  0  0  0  0  0  0  0  0  0  0  # atno 17394 bound_to 11000
  139.9275  134.8027  156.1026 LP  0  0  0  0  0  0  0  0  0  0  0  0  # atno 17395 bound_to 11000

$$$$
