AV-unprocessed.smi:1643|AV-procd|sdf|6577|dock7
  -GOLD-   22720 7263D 1   1.00000     0.00000
 Structure written by MMmdl.
 53 55  0  0  0  0  0  0  0  0  1 V2000
  147.7228  135.5557  158.0575 C   0  0  0  0  0  0  0  0  0  0  0  0
  149.0580  135.3428  157.3402 C   0  0  0  0  0  0  0  0  0  0  0  0
  150.0510  135.0861  158.0215 O   0  0  0  0  0  0  0  0  0  0  0  0
  149.1052  135.4495  155.9905 N   0  0  0  0  0  0  0  0  0  0  0  0
  150.3610  135.3306  155.2416 C   0  0  0  0  0  0  0  0  0  0  0  0
  151.0241  136.7090  155.0917 C   0  0  0  0  0  0  0  0  0  0  0  0
  150.1307  137.7840  154.4375 C   0  0  0  0  0  0  0  0  0  0  0  0
  148.9826  138.1887  155.2616 N   0  0  0  0  0  0  0  0  0  0  0  0
  148.6404  139.6022  155.0868 C   0  0  0  0  0  0  0  0  0  0  0  0
  149.7986  140.4849  154.5802 C   0  0  1  0  0  0  0  0  0  0  0  0
  149.3765  141.1378  153.4002 O   0  0  0  0  0  0  0  0  0  0  0  0
  150.2219  141.5447  155.6167 C   0  0  0  0  0  0  0  0  0  0  0  0
  151.1533  141.0126  156.5929 N   0  0  0  0  0  0  0  0  0  0  0  0
  151.8402  139.8559  156.5292 C   0  0  0  0  0  0  0  0  0  0  0  0
  152.6429  139.5690  157.5506 N   0  0  0  0  0  0  0  0  0  0  0  0
  152.4583  140.6706  158.3695 C   0  0  0  0  0  0  0  0  0  0  0  0
  153.0254  140.9904  159.6226 C   0  0  0  0  0  0  0  0  0  0  0  0
  152.6852  142.1906  160.2873 C   0  0  0  0  0  0  0  0  0  0  0  0
  153.3191  142.4949  161.6332 C   0  0  0  0  0  0  0  0  0  0  0  0
  151.7625  143.0927  159.6984 C   0  0  0  0  0  0  0  0  0  0  0  0
  151.3800  144.3881  160.3924 C   0  0  0  0  0  0  0  0  0  0  0  0
  151.1866  142.7881  158.4479 C   0  0  0  0  0  0  0  0  0  0  0  0
  151.5337  141.5916  157.7971 C   0  0  0  0  0  0  0  0  0  0  0  0
  147.7974  137.3550  155.0128 C   0  0  0  0  0  0  0  0  0  0  0  0
  147.9637  135.8240  155.1475 C   0  0  0  0  0  0  0  0  0  0  0  0
  147.3093  136.5382  157.8297 H   0  0  0  0  0  0  0  0  0  0  0  0
  147.8559  135.4954  159.1383 H   0  0  0  0  0  0  0  0  0  0  0  0
  147.0012  134.7912  157.7683 H   0  0  0  0  0  0  0  0  0  0  0  0
  151.0485  134.6408  155.7337 H   0  0  0  0  0  0  0  0  0  0  0  0
  150.1875  134.8962  154.2564 H   0  0  0  0  0  0  0  0  0  0  0  0
  151.3533  137.0635  156.0694 H   0  0  0  0  0  0  0  0  0  0  0  0
  151.9310  136.5946  154.4975 H   0  0  0  0  0  0  0  0  0  0  0  0
  150.7739  138.6397  154.2403 H   0  0  0  0  0  0  0  0  0  0  0  0
  149.7934  137.4547  153.4537 H   0  0  0  0  0  0  0  0  0  0  0  0
  147.7874  139.6846  154.4110 H   0  0  0  0  0  0  0  0  0  0  0  0
  148.3057  140.0173  156.0386 H   0  0  0  0  0  0  0  0  0  0  0  0
  150.6588  139.8729  154.3120 H   0  0  0  0  0  0  0  0  0  0  0  0
  149.3453  140.5018  152.7018 H   0  0  0  0  0  0  0  0  0  0  0  0
  150.6722  142.4095  155.1269 H   0  0  0  0  0  0  0  0  0  0  0  0
  149.3510  141.9142  156.1594 H   0  0  0  0  0  0  0  0  0  0  0  0
  151.7429  139.1855  155.6876 H   0  0  0  0  0  0  0  0  0  0  0  0
  153.7274  140.3029  160.0713 H   0  0  0  0  0  0  0  0  0  0  0  0
  153.8558  143.4432  161.5983 H   0  0  0  0  0  0  0  0  0  0  0  0
  154.0293  141.7199  161.9231 H   0  0  0  0  0  0  0  0  0  0  0  0
  152.5551  142.5566  162.4085 H   0  0  0  0  0  0  0  0  0  0  0  0
  150.6564  144.9548  159.8052 H   0  0  0  0  0  0  0  0  0  0  0  0
  152.2581  145.0176  160.5379 H   0  0  0  0  0  0  0  0  0  0  0  0
  150.9340  144.1830  161.3657 H   0  0  0  0  0  0  0  0  0  0  0  0
  150.4825  143.4645  157.9865 H   0  0  0  0  0  0  0  0  0  0  0  0
  147.0183  137.6587  155.7128 H   0  0  0  0  0  0  0  0  0  0  0  0
  147.3952  137.5732  154.0224 H   0  0  0  0  0  0  0  0  0  0  0  0
  148.0913  135.4039  154.1494 H   0  0  0  0  0  0  0  0  0  0  0  0
  147.0365  135.3750  155.5035 H   0  0  0  0  0  0  0  0  0  0  0  0
  1  2  1  0  0  0  0
  1 26  1  0  0  0  0
  1 27  1  0  0  0  0
  1 28  1  0  0  0  0
  2  3  2  0  0  0  0
  2  4  1  0  0  0  0
  4 25  1  0  0  0  0
  4  5  1  0  0  0  0
  5  6  1  0  0  0  0
  5 29  1  0  0  0  0
  5 30  1  0  0  0  0
  6  7  1  0  0  0  0
  6 31  1  0  0  0  0
  6 32  1  0  0  0  0
  7  8  1  0  0  0  0
  7 33  1  0  0  0  0
  7 34  1  0  0  0  0
  8  9  1  0  0  0  0
  8 24  1  0  0  0  0
  9 10  1  0  0  0  0
  9 35  1  0  0  0  0
  9 36  1  0  0  0  0
 10 11  1  0  0  0  0
 10 12  1  0  0  0  0
 10 37  1  0  0  0  0
 11 38  1  0  0  0  0
 12 13  1  0  0  0  0
 12 39  1  0  0  0  0
 12 40  1  0  0  0  0
 13 23  1  0  0  0  0
 13 14  1  0  0  0  0
 14 15  2  0  0  0  0
 14 41  1  0  0  0  0
 15 16  1  0  0  0  0
 16 23  2  0  0  0  0
 16 17  1  0  0  0  0
 17 18  2  0  0  0  0
 17 42  1  0  0  0  0
 18 19  1  0  0  0  0
 18 20  1  0  0  0  0
 19 43  1  0  0  0  0
 19 44  1  0  0  0  0
 19 45  1  0  0  0  0
 20 21  1  0  0  0  0
 20 22  2  0  0  0  0
 21 46  1  0  0  0  0
 21 47  1  0  0  0  0
 21 48  1  0  0  0  0
 22 23  1  0  0  0  0
 22 49  1  0  0  0  0
 24 25  1  0  0  0  0
 24 50  1  0  0  0  0
 24 51  1  0  0  0  0
 25 52  1  0  0  0  0
 25 53  1  0  0  0  0
M  END
> <s_m_source_file>
AV-unprocessed.smi

> <i_m_source_file_index>
1643

> <i_lp_mmshare_version>
43012

> <i_f3d_flags>
0

> <s_epik_input>
W0NIM11DKD1PKU4xW0NIMl1bQ0gyXVtDSDJdTihbQ0gyXVtDSDJdMSlbQ0gyXVtDQEhdKFtPSF0pW0NIMl1uKFtjSF1uMiljKGMyMylbY0hdYyhbQ0gzXSljKFtjSF0zKVtDSDNd

> <s_epik_cmdline>
J2VwaWtfcHl0aG9uJywgJy1waCcsICc3LjAnLCAnLXRuJywgJzgnLCAnLW1hJywgJzIwMCcsICctbWV0YWxfYmluZGluZycsICctaW1hZScsICc8aW5maWxlLm1hZT4nLCAnLW9tYWUnLCAnPG91dGZpbGUubWFlPic=

> <r_epik_Ionization_Penalty>
1.17666

> <r_epik_Ionization_Penalty_Charging>
0

> <r_epik_Ionization_Penalty_Neutral>
1.17666

> <r_epik_State_Penalty>
1.20405

> <r_epik_Charging_Adjusted_Penalty>
1.20405

> <i_epik_Tot_Q>
0

> <i_epik_Tot_abs_Q>
0

> <r_epik_Metal_State_Penalty>
1.13307

> <b_epik_Metal_Only>
0

> <s_lp_Force_Field>
OPLS_2005

> <r_lp_Energy>
45.5249

> <b_lp_Chiralities_Consistent>
1

> <s_lp_Variant>
AV-unprocessed.smi:1643-6

> <Gold.Version>
5.8.1

> <Gold.Id.Protein>
6NUR|6NUR_protein|mol2

> <Gold.PLP.Fitness>
50.3957

> <Gold.PLP.PLP>
-44.1745

> <Gold.PLP.part.hbond>
-4.8823

> <Gold.PLP.part.metal>
0.0000

> <Gold.PLP.part.buried>
-3.5533

> <Gold.PLP.part.nonpolar>
-35.3633

> <Gold.PLP.part.repulsive>
0.0826

> <Gold.PLP.ligand.clash>
0.9053

> <Gold.PLP.ligand.torsion>
1.6122

> <Gold.PLP.Chemscore.Hbond>
3.4320

> <Gold.PLP.Chemscore.CHOScore>
0.0000

> <Gold.PLP.Chemscore.Metal>
0.0000

> <Gold.Chemscore.Hbonds>
donor molecule, donor type, donor heavy atom, donor atom, acceptor molecule, acceptor atom, score
      L1  H    11    38       P1  7957  1.00
      P1  H  6896  6908       L1     3  0.86
      P1  H  7997  8008       L1    15  0.90
      P1  H  8011  8017       L1    11  0.65

> <Gold.PLP.Chemscore.Internal.Correction>
0.0550

> <Gold.Rescore>
     Score         DG    S(hbond)    S(metal)    S(lipo)     H(rot)  DE(clash)    DE(int)     intcor
     18.51     -20.49       2.02        0.00     115.84       2.07       0.14       1.84       ----

> <Gold.Chemscore.Fitness>
18.5122

> <Gold.Chemscore.DG>
-20.4892

> <Gold.Chemscore.ZeroCoef>
-5.4800

> <Gold.Chemscore.Hbond>
2.0186

> <Gold.Chemscore.Metal>
0.0000

> <Gold.Chemscore.Lipo>
115.8434

> <Gold.Chemscore.Internal_Hbond>
0.0000

> <Gold.Chemscore.DEClash>
0.1396

> <Gold.Chemscore.DEInternal>
1.8375

> <Gold.Chemscore.Rot>
2.0650

> <Gold.Chemscore.Internal.Correction>
   9.000000E+99

> <Gold.Chemscore.Hbonds>
donor molecule, donor type, donor heavy atom, donor atom, acceptor molecule, acceptor atom, score
      L1  H    11    38       P1  7957  0.95
      P1  H  6896  6908       L1     3  0.85
      P1  H  7997  8008       L1    15  0.04
      P1  H  8011  8017       L1    11  0.05

> <Gold.Chemscore.Hbond.Weighted>
-6.7420

> <Gold.Chemscore.Metal.Weighted>
-0.0000

> <Gold.Chemscore.Lipo.Weighted>
-13.5537

> <Gold.Chemscore.Internal_Hbond.Weighted>
0.0000

> <Gold.Chemscore.DEClash.Weighted>
0.1396

> <Gold.Chemscore.DEInternal.Weighted>
1.8375

> <Gold.Chemscore.Rot.Weighted>
5.2865

> <Gold.Chemscore.Internal.Correction.Weighted>
   9.000000E+99

> <Gold.Protein.RotatedTorsions>
[ 6907 6896 6895 6894 ] final  153.95 input  -60.11 | X-H torsion
[ 7974 7965 7964 7962 ] final   61.81 input  175.53 | X-H torsion
[ 8008 7997 7996 7995 ] final  -62.06 input   59.86 | X-H torsion
[ 10167 10162 10161 10158 ] final   45.13 input  -65.29 | X-H torsion
[ 10718 10713 10712 10709 ] final -104.84 input   66.30 | X-H torsion
[ 10763 10752 10751 10750 ] final  110.20 input  -60.55 | X-H torsion
[ 11005 11000 10999 10996 ] final    6.93 input  -57.11 | X-H torsion

> <Gold.Protein.ActiveResidues>
 VAL166  LYS551  ARG553  GLY616  TRP617  ASP618  TYR619  PRO620  LYS621  CYS622 
 ASP623  PHE694  ASN695  SER759  ASP760  ASP761  ALA762  ILE779  LEU786  VAL792 
 PHE793  MET794  SER795  GLU796  ALA797  LYS798  CYS799  TRP800  GLU811  SER814 

> <Gold.Protein.RotatedAtoms>
  152.0654  133.4081  159.4435 H   0  0  0  0  0  0  0  0  0  0  0  0  # atno 6907 bound_to 6896
  150.6865  134.3152  159.4772 H   0  0  0  0  0  0  0  0  0  0  0  0  # atno 6908 bound_to 6896
  152.0978  134.9362  160.0621 H   0  0  0  0  0  0  0  0  0  0  0  0  # atno 6909 bound_to 6896
  145.8805  139.3440  143.0709 H   0  0  0  0  0  0  0  0  0  0  0  0  # atno 7974 bound_to 7965
  154.4480  140.1004  156.6527 H   0  0  0  0  0  0  0  0  0  0  0  0  # atno 8008 bound_to 7997
  155.5379  140.3483  155.4422 H   0  0  0  0  0  0  0  0  0  0  0  0  # atno 8009 bound_to 7997
  156.0618  140.1328  156.9922 H   0  0  0  0  0  0  0  0  0  0  0  0  # atno 8010 bound_to 7997
  140.3273  144.2632  150.6173 H   0  0  0  0  0  0  0  0  0  0  0  0  # atno 10167 bound_to 10162
  156.0321  130.5535  150.7454 H   0  0  0  0  0  0  0  0  0  0  0  0  # atno 10718 bound_to 10713
  153.4456  135.3756  155.2254 H   0  0  0  0  0  0  0  0  0  0  0  0  # atno 10763 bound_to 10752
  154.8755  135.3873  154.4100 H   0  0  0  0  0  0  0  0  0  0  0  0  # atno 10764 bound_to 10752
  153.4652  135.7087  153.6090 H   0  0  0  0  0  0  0  0  0  0  0  0  # atno 10765 bound_to 10752
  140.5539  134.0257  155.7947 H   0  0  0  0  0  0  0  0  0  0  0  0  # atno 11005 bound_to 11000
  145.9029  140.9231  143.0493 LP  0  0  0  0  0  0  0  0  0  0  0  0  # atno 17320 bound_to 7965
  144.6727  140.1057  143.7458 LP  0  0  0  0  0  0  0  0  0  0  0  0  # atno 17321 bound_to 7965
  140.5429  143.2220  151.8054 LP  0  0  0  0  0  0  0  0  0  0  0  0  # atno 17342 bound_to 10162
  139.4863  144.4576  151.9579 LP  0  0  0  0  0  0  0  0  0  0  0  0  # atno 17343 bound_to 10162
  157.5012  131.0918  151.0312 LP  0  0  0  0  0  0  0  0  0  0  0  0  # atno 17370 bound_to 10713
  157.0692  130.5857  149.5399 LP  0  0  0  0  0  0  0  0  0  0  0  0  # atno 17371 bound_to 10713
  141.1155  133.9547  157.2830 LP  0  0  0  0  0  0  0  0  0  0  0  0  # atno 17394 bound_to 11000
  139.9441  135.0187  156.8799 LP  0  0  0  0  0  0  0  0  0  0  0  0  # atno 17395 bound_to 11000

$$$$
