AV-unprocessed.smi:2664|AV-procd|sdf|10326|dock4
  -GOLD-   2272014343D 1   1.00000     0.00000
 Structure written by MMmdl.
 43 44  0  0  0  0  0  0  0  0  1 V2000
  145.4327  137.9337  154.0104 O   0  0  0  0  0  0  0  0  0  0  0  0
  146.4704  137.5594  153.4648 C   0  0  0  0  0  0  0  0  0  0  0  0
  146.5872  136.4792  152.6733 N   0  0  0  0  0  0  0  0  0  0  0  0
  145.5760  135.5796  152.2383 C   0  0  0  0  0  0  0  0  0  0  0  0
  145.6090  135.1576  150.8930 C   0  0  0  0  0  0  0  0  0  0  0  0
  144.6075  134.2807  150.4305 C   0  0  0  0  0  0  0  0  0  0  0  0
  143.6038  133.8250  151.2090 N   0  0  0  0  0  0  0  0  0  0  0  0
  143.5657  134.2402  152.4930 C   0  0  0  0  0  0  0  0  0  0  0  0
  144.5169  135.1148  153.0552 C   0  0  0  0  0  0  0  0  0  0  0  0
  147.6513  138.1810  153.6065 N   0  0  0  0  0  0  0  0  0  0  0  0
  147.9001  139.3920  154.3936 C   0  0  2  0  0  0  0  0  0  0  0  0
  147.1172  140.5709  153.7605 C   0  0  0  0  0  0  0  0  0  0  0  0
  147.2079  141.9043  154.5266 C   0  0  0  0  0  0  0  0  0  0  0  0
  148.2821  142.6827  154.0434 O   0  0  0  0  0  0  0  0  0  0  0  0
  149.4314  139.6491  154.5051 C   0  0  0  0  0  0  0  0  0  0  0  0
  150.2418  138.3307  154.6067 C   0  0  0  0  0  0  0  0  0  0  0  0
  151.7541  138.5778  154.7235 C   0  0  0  0  0  0  0  0  0  0  0  0
  152.0790  139.4822  155.9182 C   0  0  0  0  0  0  0  0  0  0  0  0
  151.3067  140.8034  155.8219 C   0  0  0  0  0  0  0  0  0  0  0  0
  149.7931  140.5616  155.7030 C   0  0  0  0  0  0  0  0  0  0  0  0
  147.5234  136.2522  152.3721 H   0  0  0  0  0  0  0  0  0  0  0  0
  146.3885  135.4932  150.2247 H   0  0  0  0  0  0  0  0  0  0  0  0
  144.6118  133.9384  149.4062 H   0  0  0  0  0  0  0  0  0  0  0  0
  142.7462  133.8692  153.0907 H   0  0  0  0  0  0  0  0  0  0  0  0
  144.4061  135.4158  154.0854 H   0  0  0  0  0  0  0  0  0  0  0  0
  148.4481  137.7898  153.1258 H   0  0  0  0  0  0  0  0  0  0  0  0
  147.5218  139.2546  155.4080 H   0  0  0  0  0  0  0  0  0  0  0  0
  147.4654  140.7561  152.7455 H   0  0  0  0  0  0  0  0  0  0  0  0
  146.0668  140.2916  153.6710 H   0  0  0  0  0  0  0  0  0  0  0  0
  146.2870  142.4716  154.3901 H   0  0  0  0  0  0  0  0  0  0  0  0
  147.3229  141.7481  155.5991 H   0  0  0  0  0  0  0  0  0  0  0  0
  148.4257  143.4020  154.6396 H   0  0  0  0  0  0  0  0  0  0  0  0
  149.7494  140.1586  153.5940 H   0  0  0  0  0  0  0  0  0  0  0  0
  149.8997  137.7573  155.4697 H   0  0  0  0  0  0  0  0  0  0  0  0
  150.0705  137.7006  153.7343 H   0  0  0  0  0  0  0  0  0  0  0  0
  152.2784  137.6273  154.8254 H   0  0  0  0  0  0  0  0  0  0  0  0
  152.1219  139.0363  153.8047 H   0  0  0  0  0  0  0  0  0  0  0  0
  151.8204  138.9720  156.8468 H   0  0  0  0  0  0  0  0  0  0  0  0
  153.1509  139.6779  155.9586 H   0  0  0  0  0  0  0  0  0  0  0  0
  151.5156  141.4185  156.6975 H   0  0  0  0  0  0  0  0  0  0  0  0
  151.6552  141.3693  154.9570 H   0  0  0  0  0  0  0  0  0  0  0  0
  149.3094  141.5326  155.6114 H   0  0  0  0  0  0  0  0  0  0  0  0
  149.4231  140.1171  156.6279 H   0  0  0  0  0  0  0  0  0  0  0  0
  1  2  2  0  0  0  0
  2  3  1  0  0  0  0
  2 10  1  0  0  0  0
  3  4  1  0  0  0  0
  3 21  1  0  0  0  0
  4  9  1  0  0  0  0
  4  5  2  0  0  0  0
  5  6  1  0  0  0  0
  5 22  1  0  0  0  0
  6  7  2  0  0  0  0
  6 23  1  0  0  0  0
  7  8  1  0  0  0  0
  8  9  2  0  0  0  0
  8 24  1  0  0  0  0
  9 25  1  0  0  0  0
 10 11  1  0  0  0  0
 10 26  1  0  0  0  0
 11 12  1  0  0  0  0
 11 15  1  0  0  0  0
 11 27  1  0  0  0  0
 12 13  1  0  0  0  0
 12 28  1  0  0  0  0
 12 29  1  0  0  0  0
 13 14  1  0  0  0  0
 13 30  1  0  0  0  0
 13 31  1  0  0  0  0
 14 32  1  0  0  0  0
 15 20  1  0  0  0  0
 15 16  1  0  0  0  0
 15 33  1  0  0  0  0
 16 17  1  0  0  0  0
 16 34  1  0  0  0  0
 16 35  1  0  0  0  0
 17 18  1  0  0  0  0
 17 36  1  0  0  0  0
 17 37  1  0  0  0  0
 18 19  1  0  0  0  0
 18 38  1  0  0  0  0
 18 39  1  0  0  0  0
 19 20  1  0  0  0  0
 19 40  1  0  0  0  0
 19 41  1  0  0  0  0
 20 42  1  0  0  0  0
 20 43  1  0  0  0  0
M  END
> <s_m_source_file>
AV-unprocessed.smi

> <i_m_source_file_index>
2664

> <i_lp_mmshare_version>
43012

> <i_f3d_flags>
0

> <s_epik_input>
W2NIXTFbY0hdbltjSF1bY0hdYzFbTkhdQyg9TylbTkhdW0NASF0oW0NIMl1bQ0gyXVtPSF0pW0NIXTJbQ0gyXVtDSDJdW0NIMl1bQ0gyXVtDSDJdMg==

> <s_epik_cmdline>
J2VwaWtfcHl0aG9uJywgJy1waCcsICc3LjAnLCAnLXRuJywgJzgnLCAnLW1hJywgJzIwMCcsICctbWV0YWxfYmluZGluZycsICctaW1hZScsICc8aW5maWxlLm1hZT4nLCAnLW9tYWUnLCAnPG91dGZpbGUubWFlPic=

> <r_epik_Ionization_Penalty>
0.119281

> <r_epik_Ionization_Penalty_Charging>
0

> <r_epik_Ionization_Penalty_Neutral>
0.119281

> <r_epik_State_Penalty>
0.108806

> <r_epik_Charging_Adjusted_Penalty>
0.108806

> <i_epik_Tot_Q>
0

> <i_epik_Tot_abs_Q>
0

> <r_epik_Metal_State_Penalty>
0.0904205

> <b_epik_Metal_Only>
0

> <s_lp_Force_Field>
OPLS_2005

> <r_lp_Energy>
21.6864

> <b_lp_Chiralities_Consistent>
1

> <s_lp_Variant>
AV-unprocessed.smi:2664-1

> <Gold.Version>
5.8.1

> <Gold.Id.Protein>
6NUR|6NUR_protein|mol2

> <Gold.PLP.Fitness>
46.1745

> <Gold.PLP.PLP>
-34.6702

> <Gold.PLP.part.hbond>
-4.6960

> <Gold.PLP.part.metal>
0.0000

> <Gold.PLP.part.buried>
-4.2981

> <Gold.PLP.part.nonpolar>
-27.5979

> <Gold.PLP.part.repulsive>
0.3594

> <Gold.PLP.ligand.clash>
0.0000

> <Gold.PLP.ligand.torsion>
1.0144

> <Gold.PLP.Chemscore.Hbond>
2.7888

> <Gold.PLP.Chemscore.CHOScore>
1.6980

> <Gold.PLP.Chemscore.Metal>
0.0000

> <Gold.Chemscore.Hbonds>
donor molecule, donor type, donor heavy atom, donor atom, acceptor molecule, acceptor atom, score
      L1  H     3    21       P1  7948  0.94
      L1  H    10    26       P1  7948  0.78
      L1  H    14    32       P1  8028  1.00
      P1  H  8011  8017       L1    14  0.02
      L1  C     6    23       P1  7921  0.90
      L1  C     8    24       P1 10957  0.59

> <Gold.PLP.Chemscore.Internal.Correction>
0.0727

> <Gold.Rescore>
     Score         DG    S(hbond)    S(metal)    S(lipo)     H(rot)  DE(clash)    DE(int)     intcor
     17.90     -19.16       2.96        0.00      81.04       2.23       0.25       1.01       ----

> <Gold.Chemscore.Fitness>
17.9022

> <Gold.Chemscore.DG>
-19.1617

> <Gold.Chemscore.ZeroCoef>
-5.4800

> <Gold.Chemscore.Hbond>
2.9628

> <Gold.Chemscore.Metal>
0.0000

> <Gold.Chemscore.Lipo>
81.0435

> <Gold.Chemscore.Internal_Hbond>
0.0000

> <Gold.Chemscore.DEClash>
0.2535

> <Gold.Chemscore.DEInternal>
1.0061

> <Gold.Chemscore.Rot>
2.2251

> <Gold.Chemscore.Internal.Correction>
   9.000000E+99

> <Gold.Chemscore.Hbonds>
donor molecule, donor type, donor heavy atom, donor atom, acceptor molecule, acceptor atom, score
      L1  H     3    21       P1  7948  0.90
      L1  H    10    26       P1  7948  0.75
      L1  H    14    32       P1  8028  1.00
      P1  H  8011  8017       L1    14  0.03

> <Gold.Chemscore.Hbond.Weighted>
-9.8958

> <Gold.Chemscore.Metal.Weighted>
-0.0000

> <Gold.Chemscore.Lipo.Weighted>
-9.4821

> <Gold.Chemscore.Internal_Hbond.Weighted>
0.0000

> <Gold.Chemscore.DEClash.Weighted>
0.2535

> <Gold.Chemscore.DEInternal.Weighted>
1.0061

> <Gold.Chemscore.Rot.Weighted>
5.6962

> <Gold.Chemscore.Internal.Correction.Weighted>
   9.000000E+99

> <Gold.Protein.RotatedTorsions>
[ 6907 6896 6895 6894 ] final  132.00 input  -60.11 | X-H torsion
[ 7974 7965 7964 7962 ] final  -88.32 input  175.53 | X-H torsion
[ 8008 7997 7996 7995 ] final   99.04 input   59.86 | X-H torsion
[ 10167 10162 10161 10158 ] final   38.14 input  -65.29 | X-H torsion
[ 10718 10713 10712 10709 ] final    6.31 input   66.30 | X-H torsion
[ 10763 10752 10751 10750 ] final -133.21 input  -60.55 | X-H torsion
[ 11005 11000 10999 10996 ] final -118.39 input  -57.11 | X-H torsion

> <Gold.Protein.ActiveResidues>
 VAL166  LYS551  ARG553  GLY616  TRP617  ASP618  TYR619  PRO620  LYS621  CYS622 
 ASP623  PHE694  ASN695  SER759  ASP760  ASP761  ALA762  ILE779  LEU786  VAL792 
 PHE793  MET794  SER795  GLU796  ALA797  LYS798  CYS799  TRP800  GLU811  SER814 

> <Gold.Protein.RotatedAtoms>
  152.3369  133.6021  159.5848 H   0  0  0  0  0  0  0  0  0  0  0  0  # atno 6907 bound_to 6896
  150.7455  133.9783  159.3577 H   0  0  0  0  0  0  0  0  0  0  0  0  # atno 6908 bound_to 6896
  151.7651  135.0801  160.0402 H   0  0  0  0  0  0  0  0  0  0  0  0  # atno 6909 bound_to 6896
  145.4547  140.9561  143.2003 H   0  0  0  0  0  0  0  0  0  0  0  0  # atno 7974 bound_to 7965
  156.1065  140.3234  155.8013 H   0  0  0  0  0  0  0  0  0  0  0  0  # atno 8008 bound_to 7997
  155.4747  140.0549  157.2992 H   0  0  0  0  0  0  0  0  0  0  0  0  # atno 8009 bound_to 7997
  154.4731  140.2020  155.9959 H   0  0  0  0  0  0  0  0  0  0  0  0  # atno 8010 bound_to 7997
  140.3965  144.1782  150.6132 H   0  0  0  0  0  0  0  0  0  0  0  0  # atno 10167 bound_to 10162
  156.9203  130.5788  149.5648 H   0  0  0  0  0  0  0  0  0  0  0  0  # atno 10718 bound_to 10713
  154.8735  135.3773  154.4535 H   0  0  0  0  0  0  0  0  0  0  0  0  # atno 10763 bound_to 10752
  153.5209  135.7029  153.5737 H   0  0  0  0  0  0  0  0  0  0  0  0  # atno 10764 bound_to 10752
  153.3984  135.3954  155.1937 H   0  0  0  0  0  0  0  0  0  0  0  0  # atno 10765 bound_to 10752
  141.0289  134.0012  157.3173 H   0  0  0  0  0  0  0  0  0  0  0  0  # atno 11005 bound_to 11000
  144.8039  139.6087  143.7059 LP  0  0  0  0  0  0  0  0  0  0  0  0  # atno 17320 bound_to 7965
  146.2485  139.6148  142.9443 LP  0  0  0  0  0  0  0  0  0  0  0  0  # atno 17321 bound_to 7965
  140.4785  143.2387  151.8989 LP  0  0  0  0  0  0  0  0  0  0  0  0  # atno 17342 bound_to 10162
  139.4786  144.5294  151.8688 LP  0  0  0  0  0  0  0  0  0  0  0  0  # atno 17343 bound_to 10162
  156.0494  130.5566  150.8955 LP  0  0  0  0  0  0  0  0  0  0  0  0  # atno 17370 bound_to 10713
  157.5912  131.0944  150.9116 LP  0  0  0  0  0  0  0  0  0  0  0  0  # atno 17371 bound_to 10713
  139.9194  135.0199  156.8007 LP  0  0  0  0  0  0  0  0  0  0  0  0  # atno 17394 bound_to 11000
  140.6442  133.9790  155.7723 LP  0  0  0  0  0  0  0  0  0  0  0  0  # atno 17395 bound_to 11000

$$$$
