AV-unprocessed.smi:1047|AV-procd|sdf|4568|dock9
  -GOLD-   22720 3 23D 1   1.00000     0.00000
 Structure written by MMmdl.
 56 58  0  0  0  0  0  0  0  0  2 V2000
  146.2251  143.0740  153.7645 C   0  0  0  0  0  0  0  0  0  0  0  0
  146.1296  141.7867  154.5960 C   0  0  0  0  0  0  0  0  0  0  0  0
  147.1097  140.7578  154.2520 N   0  0  0  0  0  0  0  0  0  0  0  0
  148.4325  141.0372  154.8058 C   0  0  0  0  0  0  0  0  0  0  0  0
  149.4429  139.9289  154.4638 C   0  0  0  0  0  0  0  0  0  0  0  0
  148.9454  138.6713  154.9097 O   0  0  0  0  0  0  0  0  0  0  0  0
  147.6825  138.3387  154.3387 C   0  0  1  0  0  0  0  0  0  0  0  0
  147.2587  136.9653  154.8760 C   0  0  0  0  0  0  0  0  0  0  0  0
  147.2645  135.9514  153.8029 N   0  3  0  0  0  0  0  0  0  0  0  0
  145.9216  135.6063  153.2960 C   0  0  0  0  0  0  0  0  0  0  0  0
  145.9192  135.4265  151.7644 C   0  0  2  0  0  0  0  0  0  0  0  0
  146.2080  136.6669  151.1507 O   0  0  0  0  0  0  0  0  0  0  0  0
  144.5675  134.9420  151.2029 C   0  0  0  0  0  0  0  0  0  0  0  0
  144.5129  133.5011  151.0353 N   0  0  0  0  0  0  0  0  0  0  0  0
  143.6930  132.8130  150.2180 C   0  0  0  0  0  0  0  0  0  0  0  0
  143.8113  131.4885  150.2118 N   0  0  0  0  0  0  0  0  0  0  0  0
  144.8209  131.2934  151.1383 C   0  0  0  0  0  0  0  0  0  0  0  0
  145.4275  130.1036  151.5968 C   0  0  0  0  0  0  0  0  0  0  0  0
  146.4624  130.1416  152.5582 C   0  0  0  0  0  0  0  0  0  0  0  0
  147.0884  128.8377  153.0210 C   0  0  0  0  0  0  0  0  0  0  0  0
  146.9051  131.3849  153.0773 C   0  0  0  0  0  0  0  0  0  0  0  0
  148.0160  131.4495  154.1104 C   0  0  0  0  0  0  0  0  0  0  0  0
  146.3083  132.5828  152.6320 C   0  0  0  0  0  0  0  0  0  0  0  0
  145.2801  132.5321  151.6739 C   0  0  0  0  0  0  0  0  0  0  0  0
  146.6726  139.4432  154.7086 C   0  0  0  0  0  0  0  0  0  0  0  0
  145.4005  143.7456  154.0038 H   0  0  0  0  0  0  0  0  0  0  0  0
  146.1752  142.8569  152.6970 H   0  0  0  0  0  0  0  0  0  0  0  0
  147.1499  143.6173  153.9570 H   0  0  0  0  0  0  0  0  0  0  0  0
  146.2038  142.0320  155.6564 H   0  0  0  0  0  0  0  0  0  0  0  0
  145.1278  141.3801  154.4520 H   0  0  0  0  0  0  0  0  0  0  0  0
  148.8114  141.9839  154.4217 H   0  0  0  0  0  0  0  0  0  0  0  0
  148.3657  141.1431  155.8896 H   0  0  0  0  0  0  0  0  0  0  0  0
  149.6279  139.8933  153.3890 H   0  0  0  0  0  0  0  0  0  0  0  0
  150.3998  140.1258  154.9472 H   0  0  0  0  0  0  0  0  0  0  0  0
  147.7780  138.2869  153.2523 H   0  0  0  0  0  0  0  0  0  0  0  0
  147.9223  136.6535  155.6838 H   0  0  0  0  0  0  0  0  0  0  0  0
  146.2518  137.0261  155.2908 H   0  0  0  0  0  0  0  0  0  0  0  0
  147.8179  136.3010  153.0338 H   0  0  0  0  0  0  0  0  0  0  0  0
  145.6157  134.6813  153.7847 H   0  0  0  0  0  0  0  0  0  0  0  0
  145.2047  136.3743  153.5906 H   0  0  0  0  0  0  0  0  0  0  0  0
  146.6957  134.7162  151.4767 H   0  0  0  0  0  0  0  0  0  0  0  0
  147.1056  136.8987  151.3322 H   0  0  0  0  0  0  0  0  0  0  0  0
  143.7491  135.2480  151.8561 H   0  0  0  0  0  0  0  0  0  0  0  0
  144.3766  135.4023  150.2322 H   0  0  0  0  0  0  0  0  0  0  0  0
  142.9715  133.3133  149.5884 H   0  0  0  0  0  0  0  0  0  0  0  0
  145.0908  129.1567  151.2009 H   0  0  0  0  0  0  0  0  0  0  0  0
  146.9908  128.7277  154.1013 H   0  0  0  0  0  0  0  0  0  0  0  0
  148.1475  128.8107  152.7634 H   0  0  0  0  0  0  0  0  0  0  0  0
  146.6083  127.9773  152.5537 H   0  0  0  0  0  0  0  0  0  0  0  0
  148.2563  132.4802  154.3729 H   0  0  0  0  0  0  0  0  0  0  0  0
  148.9235  130.9820  153.7276 H   0  0  0  0  0  0  0  0  0  0  0  0
  147.7184  130.9325  155.0229 H   0  0  0  0  0  0  0  0  0  0  0  0
  146.6366  133.5358  153.0195 H   0  0  0  0  0  0  0  0  0  0  0  0
  146.5280  139.4575  155.7901 H   0  0  0  0  0  0  0  0  0  0  0  0
  145.7030  139.2062  154.2684 H   0  0  0  0  0  0  0  0  0  0  0  0
  147.6998  135.1127  154.1603 H   0  0  0  0  0  0  0  0  0  0  0  0
  1  2  1  0  0  0  0
  1 26  1  0  0  0  0
  1 27  1  0  0  0  0
  1 28  1  0  0  0  0
  2  3  1  0  0  0  0
  2 29  1  0  0  0  0
  2 30  1  0  0  0  0
  3 25  1  0  0  0  0
  3  4  1  0  0  0  0
  4  5  1  0  0  0  0
  4 31  1  0  0  0  0
  4 32  1  0  0  0  0
  5  6  1  0  0  0  0
  5 33  1  0  0  0  0
  5 34  1  0  0  0  0
  6  7  1  0  0  0  0
  7  8  1  0  0  0  0
  7 25  1  0  0  0  0
  7 35  1  0  0  0  0
  8  9  1  0  0  0  0
  8 36  1  0  0  0  0
  8 37  1  0  0  0  0
  9 10  1  0  0  0  0
  9 38  1  0  0  0  0
  9 56  1  0  0  0  0
 10 11  1  0  0  0  0
 10 39  1  0  0  0  0
 10 40  1  0  0  0  0
 11 12  1  0  0  0  0
 11 13  1  0  0  0  0
 11 41  1  0  0  0  0
 12 42  1  0  0  0  0
 13 14  1  0  0  0  0
 13 43  1  0  0  0  0
 13 44  1  0  0  0  0
 14 24  1  0  0  0  0
 14 15  1  0  0  0  0
 15 16  2  0  0  0  0
 15 45  1  0  0  0  0
 16 17  1  0  0  0  0
 17 24  2  0  0  0  0
 17 18  1  0  0  0  0
 18 19  2  0  0  0  0
 18 46  1  0  0  0  0
 19 20  1  0  0  0  0
 19 21  1  0  0  0  0
 20 47  1  0  0  0  0
 20 48  1  0  0  0  0
 20 49  1  0  0  0  0
 21 22  1  0  0  0  0
 21 23  2  0  0  0  0
 22 50  1  0  0  0  0
 22 51  1  0  0  0  0
 22 52  1  0  0  0  0
 23 24  1  0  0  0  0
 23 53  1  0  0  0  0
 25 54  1  0  0  0  0
 25 55  1  0  0  0  0
M  CHG  1   9   1
M  END
> <s_m_source_file>
AV-unprocessed.smi

> <i_m_source_file_index>
1047

> <i_lp_mmshare_version>
43012

> <i_f3d_flags>
0

> <s_epik_input>
W0NIM11bQ0gyXU4xW0NIMl1bQ0gyXU9bQ0BIXShbQ0gyXTEpW0NIMl1bTkhdW0NIMl1bQ0BIXShbT0hdKVtDSDJdbihbY0hdbjIpYyhjMjMpW2NIXWMoW0NIM10pYyhbY0hdMylbQ0gzXQ==

> <s_epik_cmdline>
J2VwaWtfcHl0aG9uJywgJy1waCcsICc3LjAnLCAnLXRuJywgJzgnLCAnLW1hJywgJzIwMCcsICctbWV0YWxfYmluZGluZycsICctaW1hZScsICc8aW5maWxlLm1hZT4nLCAnLW9tYWUnLCAnPG91dGZpbGUubWFlPic=

> <r_epik_Ionization_Penalty>
0.692425

> <r_epik_Ionization_Penalty_Charging>
0.0243549

> <r_epik_Ionization_Penalty_Neutral>
0.66807

> <r_epik_State_Penalty>
0.592789

> <r_epik_Charging_Adjusted_Penalty>
0.617144

> <i_epik_Tot_Q>
1

> <i_epik_Tot_abs_Q>
1

> <r_epik_Metal_State_Penalty>
0.508021

> <b_epik_Metal_Only>
0

> <s_lp_Force_Field>
OPLS_2005

> <r_lp_Energy>
31.7658

> <b_lp_Chiralities_Consistent>
1

> <s_lp_Variant>
AV-unprocessed.smi:1047-9

> <Gold.Version>
5.8.1

> <Gold.Id.Protein>
6NUR|6NUR_protein|mol2

> <Gold.PLP.Fitness>
52.3137

> <Gold.PLP.PLP>
-42.5882

> <Gold.PLP.part.hbond>
-3.1199

> <Gold.PLP.part.metal>
0.0000

> <Gold.PLP.part.buried>
-6.6313

> <Gold.PLP.part.nonpolar>
-33.9081

> <Gold.PLP.part.repulsive>
0.4162

> <Gold.PLP.ligand.clash>
0.0515

> <Gold.PLP.ligand.torsion>
2.2948

> <Gold.PLP.Chemscore.Hbond>
3.7280

> <Gold.PLP.Chemscore.CHOScore>
1.0000

> <Gold.PLP.Chemscore.Metal>
0.0000

> <Gold.Chemscore.Hbonds>
donor molecule, donor type, donor heavy atom, donor atom, acceptor molecule, acceptor atom, score
      L1  H     9    38       P1  7948  2.00
      L1  H    12    42       P1  7948  0.93
      P1  H 10785 10796       L1    16  0.67
      L1  C    15    45       P1 10186  1.00

> <Gold.PLP.Chemscore.Internal.Correction>
0.1827

> <Gold.Rescore>
     Score         DG    S(hbond)    S(metal)    S(lipo)     H(rot)  DE(clash)    DE(int)     intcor
     16.20     -19.69       2.69        0.00     101.59       2.60       0.28       3.21       ----

> <Gold.Chemscore.Fitness>
16.2016

> <Gold.Chemscore.DG>
-19.6933

> <Gold.Chemscore.ZeroCoef>
-5.4800

> <Gold.Chemscore.Hbond>
2.6935

> <Gold.Chemscore.Metal>
0.0000

> <Gold.Chemscore.Lipo>
101.5864

> <Gold.Chemscore.Internal_Hbond>
0.0000

> <Gold.Chemscore.DEClash>
0.2821

> <Gold.Chemscore.DEInternal>
3.2096

> <Gold.Chemscore.Rot>
2.6049

> <Gold.Chemscore.Internal.Correction>
   9.000000E+99

> <Gold.Chemscore.Hbonds>
donor molecule, donor type, donor heavy atom, donor atom, acceptor molecule, acceptor atom, score
      L1  H     9    38       P1  7948  0.98
      L1  H    12    42       P1  7948  0.87
      P1  H 10785 10796       L1    16  0.66

> <Gold.Chemscore.Hbond.Weighted>
-8.9961

> <Gold.Chemscore.Metal.Weighted>
-0.0000

> <Gold.Chemscore.Lipo.Weighted>
-11.8856

> <Gold.Chemscore.Internal_Hbond.Weighted>
0.0000

> <Gold.Chemscore.DEClash.Weighted>
0.2821

> <Gold.Chemscore.DEInternal.Weighted>
3.2096

> <Gold.Chemscore.Rot.Weighted>
6.6685

> <Gold.Chemscore.Internal.Correction.Weighted>
   9.000000E+99

> <Gold.Protein.RotatedTorsions>
[ 6907 6896 6895 6894 ] final   51.82 input  -60.11 | X-H torsion
[ 7974 7965 7964 7962 ] final -137.56 input  175.53 | X-H torsion
[ 8008 7997 7996 7995 ] final -150.93 input   59.86 | X-H torsion
[ 10167 10162 10161 10158 ] final  163.86 input  -65.29 | X-H torsion
[ 10718 10713 10712 10709 ] final   13.12 input   66.30 | X-H torsion
[ 10763 10752 10751 10750 ] final -111.46 input  -60.55 | X-H torsion
[ 11005 11000 10999 10996 ] final  -74.09 input  -57.11 | X-H torsion

> <Gold.Protein.ActiveResidues>
 VAL166  LYS551  ARG553  GLY616  TRP617  ASP618  TYR619  PRO620  LYS621  CYS622 
 ASP623  PHE694  ASN695  SER759  ASP760  ASP761  ALA762  ILE779  LEU786  VAL792 
 PHE793  MET794  SER795  GLU796  ALA797  LYS798  CYS799  TRP800  GLU811  SER814 

> <Gold.Protein.RotatedAtoms>
  152.3167  134.7431  160.0323 H   0  0  0  0  0  0  0  0  0  0  0  0  # atno 6907 bound_to 6896
  151.7893  133.3352  159.3502 H   0  0  0  0  0  0  0  0  0  0  0  0  # atno 6908 bound_to 6896
  150.7348  134.5788  159.5972 H   0  0  0  0  0  0  0  0  0  0  0  0  # atno 6909 bound_to 6896
  144.8831  140.6536  143.5193 H   0  0  0  0  0  0  0  0  0  0  0  0  # atno 7974 bound_to 7965
  155.6314  140.0692  157.2647 H   0  0  0  0  0  0  0  0  0  0  0  0  # atno 8008 bound_to 7997
  154.4205  140.1767  156.1525 H   0  0  0  0  0  0  0  0  0  0  0  0  # atno 8009 bound_to 7997
  155.9930  140.3343  155.6774 H   0  0  0  0  0  0  0  0  0  0  0  0  # atno 8010 bound_to 7997
  139.4880  144.4294  151.9089 H   0  0  0  0  0  0  0  0  0  0  0  0  # atno 10167 bound_to 10162
  157.0201  130.6151  149.5720 H   0  0  0  0  0  0  0  0  0  0  0  0  # atno 10718 bound_to 10713
  154.8301  135.4526  154.1043 H   0  0  0  0  0  0  0  0  0  0  0  0  # atno 10763 bound_to 10752
  153.2323  135.6907  153.7882 H   0  0  0  0  0  0  0  0  0  0  0  0  # atno 10764 bound_to 10752
  153.7260  135.3334  155.3252 H   0  0  0  0  0  0  0  0  0  0  0  0  # atno 10765 bound_to 10752
  141.1631  133.6900  156.7311 H   0  0  0  0  0  0  0  0  0  0  0  0  # atno 11005 bound_to 11000
  145.3918  139.1615  143.4225 LP  0  0  0  0  0  0  0  0  0  0  0  0  # atno 17320 bound_to 7965
  146.3007  140.4007  142.8705 LP  0  0  0  0  0  0  0  0  0  0  0  0  # atno 17321 bound_to 7965
  140.3741  144.2818  150.5916 LP  0  0  0  0  0  0  0  0  0  0  0  0  # atno 17342 bound_to 10162
  140.5292  143.2247  151.8266 LP  0  0  0  0  0  0  0  0  0  0  0  0  # atno 17343 bound_to 10162
  156.0105  130.5196  150.7973 LP  0  0  0  0  0  0  0  0  0  0  0  0  # atno 17370 bound_to 10713
  157.5256  131.0934  151.0022 LP  0  0  0  0  0  0  0  0  0  0  0  0  # atno 17371 bound_to 10713
  140.2744  134.8366  157.3877 LP  0  0  0  0  0  0  0  0  0  0  0  0  # atno 17394 bound_to 11000
  140.1491  134.4873  155.7974 LP  0  0  0  0  0  0  0  0  0  0  0  0  # atno 17395 bound_to 11000

$$$$
