AV-unprocessed.smi:1033|AV-procd|sdf|4503|dock7
  -GOLD-   22720 2503D 1   1.00000     0.00000
 Structure written by MMmdl.
 57 59  0  0  0  0  0  0  0  0  3 V2000
  152.4080  143.4730  161.0750 C   0  0  0  0  0  0  0  0  0  0  0  0
  152.1450  142.6671  159.8142 C   0  0  0  0  0  0  0  0  0  0  0  0
  151.2996  143.2189  158.8250 C   0  0  0  0  0  0  0  0  0  0  0  0
  151.0790  142.4584  157.6829 C   0  0  0  0  0  0  0  0  0  0  0  0
  150.3097  142.7150  156.5457 N   0  3  0  0  0  0  0  0  0  0  0  0
  150.4049  141.6630  155.6858 C   0  0  0  0  0  0  0  0  0  0  0  0
  151.2230  140.7389  156.2586 N   0  0  0  0  0  0  0  0  0  0  0  0
  151.6565  139.4261  155.7634 C   0  0  0  0  0  0  0  0  0  0  0  0
  150.4853  138.4452  155.5606 C   0  0  1  0  0  0  0  0  0  0  0  0
  149.8885  138.6946  154.3031 O   0  0  0  0  0  0  0  0  0  0  0  0
  150.9663  136.9814  155.5948 C   0  0  0  0  0  0  0  0  0  0  0  0
  150.1601  136.0701  156.4169 N   0  0  0  0  0  0  0  0  0  0  0  0
  148.7386  136.1138  156.0753 C   0  0  0  0  0  0  0  0  0  0  0  0
  148.4177  135.4578  154.7167 C   0  0  0  0  0  0  0  0  0  0  0  0
  148.8841  134.0474  154.6977 N   0  3  0  0  0  0  0  0  0  0  0  0
  148.5361  133.3538  153.4311 C   0  0  0  0  0  0  0  0  0  0  0  0
  148.2499  131.8526  153.6327 C   0  0  2  0  0  0  0  0  0  0  0  0
  149.5167  131.0693  153.9997 C   0  0  0  0  0  0  0  0  0  0  0  0
  147.7300  131.3119  152.4347 O   0  0  0  0  0  0  0  0  0  0  0  0
  150.3284  133.9671  155.0459 C   0  0  0  0  0  0  0  0  0  0  0  0
  150.5959  134.6705  156.3925 C   0  0  0  0  0  0  0  0  0  0  0  0
  151.6671  141.1913  157.5049 C   0  0  0  0  0  0  0  0  0  0  0  0
  152.5016  140.6317  158.4692 C   0  0  0  0  0  0  0  0  0  0  0  0
  152.7373  141.3893  159.6387 C   0  0  0  0  0  0  0  0  0  0  0  0
  153.6426  140.8049  160.7097 C   0  0  0  0  0  0  0  0  0  0  0  0
  151.8932  144.4339  161.0496 H   0  0  0  0  0  0  0  0  0  0  0  0
  153.4743  143.6700  161.1883 H   0  0  0  0  0  0  0  0  0  0  0  0
  152.0596  142.9316  161.9549 H   0  0  0  0  0  0  0  0  0  0  0  0
  150.8442  144.1903  158.9519 H   0  0  0  0  0  0  0  0  0  0  0  0
  149.9171  141.5753  154.7255 H   0  0  0  0  0  0  0  0  0  0  0  0
  152.1817  139.5896  154.8213 H   0  0  0  0  0  0  0  0  0  0  0  0
  152.3907  139.0209  156.4607 H   0  0  0  0  0  0  0  0  0  0  0  0
  149.7422  138.6285  156.3350 H   0  0  0  0  0  0  0  0  0  0  0  0
  150.3451  138.1867  153.6495 H   0  0  0  0  0  0  0  0  0  0  0  0
  150.9892  136.6128  154.5681 H   0  0  0  0  0  0  0  0  0  0  0  0
  152.0026  136.9604  155.9300 H   0  0  0  0  0  0  0  0  0  0  0  0
  148.1701  135.6052  156.8552 H   0  0  0  0  0  0  0  0  0  0  0  0
  148.3876  137.1465  156.0803 H   0  0  0  0  0  0  0  0  0  0  0  0
  147.3401  135.4870  154.5515 H   0  0  0  0  0  0  0  0  0  0  0  0
  148.8758  136.0133  153.8970 H   0  0  0  0  0  0  0  0  0  0  0  0
  147.6534  133.8187  152.9887 H   0  0  0  0  0  0  0  0  0  0  0  0
  149.3450  133.4960  152.7127 H   0  0  0  0  0  0  0  0  0  0  0  0
  147.5154  131.7020  154.4230 H   0  0  0  0  0  0  0  0  0  0  0  0
  149.9479  131.4371  154.9312 H   0  0  0  0  0  0  0  0  0  0  0  0
  150.2788  131.1557  153.2242 H   0  0  0  0  0  0  0  0  0  0  0  0
  149.2982  130.0094  154.1355 H   0  0  0  0  0  0  0  0  0  0  0  0
  148.4232  131.2712  151.7927 H   0  0  0  0  0  0  0  0  0  0  0  0
  150.6370  132.9260  155.1297 H   0  0  0  0  0  0  0  0  0  0  0  0
  150.9320  134.4061  154.2509 H   0  0  0  0  0  0  0  0  0  0  0  0
  151.6503  134.5883  156.6510 H   0  0  0  0  0  0  0  0  0  0  0  0
  150.0675  134.1264  157.1766 H   0  0  0  0  0  0  0  0  0  0  0  0
  152.9522  139.6598  158.3344 H   0  0  0  0  0  0  0  0  0  0  0  0
  154.0029  139.8141  160.4305 H   0  0  0  0  0  0  0  0  0  0  0  0
  153.1070  140.7098  161.6546 H   0  0  0  0  0  0  0  0  0  0  0  0
  154.5119  141.4437  160.8664 H   0  0  0  0  0  0  0  0  0  0  0  0
  148.3766  133.5741  155.4320 H   0  0  0  0  0  0  0  0  0  0  0  0
  149.7587  143.5445  156.3666 H   0  0  0  0  0  0  0  0  0  0  0  0
  1  2  1  0  0  0  0
  1 26  1  0  0  0  0
  1 27  1  0  0  0  0
  1 28  1  0  0  0  0
  2 24  1  0  0  0  0
  2  3  2  0  0  0  0
  3  4  1  0  0  0  0
  3 29  1  0  0  0  0
  4 22  2  0  0  0  0
  4  5  1  0  0  0  0
  5  6  2  0  0  0  0
  5 57  1  0  0  0  0
  6  7  1  0  0  0  0
  6 30  1  0  0  0  0
  7  8  1  0  0  0  0
  7 22  1  0  0  0  0
  8  9  1  0  0  0  0
  8 31  1  0  0  0  0
  8 32  1  0  0  0  0
  9 10  1  0  0  0  0
  9 11  1  0  0  0  0
  9 33  1  0  0  0  0
 10 34  1  0  0  0  0
 11 12  1  0  0  0  0
 11 35  1  0  0  0  0
 11 36  1  0  0  0  0
 12 21  1  0  0  0  0
 12 13  1  0  0  0  0
 13 14  1  0  0  0  0
 13 37  1  0  0  0  0
 13 38  1  0  0  0  0
 14 15  1  0  0  0  0
 14 39  1  0  0  0  0
 14 40  1  0  0  0  0
 15 16  1  0  0  0  0
 15 20  1  0  0  0  0
 15 56  1  0  0  0  0
 16 17  1  0  0  0  0
 16 41  1  0  0  0  0
 16 42  1  0  0  0  0
 17 18  1  0  0  0  0
 17 19  1  0  0  0  0
 17 43  1  0  0  0  0
 18 44  1  0  0  0  0
 18 45  1  0  0  0  0
 18 46  1  0  0  0  0
 19 47  1  0  0  0  0
 20 21  1  0  0  0  0
 20 48  1  0  0  0  0
 20 49  1  0  0  0  0
 21 50  1  0  0  0  0
 21 51  1  0  0  0  0
 22 23  1  0  0  0  0
 23 24  2  0  0  0  0
 23 52  1  0  0  0  0
 24 25  1  0  0  0  0
 25 53  1  0  0  0  0
 25 54  1  0  0  0  0
 25 55  1  0  0  0  0
M  CHG  1   5   1
M  CHG  1  15   1
M  END
> <s_m_source_file>
AV-unprocessed.smi

> <i_m_source_file_index>
1033

> <i_lp_mmshare_version>
43012

> <i_f3d_flags>
0

> <s_epik_input>
W0NIM11jKFtjSF0xKWMoW0NIM10pW2NIXWMoYzEyKW4oW2NIXW4yKVtDSDJdW0NASF0oW09IXSlbQ0gyXU4zW0NIMl1bQ0gyXU4oW0NIMl1bQ0gyXTMpW0NIMl1bQ0BIXShbQ0gzXSlbT0hd

> <s_epik_cmdline>
J2VwaWtfcHl0aG9uJywgJy1waCcsICc3LjAnLCAnLXRuJywgJzgnLCAnLW1hJywgJzIwMCcsICctbWV0YWxfYmluZGluZycsICctaW1hZScsICc8aW5maWxlLm1hZT4nLCAnLW9tYWUnLCAnPG91dGZpbGUubWFlPic=

> <r_epik_Ionization_Penalty>
1.28617

> <r_epik_Ionization_Penalty_Charging>
1.23646

> <r_epik_Ionization_Penalty_Neutral>
0.0497112

> <r_epik_State_Penalty>
1.79157

> <r_epik_Charging_Adjusted_Penalty>
3.02803

> <i_epik_Tot_Q>
2

> <i_epik_Tot_abs_Q>
2

> <r_epik_Metal_State_Penalty>
5.81739

> <b_epik_Metal_Only>
0

> <s_lp_Force_Field>
OPLS_2005

> <r_lp_Energy>
41.025

> <b_lp_Chiralities_Consistent>
1

> <s_lp_Variant>
AV-unprocessed.smi:1033-14

> <Gold.Version>
5.8.1

> <Gold.Id.Protein>
6NUR|6NUR_protein|mol2

> <Gold.PLP.Fitness>
52.9127

> <Gold.PLP.PLP>
-46.3222

> <Gold.PLP.part.hbond>
-2.0000

> <Gold.PLP.part.metal>
0.0000

> <Gold.PLP.part.buried>
-5.8765

> <Gold.PLP.part.nonpolar>
-37.5793

> <Gold.PLP.part.repulsive>
0.0854

> <Gold.PLP.ligand.clash>
0.0000

> <Gold.PLP.ligand.torsion>
1.3137

> <Gold.PLP.Chemscore.Hbond>
3.0000

> <Gold.PLP.Chemscore.CHOScore>
0.0000

> <Gold.PLP.Chemscore.Metal>
0.0000

> <Gold.Chemscore.Hbonds>
donor molecule, donor type, donor heavy atom, donor atom, acceptor molecule, acceptor atom, score
      L1  H     5    57       P1  8028  2.00
      L1  H    19    47       P1 10747  1.00

> <Gold.PLP.Chemscore.Internal.Correction>
0.2180

> <Gold.Rescore>
     Score         DG    S(hbond)    S(metal)    S(lipo)     H(rot)  DE(clash)    DE(int)     intcor
     17.13     -18.62       1.98        0.00     124.70       3.15       0.13       1.36       ----

> <Gold.Chemscore.Fitness>
17.1292

> <Gold.Chemscore.DG>
-18.6193

> <Gold.Chemscore.ZeroCoef>
-5.4800

> <Gold.Chemscore.Hbond>
1.9787

> <Gold.Chemscore.Metal>
0.0000

> <Gold.Chemscore.Lipo>
124.7008

> <Gold.Chemscore.Internal_Hbond>
0.0000

> <Gold.Chemscore.DEClash>
0.1294

> <Gold.Chemscore.DEInternal>
1.3607

> <Gold.Chemscore.Rot>
3.1483

> <Gold.Chemscore.Internal.Correction>
   9.000000E+99

> <Gold.Chemscore.Hbonds>
donor molecule, donor type, donor heavy atom, donor atom, acceptor molecule, acceptor atom, score
      L1  H     5    57       P1  8028  0.99
      L1  H    19    47       P1 10747  0.96

> <Gold.Chemscore.Hbond.Weighted>
-6.6090

> <Gold.Chemscore.Metal.Weighted>
-0.0000

> <Gold.Chemscore.Lipo.Weighted>
-14.5900

> <Gold.Chemscore.Internal_Hbond.Weighted>
0.0000

> <Gold.Chemscore.DEClash.Weighted>
0.1294

> <Gold.Chemscore.DEInternal.Weighted>
1.3607

> <Gold.Chemscore.Rot.Weighted>
8.0597

> <Gold.Chemscore.Internal.Correction.Weighted>
   9.000000E+99

> <Gold.Protein.RotatedTorsions>
[ 6907 6896 6895 6894 ] final   73.28 input  -60.11 | X-H torsion
[ 7974 7965 7964 7962 ] final  -32.76 input  175.53 | X-H torsion
[ 8008 7997 7996 7995 ] final    0.20 input   59.86 | X-H torsion
[ 10167 10162 10161 10158 ] final  -40.07 input  -65.29 | X-H torsion
[ 10718 10713 10712 10709 ] final  -46.30 input   66.30 | X-H torsion
[ 10763 10752 10751 10750 ] final  106.41 input  -60.55 | X-H torsion
[ 11005 11000 10999 10996 ] final  112.52 input  -57.11 | X-H torsion

> <Gold.Protein.ActiveResidues>
 VAL166  LYS551  ARG553  GLY616  TRP617  ASP618  TYR619  PRO620  LYS621  CYS622 
 ASP623  PHE694  ASN695  SER759  ASP760  ASP761  ALA762  ILE779  LEU786  VAL792 
 PHE793  MET794  SER795  GLU796  ALA797  LYS798  CYS799  TRP800  GLU811  SER814 

> <Gold.Protein.RotatedAtoms>
  152.4914  134.4446  159.9554 H   0  0  0  0  0  0  0  0  0  0  0  0  # atno 6907 bound_to 6896
  151.4432  133.3631  159.2792 H   0  0  0  0  0  0  0  0  0  0  0  0  # atno 6908 bound_to 6896
  150.9073  134.8512  159.7461 H   0  0  0  0  0  0  0  0  0  0  0  0  # atno 6909 bound_to 6896
  146.0964  140.5833  142.8841 H   0  0  0  0  0  0  0  0  0  0  0  0  # atno 7974 bound_to 7965
  154.6653  140.2600  155.7065 H   0  0  0  0  0  0  0  0  0  0  0  0  # atno 8008 bound_to 7997
  156.2636  140.2840  156.1063 H   0  0  0  0  0  0  0  0  0  0  0  0  # atno 8009 bound_to 7997
  155.1248  140.0377  157.2749 H   0  0  0  0  0  0  0  0  0  0  0  0  # atno 8010 bound_to 7997
  140.7045  143.3176  151.2872 H   0  0  0  0  0  0  0  0  0  0  0  0  # atno 10167 bound_to 10162
  156.2197  130.4165  149.9009 H   0  0  0  0  0  0  0  0  0  0  0  0  # atno 10718 bound_to 10713
  153.3925  135.3878  155.1933 H   0  0  0  0  0  0  0  0  0  0  0  0  # atno 10763 bound_to 10752
  154.8721  135.3752  154.4719 H   0  0  0  0  0  0  0  0  0  0  0  0  # atno 10764 bound_to 10752
  153.5207  135.7087  153.5794 H   0  0  0  0  0  0  0  0  0  0  0  0  # atno 10765 bound_to 10752
  139.8929  134.9531  156.6598 H   0  0  0  0  0  0  0  0  0  0  0  0  # atno 11005 bound_to 11000
  144.7399  140.4912  143.6877 LP  0  0  0  0  0  0  0  0  0  0  0  0  # atno 17320 bound_to 7965
  145.5940  139.1498  143.3166 LP  0  0  0  0  0  0  0  0  0  0  0  0  # atno 17321 bound_to 7965
  139.6619  144.0174  152.2698 LP  0  0  0  0  0  0  0  0  0  0  0  0  # atno 17342 bound_to 10162
  139.9744  144.6472  150.7959 LP  0  0  0  0  0  0  0  0  0  0  0  0  # atno 17343 bound_to 10162
  156.6660  130.8801  151.3555 LP  0  0  0  0  0  0  0  0  0  0  0  0  # atno 17370 bound_to 10713
  157.7081  130.9408  150.0997 LP  0  0  0  0  0  0  0  0  0  0  0  0  # atno 17371 bound_to 10713
  140.7456  133.8941  155.8309 LP  0  0  0  0  0  0  0  0  0  0  0  0  # atno 17394 bound_to 11000
  141.0042  134.1108  157.4286 LP  0  0  0  0  0  0  0  0  0  0  0  0  # atno 17395 bound_to 11000

$$$$
