AV-unprocessed.smi:1629|AV-procd|sdf|6521|dock5
  -GOLD-   22720 7193D 1   1.00000     0.00000
 Structure written by MMmdl.
 44 45  0  0  0  0  0  0  0  0  1 V2000
  146.2352  134.2220  151.9340 C   0  0  0  0  0  0  0  0  0  0  0  0
  145.5935  135.9432  151.8872 S   0  0  0  0  0  0  0  0  0  0  0  0
  145.9440  136.5478  150.5930 O   0  0  0  0  0  0  0  0  0  0  0  0
  144.1966  135.9310  152.3478 O   0  0  0  0  0  0  0  0  0  0  0  0
  146.5441  136.7229  153.0983 N   0  0  0  0  0  0  0  0  0  0  0  0
  146.2655  138.1198  153.4467 C   0  0  0  0  0  0  0  0  0  0  0  0
  146.9805  139.0778  152.4619 C   0  0  0  0  0  0  0  0  0  0  0  0
  146.9632  140.5323  152.9643 C   0  0  0  0  0  0  0  0  0  0  0  0
  147.5432  140.5632  154.3153 N   0  0  0  0  0  0  0  0  0  0  0  0
  148.8194  140.8972  154.6334 C   0  0  0  0  0  0  0  0  0  0  0  0
  149.7009  141.0553  153.7876 O   0  0  0  0  0  0  0  0  0  0  0  0
  149.0440  141.0775  155.9477 N   0  0  0  0  0  0  0  0  0  0  0  0
  150.2731  141.6110  156.5336 C   0  0  0  0  0  0  0  0  0  0  0  0
  150.1989  141.6928  158.0729 C   0  0  0  0  0  0  0  0  0  0  0  0
  150.8260  142.9494  158.6561 C   0  0  0  0  0  0  0  0  0  0  0  0
  151.5412  143.8449  157.8323 C   0  0  0  0  0  0  0  0  0  0  0  0
  152.1505  144.9659  158.4276 C   0  0  0  0  0  0  0  0  0  0  0  0
  152.0152  145.1520  159.8163 C   0  0  0  0  0  0  0  0  0  0  0  0
  151.2672  144.2090  160.5492 C   0  0  0  0  0  0  0  0  0  0  0  0
  150.6791  143.1306  159.9877 N   0  0  0  0  0  0  0  0  0  0  0  0
  146.6740  139.8624  155.2653 C   0  0  0  0  0  0  0  0  0  0  0  0
  146.6938  138.3642  154.9117 C   0  0  0  0  0  0  0  0  0  0  0  0
  145.6992  133.6155  151.2041 H   0  0  0  0  0  0  0  0  0  0  0  0
  146.0860  133.8050  152.9298 H   0  0  0  0  0  0  0  0  0  0  0  0
  147.2982  134.2215  151.6946 H   0  0  0  0  0  0  0  0  0  0  0  0
  147.5392  136.5837  152.9248 H   0  0  0  0  0  0  0  0  0  0  0  0
  145.1905  138.2896  153.3757 H   0  0  0  0  0  0  0  0  0  0  0  0
  148.0137  138.7630  152.3260 H   0  0  0  0  0  0  0  0  0  0  0  0
  146.5138  139.0260  151.4778 H   0  0  0  0  0  0  0  0  0  0  0  0
  147.4724  141.1854  152.2555 H   0  0  0  0  0  0  0  0  0  0  0  0
  145.9362  140.8980  153.0024 H   0  0  0  0  0  0  0  0  0  0  0  0
  148.2747  140.9131  156.5802 H   0  0  0  0  0  0  0  0  0  0  0  0
  151.1065  140.9734  156.2380 H   0  0  0  0  0  0  0  0  0  0  0  0
  150.4942  142.5992  156.1275 H   0  0  0  0  0  0  0  0  0  0  0  0
  149.1544  141.6476  158.3838 H   0  0  0  0  0  0  0  0  0  0  0  0
  150.6803  140.8183  158.5125 H   0  0  0  0  0  0  0  0  0  0  0  0
  151.6388  143.6689  156.7713 H   0  0  0  0  0  0  0  0  0  0  0  0
  152.7167  145.6655  157.8306 H   0  0  0  0  0  0  0  0  0  0  0  0
  152.4712  145.9981  160.3082 H   0  0  0  0  0  0  0  0  0  0  0  0
  151.1399  144.3224  161.6154 H   0  0  0  0  0  0  0  0  0  0  0  0
  146.9789  140.0105  156.3024 H   0  0  0  0  0  0  0  0  0  0  0  0
  145.6577  140.2533  155.1985 H   0  0  0  0  0  0  0  0  0  0  0  0
  146.0422  137.8119  155.5897 H   0  0  0  0  0  0  0  0  0  0  0  0
  147.7020  137.9776  155.0717 H   0  0  0  0  0  0  0  0  0  0  0  0
  1  2  1  0  0  0  0
  1 23  1  0  0  0  0
  1 24  1  0  0  0  0
  1 25  1  0  0  0  0
  2  3  2  0  0  0  0
  2  4  2  0  0  0  0
  2  5  1  0  0  0  0
  5  6  1  0  0  0  0
  5 26  1  0  0  0  0
  6 22  1  0  0  0  0
  6  7  1  0  0  0  0
  6 27  1  0  0  0  0
  7  8  1  0  0  0  0
  7 28  1  0  0  0  0
  7 29  1  0  0  0  0
  8  9  1  0  0  0  0
  8 30  1  0  0  0  0
  8 31  1  0  0  0  0
  9 10  1  0  0  0  0
  9 21  1  0  0  0  0
 10 11  2  0  0  0  0
 10 12  1  0  0  0  0
 12 13  1  0  0  0  0
 12 32  1  0  0  0  0
 13 14  1  0  0  0  0
 13 33  1  0  0  0  0
 13 34  1  0  0  0  0
 14 15  1  0  0  0  0
 14 35  1  0  0  0  0
 14 36  1  0  0  0  0
 15 20  1  0  0  0  0
 15 16  2  0  0  0  0
 16 17  1  0  0  0  0
 16 37  1  0  0  0  0
 17 18  2  0  0  0  0
 17 38  1  0  0  0  0
 18 19  1  0  0  0  0
 18 39  1  0  0  0  0
 19 20  2  0  0  0  0
 19 40  1  0  0  0  0
 21 22  1  0  0  0  0
 21 41  1  0  0  0  0
 21 42  1  0  0  0  0
 22 43  1  0  0  0  0
 22 44  1  0  0  0  0
M  END
> <s_m_source_file>
AV-unprocessed.smi

> <i_m_source_file_index>
1629

> <i_lp_mmshare_version>
43012

> <i_f3d_flags>
0

> <s_epik_input>
W0NIM11TKD1PKSg9TylbTkhdW0NIXTFbQ0gyXVtDSDJdTihbQ0gyXVtDSDJdMSlDKD1PKVtOSF1bQ0gyXVtDSDJdYzJbY0hdW2NIXVtjSF1bY0hdbjI=

> <s_epik_cmdline>
J2VwaWtfcHl0aG9uJywgJy1waCcsICc3LjAnLCAnLXRuJywgJzgnLCAnLW1hJywgJzIwMCcsICctbWV0YWxfYmluZGluZycsICctaW1hZScsICc8aW5maWxlLm1hZT4nLCAnLW9tYWUnLCAnPG91dGZpbGUubWFlPic=

> <r_epik_Ionization_Penalty>
0.044864

> <r_epik_Ionization_Penalty_Charging>
0

> <r_epik_Ionization_Penalty_Neutral>
0.044864

> <r_epik_State_Penalty>
0.0379889

> <r_epik_Charging_Adjusted_Penalty>
0.0379889

> <i_epik_Tot_Q>
0

> <i_epik_Tot_abs_Q>
0

> <r_epik_Metal_State_Penalty>
0.04187

> <b_epik_Metal_Only>
0

> <s_lp_Force_Field>
OPLS_2005

> <r_lp_Energy>
21.9129

> <b_lp_Chiralities_Consistent>
1

> <s_lp_Variant>
AV-unprocessed.smi:1629-1

> <Gold.Version>
5.8.1

> <Gold.Id.Protein>
6NUR|6NUR_protein|mol2

> <Gold.PLP.Fitness>
43.3636

> <Gold.PLP.PLP>
-38.0294

> <Gold.PLP.part.hbond>
-3.9737

> <Gold.PLP.part.metal>
0.0000

> <Gold.PLP.part.buried>
-5.0466

> <Gold.PLP.part.nonpolar>
-32.4591

> <Gold.PLP.part.repulsive>
3.4812

> <Gold.PLP.ligand.clash>
0.0220

> <Gold.PLP.ligand.torsion>
0.8458

> <Gold.PLP.Chemscore.Hbond>
2.2960

> <Gold.PLP.Chemscore.CHOScore>
0.0000

> <Gold.PLP.Chemscore.Metal>
0.0000

> <Gold.Chemscore.Hbonds>
donor molecule, donor type, donor heavy atom, donor atom, acceptor molecule, acceptor atom, score
      L1  H     5    26       P1  7948  1.00
      P1  H  7989  7998       L1    11  0.35
      P1  H  8011  8017       L1    11  0.91

> <Gold.PLP.Chemscore.Internal.Correction>
0.1598

> <Gold.Rescore>
     Score         DG    S(hbond)    S(metal)    S(lipo)     H(rot)  DE(clash)    DE(int)     intcor
     16.62     -19.01       2.23        0.00      96.59       2.03       1.43       0.96       ----

> <Gold.Chemscore.Fitness>
16.6155

> <Gold.Chemscore.DG>
-19.0102

> <Gold.Chemscore.ZeroCoef>
-5.4800

> <Gold.Chemscore.Hbond>
2.2264

> <Gold.Chemscore.Metal>
0.0000

> <Gold.Chemscore.Lipo>
96.5911

> <Gold.Chemscore.Internal_Hbond>
0.0000

> <Gold.Chemscore.DEClash>
1.4349

> <Gold.Chemscore.DEInternal>
0.9598

> <Gold.Chemscore.Rot>
2.0340

> <Gold.Chemscore.Internal.Correction>
   9.000000E+99

> <Gold.Chemscore.Hbonds>
donor molecule, donor type, donor heavy atom, donor atom, acceptor molecule, acceptor atom, score
      L1  H     5    26       P1  7948  0.97
      P1  H  7989  7998       L1    11  0.34
      P1  H  8011  8017       L1    11  0.87

> <Gold.Chemscore.Hbond.Weighted>
-7.4361

> <Gold.Chemscore.Metal.Weighted>
-0.0000

> <Gold.Chemscore.Lipo.Weighted>
-11.3012

> <Gold.Chemscore.Internal_Hbond.Weighted>
0.0000

> <Gold.Chemscore.DEClash.Weighted>
1.4349

> <Gold.Chemscore.DEInternal.Weighted>
0.9598

> <Gold.Chemscore.Rot.Weighted>
5.2071

> <Gold.Chemscore.Internal.Correction.Weighted>
   9.000000E+99

> <Gold.Protein.RotatedTorsions>
[ 6907 6896 6895 6894 ] final  154.86 input  -60.11 | X-H torsion
[ 7974 7965 7964 7962 ] final   79.94 input  175.53 | X-H torsion
[ 8008 7997 7996 7995 ] final -153.11 input   59.86 | X-H torsion
[ 10167 10162 10161 10158 ] final -105.80 input  -65.29 | X-H torsion
[ 10718 10713 10712 10709 ] final  161.78 input   66.30 | X-H torsion
[ 10763 10752 10751 10750 ] final   21.57 input  -60.55 | X-H torsion
[ 11005 11000 10999 10996 ] final  110.73 input  -57.11 | X-H torsion

> <Gold.Protein.ActiveResidues>
 VAL166  LYS551  ARG553  GLY616  TRP617  ASP618  TYR619  PRO620  LYS621  CYS622 
 ASP623  PHE694  ASN695  SER759  ASP760  ASP761  ALA762  ILE779  LEU786  VAL792 
 PHE793  MET794  SER795  GLU796  ALA797  LYS798  CYS799  TRP800  GLU811  SER814 

> <Gold.Protein.RotatedAtoms>
  152.0524  133.4025  159.4382 H   0  0  0  0  0  0  0  0  0  0  0  0  # atno 6907 bound_to 6896
  150.6869  134.3292  159.4829 H   0  0  0  0  0  0  0  0  0  0  0  0  # atno 6908 bound_to 6896
  152.1104  134.9278  160.0617 H   0  0  0  0  0  0  0  0  0  0  0  0  # atno 6909 bound_to 6896
  145.6576  139.2463  143.1941 H   0  0  0  0  0  0  0  0  0  0  0  0  # atno 7974 bound_to 7965
  155.6657  140.0727  157.2538 H   0  0  0  0  0  0  0  0  0  0  0  0  # atno 8008 bound_to 7997
  154.4133  140.1708  156.1876 H   0  0  0  0  0  0  0  0  0  0  0  0  # atno 8009 bound_to 7997
  155.9659  140.3366  155.6535 H   0  0  0  0  0  0  0  0  0  0  0  0  # atno 8010 bound_to 7997
  140.1946  143.3865  152.1179 H   0  0  0  0  0  0  0  0  0  0  0  0  # atno 10167 bound_to 10162
  157.1317  131.0518  151.2368 H   0  0  0  0  0  0  0  0  0  0  0  0  # atno 10718 bound_to 10713
  153.0984  135.6666  153.9718 H   0  0  0  0  0  0  0  0  0  0  0  0  # atno 10763 bound_to 10752
  153.9296  135.3005  155.3447 H   0  0  0  0  0  0  0  0  0  0  0  0  # atno 10764 bound_to 10752
  154.7404  135.5082  153.9188 H   0  0  0  0  0  0  0  0  0  0  0  0  # atno 10765 bound_to 10752
  139.8888  134.9491  156.6323 H   0  0  0  0  0  0  0  0  0  0  0  0  # atno 11005 bound_to 11000
  146.1152  140.7379  142.9484 LP  0  0  0  0  0  0  0  0  0  0  0  0  # atno 17320 bound_to 7965
  144.7100  140.4002  143.7088 LP  0  0  0  0  0  0  0  0  0  0  0  0  # atno 17321 bound_to 7965
  139.5242  144.7080  151.5293 LP  0  0  0  0  0  0  0  0  0  0  0  0  # atno 17342 bound_to 10162
  140.6432  143.8847  150.6712 LP  0  0  0  0  0  0  0  0  0  0  0  0  # atno 17343 bound_to 10162
  157.4387  130.7531  149.7050 LP  0  0  0  0  0  0  0  0  0  0  0  0  # atno 17370 bound_to 10713
  155.9806  130.4027  150.3516 LP  0  0  0  0  0  0  0  0  0  0  0  0  # atno 17371 bound_to 10713
  140.7657  133.8780  155.8452 LP  0  0  0  0  0  0  0  0  0  0  0  0  # atno 17394 bound_to 11000
  140.9885  134.1311  157.4430 LP  0  0  0  0  0  0  0  0  0  0  0  0  # atno 17395 bound_to 11000

$$$$
