AV-unprocessed.smi:1644|AV-procd|sdf|6599|dock10
  -GOLD-   22720 7303D 1   1.00000     0.00000
 Structure written by MMmdl.
 49 51  0  0  0  0  0  0  0  0  3 V2000
  147.0419  133.8905  162.2380 C   0  0  0  0  0  0  0  0  0  0  0  0
  147.1980  133.5055  160.7629 C   0  0  0  0  0  0  0  0  0  0  0  0
  147.0592  134.7206  159.8207 C   0  0  0  0  0  0  0  0  0  0  0  0
  148.1063  135.8471  159.9993 C   0  0  1  0  0  0  0  0  0  0  0  0
  149.3533  135.5340  159.3326 N   0  5  0  0  0  0  0  0  0  0  0  0
  149.6349  136.5327  158.4633 C   0  0  0  0  0  0  0  0  0  0  0  0
  150.6071  136.6011  157.7112 O   0  0  0  0  0  0  0  0  0  0  0  0
  148.6824  137.4858  158.4924 N   0  0  0  0  0  0  0  0  0  0  0  0
  148.6601  138.6785  157.6404 C   0  0  0  0  0  0  0  0  0  0  0  0
  148.9886  138.3285  156.1740 C   0  0  1  0  0  0  0  0  0  0  0  0
  147.9628  138.8236  155.3357 O   0  0  0  0  0  0  0  0  0  0  0  0
  150.3250  138.9459  155.7181 C   0  0  0  0  0  0  0  0  0  0  0  0
  150.4624  140.3479  156.1305 N   0  0  0  0  0  0  0  0  0  0  0  0
  149.9323  141.4808  155.5962 C   0  0  0  0  0  0  0  0  0  0  0  0
  150.3716  142.5308  156.3451 N   0  3  0  0  0  0  0  0  0  0  0  0
  151.1978  142.0601  157.3689 C   0  0  0  0  0  0  0  0  0  0  0  0
  151.8832  142.7346  158.3725 C   0  0  0  0  0  0  0  0  0  0  0  0
  152.6530  141.9541  159.2650 C   0  0  0  0  0  0  0  0  0  0  0  0
  153.4221  142.6606  160.3681 C   0  0  0  0  0  0  0  0  0  0  0  0
  152.7111  140.5418  159.1371 C   0  0  0  0  0  0  0  0  0  0  0  0
  153.5415  139.7112  160.1006 C   0  0  0  0  0  0  0  0  0  0  0  0
  152.0039  139.8745  158.1124 C   0  0  0  0  0  0  0  0  0  0  0  0
  151.2563  140.6596  157.2385 C   0  0  0  0  0  0  0  0  0  0  0  0
  147.7191  137.1657  159.3608 C   0  0  0  0  0  0  0  0  0  0  0  0
  146.6894  137.7920  159.6132 O   0  0  0  0  0  0  0  0  0  0  0  0
  147.1538  133.0173  162.8807 H   0  0  0  0  0  0  0  0  0  0  0  0
  146.0593  134.3220  162.4294 H   0  0  0  0  0  0  0  0  0  0  0  0
  147.7940  134.6216  162.5356 H   0  0  0  0  0  0  0  0  0  0  0  0
  148.1714  133.0349  160.6222 H   0  0  0  0  0  0  0  0  0  0  0  0
  146.4518  132.7491  160.5184 H   0  0  0  0  0  0  0  0  0  0  0  0
  147.1017  134.3688  158.7889 H   0  0  0  0  0  0  0  0  0  0  0  0
  146.0634  135.1494  159.9407 H   0  0  0  0  0  0  0  0  0  0  0  0
  148.2581  136.0209  161.0653 H   0  0  0  0  0  0  0  0  0  0  0  0
  147.7095  139.2098  157.7175 H   0  0  0  0  0  0  0  0  0  0  0  0
  149.4040  139.3749  158.0310 H   0  0  0  0  0  0  0  0  0  0  0  0
  149.0368  137.2464  156.0492 H   0  0  0  0  0  0  0  0  0  0  0  0
  148.3578  139.3470  154.6554 H   0  0  0  0  0  0  0  0  0  0  0  0
  151.1695  138.3886  156.1261 H   0  0  0  0  0  0  0  0  0  0  0  0
  150.4224  138.9070  154.6323 H   0  0  0  0  0  0  0  0  0  0  0  0
  149.2856  141.5372  154.7326 H   0  0  0  0  0  0  0  0  0  0  0  0
  151.8343  143.8098  158.4643 H   0  0  0  0  0  0  0  0  0  0  0  0
  154.4868  142.4364  160.2975 H   0  0  0  0  0  0  0  0  0  0  0  0
  153.0644  142.3413  161.3472 H   0  0  0  0  0  0  0  0  0  0  0  0
  153.3056  143.7432  160.3064 H   0  0  0  0  0  0  0  0  0  0  0  0
  153.4446  138.6448  159.8932 H   0  0  0  0  0  0  0  0  0  0  0  0
  153.2208  139.8801  161.1289 H   0  0  0  0  0  0  0  0  0  0  0  0
  154.5968  139.9723  160.0178 H   0  0  0  0  0  0  0  0  0  0  0  0
  152.0517  138.7995  158.0103 H   0  0  0  0  0  0  0  0  0  0  0  0
  150.1275  143.4964  156.1654 H   0  0  0  0  0  0  0  0  0  0  0  0
  1  2  1  0  0  0  0
  1 26  1  0  0  0  0
  1 27  1  0  0  0  0
  1 28  1  0  0  0  0
  2  3  1  0  0  0  0
  2 29  1  0  0  0  0
  2 30  1  0  0  0  0
  3  4  1  0  0  0  0
  3 31  1  0  0  0  0
  3 32  1  0  0  0  0
  4 24  1  0  0  0  0
  4  5  1  0  0  0  0
  4 33  1  0  0  0  0
  5  6  1  0  0  0  0
  6  7  2  0  0  0  0
  6  8  1  0  0  0  0
  8  9  1  0  0  0  0
  8 24  1  0  0  0  0
  9 10  1  0  0  0  0
  9 34  1  0  0  0  0
  9 35  1  0  0  0  0
 10 11  1  0  0  0  0
 10 12  1  0  0  0  0
 10 36  1  0  0  0  0
 11 37  1  0  0  0  0
 12 13  1  0  0  0  0
 12 38  1  0  0  0  0
 12 39  1  0  0  0  0
 13 23  1  0  0  0  0
 13 14  1  0  0  0  0
 14 15  2  0  0  0  0
 14 40  1  0  0  0  0
 15 16  1  0  0  0  0
 15 49  1  0  0  0  0
 16 23  2  0  0  0  0
 16 17  1  0  0  0  0
 17 18  2  0  0  0  0
 17 41  1  0  0  0  0
 18 19  1  0  0  0  0
 18 20  1  0  0  0  0
 19 42  1  0  0  0  0
 19 43  1  0  0  0  0
 19 44  1  0  0  0  0
 20 21  1  0  0  0  0
 20 22  2  0  0  0  0
 21 45  1  0  0  0  0
 21 46  1  0  0  0  0
 21 47  1  0  0  0  0
 22 23  1  0  0  0  0
 22 48  1  0  0  0  0
 24 25  2  0  0  0  0
M  CHG  1   5  -1
M  CHG  1  15   1
M  END
> <s_m_source_file>
AV-unprocessed.smi

> <i_m_source_file_index>
1644

> <i_lp_mmshare_version>
43012

> <i_f3d_flags>
0

> <s_epik_input>
W0NIM11bQ0gyXVtDSDJdW0NAQEhdMVtOSF1DKD1PKU4oQzE9TylbQ0gyXVtDQEhdKFtPSF0pW0NIMl1uKFtjSF1uMiljKGMyMylbY0hdYyhbQ0gzXSljKFtjSF0zKVtDSDNd

> <s_epik_cmdline>
J2VwaWtfcHl0aG9uJywgJy1waCcsICc3LjAnLCAnLXRuJywgJzgnLCAnLW1hJywgJzIwMCcsICctbWV0YWxfYmluZGluZycsICctaW1hZScsICc8aW5maWxlLm1hZT4nLCAnLW9tYWUnLCAnPG91dGZpbGUubWFlPic=

> <r_lp_tautomer_probability>
1

> <r_epik_Ionization_Penalty>
6.86868

> <r_epik_Ionization_Penalty_Charging>
6.86868

> <r_epik_Ionization_Penalty_Neutral>
5.84798e-07

> <r_epik_State_Penalty>
6.92818

> <r_epik_Charging_Adjusted_Penalty>
13.7969

> <i_epik_Tot_Q>
0

> <i_epik_Tot_abs_Q>
2

> <r_epik_Metal_State_Penalty>
2.98017

> <b_epik_Metal_Only>
1

> <s_lp_Force_Field>
OPLS_2005

> <r_lp_Energy>
22.7733

> <b_lp_Chiralities_Consistent>
1

> <s_lp_Variant>
AV-unprocessed.smi:1644-16

> <Gold.Version>
5.8.1

> <Gold.Id.Protein>
6NUR|6NUR_protein|mol2

> <Gold.PLP.Fitness>
52.7567

> <Gold.PLP.PLP>
-41.1518

> <Gold.PLP.part.hbond>
-2.8561

> <Gold.PLP.part.metal>
0.0000

> <Gold.PLP.part.buried>
-4.8351

> <Gold.PLP.part.nonpolar>
-34.4900

> <Gold.PLP.part.repulsive>
0.1513

> <Gold.PLP.ligand.clash>
0.0000

> <Gold.PLP.ligand.torsion>
1.4272

> <Gold.PLP.Chemscore.Hbond>
4.7840

> <Gold.PLP.Chemscore.CHOScore>
0.0000

> <Gold.PLP.Chemscore.Metal>
0.0000

> <Gold.Chemscore.Hbonds>
donor molecule, donor type, donor heavy atom, donor atom, acceptor molecule, acceptor atom, score
      L1  H    15    49       P1  8028  1.98
      P1  H  6896  6908       L1     5  1.89
      P1  H  6934  6947       L1    25  0.88

> <Gold.PLP.Chemscore.Internal.Correction>
0.1073

> <Gold.Rescore>
     Score         DG    S(hbond)    S(metal)    S(lipo)     H(rot)  DE(clash)    DE(int)     intcor
     15.60     -18.46       2.68        0.00      94.04       2.72       0.04       2.82       ----

> <Gold.Chemscore.Fitness>
15.5995

> <Gold.Chemscore.DG>
-18.4583

> <Gold.Chemscore.ZeroCoef>
-5.4800

> <Gold.Chemscore.Hbond>
2.6799

> <Gold.Chemscore.Metal>
0.0000

> <Gold.Chemscore.Lipo>
94.0374

> <Gold.Chemscore.Internal_Hbond>
0.0000

> <Gold.Chemscore.DEClash>
0.0429

> <Gold.Chemscore.DEInternal>
2.8158

> <Gold.Chemscore.Rot>
2.7245

> <Gold.Chemscore.Internal.Correction>
   9.000000E+99

> <Gold.Chemscore.Hbonds>
donor molecule, donor type, donor heavy atom, donor atom, acceptor molecule, acceptor atom, score
      L1  H    15    49       P1  8028  0.94
      P1  H  6896  6908       L1     5  0.36
      P1  H  6934  6947       L1    25  0.48

> <Gold.Chemscore.Hbond.Weighted>
-8.9507

> <Gold.Chemscore.Metal.Weighted>
-0.0000

> <Gold.Chemscore.Lipo.Weighted>
-11.0024

> <Gold.Chemscore.Internal_Hbond.Weighted>
0.0000

> <Gold.Chemscore.DEClash.Weighted>
0.0429

> <Gold.Chemscore.DEInternal.Weighted>
2.8158

> <Gold.Chemscore.Rot.Weighted>
6.9748

> <Gold.Chemscore.Internal.Correction.Weighted>
   9.000000E+99

> <Gold.Protein.RotatedTorsions>
[ 6907 6896 6895 6894 ] final -161.62 input  -60.11 | X-H torsion
[ 7974 7965 7964 7962 ] final -131.31 input  175.53 | X-H torsion
[ 8008 7997 7996 7995 ] final -136.59 input   59.86 | X-H torsion
[ 10167 10162 10161 10158 ] final   41.89 input  -65.29 | X-H torsion
[ 10718 10713 10712 10709 ] final -136.38 input   66.30 | X-H torsion
[ 10763 10752 10751 10750 ] final  147.63 input  -60.55 | X-H torsion
[ 11005 11000 10999 10996 ] final   47.77 input  -57.11 | X-H torsion

> <Gold.Protein.ActiveResidues>
 VAL166  LYS551  ARG553  GLY616  TRP617  ASP618  TYR619  PRO620  LYS621  CYS622 
 ASP623  PHE694  ASN695  SER759  ASP760  ASP761  ALA762  ILE779  LEU786  VAL792 
 PHE793  MET794  SER795  GLU796  ALA797  LYS798  CYS799  TRP800  GLU811  SER814 

> <Gold.Protein.RotatedAtoms>
  151.3675  133.3867  159.2695 H   0  0  0  0  0  0  0  0  0  0  0  0  # atno 6907 bound_to 6896
  150.9677  134.9056  159.7779 H   0  0  0  0  0  0  0  0  0  0  0  0  # atno 6908 bound_to 6896
  152.5173  134.3636  159.9345 H   0  0  0  0  0  0  0  0  0  0  0  0  # atno 6909 bound_to 6896
  144.9391  140.7218  143.4858 H   0  0  0  0  0  0  0  0  0  0  0  0  # atno 7974 bound_to 7965
  155.3978  140.0504  157.3038 H   0  0  0  0  0  0  0  0  0  0  0  0  # atno 8008 bound_to 7997
  154.5005  140.2155  155.9317 H   0  0  0  0  0  0  0  0  0  0  0  0  # atno 8009 bound_to 7997
  156.1461  140.3145  155.8578 H   0  0  0  0  0  0  0  0  0  0  0  0  # atno 8010 bound_to 7997
  140.3598  144.2242  150.6139 H   0  0  0  0  0  0  0  0  0  0  0  0  # atno 10167 bound_to 10162
  156.2764  130.7295  151.1279 H   0  0  0  0  0  0  0  0  0  0  0  0  # atno 10718 bound_to 10713
  154.0415  135.2889  155.3354 H   0  0  0  0  0  0  0  0  0  0  0  0  # atno 10763 bound_to 10752
  154.6926  135.5220  153.8417 H   0  0  0  0  0  0  0  0  0  0  0  0  # atno 10764 bound_to 10752
  153.0598  135.6609  154.0619 H   0  0  0  0  0  0  0  0  0  0  0  0  # atno 10765 bound_to 10752
  140.1249  134.4781  155.8567 H   0  0  0  0  0  0  0  0  0  0  0  0  # atno 11005 bound_to 11000
  145.3019  139.1847  143.4685 LP  0  0  0  0  0  0  0  0  0  0  0  0  # atno 17320 bound_to 7965
  146.3278  140.3012  142.8621 LP  0  0  0  0  0  0  0  0  0  0  0  0  # atno 17321 bound_to 7965
  140.5138  143.2283  151.8495 LP  0  0  0  0  0  0  0  0  0  0  0  0  # atno 17342 bound_to 10162
  139.4815  144.4919  151.9174 LP  0  0  0  0  0  0  0  0  0  0  0  0  # atno 17343 bound_to 10162
  157.7300  131.0619  150.5745 LP  0  0  0  0  0  0  0  0  0  0  0  0  # atno 17370 bound_to 10713
  156.5846  130.4313  149.5962 LP  0  0  0  0  0  0  0  0  0  0  0  0  # atno 17371 bound_to 10713
  141.2159  133.6774  156.6960 LP  0  0  0  0  0  0  0  0  0  0  0  0  # atno 17394 bound_to 11000
  140.2916  134.8236  157.4022 LP  0  0  0  0  0  0  0  0  0  0  0  0  # atno 17395 bound_to 11000

$$$$
