AV-unprocessed.smi:1866|AV-procd|sdf|7559|dock3
  -GOLD-   22720 9273D 1   1.00000     0.00000
 Structure written by MMmdl.
 29 30  0  0  0  0  0  0  0  0  2 V2000
  148.6927  140.8392  154.4086 C   0  0  0  0  0  0  0  0  0  0  0  0
  149.5795  139.6422  154.4518 C   0  0  0  0  0  0  0  0  0  0  0  0
  150.9084  139.7245  154.3534 N   0  0  0  0  0  0  0  0  0  0  0  0
  151.5156  138.4787  154.4211 N   0  0  0  0  0  0  0  0  0  0  0  0
  150.6409  137.4752  154.5787 C   0  0  0  0  0  0  0  0  0  0  0  0
  151.0256  136.1909  154.6623 N   0  5  0  0  0  0  0  0  0  0  0  0
  150.1446  135.2460  155.0628 C   0  0  0  0  0  0  0  0  0  0  0  0
  150.1745  134.6237  156.1268 O   0  0  0  0  0  0  0  0  0  0  0  0
  149.1649  135.0144  154.1758 N   0  0  0  0  0  0  0  0  0  0  0  0
  148.0732  134.0476  154.3065 C   0  0  1  0  0  0  0  0  0  0  0  0
  146.7602  134.7342  153.8706 C   0  0  0  0  0  0  0  0  0  0  0  0
  146.6559  134.8777  152.3490 C   0  0  0  0  0  0  0  0  0  0  0  0
  146.7108  133.4938  151.6913 C   0  0  0  0  0  0  0  0  0  0  0  0
  147.7526  132.6398  152.2570 N   0  0  0  0  0  0  0  0  0  0  0  0
  148.3764  132.8035  153.4383 C   0  0  0  0  0  0  0  0  0  0  0  0
  149.1875  131.9713  153.8393 O   0  0  0  0  0  0  0  0  0  0  0  0
  148.9612  138.0095  154.6353 S   0  0  0  0  0  0  0  0  0  0  0  0
  148.7200  141.3573  155.3672 H   0  0  0  0  0  0  0  0  0  0  0  0
  147.6649  140.5421  154.1995 H   0  0  0  0  0  0  0  0  0  0  0  0
  149.0225  141.5251  153.6279 H   0  0  0  0  0  0  0  0  0  0  0  0
  149.1889  135.5509  153.3214 H   0  0  0  0  0  0  0  0  0  0  0  0
  147.9794  133.7407  155.3497 H   0  0  0  0  0  0  0  0  0  0  0  0
  145.9127  134.1499  154.2313 H   0  0  0  0  0  0  0  0  0  0  0  0
  146.6713  135.7123  154.3454 H   0  0  0  0  0  0  0  0  0  0  0  0
  145.7318  135.3873  152.0751 H   0  0  0  0  0  0  0  0  0  0  0  0
  147.4737  135.4973  151.9789 H   0  0  0  0  0  0  0  0  0  0  0  0
  145.7560  132.9846  151.8255 H   0  0  0  0  0  0  0  0  0  0  0  0
  146.8677  133.5902  150.6168 H   0  0  0  0  0  0  0  0  0  0  0  0
  147.9999  131.8219  151.7193 H   0  0  0  0  0  0  0  0  0  0  0  0
  1  2  1  0  0  0  0
  1 18  1  0  0  0  0
  1 19  1  0  0  0  0
  1 20  1  0  0  0  0
  2 17  1  0  0  0  0
  2  3  2  0  0  0  0
  3  4  1  0  0  0  0
  4  5  2  0  0  0  0
  5  6  1  0  0  0  0
  5 17  1  0  0  0  0
  6  7  1  0  0  0  0
  7  8  2  0  0  0  0
  7  9  1  0  0  0  0
  9 10  1  0  0  0  0
  9 21  1  0  0  0  0
 10 15  1  0  0  0  0
 10 11  1  0  0  0  0
 10 22  1  0  0  0  0
 11 12  1  0  0  0  0
 11 23  1  0  0  0  0
 11 24  1  0  0  0  0
 12 13  1  0  0  0  0
 12 25  1  0  0  0  0
 12 26  1  0  0  0  0
 13 14  1  0  0  0  0
 13 27  1  0  0  0  0
 13 28  1  0  0  0  0
 14 15  1  0  0  0  0
 14 29  1  0  0  0  0
 15 16  2  0  0  0  0
M  CHG  1   6  -1
M  END
> <s_m_source_file>
AV-unprocessed.smi

> <i_m_source_file_index>
1866

> <i_lp_mmshare_version>
43012

> <i_f3d_flags>
0

> <s_epik_input>
W0NIM11jMW5uYyhzMSlbTkhdQyg9TylbTkhdW0NAQEhdMltDSDJdW0NIMl1bQ0gyXVtOSF1DMj1P

> <s_epik_cmdline>
J2VwaWtfcHl0aG9uJywgJy1waCcsICc3LjAnLCAnLXRuJywgJzgnLCAnLW1hJywgJzIwMCcsICctbWV0YWxfYmluZGluZycsICctaW1hZScsICc8aW5maWxlLm1hZT4nLCAnLW9tYWUnLCAnPG91dGZpbGUubWFlPic=

> <r_lp_tautomer_probability>
1

> <r_epik_Ionization_Penalty>
3.97471

> <r_epik_Ionization_Penalty_Charging>
3.84029

> <r_epik_Ionization_Penalty_Neutral>
0.134427

> <r_epik_State_Penalty>
3.83938

> <r_epik_Charging_Adjusted_Penalty>
7.67966

> <i_epik_Tot_Q>
-1

> <i_epik_Tot_abs_Q>
1

> <r_epik_Metal_State_Penalty>
0.577306

> <b_epik_Metal_Only>
1

> <s_lp_Force_Field>
OPLS_2005

> <r_lp_Energy>
8.91558

> <b_lp_Chiralities_Consistent>
1

> <s_lp_Variant>
AV-unprocessed.smi:1866-4

> <Gold.Version>
5.8.1

> <Gold.Id.Protein>
6NUR|6NUR_protein|mol2

> <Gold.PLP.Fitness>
36.0960

> <Gold.PLP.PLP>
-22.9005

> <Gold.PLP.part.hbond>
-4.0000

> <Gold.PLP.part.metal>
0.0000

> <Gold.PLP.part.buried>
-1.2141

> <Gold.PLP.part.nonpolar>
-18.2882

> <Gold.PLP.part.repulsive>
0.5564

> <Gold.PLP.ligand.clash>
0.0000

> <Gold.PLP.ligand.torsion>
0.9043

> <Gold.PLP.Chemscore.Hbond>
5.0000

> <Gold.PLP.Chemscore.CHOScore>
0.0000

> <Gold.PLP.Chemscore.Metal>
0.0000

> <Gold.Chemscore.Hbonds>
donor molecule, donor type, donor heavy atom, donor atom, acceptor molecule, acceptor atom, score
      L1  H     9    21       P1  7948  1.00
      L1  H    14    29       P1 10747  1.00
      P1  H  7989  7998       L1     3  1.00
      P1  H 10752 10763       L1     6  2.00

> <Gold.PLP.Chemscore.Internal.Correction>
0.0042

> <Gold.Rescore>
     Score         DG    S(hbond)    S(metal)    S(lipo)     H(rot)  DE(clash)    DE(int)     intcor
     15.52     -17.94       3.36        0.00      32.49       1.00       1.54       0.89       ----

> <Gold.Chemscore.Fitness>
15.5154

> <Gold.Chemscore.DG>
-17.9434

> <Gold.Chemscore.ZeroCoef>
-5.4800

> <Gold.Chemscore.Hbond>
3.3598

> <Gold.Chemscore.Metal>
0.0000

> <Gold.Chemscore.Lipo>
32.4934

> <Gold.Chemscore.Internal_Hbond>
0.0000

> <Gold.Chemscore.DEClash>
1.5378

> <Gold.Chemscore.DEInternal>
0.8902

> <Gold.Chemscore.Rot>
1.0000

> <Gold.Chemscore.Internal.Correction>
   9.000000E+99

> <Gold.Chemscore.Hbonds>
donor molecule, donor type, donor heavy atom, donor atom, acceptor molecule, acceptor atom, score
      L1  H     9    21       P1  7948  0.44
      L1  H    14    29       P1 10747  0.95
      P1  H  7989  7998       L1     3  0.93
      P1  H 10752 10763       L1     6  0.84

> <Gold.Chemscore.Hbond.Weighted>
-11.2217

> <Gold.Chemscore.Metal.Weighted>
-0.0000

> <Gold.Chemscore.Lipo.Weighted>
-3.8017

> <Gold.Chemscore.Internal_Hbond.Weighted>
0.0000

> <Gold.Chemscore.DEClash.Weighted>
1.5378

> <Gold.Chemscore.DEInternal.Weighted>
0.8902

> <Gold.Chemscore.Rot.Weighted>
2.5600

> <Gold.Chemscore.Internal.Correction.Weighted>
   9.000000E+99

> <Gold.Protein.RotatedTorsions>
[ 6907 6896 6895 6894 ] final   42.37 input  -60.11 | X-H torsion
[ 7974 7965 7964 7962 ] final  125.95 input  175.53 | X-H torsion
[ 8008 7997 7996 7995 ] final  -16.54 input   59.86 | X-H torsion
[ 10167 10162 10161 10158 ] final  -38.43 input  -65.29 | X-H torsion
[ 10718 10713 10712 10709 ] final -165.30 input   66.30 | X-H torsion
[ 10763 10752 10751 10750 ] final   61.13 input  -60.55 | X-H torsion
[ 11005 11000 10999 10996 ] final    9.25 input  -57.11 | X-H torsion

> <Gold.Protein.ActiveResidues>
 VAL166  LYS551  ARG553  GLY616  TRP617  ASP618  TYR619  PRO620  LYS621  CYS622 
 ASP623  PHE694  ASN695  SER759  ASP760  ASP761  ALA762  ILE779  LEU786  VAL792 
 PHE793  MET794  SER795  GLU796  ALA797  LYS798  CYS799  TRP800  GLU811  SER814 

> <Gold.Protein.RotatedAtoms>
  152.2070  134.8536  160.0501 H   0  0  0  0  0  0  0  0  0  0  0  0  # atno 6907 bound_to 6896
  151.9368  133.3621  159.3959 H   0  0  0  0  0  0  0  0  0  0  0  0  # atno 6908 bound_to 6896
  150.6967  134.4405  159.5334 H   0  0  0  0  0  0  0  0  0  0  0  0  # atno 6909 bound_to 6896
  145.0672  139.3759  143.4976 H   0  0  0  0  0  0  0  0  0  0  0  0  # atno 7974 bound_to 7965
  154.5045  140.2167  155.9278 H   0  0  0  0  0  0  0  0  0  0  0  0  # atno 8008 bound_to 7997
  156.1477  140.3167  155.8563 H   0  0  0  0  0  0  0  0  0  0  0  0  # atno 8009 bound_to 7997
  155.4000  140.0483  157.3028 H   0  0  0  0  0  0  0  0  0  0  0  0  # atno 8010 bound_to 7997
  140.7092  143.3277  151.2640 H   0  0  0  0  0  0  0  0  0  0  0  0  # atno 10167 bound_to 10162
  156.6514  130.9009  151.3014 H   0  0  0  0  0  0  0  0  0  0  0  0  # atno 10718 bound_to 10713
  152.9941  135.5512  154.5984 H   0  0  0  0  0  0  0  0  0  0  0  0  # atno 10763 bound_to 10752
  154.5331  135.2815  155.1165 H   0  0  0  0  0  0  0  0  0  0  0  0  # atno 10764 bound_to 10752
  154.2472  135.6405  153.5280 H   0  0  0  0  0  0  0  0  0  0  0  0  # atno 10765 bound_to 10752
  140.5278  134.0496  155.7864 H   0  0  0  0  0  0  0  0  0  0  0  0  # atno 11005 bound_to 11000
  146.3527  140.0398  142.8644 LP  0  0  0  0  0  0  0  0  0  0  0  0  # atno 17320 bound_to 7965
  145.1337  140.9532  143.4529 LP  0  0  0  0  0  0  0  0  0  0  0  0  # atno 17321 bound_to 7965
  139.6751  143.9952  152.2776 LP  0  0  0  0  0  0  0  0  0  0  0  0  # atno 17342 bound_to 10162
  139.9564  144.6587  150.8122 LP  0  0  0  0  0  0  0  0  0  0  0  0  # atno 17343 bound_to 10162
  157.7139  130.9474  150.1187 LP  0  0  0  0  0  0  0  0  0  0  0  0  # atno 17370 bound_to 10713
  156.2081  130.3665  149.8704 LP  0  0  0  0  0  0  0  0  0  0  0  0  # atno 17371 bound_to 10713
  141.1298  133.9321  157.2559 LP  0  0  0  0  0  0  0  0  0  0  0  0  # atno 17394 bound_to 11000
  139.9570  135.0163  156.9157 LP  0  0  0  0  0  0  0  0  0  0  0  0  # atno 17395 bound_to 11000

$$$$
