AV-unprocessed.smi:1099|AV-procd|sdf|4757|dock10
  -GOLD-   22720 3293D 1   1.00000     0.00000
 Structure written by MMmdl.
 41 43  0  0  0  0  0  0  0  0  1 V2000
  152.9876  142.8673  162.2560 C   0  0  0  0  0  0  0  0  0  0  0  0
  152.5532  144.2366  161.7229 C   0  0  0  0  0  0  0  0  0  0  0  0
  152.1091  144.1829  160.2994 C   0  0  0  0  0  0  0  0  0  0  0  0
  152.0770  143.0588  159.5782 N   0  0  0  0  0  0  0  0  0  0  0  0
  151.6550  143.2749  158.2627 C   0  0  0  0  0  0  0  0  0  0  0  0
  151.5442  142.1224  157.3110 C   0  0  0  0  0  0  0  0  0  0  0  0
  150.9363  140.8778  157.9721 C   0  0  0  0  0  0  0  0  0  0  0  0
  149.7605  140.4290  157.2387 N   0  0  0  0  0  0  0  0  0  0  0  0
  149.7421  140.1611  155.9251 C   0  0  0  0  0  0  0  0  0  0  0  0
  150.7346  140.2778  155.2053 O   0  0  0  0  0  0  0  0  0  0  0  0
  148.4026  139.6586  155.3566 C   0  0  2  0  0  0  0  0  0  0  0  0
  148.3641  139.5232  153.8142 C   0  0  0  0  0  0  0  0  0  0  0  0
  147.1086  140.3275  153.4273 C   0  0  2  0  0  0  0  0  0  0  0  0
  147.3925  141.8327  153.5871 C   0  0  0  0  0  0  0  0  0  0  0  0
  147.3859  142.0177  155.1156 C   0  0  0  0  0  0  0  0  0  0  0  0
  147.1820  140.5765  155.6327 C   0  0  1  0  0  0  0  0  0  0  0  0
  146.1828  140.0502  154.6065 C   0  0  0  0  0  0  0  0  0  0  0  0
  151.3766  144.5917  157.9932 C   0  0  0  0  0  0  0  0  0  0  0  0
  151.6388  145.6093  159.3823 S   0  0  0  0  0  0  0  0  0  0  0  0
  153.3101  142.9399  163.2947 H   0  0  0  0  0  0  0  0  0  0  0  0
  153.8190  142.4650  161.6762 H   0  0  0  0  0  0  0  0  0  0  0  0
  152.1680  142.1496  162.2105 H   0  0  0  0  0  0  0  0  0  0  0  0
  151.7399  144.6328  162.3321 H   0  0  0  0  0  0  0  0  0  0  0  0
  153.3780  144.9451  161.8042 H   0  0  0  0  0  0  0  0  0  0  0  0
  150.9358  142.4108  156.4527 H   0  0  0  0  0  0  0  0  0  0  0  0
  152.5287  141.8774  156.9102 H   0  0  0  0  0  0  0  0  0  0  0  0
  151.6717  140.0725  158.0079 H   0  0  0  0  0  0  0  0  0  0  0  0
  150.6537  141.1036  159.0016 H   0  0  0  0  0  0  0  0  0  0  0  0
  148.9076  140.3055  157.7647 H   0  0  0  0  0  0  0  0  0  0  0  0
  148.1999  138.6759  155.7872 H   0  0  0  0  0  0  0  0  0  0  0  0
  149.2555  139.8928  153.3060 H   0  0  0  0  0  0  0  0  0  0  0  0
  148.2458  138.4760  153.5333 H   0  0  0  0  0  0  0  0  0  0  0  0
  146.7045  140.0618  152.4500 H   0  0  0  0  0  0  0  0  0  0  0  0
  148.3436  142.1218  153.1383 H   0  0  0  0  0  0  0  0  0  0  0  0
  146.6072  142.4317  153.1245 H   0  0  0  0  0  0  0  0  0  0  0  0
  148.2879  142.5005  155.4896 H   0  0  0  0  0  0  0  0  0  0  0  0
  146.5445  142.6454  155.4124 H   0  0  0  0  0  0  0  0  0  0  0  0
  146.8288  140.5293  156.6633 H   0  0  0  0  0  0  0  0  0  0  0  0
  145.2533  140.6215  154.5710 H   0  0  0  0  0  0  0  0  0  0  0  0
  145.9459  138.9921  154.7320 H   0  0  0  0  0  0  0  0  0  0  0  0
  151.0362  145.0237  157.0639 H   0  0  0  0  0  0  0  0  0  0  0  0
  1  2  1  0  0  0  0
  1 20  1  0  0  0  0
  1 21  1  0  0  0  0
  1 22  1  0  0  0  0
  2  3  1  0  0  0  0
  2 23  1  0  0  0  0
  2 24  1  0  0  0  0
  3 19  1  0  0  0  0
  3  4  2  0  0  0  0
  4  5  1  0  0  0  0
  5  6  1  0  0  0  0
  5 18  2  0  0  0  0
  6  7  1  0  0  0  0
  6 25  1  0  0  0  0
  6 26  1  0  0  0  0
  7  8  1  0  0  0  0
  7 27  1  0  0  0  0
  7 28  1  0  0  0  0
  8  9  1  0  0  0  0
  8 29  1  0  0  0  0
  9 10  2  0  0  0  0
  9 11  1  0  0  0  0
 11 16  1  0  0  0  0
 11 12  1  0  0  0  0
 11 30  1  0  0  0  0
 12 13  1  0  0  0  0
 12 31  1  0  0  0  0
 12 32  1  0  0  0  0
 13 17  1  0  0  0  0
 13 14  1  0  0  0  0
 13 33  1  0  0  0  0
 14 15  1  0  0  0  0
 14 34  1  0  0  0  0
 14 35  1  0  0  0  0
 15 16  1  0  0  0  0
 15 36  1  0  0  0  0
 15 37  1  0  0  0  0
 16 17  1  0  0  0  0
 16 38  1  0  0  0  0
 17 39  1  0  0  0  0
 17 40  1  0  0  0  0
 18 19  1  0  0  0  0
 18 41  1  0  0  0  0
M  END
> <s_m_source_file>
AV-unprocessed.smi

> <i_m_source_file_index>
1099

> <i_lp_mmshare_version>
43012

> <i_f3d_flags>
0

> <s_epik_input>
W0NIM11bQ0gyXWMxbmMoW2NIXXMxKVtDSDJdW0NIMl1bTkhdQyg9TylbQ0BIXShbQ0gyXVtDQEBIXTIzKVtDQEBIXShbQ0gyXTMpW0NIMl1bQ0gyXTI=

> <s_epik_cmdline>
J2VwaWtfcHl0aG9uJywgJy1waCcsICc3LjAnLCAnLXRuJywgJzgnLCAnLW1hJywgJzIwMCcsICctbWV0YWxfYmluZGluZycsICctaW1hZScsICc8aW5maWxlLm1hZT4nLCAnLW9tYWUnLCAnPG91dGZpbGUubWFlPic=

> <r_epik_Ionization_Penalty>
0.00110131

> <r_epik_Ionization_Penalty_Charging>
0

> <r_epik_Ionization_Penalty_Neutral>
0.00110131

> <r_epik_State_Penalty>
0.00072257

> <r_epik_Charging_Adjusted_Penalty>
0.00072257

> <i_epik_Tot_Q>
0

> <i_epik_Tot_abs_Q>
0

> <r_epik_Metal_State_Penalty>
-0

> <b_epik_Metal_Only>
0

> <s_lp_Force_Field>
OPLS_2005

> <r_lp_Energy>
38.6178

> <b_lp_Chiralities_Consistent>
1

> <s_lp_Variant>
AV-unprocessed.smi:1099-3

> <Gold.Version>
5.8.1

> <Gold.Id.Protein>
6NUR|6NUR_protein|mol2

> <Gold.PLP.Fitness>
42.5594

> <Gold.PLP.PLP>
-38.0099

> <Gold.PLP.part.hbond>
-1.0000

> <Gold.PLP.part.metal>
0.0000

> <Gold.PLP.part.buried>
-4.4416

> <Gold.PLP.part.nonpolar>
-32.2464

> <Gold.PLP.part.repulsive>
0.0932

> <Gold.PLP.ligand.clash>
0.0000

> <Gold.PLP.ligand.torsion>
0.7461

> <Gold.PLP.Chemscore.Hbond>
1.0000

> <Gold.PLP.Chemscore.CHOScore>
1.0000

> <Gold.PLP.Chemscore.Metal>
0.0000

> <Gold.Chemscore.Hbonds>
donor molecule, donor type, donor heavy atom, donor atom, acceptor molecule, acceptor atom, score
      P1  H  7989  7998       L1    10  1.00
      L1  C    18    41       P1  8028  0.98

> <Gold.PLP.Chemscore.Internal.Correction>
0.0418

> <Gold.Rescore>
     Score         DG    S(hbond)    S(metal)    S(lipo)     H(rot)  DE(clash)    DE(int)     intcor
     16.28     -18.57       0.93        0.00     116.18       1.42       0.32       1.97       ----

> <Gold.Chemscore.Fitness>
16.2759

> <Gold.Chemscore.DG>
-18.5690

> <Gold.Chemscore.ZeroCoef>
-5.4800

> <Gold.Chemscore.Hbond>
0.9346

> <Gold.Chemscore.Metal>
0.0000

> <Gold.Chemscore.Lipo>
116.1837

> <Gold.Chemscore.Internal_Hbond>
0.0000

> <Gold.Chemscore.DEClash>
0.3184

> <Gold.Chemscore.DEInternal>
1.9747

> <Gold.Chemscore.Rot>
1.4165

> <Gold.Chemscore.Internal.Correction>
   9.000000E+99

> <Gold.Chemscore.Hbonds>
donor molecule, donor type, donor heavy atom, donor atom, acceptor molecule, acceptor atom, score
      P1  H  7989  7998       L1    10  0.93

> <Gold.Chemscore.Hbond.Weighted>
-3.1217

> <Gold.Chemscore.Metal.Weighted>
-0.0000

> <Gold.Chemscore.Lipo.Weighted>
-13.5935

> <Gold.Chemscore.Internal_Hbond.Weighted>
0.0000

> <Gold.Chemscore.DEClash.Weighted>
0.3184

> <Gold.Chemscore.DEInternal.Weighted>
1.9747

> <Gold.Chemscore.Rot.Weighted>
3.6262

> <Gold.Chemscore.Internal.Correction.Weighted>
   9.000000E+99

> <Gold.Protein.RotatedTorsions>
[ 6907 6896 6895 6894 ] final -106.20 input  -60.11 | X-H torsion
[ 7974 7965 7964 7962 ] final  108.76 input  175.53 | X-H torsion
[ 8008 7997 7996 7995 ] final -173.92 input   59.86 | X-H torsion
[ 10167 10162 10161 10158 ] final  -20.08 input  -65.29 | X-H torsion
[ 10718 10713 10712 10709 ] final   83.54 input   66.30 | X-H torsion
[ 10763 10752 10751 10750 ] final -115.37 input  -60.55 | X-H torsion
[ 11005 11000 10999 10996 ] final  -34.41 input  -57.11 | X-H torsion

> <Gold.Protein.ActiveResidues>
 VAL166  LYS551  ARG553  GLY616  TRP617  ASP618  TYR619  PRO620  LYS621  CYS622 
 ASP623  PHE694  ASN695  SER759  ASP760  ASP761  ALA762  ILE779  LEU786  VAL792 
 PHE793  MET794  SER795  GLU796  ALA797  LYS798  CYS799  TRP800  GLU811  SER814 

> <Gold.Protein.RotatedAtoms>
  150.7377  134.0011  159.3638 H   0  0  0  0  0  0  0  0  0  0  0  0  # atno 6907 bound_to 6896
  151.7965  135.0719  160.0404 H   0  0  0  0  0  0  0  0  0  0  0  0  # atno 6908 bound_to 6896
  152.3171  133.5777  159.5755 H   0  0  0  0  0  0  0  0  0  0  0  0  # atno 6909 bound_to 6896
  145.2765  139.2648  143.3938 H   0  0  0  0  0  0  0  0  0  0  0  0  # atno 7974 bound_to 7965
  155.9636  140.1149  157.0874 H   0  0  0  0  0  0  0  0  0  0  0  0  # atno 8008 bound_to 7997
  154.4138  140.1177  156.5279 H   0  0  0  0  0  0  0  0  0  0  0  0  # atno 8009 bound_to 7997
  155.6688  140.3473  155.4813 H   0  0  0  0  0  0  0  0  0  0  0  0  # atno 8010 bound_to 7997
  140.7273  143.4756  151.0187 H   0  0  0  0  0  0  0  0  0  0  0  0  # atno 10167 bound_to 10162
  157.6881  131.0095  150.2538 H   0  0  0  0  0  0  0  0  0  0  0  0  # atno 10718 bound_to 10713
  154.8478  135.4384  154.1652 H   0  0  0  0  0  0  0  0  0  0  0  0  # atno 10763 bound_to 10752
  153.2779  135.6951  153.7421 H   0  0  0  0  0  0  0  0  0  0  0  0  # atno 10764 bound_to 10752
  153.6636  135.3431  155.3109 H   0  0  0  0  0  0  0  0  0  0  0  0  # atno 10765 bound_to 10752
  140.9714  133.7107  156.1530 H   0  0  0  0  0  0  0  0  0  0  0  0  # atno 11005 bound_to 11000
  146.3230  140.3221  142.8634 LP  0  0  0  0  0  0  0  0  0  0  0  0  # atno 17320 bound_to 7965
  144.9290  140.7953  143.5701 LP  0  0  0  0  0  0  0  0  0  0  0  0  # atno 17321 bound_to 7965
  139.8451  143.7512  152.3179 LP  0  0  0  0  0  0  0  0  0  0  0  0  # atno 17342 bound_to 10162
  139.7674  144.7487  151.0274 LP  0  0  0  0  0  0  0  0  0  0  0  0  # atno 17343 bound_to 10162
  156.3130  130.3774  149.7644 LP  0  0  0  0  0  0  0  0  0  0  0  0  # atno 17370 bound_to 10713
  156.5238  130.8227  151.3213 LP  0  0  0  0  0  0  0  0  0  0  0  0  # atno 17371 bound_to 10713
  140.7324  134.4240  157.5564 LP  0  0  0  0  0  0  0  0  0  0  0  0  # atno 17394 bound_to 11000
  139.8913  134.8782  156.2324 LP  0  0  0  0  0  0  0  0  0  0  0  0  # atno 17395 bound_to 11000

$$$$
