AV-unprocessed.smi:1209|AV-procd|sdf|5069|dock2
  -GOLD-   22720 4113D 1   1.00000     0.00000
 Structure written by MMmdl.
 48 50  0  0  0  0  0  0  0  0  1 V2000
  145.9329  142.4074  154.3722 C   0  0  0  0  0  0  0  0  0  0  0  0
  146.8122  141.2044  154.3652 C   0  0  0  0  0  0  0  0  0  0  0  0
  148.1680  141.0426  154.3453 C   0  0  0  0  0  0  0  0  0  0  0  0
  148.3384  139.6303  154.3493 C   0  0  0  0  0  0  0  0  0  0  0  0
  149.6215  138.8414  154.3340 C   0  0  0  0  0  0  0  0  0  0  0  0
  149.8774  138.1170  155.5805 N   0  0  0  0  0  0  0  0  0  0  0  0
  148.7775  137.2029  155.8902 C   0  0  0  0  0  0  0  0  0  0  0  0
  151.1622  137.4148  155.5076 C   0  0  0  0  0  0  0  0  0  0  0  0
  152.3964  138.2212  155.9625 C   0  0  2  0  0  0  0  0  0  0  0  0
  153.5003  137.3407  156.0499 O   0  0  0  0  0  0  0  0  0  0  0  0
  152.1633  138.8779  157.3367 C   0  0  0  0  0  0  0  0  0  0  0  0
  151.6721  140.2407  157.2283 N   0  0  0  0  0  0  0  0  0  0  0  0
  150.9450  140.7621  156.2216 C   0  0  0  0  0  0  0  0  0  0  0  0
  150.5963  142.0416  156.3214 N   0  0  0  0  0  0  0  0  0  0  0  0
  151.1630  142.3916  157.5351 C   0  0  0  0  0  0  0  0  0  0  0  0
  151.1615  143.6226  158.2273 C   0  0  0  0  0  0  0  0  0  0  0  0
  151.8186  143.7551  159.4716 C   0  0  0  0  0  0  0  0  0  0  0  0
  151.7934  145.0975  160.1811 C   0  0  0  0  0  0  0  0  0  0  0  0
  152.4907  142.6444  160.0421 C   0  0  0  0  0  0  0  0  0  0  0  0
  153.2052  142.7632  161.3764 C   0  0  0  0  0  0  0  0  0  0  0  0
  152.5000  141.4070  159.3650 C   0  0  0  0  0  0  0  0  0  0  0  0
  151.8429  141.2877  158.1278 C   0  0  0  0  0  0  0  0  0  0  0  0
  147.1771  138.9967  154.3673 N   0  0  0  0  0  0  0  0  0  0  0  0
  146.1959  139.9943  154.3779 O   0  0  0  0  0  0  0  0  0  0  0  0
  146.4741  143.2820  154.7332 H   0  0  0  0  0  0  0  0  0  0  0  0
  145.0691  142.2547  155.0196 H   0  0  0  0  0  0  0  0  0  0  0  0
  145.5698  142.6248  153.3677 H   0  0  0  0  0  0  0  0  0  0  0  0
  148.9241  141.8135  154.3320 H   0  0  0  0  0  0  0  0  0  0  0  0
  149.6299  138.1435  153.4949 H   0  0  0  0  0  0  0  0  0  0  0  0
  150.4402  139.5375  154.1477 H   0  0  0  0  0  0  0  0  0  0  0  0
  148.9164  136.7208  156.8563 H   0  0  0  0  0  0  0  0  0  0  0  0
  148.6861  136.4252  155.1310 H   0  0  0  0  0  0  0  0  0  0  0  0
  147.8265  137.7331  155.9441 H   0  0  0  0  0  0  0  0  0  0  0  0
  151.0962  136.4981  156.0960 H   0  0  0  0  0  0  0  0  0  0  0  0
  151.3409  137.0900  154.4813 H   0  0  0  0  0  0  0  0  0  0  0  0
  152.6373  139.0063  155.2473 H   0  0  0  0  0  0  0  0  0  0  0  0
  153.7178  137.2224  156.9620 H   0  0  0  0  0  0  0  0  0  0  0  0
  151.4370  138.3000  157.9100 H   0  0  0  0  0  0  0  0  0  0  0  0
  153.0844  138.8839  157.9212 H   0  0  0  0  0  0  0  0  0  0  0  0
  150.6562  140.1685  155.3664 H   0  0  0  0  0  0  0  0  0  0  0  0
  150.6502  144.4686  157.7919 H   0  0  0  0  0  0  0  0  0  0  0  0
  151.3270  145.0022  161.1620 H   0  0  0  0  0  0  0  0  0  0  0  0
  151.2293  145.8376  159.6132 H   0  0  0  0  0  0  0  0  0  0  0  0
  152.8061  145.4785  160.3137 H   0  0  0  0  0  0  0  0  0  0  0  0
  153.6856  141.8249  161.6550 H   0  0  0  0  0  0  0  0  0  0  0  0
  152.5001  143.0256  162.1654 H   0  0  0  0  0  0  0  0  0  0  0  0
  153.9767  143.5320  161.3305 H   0  0  0  0  0  0  0  0  0  0  0  0
  153.0099  140.5536  159.7872 H   0  0  0  0  0  0  0  0  0  0  0  0
  1  2  1  0  0  0  0
  1 25  1  0  0  0  0
  1 26  1  0  0  0  0
  1 27  1  0  0  0  0
  2 24  1  0  0  0  0
  2  3  2  0  0  0  0
  3  4  1  0  0  0  0
  3 28  1  0  0  0  0
  4  5  1  0  0  0  0
  4 23  2  0  0  0  0
  5  6  1  0  0  0  0
  5 29  1  0  0  0  0
  5 30  1  0  0  0  0
  6  7  1  0  0  0  0
  6  8  1  0  0  0  0
  7 31  1  0  0  0  0
  7 32  1  0  0  0  0
  7 33  1  0  0  0  0
  8  9  1  0  0  0  0
  8 34  1  0  0  0  0
  8 35  1  0  0  0  0
  9 10  1  0  0  0  0
  9 11  1  0  0  0  0
  9 36  1  0  0  0  0
 10 37  1  0  0  0  0
 11 12  1  0  0  0  0
 11 38  1  0  0  0  0
 11 39  1  0  0  0  0
 12 22  1  0  0  0  0
 12 13  1  0  0  0  0
 13 14  2  0  0  0  0
 13 40  1  0  0  0  0
 14 15  1  0  0  0  0
 15 22  2  0  0  0  0
 15 16  1  0  0  0  0
 16 17  2  0  0  0  0
 16 41  1  0  0  0  0
 17 18  1  0  0  0  0
 17 19  1  0  0  0  0
 18 42  1  0  0  0  0
 18 43  1  0  0  0  0
 18 44  1  0  0  0  0
 19 20  1  0  0  0  0
 19 21  2  0  0  0  0
 20 45  1  0  0  0  0
 20 46  1  0  0  0  0
 20 47  1  0  0  0  0
 21 22  1  0  0  0  0
 21 48  1  0  0  0  0
 23 24  1  0  0  0  0
M  END
> <s_m_source_file>
AV-unprocessed.smi

> <i_m_source_file_index>
1209

> <i_lp_mmshare_version>
43012

> <i_f3d_flags>
0

> <s_epik_input>
W0NIM11jMVtjSF1jKG5vMSlbQ0gyXU4oW0NIM10pW0NIMl1bQ0BIXShbT0hdKVtDSDJdbihbY0hdbjIpYyhjMjMpW2NIXWMoW0NIM10pYyhbY0hdMylbQ0gzXQ==

> <s_epik_cmdline>
J2VwaWtfcHl0aG9uJywgJy1waCcsICc3LjAnLCAnLXRuJywgJzgnLCAnLW1hJywgJzIwMCcsICctbWV0YWxfYmluZGluZycsICctaW1hZScsICc8aW5maWxlLm1hZT4nLCAnLW9tYWUnLCAnPG91dGZpbGUubWFlPic=

> <r_epik_Ionization_Penalty>
0.103258

> <r_epik_Ionization_Penalty_Charging>
0

> <r_epik_Ionization_Penalty_Neutral>
0.103258

> <r_epik_State_Penalty>
0.0919675

> <r_epik_Charging_Adjusted_Penalty>
0.0919675

> <i_epik_Tot_Q>
0

> <i_epik_Tot_abs_Q>
0

> <r_epik_Metal_State_Penalty>
0.0812522

> <b_epik_Metal_Only>
0

> <s_lp_Force_Field>
OPLS_2005

> <r_lp_Energy>
18.8485

> <b_lp_Chiralities_Consistent>
1

> <s_lp_Variant>
AV-unprocessed.smi:1209-1

> <Gold.Version>
5.8.1

> <Gold.Id.Protein>
6NUR|6NUR_protein|mol2

> <Gold.PLP.Fitness>
49.2867

> <Gold.PLP.PLP>
-50.2913

> <Gold.PLP.part.hbond>
-1.0000

> <Gold.PLP.part.metal>
0.0000

> <Gold.PLP.part.buried>
-4.8123

> <Gold.PLP.part.nonpolar>
-45.4242

> <Gold.PLP.part.repulsive>
0.4809

> <Gold.PLP.ligand.clash>
0.0000

> <Gold.PLP.ligand.torsion>
1.3261

> <Gold.PLP.Chemscore.Hbond>
0.4680

> <Gold.PLP.Chemscore.CHOScore>
0.0000

> <Gold.PLP.Chemscore.Metal>
0.0000

> <Gold.Chemscore.Hbonds>
donor molecule, donor type, donor heavy atom, donor atom, acceptor molecule, acceptor atom, score
      P1  H 10752 10765       L1    10  0.41

> <Gold.PLP.Chemscore.Internal.Correction>
0.2436

> <Gold.Rescore>
     Score         DG    S(hbond)    S(metal)    S(lipo)     H(rot)  DE(clash)    DE(int)     intcor
     13.75     -16.82       0.59        0.00     133.69       2.45       0.01       3.06       ----

> <Gold.Chemscore.Fitness>
13.7485

> <Gold.Chemscore.DG>
-16.8186

> <Gold.Chemscore.ZeroCoef>
-5.4800

> <Gold.Chemscore.Hbond>
0.5864

> <Gold.Chemscore.Metal>
0.0000

> <Gold.Chemscore.Lipo>
133.6945

> <Gold.Chemscore.Internal_Hbond>
0.0000

> <Gold.Chemscore.DEClash>
0.0106

> <Gold.Chemscore.DEInternal>
3.0595

> <Gold.Chemscore.Rot>
2.4462

> <Gold.Chemscore.Internal.Correction>
   9.000000E+99

> <Gold.Chemscore.Hbonds>
donor molecule, donor type, donor heavy atom, donor atom, acceptor molecule, acceptor atom, score
      P1  H 10752 10765       L1    10  0.18

> <Gold.Chemscore.Hbond.Weighted>
-1.9586

> <Gold.Chemscore.Metal.Weighted>
-0.0000

> <Gold.Chemscore.Lipo.Weighted>
-15.6423

> <Gold.Chemscore.Internal_Hbond.Weighted>
0.0000

> <Gold.Chemscore.DEClash.Weighted>
0.0106

> <Gold.Chemscore.DEInternal.Weighted>
3.0595

> <Gold.Chemscore.Rot.Weighted>
6.2623

> <Gold.Chemscore.Internal.Correction.Weighted>
   9.000000E+99

> <Gold.Protein.RotatedTorsions>
[ 6907 6896 6895 6894 ] final  -10.14 input  -60.11 | X-H torsion
[ 7974 7965 7964 7962 ] final  179.39 input  175.53 | X-H torsion
[ 8008 7997 7996 7995 ] final -109.88 input   59.86 | X-H torsion
[ 10167 10162 10161 10158 ] final  -93.58 input  -65.29 | X-H torsion
[ 10718 10713 10712 10709 ] final  -39.83 input   66.30 | X-H torsion
[ 10763 10752 10751 10750 ] final -123.80 input  -60.55 | X-H torsion
[ 11005 11000 10999 10996 ] final   60.47 input  -57.11 | X-H torsion

> <Gold.Protein.ActiveResidues>
 VAL166  LYS551  ARG553  GLY616  TRP617  ASP618  TYR619  PRO620  LYS621  CYS622 
 ASP623  PHE694  ASN695  SER759  ASP760  ASP761  ALA762  ILE779  LEU786  VAL792 
 PHE793  MET794  SER795  GLU796  ALA797  LYS798  CYS799  TRP800  GLU811  SER814 

> <Gold.Protein.RotatedAtoms>
  151.4067  135.0979  159.9572 H   0  0  0  0  0  0  0  0  0  0  0  0  # atno 6907 bound_to 6896
  152.5033  133.8836  159.7369 H   0  0  0  0  0  0  0  0  0  0  0  0  # atno 6908 bound_to 6896
  150.9322  133.6696  159.2836 H   0  0  0  0  0  0  0  0  0  0  0  0  # atno 6909 bound_to 6896
  144.7146  140.0540  143.6434 H   0  0  0  0  0  0  0  0  0  0  0  0  # atno 7974 bound_to 7965
  154.9660  140.0398  157.2212 H   0  0  0  0  0  0  0  0  0  0  0  0  # atno 8008 bound_to 7997
  154.7845  140.2824  155.6016 H   0  0  0  0  0  0  0  0  0  0  0  0  # atno 8009 bound_to 7997
  156.2941  140.2585  156.2678 H   0  0  0  0  0  0  0  0  0  0  0  0  # atno 8010 bound_to 7997
  140.3232  143.3037  152.0024 H   0  0  0  0  0  0  0  0  0  0  0  0  # atno 10167 bound_to 10162
  156.2881  130.4225  149.8267 H   0  0  0  0  0  0  0  0  0  0  0  0  # atno 10718 bound_to 10713
  154.8713  135.4086  154.3002 H   0  0  0  0  0  0  0  0  0  0  0  0  # atno 10763 bound_to 10752
  153.3863  135.7013  153.6533 H   0  0  0  0  0  0  0  0  0  0  0  0  # atno 10764 bound_to 10752
  153.5335  135.3662  155.2658 H   0  0  0  0  0  0  0  0  0  0  0  0  # atno 10765 bound_to 10752
  140.0229  134.6125  155.9613 H   0  0  0  0  0  0  0  0  0  0  0  0  # atno 11005 bound_to 11000
  145.9920  139.3022  143.0979 LP  0  0  0  0  0  0  0  0  0  0  0  0  # atno 17320 bound_to 7965
  145.8892  140.9314  143.0561 LP  0  0  0  0  0  0  0  0  0  0  0  0  # atno 17321 bound_to 7965
  139.4870  144.6294  151.7099 LP  0  0  0  0  0  0  0  0  0  0  0  0  # atno 17342 bound_to 10162
  140.5465  144.0495  150.6109 LP  0  0  0  0  0  0  0  0  0  0  0  0  # atno 17343 bound_to 10162
  156.5690  130.8416  151.3351 LP  0  0  0  0  0  0  0  0  0  0  0  0  # atno 17370 bound_to 10713
  157.7334  130.9730  150.1978 LP  0  0  0  0  0  0  0  0  0  0  0  0  # atno 17371 bound_to 10713
  141.1785  133.6543  156.4924 LP  0  0  0  0  0  0  0  0  0  0  0  0  # atno 17394 bound_to 11000
  140.4355  134.7062  157.4965 LP  0  0  0  0  0  0  0  0  0  0  0  0  # atno 17395 bound_to 11000

$$$$
