AV-unprocessed.smi:2977|AV-procd|sdf|11367|dock4
  -GOLD-   2272016283D 1   1.00000     0.00000
 Structure written by MMmdl.
 38 39  0  0  0  0  0  0  0  0  1 V2000
  150.1166  140.2256  154.2440 O   0  0  0  0  0  0  0  0  0  0  0  0
  149.2707  141.0905  154.4721 C   0  0  0  0  0  0  0  0  0  0  0  0
  147.8791  140.9936  153.8354 C   0  0  0  0  0  0  0  0  0  0  0  0
  146.8858  141.7923  154.5661 N   0  0  0  0  0  0  0  0  0  0  0  0
  146.2600  142.7614  153.8015 N   0  0  0  0  0  0  0  0  0  0  0  0
  145.3465  143.4969  154.3350 C   0  0  0  0  0  0  0  0  0  0  0  0
  144.9503  143.3515  155.7188 C   0  0  0  0  0  0  0  0  0  0  0  0
  143.7166  144.3660  156.3786 Cl  0  0  0  0  0  0  0  0  0  0  0  0
  145.5796  142.4071  156.4623 C   0  0  0  0  0  0  0  0  0  0  0  0
  145.1652  142.1774  158.1265 Cl  0  0  0  0  0  0  0  0  0  0  0  0
  146.6276  141.5524  155.8882 C   0  0  0  0  0  0  0  0  0  0  0  0
  147.2291  140.6913  156.5311 O   0  0  0  0  0  0  0  0  0  0  0  0
  149.4969  142.1568  155.2539 N   0  0  0  0  0  0  0  0  0  0  0  0
  150.7448  142.4417  155.9568 C   0  0  0  0  0  0  0  0  0  0  0  0
  150.9585  141.5707  157.2134 C   0  0  0  0  0  0  0  0  0  0  0  0
  151.5505  142.3173  158.4003 C   0  0  0  0  0  0  0  0  0  0  0  0
  152.0650  141.6703  159.4645 C   0  0  0  0  0  0  0  0  0  0  0  0
  152.6573  142.3624  160.6792 C   0  0  0  0  0  0  0  0  0  0  0  0
  152.2960  143.8560  160.7358 C   0  0  0  0  0  0  0  0  0  0  0  0
  152.4387  144.5123  159.3569 C   0  0  0  0  0  0  0  0  0  0  0  0
  151.5260  143.8388  158.3160 C   0  0  0  0  0  0  0  0  0  0  0  0
  147.9162  141.2944  152.7864 H   0  0  0  0  0  0  0  0  0  0  0  0
  147.5847  139.9427  153.8249 H   0  0  0  0  0  0  0  0  0  0  0  0
  144.8226  144.2690  153.7714 H   0  0  0  0  0  0  0  0  0  0  0  0
  148.7427  142.8159  155.3830 H   0  0  0  0  0  0  0  0  0  0  0  0
  151.5866  142.3272  155.2726 H   0  0  0  0  0  0  0  0  0  0  0  0
  150.7258  143.4936  156.2423 H   0  0  0  0  0  0  0  0  0  0  0  0
  150.0065  141.1292  157.5104 H   0  0  0  0  0  0  0  0  0  0  0  0
  151.6102  140.7314  156.9693 H   0  0  0  0  0  0  0  0  0  0  0  0
  152.0787  140.5904  159.4820 H   0  0  0  0  0  0  0  0  0  0  0  0
  152.3104  141.8617  161.5828 H   0  0  0  0  0  0  0  0  0  0  0  0
  153.7396  142.2373  160.6434 H   0  0  0  0  0  0  0  0  0  0  0  0
  151.2678  143.9712  161.0808 H   0  0  0  0  0  0  0  0  0  0  0  0
  152.9250  144.3640  161.4671 H   0  0  0  0  0  0  0  0  0  0  0  0
  152.2108  145.5767  159.4179 H   0  0  0  0  0  0  0  0  0  0  0  0
  153.4773  144.4376  159.0321 H   0  0  0  0  0  0  0  0  0  0  0  0
  151.8218  144.1536  157.3147 H   0  0  0  0  0  0  0  0  0  0  0  0
  150.4968  144.1690  158.4601 H   0  0  0  0  0  0  0  0  0  0  0  0
  1  2  2  0  0  0  0
  2  3  1  0  0  0  0
  2 13  1  0  0  0  0
  3  4  1  0  0  0  0
  3 22  1  0  0  0  0
  3 23  1  0  0  0  0
  4 11  1  0  0  0  0
  4  5  1  0  0  0  0
  5  6  2  0  0  0  0
  6  7  1  0  0  0  0
  6 24  1  0  0  0  0
  7  8  1  0  0  0  0
  7  9  2  0  0  0  0
  9 10  1  0  0  0  0
  9 11  1  0  0  0  0
 11 12  2  0  0  0  0
 13 14  1  0  0  0  0
 13 25  1  0  0  0  0
 14 15  1  0  0  0  0
 14 26  1  0  0  0  0
 14 27  1  0  0  0  0
 15 16  1  0  0  0  0
 15 28  1  0  0  0  0
 15 29  1  0  0  0  0
 16 21  1  0  0  0  0
 16 17  2  0  0  0  0
 17 18  1  0  0  0  0
 17 30  1  0  0  0  0
 18 19  1  0  0  0  0
 18 31  1  0  0  0  0
 18 32  1  0  0  0  0
 19 20  1  0  0  0  0
 19 33  1  0  0  0  0
 19 34  1  0  0  0  0
 20 21  1  0  0  0  0
 20 35  1  0  0  0  0
 20 36  1  0  0  0  0
 21 37  1  0  0  0  0
 21 38  1  0  0  0  0
M  END
> <s_m_source_file>
AV-unprocessed.smi

> <i_m_source_file_index>
2977

> <i_lp_mmshare_version>
43012

> <i_f3d_flags>
0

> <s_epik_input>
Tz1jMWMoQ2wpYyhDbClbY0hdbm4xW0NIMl1DKD1PKVtOSF1bQ0gyXVtDSDJdQzI9W0NIXVtDSDJdW0NIMl1bQ0gyXVtDSDJdMg==

> <s_epik_cmdline>
J2VwaWtfcHl0aG9uJywgJy1waCcsICc3LjAnLCAnLXRuJywgJzgnLCAnLW1hJywgJzIwMCcsICctbWV0YWxfYmluZGluZycsICctaW1hZScsICc8aW5maWxlLm1hZT4nLCAnLW9tYWUnLCAnPG91dGZpbGUubWFlPic=

> <r_lp_tautomer_probability>
1

> <r_epik_Ionization_Penalty>
1.81325e-08

> <r_epik_Ionization_Penalty_Charging>
2.89782e-11

> <r_epik_Ionization_Penalty_Neutral>
1.81035e-08

> <r_epik_State_Penalty>
-0

> <r_epik_Charging_Adjusted_Penalty>
2.89782e-11

> <i_epik_Tot_Q>
0

> <i_epik_Tot_abs_Q>
0

> <r_epik_Metal_State_Penalty>
-0

> <b_epik_Metal_Only>
0

> <s_lp_Force_Field>
OPLS_2005

> <r_lp_Energy>
20.3958

> <b_lp_Chiralities_Consistent>
1

> <s_lp_Variant>
AV-unprocessed.smi:2977-1

> <Gold.Version>
5.8.1

> <Gold.Id.Protein>
6NUR|6NUR_protein|mol2

> <Gold.PLP.Fitness>
45.7318

> <Gold.PLP.PLP>
-42.5438

> <Gold.PLP.part.hbond>
-2.0000

> <Gold.PLP.part.metal>
0.0000

> <Gold.PLP.part.buried>
-4.1982

> <Gold.PLP.part.nonpolar>
-37.1492

> <Gold.PLP.part.repulsive>
0.5573

> <Gold.PLP.ligand.clash>
0.0000

> <Gold.PLP.ligand.torsion>
0.8620

> <Gold.PLP.Chemscore.Hbond>
1.6160

> <Gold.PLP.Chemscore.CHOScore>
0.0000

> <Gold.PLP.Chemscore.Metal>
0.0000

> <Gold.Chemscore.Hbonds>
donor molecule, donor type, donor heavy atom, donor atom, acceptor molecule, acceptor atom, score
      L1  H    13    25       P1  8028  0.56
      P1  H  7989  7998       L1     1  0.96

> <Gold.PLP.Chemscore.Internal.Correction>
0.0642

> <Gold.Rescore>
     Score         DG    S(hbond)    S(metal)    S(lipo)     H(rot)  DE(clash)    DE(int)     intcor
     14.39     -17.47       1.33        0.00     106.01       1.89       1.22       1.86       ----

> <Gold.Chemscore.Fitness>
14.3927

> <Gold.Chemscore.DG>
-17.4704

> <Gold.Chemscore.ZeroCoef>
-5.4800

> <Gold.Chemscore.Hbond>
1.3263

> <Gold.Chemscore.Metal>
0.0000

> <Gold.Chemscore.Lipo>
106.0086

> <Gold.Chemscore.Internal_Hbond>
0.0000

> <Gold.Chemscore.DEClash>
1.2225

> <Gold.Chemscore.DEInternal>
1.8553

> <Gold.Chemscore.Rot>
1.8916

> <Gold.Chemscore.Internal.Correction>
   9.000000E+99

> <Gold.Chemscore.Hbonds>
donor molecule, donor type, donor heavy atom, donor atom, acceptor molecule, acceptor atom, score
      L1  H    13    25       P1  8028  0.56
      P1  H  7989  7998       L1     1  0.79

> <Gold.Chemscore.Hbond.Weighted>
-4.4299

> <Gold.Chemscore.Metal.Weighted>
-0.0000

> <Gold.Chemscore.Lipo.Weighted>
-12.4030

> <Gold.Chemscore.Internal_Hbond.Weighted>
0.0000

> <Gold.Chemscore.DEClash.Weighted>
1.2225

> <Gold.Chemscore.DEInternal.Weighted>
1.8553

> <Gold.Chemscore.Rot.Weighted>
4.8425

> <Gold.Chemscore.Internal.Correction.Weighted>
   9.000000E+99

> <Gold.Protein.RotatedTorsions>
[ 6907 6896 6895 6894 ] final   39.75 input  -60.11 | X-H torsion
[ 7974 7965 7964 7962 ] final  133.93 input  175.53 | X-H torsion
[ 8008 7997 7996 7995 ] final -125.39 input   59.86 | X-H torsion
[ 10167 10162 10161 10158 ] final   -4.40 input  -65.29 | X-H torsion
[ 10718 10713 10712 10709 ] final   42.81 input   66.30 | X-H torsion
[ 10763 10752 10751 10750 ] final -108.78 input  -60.55 | X-H torsion
[ 11005 11000 10999 10996 ] final  -39.28 input  -57.11 | X-H torsion

> <Gold.Protein.ActiveResidues>
 VAL166  LYS551  ARG553  GLY616  TRP617  ASP618  TYR619  PRO620  LYS621  CYS622 
 ASP623  PHE694  ASN695  SER759  ASP760  ASP761  ALA762  ILE779  LEU786  VAL792 
 PHE793  MET794  SER795  GLU796  ALA797  LYS798  CYS799  TRP800  GLU811  SER814 

> <Gold.Protein.RotatedAtoms>
  152.1736  134.8813  160.0532 H   0  0  0  0  0  0  0  0  0  0  0  0  # atno 6907 bound_to 6896
  151.9764  133.3738  159.4099 H   0  0  0  0  0  0  0  0  0  0  0  0  # atno 6908 bound_to 6896
  150.6906  134.4009  159.5162 H   0  0  0  0  0  0  0  0  0  0  0  0  # atno 6909 bound_to 6896
  144.9815  139.4499  143.5384 H   0  0  0  0  0  0  0  0  0  0  0  0  # atno 7974 bound_to 7965
  155.2125  140.0419  157.2935 H   0  0  0  0  0  0  0  0  0  0  0  0  # atno 8008 bound_to 7997
  154.6002  140.2450  155.7774 H   0  0  0  0  0  0  0  0  0  0  0  0  # atno 8009 bound_to 7997
  156.2316  140.2936  156.0212 H   0  0  0  0  0  0  0  0  0  0  0  0  # atno 8010 bound_to 7997
  140.6926  143.6428  150.8420 H   0  0  0  0  0  0  0  0  0  0  0  0  # atno 10167 bound_to 10162
  157.4090  130.7903  149.7413 H   0  0  0  0  0  0  0  0  0  0  0  0  # atno 10718 bound_to 10713
  154.8155  135.4625  154.0633 H   0  0  0  0  0  0  0  0  0  0  0  0  # atno 10763 bound_to 10752
  153.2029  135.6871  153.8216 H   0  0  0  0  0  0  0  0  0  0  0  0  # atno 10764 bound_to 10752
  153.7694  135.3272  155.3326 H   0  0  0  0  0  0  0  0  0  0  0  0  # atno 10765 bound_to 10752
  141.0090  133.6917  156.2165 H   0  0  0  0  0  0  0  0  0  0  0  0  # atno 11005 bound_to 11000
  146.3409  139.9091  142.8783 LP  0  0  0  0  0  0  0  0  0  0  0  0  # atno 17320 bound_to 7965
  145.2414  141.0010  143.3933 LP  0  0  0  0  0  0  0  0  0  0  0  0  # atno 17321 bound_to 7965
  140.0143  143.5610  152.2826 LP  0  0  0  0  0  0  0  0  0  0  0  0  # atno 17342 bound_to 10162
  139.6345  144.7648  151.2467 LP  0  0  0  0  0  0  0  0  0  0  0  0  # atno 17343 bound_to 10162
  155.9845  130.3991  150.3309 LP  0  0  0  0  0  0  0  0  0  0  0  0  # atno 17370 bound_to 10713
  157.1445  131.0305  151.2913 LP  0  0  0  0  0  0  0  0  0  0  0  0  # atno 17371 bound_to 10713
  140.6765  134.4812  157.5588 LP  0  0  0  0  0  0  0  0  0  0  0  0  # atno 17394 bound_to 11000
  139.9079  134.8408  156.1636 LP  0  0  0  0  0  0  0  0  0  0  0  0  # atno 17395 bound_to 11000

$$$$
