AV-unprocessed.smi:485|AV-procd|sdf|2691|dock5
  -GOLD-   2262023123D 1   1.00000     0.00000
 Structure written by MMmdl.
 36 38  0  0  0  0  0  0  0  0  1 V2000
  153.4554  138.8808  157.7836 O   0  0  0  0  0  0  0  0  0  0  0  0
  152.3113  139.6497  157.4817 C   0  0  0  0  0  0  0  0  0  0  0  0
  152.1947  140.8851  158.3228 C   0  0  0  0  0  0  0  0  0  0  0  0
  152.7065  140.9426  159.5531 N   0  0  0  0  0  0  0  0  0  0  0  0
  152.4051  142.2305  159.9491 C   0  0  0  0  0  0  0  0  0  0  0  0
  152.6839  142.9082  161.1577 C   0  0  0  0  0  0  0  0  0  0  0  0
  152.2779  144.2471  161.3356 C   0  0  0  0  0  0  0  0  0  0  0  0
  151.5909  144.9267  160.3091 C   0  0  0  0  0  0  0  0  0  0  0  0
  151.3026  144.2696  159.0975 C   0  0  0  0  0  0  0  0  0  0  0  0
  151.7060  142.9314  158.9264 C   0  0  0  0  0  0  0  0  0  0  0  0
  151.5773  142.0144  157.8873 N   0  0  0  0  0  0  0  0  0  0  0  0
  150.9235  142.2619  156.6071 C   0  0  0  0  0  0  0  0  0  0  0  0
  150.0101  141.0999  156.1648 C   0  0  2  0  0  0  0  0  0  0  0  0
  150.6158  140.3752  155.1125 O   0  0  0  0  0  0  0  0  0  0  0  0
  148.6224  141.5991  155.7940 C   0  0  0  0  0  0  0  0  0  0  0  0
  148.2155  141.6134  154.4424 C   0  0  0  0  0  0  0  0  0  0  0  0
  146.9294  142.0692  154.0928 C   0  0  0  0  0  0  0  0  0  0  0  0
  146.0420  142.5107  155.0930 C   0  0  0  0  0  0  0  0  0  0  0  0
  146.4404  142.4942  156.4434 C   0  0  0  0  0  0  0  0  0  0  0  0
  147.7263  142.0386  156.7935 C   0  0  0  0  0  0  0  0  0  0  0  0
  153.2850  137.9829  157.5447 H   0  0  0  0  0  0  0  0  0  0  0  0
  152.3569  139.9339  156.4298 H   0  0  0  0  0  0  0  0  0  0  0  0
  151.4160  139.0393  157.5981 H   0  0  0  0  0  0  0  0  0  0  0  0
  153.2123  142.3970  161.9489 H   0  0  0  0  0  0  0  0  0  0  0  0
  152.4962  144.7552  162.2634 H   0  0  0  0  0  0  0  0  0  0  0  0
  151.2850  145.9528  160.4521 H   0  0  0  0  0  0  0  0  0  0  0  0
  150.7777  144.7888  158.3097 H   0  0  0  0  0  0  0  0  0  0  0  0
  150.3367  143.1760  156.7045 H   0  0  0  0  0  0  0  0  0  0  0  0
  151.6712  142.4635  155.8413 H   0  0  0  0  0  0  0  0  0  0  0  0
  149.9039  140.3987  156.9927 H   0  0  0  0  0  0  0  0  0  0  0  0
  149.9810  139.7700  154.7617 H   0  0  0  0  0  0  0  0  0  0  0  0
  148.8879  141.2745  153.6676 H   0  0  0  0  0  0  0  0  0  0  0  0
  146.6231  142.0795  153.0571 H   0  0  0  0  0  0  0  0  0  0  0  0
  145.0560  142.8603  154.8244 H   0  0  0  0  0  0  0  0  0  0  0  0
  145.7597  142.8309  157.2114 H   0  0  0  0  0  0  0  0  0  0  0  0
  148.0227  142.0262  157.8324 H   0  0  0  0  0  0  0  0  0  0  0  0
  1  2  1  0  0  0  0
  1 21  1  0  0  0  0
  2  3  1  0  0  0  0
  2 22  1  0  0  0  0
  2 23  1  0  0  0  0
  3 11  1  0  0  0  0
  3  4  2  0  0  0  0
  4  5  1  0  0  0  0
  5 10  2  0  0  0  0
  5  6  1  0  0  0  0
  6  7  2  0  0  0  0
  6 24  1  0  0  0  0
  7  8  1  0  0  0  0
  7 25  1  0  0  0  0
  8  9  2  0  0  0  0
  8 26  1  0  0  0  0
  9 10  1  0  0  0  0
  9 27  1  0  0  0  0
 10 11  1  0  0  0  0
 11 12  1  0  0  0  0
 12 13  1  0  0  0  0
 12 28  1  0  0  0  0
 12 29  1  0  0  0  0
 13 14  1  0  0  0  0
 13 15  1  0  0  0  0
 13 30  1  0  0  0  0
 14 31  1  0  0  0  0
 15 20  1  0  0  0  0
 15 16  2  0  0  0  0
 16 17  1  0  0  0  0
 16 32  1  0  0  0  0
 17 18  2  0  0  0  0
 17 33  1  0  0  0  0
 18 19  1  0  0  0  0
 18 34  1  0  0  0  0
 19 20  2  0  0  0  0
 19 35  1  0  0  0  0
 20 36  1  0  0  0  0
M  END
> <s_m_source_file>
AV-unprocessed.smi

> <i_m_source_file_index>
485

> <i_lp_mmshare_version>
43012

> <i_f3d_flags>
0

> <s_epik_input>
W2NIXTFbY0hdW2NIXVtjSF1jKGMxMiluKGMobjIpW0NIMl1bT0hdKVtDSDJdW0NASF0oW09IXSljM1tjSF1bY0hdW2NIXVtjSF1bY0hdMw==

> <s_epik_cmdline>
J2VwaWtfcHl0aG9uJywgJy1waCcsICc3LjAnLCAnLXRuJywgJzgnLCAnLW1hJywgJzIwMCcsICctbWV0YWxfYmluZGluZycsICctaW1hZScsICc8aW5maWxlLm1hZT4nLCAnLW9tYWUnLCAnPG91dGZpbGUubWFlPic=

> <r_epik_Ionization_Penalty>
0.0634722

> <r_epik_Ionization_Penalty_Charging>
0

> <r_epik_Ionization_Penalty_Neutral>
0.0634722

> <r_epik_State_Penalty>
0.0551572

> <r_epik_Charging_Adjusted_Penalty>
0.0551572

> <i_epik_Tot_Q>
0

> <i_epik_Tot_abs_Q>
0

> <r_epik_Metal_State_Penalty>
5.78034e-05

> <b_epik_Metal_Only>
0

> <s_lp_Force_Field>
OPLS_2005

> <r_lp_Energy>
12.7627

> <b_lp_Chiralities_Consistent>
1

> <s_lp_Variant>
AV-unprocessed.smi:485-1

> <Gold.Version>
5.8.1

> <Gold.Id.Protein>
6NUR|6NUR_protein|mol2

> <Gold.PLP.Fitness>
48.1545

> <Gold.PLP.PLP>
-45.2865

> <Gold.PLP.part.hbond>
-2.0000

> <Gold.PLP.part.metal>
0.0000

> <Gold.PLP.part.buried>
-5.4539

> <Gold.PLP.part.nonpolar>
-37.9467

> <Gold.PLP.part.repulsive>
0.0000

> <Gold.PLP.ligand.clash>
0.0000

> <Gold.PLP.ligand.torsion>
1.5858

> <Gold.PLP.Chemscore.Hbond>
2.0000

> <Gold.PLP.Chemscore.CHOScore>
0.0000

> <Gold.PLP.Chemscore.Metal>
0.0000

> <Gold.Chemscore.Hbonds>
donor molecule, donor type, donor heavy atom, donor atom, acceptor molecule, acceptor atom, score
      P1  H  7989  7998       L1    14  1.00
      P1  H  7997  8008       L1     1  1.00

> <Gold.PLP.Chemscore.Internal.Correction>
0.0396

> <Gold.Rescore>
     Score         DG    S(hbond)    S(metal)    S(lipo)     H(rot)  DE(clash)    DE(int)     intcor
     15.80     -17.24       1.56        0.00     113.49       2.62       0.16       1.28       ----

> <Gold.Chemscore.Fitness>
15.7987

> <Gold.Chemscore.DG>
-17.2390

> <Gold.Chemscore.ZeroCoef>
-5.4800

> <Gold.Chemscore.Hbond>
1.5557

> <Gold.Chemscore.Metal>
0.0000

> <Gold.Chemscore.Lipo>
113.4899

> <Gold.Chemscore.Internal_Hbond>
0.0000

> <Gold.Chemscore.DEClash>
0.1559

> <Gold.Chemscore.DEInternal>
1.2844

> <Gold.Chemscore.Rot>
2.6232

> <Gold.Chemscore.Internal.Correction>
   9.000000E+99

> <Gold.Chemscore.Hbonds>
donor molecule, donor type, donor heavy atom, donor atom, acceptor molecule, acceptor atom, score
      P1  H  7989  7998       L1    14  0.33
      P1  H  7997  8008       L1     1  0.29

> <Gold.Chemscore.Hbond.Weighted>
-5.1961

> <Gold.Chemscore.Metal.Weighted>
-0.0000

> <Gold.Chemscore.Lipo.Weighted>
-13.2783

> <Gold.Chemscore.Internal_Hbond.Weighted>
0.0000

> <Gold.Chemscore.DEClash.Weighted>
0.1559

> <Gold.Chemscore.DEInternal.Weighted>
1.2844

> <Gold.Chemscore.Rot.Weighted>
6.7154

> <Gold.Chemscore.Internal.Correction.Weighted>
   9.000000E+99

> <Gold.Protein.RotatedTorsions>
[ 6907 6896 6895 6894 ] final  -25.55 input  -60.11 | X-H torsion
[ 7974 7965 7964 7962 ] final -141.18 input  175.53 | X-H torsion
[ 8008 7997 7996 7995 ] final -102.51 input   59.86 | X-H torsion
[ 10167 10162 10161 10158 ] final -113.08 input  -65.29 | X-H torsion
[ 10718 10713 10712 10709 ] final   -0.47 input   66.30 | X-H torsion
[ 10763 10752 10751 10750 ] final -154.94 input  -60.55 | X-H torsion
[ 11005 11000 10999 10996 ] final  -81.64 input  -57.11 | X-H torsion

> <Gold.Protein.ActiveResidues>
 VAL166  LYS551  ARG553  GLY616  TRP617  ASP618  TYR619  PRO620  LYS621  CYS622 
 ASP623  PHE694  ASN695  SER759  ASP760  ASP761  ALA762  ILE779  LEU786  VAL792 
 PHE793  MET794  SER795  GLU796  ALA797  LYS798  CYS799  TRP800  GLU811  SER814 

> <Gold.Protein.RotatedAtoms>
  151.1736  135.0329  159.8761 H   0  0  0  0  0  0  0  0  0  0  0  0  # atno 6907 bound_to 6896
  152.5448  134.1143  159.8382 H   0  0  0  0  0  0  0  0  0  0  0  0  # atno 6908 bound_to 6896
  151.1252  133.5029  159.2633 H   0  0  0  0  0  0  0  0  0  0  0  0  # atno 6909 bound_to 6896
  144.8539  140.6111  143.5372 H   0  0  0  0  0  0  0  0  0  0  0  0  # atno 7974 bound_to 7965
  154.8577  140.0428  157.1645 H   0  0  0  0  0  0  0  0  0  0  0  0  # atno 8008 bound_to 7997
  154.8874  140.2981  155.5370 H   0  0  0  0  0  0  0  0  0  0  0  0  # atno 8009 bound_to 7997
  156.2998  140.2400  156.3885 H   0  0  0  0  0  0  0  0  0  0  0  0  # atno 8010 bound_to 7997
  140.1157  143.4488  152.1724 H   0  0  0  0  0  0  0  0  0  0  0  0  # atno 10167 bound_to 10162
  156.8200  130.5453  149.5698 H   0  0  0  0  0  0  0  0  0  0  0  0  # atno 10718 bound_to 10713
  154.7823  135.3179  154.7963 H   0  0  0  0  0  0  0  0  0  0  0  0  # atno 10763 bound_to 10752
  153.8672  135.6848  153.4782 H   0  0  0  0  0  0  0  0  0  0  0  0  # atno 10764 bound_to 10752
  153.1463  135.4718  154.9509 H   0  0  0  0  0  0  0  0  0  0  0  0  # atno 10765 bound_to 10752
  141.1666  133.7206  156.8453 H   0  0  0  0  0  0  0  0  0  0  0  0  # atno 11005 bound_to 11000
  145.4444  139.1531  143.3952 LP  0  0  0  0  0  0  0  0  0  0  0  0  # atno 17320 bound_to 7965
  146.2807  140.4567  142.8777 LP  0  0  0  0  0  0  0  0  0  0  0  0  # atno 17321 bound_to 7965
  139.5595  144.7396  151.4195 LP  0  0  0  0  0  0  0  0  0  0  0  0  # atno 17342 bound_to 10162
  140.6901  143.7882  150.7242 LP  0  0  0  0  0  0  0  0  0  0  0  0  # atno 17343 bound_to 10162
  156.0994  130.5957  150.9869 LP  0  0  0  0  0  0  0  0  0  0  0  0  # atno 17370 bound_to 10713
  157.6462  131.0903  150.8149 LP  0  0  0  0  0  0  0  0  0  0  0  0  # atno 17371 bound_to 10713
  140.1954  134.8935  157.3108 LP  0  0  0  0  0  0  0  0  0  0  0  0  # atno 17394 bound_to 11000
  140.2245  134.3984  155.7550 LP  0  0  0  0  0  0  0  0  0  0  0  0  # atno 17395 bound_to 11000

$$$$
