AV-unprocessed.smi:559|AV-procd|sdf|2925|dock10
  -GOLD-   2262023413D 1   1.00000     0.00000
 Structure written by MMmdl.
 41 42  0  0  0  0  0  0  0  0  1 V2000
  152.4308  139.8359  158.1829 C   0  0  0  0  0  0  0  0  0  0  0  0
  152.3785  141.2775  158.6010 C   0  0  0  0  0  0  0  0  0  0  0  0
  151.9125  142.1822  157.7569 N   0  0  0  0  0  0  0  0  0  0  0  0
  151.9983  143.3518  158.4209 N   0  0  0  0  0  0  0  0  0  0  0  0
  151.5549  144.5612  157.7540 C   0  0  0  0  0  0  0  0  0  0  0  0
  152.5183  143.1851  159.6917 C   0  0  0  0  0  0  0  0  0  0  0  0
  152.7176  144.3281  160.6352 C   0  0  0  0  0  0  0  0  0  0  0  0
  152.7783  141.8484  159.8446 C   0  0  0  0  0  0  0  0  0  0  0  0
  153.3523  141.1242  161.0371 C   0  0  0  0  0  0  0  0  0  0  0  0
  154.5881  140.3246  160.6213 C   0  0  0  0  0  0  0  0  0  0  0  0
  154.8930  140.2379  159.4324 O   0  0  0  0  0  0  0  0  0  0  0  0
  155.2827  139.7384  161.6092 N   0  0  0  0  0  0  0  0  0  0  0  0
  156.4933  138.9409  161.4421 C   0  0  0  0  0  0  0  0  0  0  0  0
  156.2212  137.4324  161.6010 C   0  0  1  0  0  0  0  0  0  0  0  0
  154.9587  137.1067  162.4278 C   0  0  0  0  0  0  0  0  0  0  0  0
  154.6344  135.6181  162.2670 C   0  0  0  0  0  0  0  0  0  0  0  0
  155.1426  135.1819  160.5631 S   0  0  0  0  0  0  0  0  0  0  0  0
  156.0707  134.0423  160.6178 O   0  0  0  0  0  0  0  0  0  0  0  0
  153.9604  135.1546  159.6887 O   0  0  0  0  0  0  0  0  0  0  0  0
  156.0827  136.7229  160.2448 C   0  0  0  0  0  0  0  0  0  0  0  0
  153.4003  139.3965  158.4167 H   0  0  0  0  0  0  0  0  0  0  0  0
  152.2670  139.7188  157.1111 H   0  0  0  0  0  0  0  0  0  0  0  0
  151.6689  139.2536  158.7011 H   0  0  0  0  0  0  0  0  0  0  0  0
  151.8174  145.4442  158.3358 H   0  0  0  0  0  0  0  0  0  0  0  0
  150.4727  144.5321  157.6256 H   0  0  0  0  0  0  0  0  0  0  0  0
  152.0276  144.6371  156.7741 H   0  0  0  0  0  0  0  0  0  0  0  0
  153.1501  143.9951  161.5782 H   0  0  0  0  0  0  0  0  0  0  0  0
  151.7690  144.8168  160.8576 H   0  0  0  0  0  0  0  0  0  0  0  0
  153.3911  145.0708  160.2071 H   0  0  0  0  0  0  0  0  0  0  0  0
  153.6285  141.8135  161.8352 H   0  0  0  0  0  0  0  0  0  0  0  0
  152.6192  140.4440  161.4723 H   0  0  0  0  0  0  0  0  0  0  0  0
  154.9530  139.8684  162.5546 H   0  0  0  0  0  0  0  0  0  0  0  0
  156.9678  139.1460  160.4808 H   0  0  0  0  0  0  0  0  0  0  0  0
  157.2028  139.2643  162.2043 H   0  0  0  0  0  0  0  0  0  0  0  0
  157.0712  136.9808  162.1150 H   0  0  0  0  0  0  0  0  0  0  0  0
  155.0795  137.3682  163.4792 H   0  0  0  0  0  0  0  0  0  0  0  0
  154.1214  137.6935  162.0480 H   0  0  0  0  0  0  0  0  0  0  0  0
  155.2234  135.0164  162.9594 H   0  0  0  0  0  0  0  0  0  0  0  0
  153.5786  135.3921  162.4173 H   0  0  0  0  0  0  0  0  0  0  0  0
  155.5034  137.3246  159.5436 H   0  0  0  0  0  0  0  0  0  0  0  0
  157.0440  136.4888  159.7874 H   0  0  0  0  0  0  0  0  0  0  0  0
  1  2  1  0  0  0  0
  1 21  1  0  0  0  0
  1 22  1  0  0  0  0
  1 23  1  0  0  0  0
  2  8  1  0  0  0  0
  2  3  2  0  0  0  0
  3  4  1  0  0  0  0
  4  5  1  0  0  0  0
  4  6  1  0  0  0  0
  5 24  1  0  0  0  0
  5 25  1  0  0  0  0
  5 26  1  0  0  0  0
  6  7  1  0  0  0  0
  6  8  2  0  0  0  0
  7 27  1  0  0  0  0
  7 28  1  0  0  0  0
  7 29  1  0  0  0  0
  8  9  1  0  0  0  0
  9 10  1  0  0  0  0
  9 30  1  0  0  0  0
  9 31  1  0  0  0  0
 10 11  2  0  0  0  0
 10 12  1  0  0  0  0
 12 13  1  0  0  0  0
 12 32  1  0  0  0  0
 13 14  1  0  0  0  0
 13 33  1  0  0  0  0
 13 34  1  0  0  0  0
 14 20  1  0  0  0  0
 14 15  1  0  0  0  0
 14 35  1  0  0  0  0
 15 16  1  0  0  0  0
 15 36  1  0  0  0  0
 15 37  1  0  0  0  0
 16 17  1  0  0  0  0
 16 38  1  0  0  0  0
 16 39  1  0  0  0  0
 17 18  2  0  0  0  0
 17 19  2  0  0  0  0
 17 20  1  0  0  0  0
 20 40  1  0  0  0  0
 20 41  1  0  0  0  0
M  END
> <s_m_source_file>
AV-unprocessed.smi

> <i_m_source_file_index>
559

> <i_lp_mmshare_version>
43012

> <i_f3d_flags>
0

> <s_epik_input>
W0NIM11jMW5uKFtDSDNdKWMoW0NIM10pYzFbQ0gyXUMoPU8pW05IXVtDSDJdW0NAQEhdKFtDSDJdMilbQ0gyXVtDSDJdUzIoPU8pPU8=

> <s_epik_cmdline>
J2VwaWtfcHl0aG9uJywgJy1waCcsICc3LjAnLCAnLXRuJywgJzgnLCAnLW1hJywgJzIwMCcsICctbWV0YWxfYmluZGluZycsICctaW1hZScsICc8aW5maWxlLm1hZT4nLCAnLW9tYWUnLCAnPG91dGZpbGUubWFlPic=

> <r_lp_tautomer_probability>
1

> <r_epik_Ionization_Penalty>
0.00301269

> <r_epik_Ionization_Penalty_Charging>
0

> <r_epik_Ionization_Penalty_Neutral>
0.00301269

> <r_epik_State_Penalty>
0.00211587

> <r_epik_Charging_Adjusted_Penalty>
0.00211587

> <i_epik_Tot_Q>
0

> <i_epik_Tot_abs_Q>
0

> <r_epik_Metal_State_Penalty>
-0

> <b_epik_Metal_Only>
0

> <s_lp_Force_Field>
OPLS_2005

> <r_lp_Energy>
-1.18315

> <b_lp_Chiralities_Consistent>
1

> <s_lp_Variant>
AV-unprocessed.smi:559-2

> <Gold.Version>
5.8.1

> <Gold.Id.Protein>
6NUR|6NUR_protein|mol2

> <Gold.PLP.Fitness>
32.9285

> <Gold.PLP.PLP>
-28.3225

> <Gold.PLP.part.hbond>
-2.0000

> <Gold.PLP.part.metal>
0.0000

> <Gold.PLP.part.buried>
-1.7177

> <Gold.PLP.part.nonpolar>
-24.2872

> <Gold.PLP.part.repulsive>
0.0164

> <Gold.PLP.ligand.clash>
0.0000

> <Gold.PLP.ligand.torsion>
0.6874

> <Gold.PLP.Chemscore.Hbond>
1.9920

> <Gold.PLP.Chemscore.CHOScore>
0.0000

> <Gold.PLP.Chemscore.Metal>
0.0000

> <Gold.Chemscore.Hbonds>
donor molecule, donor type, donor heavy atom, donor atom, acceptor molecule, acceptor atom, score
      P1  H  6896  6909       L1    19  1.00
      P1  H  7997  8010       L1    11  0.69

> <Gold.PLP.Chemscore.Internal.Correction>
0.0047

> <Gold.Rescore>
     Score         DG    S(hbond)    S(metal)    S(lipo)     H(rot)  DE(clash)    DE(int)     intcor
     15.50     -17.19       1.97        0.00      79.62       1.64       0.05       1.64       ----

> <Gold.Chemscore.Fitness>
15.5032

> <Gold.Chemscore.DG>
-17.1943

> <Gold.Chemscore.ZeroCoef>
-5.4800

> <Gold.Chemscore.Hbond>
1.9748

> <Gold.Chemscore.Metal>
0.0000

> <Gold.Chemscore.Lipo>
79.6220

> <Gold.Chemscore.Internal_Hbond>
0.0000

> <Gold.Chemscore.DEClash>
0.0512

> <Gold.Chemscore.DEInternal>
1.6399

> <Gold.Chemscore.Rot>
1.6396

> <Gold.Chemscore.Internal.Correction>
   9.000000E+99

> <Gold.Chemscore.Hbonds>
donor molecule, donor type, donor heavy atom, donor atom, acceptor molecule, acceptor atom, score
      P1  H  6896  6909       L1    19  0.98
      P1  H  7997  8010       L1    11  0.66

> <Gold.Chemscore.Hbond.Weighted>
-6.5959

> <Gold.Chemscore.Metal.Weighted>
-0.0000

> <Gold.Chemscore.Lipo.Weighted>
-9.3158

> <Gold.Chemscore.Internal_Hbond.Weighted>
0.0000

> <Gold.Chemscore.DEClash.Weighted>
0.0512

> <Gold.Chemscore.DEInternal.Weighted>
1.6399

> <Gold.Chemscore.Rot.Weighted>
4.1974

> <Gold.Chemscore.Internal.Correction.Weighted>
   9.000000E+99

> <Gold.Protein.RotatedTorsions>
[ 6907 6896 6895 6894 ] final  178.87 input  -60.11 | X-H torsion
[ 7974 7965 7964 7962 ] final    6.71 input  175.53 | X-H torsion
[ 8008 7997 7996 7995 ] final  -14.22 input   59.86 | X-H torsion
[ 10167 10162 10161 10158 ] final   36.70 input  -65.29 | X-H torsion
[ 10718 10713 10712 10709 ] final  -12.74 input   66.30 | X-H torsion
[ 10763 10752 10751 10750 ] final -158.65 input  -60.55 | X-H torsion
[ 11005 11000 10999 10996 ] final -116.82 input  -57.11 | X-H torsion

> <Gold.Protein.ActiveResidues>
 VAL166  LYS551  ARG553  GLY616  TRP617  ASP618  TYR619  PRO620  LYS621  CYS622 
 ASP623  PHE694  ASN695  SER759  ASP760  ASP761  ALA762  ILE779  LEU786  VAL792 
 PHE793  MET794  SER795  GLU796  ALA797  LYS798  CYS799  TRP800  GLU811  SER814 

> <Gold.Protein.RotatedAtoms>
  151.6808  133.3312  159.3218 H   0  0  0  0  0  0  0  0  0  0  0  0  # atno 6907 bound_to 6896
  150.7824  134.6782  159.6439 H   0  0  0  0  0  0  0  0  0  0  0  0  # atno 6908 bound_to 6896
  152.3885  134.6483  160.0169 H   0  0  0  0  0  0  0  0  0  0  0  0  # atno 6909 bound_to 6896
  146.2433  140.0193  142.8399 H   0  0  0  0  0  0  0  0  0  0  0  0  # atno 7974 bound_to 7965
  154.5228  140.2229  155.8945 H   0  0  0  0  0  0  0  0  0  0  0  0  # atno 8008 bound_to 7997
  156.1680  140.3128  155.8888 H   0  0  0  0  0  0  0  0  0  0  0  0  # atno 8009 bound_to 7997
  155.3616  140.0461  157.3037 H   0  0  0  0  0  0  0  0  0  0  0  0  # atno 8010 bound_to 7997
  140.4103  144.1602  150.6139 H   0  0  0  0  0  0  0  0  0  0  0  0  # atno 10167 bound_to 10162
  156.6403  130.4926  149.6097 H   0  0  0  0  0  0  0  0  0  0  0  0  # atno 10718 bound_to 10713
  154.7539  135.3099  154.8506 H   0  0  0  0  0  0  0  0  0  0  0  0  # atno 10763 bound_to 10752
  153.9285  135.6788  153.4750 H   0  0  0  0  0  0  0  0  0  0  0  0  # atno 10764 bound_to 10752
  153.1136  135.4855  154.9006 H   0  0  0  0  0  0  0  0  0  0  0  0  # atno 10765 bound_to 10752
  141.0396  133.9856  157.3016 H   0  0  0  0  0  0  0  0  0  0  0  0  # atno 11005 bound_to 11000
  145.1256  140.9488  143.4575 LP  0  0  0  0  0  0  0  0  0  0  0  0  # atno 17320 bound_to 7965
  145.0438  139.3238  143.5963 LP  0  0  0  0  0  0  0  0  0  0  0  0  # atno 17321 bound_to 7965
  140.4645  143.2436  151.9174 LP  0  0  0  0  0  0  0  0  0  0  0  0  # atno 17342 bound_to 10162
  139.4782  144.5433  151.8495 LP  0  0  0  0  0  0  0  0  0  0  0  0  # atno 17343 bound_to 10162
  156.2164  130.6710  151.1323 LP  0  0  0  0  0  0  0  0  0  0  0  0  # atno 17370 bound_to 10713
  157.7173  131.0702  150.6277 LP  0  0  0  0  0  0  0  0  0  0  0  0  # atno 17371 bound_to 10713
  139.9266  135.0201  156.8255 LP  0  0  0  0  0  0  0  0  0  0  0  0  # atno 17394 bound_to 11000
  140.6259  133.9951  155.7639 LP  0  0  0  0  0  0  0  0  0  0  0  0  # atno 17395 bound_to 11000

$$$$
