AV-unprocessed.smi:453|AV-procd|sdf|2611|dock6
  -GOLD-   2262023 13D 1   1.00000     0.00000
 Structure written by MMmdl.
 43 44  0  0  0  0  0  0  0  0  1 V2000
  150.2576  133.5609  152.2790 C   0  0  0  0  0  0  0  0  0  0  0  0
  151.5764  134.2322  152.7049 C   0  0  0  0  0  0  0  0  0  0  0  0
  152.7098  133.1960  152.7550 C   0  0  0  0  0  0  0  0  0  0  0  0
  151.4723  134.9866  154.0507 C   0  0  0  0  0  0  0  0  0  0  0  0
  152.1154  136.3772  154.0303 C   0  0  0  0  0  0  0  0  0  0  0  0
  153.1875  136.5730  154.6022 O   0  0  0  0  0  0  0  0  0  0  0  0
  151.4603  137.3279  153.3465 N   0  0  0  0  0  0  0  0  0  0  0  0
  151.9049  138.7103  153.1987 C   0  0  0  0  0  0  0  0  0  0  0  0
  151.9286  139.5144  154.4919 C   0  0  0  0  0  0  0  0  0  0  0  0
  150.7361  140.0665  154.9986 C   0  0  0  0  0  0  0  0  0  0  0  0
  150.7790  140.8215  156.1860 C   0  0  0  0  0  0  0  0  0  0  0  0
  152.0200  141.0120  156.8386 C   0  0  0  0  0  0  0  0  0  0  0  0
  152.0877  141.7709  158.0273 N   0  0  0  0  0  0  0  0  0  0  0  0
  150.8568  142.3897  158.5161 C   0  0  0  0  0  0  0  0  0  0  0  0
  151.1703  143.3935  159.6381 C   0  0  0  0  0  0  0  0  0  0  0  0
  151.9052  142.7444  160.6703 O   0  0  0  0  0  0  0  0  0  0  0  0
  153.1519  142.2448  160.1981 C   0  0  0  0  0  0  0  0  0  0  0  0
  152.9114  141.2028  159.0920 C   0  0  0  0  0  0  0  0  0  0  0  0
  153.1664  140.4773  156.3501 N   0  0  0  0  0  0  0  0  0  0  0  0
  153.1196  139.7550  155.2110 C   0  0  0  0  0  0  0  0  0  0  0  0
  149.9093  132.8574  153.0360 H   0  0  0  0  0  0  0  0  0  0  0  0
  150.3837  133.0089  151.3472 H   0  0  0  0  0  0  0  0  0  0  0  0
  149.4658  134.2904  152.1104 H   0  0  0  0  0  0  0  0  0  0  0  0
  151.8406  134.9560  151.9323 H   0  0  0  0  0  0  0  0  0  0  0  0
  152.5148  132.4320  153.5083 H   0  0  0  0  0  0  0  0  0  0  0  0
  153.6636  133.6659  152.9965 H   0  0  0  0  0  0  0  0  0  0  0  0
  152.8273  132.6938  151.7942 H   0  0  0  0  0  0  0  0  0  0  0  0
  150.4251  135.0908  154.3384 H   0  0  0  0  0  0  0  0  0  0  0  0
  151.9421  134.3988  154.8410 H   0  0  0  0  0  0  0  0  0  0  0  0
  150.5892  137.0776  152.9014 H   0  0  0  0  0  0  0  0  0  0  0  0
  152.9155  138.6964  152.7904 H   0  0  0  0  0  0  0  0  0  0  0  0
  151.2833  139.2206  152.4606 H   0  0  0  0  0  0  0  0  0  0  0  0
  149.7972  139.9127  154.4870 H   0  0  0  0  0  0  0  0  0  0  0  0
  149.8640  141.2319  156.5859 H   0  0  0  0  0  0  0  0  0  0  0  0
  150.3446  142.9056  157.7028 H   0  0  0  0  0  0  0  0  0  0  0  0
  150.1845  141.6145  158.8866 H   0  0  0  0  0  0  0  0  0  0  0  0
  151.7358  144.2436  159.2529 H   0  0  0  0  0  0  0  0  0  0  0  0
  150.2449  143.7901  160.0562 H   0  0  0  0  0  0  0  0  0  0  0  0
  153.7696  143.0661  159.8309 H   0  0  0  0  0  0  0  0  0  0  0  0
  153.6897  141.7903  161.0303 H   0  0  0  0  0  0  0  0  0  0  0  0
  152.3993  140.3326  159.5053 H   0  0  0  0  0  0  0  0  0  0  0  0
  153.8735  140.8553  158.7181 H   0  0  0  0  0  0  0  0  0  0  0  0
  154.0668  139.3668  154.8671 H   0  0  0  0  0  0  0  0  0  0  0  0
  1  2  1  0  0  0  0
  1 21  1  0  0  0  0
  1 22  1  0  0  0  0
  1 23  1  0  0  0  0
  2  3  1  0  0  0  0
  2  4  1  0  0  0  0
  2 24  1  0  0  0  0
  3 25  1  0  0  0  0
  3 26  1  0  0  0  0
  3 27  1  0  0  0  0
  4  5  1  0  0  0  0
  4 28  1  0  0  0  0
  4 29  1  0  0  0  0
  5  6  2  0  0  0  0
  5  7  1  0  0  0  0
  7  8  1  0  0  0  0
  7 30  1  0  0  0  0
  8  9  1  0  0  0  0
  8 31  1  0  0  0  0
  8 32  1  0  0  0  0
  9 20  1  0  0  0  0
  9 10  2  0  0  0  0
 10 11  1  0  0  0  0
 10 33  1  0  0  0  0
 11 12  2  0  0  0  0
 11 34  1  0  0  0  0
 12 13  1  0  0  0  0
 12 19  1  0  0  0  0
 13 18  1  0  0  0  0
 13 14  1  0  0  0  0
 14 15  1  0  0  0  0
 14 35  1  0  0  0  0
 14 36  1  0  0  0  0
 15 16  1  0  0  0  0
 15 37  1  0  0  0  0
 15 38  1  0  0  0  0
 16 17  1  0  0  0  0
 17 18  1  0  0  0  0
 17 39  1  0  0  0  0
 17 40  1  0  0  0  0
 18 41  1  0  0  0  0
 18 42  1  0  0  0  0
 19 20  2  0  0  0  0
 20 43  1  0  0  0  0
M  END
> <s_m_source_file>
AV-unprocessed.smi

> <i_m_source_file_index>
453

> <i_lp_mmshare_version>
43012

> <i_f3d_flags>
0

> <s_epik_input>
W0NIM11bQ0hdKFtDSDNdKVtDSDJdQyg9TylbTkhdW0NIMl1jMVtjSF1bY0hdYyhuW2NIXTEpTjJbQ0gyXVtDSDJdT1tDSDJdW0NIMl0y

> <s_epik_cmdline>
J2VwaWtfcHl0aG9uJywgJy1waCcsICc3LjAnLCAnLXRuJywgJzgnLCAnLW1hJywgJzIwMCcsICctbWV0YWxfYmluZGluZycsICctaW1hZScsICc8aW5maWxlLm1hZT4nLCAnLW9tYWUnLCAnPG91dGZpbGUubWFlPic=

> <r_lp_tautomer_probability>
1

> <r_epik_Ionization_Penalty>
0.00505548

> <r_epik_Ionization_Penalty_Charging>
0

> <r_epik_Ionization_Penalty_Neutral>
0.00505548

> <r_epik_State_Penalty>
0.00367784

> <r_epik_Charging_Adjusted_Penalty>
0.00367784

> <i_epik_Tot_Q>
0

> <i_epik_Tot_abs_Q>
0

> <r_epik_Metal_State_Penalty>
-0

> <b_epik_Metal_Only>
0

> <s_lp_Force_Field>
OPLS_2005

> <r_lp_Energy>
17.3119

> <b_lp_Chiralities_Consistent>
1

> <s_lp_Variant>
AV-unprocessed.smi:453-1

> <Gold.Version>
5.8.1

> <Gold.Id.Protein>
6NUR|6NUR_protein|mol2

> <Gold.PLP.Fitness>
47.1754

> <Gold.PLP.PLP>
-40.6639

> <Gold.PLP.part.hbond>
-4.0000

> <Gold.PLP.part.metal>
0.0000

> <Gold.PLP.part.buried>
-3.0370

> <Gold.PLP.part.nonpolar>
-33.4562

> <Gold.PLP.part.repulsive>
0.1622

> <Gold.PLP.ligand.clash>
0.0000

> <Gold.PLP.ligand.torsion>
1.2722

> <Gold.PLP.Chemscore.Hbond>
2.9040

> <Gold.PLP.Chemscore.CHOScore>
0.0000

> <Gold.PLP.Chemscore.Metal>
0.0000

> <Gold.Chemscore.Hbonds>
donor molecule, donor type, donor heavy atom, donor atom, acceptor molecule, acceptor atom, score
      L1  H     7    30       P1  7949  0.02
      P1  H  7997  8008       L1    19  0.18

> <Gold.PLP.Chemscore.Internal.Correction>
0.3440

> <Gold.Rescore>
     Score         DG    S(hbond)    S(metal)    S(lipo)     H(rot)  DE(clash)    DE(int)     intcor
     14.98     -17.47       1.65        0.00      91.61       1.65       0.01       2.48       ----

> <Gold.Chemscore.Fitness>
14.9780

> <Gold.Chemscore.DG>
-17.4735

> <Gold.Chemscore.ZeroCoef>
-5.4800

> <Gold.Chemscore.Hbond>
1.6456

> <Gold.Chemscore.Metal>
0.0000

> <Gold.Chemscore.Lipo>
91.6077

> <Gold.Chemscore.Internal_Hbond>
0.0000

> <Gold.Chemscore.DEClash>
0.0109

> <Gold.Chemscore.DEInternal>
2.4846

> <Gold.Chemscore.Rot>
1.6488

> <Gold.Chemscore.Internal.Correction>
   9.000000E+99

> <Gold.Chemscore.Hbonds>
donor molecule, donor type, donor heavy atom, donor atom, acceptor molecule, acceptor atom, score
      P1  H  7997  8008       L1    19  0.06

> <Gold.Chemscore.Hbond.Weighted>
-5.4962

> <Gold.Chemscore.Metal.Weighted>
-0.0000

> <Gold.Chemscore.Lipo.Weighted>
-10.7181

> <Gold.Chemscore.Internal_Hbond.Weighted>
0.0000

> <Gold.Chemscore.DEClash.Weighted>
0.0109

> <Gold.Chemscore.DEInternal.Weighted>
2.4846

> <Gold.Chemscore.Rot.Weighted>
4.2208

> <Gold.Chemscore.Internal.Correction.Weighted>
   9.000000E+99

> <Gold.Protein.RotatedTorsions>
[ 6907 6896 6895 6894 ] final  -60.70 input  -60.11 | X-H torsion
[ 7974 7965 7964 7962 ] final -148.20 input  175.53 | X-H torsion
[ 8008 7997 7996 7995 ] final  -82.97 input   59.86 | X-H torsion
[ 10167 10162 10161 10158 ] final   58.94 input  -65.29 | X-H torsion
[ 10718 10713 10712 10709 ] final -133.51 input   66.30 | X-H torsion
[ 10763 10752 10751 10750 ] final -167.61 input  -60.55 | X-H torsion
[ 11005 11000 10999 10996 ] final  178.87 input  -57.11 | X-H torsion

> <Gold.Protein.ActiveResidues>
 VAL166  LYS551  ARG553  GLY616  TRP617  ASP618  TYR619  PRO620  LYS621  CYS622 
 ASP623  PHE694  ASN695  SER759  ASP760  ASP761  ALA762  ILE779  LEU786  VAL792 
 PHE793  MET794  SER795  GLU796  ALA797  LYS798  CYS799  TRP800  GLU811  SER814 

> <Gold.Protein.RotatedAtoms>
  150.7837  134.6802  159.6439 H   0  0  0  0  0  0  0  0  0  0  0  0  # atno 6907 bound_to 6896
  152.3928  134.6411  160.0110 H   0  0  0  0  0  0  0  0  0  0  0  0  # atno 6908 bound_to 6896
  151.6706  133.3277  159.3232 H   0  0  0  0  0  0  0  0  0  0  0  0  # atno 6909 bound_to 6896
  144.8044  140.5227  143.5685 H   0  0  0  0  0  0  0  0  0  0  0  0  # atno 7974 bound_to 7965
  154.6142  140.0625  156.9532 H   0  0  0  0  0  0  0  0  0  0  0  0  # atno 8008 bound_to 7997
  155.1924  140.3308  155.4338 H   0  0  0  0  0  0  0  0  0  0  0  0  # atno 8009 bound_to 7997
  156.2394  140.1879  156.7013 H   0  0  0  0  0  0  0  0  0  0  0  0  # atno 8010 bound_to 7997
  140.1818  144.4174  150.6612 H   0  0  0  0  0  0  0  0  0  0  0  0  # atno 10167 bound_to 10162
  156.2457  130.7123  151.1002 H   0  0  0  0  0  0  0  0  0  0  0  0  # atno 10718 bound_to 10713
  154.6714  135.2940  154.9736 H   0  0  0  0  0  0  0  0  0  0  0  0  # atno 10763 bound_to 10752
  154.0762  135.6611  153.4835 H   0  0  0  0  0  0  0  0  0  0  0  0  # atno 10764 bound_to 10752
  153.0489  135.5186  154.7712 H   0  0  0  0  0  0  0  0  0  0  0  0  # atno 10765 bound_to 10752
  140.3999  134.6787  157.4556 H   0  0  0  0  0  0  0  0  0  0  0  0  # atno 11005 bound_to 11000
  145.5474  139.1476  143.3413 LP  0  0  0  0  0  0  0  0  0  0  0  0  # atno 17320 bound_to 7965
  146.2332  140.5613  142.8966 LP  0  0  0  0  0  0  0  0  0  0  0  0  # atno 17321 bound_to 7965
  140.6515  143.2226  151.6067 LP  0  0  0  0  0  0  0  0  0  0  0  0  # atno 17342 bound_to 10162
  139.5293  144.2964  152.1110 LP  0  0  0  0  0  0  0  0  0  0  0  0  # atno 17343 bound_to 10162
  157.7194  131.0691  150.6198 LP  0  0  0  0  0  0  0  0  0  0  0  0  # atno 17370 bound_to 10713
  156.6274  130.4422  149.5799 LP  0  0  0  0  0  0  0  0  0  0  0  0  # atno 17371 bound_to 10713
  140.0344  134.6359  155.9063 LP  0  0  0  0  0  0  0  0  0  0  0  0  # atno 17394 bound_to 11000
  141.1860  133.6556  156.5223 LP  0  0  0  0  0  0  0  0  0  0  0  0  # atno 17395 bound_to 11000

$$$$
