AV-unprocessed.smi:2124|AV-procd|sdf|8659|dock5
  -GOLD-   2272011403D 1   1.00000     0.00000
 Structure written by MMmdl.
 47 49  0  0  0  0  0  0  0  0  1 V2000
  142.4885  139.2912  155.7356 C   0  0  0  0  0  0  0  0  0  0  0  0
  143.4605  140.2981  156.3107 C   0  0  0  0  0  0  0  0  0  0  0  0
  144.0359  141.1229  155.3579 N   0  0  0  0  0  0  0  0  0  0  0  0
  144.9406  142.0770  155.7891 C   0  0  0  0  0  0  0  0  0  0  0  0
  145.5198  142.9434  154.6845 C   0  0  0  0  0  0  0  0  0  0  0  0
  145.2564  142.2021  157.1030 C   0  0  0  0  0  0  0  0  0  0  0  0
  146.2408  143.2479  157.6251 C   0  0  0  0  0  0  0  0  0  0  0  0
  147.3483  142.7332  158.5485 C   0  0  0  0  0  0  0  0  0  0  0  0
  147.1131  142.4741  159.7291 O   0  0  0  0  0  0  0  0  0  0  0  0
  148.5583  142.5879  157.9877 N   0  0  0  0  0  0  0  0  0  0  0  0
  149.7582  142.1094  158.6706 C   0  0  1  0  0  0  0  0  0  0  0  0
  150.0913  140.6903  158.1799 C   0  0  0  0  0  0  0  0  0  0  0  0
  150.9262  143.0950  158.4337 C   0  0  2  0  0  0  0  0  0  0  0  0
  152.2548  142.7012  159.1180 C   0  0  0  0  0  0  0  0  0  0  0  0
  152.6679  143.9948  159.8445 C   0  0  2  0  0  0  0  0  0  0  0  0
  151.7630  144.1919  161.0745 C   0  0  0  0  0  0  0  0  0  0  0  0
  150.4200  144.6009  160.4432 C   0  0  0  0  0  0  0  0  0  0  0  0
  150.7227  144.5490  158.9310 C   0  0  1  0  0  0  0  0  0  0  0  0
  152.1545  145.0742  158.8988 C   0  0  0  0  0  0  0  0  0  0  0  0
  144.6041  141.2945  158.0760 C   0  0  0  0  0  0  0  0  0  0  0  0
  144.8388  141.3683  159.2814 O   0  0  0  0  0  0  0  0  0  0  0  0
  143.6965  140.3412  157.5868 N   0  0  0  0  0  0  0  0  0  0  0  0
  143.8288  141.0643  154.3712 H   0  0  0  0  0  0  0  0  0  0  0  0
  142.0216  138.7035  156.5270 H   0  0  0  0  0  0  0  0  0  0  0  0
  143.0054  138.6069  155.0621 H   0  0  0  0  0  0  0  0  0  0  0  0
  141.6998  139.7979  155.1787 H   0  0  0  0  0  0  0  0  0  0  0  0
  145.3311  143.9977  154.8882 H   0  0  0  0  0  0  0  0  0  0  0  0
  145.0800  142.7061  153.7149 H   0  0  0  0  0  0  0  0  0  0  0  0
  146.5969  142.7933  154.6091 H   0  0  0  0  0  0  0  0  0  0  0  0
  145.6867  144.0107  158.1719 H   0  0  0  0  0  0  0  0  0  0  0  0
  146.6970  143.7819  156.7905 H   0  0  0  0  0  0  0  0  0  0  0  0
  148.6572  142.8264  157.0115 H   0  0  0  0  0  0  0  0  0  0  0  0
  149.5665  142.0519  159.7429 H   0  0  0  0  0  0  0  0  0  0  0  0
  150.9663  140.2877  158.6902 H   0  0  0  0  0  0  0  0  0  0  0  0
  150.2970  140.6777  157.1090 H   0  0  0  0  0  0  0  0  0  0  0  0
  149.2638  140.0052  158.3674 H   0  0  0  0  0  0  0  0  0  0  0  0
  151.1027  143.1462  157.3577 H   0  0  0  0  0  0  0  0  0  0  0  0
  152.1488  141.8670  159.8128 H   0  0  0  0  0  0  0  0  0  0  0  0
  152.9977  142.4160  158.3723 H   0  0  0  0  0  0  0  0  0  0  0  0
  153.7329  144.0471  160.0727 H   0  0  0  0  0  0  0  0  0  0  0  0
  151.6808  143.2872  161.6781 H   0  0  0  0  0  0  0  0  0  0  0  0
  152.1435  144.9881  161.7155 H   0  0  0  0  0  0  0  0  0  0  0  0
  149.5959  143.9542  160.7429 H   0  0  0  0  0  0  0  0  0  0  0  0
  150.1577  145.6162  160.7425 H   0  0  0  0  0  0  0  0  0  0  0  0
  150.0193  145.1229  158.3272 H   0  0  0  0  0  0  0  0  0  0  0  0
  152.2561  146.0848  159.2986 H   0  0  0  0  0  0  0  0  0  0  0  0
  152.6110  145.0349  157.9082 H   0  0  0  0  0  0  0  0  0  0  0  0
  1 24  1  0  0  0  0
  1 25  1  0  0  0  0
  1 26  1  0  0  0  0
  1  2  1  0  0  0  0
  2  3  1  0  0  0  0
  2 22  2  0  0  0  0
  3  4  1  0  0  0  0
  3 23  1  0  0  0  0
  4  6  2  0  0  0  0
  4  5  1  0  0  0  0
  5 27  1  0  0  0  0
  5 28  1  0  0  0  0
  5 29  1  0  0  0  0
  6 20  1  0  0  0  0
  6  7  1  0  0  0  0
  7  8  1  0  0  0  0
  7 30  1  0  0  0  0
  7 31  1  0  0  0  0
  8  9  2  0  0  0  0
  8 10  1  0  0  0  0
 10 11  1  0  0  0  0
 10 32  1  0  0  0  0
 11 12  1  0  0  0  0
 11 13  1  0  0  0  0
 11 33  1  0  0  0  0
 12 34  1  0  0  0  0
 12 35  1  0  0  0  0
 12 36  1  0  0  0  0
 13 18  1  0  0  0  0
 13 14  1  0  0  0  0
 13 37  1  0  0  0  0
 14 15  1  0  0  0  0
 14 38  1  0  0  0  0
 14 39  1  0  0  0  0
 15 19  1  0  0  0  0
 15 16  1  0  0  0  0
 15 40  1  0  0  0  0
 16 17  1  0  0  0  0
 16 41  1  0  0  0  0
 16 42  1  0  0  0  0
 17 18  1  0  0  0  0
 17 43  1  0  0  0  0
 17 44  1  0  0  0  0
 18 19  1  0  0  0  0
 18 45  1  0  0  0  0
 19 46  1  0  0  0  0
 19 47  1  0  0  0  0
 20 21  2  0  0  0  0
 20 22  1  0  0  0  0
M  END
> <s_m_source_file>
AV-unprocessed.smi

> <i_m_source_file_index>
2124

> <i_lp_mmshare_version>
43012

> <i_f3d_flags>
0

> <s_epik_input>
W0NIM11jMW5jKFtDSDNdKWMoYyg9TylbbkhdMSlbQ0gyXUMoPU8pW05IXVtDQEhdKFtDSDNdKVtDQEhdKFtDSDJdW0NASF0yMylbQ0BIXShbQ0gyXTMpW0NIMl1bQ0gyXTI=

> <s_epik_cmdline>
J2VwaWtfcHl0aG9uJywgJy1waCcsICc3LjAnLCAnLXRuJywgJzgnLCAnLW1hJywgJzIwMCcsICctbWV0YWxfYmluZGluZycsICctaW1hZScsICc8aW5maWxlLm1hZT4nLCAnLW9tYWUnLCAnPG91dGZpbGUubWFlPic=

> <r_lp_tautomer_probability>
0.156392

> <r_epik_Ionization_Penalty>
0.0139374

> <r_epik_Ionization_Penalty_Charging>
0.0138122

> <r_epik_Ionization_Penalty_Neutral>
0.000125146

> <r_epik_State_Penalty>
1.15342

> <r_epik_Charging_Adjusted_Penalty>
1.16723

> <i_epik_Tot_Q>
0

> <i_epik_Tot_abs_Q>
0

> <r_epik_Metal_State_Penalty>
1.3173

> <b_epik_Metal_Only>
0

> <s_lp_Force_Field>
OPLS_2005

> <r_lp_Energy>
55.6294

> <b_lp_Chiralities_Consistent>
1

> <s_lp_Variant>
AV-unprocessed.smi:2124-10

> <Gold.Version>
5.8.1

> <Gold.Id.Protein>
6NUR|6NUR_protein|mol2

> <Gold.PLP.Fitness>
42.9930

> <Gold.PLP.PLP>
-35.7330

> <Gold.PLP.part.hbond>
-4.2774

> <Gold.PLP.part.metal>
0.0000

> <Gold.PLP.part.buried>
-3.9733

> <Gold.PLP.part.nonpolar>
-27.0085

> <Gold.PLP.part.repulsive>
0.1252

> <Gold.PLP.ligand.clash>
0.0000

> <Gold.PLP.ligand.torsion>
0.4234

> <Gold.PLP.Chemscore.Hbond>
2.6982

> <Gold.PLP.Chemscore.CHOScore>
0.0000

> <Gold.PLP.Chemscore.Metal>
0.0000

> <Gold.Chemscore.Hbonds>
donor molecule, donor type, donor heavy atom, donor atom, acceptor molecule, acceptor atom, score
      L1  H     3    23       P1 10175  1.00
      L1  H    10    32       P1  8028  0.20
      P1  H  6933  6944       L1     9  0.37
      P1  H  6934  6946       L1     9  0.80

> <Gold.PLP.Chemscore.Internal.Correction>
0.0122

> <Gold.Rescore>
     Score         DG    S(hbond)    S(metal)    S(lipo)     H(rot)  DE(clash)    DE(int)     intcor
     19.78     -21.51       2.63        0.00      98.21       1.65       0.11       1.63       ----

> <Gold.Chemscore.Fitness>
19.7753

> <Gold.Chemscore.DG>
-21.5149

> <Gold.Chemscore.ZeroCoef>
-5.4800

> <Gold.Chemscore.Hbond>
2.6277

> <Gold.Chemscore.Metal>
0.0000

> <Gold.Chemscore.Lipo>
98.2118

> <Gold.Chemscore.Internal_Hbond>
0.0000

> <Gold.Chemscore.DEClash>
0.1084

> <Gold.Chemscore.DEInternal>
1.6312

> <Gold.Chemscore.Rot>
1.6534

> <Gold.Chemscore.Internal.Correction>
   9.000000E+99

> <Gold.Chemscore.Hbonds>
donor molecule, donor type, donor heavy atom, donor atom, acceptor molecule, acceptor atom, score
      L1  H     3    23       P1 10175  0.78
      L1  H    10    32       P1  8028  0.16
      P1  H  6933  6944       L1     9  0.37
      P1  H  6934  6946       L1     9  0.79

> <Gold.Chemscore.Hbond.Weighted>
-8.7767

> <Gold.Chemscore.Metal.Weighted>
-0.0000

> <Gold.Chemscore.Lipo.Weighted>
-11.4908

> <Gold.Chemscore.Internal_Hbond.Weighted>
0.0000

> <Gold.Chemscore.DEClash.Weighted>
0.1084

> <Gold.Chemscore.DEInternal.Weighted>
1.6312

> <Gold.Chemscore.Rot.Weighted>
4.2326

> <Gold.Chemscore.Internal.Correction.Weighted>
   9.000000E+99

> <Gold.Protein.RotatedTorsions>
[ 6907 6896 6895 6894 ] final  -57.34 input  -60.11 | X-H torsion
[ 7974 7965 7964 7962 ] final -172.03 input  175.53 | X-H torsion
[ 8008 7997 7996 7995 ] final -166.50 input   59.86 | X-H torsion
[ 10167 10162 10161 10158 ] final -149.97 input  -65.29 | X-H torsion
[ 10718 10713 10712 10709 ] final   77.29 input   66.30 | X-H torsion
[ 10763 10752 10751 10750 ] final   60.51 input  -60.55 | X-H torsion
[ 11005 11000 10999 10996 ] final   -7.72 input  -57.11 | X-H torsion

> <Gold.Protein.ActiveResidues>
 VAL166  LYS551  ARG553  GLY616  TRP617  ASP618  TYR619  PRO620  LYS621  CYS622 
 ASP623  PHE694  ASN695  SER759  ASP760  ASP761  ALA762  ILE779  LEU786  VAL792 
 PHE793  MET794  SER795  GLU796  ALA797  LYS798  CYS799  TRP800  GLU811  SER814 

> <Gold.Protein.RotatedAtoms>
  150.8094  134.7239  159.6673 H   0  0  0  0  0  0  0  0  0  0  0  0  # atno 6907 bound_to 6896
  152.4214  134.5946  159.9993 H   0  0  0  0  0  0  0  0  0  0  0  0  # atno 6908 bound_to 6896
  151.6160  133.3306  159.3113 H   0  0  0  0  0  0  0  0  0  0  0  0  # atno 6909 bound_to 6896
  144.7150  140.1833  143.6356 H   0  0  0  0  0  0  0  0  0  0  0  0  # atno 7974 bound_to 7965
  155.8647  140.0984  157.1590 H   0  0  0  0  0  0  0  0  0  0  0  0  # atno 8008 bound_to 7997
  154.3993  140.1358  156.4067 H   0  0  0  0  0  0  0  0  0  0  0  0  # atno 8009 bound_to 7997
  155.7817  140.3458  155.5303 H   0  0  0  0  0  0  0  0  0  0  0  0  # atno 8010 bound_to 7997
  139.7395  143.8683  152.2558 H   0  0  0  0  0  0  0  0  0  0  0  0  # atno 10167 bound_to 10162
  157.6705  130.9815  150.1621 H   0  0  0  0  0  0  0  0  0  0  0  0  # atno 10718 bound_to 10713
  152.9923  135.5534  154.5884 H   0  0  0  0  0  0  0  0  0  0  0  0  # atno 10763 bound_to 10752
  154.5251  135.2810  155.1231 H   0  0  0  0  0  0  0  0  0  0  0  0  # atno 10764 bound_to 10752
  154.2569  135.6388  153.5313 H   0  0  0  0  0  0  0  0  0  0  0  0  # atno 10765 bound_to 10752
  140.7158  133.8870  155.8784 H   0  0  0  0  0  0  0  0  0  0  0  0  # atno 11005 bound_to 11000
  145.8836  139.2336  143.1591 LP  0  0  0  0  0  0  0  0  0  0  0  0  # atno 17320 bound_to 7965
  145.9971  140.8552  143.0037 LP  0  0  0  0  0  0  0  0  0  0  0  0  # atno 17321 bound_to 7965
  139.8630  144.7107  150.9077 LP  0  0  0  0  0  0  0  0  0  0  0  0  # atno 17342 bound_to 10162
  140.7784  143.3802  151.1491 LP  0  0  0  0  0  0  0  0  0  0  0  0  # atno 17343 bound_to 10162
  156.2395  130.3689  149.8353 LP  0  0  0  0  0  0  0  0  0  0  0  0  # atno 17370 bound_to 10713
  156.6158  130.8605  151.3464 LP  0  0  0  0  0  0  0  0  0  0  0  0  # atno 17371 bound_to 10713
  141.0045  134.1104  157.4284 LP  0  0  0  0  0  0  0  0  0  0  0  0  # atno 17394 bound_to 11000
  139.8860  135.0077  156.6471 LP  0  0  0  0  0  0  0  0  0  0  0  0  # atno 17395 bound_to 11000

$$$$
