AV-unprocessed.smi:1110|AV-procd|sdf|4791|dock6
  -GOLD-   22720 3333D 1   1.00000     0.00000
 Structure written by MMmdl.
 44 45  0  0  0  0  0  0  0  0  2 V2000
  145.7851  133.4592  156.6167 C   0  0  0  0  0  0  0  0  0  0  0  0
  145.9208  133.6802  155.1032 C   0  0  0  0  0  0  0  0  0  0  0  0
  146.9363  134.7831  154.6988 C   0  0  1  0  0  0  0  0  0  0  0  0
  148.3733  134.4363  155.1667 C   0  0  0  0  0  0  0  0  0  0  0  0
  149.3028  135.5248  154.8863 N   0  0  0  0  0  0  0  0  0  0  0  0
  150.3538  135.8746  155.6451 C   0  0  0  0  0  0  0  0  0  0  0  0
  150.6477  135.2886  156.6858 O   0  0  0  0  0  0  0  0  0  0  0  0
  151.2100  137.0691  155.1893 C   0  0  0  0  0  0  0  0  0  0  0  0
  150.6285  138.3928  155.4795 N   0  0  0  0  0  0  0  0  0  0  0  0
  149.4073  138.7034  154.8485 C   0  0  0  0  0  0  0  0  0  0  0  0
  148.7941  139.8837  155.0300 C   0  0  0  0  0  0  0  0  0  0  0  0
  149.4182  140.8495  155.9030 C   0  0  0  0  0  0  0  0  0  0  0  0
  150.5888  140.5647  156.5077 C   0  0  0  0  0  0  0  0  0  0  0  0
  151.2669  139.2794  156.3051 C   0  0  0  0  0  0  0  0  0  0  0  0
  152.3474  139.0197  156.8340 O   0  0  0  0  0  0  0  0  0  0  0  0
  146.8817  135.0262  153.2250 N   0  3  0  0  0  0  0  0  0  0  0  0
  146.9221  133.8075  152.3760 C   0  0  0  0  0  0  0  0  0  0  0  0
  145.9720  134.0422  151.1938 C   0  0  0  0  0  0  0  0  0  0  0  0
  145.6351  135.5267  151.2560 C   0  0  0  0  0  0  0  0  0  0  0  0
  145.7397  135.8358  152.7442 C   0  0  0  0  0  0  0  0  0  0  0  0
  144.9636  132.7755  156.8318 H   0  0  0  0  0  0  0  0  0  0  0  0
  145.5807  134.3952  157.1371 H   0  0  0  0  0  0  0  0  0  0  0  0
  146.6861  133.0207  157.0454 H   0  0  0  0  0  0  0  0  0  0  0  0
  146.1795  132.7350  154.6240 H   0  0  0  0  0  0  0  0  0  0  0  0
  144.9284  133.9350  154.7323 H   0  0  0  0  0  0  0  0  0  0  0  0
  146.6455  135.7112  155.1938 H   0  0  0  0  0  0  0  0  0  0  0  0
  148.3735  134.1958  156.2306 H   0  0  0  0  0  0  0  0  0  0  0  0
  148.7362  133.5335  154.6768 H   0  0  0  0  0  0  0  0  0  0  0  0
  149.1428  136.0514  154.0394 H   0  0  0  0  0  0  0  0  0  0  0  0
  152.1894  136.9826  155.6624 H   0  0  0  0  0  0  0  0  0  0  0  0
  151.4065  136.9645  154.1209 H   0  0  0  0  0  0  0  0  0  0  0  0
  149.0097  137.9278  154.2101 H   0  0  0  0  0  0  0  0  0  0  0  0
  147.8587  140.1050  154.5371 H   0  0  0  0  0  0  0  0  0  0  0  0
  148.9431  141.8044  156.0742 H   0  0  0  0  0  0  0  0  0  0  0  0
  151.0401  141.2993  157.1588 H   0  0  0  0  0  0  0  0  0  0  0  0
  147.9448  133.6448  152.0344 H   0  0  0  0  0  0  0  0  0  0  0  0
  146.6091  132.9186  152.9260 H   0  0  0  0  0  0  0  0  0  0  0  0
  146.4103  133.7532  150.2380 H   0  0  0  0  0  0  0  0  0  0  0  0
  145.0630  133.4548  151.3321 H   0  0  0  0  0  0  0  0  0  0  0  0
  146.3803  136.1010  150.7038 H   0  0  0  0  0  0  0  0  0  0  0  0
  144.6535  135.7588  150.8413 H   0  0  0  0  0  0  0  0  0  0  0  0
  144.8249  135.5214  153.2498 H   0  0  0  0  0  0  0  0  0  0  0  0
  145.8841  136.9008  152.9280 H   0  0  0  0  0  0  0  0  0  0  0  0
  147.7064  135.5578  152.9858 H   0  0  0  0  0  0  0  0  0  0  0  0
  1  2  1  0  0  0  0
  1 21  1  0  0  0  0
  1 22  1  0  0  0  0
  1 23  1  0  0  0  0
  2  3  1  0  0  0  0
  2 24  1  0  0  0  0
  2 25  1  0  0  0  0
  3  4  1  0  0  0  0
  3 16  1  0  0  0  0
  3 26  1  0  0  0  0
  4  5  1  0  0  0  0
  4 27  1  0  0  0  0
  4 28  1  0  0  0  0
  5  6  1  0  0  0  0
  5 29  1  0  0  0  0
  6  7  2  0  0  0  0
  6  8  1  0  0  0  0
  8  9  1  0  0  0  0
  8 30  1  0  0  0  0
  8 31  1  0  0  0  0
  9 14  1  0  0  0  0
  9 10  1  0  0  0  0
 10 11  2  0  0  0  0
 10 32  1  0  0  0  0
 11 12  1  0  0  0  0
 11 33  1  0  0  0  0
 12 13  2  0  0  0  0
 12 34  1  0  0  0  0
 13 14  1  0  0  0  0
 13 35  1  0  0  0  0
 14 15  2  0  0  0  0
 16 20  1  0  0  0  0
 16 17  1  0  0  0  0
 16 44  1  0  0  0  0
 17 18  1  0  0  0  0
 17 36  1  0  0  0  0
 17 37  1  0  0  0  0
 18 19  1  0  0  0  0
 18 38  1  0  0  0  0
 18 39  1  0  0  0  0
 19 20  1  0  0  0  0
 19 40  1  0  0  0  0
 19 41  1  0  0  0  0
 20 42  1  0  0  0  0
 20 43  1  0  0  0  0
M  CHG  1  16   1
M  END
> <s_m_source_file>
AV-unprocessed.smi

> <i_m_source_file_index>
1110

> <i_lp_mmshare_version>
43012

> <i_f3d_flags>
0

> <s_epik_input>
W0NIMl0xW0NIMl1bQ0gyXVtDSDJdTjFbQ0BIXShbQ0gyXVtDSDNdKVtDSDJdW05IXUMoPU8pW0NIMl1uMltjSF1bY0hdW2NIXVtjSF1jMj1P

> <s_epik_cmdline>
J2VwaWtfcHl0aG9uJywgJy1waCcsICc3LjAnLCAnLXRuJywgJzgnLCAnLW1hJywgJzIwMCcsICctbWV0YWxfYmluZGluZycsICctaW1hZScsICc8aW5maWxlLm1hZT4nLCAnLW9tYWUnLCAnPG91dGZpbGUubWFlPic=

> <r_lp_tautomer_probability>
1

> <r_epik_Ionization_Penalty>
0.00361135

> <r_epik_Ionization_Penalty_Charging>
0.00361127

> <r_epik_Ionization_Penalty_Neutral>
7.8489e-08

> <r_epik_State_Penalty>
0.00256751

> <r_epik_Charging_Adjusted_Penalty>
0.00617878

> <i_epik_Tot_Q>
1

> <i_epik_Tot_abs_Q>
1

> <r_epik_Metal_State_Penalty>
-0

> <b_epik_Metal_Only>
0

> <s_lp_Force_Field>
OPLS_2005

> <r_lp_Energy>
49.2182

> <b_lp_Chiralities_Consistent>
1

> <s_lp_Variant>
AV-unprocessed.smi:1110-2

> <Gold.Version>
5.8.1

> <Gold.Id.Protein>
6NUR|6NUR_protein|mol2

> <Gold.PLP.Fitness>
47.3602

> <Gold.PLP.PLP>
-33.6923

> <Gold.PLP.part.hbond>
-2.9784

> <Gold.PLP.part.metal>
0.0000

> <Gold.PLP.part.buried>
-1.2673

> <Gold.PLP.part.nonpolar>
-29.3876

> <Gold.PLP.part.repulsive>
0.0532

> <Gold.PLP.ligand.clash>
0.0000

> <Gold.PLP.ligand.torsion>
0.7436

> <Gold.PLP.Chemscore.Hbond>
4.0000

> <Gold.PLP.Chemscore.CHOScore>
0.9973

> <Gold.PLP.Chemscore.Metal>
0.0000

> <Gold.Chemscore.Hbonds>
donor molecule, donor type, donor heavy atom, donor atom, acceptor molecule, acceptor atom, score
      L1  H     5    29       P1  7948  0.65
      L1  H    16    44       P1  7948  2.00
      P1  H  7997  8008       L1    15  0.16
      L1  C    10    32       P1  7948  0.13

> <Gold.PLP.Chemscore.Internal.Correction>
0.1632

> <Gold.Rescore>
     Score         DG    S(hbond)    S(metal)    S(lipo)     H(rot)  DE(clash)    DE(int)     intcor
     16.76     -17.30       2.96        0.00      59.97       1.99       0.00       0.54       ----

> <Gold.Chemscore.Fitness>
16.7602

> <Gold.Chemscore.DG>
-17.3023

> <Gold.Chemscore.ZeroCoef>
-5.4800

> <Gold.Chemscore.Hbond>
2.9635

> <Gold.Chemscore.Metal>
0.0000

> <Gold.Chemscore.Lipo>
59.9736

> <Gold.Chemscore.Internal_Hbond>
0.0000

> <Gold.Chemscore.DEClash>
0.0015

> <Gold.Chemscore.DEInternal>
0.5407

> <Gold.Chemscore.Rot>
1.9893

> <Gold.Chemscore.Internal.Correction>
   9.000000E+99

> <Gold.Chemscore.Hbonds>
donor molecule, donor type, donor heavy atom, donor atom, acceptor molecule, acceptor atom, score
      L1  H     5    29       P1  7948  0.58
      L1  H    16    44       P1  7948  0.98
      P1  H  7997  8008       L1    15  0.17

> <Gold.Chemscore.Hbond.Weighted>
-9.8981

> <Gold.Chemscore.Metal.Weighted>
-0.0000

> <Gold.Chemscore.Lipo.Weighted>
-7.0169

> <Gold.Chemscore.Internal_Hbond.Weighted>
0.0000

> <Gold.Chemscore.DEClash.Weighted>
0.0015

> <Gold.Chemscore.DEInternal.Weighted>
0.5407

> <Gold.Chemscore.Rot.Weighted>
5.0927

> <Gold.Chemscore.Internal.Correction.Weighted>
   9.000000E+99

> <Gold.Protein.RotatedTorsions>
[ 6907 6896 6895 6894 ] final   58.78 input  -60.11 | X-H torsion
[ 7974 7965 7964 7962 ] final  147.06 input  175.53 | X-H torsion
[ 8008 7997 7996 7995 ] final  -35.56 input   59.86 | X-H torsion
[ 10167 10162 10161 10158 ] final -115.19 input  -65.29 | X-H torsion
[ 10718 10713 10712 10709 ] final    4.03 input   66.30 | X-H torsion
[ 10763 10752 10751 10750 ] final  173.29 input  -60.55 | X-H torsion
[ 11005 11000 10999 10996 ] final   62.49 input  -57.11 | X-H torsion

> <Gold.Protein.ActiveResidues>
 VAL166  LYS551  ARG553  GLY616  TRP617  ASP618  TYR619  PRO620  LYS621  CYS622 
 ASP623  PHE694  ASN695  SER759  ASP760  ASP761  ALA762  ILE779  LEU786  VAL792 
 PHE793  MET794  SER795  GLU796  ALA797  LYS798  CYS799  TRP800  GLU811  SER814 

> <Gold.Protein.RotatedAtoms>
  152.3855  134.6524  160.0126 H   0  0  0  0  0  0  0  0  0  0  0  0  # atno 6907 bound_to 6896
  151.6774  133.3307  159.3219 H   0  0  0  0  0  0  0  0  0  0  0  0  # atno 6908 bound_to 6896
  150.7782  134.6747  159.6455 H   0  0  0  0  0  0  0  0  0  0  0  0  # atno 6909 bound_to 6896
  144.8621  139.5982  143.5926 H   0  0  0  0  0  0  0  0  0  0  0  0  # atno 7974 bound_to 7965
  154.4092  140.1654  156.2232 H   0  0  0  0  0  0  0  0  0  0  0  0  # atno 8008 bound_to 7997
  155.9346  140.3412  155.6254 H   0  0  0  0  0  0  0  0  0  0  0  0  # atno 8009 bound_to 7997
  155.7064  140.0751  157.2380 H   0  0  0  0  0  0  0  0  0  0  0  0  # atno 8010 bound_to 7997
  140.0928  143.4684  152.1859 H   0  0  0  0  0  0  0  0  0  0  0  0  # atno 10167 bound_to 10162
  156.8866  130.5672  149.5651 H   0  0  0  0  0  0  0  0  0  0  0  0  # atno 10718 bound_to 10713
  154.4380  135.2761  155.1867 H   0  0  0  0  0  0  0  0  0  0  0  0  # atno 10763 bound_to 10752
  154.3746  135.6101  153.5761 H   0  0  0  0  0  0  0  0  0  0  0  0  # atno 10764 bound_to 10752
  152.9839  135.5865  154.4702 H   0  0  0  0  0  0  0  0  0  0  0  0  # atno 10765 bound_to 10752
  140.0089  134.6327  155.9812 H   0  0  0  0  0  0  0  0  0  0  0  0  # atno 11005 bound_to 11000
  146.2868  139.7027  142.9189 LP  0  0  0  0  0  0  0  0  0  0  0  0  # atno 17320 bound_to 7965
  145.4292  141.0413  143.2920 LP  0  0  0  0  0  0  0  0  0  0  0  0  # atno 17321 bound_to 7965
  139.5715  144.7465  151.3879 LP  0  0  0  0  0  0  0  0  0  0  0  0  # atno 17342 bound_to 10162
  140.7019  143.7610  150.7417 LP  0  0  0  0  0  0  0  0  0  0  0  0  # atno 17343 bound_to 10162
  156.0650  130.5695  150.9270 LP  0  0  0  0  0  0  0  0  0  0  0  0  # atno 17370 bound_to 10713
  157.6109  131.0936  150.8797 LP  0  0  0  0  0  0  0  0  0  0  0  0  # atno 17371 bound_to 10713
  141.1696  133.6537  156.4605 LP  0  0  0  0  0  0  0  0  0  0  0  0  # atno 17394 bound_to 11000
  140.4591  134.6858  157.5077 LP  0  0  0  0  0  0  0  0  0  0  0  0  # atno 17395 bound_to 11000

$$$$
