AV-unprocessed.smi:2110|AV-procd|sdf|8611|dock1
  -GOLD-   2272011353D 1   1.00000     0.00000
 Structure written by MMmdl.
 46 47  0  0  0  0  0  0  0  0  3 V2000
  151.6752  139.1150  155.0290 C   0  0  0  0  0  0  0  0  0  0  0  0
  150.7478  137.8966  154.9049 C   0  0  0  0  0  0  0  0  0  0  0  0
  149.9039  137.7004  156.1006 N   0  0  0  0  0  0  0  0  0  0  0  0
  148.8083  138.6668  156.3213 C   0  0  0  0  0  0  0  0  0  0  0  0
  148.7314  139.7489  155.2324 C   0  0  0  0  0  0  0  0  0  0  0  0
  150.0330  136.2453  157.0585 S   0  0  0  0  0  0  0  0  0  0  0  0
  151.3721  135.7076  156.7724 O   0  0  0  0  0  0  0  0  0  0  0  0
  149.7396  136.6355  158.4490 O   0  0  0  0  0  0  0  0  0  0  0  0
  148.8662  135.3753  156.3263 N   0  5  0  0  0  0  0  0  0  0  0  0
  148.1485  135.8780  155.1659 C   0  0  0  0  0  0  0  0  0  0  0  0
  146.8711  135.0874  154.9272 C   0  0  0  0  0  0  0  0  0  0  0  0
  145.9037  134.9603  155.9498 C   0  0  0  0  0  0  0  0  0  0  0  0
  144.7374  134.2150  155.6976 C   0  0  0  0  0  0  0  0  0  0  0  0
  144.5572  133.6337  154.4931 N   0  3  0  0  0  0  0  0  0  0  0  0
  145.4470  133.7120  153.4729 C   0  0  0  0  0  0  0  0  0  0  0  0
  145.1309  133.0544  152.2613 N   0  0  0  0  0  0  0  0  0  0  0  0
  143.8511  133.3572  151.6245 C   0  0  0  0  0  0  0  0  0  0  0  0
  143.5434  132.3447  150.5080 C   0  0  0  0  0  0  0  0  0  0  0  0
  144.6293  132.2923  149.5907 O   0  0  0  0  0  0  0  0  0  0  0  0
  145.8251  131.8488  150.2205 C   0  0  0  0  0  0  0  0  0  0  0  0
  146.2319  132.8427  151.3209 C   0  0  0  0  0  0  0  0  0  0  0  0
  146.6371  134.4559  153.6814 C   0  0  0  0  0  0  0  0  0  0  0  0
  152.3329  139.1848  154.1627 H   0  0  0  0  0  0  0  0  0  0  0  0
  152.3039  139.0581  155.9170 H   0  0  0  0  0  0  0  0  0  0  0  0
  151.1074  140.0440  155.0797 H   0  0  0  0  0  0  0  0  0  0  0  0
  150.1031  138.0150  154.0341 H   0  0  0  0  0  0  0  0  0  0  0  0
  151.3361  136.9979  154.7181 H   0  0  0  0  0  0  0  0  0  0  0  0
  147.8577  138.1367  156.3701 H   0  0  0  0  0  0  0  0  0  0  0  0
  148.9453  139.1343  157.2966 H   0  0  0  0  0  0  0  0  0  0  0  0
  147.8627  140.3877  155.3901 H   0  0  0  0  0  0  0  0  0  0  0  0
  148.6412  139.3116  154.2396 H   0  0  0  0  0  0  0  0  0  0  0  0
  149.6107  140.3926  155.2374 H   0  0  0  0  0  0  0  0  0  0  0  0
  147.8843  136.9300  155.2782 H   0  0  0  0  0  0  0  0  0  0  0  0
  148.7535  135.8229  154.2604 H   0  0  0  0  0  0  0  0  0  0  0  0
  146.0415  135.4175  156.9206 H   0  0  0  0  0  0  0  0  0  0  0  0
  143.9482  134.0656  156.4198 H   0  0  0  0  0  0  0  0  0  0  0  0
  143.0419  133.3172  152.3537 H   0  0  0  0  0  0  0  0  0  0  0  0
  143.8824  134.3693  151.2189 H   0  0  0  0  0  0  0  0  0  0  0  0
  143.3555  131.3530  150.9229 H   0  0  0  0  0  0  0  0  0  0  0  0
  142.6411  132.6405  149.9731 H   0  0  0  0  0  0  0  0  0  0  0  0
  145.6838  130.8481  150.6322 H   0  0  0  0  0  0  0  0  0  0  0  0
  146.6136  131.7753  149.4718 H   0  0  0  0  0  0  0  0  0  0  0  0
  146.5042  133.8016  150.8778 H   0  0  0  0  0  0  0  0  0  0  0  0
  147.1196  132.4567  151.8216 H   0  0  0  0  0  0  0  0  0  0  0  0
  147.3800  134.5353  152.9011 H   0  0  0  0  0  0  0  0  0  0  0  0
  143.7002  133.1017  154.3431 H   0  0  0  0  0  0  0  0  0  0  0  0
  1  2  1  0  0  0  0
  1 23  1  0  0  0  0
  1 24  1  0  0  0  0
  1 25  1  0  0  0  0
  2  3  1  0  0  0  0
  2 26  1  0  0  0  0
  2 27  1  0  0  0  0
  3  4  1  0  0  0  0
  3  6  1  0  0  0  0
  4  5  1  0  0  0  0
  4 28  1  0  0  0  0
  4 29  1  0  0  0  0
  5 30  1  0  0  0  0
  5 31  1  0  0  0  0
  5 32  1  0  0  0  0
  6  7  2  0  0  0  0
  6  8  2  0  0  0  0
  6  9  1  0  0  0  0
  9 10  1  0  0  0  0
 10 11  1  0  0  0  0
 10 33  1  0  0  0  0
 10 34  1  0  0  0  0
 11 22  1  0  0  0  0
 11 12  2  0  0  0  0
 12 13  1  0  0  0  0
 12 35  1  0  0  0  0
 13 14  2  0  0  0  0
 13 36  1  0  0  0  0
 14 15  1  0  0  0  0
 14 46  1  0  0  0  0
 15 16  1  0  0  0  0
 15 22  2  0  0  0  0
 16 21  1  0  0  0  0
 16 17  1  0  0  0  0
 17 18  1  0  0  0  0
 17 37  1  0  0  0  0
 17 38  1  0  0  0  0
 18 19  1  0  0  0  0
 18 39  1  0  0  0  0
 18 40  1  0  0  0  0
 19 20  1  0  0  0  0
 20 21  1  0  0  0  0
 20 41  1  0  0  0  0
 20 42  1  0  0  0  0
 21 43  1  0  0  0  0
 21 44  1  0  0  0  0
 22 45  1  0  0  0  0
M  CHG  1   9  -1
M  CHG  1  14   1
M  END
> <s_m_source_file>
AV-unprocessed.smi

> <i_m_source_file_index>
2110

> <i_lp_mmshare_version>
43012

> <i_f3d_flags>
0

> <s_epik_input>
W0NIM11bQ0gyXU4oW0NIMl1bQ0gzXSlTKD1PKSg9TylbTkhdW0NIMl1jMVtjSF1bY0hdbmMoW2NIXTEpTjJbQ0gyXVtDSDJdT1tDSDJdW0NIMl0y

> <s_epik_cmdline>
J2VwaWtfcHl0aG9uJywgJy1waCcsICc3LjAnLCAnLXRuJywgJzgnLCAnLW1hJywgJzIwMCcsICctbWV0YWxfYmluZGluZycsICctaW1hZScsICc8aW5maWxlLm1hZT4nLCAnLW9tYWUnLCAnPG91dGZpbGUubWFlPic=

> <r_lp_tautomer_probability>
0.999994

> <r_epik_Ionization_Penalty>
2.03784

> <r_epik_Ionization_Penalty_Charging>
2.03784

> <r_epik_Ionization_Penalty_Neutral>
4.07977e-08

> <r_epik_State_Penalty>
3.04665

> <r_epik_Charging_Adjusted_Penalty>
5.08449

> <i_epik_Tot_Q>
0

> <i_epik_Tot_abs_Q>
2

> <r_epik_Metal_State_Penalty>
1.92951

> <b_epik_Metal_Only>
1

> <s_lp_Force_Field>
OPLS_2005

> <r_lp_Energy>
13.8127

> <b_lp_Chiralities_Consistent>
1

> <s_lp_Variant>
AV-unprocessed.smi:2110-4

> <Gold.Version>
5.8.1

> <Gold.Id.Protein>
6NUR|6NUR_protein|mol2

> <Gold.PLP.Fitness>
39.5175

> <Gold.PLP.PLP>
-28.5883

> <Gold.PLP.part.hbond>
-3.0000

> <Gold.PLP.part.metal>
0.0000

> <Gold.PLP.part.buried>
-5.2671

> <Gold.PLP.part.nonpolar>
-21.5563

> <Gold.PLP.part.repulsive>
0.2927

> <Gold.PLP.ligand.clash>
0.0000

> <Gold.PLP.ligand.torsion>
2.2050

> <Gold.PLP.Chemscore.Hbond>
3.8480

> <Gold.PLP.Chemscore.CHOScore>
0.0000

> <Gold.PLP.Chemscore.Metal>
0.0000

> <Gold.Chemscore.Hbonds>
donor molecule, donor type, donor heavy atom, donor atom, acceptor molecule, acceptor atom, score
      L1  H    14    46       P1 10957  1.95

> <Gold.PLP.Chemscore.Internal.Correction>
3.7951

> <Gold.Rescore>
     Score         DG    S(hbond)    S(metal)    S(lipo)     H(rot)  DE(clash)    DE(int)     intcor
     15.55     -17.98       2.80        0.00      64.42       1.72       0.01       2.42       ----

> <Gold.Chemscore.Fitness>
15.5493

> <Gold.Chemscore.DG>
-17.9752

> <Gold.Chemscore.ZeroCoef>
-5.4800

> <Gold.Chemscore.Hbond>
2.7996

> <Gold.Chemscore.Metal>
0.0000

> <Gold.Chemscore.Lipo>
64.4195

> <Gold.Chemscore.Internal_Hbond>
0.0000

> <Gold.Chemscore.DEClash>
0.0059

> <Gold.Chemscore.DEInternal>
2.4200

> <Gold.Chemscore.Rot>
1.7159

> <Gold.Chemscore.Internal.Correction>
   9.000000E+99

> <Gold.Chemscore.Hbonds>
donor molecule, donor type, donor heavy atom, donor atom, acceptor molecule, acceptor atom, score
      L1  H    14    46       P1 10957  0.93
      P1  H  6896  6909       L1     8  0.02
      P1  H 10752 10764       L1     7  0.02

> <Gold.Chemscore.Hbond.Weighted>
-9.3507

> <Gold.Chemscore.Metal.Weighted>
-0.0000

> <Gold.Chemscore.Lipo.Weighted>
-7.5371

> <Gold.Chemscore.Internal_Hbond.Weighted>
0.0000

> <Gold.Chemscore.DEClash.Weighted>
0.0059

> <Gold.Chemscore.DEInternal.Weighted>
2.4200

> <Gold.Chemscore.Rot.Weighted>
4.3926

> <Gold.Chemscore.Internal.Correction.Weighted>
   9.000000E+99

> <Gold.Protein.RotatedTorsions>
[ 6907 6896 6895 6894 ] final   66.95 input  -60.11 | X-H torsion
[ 7974 7965 7964 7962 ] final   65.55 input  175.53 | X-H torsion
[ 8008 7997 7996 7995 ] final   53.58 input   59.86 | X-H torsion
[ 10167 10162 10161 10158 ] final -169.07 input  -65.29 | X-H torsion
[ 10718 10713 10712 10709 ] final   65.98 input   66.30 | X-H torsion
[ 10763 10752 10751 10750 ] final  -18.04 input  -60.55 | X-H torsion
[ 11005 11000 10999 10996 ] final -131.98 input  -57.11 | X-H torsion

> <Gold.Protein.ActiveResidues>
 VAL166  LYS551  ARG553  GLY616  TRP617  ASP618  TYR619  PRO620  LYS621  CYS622 
 ASP623  PHE694  ASN695  SER759  ASP760  ASP761  ALA762  ILE779  LEU786  VAL792 
 PHE793  MET794  SER795  GLU796  ALA797  LYS798  CYS799  TRP800  GLU811  SER814 

> <Gold.Protein.RotatedAtoms>
  152.4518  134.5378  159.9829 H   0  0  0  0  0  0  0  0  0  0  0  0  # atno 6907 bound_to 6896
  151.5449  133.3421  159.2950 H   0  0  0  0  0  0  0  0  0  0  0  0  # atno 6908 bound_to 6896
  150.8449  134.7786  159.7025 H   0  0  0  0  0  0  0  0  0  0  0  0  # atno 6909 bound_to 6896
  145.8371  139.3173  143.0953 H   0  0  0  0  0  0  0  0  0  0  0  0  # atno 7974 bound_to 7965
  155.4706  140.3465  155.4325 H   0  0  0  0  0  0  0  0  0  0  0  0  # atno 8008 bound_to 7997
  156.1103  140.1459  156.9376 H   0  0  0  0  0  0  0  0  0  0  0  0  # atno 8009 bound_to 7997
  154.4752  140.0887  156.7222 H   0  0  0  0  0  0  0  0  0  0  0  0  # atno 8010 bound_to 7997
  139.5946  144.1140  152.1674 H   0  0  0  0  0  0  0  0  0  0  0  0  # atno 10167 bound_to 10162
  157.6140  130.9243  150.0048 H   0  0  0  0  0  0  0  0  0  0  0  0  # atno 10718 bound_to 10713
  153.5832  135.7004  153.5454 H   0  0  0  0  0  0  0  0  0  0  0  0  # atno 10763 bound_to 10752
  153.3242  135.4065  155.1442 H   0  0  0  0  0  0  0  0  0  0  0  0  # atno 10764 bound_to 10752
  154.8614  135.3703  154.5361 H   0  0  0  0  0  0  0  0  0  0  0  0  # atno 10765 bound_to 10752
  140.9211  134.1443  157.4313 H   0  0  0  0  0  0  0  0  0  0  0  0  # atno 11005 bound_to 11000
  145.9506  140.8911  143.0261 LP  0  0  0  0  0  0  0  0  0  0  0  0  # atno 17320 bound_to 7965
  144.6736  140.1675  143.7417 LP  0  0  0  0  0  0  0  0  0  0  0  0  # atno 17321 bound_to 7965
  140.0722  144.5770  150.7183 LP  0  0  0  0  0  0  0  0  0  0  0  0  # atno 17342 bound_to 10162
  140.7201  143.2581  151.4306 LP  0  0  0  0  0  0  0  0  0  0  0  0  # atno 17343 bound_to 10162
  156.1255  130.3644  149.9817 LP  0  0  0  0  0  0  0  0  0  0  0  0  # atno 17370 bound_to 10713
  156.7889  130.9249  151.3646 LP  0  0  0  0  0  0  0  0  0  0  0  0  # atno 17371 bound_to 10713
  139.8776  134.9972  156.5832 LP  0  0  0  0  0  0  0  0  0  0  0  0  # atno 17394 bound_to 11000
  140.7986  133.8523  155.8707 LP  0  0  0  0  0  0  0  0  0  0  0  0  # atno 17395 bound_to 11000

$$$$
