AV-unprocessed.smi:2750|AV-procd|sdf|10590|dock1
  -GOLD-   2272015 43D 1   1.00000     0.00000
 Structure written by MMmdl.
 25 26  0  0  0  0  0  0  0  0  2 V2000
  143.5102  145.7351  156.3449 O   0  0  0  0  0  0  0  0  0  0  0  0
  143.6774  146.1993  155.1957 C   0  0  0  0  0  0  0  0  0  0  0  0
  143.7669  147.4147  154.9117 O   0  5  0  0  0  0  0  0  0  0  0  0
  143.8069  145.1876  154.0527 C   0  0  0  0  0  0  0  0  0  0  0  0
  144.7629  144.1287  154.3303 N   0  0  0  0  0  0  0  0  0  0  0  0
  145.7112  143.5831  153.4894 C   0  0  0  0  0  0  0  0  0  0  0  0
  146.3201  142.6393  154.2663 C   0  0  0  0  0  0  0  0  0  0  0  0
  147.4447  141.7102  153.9169 C   0  0  0  0  0  0  0  0  0  0  0  0
  147.0351  140.2238  153.9610 C   0  0  1  0  0  0  0  0  0  0  0  0
  146.3081  139.7941  152.7780 N   0  0  0  0  0  0  0  0  0  0  0  0
  146.9256  138.7960  152.1317 C   0  0  0  0  0  0  0  0  0  0  0  0
  146.5310  138.2463  151.1062 O   0  0  0  0  0  0  0  0  0  0  0  0
  148.0480  138.5050  152.7984 N   0  0  0  0  0  0  0  0  0  0  0  0
  148.2196  139.2791  153.8686 C   0  0  0  0  0  0  0  0  0  0  0  0
  149.1623  139.2534  154.6575 O   0  0  0  0  0  0  0  0  0  0  0  0
  145.7286  142.6509  155.5297 N   0  0  0  0  0  0  0  0  0  0  0  0
  144.7922  143.5470  155.5538 N   0  0  0  0  0  0  0  0  0  0  0  0
  142.8317  144.7358  153.8692 H   0  0  0  0  0  0  0  0  0  0  0  0
  144.0985  145.6971  153.1326 H   0  0  0  0  0  0  0  0  0  0  0  0
  145.8551  143.8977  152.4665 H   0  0  0  0  0  0  0  0  0  0  0  0
  147.8316  141.9594  152.9273 H   0  0  0  0  0  0  0  0  0  0  0  0
  148.2750  141.8726  154.6054 H   0  0  0  0  0  0  0  0  0  0  0  0
  146.4496  140.0027  154.8544 H   0  0  0  0  0  0  0  0  0  0  0  0
  145.4411  140.2196  152.4828 H   0  0  0  0  0  0  0  0  0  0  0  0
  148.6988  137.7874  152.5141 H   0  0  0  0  0  0  0  0  0  0  0  0
  1  2  2  0  0  0  0
  2  3  1  0  0  0  0
  2  4  1  0  0  0  0
  4  5  1  0  0  0  0
  4 18  1  0  0  0  0
  4 19  1  0  0  0  0
  5 17  1  0  0  0  0
  5  6  1  0  0  0  0
  6  7  2  0  0  0  0
  6 20  1  0  0  0  0
  7  8  1  0  0  0  0
  7 16  1  0  0  0  0
  8  9  1  0  0  0  0
  8 21  1  0  0  0  0
  8 22  1  0  0  0  0
  9 14  1  0  0  0  0
  9 10  1  0  0  0  0
  9 23  1  0  0  0  0
 10 11  1  0  0  0  0
 10 24  1  0  0  0  0
 11 12  2  0  0  0  0
 11 13  1  0  0  0  0
 13 14  1  0  0  0  0
 13 25  1  0  0  0  0
 14 15  2  0  0  0  0
 16 17  2  0  0  0  0
M  CHG  1   3  -1
M  END
> <s_m_source_file>
AV-unprocessed.smi

> <i_m_source_file_index>
2750

> <i_lp_mmshare_version>
43012

> <i_f3d_flags>
0

> <s_epik_input>
Tz1DKFtPSF0pW0NIMl1uMVtjSF1jKG5uMSlbQ0gyXVtDQEBIXTJbTkhdQyg9TylbTkhdQzI9Tw==

> <s_epik_cmdline>
J2VwaWtfcHl0aG9uJywgJy1waCcsICc3LjAnLCAnLXRuJywgJzgnLCAnLW1hJywgJzIwMCcsICctbWV0YWxfYmluZGluZycsICctaW1hZScsICc8aW5maWxlLm1hZT4nLCAnLW9tYWUnLCAnPG91dGZpbGUubWFlPic=

> <r_lp_tautomer_probability>
1

> <r_epik_Ionization_Penalty>
0.019671

> <r_epik_Ionization_Penalty_Charging>
2.66176e-05

> <r_epik_Ionization_Penalty_Neutral>
0.0196444

> <r_epik_State_Penalty>
0.0155882

> <r_epik_Charging_Adjusted_Penalty>
0.0156148

> <i_epik_Tot_Q>
-1

> <i_epik_Tot_abs_Q>
1

> <r_epik_Metal_State_Penalty>
0.396229

> <b_epik_Metal_Only>
0

> <s_lp_Force_Field>
OPLS_2005

> <r_lp_Energy>
18.3652

> <b_lp_Chiralities_Consistent>
1

> <s_lp_Variant>
AV-unprocessed.smi:2750-2

> <Gold.Version>
5.8.1

> <Gold.Id.Protein>
6NUR|6NUR_protein|mol2

> <Gold.PLP.Fitness>
39.4818

> <Gold.PLP.PLP>
-31.4107

> <Gold.PLP.part.hbond>
-4.5280

> <Gold.PLP.part.metal>
0.0000

> <Gold.PLP.part.buried>
-5.8787

> <Gold.PLP.part.nonpolar>
-23.6204

> <Gold.PLP.part.repulsive>
2.0825

> <Gold.PLP.ligand.clash>
0.0000

> <Gold.PLP.ligand.torsion>
0.4645

> <Gold.PLP.Chemscore.Hbond>
2.9920

> <Gold.PLP.Chemscore.CHOScore>
0.0000

> <Gold.PLP.Chemscore.Metal>
0.0000

> <Gold.Chemscore.Hbonds>
donor molecule, donor type, donor heavy atom, donor atom, acceptor molecule, acceptor atom, score
      L1  H    10    24       P1 10175  1.00
      L1  H    13    25       P1  7948  0.99
      P1  H  7954  7966       L1    12  0.91

> <Gold.PLP.Chemscore.Internal.Correction>
0.0241

> <Gold.Rescore>
     Score         DG    S(hbond)    S(metal)    S(lipo)     H(rot)  DE(clash)    DE(int)     intcor
      6.85     -10.68       2.56        0.00      33.45       2.84       1.90       1.93       ----

> <Gold.Chemscore.Fitness>
6.8493

> <Gold.Chemscore.DG>
-10.6838

> <Gold.Chemscore.ZeroCoef>
-5.4800

> <Gold.Chemscore.Hbond>
2.5594

> <Gold.Chemscore.Metal>
0.0000

> <Gold.Chemscore.Lipo>
33.4533

> <Gold.Chemscore.Internal_Hbond>
0.0000

> <Gold.Chemscore.DEClash>
1.9036

> <Gold.Chemscore.DEInternal>
1.9310

> <Gold.Chemscore.Rot>
2.8354

> <Gold.Chemscore.Internal.Correction>
   9.000000E+99

> <Gold.Chemscore.Hbonds>
donor molecule, donor type, donor heavy atom, donor atom, acceptor molecule, acceptor atom, score
      L1  H    10    24       P1 10175  0.81
      L1  H    13    25       P1  7948  0.94
      P1  H  7954  7966       L1    12  0.60

> <Gold.Chemscore.Hbond.Weighted>
-8.5484

> <Gold.Chemscore.Metal.Weighted>
-0.0000

> <Gold.Chemscore.Lipo.Weighted>
-3.9140

> <Gold.Chemscore.Internal_Hbond.Weighted>
0.0000

> <Gold.Chemscore.DEClash.Weighted>
1.9036

> <Gold.Chemscore.DEInternal.Weighted>
1.9310

> <Gold.Chemscore.Rot.Weighted>
7.2586

> <Gold.Chemscore.Internal.Correction.Weighted>
   9.000000E+99

> <Gold.Protein.RotatedTorsions>
[ 6907 6896 6895 6894 ] final   34.79 input  -60.11 | X-H torsion
[ 7974 7965 7964 7962 ] final -139.23 input  175.53 | X-H torsion
[ 8008 7997 7996 7995 ] final  -83.21 input   59.86 | X-H torsion
[ 10167 10162 10161 10158 ] final   -6.39 input  -65.29 | X-H torsion
[ 10718 10713 10712 10709 ] final  -32.14 input   66.30 | X-H torsion
[ 10763 10752 10751 10750 ] final   52.66 input  -60.55 | X-H torsion
[ 11005 11000 10999 10996 ] final   52.41 input  -57.11 | X-H torsion

> <Gold.Protein.ActiveResidues>
 VAL166  LYS551  ARG553  GLY616  TRP617  ASP618  TYR619  PRO620  LYS621  CYS622 
 ASP623  PHE694  ASN695  SER759  ASP760  ASP761  ALA762  ILE779  LEU786  VAL792 
 PHE793  MET794  SER795  GLU796  ALA797  LYS798  CYS799  TRP800  GLU811  SER814 

> <Gold.Protein.RotatedAtoms>
  152.1072  134.9300  160.0567 H   0  0  0  0  0  0  0  0  0  0  0  0  # atno 6907 bound_to 6896
  152.0492  133.4006  159.4378 H   0  0  0  0  0  0  0  0  0  0  0  0  # atno 6908 bound_to 6896
  150.6842  134.3248  159.4845 H   0  0  0  0  0  0  0  0  0  0  0  0  # atno 6909 bound_to 6896
  144.8694  140.6343  143.5277 H   0  0  0  0  0  0  0  0  0  0  0  0  # atno 7974 bound_to 7965
  154.6167  140.0622  156.9563 H   0  0  0  0  0  0  0  0  0  0  0  0  # atno 8008 bound_to 7997
  155.1884  140.3305  155.4344 H   0  0  0  0  0  0  0  0  0  0  0  0  # atno 8009 bound_to 7997
  156.2408  140.1885  156.6975 H   0  0  0  0  0  0  0  0  0  0  0  0  # atno 8010 bound_to 7997
  140.6995  143.6200  150.8622 H   0  0  0  0  0  0  0  0  0  0  0  0  # atno 10167 bound_to 10162
  156.3786  130.4352  149.7487 H   0  0  0  0  0  0  0  0  0  0  0  0  # atno 10718 bound_to 10713
  152.9790  135.5805  154.4615 H   0  0  0  0  0  0  0  0  0  0  0  0  # atno 10763 bound_to 10752
  154.4190  135.2771  155.1990 H   0  0  0  0  0  0  0  0  0  0  0  0  # atno 10764 bound_to 10752
  154.3747  135.6160  153.5812 H   0  0  0  0  0  0  0  0  0  0  0  0  # atno 10765 bound_to 10752
  140.0851  134.5285  155.8907 H   0  0  0  0  0  0  0  0  0  0  0  0  # atno 11005 bound_to 11000
  145.4159  139.1572  143.4100 LP  0  0  0  0  0  0  0  0  0  0  0  0  # atno 17320 bound_to 7965
  146.2919  140.4266  142.8736 LP  0  0  0  0  0  0  0  0  0  0  0  0  # atno 17321 bound_to 7965
  139.9921  143.5836  152.2906 LP  0  0  0  0  0  0  0  0  0  0  0  0  # atno 17342 bound_to 10162
  139.6495  144.7660  151.2177 LP  0  0  0  0  0  0  0  0  0  0  0  0  # atno 17343 bound_to 10162
  156.4587  130.7941  151.2962 LP  0  0  0  0  0  0  0  0  0  0  0  0  # atno 17370 bound_to 10713
  157.7490  131.0073  150.3183 LP  0  0  0  0  0  0  0  0  0  0  0  0  # atno 17371 bound_to 10713
  141.2060  133.6651  156.6214 LP  0  0  0  0  0  0  0  0  0  0  0  0  # atno 17394 bound_to 11000
  140.3431  134.7832  157.4413 LP  0  0  0  0  0  0  0  0  0  0  0  0  # atno 17395 bound_to 11000

$$$$
