AV-unprocessed.smi:3282|AV-procd|sdf|12561|dock8
  -GOLD-   2272018483D 1   1.00000     0.00000
 Structure written by MMmdl.
 34 35  0  0  0  0  0  0  0  0  1 V2000
  152.3838  143.0565  162.5085 C   0  0  0  0  0  0  0  0  0  0  0  0
  153.3431  142.0489  161.8546 C   0  0  0  0  0  0  0  0  0  0  0  0
  152.8149  141.4547  160.5381 C   0  0  0  0  0  0  0  0  0  0  0  0
  152.6951  140.2343  160.4200 O   0  0  0  0  0  0  0  0  0  0  0  0
  152.4963  142.3034  159.5386 N   0  0  0  0  0  0  0  0  0  0  0  0
  152.5933  143.7605  159.5938 C   0  0  0  0  0  0  0  0  0  0  0  0
  151.9337  144.2747  158.3140 C   0  0  0  0  0  0  0  0  0  0  0  0
  152.0222  143.1045  157.3348 C   0  0  2  0  0  0  0  0  0  0  0  0
  150.9155  143.0830  156.3839 N   0  0  0  0  0  0  0  0  0  0  0  0
  150.4931  141.9935  155.7265 C   0  0  0  0  0  0  0  0  0  0  0  0
  151.0093  140.8824  155.8514 O   0  0  0  0  0  0  0  0  0  0  0  0
  149.4507  142.2777  154.9281 N   0  0  0  0  0  0  0  0  0  0  0  0
  148.7288  141.3819  154.0996 C   0  0  0  0  0  0  0  0  0  0  0  0
  147.6681  141.6756  153.3458 N   0  0  0  0  0  0  0  0  0  0  0  0
  147.3346  140.4783  152.7295 C   0  0  0  0  0  0  0  0  0  0  0  0
  148.2207  139.5198  153.1497 C   0  0  0  0  0  0  0  0  0  0  0  0
  149.1143  140.0807  154.0222 O   0  0  0  0  0  0  0  0  0  0  0  0
  152.0091  141.8635  158.2335 C   0  0  0  0  0  0  0  0  0  0  0  0
  152.8038  143.4392  163.4387 H   0  0  0  0  0  0  0  0  0  0  0  0
  151.4238  142.5964  162.7460 H   0  0  0  0  0  0  0  0  0  0  0  0
  152.1974  143.9108  161.8569 H   0  0  0  0  0  0  0  0  0  0  0  0
  154.2978  142.5385  161.6604 H   0  0  0  0  0  0  0  0  0  0  0  0
  153.5372  141.2388  162.5583 H   0  0  0  0  0  0  0  0  0  0  0  0
  152.1061  144.1747  160.4775 H   0  0  0  0  0  0  0  0  0  0  0  0
  153.6456  144.0471  159.6180 H   0  0  0  0  0  0  0  0  0  0  0  0
  150.8893  144.5121  158.5226 H   0  0  0  0  0  0  0  0  0  0  0  0
  152.4074  145.1793  157.9315 H   0  0  0  0  0  0  0  0  0  0  0  0
  152.9776  143.1456  156.8081 H   0  0  0  0  0  0  0  0  0  0  0  0
  150.4354  143.9564  156.2228 H   0  0  0  0  0  0  0  0  0  0  0  0
  149.1330  143.2356  154.9168 H   0  0  0  0  0  0  0  0  0  0  0  0
  146.5019  140.4025  152.0458 H   0  0  0  0  0  0  0  0  0  0  0  0
  148.3443  138.4681  152.9371 H   0  0  0  0  0  0  0  0  0  0  0  0
  152.6268  141.0676  157.8142 H   0  0  0  0  0  0  0  0  0  0  0  0
  150.9973  141.4732  158.3581 H   0  0  0  0  0  0  0  0  0  0  0  0
  1  2  1  0  0  0  0
  1 19  1  0  0  0  0
  1 20  1  0  0  0  0
  1 21  1  0  0  0  0
  2  3  1  0  0  0  0
  2 22  1  0  0  0  0
  2 23  1  0  0  0  0
  3  4  2  0  0  0  0
  3  5  1  0  0  0  0
  5 18  1  0  0  0  0
  5  6  1  0  0  0  0
  6  7  1  0  0  0  0
  6 24  1  0  0  0  0
  6 25  1  0  0  0  0
  7  8  1  0  0  0  0
  7 26  1  0  0  0  0
  7 27  1  0  0  0  0
  8  9  1  0  0  0  0
  8 18  1  0  0  0  0
  8 28  1  0  0  0  0
  9 10  1  0  0  0  0
  9 29  1  0  0  0  0
 10 11  2  0  0  0  0
 10 12  1  0  0  0  0
 12 13  1  0  0  0  0
 12 30  1  0  0  0  0
 13 17  1  0  0  0  0
 13 14  2  0  0  0  0
 14 15  1  0  0  0  0
 15 16  2  0  0  0  0
 15 31  1  0  0  0  0
 16 17  1  0  0  0  0
 16 32  1  0  0  0  0
 18 33  1  0  0  0  0
 18 34  1  0  0  0  0
M  END
> <s_m_source_file>
AV-unprocessed.smi

> <i_m_source_file_index>
3282

> <i_lp_mmshare_version>
43012

> <i_f3d_flags>
0

> <s_epik_input>
W0NIM11bQ0gyXUMoPU8pTjFbQ0gyXVtDSDJdW0NASF0oW0NIMl0xKVtOSF1DKD1PKVtOSF1jMm5bY0hdW2NIXW8y

> <s_epik_cmdline>
J2VwaWtfcHl0aG9uJywgJy1waCcsICc3LjAnLCAnLXRuJywgJzgnLCAnLW1hJywgJzIwMCcsICctbWV0YWxfYmluZGluZycsICctaW1hZScsICc8aW5maWxlLm1hZT4nLCAnLW9tYWUnLCAnPG91dGZpbGUubWFlPic=

> <r_lp_tautomer_probability>
0.785861

> <r_epik_Ionization_Penalty>
4.35681e-05

> <r_epik_Ionization_Penalty_Charging>
0

> <r_epik_Ionization_Penalty_Neutral>
4.35681e-05

> <r_epik_State_Penalty>
0.0212547

> <r_epik_Charging_Adjusted_Penalty>
0.0212547

> <i_epik_Tot_Q>
0

> <i_epik_Tot_abs_Q>
0

> <r_epik_Metal_State_Penalty>
0.00779955

> <b_epik_Metal_Only>
0

> <s_lp_Force_Field>
OPLS_2005

> <r_lp_Energy>
25.4049

> <b_lp_Chiralities_Consistent>
1

> <s_lp_Variant>
AV-unprocessed.smi:3282-2

> <Gold.Version>
5.8.1

> <Gold.Id.Protein>
6NUR|6NUR_protein|mol2

> <Gold.PLP.Fitness>
48.8531

> <Gold.PLP.PLP>
-37.4773

> <Gold.PLP.part.hbond>
-2.0445

> <Gold.PLP.part.metal>
0.0000

> <Gold.PLP.part.buried>
-3.2136

> <Gold.PLP.part.nonpolar>
-32.7420

> <Gold.PLP.part.repulsive>
0.5853

> <Gold.PLP.ligand.clash>
0.0000

> <Gold.PLP.ligand.torsion>
0.3051

> <Gold.PLP.Chemscore.Hbond>
2.0000

> <Gold.PLP.Chemscore.CHOScore>
1.9929

> <Gold.PLP.Chemscore.Metal>
0.0000

> <Gold.Chemscore.Hbonds>
donor molecule, donor type, donor heavy atom, donor atom, acceptor molecule, acceptor atom, score
      L1  H     9    29       P1  8028  0.93
      L1  H    12    30       P1  8028  1.00
      P1  H  7989  7998       L1    11  0.01
      L1  C    15    31       P1 10175  0.24
      L1  C    16    32       P1  7948  1.00

> <Gold.PLP.Chemscore.Internal.Correction>
0.0072

> <Gold.Rescore>
     Score         DG    S(hbond)    S(metal)    S(lipo)     H(rot)  DE(clash)    DE(int)     intcor
     14.03     -18.06       1.91        0.00      81.80       1.32       0.79       3.24       ----

> <Gold.Chemscore.Fitness>
14.0340

> <Gold.Chemscore.DG>
-18.0628

> <Gold.Chemscore.ZeroCoef>
-5.4800

> <Gold.Chemscore.Hbond>
1.9136

> <Gold.Chemscore.Metal>
0.0000

> <Gold.Chemscore.Lipo>
81.7983

> <Gold.Chemscore.Internal_Hbond>
0.0000

> <Gold.Chemscore.DEClash>
0.7907

> <Gold.Chemscore.DEInternal>
3.2381

> <Gold.Chemscore.Rot>
1.3199

> <Gold.Chemscore.Internal.Correction>
   9.000000E+99

> <Gold.Chemscore.Hbonds>
donor molecule, donor type, donor heavy atom, donor atom, acceptor molecule, acceptor atom, score
      L1  H     9    29       P1  8028  0.90
      L1  H    12    30       P1  8028  0.97

> <Gold.Chemscore.Hbond.Weighted>
-6.3913

> <Gold.Chemscore.Metal.Weighted>
-0.0000

> <Gold.Chemscore.Lipo.Weighted>
-9.5704

> <Gold.Chemscore.Internal_Hbond.Weighted>
0.0000

> <Gold.Chemscore.DEClash.Weighted>
0.7907

> <Gold.Chemscore.DEInternal.Weighted>
3.2381

> <Gold.Chemscore.Rot.Weighted>
3.3789

> <Gold.Chemscore.Internal.Correction.Weighted>
   9.000000E+99

> <Gold.Protein.RotatedTorsions>
[ 6907 6896 6895 6894 ] final   48.29 input  -60.11 | X-H torsion
[ 7974 7965 7964 7962 ] final -113.46 input  175.53 | X-H torsion
[ 8008 7997 7996 7995 ] final -174.74 input   59.86 | X-H torsion
[ 10167 10162 10161 10158 ] final  118.58 input  -65.29 | X-H torsion
[ 10718 10713 10712 10709 ] final   -3.27 input   66.30 | X-H torsion
[ 10763 10752 10751 10750 ] final   38.61 input  -60.55 | X-H torsion
[ 11005 11000 10999 10996 ] final   20.42 input  -57.11 | X-H torsion

> <Gold.Protein.ActiveResidues>
 VAL166  LYS551  ARG553  GLY616  TRP617  ASP618  TYR619  PRO620  LYS621  CYS622 
 ASP623  PHE694  ASN695  SER759  ASP760  ASP761  ALA762  ILE779  LEU786  VAL792 
 PHE793  MET794  SER795  GLU796  ALA797  LYS798  CYS799  TRP800  GLU811  SER814 

> <Gold.Protein.RotatedAtoms>
  152.2778  134.7862  160.0402 H   0  0  0  0  0  0  0  0  0  0  0  0  # atno 6907 bound_to 6896
  151.8451  133.3425  159.3663 H   0  0  0  0  0  0  0  0  0  0  0  0  # atno 6908 bound_to 6896
  150.7177  134.5281  159.5731 H   0  0  0  0  0  0  0  0  0  0  0  0  # atno 6909 bound_to 6896
  145.1318  140.8728  143.3754 H   0  0  0  0  0  0  0  0  0  0  0  0  # atno 7974 bound_to 7965
  155.9739  140.1168  157.0788 H   0  0  0  0  0  0  0  0  0  0  0  0  # atno 8008 bound_to 7997
  154.4164  140.1158  156.5411 H   0  0  0  0  0  0  0  0  0  0  0  0  # atno 8009 bound_to 7997
  155.6560  140.3473  155.4767 H   0  0  0  0  0  0  0  0  0  0  0  0  # atno 8010 bound_to 7997
  139.6102  144.7080  151.2861 H   0  0  0  0  0  0  0  0  0  0  0  0  # atno 10167 bound_to 10162
  156.7786  130.5323  149.5755 H   0  0  0  0  0  0  0  0  0  0  0  0  # atno 10718 bound_to 10713
  152.9995  135.6244  154.2332 H   0  0  0  0  0  0  0  0  0  0  0  0  # atno 10763 bound_to 10752
  154.2074  135.2801  155.2972 H   0  0  0  0  0  0  0  0  0  0  0  0  # atno 10764 bound_to 10752
  154.5634  135.5698  153.7087 H   0  0  0  0  0  0  0  0  0  0  0  0  # atno 10765 bound_to 10752
  140.4028  134.1700  155.7664 H   0  0  0  0  0  0  0  0  0  0  0  0  # atno 11005 bound_to 11000
  145.0628  139.3092  143.5872 LP  0  0  0  0  0  0  0  0  0  0  0  0  # atno 17320 bound_to 7965
  146.3513  140.0075  142.8670 LP  0  0  0  0  0  0  0  0  0  0  0  0  # atno 17321 bound_to 7965
  140.7314  143.6853  150.7966 LP  0  0  0  0  0  0  0  0  0  0  0  0  # atno 17342 bound_to 10162
  140.0447  143.5311  152.2702 LP  0  0  0  0  0  0  0  0  0  0  0  0  # atno 17343 bound_to 10162
  156.1232  130.6125  151.0225 LP  0  0  0  0  0  0  0  0  0  0  0  0  # atno 17370 bound_to 10713
  157.6657  131.0872  150.7734 LP  0  0  0  0  0  0  0  0  0  0  0  0  # atno 17371 bound_to 10713
  141.1850  133.8332  157.1119 LP  0  0  0  0  0  0  0  0  0  0  0  0  # atno 17394 bound_to 11000
  140.0323  134.9895  157.0805 LP  0  0  0  0  0  0  0  0  0  0  0  0  # atno 17395 bound_to 11000

$$$$
