AV-unprocessed.smi:670|AV-procd|sdf|3267|dock1
  -GOLD-   22720 0223D 1   1.00000     0.00000
 Structure written by MMmdl.
 44 45  0  0  0  0  0  0  0  0  2 V2000
  152.0747  138.1556  154.7513 C   0  0  0  0  0  0  0  0  0  0  0  0
  151.3608  139.5132  154.8373 C   0  0  2  0  0  0  0  0  0  0  0  0
  151.5106  140.1454  156.2356 C   0  0  0  0  0  0  0  0  0  0  0  0
  150.8402  141.5266  156.3059 C   0  0  0  0  0  0  0  0  0  0  0  0
  149.3626  141.4523  155.8931 C   0  0  0  0  0  0  0  0  0  0  0  0
  149.2016  140.8181  154.5011 C   0  0  0  0  0  0  0  0  0  0  0  0
  149.8737  139.4349  154.4179 C   0  0  2  0  0  0  0  0  0  0  0  0
  149.1677  138.5572  155.2876 O   0  0  0  0  0  0  0  0  0  0  0  0
  147.8399  138.2664  154.8787 C   0  0  0  0  0  0  0  0  0  0  0  0
  147.3374  137.0403  155.6539 C   0  0  0  0  0  0  0  0  0  0  0  0
  146.8020  137.4110  156.9586 N   0  0  0  0  0  0  0  0  0  0  0  0
  146.2464  136.5649  157.8391 C   0  0  0  0  0  0  0  0  0  0  0  0
  146.1243  135.3567  157.6355 O   0  0  0  0  0  0  0  0  0  0  0  0
  145.7725  137.1773  159.1615 C   0  0  0  0  0  0  0  0  0  0  0  0
  146.2445  136.4136  160.3239 N   0  0  0  0  0  0  0  0  0  0  0  0
  147.1406  137.1685  161.1962 N   0  5  0  0  0  0  0  0  0  0  0  0
  147.6237  136.5778  162.3213 C   0  0  0  0  0  0  0  0  0  0  0  0
  148.3704  137.1545  163.1086 O   0  0  0  0  0  0  0  0  0  0  0  0
  147.2353  135.2039  162.5932 C   0  0  0  0  0  0  0  0  0  0  0  0
  146.4188  134.5262  161.7626 C   0  0  0  0  0  0  0  0  0  0  0  0
  145.8721  135.1210  160.5488 C   0  0  0  0  0  0  0  0  0  0  0  0
  145.1288  134.5050  159.7853 O   0  0  0  0  0  0  0  0  0  0  0  0
  151.6695  137.4463  155.4729 H   0  0  0  0  0  0  0  0  0  0  0  0
  153.1401  138.2607  154.9574 H   0  0  0  0  0  0  0  0  0  0  0  0
  151.9727  137.7184  153.7578 H   0  0  0  0  0  0  0  0  0  0  0  0
  151.8600  140.1743  154.1272 H   0  0  0  0  0  0  0  0  0  0  0  0
  151.0724  139.4880  156.9879 H   0  0  0  0  0  0  0  0  0  0  0  0
  152.5667  140.2410  156.4901 H   0  0  0  0  0  0  0  0  0  0  0  0
  150.9233  141.9279  157.3162 H   0  0  0  0  0  0  0  0  0  0  0  0
  151.3678  142.2225  155.6527 H   0  0  0  0  0  0  0  0  0  0  0  0
  148.8078  140.8681  156.6284 H   0  0  0  0  0  0  0  0  0  0  0  0
  148.9243  142.4504  155.8996 H   0  0  0  0  0  0  0  0  0  0  0  0
  148.1435  140.7335  154.2511 H   0  0  0  0  0  0  0  0  0  0  0  0
  149.6407  141.4786  153.7523 H   0  0  0  0  0  0  0  0  0  0  0  0
  149.8088  139.0920  153.3831 H   0  0  0  0  0  0  0  0  0  0  0  0
  147.2010  139.1256  155.0871 H   0  0  0  0  0  0  0  0  0  0  0  0
  147.7940  138.0823  153.8048 H   0  0  0  0  0  0  0  0  0  0  0  0
  146.5527  136.5377  155.0882 H   0  0  0  0  0  0  0  0  0  0  0  0
  148.1443  136.3163  155.7774 H   0  0  0  0  0  0  0  0  0  0  0  0
  146.8502  138.3872  157.2136 H   0  0  0  0  0  0  0  0  0  0  0  0
  146.1172  138.2109  159.2229 H   0  0  0  0  0  0  0  0  0  0  0  0
  144.6823  137.2379  159.1572 H   0  0  0  0  0  0  0  0  0  0  0  0
  147.6113  134.7156  163.4802 H   0  0  0  0  0  0  0  0  0  0  0  0
  146.1574  133.5067  162.0040 H   0  0  0  0  0  0  0  0  0  0  0  0
  1  2  1  0  0  0  0
  1 23  1  0  0  0  0
  1 24  1  0  0  0  0
  1 25  1  0  0  0  0
  2  7  1  0  0  0  0
  2  3  1  0  0  0  0
  2 26  1  0  0  0  0
  3  4  1  0  0  0  0
  3 27  1  0  0  0  0
  3 28  1  0  0  0  0
  4  5  1  0  0  0  0
  4 29  1  0  0  0  0
  4 30  1  0  0  0  0
  5  6  1  0  0  0  0
  5 31  1  0  0  0  0
  5 32  1  0  0  0  0
  6  7  1  0  0  0  0
  6 33  1  0  0  0  0
  6 34  1  0  0  0  0
  7  8  1  0  0  0  0
  7 35  1  0  0  0  0
  8  9  1  0  0  0  0
  9 10  1  0  0  0  0
  9 36  1  0  0  0  0
  9 37  1  0  0  0  0
 10 11  1  0  0  0  0
 10 38  1  0  0  0  0
 10 39  1  0  0  0  0
 11 12  1  0  0  0  0
 11 40  1  0  0  0  0
 12 13  2  0  0  0  0
 12 14  1  0  0  0  0
 14 41  1  0  0  0  0
 14 42  1  0  0  0  0
 14 15  1  0  0  0  0
 15 16  1  0  0  0  0
 15 21  1  0  0  0  0
 16 17  1  0  0  0  0
 17 18  2  0  0  0  0
 17 19  1  0  0  0  0
 19 43  1  0  0  0  0
 19 20  2  0  0  0  0
 20 44  1  0  0  0  0
 20 21  1  0  0  0  0
 21 22  2  0  0  0  0
M  CHG  1  16  -1
M  END
> <s_m_source_file>
AV-unprocessed.smi

> <i_m_source_file_index>
670

> <i_lp_mmshare_version>
43012

> <i_f3d_flags>
0

> <s_epik_input>
W0NIM11bQ0BASF0xW0NIMl1bQ0gyXVtDSDJdW0NIMl1bQ0BIXTFPW0NIMl1bQ0gyXVtOSF1DKD1PKVtDSDJdbjJbbkhdYyg9TylbY0hdW2NIXWMyPU8=

> <s_epik_cmdline>
J2VwaWtfcHl0aG9uJywgJy1waCcsICc3LjAnLCAnLXRuJywgJzgnLCAnLW1hJywgJzIwMCcsICctbWV0YWxfYmluZGluZycsICctaW1hZScsICc8aW5maWxlLm1hZT4nLCAnLW9tYWUnLCAnPG91dGZpbGUubWFlPic=

> <r_lp_tautomer_probability>
1

> <r_epik_Ionization_Penalty>
0.0975638

> <r_epik_Ionization_Penalty_Charging>
0.0975637

> <r_epik_Ionization_Penalty_Neutral>
2.78599e-08

> <r_epik_State_Penalty>
0.0343507

> <r_epik_Charging_Adjusted_Penalty>
0.131914

> <i_epik_Tot_Q>
-1

> <i_epik_Tot_abs_Q>
1

> <r_epik_Metal_State_Penalty>
0.0343507

> <b_epik_Metal_Only>
0

> <s_lp_Force_Field>
OPLS_2005

> <r_lp_Energy>
29.4365

> <b_lp_Chiralities_Consistent>
1

> <s_lp_Variant>
AV-unprocessed.smi:670-3

> <Gold.Version>
5.8.1

> <Gold.Id.Protein>
6NUR|6NUR_protein|mol2

> <Gold.PLP.Fitness>
40.5660

> <Gold.PLP.PLP>
-33.3467

> <Gold.PLP.part.hbond>
-2.3393

> <Gold.PLP.part.metal>
0.0000

> <Gold.PLP.part.buried>
-1.2709

> <Gold.PLP.part.nonpolar>
-29.7513

> <Gold.PLP.part.repulsive>
0.1035

> <Gold.PLP.ligand.clash>
0.0000

> <Gold.PLP.ligand.torsion>
0.3636

> <Gold.PLP.Chemscore.Hbond>
2.6232

> <Gold.PLP.Chemscore.CHOScore>
0.0000

> <Gold.PLP.Chemscore.Metal>
0.0000

> <Gold.Chemscore.Hbonds>
donor molecule, donor type, donor heavy atom, donor atom, acceptor molecule, acceptor atom, score
      P1  H  6931  6943       L1    18  0.56
      P1  H  6934  6947       L1    16  2.00

> <Gold.PLP.Chemscore.Internal.Correction>
0.0770

> <Gold.Rescore>
     Score         DG    S(hbond)    S(metal)    S(lipo)     H(rot)  DE(clash)    DE(int)     intcor
     10.49     -12.30       1.57        0.00      67.11       2.45       0.05       1.76       ----

> <Gold.Chemscore.Fitness>
10.4914

> <Gold.Chemscore.DG>
-12.2984

> <Gold.Chemscore.ZeroCoef>
-5.4800

> <Gold.Chemscore.Hbond>
1.5675

> <Gold.Chemscore.Metal>
0.0000

> <Gold.Chemscore.Lipo>
67.1146

> <Gold.Chemscore.Internal_Hbond>
0.0000

> <Gold.Chemscore.DEClash>
0.0489

> <Gold.Chemscore.DEInternal>
1.7581

> <Gold.Chemscore.Rot>
2.4490

> <Gold.Chemscore.Internal.Correction>
   9.000000E+99

> <Gold.Chemscore.Hbonds>
donor molecule, donor type, donor heavy atom, donor atom, acceptor molecule, acceptor atom, score
      P1  H  6931  6943       L1    18  0.09
      P1  H  6934  6947       L1    16  0.90

> <Gold.Chemscore.Hbond.Weighted>
-5.2354

> <Gold.Chemscore.Metal.Weighted>
-0.0000

> <Gold.Chemscore.Lipo.Weighted>
-7.8524

> <Gold.Chemscore.Internal_Hbond.Weighted>
0.0000

> <Gold.Chemscore.DEClash.Weighted>
0.0489

> <Gold.Chemscore.DEInternal.Weighted>
1.7581

> <Gold.Chemscore.Rot.Weighted>
6.2694

> <Gold.Chemscore.Internal.Correction.Weighted>
   9.000000E+99

> <Gold.Protein.RotatedTorsions>
[ 6907 6896 6895 6894 ] final   84.17 input  -60.11 | X-H torsion
[ 7974 7965 7964 7962 ] final -135.01 input  175.53 | X-H torsion
[ 8008 7997 7996 7995 ] final  154.44 input   59.86 | X-H torsion
[ 10167 10162 10161 10158 ] final  -37.56 input  -65.29 | X-H torsion
[ 10718 10713 10712 10709 ] final   61.15 input   66.30 | X-H torsion
[ 10763 10752 10751 10750 ] final  -34.42 input  -60.55 | X-H torsion
[ 11005 11000 10999 10996 ] final  141.10 input  -57.11 | X-H torsion

> <Gold.Protein.ActiveResidues>
 VAL166  LYS551  ARG553  GLY616  TRP617  ASP618  TYR619  PRO620  LYS621  CYS622 
 ASP623  PHE694  ASN695  SER759  ASP760  ASP761  ALA762  ILE779  LEU786  VAL792 
 PHE793  MET794  SER795  GLU796  ALA797  LYS798  CYS799  TRP800  GLU811  SER814 

> <Gold.Protein.RotatedAtoms>
  152.5346  134.2782  159.8997 H   0  0  0  0  0  0  0  0  0  0  0  0  # atno 6907 bound_to 6896
  151.2737  133.4236  159.2630 H   0  0  0  0  0  0  0  0  0  0  0  0  # atno 6908 bound_to 6896
  151.0345  134.9578  159.8185 H   0  0  0  0  0  0  0  0  0  0  0  0  # atno 6909 bound_to 6896
  144.9052  140.6823  143.5060 H   0  0  0  0  0  0  0  0  0  0  0  0  # atno 7974 bound_to 7965
  156.2531  140.1966  156.6647 H   0  0  0  0  0  0  0  0  0  0  0  0  # atno 8008 bound_to 7997
  154.6438  140.0580  156.9902 H   0  0  0  0  0  0  0  0  0  0  0  0  # atno 8009 bound_to 7997
  155.1522  140.3252  155.4431 H   0  0  0  0  0  0  0  0  0  0  0  0  # atno 8010 bound_to 7997
  140.7115  143.3334  151.2518 H   0  0  0  0  0  0  0  0  0  0  0  0  # atno 10167 bound_to 10162
  157.5807  130.8979  149.9425 H   0  0  0  0  0  0  0  0  0  0  0  0  # atno 10718 bound_to 10713
  153.8464  135.6853  153.4797 H   0  0  0  0  0  0  0  0  0  0  0  0  # atno 10763 bound_to 10752
  153.1423  135.4652  154.9512 H   0  0  0  0  0  0  0  0  0  0  0  0  # atno 10764 bound_to 10752
  154.7822  135.3272  154.7912 H   0  0  0  0  0  0  0  0  0  0  0  0  # atno 10765 bound_to 10752
  140.0376  134.9321  157.0783 H   0  0  0  0  0  0  0  0  0  0  0  0  # atno 11005 bound_to 11000
  145.3549  139.1696  143.4415 LP  0  0  0  0  0  0  0  0  0  0  0  0  # atno 17320 bound_to 7965
  146.3129  140.3605  142.8664 LP  0  0  0  0  0  0  0  0  0  0  0  0  # atno 17321 bound_to 7965
  139.6822  143.9835  152.2814 LP  0  0  0  0  0  0  0  0  0  0  0  0  # atno 17342 bound_to 10162
  139.9469  144.6646  150.8211 LP  0  0  0  0  0  0  0  0  0  0  0  0  # atno 17343 bound_to 10162
  156.0852  130.3669  150.0501 LP  0  0  0  0  0  0  0  0  0  0  0  0  # atno 17370 bound_to 10713
  156.8640  130.9501  151.3615 LP  0  0  0  0  0  0  0  0  0  0  0  0  # atno 17371 bound_to 10713
  140.4121  134.1970  155.7163 LP  0  0  0  0  0  0  0  0  0  0  0  0  # atno 17394 bound_to 11000
  141.1866  133.8299  157.1063 LP  0  0  0  0  0  0  0  0  0  0  0  0  # atno 17395 bound_to 11000

$$$$
