AV-unprocessed.smi:921|AV-procd|sdf|4170|dock2
  -GOLD-   22720 2 73D 1   1.00000     0.00000
 Structure written by MMmdl.
 39 41  0  0  0  0  0  0  0  0  1 V2000
  154.1979  136.9165  159.1564 N   0  0  0  0  0  0  0  0  0  0  0  0
  153.9133  138.2146  159.0218 C   0  0  0  0  0  0  0  0  0  0  0  0
  154.7762  139.0494  158.7574 O   0  0  0  0  0  0  0  0  0  0  0  0
  152.4494  138.6334  159.2078 C   0  0  0  0  0  0  0  0  0  0  0  0
  152.3282  140.1299  159.0522 C   0  0  0  0  0  0  0  0  0  0  0  0
  153.0117  140.9772  159.8287 N   0  0  0  0  0  0  0  0  0  0  0  0
  152.6224  142.2146  159.3589 C   0  0  0  0  0  0  0  0  0  0  0  0
  153.0085  143.5133  159.7611 C   0  0  0  0  0  0  0  0  0  0  0  0
  152.4662  144.6483  159.1237 C   0  0  0  0  0  0  0  0  0  0  0  0
  151.5308  144.5012  158.0792 C   0  0  0  0  0  0  0  0  0  0  0  0
  151.1315  143.2159  157.6652 C   0  0  0  0  0  0  0  0  0  0  0  0
  151.6778  142.0859  158.3037 C   0  0  0  0  0  0  0  0  0  0  0  0
  151.5001  140.7150  158.1443 N   0  0  0  0  0  0  0  0  0  0  0  0
  150.5920  140.0965  157.1861 C   0  0  0  0  0  0  0  0  0  0  0  0
  150.7661  140.6479  155.7566 C   0  0  1  0  0  0  0  0  0  0  0  0
  151.9196  140.1007  155.1513 O   0  0  0  0  0  0  0  0  0  0  0  0
  149.5158  140.4301  154.9161 C   0  0  0  0  0  0  0  0  0  0  0  0
  148.6529  141.5177  154.6593 C   0  0  0  0  0  0  0  0  0  0  0  0
  147.4888  141.3371  153.8881 C   0  0  0  0  0  0  0  0  0  0  0  0
  146.6676  142.3864  153.6472 F   0  0  0  0  0  0  0  0  0  0  0  0
  147.1780  140.0665  153.3686 C   0  0  0  0  0  0  0  0  0  0  0  0
  148.0312  138.9761  153.6237 C   0  0  0  0  0  0  0  0  0  0  0  0
  149.1959  139.1538  154.3959 C   0  0  0  0  0  0  0  0  0  0  0  0
  149.9997  138.0901  154.6363 F   0  0  0  0  0  0  0  0  0  0  0  0
  155.1507  136.5997  159.0504 H   0  0  0  0  0  0  0  0  0  0  0  0
  153.4631  136.2582  159.3718 H   0  0  0  0  0  0  0  0  0  0  0  0
  151.8505  138.0963  158.4753 H   0  0  0  0  0  0  0  0  0  0  0  0
  152.0849  138.3469  160.1950 H   0  0  0  0  0  0  0  0  0  0  0  0
  153.7241  143.6357  160.5605 H   0  0  0  0  0  0  0  0  0  0  0  0
  152.7692  145.6363  159.4380 H   0  0  0  0  0  0  0  0  0  0  0  0
  151.1196  145.3753  157.5960 H   0  0  0  0  0  0  0  0  0  0  0  0
  150.4149  143.1004  156.8656 H   0  0  0  0  0  0  0  0  0  0  0  0
  150.6982  139.0133  157.2170 H   0  0  0  0  0  0  0  0  0  0  0  0
  149.5737  140.2926  157.5239 H   0  0  0  0  0  0  0  0  0  0  0  0
  150.9439  141.7218  155.8263 H   0  0  0  0  0  0  0  0  0  0  0  0
  151.8948  139.1611  155.2480 H   0  0  0  0  0  0  0  0  0  0  0  0
  148.8796  142.4973  155.0542 H   0  0  0  0  0  0  0  0  0  0  0  0
  146.2853  139.9279  152.7767 H   0  0  0  0  0  0  0  0  0  0  0  0
  147.7916  138.0005  153.2277 H   0  0  0  0  0  0  0  0  0  0  0  0
  1  2  1  0  0  0  0
  1 25  1  0  0  0  0
  1 26  1  0  0  0  0
  2  3  2  0  0  0  0
  2  4  1  0  0  0  0
  4  5  1  0  0  0  0
  4 27  1  0  0  0  0
  4 28  1  0  0  0  0
  5 13  1  0  0  0  0
  5  6  2  0  0  0  0
  6  7  1  0  0  0  0
  7 12  2  0  0  0  0
  7  8  1  0  0  0  0
  8  9  2  0  0  0  0
  8 29  1  0  0  0  0
  9 10  1  0  0  0  0
  9 30  1  0  0  0  0
 10 11  2  0  0  0  0
 10 31  1  0  0  0  0
 11 12  1  0  0  0  0
 11 32  1  0  0  0  0
 12 13  1  0  0  0  0
 13 14  1  0  0  0  0
 14 15  1  0  0  0  0
 14 33  1  0  0  0  0
 14 34  1  0  0  0  0
 15 16  1  0  0  0  0
 15 17  1  0  0  0  0
 15 35  1  0  0  0  0
 16 36  1  0  0  0  0
 17 23  1  0  0  0  0
 17 18  2  0  0  0  0
 18 19  1  0  0  0  0
 18 37  1  0  0  0  0
 19 20  1  0  0  0  0
 19 21  2  0  0  0  0
 21 22  1  0  0  0  0
 21 38  1  0  0  0  0
 22 23  2  0  0  0  0
 22 39  1  0  0  0  0
 23 24  1  0  0  0  0
M  END
> <s_m_source_file>
AV-unprocessed.smi

> <i_m_source_file_index>
921

> <i_lp_mmshare_version>
43012

> <i_f3d_flags>
0

> <s_epik_input>
W2NIXTFbY0hdW2NIXVtjSF1jKGMxMiluKGMobjIpW0NIMl1DKD1PKVtOSDJdKVtDSDJdW0NASF0oW09IXSljM1tjSF1jKEYpW2NIXVtjSF1jM0Y=

> <s_epik_cmdline>
J2VwaWtfcHl0aG9uJywgJy1waCcsICc3LjAnLCAnLXRuJywgJzgnLCAnLW1hJywgJzIwMCcsICctbWV0YWxfYmluZGluZycsICctaW1hZScsICc8aW5maWxlLm1hZT4nLCAnLW9tYWUnLCAnPG91dGZpbGUubWFlPic=

> <r_epik_Ionization_Penalty>
0.0366909

> <r_epik_Ionization_Penalty_Charging>
0

> <r_epik_Ionization_Penalty_Neutral>
0.0366909

> <r_epik_State_Penalty>
0.0306642

> <r_epik_Charging_Adjusted_Penalty>
0.0306642

> <i_epik_Tot_Q>
0

> <i_epik_Tot_abs_Q>
0

> <r_epik_Metal_State_Penalty>
0.028853

> <b_epik_Metal_Only>
0

> <s_lp_Force_Field>
OPLS_2005

> <r_lp_Energy>
12.6205

> <b_lp_Chiralities_Consistent>
1

> <s_lp_Variant>
AV-unprocessed.smi:921-2

> <Gold.Version>
5.8.1

> <Gold.Id.Protein>
6NUR|6NUR_protein|mol2

> <Gold.PLP.Fitness>
57.2831

> <Gold.PLP.PLP>
-52.8382

> <Gold.PLP.part.hbond>
-2.0000

> <Gold.PLP.part.metal>
0.0000

> <Gold.PLP.part.buried>
-6.4292

> <Gold.PLP.part.nonpolar>
-45.0725

> <Gold.PLP.part.repulsive>
0.0806

> <Gold.PLP.ligand.clash>
0.0000

> <Gold.PLP.ligand.torsion>
0.5997

> <Gold.PLP.Chemscore.Hbond>
1.8480

> <Gold.PLP.Chemscore.CHOScore>
0.0000

> <Gold.PLP.Chemscore.Metal>
0.0000

> <Gold.Chemscore.Hbonds>
donor molecule, donor type, donor heavy atom, donor atom, acceptor molecule, acceptor atom, score
      P1  H  7989  7998       L1    16  0.68
      P1  H  7997  8008       L1     3  1.00

> <Gold.PLP.Chemscore.Internal.Correction>
0.1003

> <Gold.Rescore>
     Score         DG    S(hbond)    S(metal)    S(lipo)     H(rot)  DE(clash)    DE(int)     intcor
     13.76     -16.75       1.75        0.00     114.53       3.11       0.05       2.94       ----

> <Gold.Chemscore.Fitness>
13.7618

> <Gold.Chemscore.DG>
-16.7524

> <Gold.Chemscore.ZeroCoef>
-5.4800

> <Gold.Chemscore.Hbond>
1.7482

> <Gold.Chemscore.Metal>
0.0000

> <Gold.Chemscore.Lipo>
114.5329

> <Gold.Chemscore.Internal_Hbond>
0.0000

> <Gold.Chemscore.DEClash>
0.0485

> <Gold.Chemscore.DEInternal>
2.9421

> <Gold.Chemscore.Rot>
3.1121

> <Gold.Chemscore.Internal.Correction>
   9.000000E+99

> <Gold.Chemscore.Hbonds>
donor molecule, donor type, donor heavy atom, donor atom, acceptor molecule, acceptor atom, score
      P1  H  7989  7998       L1    16  0.10
      P1  H  7997  8008       L1     3  1.00

> <Gold.Chemscore.Hbond.Weighted>
-5.8391

> <Gold.Chemscore.Metal.Weighted>
-0.0000

> <Gold.Chemscore.Lipo.Weighted>
-13.4003

> <Gold.Chemscore.Internal_Hbond.Weighted>
0.0000

> <Gold.Chemscore.DEClash.Weighted>
0.0485

> <Gold.Chemscore.DEInternal.Weighted>
2.9421

> <Gold.Chemscore.Rot.Weighted>
7.9670

> <Gold.Chemscore.Internal.Correction.Weighted>
   9.000000E+99

> <Gold.Protein.RotatedTorsions>
[ 6907 6896 6895 6894 ] final -133.45 input  -60.11 | X-H torsion
[ 7974 7965 7964 7962 ] final -169.72 input  175.53 | X-H torsion
[ 8008 7997 7996 7995 ] final -123.43 input   59.86 | X-H torsion
[ 10167 10162 10161 10158 ] final   10.78 input  -65.29 | X-H torsion
[ 10718 10713 10712 10709 ] final -134.80 input   66.30 | X-H torsion
[ 10763 10752 10751 10750 ] final   94.05 input  -60.55 | X-H torsion
[ 11005 11000 10999 10996 ] final   99.94 input  -57.11 | X-H torsion

> <Gold.Protein.ActiveResidues>
 VAL166  LYS551  ARG553  GLY616  TRP617  ASP618  TYR619  PRO620  LYS621  CYS622 
 ASP623  PHE694  ASN695  SER759  ASP760  ASP761  ALA762  ILE779  LEU786  VAL792 
 PHE793  MET794  SER795  GLU796  ALA797  LYS798  CYS799  TRP800  GLU811  SER814 

> <Gold.Protein.RotatedAtoms>
  150.9742  133.6312  159.2732 H   0  0  0  0  0  0  0  0  0  0  0  0  # atno 6907 bound_to 6896
  151.3591  135.0899  159.9438 H   0  0  0  0  0  0  0  0  0  0  0  0  # atno 6908 bound_to 6896
  152.5193  133.9319  159.7639 H   0  0  0  0  0  0  0  0  0  0  0  0  # atno 6909 bound_to 6896
  144.7181  140.2178  143.6319 H   0  0  0  0  0  0  0  0  0  0  0  0  # atno 7974 bound_to 7965
  155.1805  140.0410  157.2881 H   0  0  0  0  0  0  0  0  0  0  0  0  # atno 8008 bound_to 7997
  154.6207  140.2500  155.7525 H   0  0  0  0  0  0  0  0  0  0  0  0  # atno 8009 bound_to 7997
  156.2432  140.2895  156.0513 H   0  0  0  0  0  0  0  0  0  0  0  0  # atno 8010 bound_to 7997
  140.6173  143.8280  150.7133 H   0  0  0  0  0  0  0  0  0  0  0  0  # atno 10167 bound_to 10162
  156.2593  130.7200  151.1128 H   0  0  0  0  0  0  0  0  0  0  0  0  # atno 10718 bound_to 10713
  153.2372  135.4303  155.0659 H   0  0  0  0  0  0  0  0  0  0  0  0  # atno 10763 bound_to 10752
  154.8324  135.3394  154.6701 H   0  0  0  0  0  0  0  0  0  0  0  0  # atno 10764 bound_to 10752
  153.7126  135.7022  153.5090 H   0  0  0  0  0  0  0  0  0  0  0  0  # atno 10765 bound_to 10752
  139.8770  134.9118  156.4682 H   0  0  0  0  0  0  0  0  0  0  0  0  # atno 11005 bound_to 11000
  145.8529  139.2184  143.1761 LP  0  0  0  0  0  0  0  0  0  0  0  0  # atno 17320 bound_to 7965
  146.0244  140.8318  142.9907 LP  0  0  0  0  0  0  0  0  0  0  0  0  # atno 17321 bound_to 7965
  140.1862  143.4073  152.1896 LP  0  0  0  0  0  0  0  0  0  0  0  0  # atno 17342 bound_to 10162
  139.5409  144.7255  151.4737 LP  0  0  0  0  0  0  0  0  0  0  0  0  # atno 17343 bound_to 10162
  157.7244  131.0660  150.5995 LP  0  0  0  0  0  0  0  0  0  0  0  0  # atno 17370 bound_to 10713
  156.6082  130.4372  149.5870 LP  0  0  0  0  0  0  0  0  0  0  0  0  # atno 17371 bound_to 10713
  140.8815  133.7914  155.9472 LP  0  0  0  0  0  0  0  0  0  0  0  0  # atno 17394 bound_to 11000
  140.8849  134.2566  157.5125 LP  0  0  0  0  0  0  0  0  0  0  0  0  # atno 17395 bound_to 11000

$$$$
