AV-unprocessed.smi:3145|AV-procd|sdf|11983|dock9
  -GOLD-   2272017383D 1   1.00000     0.00000
 Structure written by MMmdl.
 34 34  0  0  0  0  0  0  0  0  3 V2000
  151.5736  140.8030  157.0673 C   0  0  0  0  0  0  0  0  0  0  0  0
  150.9491  142.1654  156.7215 C   0  0  2  0  0  0  0  0  0  0  0  0
  150.1245  142.7572  157.8882 C   0  0  0  0  0  0  0  0  0  0  0  0
  150.9220  143.5515  158.8054 N   0  0  0  0  0  0  0  0  0  0  0  0
  150.8116  144.8953  159.0954 C   0  0  0  0  0  0  0  0  0  0  0  0
  151.7819  145.1946  160.0083 C   0  0  0  0  0  0  0  0  0  0  0  0
  152.4483  143.9540  160.2125 C   0  0  0  0  0  0  0  0  0  0  0  0
  151.9334  142.9730  159.4885 N   0  0  0  0  0  0  0  0  0  0  0  0
  150.1211  142.0252  155.5045 N   0  3  0  0  0  0  0  0  0  0  0  0
  149.1480  140.9125  155.5169 C   0  0  0  0  0  0  0  0  0  0  0  0
  149.7599  139.7043  154.8053 C   0  0  0  0  0  0  0  0  0  0  0  0
  150.9691  139.7201  154.5553 O   0  0  0  0  0  0  0  0  0  0  0  0
  148.8118  138.7623  154.5456 N   0  5  0  0  0  0  0  0  0  0  0  0
  147.3813  139.0493  154.4769 C   0  0  0  0  0  0  0  0  0  0  0  0
  147.0761  139.8908  153.2284 C   0  0  0  0  0  0  0  0  0  0  0  0
  146.9529  139.1033  151.9887 C   0  0  0  0  0  0  0  0  0  0  0  0
  146.8545  138.4865  151.0127 N   0  0  0  0  0  0  0  0  0  0  0  0
  152.2816  140.8827  157.8926 H   0  0  0  0  0  0  0  0  0  0  0  0
  152.1193  140.3956  156.2153 H   0  0  0  0  0  0  0  0  0  0  0  0
  150.8107  140.0774  157.3510 H   0  0  0  0  0  0  0  0  0  0  0  0
  151.7691  142.8460  156.4872 H   0  0  0  0  0  0  0  0  0  0  0  0
  149.3192  143.3898  157.5141 H   0  0  0  0  0  0  0  0  0  0  0  0
  149.6511  141.9548  158.4559 H   0  0  0  0  0  0  0  0  0  0  0  0
  150.0591  145.5188  158.6355 H   0  0  0  0  0  0  0  0  0  0  0  0
  151.9859  146.1543  160.4596 H   0  0  0  0  0  0  0  0  0  0  0  0
  153.2861  143.7394  160.8595 H   0  0  0  0  0  0  0  0  0  0  0  0
  149.5765  142.8700  155.3985 H   0  0  0  0  0  0  0  0  0  0  0  0
  148.8921  140.6432  156.5420 H   0  0  0  0  0  0  0  0  0  0  0  0
  148.2247  141.2081  155.0157 H   0  0  0  0  0  0  0  0  0  0  0  0
  146.7798  138.1398  154.4443 H   0  0  0  0  0  0  0  0  0  0  0  0
  147.0456  139.5969  155.3580 H   0  0  0  0  0  0  0  0  0  0  0  0
  146.1358  140.4253  153.3657 H   0  0  0  0  0  0  0  0  0  0  0  0
  147.8493  140.6444  153.0751 H   0  0  0  0  0  0  0  0  0  0  0  0
  150.7184  141.9320  154.6959 H   0  0  0  0  0  0  0  0  0  0  0  0
  1  2  1  0  0  0  0
  1 18  1  0  0  0  0
  1 19  1  0  0  0  0
  1 20  1  0  0  0  0
  2  3  1  0  0  0  0
  2  9  1  0  0  0  0
  2 21  1  0  0  0  0
  3  4  1  0  0  0  0
  3 22  1  0  0  0  0
  3 23  1  0  0  0  0
  4  8  1  0  0  0  0
  4  5  1  0  0  0  0
  5  6  2  0  0  0  0
  5 24  1  0  0  0  0
  6  7  1  0  0  0  0
  6 25  1  0  0  0  0
  7  8  2  0  0  0  0
  7 26  1  0  0  0  0
  9 10  1  0  0  0  0
  9 27  1  0  0  0  0
  9 34  1  0  0  0  0
 10 11  1  0  0  0  0
 10 28  1  0  0  0  0
 10 29  1  0  0  0  0
 11 12  2  0  0  0  0
 11 13  1  0  0  0  0
 13 14  1  0  0  0  0
 14 15  1  0  0  0  0
 14 30  1  0  0  0  0
 14 31  1  0  0  0  0
 15 16  1  0  0  0  0
 15 32  1  0  0  0  0
 15 33  1  0  0  0  0
 16 17  3  0  0  0  0
M  CHG  1   9   1
M  CHG  1  13  -1
M  END
> <s_m_source_file>
AV-unprocessed.smi

> <i_m_source_file_index>
3145

> <i_lp_mmshare_version>
43012

> <i_f3d_flags>
0

> <s_epik_input>
bjFbY0hdW2NIXVtjSF1uMVtDSDJdW0NAQEhdKFtDSDNdKVtOSF1bQ0gyXUMoPU8pW05IXVtDSDJdW0NIMl1DI04=

> <s_epik_cmdline>
J2VwaWtfcHl0aG9uJywgJy1waCcsICc3LjAnLCAnLXRuJywgJzgnLCAnLW1hJywgJzIwMCcsICctbWV0YWxfYmluZGluZycsICctaW1hZScsICc8aW5maWxlLm1hZT4nLCAnLW9tYWUnLCAnPG91dGZpbGUubWFlPic=

> <r_lp_tautomer_probability>
1

> <r_epik_Ionization_Penalty>
6.20835

> <r_epik_Ionization_Penalty_Charging>
6.20835

> <r_epik_Ionization_Penalty_Neutral>
3.57231e-06

> <r_epik_State_Penalty>
6.38139

> <r_epik_Charging_Adjusted_Penalty>
12.5897

> <i_epik_Tot_Q>
0

> <i_epik_Tot_abs_Q>
2

> <r_epik_Metal_State_Penalty>
2.31725

> <b_epik_Metal_Only>
1

> <s_lp_Force_Field>
OPLS_2005

> <r_lp_Energy>
-0.295423

> <b_lp_Chiralities_Consistent>
1

> <s_lp_Variant>
AV-unprocessed.smi:3145-5

> <Gold.Version>
5.8.1

> <Gold.Id.Protein>
6NUR|6NUR_protein|mol2

> <Gold.PLP.Fitness>
46.8881

> <Gold.PLP.PLP>
-33.8024

> <Gold.PLP.part.hbond>
-3.0000

> <Gold.PLP.part.metal>
0.0000

> <Gold.PLP.part.buried>
-4.1075

> <Gold.PLP.part.nonpolar>
-27.2445

> <Gold.PLP.part.repulsive>
0.9065

> <Gold.PLP.ligand.clash>
0.0000

> <Gold.PLP.ligand.torsion>
1.0804

> <Gold.PLP.Chemscore.Hbond>
4.0000

> <Gold.PLP.Chemscore.CHOScore>
1.0000

> <Gold.PLP.Chemscore.Metal>
0.0000

> <Gold.Chemscore.Hbonds>
donor molecule, donor type, donor heavy atom, donor atom, acceptor molecule, acceptor atom, score
      L1  H     9    27       P1  8028  2.00
      P1  H  7954  7966       L1    17  1.00
      P1  H  7989  7998       L1    12  1.00
      L1  C     5    24       P1  8029  0.89

> <Gold.PLP.Chemscore.Internal.Correction>
0.2465

> <Gold.Rescore>
     Score         DG    S(hbond)    S(metal)    S(lipo)     H(rot)  DE(clash)    DE(int)     intcor
     13.76     -16.22       2.87        0.00      71.10       2.79       0.18       2.28       ----

> <Gold.Chemscore.Fitness>
13.7613

> <Gold.Chemscore.DG>
-16.2238

> <Gold.Chemscore.ZeroCoef>
-5.4800

> <Gold.Chemscore.Hbond>
2.8683

> <Gold.Chemscore.Metal>
0.0000

> <Gold.Chemscore.Lipo>
71.1012

> <Gold.Chemscore.Internal_Hbond>
0.0000

> <Gold.Chemscore.DEClash>
0.1816

> <Gold.Chemscore.DEInternal>
2.2808

> <Gold.Chemscore.Rot>
2.7949

> <Gold.Chemscore.Internal.Correction>
   9.000000E+99

> <Gold.Chemscore.Hbonds>
donor molecule, donor type, donor heavy atom, donor atom, acceptor molecule, acceptor atom, score
      L1  H     9    27       P1  8028  0.97
      P1  H  7954  7966       L1    17  0.97
      P1  H  7989  7998       L1    12  0.98

> <Gold.Chemscore.Hbond.Weighted>
-9.5800

> <Gold.Chemscore.Metal.Weighted>
-0.0000

> <Gold.Chemscore.Lipo.Weighted>
-8.3188

> <Gold.Chemscore.Internal_Hbond.Weighted>
0.0000

> <Gold.Chemscore.DEClash.Weighted>
0.1816

> <Gold.Chemscore.DEInternal.Weighted>
2.2808

> <Gold.Chemscore.Rot.Weighted>
7.1551

> <Gold.Chemscore.Internal.Correction.Weighted>
   9.000000E+99

> <Gold.Protein.RotatedTorsions>
[ 6907 6896 6895 6894 ] final   -2.04 input  -60.11 | X-H torsion
[ 7974 7965 7964 7962 ] final  128.68 input  175.53 | X-H torsion
[ 8008 7997 7996 7995 ] final  -61.62 input   59.86 | X-H torsion
[ 10167 10162 10161 10158 ] final -131.45 input  -65.29 | X-H torsion
[ 10718 10713 10712 10709 ] final   -2.79 input   66.30 | X-H torsion
[ 10763 10752 10751 10750 ] final -129.69 input  -60.55 | X-H torsion
[ 11005 11000 10999 10996 ] final -163.24 input  -57.11 | X-H torsion

> <Gold.Protein.ActiveResidues>
 VAL166  LYS551  ARG553  GLY616  TRP617  ASP618  TYR619  PRO620  LYS621  CYS622 
 ASP623  PHE694  ASN695  SER759  ASP760  ASP761  ALA762  ILE779  LEU786  VAL792 
 PHE793  MET794  SER795  GLU796  ALA797  LYS798  CYS799  TRP800  GLU811  SER814 

> <Gold.Protein.RotatedAtoms>
  151.5364  135.1068  159.9915 H   0  0  0  0  0  0  0  0  0  0  0  0  # atno 6907 bound_to 6896
  152.4555  133.7711  159.6810 H   0  0  0  0  0  0  0  0  0  0  0  0  # atno 6908 bound_to 6896
  150.8498  133.7739  159.3054 H   0  0  0  0  0  0  0  0  0  0  0  0  # atno 6909 bound_to 6896
  145.0369  139.3997  143.5121 H   0  0  0  0  0  0  0  0  0  0  0  0  # atno 7974 bound_to 7965
  154.4457  140.1014  156.6459 H   0  0  0  0  0  0  0  0  0  0  0  0  # atno 8008 bound_to 7997
  155.5451  140.3484  155.4437 H   0  0  0  0  0  0  0  0  0  0  0  0  # atno 8009 bound_to 7997
  156.0569  140.1317  156.9975 H   0  0  0  0  0  0  0  0  0  0  0  0  # atno 8010 bound_to 7997
  139.9188  143.6407  152.2558 H   0  0  0  0  0  0  0  0  0  0  0  0  # atno 10167 bound_to 10162
  156.7856  130.5345  149.5744 H   0  0  0  0  0  0  0  0  0  0  0  0  # atno 10718 bound_to 10713
  154.8757  135.3887  154.3961 H   0  0  0  0  0  0  0  0  0  0  0  0  # atno 10763 bound_to 10752
  153.4691  135.7030  153.6009 H   0  0  0  0  0  0  0  0  0  0  0  0  # atno 10764 bound_to 10752
  153.4475  135.3841  155.2232 H   0  0  0  0  0  0  0  0  0  0  0  0  # atno 10765 bound_to 10752
  140.6003  134.4954  157.5204 H   0  0  0  0  0  0  0  0  0  0  0  0  # atno 11005 bound_to 11000
  146.3505  139.9949  142.8682 LP  0  0  0  0  0  0  0  0  0  0  0  0  # atno 17320 bound_to 7965
  145.1698  140.9715  143.4328 LP  0  0  0  0  0  0  0  0  0  0  0  0  # atno 17321 bound_to 7965
  139.6879  144.7650  151.1490 LP  0  0  0  0  0  0  0  0  0  0  0  0  # atno 17342 bound_to 10162
  140.7667  143.5630  150.9078 LP  0  0  0  0  0  0  0  0  0  0  0  0  # atno 17343 bound_to 10162
  156.1191  130.6096  151.0165 LP  0  0  0  0  0  0  0  0  0  0  0  0  # atno 17370 bound_to 10713
  157.6625  131.0878  150.7805 LP  0  0  0  0  0  0  0  0  0  0  0  0  # atno 17371 bound_to 10713
  139.9235  134.8101  156.1138 LP  0  0  0  0  0  0  0  0  0  0  0  0  # atno 17394 bound_to 11000
  141.0876  133.6727  156.2471 LP  0  0  0  0  0  0  0  0  0  0  0  0  # atno 17395 bound_to 11000

$$$$
