AV-unprocessed.smi:189|AV-procd|sdf|1490|dock10
  -GOLD-   2262019313D 1   1.00000     0.00000
 Structure written by MMmdl.
 53 57  0  0  0  0  0  0  0  0  1 V2000
  142.2899  133.3477  161.5746 C   0  0  0  0  0  0  0  0  0  0  0  0
  142.8709  134.7507  161.3309 C   0  0  1  0  0  0  0  0  0  0  0  0
  143.5382  135.3312  162.5864 C   0  0  0  0  0  0  0  0  0  0  0  0
  145.0024  134.8797  162.4885 C   0  0  2  0  0  0  0  0  0  0  0  0
  146.0273  135.9641  162.8657 C   0  0  0  0  0  0  0  0  0  0  0  0
  147.4794  135.4951  162.6349 C   0  0  0  0  0  0  0  0  0  0  0  0
  147.6596  134.6282  161.3682 C   0  0  0  0  0  0  0  0  0  0  0  0
  146.5040  134.8030  160.3724 C   0  0  0  0  0  0  0  0  0  0  0  0
  145.1661  134.3836  161.0351 C   0  0  2  0  0  0  0  0  0  0  0  0
  143.9286  134.7208  160.3231 N   0  0  0  0  0  0  0  0  0  0  0  0
  143.9678  135.7535  159.4442 C   0  0  0  0  0  0  0  0  0  0  0  0
  144.1778  137.0265  159.8736 N   0  0  0  0  0  0  0  0  0  0  0  0
  144.2419  138.0290  158.9923 C   0  0  0  0  0  0  0  0  0  0  0  0
  144.1269  137.9810  157.6634 N   0  0  0  0  0  0  0  0  0  0  0  0
  143.9150  136.7050  157.2301 C   0  0  0  0  0  0  0  0  0  0  0  0
  143.8252  135.5437  158.0469 C   0  0  0  0  0  0  0  0  0  0  0  0
  143.6145  134.4197  157.2585 N   0  0  0  0  0  0  0  0  0  0  0  0
  143.5812  134.8905  156.0418 C   0  0  0  0  0  0  0  0  0  0  0  0
  143.7443  136.2538  155.9331 N   0  0  0  0  0  0  0  0  0  0  0  0
  143.7449  137.0371  154.7076 C   0  0  0  0  0  0  0  0  0  0  0  0
  142.3690  137.0773  154.0027 C   0  0  2  0  0  0  0  0  0  0  0  0
  142.4454  137.9443  152.8845 O   0  0  0  0  0  0  0  0  0  0  0  0
  141.2223  137.5428  154.8970 C   0  0  0  0  0  0  0  0  0  0  0  0
  140.0334  136.7558  154.3639 C   0  0  0  0  0  0  0  0  0  0  0  0
  140.6047  135.4895  154.0841 O   0  0  0  0  0  0  0  0  0  0  0  0
  141.8947  135.6932  153.5165 C   0  0  0  0  0  0  0  0  0  0  0  0
  141.4950  133.3808  162.3197 H   0  0  0  0  0  0  0  0  0  0  0  0
  143.0461  132.6474  161.9307 H   0  0  0  0  0  0  0  0  0  0  0  0
  141.8637  132.9393  160.6578 H   0  0  0  0  0  0  0  0  0  0  0  0
  142.0503  135.3980  161.0171 H   0  0  0  0  0  0  0  0  0  0  0  0
  143.4772  136.4198  162.5593 H   0  0  0  0  0  0  0  0  0  0  0  0
  143.0597  135.0076  163.5113 H   0  0  0  0  0  0  0  0  0  0  0  0
  145.1491  134.0262  163.1520 H   0  0  0  0  0  0  0  0  0  0  0  0
  145.8422  136.8529  162.2604 H   0  0  0  0  0  0  0  0  0  0  0  0
  145.8942  136.2714  163.9033 H   0  0  0  0  0  0  0  0  0  0  0  0
  148.1233  136.3732  162.5751 H   0  0  0  0  0  0  0  0  0  0  0  0
  147.8255  134.9294  163.5006 H   0  0  0  0  0  0  0  0  0  0  0  0
  148.6119  134.8607  160.8907 H   0  0  0  0  0  0  0  0  0  0  0  0
  147.7153  133.5777  161.6566 H   0  0  0  0  0  0  0  0  0  0  0  0
  146.4891  135.8472  160.0582 H   0  0  0  0  0  0  0  0  0  0  0  0
  146.6816  134.2092  159.4753 H   0  0  0  0  0  0  0  0  0  0  0  0
  145.1803  133.2934  161.0742 H   0  0  0  0  0  0  0  0  0  0  0  0
  144.4118  139.0092  159.4123 H   0  0  0  0  0  0  0  0  0  0  0  0
  143.4317  134.2508  155.1842 H   0  0  0  0  0  0  0  0  0  0  0  0
  144.0795  138.0484  154.9431 H   0  0  0  0  0  0  0  0  0  0  0  0
  144.4961  136.6155  154.0386 H   0  0  0  0  0  0  0  0  0  0  0  0
  142.9175  138.7222  153.1390 H   0  0  0  0  0  0  0  0  0  0  0  0
  141.4027  137.2426  155.9299 H   0  0  0  0  0  0  0  0  0  0  0  0
  141.0642  138.6221  154.8879 H   0  0  0  0  0  0  0  0  0  0  0  0
  139.2186  136.6807  155.0841 H   0  0  0  0  0  0  0  0  0  0  0  0
  139.6466  137.1989  153.4450 H   0  0  0  0  0  0  0  0  0  0  0  0
  141.8270  135.6409  152.4287 H   0  0  0  0  0  0  0  0  0  0  0  0
  142.5571  134.8893  153.8389 H   0  0  0  0  0  0  0  0  0  0  0  0
  1  2  1  0  0  0  0
  1 27  1  0  0  0  0
  1 28  1  0  0  0  0
  1 29  1  0  0  0  0
  2 10  1  0  0  0  0
  2  3  1  0  0  0  0
  2 30  1  0  0  0  0
  3  4  1  0  0  0  0
  3 31  1  0  0  0  0
  3 32  1  0  0  0  0
  4  9  1  0  0  0  0
  4  5  1  0  0  0  0
  4 33  1  0  0  0  0
  5  6  1  0  0  0  0
  5 34  1  0  0  0  0
  5 35  1  0  0  0  0
  6  7  1  0  0  0  0
  6 36  1  0  0  0  0
  6 37  1  0  0  0  0
  7  8  1  0  0  0  0
  7 38  1  0  0  0  0
  7 39  1  0  0  0  0
  8  9  1  0  0  0  0
  8 40  1  0  0  0  0
  8 41  1  0  0  0  0
  9 10  1  0  0  0  0
  9 42  1  0  0  0  0
 10 11  1  0  0  0  0
 11 16  1  0  0  0  0
 11 12  2  0  0  0  0
 12 13  1  0  0  0  0
 13 14  2  0  0  0  0
 13 43  1  0  0  0  0
 14 15  1  0  0  0  0
 15 19  1  0  0  0  0
 15 16  2  0  0  0  0
 16 17  1  0  0  0  0
 17 18  2  0  0  0  0
 18 19  1  0  0  0  0
 18 44  1  0  0  0  0
 19 20  1  0  0  0  0
 20 21  1  0  0  0  0
 20 45  1  0  0  0  0
 20 46  1  0  0  0  0
 21 26  1  0  0  0  0
 21 22  1  0  0  0  0
 21 23  1  0  0  0  0
 22 47  1  0  0  0  0
 23 24  1  0  0  0  0
 23 48  1  0  0  0  0
 23 49  1  0  0  0  0
 24 25  1  0  0  0  0
 24 50  1  0  0  0  0
 24 51  1  0  0  0  0
 25 26  1  0  0  0  0
 26 52  1  0  0  0  0
 26 53  1  0  0  0  0
M  END
> <s_m_source_file>
AV-unprocessed.smi

> <i_m_source_file_index>
189

> <i_lp_mmshare_version>
43012

> <i_f3d_flags>
0

> <s_epik_input>
W0NIMl0xW0NIMl1bQ0gyXVtDSDJdW0NASF0oW0NASF0xMilOKFtDQEhdKFtDSDNdKVtDSDJdMiljKG5bY0hdbjMpYyhjMzQpbltjSF1uNFtDSDJdW0NAQF01KFtPSF0pW0NIMl1bQ0gyXU9bQ0gyXTU=

> <s_epik_cmdline>
J2VwaWtfcHl0aG9uJywgJy1waCcsICc3LjAnLCAnLXRuJywgJzgnLCAnLW1hJywgJzIwMCcsICctbWV0YWxfYmluZGluZycsICctaW1hZScsICc8aW5maWxlLm1hZT4nLCAnLW9tYWUnLCAnPG91dGZpbGUubWFlPic=

> <r_lp_tautomer_probability>
1

> <r_epik_Ionization_Penalty>
0.00594261

> <r_epik_Ionization_Penalty_Charging>
0

> <r_epik_Ionization_Penalty_Neutral>
0.00594261

> <r_epik_State_Penalty>
0.00429776

> <r_epik_Charging_Adjusted_Penalty>
0.00429776

> <i_epik_Tot_Q>
0

> <i_epik_Tot_abs_Q>
0

> <r_epik_Metal_State_Penalty>
-0

> <b_epik_Metal_Only>
0

> <s_lp_Force_Field>
OPLS_2005

> <r_lp_Energy>
66.7565

> <b_lp_Chiralities_Consistent>
1

> <s_lp_Variant>
AV-unprocessed.smi:189-16

> <Gold.Version>
5.8.1

> <Gold.Id.Protein>
6NUR|6NUR_protein|mol2

> <Gold.PLP.Fitness>
36.0165

> <Gold.PLP.PLP>
-27.3908

> <Gold.PLP.part.hbond>
-2.4071

> <Gold.PLP.part.metal>
0.0000

> <Gold.PLP.part.buried>
-6.1711

> <Gold.PLP.part.nonpolar>
-19.2059

> <Gold.PLP.part.repulsive>
0.2162

> <Gold.PLP.ligand.clash>
0.0000

> <Gold.PLP.ligand.torsion>
0.1180

> <Gold.PLP.Chemscore.Hbond>
1.9280

> <Gold.PLP.Chemscore.CHOScore>
1.0000

> <Gold.PLP.Chemscore.Metal>
0.0000

> <Gold.Chemscore.Hbonds>
donor molecule, donor type, donor heavy atom, donor atom, acceptor molecule, acceptor atom, score
      L1  H    22    47       P1 10175  0.86
      P1  H 11000 11005       L1    25  1.00
      L1  C    18    44       P1 10957  0.76

> <Gold.PLP.Chemscore.Internal.Correction>
0.0777

> <Gold.Rescore>
     Score         DG    S(hbond)    S(metal)    S(lipo)     H(rot)  DE(clash)    DE(int)     intcor
     14.95     -15.08       1.82        0.00      74.63       2.03       0.01       0.13       ----

> <Gold.Chemscore.Fitness>
14.9456

> <Gold.Chemscore.DG>
-15.0844

> <Gold.Chemscore.ZeroCoef>
-5.4800

> <Gold.Chemscore.Hbond>
1.8170

> <Gold.Chemscore.Metal>
0.0000

> <Gold.Chemscore.Lipo>
74.6292

> <Gold.Chemscore.Internal_Hbond>
0.0000

> <Gold.Chemscore.DEClash>
0.0126

> <Gold.Chemscore.DEInternal>
0.1261

> <Gold.Chemscore.Rot>
2.0297

> <Gold.Chemscore.Internal.Correction>
   9.000000E+99

> <Gold.Chemscore.Hbonds>
donor molecule, donor type, donor heavy atom, donor atom, acceptor molecule, acceptor atom, score
      L1  H    22    47       P1 10175  0.83
      P1  H 11000 11005       L1    25  0.37

> <Gold.Chemscore.Hbond.Weighted>
-6.0687

> <Gold.Chemscore.Metal.Weighted>
-0.0000

> <Gold.Chemscore.Lipo.Weighted>
-8.7316

> <Gold.Chemscore.Internal_Hbond.Weighted>
0.0000

> <Gold.Chemscore.DEClash.Weighted>
0.0126

> <Gold.Chemscore.DEInternal.Weighted>
0.1261

> <Gold.Chemscore.Rot.Weighted>
5.1960

> <Gold.Chemscore.Internal.Correction.Weighted>
   9.000000E+99

> <Gold.Protein.RotatedTorsions>
[ 6907 6896 6895 6894 ] final -173.35 input  -60.11 | X-H torsion
[ 7974 7965 7964 7962 ] final  -13.87 input  175.53 | X-H torsion
[ 8008 7997 7996 7995 ] final  -79.06 input   59.86 | X-H torsion
[ 10167 10162 10161 10158 ] final  107.31 input  -65.29 | X-H torsion
[ 10718 10713 10712 10709 ] final  -20.05 input   66.30 | X-H torsion
[ 10763 10752 10751 10750 ] final  177.65 input  -60.55 | X-H torsion
[ 11005 11000 10999 10996 ] final   40.62 input  -57.11 | X-H torsion

> <Gold.Protein.ActiveResidues>
 VAL166  LYS551  ARG553  GLY616  TRP617  ASP618  TYR619  PRO620  LYS621  CYS622 
 ASP623  PHE694  ASN695  SER759  ASP760  ASP761  ALA762  ILE779  LEU786  VAL792 
 PHE793  MET794  SER795  GLU796  ALA797  LYS798  CYS799  TRP800  GLU811  SER814 

> <Gold.Protein.RotatedAtoms>
  151.5547  133.3412  159.2959 H   0  0  0  0  0  0  0  0  0  0  0  0  # atno 6907 bound_to 6896
  150.8458  134.7769  159.6980 H   0  0  0  0  0  0  0  0  0  0  0  0  # atno 6908 bound_to 6896
  152.4516  134.5390  159.9885 H   0  0  0  0  0  0  0  0  0  0  0  0  # atno 6909 bound_to 6896
  146.2097  140.3266  142.8395 H   0  0  0  0  0  0  0  0  0  0  0  0  # atno 7974 bound_to 7965
  154.5749  140.0684  156.9019 H   0  0  0  0  0  0  0  0  0  0  0  0  # atno 8008 bound_to 7997
  155.2567  140.3355  155.4259 H   0  0  0  0  0  0  0  0  0  0  0  0  # atno 8009 bound_to 7997
  156.2146  140.1773  156.7603 H   0  0  0  0  0  0  0  0  0  0  0  0  # atno 8010 bound_to 7997
  139.6937  144.7104  151.1303 H   0  0  0  0  0  0  0  0  0  0  0  0  # atno 10167 bound_to 10162
  156.5372  130.4669  149.6517 H   0  0  0  0  0  0  0  0  0  0  0  0  # atno 10718 bound_to 10713
  154.4973  135.2782  155.1449 H   0  0  0  0  0  0  0  0  0  0  0  0  # atno 10763 bound_to 10752
  154.3097  135.6231  153.5464 H   0  0  0  0  0  0  0  0  0  0  0  0  # atno 10764 bound_to 10752
  152.9897  135.5717  154.5407 H   0  0  0  0  0  0  0  0  0  0  0  0  # atno 10765 bound_to 10752
  140.1913  134.3983  155.8145 H   0  0  0  0  0  0  0  0  0  0  0  0  # atno 11005 bound_to 11000
  144.8882  140.7489  143.5943 LP  0  0  0  0  0  0  0  0  0  0  0  0  # atno 17320 bound_to 7965
  145.3188  139.1795  143.4599 LP  0  0  0  0  0  0  0  0  0  0  0  0  # atno 17321 bound_to 7965
  140.7690  143.5522  150.9192 LP  0  0  0  0  0  0  0  0  0  0  0  0  # atno 17342 bound_to 10162
  139.9200  143.6617  152.3098 LP  0  0  0  0  0  0  0  0  0  0  0  0  # atno 17343 bound_to 10162
  156.3005  130.7174  151.2044 LP  0  0  0  0  0  0  0  0  0  0  0  0  # atno 17370 bound_to 10713
  157.7411  131.0507  150.5116 LP  0  0  0  0  0  0  0  0  0  0  0  0  # atno 17371 bound_to 10713
  141.2226  133.7048  156.8101 LP  0  0  0  0  0  0  0  0  0  0  0  0  # atno 17394 bound_to 11000
  140.2156  134.8795  157.3322 LP  0  0  0  0  0  0  0  0  0  0  0  0  # atno 17395 bound_to 11000

$$$$
