AV-unprocessed.smi:2893|AV-procd|sdf|11124|dock6
  -GOLD-   2272015593D 1   1.00000     0.00000
 Structure written by MMmdl.
 37 39  0  0  0  0  0  0  0  0  1 V2000
  140.0108  141.9502  154.1465 C   0  0  0  0  0  0  0  0  0  0  0  0
  141.2055  141.4217  154.9519 C   0  0  0  0  0  0  0  0  0  0  0  0
  141.5736  140.0709  154.5452 N   0  0  0  0  0  0  0  0  0  0  0  0
  141.2470  138.9452  155.2036 C   0  0  0  0  0  0  0  0  0  0  0  0
  140.5755  138.9386  156.2363 O   0  0  0  0  0  0  0  0  0  0  0  0
  141.7155  137.6582  154.5782 C   0  0  0  0  0  0  0  0  0  0  0  0
  142.5295  137.6859  153.4249 C   0  0  0  0  0  0  0  0  0  0  0  0
  142.9275  136.4566  152.8722 C   0  0  0  0  0  0  0  0  0  0  0  0
  142.4838  135.2797  153.5045 C   0  0  0  0  0  0  0  0  0  0  0  0
  142.8689  134.0400  152.9749 N   0  0  0  0  0  0  0  0  0  0  0  0
  143.5268  133.9414  151.6754 C   0  0  2  0  0  0  0  0  0  0  0  0
  143.7264  132.4960  151.2131 C   0  0  0  0  0  0  0  0  0  0  0  0
  145.2308  132.4668  150.9076 C   0  0  2  0  0  0  0  0  0  0  0  0
  146.0662  132.4351  152.1937 C   0  0  0  0  0  0  0  0  0  0  0  0
  145.8883  133.8599  152.7138 C   0  0  0  0  0  0  0  0  0  0  0  0
  144.9720  134.4782  151.6442 C   0  0  1  0  0  0  0  0  0  0  0  0
  145.4496  133.8046  150.4918 O   0  0  0  0  0  0  0  0  0  0  0  0
  141.7017  135.3158  154.6109 N   0  0  0  0  0  0  0  0  0  0  0  0
  141.3207  136.4853  155.1355 N   0  0  0  0  0  0  0  0  0  0  0  0
  139.7718  142.9738  154.4356 H   0  0  0  0  0  0  0  0  0  0  0  0
  139.1194  141.3442  154.3116 H   0  0  0  0  0  0  0  0  0  0  0  0
  140.2245  141.9486  153.0773 H   0  0  0  0  0  0  0  0  0  0  0  0
  142.0682  142.0698  154.7964 H   0  0  0  0  0  0  0  0  0  0  0  0
  140.9855  141.4479  156.0204 H   0  0  0  0  0  0  0  0  0  0  0  0
  142.1208  139.9785  153.7011 H   0  0  0  0  0  0  0  0  0  0  0  0
  142.8446  138.6157  152.9738 H   0  0  0  0  0  0  0  0  0  0  0  0
  143.5519  136.4218  151.9915 H   0  0  0  0  0  0  0  0  0  0  0  0
  142.8468  133.2217  153.5659 H   0  0  0  0  0  0  0  0  0  0  0  0
  142.9283  134.4639  150.9278 H   0  0  0  0  0  0  0  0  0  0  0  0
  143.4487  131.7516  151.9610 H   0  0  0  0  0  0  0  0  0  0  0  0
  143.1422  132.3039  150.3127 H   0  0  0  0  0  0  0  0  0  0  0  0
  145.5192  131.7135  150.1741 H   0  0  0  0  0  0  0  0  0  0  0  0
  145.7178  131.6792  152.8982 H   0  0  0  0  0  0  0  0  0  0  0  0
  147.1156  132.2382  151.9707 H   0  0  0  0  0  0  0  0  0  0  0  0
  145.4629  133.8975  153.7167 H   0  0  0  0  0  0  0  0  0  0  0  0
  146.8489  134.3756  152.7376 H   0  0  0  0  0  0  0  0  0  0  0  0
  145.0406  135.5645  151.5810 H   0  0  0  0  0  0  0  0  0  0  0  0
  1  2  1  0  0  0  0
  1 20  1  0  0  0  0
  1 21  1  0  0  0  0
  1 22  1  0  0  0  0
  2  3  1  0  0  0  0
  2 23  1  0  0  0  0
  2 24  1  0  0  0  0
  3  4  1  0  0  0  0
  3 25  1  0  0  0  0
  4  5  2  0  0  0  0
  4  6  1  0  0  0  0
  6 19  1  0  0  0  0
  6  7  2  0  0  0  0
  7  8  1  0  0  0  0
  7 26  1  0  0  0  0
  8  9  2  0  0  0  0
  8 27  1  0  0  0  0
  9 10  1  0  0  0  0
  9 18  1  0  0  0  0
 10 11  1  0  0  0  0
 10 28  1  0  0  0  0
 11 16  1  0  0  0  0
 11 12  1  0  0  0  0
 11 29  1  0  0  0  0
 12 13  1  0  0  0  0
 12 30  1  0  0  0  0
 12 31  1  0  0  0  0
 13 17  1  0  0  0  0
 13 14  1  0  0  0  0
 13 32  1  0  0  0  0
 14 15  1  0  0  0  0
 14 33  1  0  0  0  0
 14 34  1  0  0  0  0
 15 16  1  0  0  0  0
 15 35  1  0  0  0  0
 15 36  1  0  0  0  0
 16 17  1  0  0  0  0
 16 37  1  0  0  0  0
 18 19  2  0  0  0  0
M  END
> <s_m_source_file>
AV-unprocessed.smi

> <i_m_source_file_index>
2893

> <i_lp_mmshare_version>
43012

> <i_f3d_flags>
0

> <s_epik_input>
W0NIM11bQ0gyXVtOSF1DKD1PKWMxW2NIXVtjSF1jKG5uMSlbTkhdW0NASF0oW0NIMl1bQ0BASF0yMylbQ0BASF0oTzMpW0NIMl1bQ0gyXTI=

> <s_epik_cmdline>
J2VwaWtfcHl0aG9uJywgJy1waCcsICc3LjAnLCAnLXRuJywgJzgnLCAnLW1hJywgJzIwMCcsICctbWV0YWxfYmluZGluZycsICctaW1hZScsICc8aW5maWxlLm1hZT4nLCAnLW9tYWUnLCAnPG91dGZpbGUubWFlPic=

> <r_lp_tautomer_probability>
1

> <r_epik_Ionization_Penalty>
0.00432031

> <r_epik_Ionization_Penalty_Charging>
0

> <r_epik_Ionization_Penalty_Neutral>
0.00432031

> <r_epik_State_Penalty>
-0

> <r_epik_Charging_Adjusted_Penalty>
0

> <i_epik_Tot_Q>
0

> <i_epik_Tot_abs_Q>
0

> <r_epik_Metal_State_Penalty>
-0

> <b_epik_Metal_Only>
0

> <s_lp_Force_Field>
OPLS_2005

> <r_lp_Energy>
51.9869

> <b_lp_Chiralities_Consistent>
1

> <s_lp_Variant>
AV-unprocessed.smi:2893-3

> <Gold.Version>
5.8.1

> <Gold.Id.Protein>
6NUR|6NUR_protein|mol2

> <Gold.PLP.Fitness>
35.2964

> <Gold.PLP.PLP>
-28.0086

> <Gold.PLP.part.hbond>
-4.0000

> <Gold.PLP.part.metal>
0.0000

> <Gold.PLP.part.buried>
-5.6971

> <Gold.PLP.part.nonpolar>
-19.0410

> <Gold.PLP.part.repulsive>
0.5176

> <Gold.PLP.ligand.clash>
0.0000

> <Gold.PLP.ligand.torsion>
0.2346

> <Gold.PLP.Chemscore.Hbond>
2.5776

> <Gold.PLP.Chemscore.CHOScore>
0.0000

> <Gold.PLP.Chemscore.Metal>
0.0000

> <Gold.Chemscore.Hbonds>
donor molecule, donor type, donor heavy atom, donor atom, acceptor molecule, acceptor atom, score
      L1  H     3    25       P1 10175  1.00
      L1  H    10    28       P1 10957  1.00
      P1  H 11000 11005       L1    18  0.56

> <Gold.PLP.Chemscore.Internal.Correction>
0.0244

> <Gold.Rescore>
     Score         DG    S(hbond)    S(metal)    S(lipo)     H(rot)  DE(clash)    DE(int)     intcor
     15.79     -16.10       2.27        0.00      52.44       1.21       0.03       0.28       ----

> <Gold.Chemscore.Fitness>
15.7880

> <Gold.Chemscore.DG>
-16.1025

> <Gold.Chemscore.ZeroCoef>
-5.4800

> <Gold.Chemscore.Hbond>
2.2680

> <Gold.Chemscore.Metal>
0.0000

> <Gold.Chemscore.Lipo>
52.4374

> <Gold.Chemscore.Internal_Hbond>
0.0000

> <Gold.Chemscore.DEClash>
0.0317

> <Gold.Chemscore.DEInternal>
0.2829

> <Gold.Chemscore.Rot>
1.2061

> <Gold.Chemscore.Internal.Correction>
   9.000000E+99

> <Gold.Chemscore.Hbonds>
donor molecule, donor type, donor heavy atom, donor atom, acceptor molecule, acceptor atom, score
      L1  H     3    25       P1 10175  0.79
      L1  H    10    28       P1 10957  0.98
      P1  H 11000 11005       L1    18  0.12

> <Gold.Chemscore.Hbond.Weighted>
-7.5750

> <Gold.Chemscore.Metal.Weighted>
-0.0000

> <Gold.Chemscore.Lipo.Weighted>
-6.1352

> <Gold.Chemscore.Internal_Hbond.Weighted>
0.0000

> <Gold.Chemscore.DEClash.Weighted>
0.0317

> <Gold.Chemscore.DEInternal.Weighted>
0.2829

> <Gold.Chemscore.Rot.Weighted>
3.0876

> <Gold.Chemscore.Internal.Correction.Weighted>
   9.000000E+99

> <Gold.Protein.RotatedTorsions>
[ 6907 6896 6895 6894 ] final   76.32 input  -60.11 | X-H torsion
[ 7974 7965 7964 7962 ] final   49.20 input  175.53 | X-H torsion
[ 8008 7997 7996 7995 ] final  169.40 input   59.86 | X-H torsion
[ 10167 10162 10161 10158 ] final   40.25 input  -65.29 | X-H torsion
[ 10718 10713 10712 10709 ] final -168.72 input   66.30 | X-H torsion
[ 10763 10752 10751 10750 ] final  161.09 input  -60.55 | X-H torsion
[ 11005 11000 10999 10996 ] final    8.15 input  -57.11 | X-H torsion

> <Gold.Protein.ActiveResidues>
 VAL166  LYS551  ARG553  GLY616  TRP617  ASP618  TYR619  PRO620  LYS621  CYS622 
 ASP623  PHE694  ASN695  SER759  ASP760  ASP761  ALA762  ILE779  LEU786  VAL792 
 PHE793  MET794  SER795  GLU796  ALA797  LYS798  CYS799  TRP800  GLU811  SER814 

> <Gold.Protein.RotatedAtoms>
  152.5067  134.3987  159.9408 H   0  0  0  0  0  0  0  0  0  0  0  0  # atno 6907 bound_to 6896
  151.3950  133.3770  159.2733 H   0  0  0  0  0  0  0  0  0  0  0  0  # atno 6908 bound_to 6896
  150.9404  134.8834  159.7667 H   0  0  0  0  0  0  0  0  0  0  0  0  # atno 6909 bound_to 6896
  146.0132  139.4566  142.9943 H   0  0  0  0  0  0  0  0  0  0  0  0  # atno 7974 bound_to 7965
  156.1461  140.1565  156.8844 H   0  0  0  0  0  0  0  0  0  0  0  0  # atno 8008 bound_to 7997
  154.5029  140.0820  156.7873 H   0  0  0  0  0  0  0  0  0  0  0  0  # atno 8009 bound_to 7997
  155.3986  140.3413  155.4258 H   0  0  0  0  0  0  0  0  0  0  0  0  # atno 8010 bound_to 7997
  140.3760  144.2042  150.6131 H   0  0  0  0  0  0  0  0  0  0  0  0  # atno 10167 bound_to 10162
  156.7010  130.9196  151.3079 H   0  0  0  0  0  0  0  0  0  0  0  0  # atno 10718 bound_to 10713
  154.2576  135.2769  155.2791 H   0  0  0  0  0  0  0  0  0  0  0  0  # atno 10763 bound_to 10752
  154.5411  135.5702  153.6844 H   0  0  0  0  0  0  0  0  0  0  0  0  # atno 10764 bound_to 10752
  152.9968  135.6251  154.2725 H   0  0  0  0  0  0  0  0  0  0  0  0  # atno 10765 bound_to 10752
  140.5402  134.0382  155.7901 H   0  0  0  0  0  0  0  0  0  0  0  0  # atno 11005 bound_to 11000
  145.7310  141.0042  143.1352 LP  0  0  0  0  0  0  0  0  0  0  0  0  # atno 17320 bound_to 7965
  144.6961  139.8984  143.7457 LP  0  0  0  0  0  0  0  0  0  0  0  0  # atno 17321 bound_to 7965
  140.4985  143.2325  151.8713 LP  0  0  0  0  0  0  0  0  0  0  0  0  # atno 17342 bound_to 10162
  139.4799  144.5086  151.8964 LP  0  0  0  0  0  0  0  0  0  0  0  0  # atno 17343 bound_to 10162
  157.6973  130.9295  150.0681 LP  0  0  0  0  0  0  0  0  0  0  0  0  # atno 17370 bound_to 10713
  156.1729  130.3647  149.9141 LP  0  0  0  0  0  0  0  0  0  0  0  0  # atno 17371 bound_to 10713
  141.1231  133.9427  157.2689 LP  0  0  0  0  0  0  0  0  0  0  0  0  # atno 17394 bound_to 11000
  139.9508  135.0176  156.8988 LP  0  0  0  0  0  0  0  0  0  0  0  0  # atno 17395 bound_to 11000

$$$$
