AV-unprocessed.smi:31|AV-procd|sdf|195|dock2
  -GOLD-   2262015463D 1   1.00000     0.00000
 Structure written by MMmdl.
 49 52  0  0  0  0  0  0  0  0  1 V2000
  151.3401  137.1956  159.8293 O   0  0  0  0  0  0  0  0  0  0  0  0
  150.9821  137.7857  158.8089 C   0  0  0  0  0  0  0  0  0  0  0  0
  152.0129  138.4928  157.9143 C   0  0  0  0  0  0  0  0  0  0  0  0
  151.6309  139.8757  157.5528 N   0  0  0  0  0  0  0  0  0  0  0  0
  150.6408  140.0722  156.5581 C   0  0  0  0  0  0  0  0  0  0  0  0
  150.1141  139.1182  155.9835 O   0  0  0  0  0  0  0  0  0  0  0  0
  150.2929  141.4615  156.2816 C   0  0  0  0  0  0  0  0  0  0  0  0
  149.3596  141.7426  155.3563 F   0  0  0  0  0  0  0  0  0  0  0  0
  150.8896  142.4724  156.9458 C   0  0  0  0  0  0  0  0  0  0  0  0
  151.8557  142.2656  157.9134 N   0  0  0  0  0  0  0  0  0  0  0  0
  152.4861  143.4219  158.6575 C   0  0  2  0  0  0  0  0  0  0  0  0
  152.1330  143.3473  160.1472 C   0  0  0  0  0  0  0  0  0  0  0  0
  150.9091  144.2335  160.2212 C   0  0  0  0  0  0  0  0  0  0  0  0
  151.2409  145.3005  159.1844 C   0  0  0  0  0  0  0  0  0  0  0  0
  151.9674  144.6231  158.1620 O   0  0  0  0  0  0  0  0  0  0  0  0
  152.2398  140.9487  158.2465 C   0  0  0  0  0  0  0  0  0  0  0  0
  153.0757  140.7403  159.1287 O   0  0  0  0  0  0  0  0  0  0  0  0
  149.7096  137.8559  158.3777 N   0  0  0  0  0  0  0  0  0  0  0  0
  148.5451  137.2957  158.9687 C   0  0  0  0  0  0  0  0  0  0  0  0
  147.2991  137.6935  158.4490 C   0  0  0  0  0  0  0  0  0  0  0  0
  146.1075  137.1732  158.9848 C   0  0  0  0  0  0  0  0  0  0  0  0
  146.1355  136.2555  160.0536 C   0  0  0  0  0  0  0  0  0  0  0  0
  147.3893  135.9042  160.6349 C   0  0  0  0  0  0  0  0  0  0  0  0
  148.5783  136.4116  160.0724 C   0  0  0  0  0  0  0  0  0  0  0  0
  147.5319  135.1026  161.7465 O   0  0  0  0  0  0  0  0  0  0  0  0
  146.5078  135.2009  162.7253 C   0  0  0  0  0  0  0  0  0  0  0  0
  145.3211  134.3004  162.3761 C   0  0  0  0  0  0  0  0  0  0  0  0
  144.9314  134.3938  160.8995 C   0  0  0  0  0  0  0  0  0  0  0  0
  144.9218  135.7429  160.4563 O   0  0  0  0  0  0  0  0  0  0  0  0
  152.9804  138.4824  158.4191 H   0  0  0  0  0  0  0  0  0  0  0  0
  152.1729  137.8805  157.0256 H   0  0  0  0  0  0  0  0  0  0  0  0
  150.5851  143.4800  156.7050 H   0  0  0  0  0  0  0  0  0  0  0  0
  153.5563  143.3712  158.4512 H   0  0  0  0  0  0  0  0  0  0  0  0
  151.9641  142.3243  160.4862 H   0  0  0  0  0  0  0  0  0  0  0  0
  152.9531  143.7797  160.7215 H   0  0  0  0  0  0  0  0  0  0  0  0
  150.0203  143.6766  159.9221 H   0  0  0  0  0  0  0  0  0  0  0  0
  150.7361  144.6441  161.2162 H   0  0  0  0  0  0  0  0  0  0  0  0
  150.3523  145.7906  158.7864 H   0  0  0  0  0  0  0  0  0  0  0  0
  151.8843  146.0654  159.6210 H   0  0  0  0  0  0  0  0  0  0  0  0
  149.5717  138.2950  157.4790 H   0  0  0  0  0  0  0  0  0  0  0  0
  147.2510  138.3856  157.6207 H   0  0  0  0  0  0  0  0  0  0  0  0
  145.1606  137.4624  158.5532 H   0  0  0  0  0  0  0  0  0  0  0  0
  149.5145  136.1340  160.5315 H   0  0  0  0  0  0  0  0  0  0  0  0
  146.9193  134.9060  163.6908 H   0  0  0  0  0  0  0  0  0  0  0  0
  146.1875  136.2385  162.8392 H   0  0  0  0  0  0  0  0  0  0  0  0
  145.5572  133.2629  162.6141 H   0  0  0  0  0  0  0  0  0  0  0  0
  144.4728  134.5751  163.0035 H   0  0  0  0  0  0  0  0  0  0  0  0
  145.6033  133.7944  160.2819 H   0  0  0  0  0  0  0  0  0  0  0  0
  143.9365  133.9723  160.7560 H   0  0  0  0  0  0  0  0  0  0  0  0
  1  2  2  0  0  0  0
  2  3  1  0  0  0  0
  2 18  1  0  0  0  0
  3  4  1  0  0  0  0
  3 30  1  0  0  0  0
  3 31  1  0  0  0  0
  4 16  1  0  0  0  0
  4  5  1  0  0  0  0
  5  6  2  0  0  0  0
  5  7  1  0  0  0  0
  7  8  1  0  0  0  0
  7  9  2  0  0  0  0
  9 10  1  0  0  0  0
  9 32  1  0  0  0  0
 10 11  1  0  0  0  0
 10 16  1  0  0  0  0
 11 15  1  0  0  0  0
 11 12  1  0  0  0  0
 11 33  1  0  0  0  0
 12 13  1  0  0  0  0
 12 34  1  0  0  0  0
 12 35  1  0  0  0  0
 13 14  1  0  0  0  0
 13 36  1  0  0  0  0
 13 37  1  0  0  0  0
 14 15  1  0  0  0  0
 14 38  1  0  0  0  0
 14 39  1  0  0  0  0
 16 17  2  0  0  0  0
 18 19  1  0  0  0  0
 18 40  1  0  0  0  0
 19 24  1  0  0  0  0
 19 20  2  0  0  0  0
 20 21  1  0  0  0  0
 20 41  1  0  0  0  0
 21 22  2  0  0  0  0
 21 42  1  0  0  0  0
 22 29  1  0  0  0  0
 22 23  1  0  0  0  0
 23 24  2  0  0  0  0
 23 25  1  0  0  0  0
 24 43  1  0  0  0  0
 25 26  1  0  0  0  0
 26 27  1  0  0  0  0
 26 44  1  0  0  0  0
 26 45  1  0  0  0  0
 27 28  1  0  0  0  0
 27 46  1  0  0  0  0
 27 47  1  0  0  0  0
 28 29  1  0  0  0  0
 28 48  1  0  0  0  0
 28 49  1  0  0  0  0
M  END
> <s_m_source_file>
AV-unprocessed.smi

> <i_m_source_file_index>
31

> <i_lp_mmshare_version>
43012

> <i_f3d_flags>
0

> <s_epik_input>
TzFbQ0gyXVtDSDJdW0NIMl1PYyhjMTIpW2NIXWMoW2NIXVtjSF0yKVtOSF1DKD1PKVtDSDJdbjNjKD1PKWMoRilbY0hdbihjMz1PKVtDQEBIXTRbQ0gyXVtDSDJdW0NIMl1PNA==

> <s_epik_cmdline>
J2VwaWtfcHl0aG9uJywgJy1waCcsICc3LjAnLCAnLXRuJywgJzgnLCAnLW1hJywgJzIwMCcsICctbWV0YWxfYmluZGluZycsICctaW1hZScsICc8aW5maWxlLm1hZT4nLCAnLW9tYWUnLCAnPG91dGZpbGUubWFlPic=

> <r_lp_tautomer_probability>
1

> <r_epik_Ionization_Penalty>
1.0483e-05

> <r_epik_Ionization_Penalty_Charging>
3.88729e-08

> <r_epik_Ionization_Penalty_Neutral>
1.04441e-05

> <r_epik_State_Penalty>
-0

> <r_epik_Charging_Adjusted_Penalty>
3.88729e-08

> <i_epik_Tot_Q>
0

> <i_epik_Tot_abs_Q>
0

> <r_epik_Metal_State_Penalty>
-0

> <b_epik_Metal_Only>
0

> <s_epik_Chemistry_Notes>
This compound contains an acetal/aminal-like group ( X-CH(R)-Y where X, Y are N, S, or O) that may be acid/base labile, releasing an aldehyde.

> <s_lp_Force_Field>
OPLS_2005

> <r_lp_Energy>
45.2544

> <b_lp_Chiralities_Consistent>
1

> <s_lp_Variant>
AV-unprocessed.smi:31-1

> <Gold.Version>
5.8.1

> <Gold.Id.Protein>
6NUR|6NUR_protein|mol2

> <Gold.PLP.Fitness>
51.8496

> <Gold.PLP.PLP>
-46.5524

> <Gold.PLP.part.hbond>
-0.9792

> <Gold.PLP.part.metal>
0.0000

> <Gold.PLP.part.buried>
-7.8976

> <Gold.PLP.part.nonpolar>
-38.8652

> <Gold.PLP.part.repulsive>
0.2225

> <Gold.PLP.ligand.clash>
0.0000

> <Gold.PLP.ligand.torsion>
0.3797

> <Gold.PLP.Chemscore.Hbond>
1.0000

> <Gold.PLP.Chemscore.CHOScore>
1.0000

> <Gold.PLP.Chemscore.Metal>
0.0000

> <Gold.Chemscore.Hbonds>
donor molecule, donor type, donor heavy atom, donor atom, acceptor molecule, acceptor atom, score
      P1  H  6896  6909       L1     1  0.99
      L1  C     9    32       P1  8028  1.00

> <Gold.PLP.Chemscore.Internal.Correction>
0.0565

> <Gold.Rescore>
     Score         DG    S(hbond)    S(metal)    S(lipo)     H(rot)  DE(clash)    DE(int)     intcor
     12.02     -16.11       0.99        0.00      98.56       1.64       0.16       3.93       ----

> <Gold.Chemscore.Fitness>
12.0154

> <Gold.Chemscore.DG>
-16.1064

> <Gold.Chemscore.ZeroCoef>
-5.4800

> <Gold.Chemscore.Hbond>
0.9880

> <Gold.Chemscore.Metal>
0.0000

> <Gold.Chemscore.Lipo>
98.5640

> <Gold.Chemscore.Internal_Hbond>
0.0000

> <Gold.Chemscore.DEClash>
0.1602

> <Gold.Chemscore.DEInternal>
3.9309

> <Gold.Chemscore.Rot>
1.6427

> <Gold.Chemscore.Internal.Correction>
   9.000000E+99

> <Gold.Chemscore.Hbonds>
donor molecule, donor type, donor heavy atom, donor atom, acceptor molecule, acceptor atom, score
      P1  H  6896  6909       L1     1  0.92

> <Gold.Chemscore.Hbond.Weighted>
-3.2998

> <Gold.Chemscore.Metal.Weighted>
-0.0000

> <Gold.Chemscore.Lipo.Weighted>
-11.5320

> <Gold.Chemscore.Internal_Hbond.Weighted>
0.0000

> <Gold.Chemscore.DEClash.Weighted>
0.1602

> <Gold.Chemscore.DEInternal.Weighted>
3.9309

> <Gold.Chemscore.Rot.Weighted>
4.2053

> <Gold.Chemscore.Internal.Correction.Weighted>
   9.000000E+99

> <Gold.Protein.RotatedTorsions>
[ 6907 6896 6895 6894 ] final  115.19 input  -60.11 | X-H torsion
[ 7974 7965 7964 7962 ] final   45.05 input  175.53 | X-H torsion
[ 8008 7997 7996 7995 ] final   66.72 input   59.86 | X-H torsion
[ 10167 10162 10161 10158 ] final  -21.01 input  -65.29 | X-H torsion
[ 10718 10713 10712 10709 ] final  -31.75 input   66.30 | X-H torsion
[ 10763 10752 10751 10750 ] final   51.32 input  -60.55 | X-H torsion
[ 11005 11000 10999 10996 ] final  125.54 input  -57.11 | X-H torsion

> <Gold.Protein.ActiveResidues>
 VAL166  LYS551  ARG553  GLY616  TRP617  ASP618  TYR619  PRO620  LYS621  CYS622 
 ASP623  PHE694  ASN695  SER759  ASP760  ASP761  ALA762  ILE779  LEU786  VAL792 
 PHE793  MET794  SER795  GLU796  ALA797  LYS798  CYS799  TRP800  GLU811  SER814 

> <Gold.Protein.RotatedAtoms>
  152.4756  133.8132  159.7013 H   0  0  0  0  0  0  0  0  0  0  0  0  # atno 6907 bound_to 6896
  150.8772  133.7413  159.2949 H   0  0  0  0  0  0  0  0  0  0  0  0  # atno 6908 bound_to 6896
  151.4929  135.1062  159.9860 H   0  0  0  0  0  0  0  0  0  0  0  0  # atno 6909 bound_to 6896
  146.0514  139.5007  142.9716 H   0  0  0  0  0  0  0  0  0  0  0  0  # atno 7974 bound_to 7965
  155.6818  140.3496  155.4858 H   0  0  0  0  0  0  0  0  0  0  0  0  # atno 8008 bound_to 7997
  155.9600  140.1135  157.0926 H   0  0  0  0  0  0  0  0  0  0  0  0  # atno 8009 bound_to 7997
  154.4141  140.1177  156.5152 H   0  0  0  0  0  0  0  0  0  0  0  0  # atno 8010 bound_to 7997
  140.7279  143.4668  151.0302 H   0  0  0  0  0  0  0  0  0  0  0  0  # atno 10167 bound_to 10162
  156.3834  130.4360  149.7451 H   0  0  0  0  0  0  0  0  0  0  0  0  # atno 10718 bound_to 10713
  152.9785  135.5849  154.4397 H   0  0  0  0  0  0  0  0  0  0  0  0  # atno 10763 bound_to 10752
  154.4000  135.2768  155.2104 H   0  0  0  0  0  0  0  0  0  0  0  0  # atno 10764 bound_to 10752
  154.3940  135.6119  153.5913 H   0  0  0  0  0  0  0  0  0  0  0  0  # atno 10765 bound_to 10752
  139.9411  134.9635  156.8573 H   0  0  0  0  0  0  0  0  0  0  0  0  # atno 11005 bound_to 11000
  145.6717  141.0215  143.1654 LP  0  0  0  0  0  0  0  0  0  0  0  0  # atno 17320 bound_to 7965
  144.7125  139.8318  143.7410 LP  0  0  0  0  0  0  0  0  0  0  0  0  # atno 17321 bound_to 7965
  139.8357  143.7631  152.3180 LP  0  0  0  0  0  0  0  0  0  0  0  0  # atno 17342 bound_to 10162
  139.7762  144.7460  151.0153 LP  0  0  0  0  0  0  0  0  0  0  0  0  # atno 17343 bound_to 10162
  156.4533  130.7917  151.2938 LP  0  0  0  0  0  0  0  0  0  0  0  0  # atno 17370 bound_to 10713
  157.7494  131.0089  150.3245 LP  0  0  0  0  0  0  0  0  0  0  0  0  # atno 17371 bound_to 10713
  140.5949  134.0227  155.7514 LP  0  0  0  0  0  0  0  0  0  0  0  0  # atno 17394 bound_to 11000
  141.1046  133.9714  157.3019 LP  0  0  0  0  0  0  0  0  0  0  0  0  # atno 17395 bound_to 11000

$$$$
