AV-unprocessed.smi:170|AV-procd|sdf|1412|dock5
  -GOLD-   2262019173D 1   1.00000     0.00000
 Structure written by MMmdl.
 57 61  0  0  0  0  0  0  0  0  1 V2000
  148.9136  139.1451  153.3707 O   0  0  0  0  0  0  0  0  0  0  0  0
  147.9229  140.0658  153.7888 C   0  0  2  0  0  0  0  0  0  0  0  0
  148.5614  141.3950  154.2373 C   0  0  0  0  0  0  0  0  0  0  0  0
  149.3297  141.2508  155.4610 N   0  0  0  0  0  0  0  0  0  0  0  0
  149.0275  141.7911  156.6907 C   0  0  0  0  0  0  0  0  0  0  0  0
  149.8845  141.5285  157.6399 N   0  0  0  0  0  0  0  0  0  0  0  0
  150.8494  140.7488  157.0142 C   0  0  0  0  0  0  0  0  0  0  0  0
  152.0545  140.1359  157.4475 C   0  0  0  0  0  0  0  0  0  0  0  0
  152.4825  140.2315  158.7287 N   0  0  0  0  0  0  0  0  0  0  0  0
  153.3006  139.0715  159.0665 C   0  0  0  0  0  0  0  0  0  0  0  0
  153.6470  139.0748  160.5604 C   0  0  0  0  0  0  0  0  0  0  0  0
  154.3027  140.2948  160.8753 O   0  0  0  0  0  0  0  0  0  0  0  0
  153.4616  141.4196  160.6493 C   0  0  0  0  0  0  0  0  0  0  0  0
  153.0595  141.5140  159.1576 C   0  0  2  0  0  0  0  0  0  0  0  0
  152.0905  142.7020  158.9149 C   0  0  0  0  0  0  0  0  0  0  0  0
  152.5336  144.0146  159.5591 C   0  0  0  0  0  0  0  0  0  0  0  0
  151.9465  144.4331  160.9154 C   0  0  0  0  0  0  0  0  0  0  0  0
  152.0153  145.8883  160.4432 C   0  0  0  0  0  0  0  0  0  0  0  0
  152.0162  145.3526  159.0089 C   0  0  0  0  0  0  0  0  0  0  0  0
  152.7620  139.4136  156.5377 N   0  0  0  0  0  0  0  0  0  0  0  0
  152.3268  139.3164  155.2776 C   0  0  0  0  0  0  0  0  0  0  0  0
  151.2303  139.8454  154.7293 N   0  0  0  0  0  0  0  0  0  0  0  0
  150.5136  140.5589  155.6450 C   0  0  0  0  0  0  0  0  0  0  0  0
  147.0279  139.4305  154.8725 C   0  0  1  0  0  0  0  0  0  0  0  0
  146.3237  138.1237  154.4696 C   0  0  0  0  0  0  0  0  0  0  0  0
  146.9111  137.0964  155.4185 C   0  0  0  0  0  0  0  0  0  0  0  0
  147.2840  137.9464  156.6254 C   0  0  0  0  0  0  0  0  0  0  0  0
  147.7915  139.1348  156.0402 O   0  0  0  0  0  0  0  0  0  0  0  0
  149.2839  139.4553  152.5581 H   0  0  0  0  0  0  0  0  0  0  0  0
  147.2997  140.2633  152.9156 H   0  0  0  0  0  0  0  0  0  0  0  0
  149.2248  141.7756  153.4597 H   0  0  0  0  0  0  0  0  0  0  0  0
  147.7969  142.1569  154.3944 H   0  0  0  0  0  0  0  0  0  0  0  0
  148.1480  142.3951  156.8606 H   0  0  0  0  0  0  0  0  0  0  0  0
  152.7721  138.1501  158.8165 H   0  0  0  0  0  0  0  0  0  0  0  0
  154.2168  139.0879  158.4739 H   0  0  0  0  0  0  0  0  0  0  0  0
  152.7515  138.9545  161.1721 H   0  0  0  0  0  0  0  0  0  0  0  0
  154.3104  138.2423  160.7946 H   0  0  0  0  0  0  0  0  0  0  0  0
  152.5791  141.3559  161.2885 H   0  0  0  0  0  0  0  0  0  0  0  0
  154.0127  142.3074  160.9577 H   0  0  0  0  0  0  0  0  0  0  0  0
  153.9691  141.6803  158.5785 H   0  0  0  0  0  0  0  0  0  0  0  0
  151.9680  142.8719  157.8457 H   0  0  0  0  0  0  0  0  0  0  0  0
  151.0980  142.4350  159.2798 H   0  0  0  0  0  0  0  0  0  0  0  0
  153.6215  144.0650  159.6332 H   0  0  0  0  0  0  0  0  0  0  0  0
  150.9215  144.0877  161.0612 H   0  0  0  0  0  0  0  0  0  0  0  0
  152.5746  144.2015  161.7761 H   0  0  0  0  0  0  0  0  0  0  0  0
  151.1485  146.4959  160.7046 H   0  0  0  0  0  0  0  0  0  0  0  0
  152.9523  146.3779  160.7135 H   0  0  0  0  0  0  0  0  0  0  0  0
  152.7009  145.8613  158.3294 H   0  0  0  0  0  0  0  0  0  0  0  0
  151.0127  145.2774  158.5866 H   0  0  0  0  0  0  0  0  0  0  0  0
  152.9451  138.7299  154.6140 H   0  0  0  0  0  0  0  0  0  0  0  0
  146.2653  140.1549  155.1628 H   0  0  0  0  0  0  0  0  0  0  0  0
  145.2502  138.2161  154.6403 H   0  0  0  0  0  0  0  0  0  0  0  0
  146.4661  137.8512  153.4233 H   0  0  0  0  0  0  0  0  0  0  0  0
  146.2178  136.2905  155.6603 H   0  0  0  0  0  0  0  0  0  0  0  0
  147.8094  136.6568  154.9828 H   0  0  0  0  0  0  0  0  0  0  0  0
  146.4023  138.1810  157.2242 H   0  0  0  0  0  0  0  0  0  0  0  0
  148.0224  137.4674  157.2688 H   0  0  0  0  0  0  0  0  0  0  0  0
  1  2  1  0  0  0  0
  1 29  1  0  0  0  0
  2  3  1  0  0  0  0
  2 24  1  0  0  0  0
  2 30  1  0  0  0  0
  3  4  1  0  0  0  0
  3 31  1  0  0  0  0
  3 32  1  0  0  0  0
  4 23  1  0  0  0  0
  4  5  1  0  0  0  0
  5  6  2  0  0  0  0
  5 33  1  0  0  0  0
  6  7  1  0  0  0  0
  7 23  2  0  0  0  0
  7  8  1  0  0  0  0
  8  9  1  0  0  0  0
  8 20  2  0  0  0  0
  9 14  1  0  0  0  0
  9 10  1  0  0  0  0
 10 11  1  0  0  0  0
 10 34  1  0  0  0  0
 10 35  1  0  0  0  0
 11 12  1  0  0  0  0
 11 36  1  0  0  0  0
 11 37  1  0  0  0  0
 12 13  1  0  0  0  0
 13 14  1  0  0  0  0
 13 38  1  0  0  0  0
 13 39  1  0  0  0  0
 14 15  1  0  0  0  0
 14 40  1  0  0  0  0
 15 16  1  0  0  0  0
 15 41  1  0  0  0  0
 15 42  1  0  0  0  0
 16 19  1  0  0  0  0
 16 17  1  0  0  0  0
 16 43  1  0  0  0  0
 17 18  1  0  0  0  0
 17 44  1  0  0  0  0
 17 45  1  0  0  0  0
 18 19  1  0  0  0  0
 18 46  1  0  0  0  0
 18 47  1  0  0  0  0
 19 48  1  0  0  0  0
 19 49  1  0  0  0  0
 20 21  1  0  0  0  0
 21 22  2  0  0  0  0
 21 50  1  0  0  0  0
 22 23  1  0  0  0  0
 24 28  1  0  0  0  0
 24 25  1  0  0  0  0
 24 51  1  0  0  0  0
 25 26  1  0  0  0  0
 25 52  1  0  0  0  0
 25 53  1  0  0  0  0
 26 27  1  0  0  0  0
 26 54  1  0  0  0  0
 26 55  1  0  0  0  0
 27 28  1  0  0  0  0
 27 56  1  0  0  0  0
 27 57  1  0  0  0  0
M  END
> <s_m_source_file>
AV-unprocessed.smi

> <i_m_source_file_index>
170

> <i_lp_mmshare_version>
43012

> <i_f3d_flags>
0

> <s_epik_input>
TzFbQ0gyXVtDSDJdW0NIMl1bQ0BIXTFbQ0BIXShbT0hdKVtDSDJdbihbY0hdbjIpYyhjMjMpbltjSF1uYzNONFtDSDJdW0NIMl1PW0NIMl1bQ0BIXTRbQ0gyXVtDSF01W0NIMl1bQ0gyXVtDSDJdNQ==

> <s_epik_cmdline>
J2VwaWtfcHl0aG9uJywgJy1waCcsICc3LjAnLCAnLXRuJywgJzgnLCAnLW1hJywgJzIwMCcsICctbWV0YWxfYmluZGluZycsICctaW1hZScsICc8aW5maWxlLm1hZT4nLCAnLW9tYWUnLCAnPG91dGZpbGUubWFlPic=

> <r_lp_tautomer_probability>
1

> <r_epik_Ionization_Penalty>
4.98275e-05

> <r_epik_Ionization_Penalty_Charging>
0

> <r_epik_Ionization_Penalty_Neutral>
4.98275e-05

> <r_epik_State_Penalty>
-0

> <r_epik_Charging_Adjusted_Penalty>
0

> <i_epik_Tot_Q>
0

> <i_epik_Tot_abs_Q>
0

> <r_epik_Metal_State_Penalty>
-0

> <b_epik_Metal_Only>
0

> <s_lp_Force_Field>
OPLS_2005

> <r_lp_Energy>
52.9545

> <b_lp_Chiralities_Consistent>
1

> <s_lp_Variant>
AV-unprocessed.smi:170-7

> <Gold.Version>
5.8.1

> <Gold.Id.Protein>
6NUR|6NUR_protein|mol2

> <Gold.PLP.Fitness>
59.1653

> <Gold.PLP.PLP>
-51.5443

> <Gold.PLP.part.hbond>
-3.5939

> <Gold.PLP.part.metal>
0.0000

> <Gold.PLP.part.buried>
-4.6689

> <Gold.PLP.part.nonpolar>
-43.2096

> <Gold.PLP.part.repulsive>
0.1241

> <Gold.PLP.ligand.clash>
0.1773

> <Gold.PLP.ligand.torsion>
1.0668

> <Gold.PLP.Chemscore.Hbond>
3.0000

> <Gold.PLP.Chemscore.CHOScore>
0.2060

> <Gold.PLP.Chemscore.Metal>
0.0000

> <Gold.Chemscore.Hbonds>
donor molecule, donor type, donor heavy atom, donor atom, acceptor molecule, acceptor atom, score
      L1  H     1    29       P1  7957  1.00
      P1  H  7989  7998       L1    22  1.00
      P1  H  7997  8008       L1    20  1.00
      L1  C     5    33       P1  8028  0.24

> <Gold.PLP.Chemscore.Internal.Correction>
0.3138

> <Gold.Rescore>
     Score         DG    S(hbond)    S(metal)    S(lipo)     H(rot)  DE(clash)    DE(int)     intcor
     12.20     -18.58       1.92        0.00     114.40       2.61       0.23       6.14       ----

> <Gold.Chemscore.Fitness>
12.2023

> <Gold.Chemscore.DG>
-18.5784

> <Gold.Chemscore.ZeroCoef>
-5.4800

> <Gold.Chemscore.Hbond>
1.9182

> <Gold.Chemscore.Metal>
0.0000

> <Gold.Chemscore.Lipo>
114.3996

> <Gold.Chemscore.Internal_Hbond>
0.0000

> <Gold.Chemscore.DEClash>
0.2329

> <Gold.Chemscore.DEInternal>
6.1432

> <Gold.Chemscore.Rot>
2.6144

> <Gold.Chemscore.Internal.Correction>
   9.000000E+99

> <Gold.Chemscore.Hbonds>
donor molecule, donor type, donor heavy atom, donor atom, acceptor molecule, acceptor atom, score
      L1  H     1    29       P1  7957  0.94
      P1  H  7989  7998       L1    22  0.48
      P1  H  7997  8008       L1    20  0.29

> <Gold.Chemscore.Hbond.Weighted>
-6.4066

> <Gold.Chemscore.Metal.Weighted>
-0.0000

> <Gold.Chemscore.Lipo.Weighted>
-13.3848

> <Gold.Chemscore.Internal_Hbond.Weighted>
0.0000

> <Gold.Chemscore.DEClash.Weighted>
0.2329

> <Gold.Chemscore.DEInternal.Weighted>
6.1432

> <Gold.Chemscore.Rot.Weighted>
6.6929

> <Gold.Chemscore.Internal.Correction.Weighted>
   9.000000E+99

> <Gold.Protein.RotatedTorsions>
[ 6907 6896 6895 6894 ] final -144.31 input  -60.11 | X-H torsion
[ 7974 7965 7964 7962 ] final  159.59 input  175.53 | X-H torsion
[ 8008 7997 7996 7995 ] final  -45.87 input   59.86 | X-H torsion
[ 10167 10162 10161 10158 ] final  178.45 input  -65.29 | X-H torsion
[ 10718 10713 10712 10709 ] final  -38.99 input   66.30 | X-H torsion
[ 10763 10752 10751 10750 ] final -118.72 input  -60.55 | X-H torsion
[ 11005 11000 10999 10996 ] final   -0.59 input  -57.11 | X-H torsion

> <Gold.Protein.ActiveResidues>
 VAL166  LYS551  ARG553  GLY616  TRP617  ASP618  TYR619  PRO620  LYS621  CYS622 
 ASP623  PHE694  ASN695  SER759  ASP760  ASP761  ALA762  ILE779  LEU786  VAL792 
 PHE793  MET794  SER795  GLU796  ALA797  LYS798  CYS799  TRP800  GLU811  SER814 

> <Gold.Protein.RotatedAtoms>
  151.1123  133.5164  159.2604 H   0  0  0  0  0  0  0  0  0  0  0  0  # atno 6907 bound_to 6896
  151.1953  135.0419  159.8859 H   0  0  0  0  0  0  0  0  0  0  0  0  # atno 6908 bound_to 6896
  152.5451  134.0958  159.8350 H   0  0  0  0  0  0  0  0  0  0  0  0  # atno 6909 bound_to 6896
  144.7782  139.7638  143.6270 H   0  0  0  0  0  0  0  0  0  0  0  0  # atno 7974 bound_to 7965
  154.4003  140.1386  156.3918 H   0  0  0  0  0  0  0  0  0  0  0  0  # atno 8008 bound_to 7997
  155.7907  140.3479  155.5327 H   0  0  0  0  0  0  0  0  0  0  0  0  # atno 8009 bound_to 7997
  155.8582  140.0952  157.1621 H   0  0  0  0  0  0  0  0  0  0  0  0  # atno 8010 bound_to 7997
  139.5294  144.2679  152.0652 H   0  0  0  0  0  0  0  0  0  0  0  0  # atno 10167 bound_to 10162
  156.2975  130.4236  149.8176 H   0  0  0  0  0  0  0  0  0  0  0  0  # atno 10718 bound_to 10713
  154.8596  135.4264  154.2184 H   0  0  0  0  0  0  0  0  0  0  0  0  # atno 10763 bound_to 10752
  153.3194  135.6981  153.7050 H   0  0  0  0  0  0  0  0  0  0  0  0  # atno 10764 bound_to 10752
  153.6111  135.3519  155.2952 H   0  0  0  0  0  0  0  0  0  0  0  0  # atno 10765 bound_to 10752
  140.6380  133.9515  155.8310 H   0  0  0  0  0  0  0  0  0  0  0  0  # atno 11005 bound_to 11000
  146.1975  139.5250  142.9765 LP  0  0  0  0  0  0  0  0  0  0  0  0  # atno 17320 bound_to 7965
  145.6125  141.0337  143.1959 LP  0  0  0  0  0  0  0  0  0  0  0  0  # atno 17321 bound_to 7965
  140.2140  144.4534  150.6372 LP  0  0  0  0  0  0  0  0  0  0  0  0  # atno 17342 bound_to 10162
  140.6462  143.2214  151.6181 LP  0  0  0  0  0  0  0  0  0  0  0  0  # atno 17343 bound_to 10162
  156.5566  130.8365  151.3316 LP  0  0  0  0  0  0  0  0  0  0  0  0  # atno 17370 bound_to 10713
  157.7359  130.9770  150.2108 LP  0  0  0  0  0  0  0  0  0  0  0  0  # atno 17371 bound_to 10713
  141.0627  134.0322  157.3636 LP  0  0  0  0  0  0  0  0  0  0  0  0  # atno 17394 bound_to 11000
  139.9091  135.0186  156.7614 LP  0  0  0  0  0  0  0  0  0  0  0  0  # atno 17395 bound_to 11000

$$$$
