AV-unprocessed.smi:234|AV-procd|sdf|1792|dock1
  -GOLD-   2262020353D 1   1.00000     0.00000
 Structure written by MMmdl.
 59 62  0  0  0  0  0  0  0  0  1 V2000
  147.3913  127.4387  152.0445 C   0  0  0  0  0  0  0  0  0  0  0  0
  147.3584  128.4128  153.2294 C   0  0  0  0  0  0  0  0  0  0  0  0
  148.4592  128.1971  154.1012 O   0  0  0  0  0  0  0  0  0  0  0  0
  149.6596  128.8511  153.7006 C   0  0  1  0  0  0  0  0  0  0  0  0
  149.4340  130.3446  153.4398 C   0  0  0  0  0  0  0  0  0  0  0  0
  149.7222  130.5465  154.9328 C   0  0  2  0  0  0  0  0  0  0  0  0
  150.4823  131.7576  155.2466 N   0  0  0  0  0  0  0  0  0  0  0  0
  151.2082  131.7538  156.5095 C   0  0  0  0  0  0  0  0  0  0  0  0
  149.7858  132.9047  155.0921 C   0  0  0  0  0  0  0  0  0  0  0  0
  148.5532  132.8124  154.5358 N   0  0  0  0  0  0  0  0  0  0  0  0
  147.8115  133.9124  154.3733 C   0  0  0  0  0  0  0  0  0  0  0  0
  148.1081  135.1748  154.6906 N   0  0  0  0  0  0  0  0  0  0  0  0
  149.3514  135.2699  155.2440 C   0  0  0  0  0  0  0  0  0  0  0  0
  150.2540  134.1940  155.4728 C   0  0  0  0  0  0  0  0  0  0  0  0
  151.4305  134.6724  156.0362 N   0  0  0  0  0  0  0  0  0  0  0  0
  151.2322  135.9575  156.1410 C   0  0  0  0  0  0  0  0  0  0  0  0
  150.0033  136.4007  155.7053 N   0  0  0  0  0  0  0  0  0  0  0  0
  149.5152  137.7713  155.7240 C   0  0  0  0  0  0  0  0  0  0  0  0
  150.1498  138.6704  154.6335 C   0  0  2  0  0  0  0  0  0  0  0  0
  149.6032  138.3024  153.3785 O   0  0  0  0  0  0  0  0  0  0  0  0
  151.6704  138.4973  154.5598 C   0  0  0  0  0  0  0  0  0  0  0  0
  152.2178  139.8115  155.1034 C   0  0  0  0  0  0  0  0  0  0  0  0
  151.2562  140.7548  154.6662 O   0  0  0  0  0  0  0  0  0  0  0  0
  149.9765  140.1881  154.9088 C   0  0  1  0  0  0  0  0  0  0  0  0
  148.8975  140.9284  154.1006 C   0  0  0  0  0  0  0  0  0  0  0  0
  150.5579  129.2392  154.9040 C   0  0  0  0  0  0  0  0  0  0  0  0
  150.4592  128.3384  156.1377 C   0  0  0  0  0  0  0  0  0  0  0  0
  152.0517  129.3522  154.5562 C   0  0  0  0  0  0  0  0  0  0  0  0
  146.5104  127.5670  151.4155 H   0  0  0  0  0  0  0  0  0  0  0  0
  147.4042  126.4053  152.3911 H   0  0  0  0  0  0  0  0  0  0  0  0
  148.2678  127.5923  151.4159 H   0  0  0  0  0  0  0  0  0  0  0  0
  147.3197  129.4473  152.8859 H   0  0  0  0  0  0  0  0  0  0  0  0
  146.4464  128.2414  153.8010 H   0  0  0  0  0  0  0  0  0  0  0  0
  150.2015  128.3339  152.9080 H   0  0  0  0  0  0  0  0  0  0  0  0
  150.1860  130.7787  152.7789 H   0  0  0  0  0  0  0  0  0  0  0  0
  148.4245  130.6208  153.1350 H   0  0  0  0  0  0  0  0  0  0  0  0
  148.8184  130.4287  155.5336 H   0  0  0  0  0  0  0  0  0  0  0  0
  151.7639  132.6825  156.6451 H   0  0  0  0  0  0  0  0  0  0  0  0
  151.9235  130.9332  156.5418 H   0  0  0  0  0  0  0  0  0  0  0  0
  150.5228  131.6374  157.3499 H   0  0  0  0  0  0  0  0  0  0  0  0
  146.8396  133.7589  153.9283 H   0  0  0  0  0  0  0  0  0  0  0  0
  151.9806  136.6199  156.5512 H   0  0  0  0  0  0  0  0  0  0  0  0
  148.4315  137.7448  155.6019 H   0  0  0  0  0  0  0  0  0  0  0  0
  149.6991  138.1885  156.7153 H   0  0  0  0  0  0  0  0  0  0  0  0
  149.5154  139.0814  152.8508 H   0  0  0  0  0  0  0  0  0  0  0  0
  152.0384  137.6354  155.1178 H   0  0  0  0  0  0  0  0  0  0  0  0
  152.0028  138.3796  153.5269 H   0  0  0  0  0  0  0  0  0  0  0  0
  152.2557  139.7999  156.1939 H   0  0  0  0  0  0  0  0  0  0  0  0
  153.2133  140.0437  154.7247 H   0  0  0  0  0  0  0  0  0  0  0  0
  149.7799  140.3412  155.9707 H   0  0  0  0  0  0  0  0  0  0  0  0
  147.9135  140.4841  154.2545 H   0  0  0  0  0  0  0  0  0  0  0  0
  149.1125  140.9103  153.0320 H   0  0  0  0  0  0  0  0  0  0  0  0
  148.8386  141.9735  154.4047 H   0  0  0  0  0  0  0  0  0  0  0  0
  151.0793  128.7045  156.9562 H   0  0  0  0  0  0  0  0  0  0  0  0
  150.7782  127.3204  155.9127 H   0  0  0  0  0  0  0  0  0  0  0  0
  149.4380  128.2817  156.5150 H   0  0  0  0  0  0  0  0  0  0  0  0
  152.6344  129.7495  155.3872 H   0  0  0  0  0  0  0  0  0  0  0  0
  152.2270  130.0062  153.7021 H   0  0  0  0  0  0  0  0  0  0  0  0
  152.4726  128.3787  154.3033 H   0  0  0  0  0  0  0  0  0  0  0  0
  1  2  1  0  0  0  0
  1 29  1  0  0  0  0
  1 30  1  0  0  0  0
  1 31  1  0  0  0  0
  2  3  1  0  0  0  0
  2 32  1  0  0  0  0
  2 33  1  0  0  0  0
  3  4  1  0  0  0  0
  4 26  1  0  0  0  0
  4  5  1  0  0  0  0
  4 34  1  0  0  0  0
  5  6  1  0  0  0  0
  5 35  1  0  0  0  0
  5 36  1  0  0  0  0
  6  7  1  0  0  0  0
  6 26  1  0  0  0  0
  6 37  1  0  0  0  0
  7  8  1  0  0  0  0
  7  9  1  0  0  0  0
  8 38  1  0  0  0  0
  8 39  1  0  0  0  0
  8 40  1  0  0  0  0
  9 14  1  0  0  0  0
  9 10  2  0  0  0  0
 10 11  1  0  0  0  0
 11 12  2  0  0  0  0
 11 41  1  0  0  0  0
 12 13  1  0  0  0  0
 13 17  1  0  0  0  0
 13 14  2  0  0  0  0
 14 15  1  0  0  0  0
 15 16  2  0  0  0  0
 16 17  1  0  0  0  0
 16 42  1  0  0  0  0
 17 18  1  0  0  0  0
 18 19  1  0  0  0  0
 18 43  1  0  0  0  0
 18 44  1  0  0  0  0
 19 24  1  0  0  0  0
 19 20  1  0  0  0  0
 19 21  1  0  0  0  0
 20 45  1  0  0  0  0
 21 22  1  0  0  0  0
 21 46  1  0  0  0  0
 21 47  1  0  0  0  0
 22 23  1  0  0  0  0
 22 48  1  0  0  0  0
 22 49  1  0  0  0  0
 23 24  1  0  0  0  0
 24 25  1  0  0  0  0
 24 50  1  0  0  0  0
 25 51  1  0  0  0  0
 25 52  1  0  0  0  0
 25 53  1  0  0  0  0
 26 27  1  0  0  0  0
 26 28  1  0  0  0  0
 27 54  1  0  0  0  0
 27 55  1  0  0  0  0
 27 56  1  0  0  0  0
 28 57  1  0  0  0  0
 28 58  1  0  0  0  0
 28 59  1  0  0  0  0
M  END
> <s_m_source_file>
AV-unprocessed.smi

> <i_m_source_file_index>
234

> <i_lp_mmshare_version>
43012

> <i_f3d_flags>
0

> <s_epik_input>
W0NIM11bQ0gyXU9bQ0BASF0oQzEoW0NIM10pW0NIM10pW0NIMl1bQ0BIXTFOKFtDSDNdKWMobltjSF1uMiljKGMyMyluW2NIXW4zW0NIMl1bQ0BAXTQoW09IXSlbQ0gyXVtDSDJdT1tDQEhdNFtDSDNd

> <s_epik_cmdline>
J2VwaWtfcHl0aG9uJywgJy1waCcsICc3LjAnLCAnLXRuJywgJzgnLCAnLW1hJywgJzIwMCcsICctbWV0YWxfYmluZGluZycsICctaW1hZScsICc8aW5maWxlLm1hZT4nLCAnLW9tYWUnLCAnPG91dGZpbGUubWFlPic=

> <r_lp_tautomer_probability>
1

> <r_epik_Ionization_Penalty>
0.00349132

> <r_epik_Ionization_Penalty_Charging>
0

> <r_epik_Ionization_Penalty_Neutral>
0.00349132

> <r_epik_State_Penalty>
0.00242418

> <r_epik_Charging_Adjusted_Penalty>
0.00242418

> <i_epik_Tot_Q>
0

> <i_epik_Tot_abs_Q>
0

> <r_epik_Metal_State_Penalty>
-0

> <b_epik_Metal_Only>
0

> <s_lp_Force_Field>
OPLS_2005

> <r_lp_Energy>
49.6192

> <b_lp_Chiralities_Consistent>
1

> <s_lp_Variant>
AV-unprocessed.smi:234-8

> <Gold.Version>
5.8.1

> <Gold.Id.Protein>
6NUR|6NUR_protein|mol2

> <Gold.PLP.Fitness>
42.8206

> <Gold.PLP.PLP>
-38.5644

> <Gold.PLP.part.hbond>
-2.8776

> <Gold.PLP.part.metal>
0.0000

> <Gold.PLP.part.buried>
-3.0141

> <Gold.PLP.part.nonpolar>
-32.8542

> <Gold.PLP.part.repulsive>
1.4489

> <Gold.PLP.ligand.clash>
0.0000

> <Gold.PLP.ligand.torsion>
1.1910

> <Gold.PLP.Chemscore.Hbond>
1.8960

> <Gold.PLP.Chemscore.CHOScore>
0.0000

> <Gold.PLP.Chemscore.Metal>
0.0000

> <Gold.Chemscore.Hbonds>
donor molecule, donor type, donor heavy atom, donor atom, acceptor molecule, acceptor atom, score
      L1  H    20    45       P1  7957  1.00
      P1  H  7989  7998       L1    23  0.19

> <Gold.PLP.Chemscore.Internal.Correction>
0.9502

> <Gold.Rescore>
     Score         DG    S(hbond)    S(metal)    S(lipo)     H(rot)  DE(clash)    DE(int)     intcor
      5.11     -11.95       0.80        0.00      89.74       2.62       2.64       4.21       ----

> <Gold.Chemscore.Fitness>
5.1064

> <Gold.Chemscore.DG>
-11.9543

> <Gold.Chemscore.ZeroCoef>
-5.4800

> <Gold.Chemscore.Hbond>
0.8044

> <Gold.Chemscore.Metal>
0.0000

> <Gold.Chemscore.Lipo>
89.7403

> <Gold.Chemscore.Internal_Hbond>
0.0000

> <Gold.Chemscore.DEClash>
2.6358

> <Gold.Chemscore.DEInternal>
4.2122

> <Gold.Chemscore.Rot>
2.6219

> <Gold.Chemscore.Internal.Correction>
   9.000000E+99

> <Gold.Chemscore.Hbonds>
donor molecule, donor type, donor heavy atom, donor atom, acceptor molecule, acceptor atom, score
      L1  H    20    45       P1  7957  0.93
      P1  H  7989  7998       L1    23  0.04

> <Gold.Chemscore.Hbond.Weighted>
-2.6868

> <Gold.Chemscore.Metal.Weighted>
-0.0000

> <Gold.Chemscore.Lipo.Weighted>
-10.4996

> <Gold.Chemscore.Internal_Hbond.Weighted>
0.0000

> <Gold.Chemscore.DEClash.Weighted>
2.6358

> <Gold.Chemscore.DEInternal.Weighted>
4.2122

> <Gold.Chemscore.Rot.Weighted>
6.7121

> <Gold.Chemscore.Internal.Correction.Weighted>
   9.000000E+99

> <Gold.Protein.RotatedTorsions>
[ 6907 6896 6895 6894 ] final   29.75 input  -60.11 | X-H torsion
[ 7974 7965 7964 7962 ] final  179.72 input  175.53 | X-H torsion
[ 8008 7997 7996 7995 ] final    3.60 input   59.86 | X-H torsion
[ 10167 10162 10161 10158 ] final  164.29 input  -65.29 | X-H torsion
[ 10718 10713 10712 10709 ] final  -32.83 input   66.30 | X-H torsion
[ 10763 10752 10751 10750 ] final  142.79 input  -60.55 | X-H torsion
[ 11005 11000 10999 10996 ] final  -35.30 input  -57.11 | X-H torsion

> <Gold.Protein.ActiveResidues>
 VAL166  LYS551  ARG553  GLY616  TRP617  ASP618  TYR619  PRO620  LYS621  CYS622 
 ASP623  PHE694  ASN695  SER759  ASP760  ASP761  ALA762  ILE779  LEU786  VAL792 
 PHE793  MET794  SER795  GLU796  ALA797  LYS798  CYS799  TRP800  GLU811  SER814 

> <Gold.Protein.RotatedAtoms>
  152.0360  134.9739  160.0573 H   0  0  0  0  0  0  0  0  0  0  0  0  # atno 6907 bound_to 6896
  152.1197  133.4341  159.4678 H   0  0  0  0  0  0  0  0  0  0  0  0  # atno 6908 bound_to 6896
  150.6848  134.2469  159.4538 H   0  0  0  0  0  0  0  0  0  0  0  0  # atno 6909 bound_to 6896
  144.7143  140.0590  143.6433 H   0  0  0  0  0  0  0  0  0  0  0  0  # atno 7974 bound_to 7965
  154.7057  140.2682  155.6677 H   0  0  0  0  0  0  0  0  0  0  0  0  # atno 8008 bound_to 7997
  156.2779  140.2763  156.1606 H   0  0  0  0  0  0  0  0  0  0  0  0  # atno 8009 bound_to 7997
  155.0704  140.0372  157.2596 H   0  0  0  0  0  0  0  0  0  0  0  0  # atno 8010 bound_to 7997
  139.4886  144.4251  151.9140 H   0  0  0  0  0  0  0  0  0  0  0  0  # atno 10167 bound_to 10162
  156.3701  130.4338  149.7552 H   0  0  0  0  0  0  0  0  0  0  0  0  # atno 10718 bound_to 10713
  153.9617  135.2959  155.3433 H   0  0  0  0  0  0  0  0  0  0  0  0  # atno 10763 bound_to 10752
  154.7371  135.5041  153.9063 H   0  0  0  0  0  0  0  0  0  0  0  0  # atno 10764 bound_to 10752
  153.0943  135.6717  153.9903 H   0  0  0  0  0  0  0  0  0  0  0  0  # atno 10765 bound_to 10752
  140.9785  133.7069  156.1643 H   0  0  0  0  0  0  0  0  0  0  0  0  # atno 11005 bound_to 11000
  145.9880  139.2992  143.1002 LP  0  0  0  0  0  0  0  0  0  0  0  0  # atno 17320 bound_to 7965
  145.8935  140.9288  143.0540 LP  0  0  0  0  0  0  0  0  0  0  0  0  # atno 17321 bound_to 7965
  140.3696  144.2872  150.5922 LP  0  0  0  0  0  0  0  0  0  0  0  0  # atno 17342 bound_to 10162
  140.5331  143.2239  151.8207 LP  0  0  0  0  0  0  0  0  0  0  0  0  # atno 17343 bound_to 10162
  156.4683  130.7984  151.3003 LP  0  0  0  0  0  0  0  0  0  0  0  0  # atno 17370 bound_to 10713
  157.7483  131.0044  150.3074 LP  0  0  0  0  0  0  0  0  0  0  0  0  # atno 17371 bound_to 10713
  140.7223  134.4345  157.5574 LP  0  0  0  0  0  0  0  0  0  0  0  0  # atno 17394 bound_to 11000
  139.8940  134.8716  156.2196 LP  0  0  0  0  0  0  0  0  0  0  0  0  # atno 17395 bound_to 11000

$$$$
