AV-unprocessed.smi:2124|AV-procd|sdf|8672|dock9
  -GOLD-   2272011423D 1   1.00000     0.00000
 Structure written by MMmdl.
 46 48  0  0  0  0  0  0  0  0  2 V2000
  148.5594  141.2402  153.6987 C   0  0  0  0  0  0  0  0  0  0  0  0
  149.1048  140.4243  154.8512 C   0  0  0  0  0  0  0  0  0  0  0  0
  150.1740  139.7454  154.6794 N   0  0  0  0  0  0  0  0  0  0  0  0
  150.6968  138.9961  155.7467 C   0  0  0  0  0  0  0  0  0  0  0  0
  151.9828  138.2415  155.4582 C   0  0  0  0  0  0  0  0  0  0  0  0
  150.0809  138.9761  156.9637 C   0  0  0  0  0  0  0  0  0  0  0  0
  150.6356  138.2151  158.1697 C   0  0  0  0  0  0  0  0  0  0  0  0
  151.6978  138.9763  158.9639 C   0  0  0  0  0  0  0  0  0  0  0  0
  152.8597  138.5712  158.9957 O   0  0  0  0  0  0  0  0  0  0  0  0
  151.2848  140.1033  159.5623 N   0  0  0  0  0  0  0  0  0  0  0  0
  152.1448  141.1356  160.1286 C   0  0  2  0  0  0  0  0  0  0  0  0
  152.7463  140.6418  161.4536 C   0  0  0  0  0  0  0  0  0  0  0  0
  151.3247  142.4362  160.3023 C   0  0  1  0  0  0  0  0  0  0  0  0
  152.1199  143.6331  160.8693 C   0  0  0  0  0  0  0  0  0  0  0  0
  151.7878  144.7680  159.8813 C   0  0  1  0  0  0  0  0  0  0  0  0
  152.5367  144.5218  158.5584 C   0  0  0  0  0  0  0  0  0  0  0  0
  151.7644  143.3385  157.9472 C   0  0  0  0  0  0  0  0  0  0  0  0
  150.6963  143.0401  159.0188 C   0  0  2  0  0  0  0  0  0  0  0  0
  150.3492  144.4472  159.4920 C   0  0  0  0  0  0  0  0  0  0  0  0
  148.8492  139.7707  157.1194 C   0  0  0  0  0  0  0  0  0  0  0  0
  148.2617  139.7996  158.2000 O   0  0  0  0  0  0  0  0  0  0  0  0
  148.4068  140.4714  156.0370 N   0  5  0  0  0  0  0  0  0  0  0  0
  148.8283  140.7884  152.7432 H   0  0  0  0  0  0  0  0  0  0  0  0
  148.9674  142.2504  153.7299 H   0  0  0  0  0  0  0  0  0  0  0  0
  147.4717  141.3047  153.7478 H   0  0  0  0  0  0  0  0  0  0  0  0
  152.7802  138.5718  156.1239 H   0  0  0  0  0  0  0  0  0  0  0  0
  152.3159  138.4066  154.4328 H   0  0  0  0  0  0  0  0  0  0  0  0
  151.8368  137.1701  155.5941 H   0  0  0  0  0  0  0  0  0  0  0  0
  149.8368  137.9185  158.8500 H   0  0  0  0  0  0  0  0  0  0  0  0
  151.0680  137.2767  157.8218 H   0  0  0  0  0  0  0  0  0  0  0  0
  150.3024  140.3290  159.4927 H   0  0  0  0  0  0  0  0  0  0  0  0
  152.9680  141.3351  159.4405 H   0  0  0  0  0  0  0  0  0  0  0  0
  153.4089  141.3897  161.8895 H   0  0  0  0  0  0  0  0  0  0  0  0
  153.3314  139.7339  161.3041 H   0  0  0  0  0  0  0  0  0  0  0  0
  151.9684  140.4196  162.1849 H   0  0  0  0  0  0  0  0  0  0  0  0
  150.5022  142.2195  160.9869 H   0  0  0  0  0  0  0  0  0  0  0  0
  151.7759  143.8762  161.8752 H   0  0  0  0  0  0  0  0  0  0  0  0
  153.1932  143.4469  160.9237 H   0  0  0  0  0  0  0  0  0  0  0  0
  151.9444  145.7657  160.2924 H   0  0  0  0  0  0  0  0  0  0  0  0
  152.4770  145.3945  157.9072 H   0  0  0  0  0  0  0  0  0  0  0  0
  153.5913  144.2928  158.7160 H   0  0  0  0  0  0  0  0  0  0  0  0
  151.2894  143.6365  157.0116 H   0  0  0  0  0  0  0  0  0  0  0  0
  152.4044  142.4856  157.7250 H   0  0  0  0  0  0  0  0  0  0  0  0
  149.8458  142.4732  158.6379 H   0  0  0  0  0  0  0  0  0  0  0  0
  149.6569  144.4640  160.3356 H   0  0  0  0  0  0  0  0  0  0  0  0
  149.9606  145.0877  158.6981 H   0  0  0  0  0  0  0  0  0  0  0  0
  1  2  1  0  0  0  0
  1 23  1  0  0  0  0
  1 24  1  0  0  0  0
  1 25  1  0  0  0  0
  2 22  1  0  0  0  0
  2  3  2  0  0  0  0
  3  4  1  0  0  0  0
  4  5  1  0  0  0  0
  4  6  2  0  0  0  0
  5 26  1  0  0  0  0
  5 27  1  0  0  0  0
  5 28  1  0  0  0  0
  6  7  1  0  0  0  0
  6 20  1  0  0  0  0
  7  8  1  0  0  0  0
  7 29  1  0  0  0  0
  7 30  1  0  0  0  0
  8  9  2  0  0  0  0
  8 10  1  0  0  0  0
 10 11  1  0  0  0  0
 10 31  1  0  0  0  0
 11 12  1  0  0  0  0
 11 13  1  0  0  0  0
 11 32  1  0  0  0  0
 12 33  1  0  0  0  0
 12 34  1  0  0  0  0
 12 35  1  0  0  0  0
 13 18  1  0  0  0  0
 13 14  1  0  0  0  0
 13 36  1  0  0  0  0
 14 15  1  0  0  0  0
 14 37  1  0  0  0  0
 14 38  1  0  0  0  0
 15 19  1  0  0  0  0
 15 16  1  0  0  0  0
 15 39  1  0  0  0  0
 16 17  1  0  0  0  0
 16 40  1  0  0  0  0
 16 41  1  0  0  0  0
 17 18  1  0  0  0  0
 17 42  1  0  0  0  0
 17 43  1  0  0  0  0
 18 19  1  0  0  0  0
 18 44  1  0  0  0  0
 19 45  1  0  0  0  0
 19 46  1  0  0  0  0
 20 21  2  0  0  0  0
 20 22  1  0  0  0  0
M  CHG  1  22  -1
M  END
> <s_m_source_file>
AV-unprocessed.smi

> <i_m_source_file_index>
2124

> <i_lp_mmshare_version>
43012

> <i_f3d_flags>
0

> <s_epik_input>
W0NIM11jMW5jKFtDSDNdKWMoYyg9TylbbkhdMSlbQ0gyXUMoPU8pW05IXVtDQEhdKFtDSDNdKVtDQEhdKFtDSDJdW0NASF0yMylbQ0BIXShbQ0gyXTMpW0NIMl1bQ0gyXTI=

> <s_epik_cmdline>
J2VwaWtfcHl0aG9uJywgJy1waCcsICc3LjAnLCAnLXRuJywgJzgnLCAnLW1hJywgJzIwMCcsICctbWV0YWxfYmluZGluZycsICctaW1hZScsICc8aW5maWxlLm1hZT4nLCAnLW9tYWUnLCAnPG91dGZpbGUubWFlPic=

> <r_lp_tautomer_probability>
0.839158

> <r_epik_Ionization_Penalty>
6.63797

> <r_epik_Ionization_Penalty_Charging>
7.48558e-08

> <r_epik_Ionization_Penalty_Neutral>
6.63797

> <r_epik_State_Penalty>
4.49496

> <r_epik_Charging_Adjusted_Penalty>
4.49496

> <i_epik_Tot_Q>
-1

> <i_epik_Tot_abs_Q>
1

> <r_epik_Metal_State_Penalty>
0.841241

> <b_epik_Metal_Only>
1

> <s_lp_Force_Field>
OPLS_2005

> <r_lp_Energy>
53.1649

> <b_lp_Chiralities_Consistent>
1

> <s_lp_Variant>
AV-unprocessed.smi:2124-23

> <Gold.Version>
5.8.1

> <Gold.Id.Protein>
6NUR|6NUR_protein|mol2

> <Gold.PLP.Fitness>
52.2962

> <Gold.PLP.PLP>
-47.4528

> <Gold.PLP.part.hbond>
-2.5900

> <Gold.PLP.part.metal>
0.0000

> <Gold.PLP.part.buried>
-5.4967

> <Gold.PLP.part.nonpolar>
-39.1692

> <Gold.PLP.part.repulsive>
0.2760

> <Gold.PLP.ligand.clash>
0.0000

> <Gold.PLP.ligand.torsion>
0.5883

> <Gold.PLP.Chemscore.Hbond>
2.0000

> <Gold.PLP.Chemscore.CHOScore>
0.0000

> <Gold.PLP.Chemscore.Metal>
0.0000

> <Gold.Chemscore.Hbonds>
donor molecule, donor type, donor heavy atom, donor atom, acceptor molecule, acceptor atom, score
      P1  H  7989  7998       L1     3  0.62

> <Gold.PLP.Chemscore.Internal.Correction>
0.0200

> <Gold.Rescore>
     Score         DG    S(hbond)    S(metal)    S(lipo)     H(rot)  DE(clash)    DE(int)     intcor
     20.70     -21.69       1.77        0.00     123.23       1.61       0.01       0.98       ----

> <Gold.Chemscore.Fitness>
20.7049

> <Gold.Chemscore.DG>
-21.6932

> <Gold.Chemscore.ZeroCoef>
-5.4800

> <Gold.Chemscore.Hbond>
1.7677

> <Gold.Chemscore.Metal>
0.0000

> <Gold.Chemscore.Lipo>
123.2307

> <Gold.Chemscore.Internal_Hbond>
0.0000

> <Gold.Chemscore.DEClash>
0.0102

> <Gold.Chemscore.DEInternal>
0.9781

> <Gold.Chemscore.Rot>
1.6051

> <Gold.Chemscore.Internal.Correction>
   9.000000E+99

> <Gold.Chemscore.Hbonds>
donor molecule, donor type, donor heavy atom, donor atom, acceptor molecule, acceptor atom, score
      P1  H  7989  7998       L1     3  0.44

> <Gold.Chemscore.Hbond.Weighted>
-5.9042

> <Gold.Chemscore.Metal.Weighted>
-0.0000

> <Gold.Chemscore.Lipo.Weighted>
-14.4180

> <Gold.Chemscore.Internal_Hbond.Weighted>
0.0000

> <Gold.Chemscore.DEClash.Weighted>
0.0102

> <Gold.Chemscore.DEInternal.Weighted>
0.9781

> <Gold.Chemscore.Rot.Weighted>
4.1090

> <Gold.Chemscore.Internal.Correction.Weighted>
   9.000000E+99

> <Gold.Protein.RotatedTorsions>
[ 6907 6896 6895 6894 ] final   88.59 input  -60.11 | X-H torsion
[ 7974 7965 7964 7962 ] final   84.54 input  175.53 | X-H torsion
[ 8008 7997 7996 7995 ] final    4.08 input   59.86 | X-H torsion
[ 10167 10162 10161 10158 ] final -164.62 input  -65.29 | X-H torsion
[ 10718 10713 10712 10709 ] final  -67.04 input   66.30 | X-H torsion
[ 10763 10752 10751 10750 ] final -163.97 input  -60.55 | X-H torsion
[ 11005 11000 10999 10996 ] final   69.99 input  -57.11 | X-H torsion

> <Gold.Protein.ActiveResidues>
 VAL166  LYS551  ARG553  GLY616  TRP617  ASP618  TYR619  PRO620  LYS621  CYS622 
 ASP623  PHE694  ASN695  SER759  ASP760  ASP761  ALA762  ILE779  LEU786  VAL792 
 PHE793  MET794  SER795  GLU796  ALA797  LYS798  CYS799  TRP800  GLU811  SER814 

> <Gold.Protein.RotatedAtoms>
  152.5427  134.2098  159.8745 H   0  0  0  0  0  0  0  0  0  0  0  0  # atno 6907 bound_to 6896
  151.2081  133.4565  159.2605 H   0  0  0  0  0  0  0  0  0  0  0  0  # atno 6908 bound_to 6896
  151.0923  134.9936  159.8464 H   0  0  0  0  0  0  0  0  0  0  0  0  # atno 6909 bound_to 6896
  145.5974  139.2347  143.2265 H   0  0  0  0  0  0  0  0  0  0  0  0  # atno 7974 bound_to 7965
  154.7115  140.2693  155.6625 H   0  0  0  0  0  0  0  0  0  0  0  0  # atno 8008 bound_to 7997
  156.2797  140.2752  156.1682 H   0  0  0  0  0  0  0  0  0  0  0  0  # atno 8009 bound_to 7997
  155.0629  140.0371  157.2572 H   0  0  0  0  0  0  0  0  0  0  0  0  # atno 8010 bound_to 7997
  139.6238  144.0573  152.1956 H   0  0  0  0  0  0  0  0  0  0  0  0  # atno 10167 bound_to 10162
  156.0579  130.4271  150.1797 H   0  0  0  0  0  0  0  0  0  0  0  0  # atno 10718 bound_to 10713
  154.7072  135.2999  154.9252 H   0  0  0  0  0  0  0  0  0  0  0  0  # atno 10763 bound_to 10752
  154.0165  135.6688  153.4773 H   0  0  0  0  0  0  0  0  0  0  0  0  # atno 10764 bound_to 10752
  153.0727  135.5052  154.8250 H   0  0  0  0  0  0  0  0  0  0  0  0  # atno 10765 bound_to 10752
  139.9623  134.7040  156.0620 H   0  0  0  0  0  0  0  0  0  0  0  0  # atno 11005 bound_to 11000
  146.1602  140.6799  142.9281 LP  0  0  0  0  0  0  0  0  0  0  0  0  # atno 17320 bound_to 7965
  144.7325  140.4712  143.6928 LP  0  0  0  0  0  0  0  0  0  0  0  0  # atno 17321 bound_to 7965
  140.0221  144.6145  150.7558 LP  0  0  0  0  0  0  0  0  0  0  0  0  # atno 17342 bound_to 10162
  140.7398  143.2796  151.3638 LP  0  0  0  0  0  0  0  0  0  0  0  0  # atno 17343 bound_to 10162
  156.9870  130.9881  151.3424 LP  0  0  0  0  0  0  0  0  0  0  0  0  # atno 17370 bound_to 10713
  157.5564  130.8216  149.8210 LP  0  0  0  0  0  0  0  0  0  0  0  0  # atno 17371 bound_to 10713
  141.1301  133.6589  156.3440 LP  0  0  0  0  0  0  0  0  0  0  0  0  # atno 17394 bound_to 11000
  140.5473  134.6061  157.5397 LP  0  0  0  0  0  0  0  0  0  0  0  0  # atno 17395 bound_to 11000

$$$$
