AV-unprocessed.smi:1208|AV-procd|sdf|5064|dock6
  -GOLD-   22720 4103D 1   1.00000     0.00000
 Structure written by MMmdl.
 35 36  0  0  0  0  0  0  0  0  2 V2000
  150.4957  141.3546  157.4984 C   0  0  0  0  0  0  0  0  0  0  0  0
  150.9574  139.8937  157.3715 C   0  0  1  0  0  0  0  0  0  0  0  0
  149.8295  138.9830  157.5364 N   0  0  0  0  0  0  0  0  0  0  0  0
  149.6787  138.0598  158.4990 C   0  0  0  0  0  0  0  0  0  0  0  0
  150.4696  137.9279  159.4329 O   0  0  0  0  0  0  0  0  0  0  0  0
  148.4701  137.1139  158.3871 C   0  0  0  0  0  0  0  0  0  0  0  0
  148.1312  136.4120  159.6375 N   0  0  0  0  0  0  0  0  0  0  0  0
  147.4683  137.2531  160.6300 N   0  5  0  0  0  0  0  0  0  0  0  0
  147.0659  136.7000  161.8049 C   0  0  0  0  0  0  0  0  0  0  0  0
  146.4857  137.3399  162.6786 O   0  0  0  0  0  0  0  0  0  0  0  0
  147.3390  135.2896  162.0265 C   0  0  0  0  0  0  0  0  0  0  0  0
  147.9637  134.5395  161.0975 C   0  0  0  0  0  0  0  0  0  0  0  0
  148.3986  135.0867  159.8183 C   0  0  0  0  0  0  0  0  0  0  0  0
  148.9533  134.4027  158.9584 O   0  0  0  0  0  0  0  0  0  0  0  0
  151.6605  139.6182  156.0248 C   0  0  1  0  0  0  0  0  0  0  0  0
  152.1860  138.1822  155.8506 C   0  0  0  0  0  0  0  0  0  0  0  0
  151.8584  137.8692  154.4064 C   0  0  0  0  0  0  0  0  0  0  0  0
  150.5612  138.6404  154.2135 C   0  0  0  0  0  0  0  0  0  0  0  0
  150.7682  139.8482  154.9324 O   0  0  0  0  0  0  0  0  0  0  0  0
  151.3342  142.0415  157.3838 H   0  0  0  0  0  0  0  0  0  0  0  0
  150.0484  141.5439  158.4746 H   0  0  0  0  0  0  0  0  0  0  0  0
  149.7541  141.6050  156.7391 H   0  0  0  0  0  0  0  0  0  0  0  0
  151.6814  139.6986  158.1645 H   0  0  0  0  0  0  0  0  0  0  0  0
  149.1132  139.0228  156.8245 H   0  0  0  0  0  0  0  0  0  0  0  0
  147.6072  137.6835  158.0379 H   0  0  0  0  0  0  0  0  0  0  0  0
  148.6806  136.3929  157.5954 H   0  0  0  0  0  0  0  0  0  0  0  0
  147.0351  134.8332  162.9569 H   0  0  0  0  0  0  0  0  0  0  0  0
  148.1462  133.4958  161.3045 H   0  0  0  0  0  0  0  0  0  0  0  0
  152.4940  140.3115  155.9042 H   0  0  0  0  0  0  0  0  0  0  0  0
  153.2507  138.0964  156.0683 H   0  0  0  0  0  0  0  0  0  0  0  0
  151.6615  137.4794  156.4987 H   0  0  0  0  0  0  0  0  0  0  0  0
  152.6330  138.2649  153.7482 H   0  0  0  0  0  0  0  0  0  0  0  0
  151.7512  136.8015  154.2130 H   0  0  0  0  0  0  0  0  0  0  0  0
  150.3302  138.8286  153.1652 H   0  0  0  0  0  0  0  0  0  0  0  0
  149.7240  138.1015  154.6575 H   0  0  0  0  0  0  0  0  0  0  0  0
  1  2  1  0  0  0  0
  1 20  1  0  0  0  0
  1 21  1  0  0  0  0
  1 22  1  0  0  0  0
  2  3  1  0  0  0  0
  2 15  1  0  0  0  0
  2 23  1  0  0  0  0
  3  4  1  0  0  0  0
  3 24  1  0  0  0  0
  4  5  2  0  0  0  0
  4  6  1  0  0  0  0
  6 25  1  0  0  0  0
  6 26  1  0  0  0  0
  6  7  1  0  0  0  0
  7  8  1  0  0  0  0
  7 13  1  0  0  0  0
  8  9  1  0  0  0  0
  9 10  2  0  0  0  0
  9 11  1  0  0  0  0
 11 27  1  0  0  0  0
 11 12  2  0  0  0  0
 12 28  1  0  0  0  0
 12 13  1  0  0  0  0
 13 14  2  0  0  0  0
 15 19  1  0  0  0  0
 15 16  1  0  0  0  0
 15 29  1  0  0  0  0
 16 17  1  0  0  0  0
 16 30  1  0  0  0  0
 16 31  1  0  0  0  0
 17 18  1  0  0  0  0
 17 32  1  0  0  0  0
 17 33  1  0  0  0  0
 18 19  1  0  0  0  0
 18 34  1  0  0  0  0
 18 35  1  0  0  0  0
M  CHG  1   8  -1
M  END
> <s_m_source_file>
AV-unprocessed.smi

> <i_m_source_file_index>
1208

> <i_lp_mmshare_version>
43012

> <i_f3d_flags>
0

> <s_epik_input>
TzFbQ0gyXVtDSDJdW0NIMl1bQ0BIXTFbQ0BIXShbQ0gzXSlbTkhdQyg9TylbQ0gyXW4yW25IXWMoPU8pW2NIXVtjSF1jMj1P

> <s_epik_cmdline>
J2VwaWtfcHl0aG9uJywgJy1waCcsICc3LjAnLCAnLXRuJywgJzgnLCAnLW1hJywgJzIwMCcsICctbWV0YWxfYmluZGluZycsICctaW1hZScsICc8aW5maWxlLm1hZT4nLCAnLW9tYWUnLCAnPG91dGZpbGUubWFlPic=

> <r_lp_tautomer_probability>
1

> <r_epik_Ionization_Penalty>
0.0975494

> <r_epik_Ionization_Penalty_Charging>
0.0975494

> <r_epik_Ionization_Penalty_Neutral>
2.30132e-08

> <r_epik_State_Penalty>
0.034345

> <r_epik_Charging_Adjusted_Penalty>
0.131894

> <i_epik_Tot_Q>
-1

> <i_epik_Tot_abs_Q>
1

> <r_epik_Metal_State_Penalty>
0.034345

> <b_epik_Metal_Only>
0

> <s_lp_Force_Field>
OPLS_2005

> <r_lp_Energy>
31.4648

> <b_lp_Chiralities_Consistent>
1

> <s_lp_Variant>
AV-unprocessed.smi:1208-4

> <Gold.Version>
5.8.1

> <Gold.Id.Protein>
6NUR|6NUR_protein|mol2

> <Gold.PLP.Fitness>
44.0383

> <Gold.PLP.PLP>
-32.1492

> <Gold.PLP.part.hbond>
-5.8292

> <Gold.PLP.part.metal>
0.0000

> <Gold.PLP.part.buried>
-4.2445

> <Gold.PLP.part.nonpolar>
-23.6454

> <Gold.PLP.part.repulsive>
0.1214

> <Gold.PLP.ligand.clash>
0.0000

> <Gold.PLP.ligand.torsion>
0.4272

> <Gold.PLP.Chemscore.Hbond>
4.2415

> <Gold.PLP.Chemscore.CHOScore>
0.0000

> <Gold.PLP.Chemscore.Metal>
0.0000

> <Gold.Chemscore.Hbonds>
donor molecule, donor type, donor heavy atom, donor atom, acceptor molecule, acceptor atom, score
      P1  H  6896  6909       L1    14  1.00
      P1  H  6931  6943       L1     8  0.17
      P1  H  6934  6947       L1     8  2.00
      P1  H  7989  7998       L1    19  0.90

> <Gold.PLP.Chemscore.Internal.Correction>
0.0190

> <Gold.Rescore>
     Score         DG    S(hbond)    S(metal)    S(lipo)     H(rot)  DE(clash)    DE(int)     intcor
     13.31     -13.87       2.08        0.00      55.95       1.99       0.04       0.53       ----

> <Gold.Chemscore.Fitness>
13.3086

> <Gold.Chemscore.DG>
-13.8743

> <Gold.Chemscore.ZeroCoef>
-5.4800

> <Gold.Chemscore.Hbond>
2.0817

> <Gold.Chemscore.Metal>
0.0000

> <Gold.Chemscore.Lipo>
55.9510

> <Gold.Chemscore.Internal_Hbond>
0.0000

> <Gold.Chemscore.DEClash>
0.0402

> <Gold.Chemscore.DEInternal>
0.5254

> <Gold.Chemscore.Rot>
1.9940

> <Gold.Chemscore.Internal.Correction>
   9.000000E+99

> <Gold.Chemscore.Hbonds>
donor molecule, donor type, donor heavy atom, donor atom, acceptor molecule, acceptor atom, score
      P1  H  6896  6909       L1    14  0.65
      P1  H  6934  6947       L1     8  0.33
      P1  H  7989  7998       L1    19  0.14

> <Gold.Chemscore.Hbond.Weighted>
-6.9527

> <Gold.Chemscore.Metal.Weighted>
-0.0000

> <Gold.Chemscore.Lipo.Weighted>
-6.5463

> <Gold.Chemscore.Internal_Hbond.Weighted>
0.0000

> <Gold.Chemscore.DEClash.Weighted>
0.0402

> <Gold.Chemscore.DEInternal.Weighted>
0.5254

> <Gold.Chemscore.Rot.Weighted>
5.1047

> <Gold.Chemscore.Internal.Correction.Weighted>
   9.000000E+99

> <Gold.Protein.RotatedTorsions>
[ 6907 6896 6895 6894 ] final   25.87 input  -60.11 | X-H torsion
[ 7974 7965 7964 7962 ] final -122.72 input  175.53 | X-H torsion
[ 8008 7997 7996 7995 ] final   48.95 input   59.86 | X-H torsion
[ 10167 10162 10161 10158 ] final   60.53 input  -65.29 | X-H torsion
[ 10718 10713 10712 10709 ] final   66.43 input   66.30 | X-H torsion
[ 10763 10752 10751 10750 ] final   43.74 input  -60.55 | X-H torsion
[ 11005 11000 10999 10996 ] final -100.98 input  -57.11 | X-H torsion

> <Gold.Protein.ActiveResidues>
 VAL166  LYS551  ARG553  GLY616  TRP617  ASP618  TYR619  PRO620  LYS621  CYS622 
 ASP623  PHE694  ASN695  SER759  ASP760  ASP761  ALA762  ILE779  LEU786  VAL792 
 PHE793  MET794  SER795  GLU796  ALA797  LYS798  CYS799  TRP800  GLU811  SER814 

> <Gold.Protein.RotatedAtoms>
  151.9790  135.0038  160.0556 H   0  0  0  0  0  0  0  0  0  0  0  0  # atno 6907 bound_to 6896
  152.1713  133.4641  159.4919 H   0  0  0  0  0  0  0  0  0  0  0  0  # atno 6908 bound_to 6896
  150.6902  134.1867  159.4312 H   0  0  0  0  0  0  0  0  0  0  0  0  # atno 6909 bound_to 6896
  145.0264  140.8031  143.4350 H   0  0  0  0  0  0  0  0  0  0  0  0  # atno 7974 bound_to 7965
  155.3942  140.3435  155.4253 H   0  0  0  0  0  0  0  0  0  0  0  0  # atno 8008 bound_to 7997
  156.1540  140.1580  156.8755 H   0  0  0  0  0  0  0  0  0  0  0  0  # atno 8009 bound_to 7997
  154.5078  140.0798  156.7911 H   0  0  0  0  0  0  0  0  0  0  0  0  # atno 8010 bound_to 7997
  140.1646  144.4337  150.6692 H   0  0  0  0  0  0  0  0  0  0  0  0  # atno 10167 bound_to 10162
  157.6168  130.9267  150.0108 H   0  0  0  0  0  0  0  0  0  0  0  0  # atno 10718 bound_to 10713
  152.9854  135.6092  154.3160 H   0  0  0  0  0  0  0  0  0  0  0  0  # atno 10763 bound_to 10752
  154.2873  135.2775  155.2672 H   0  0  0  0  0  0  0  0  0  0  0  0  # atno 10764 bound_to 10752
  154.4984  135.5873  153.6569 H   0  0  0  0  0  0  0  0  0  0  0  0  # atno 10765 bound_to 10752
  141.1249  133.8442  157.1173 H   0  0  0  0  0  0  0  0  0  0  0  0  # atno 11005 bound_to 11000
  145.1828  139.2342  143.5283 LP  0  0  0  0  0  0  0  0  0  0  0  0  # atno 17320 bound_to 7965
  146.3493  140.1606  142.8591 LP  0  0  0  0  0  0  0  0  0  0  0  0  # atno 17321 bound_to 7965
  140.6621  143.2255  151.5830 LP  0  0  0  0  0  0  0  0  0  0  0  0  # atno 17342 bound_to 10162
  139.5365  144.2765  152.1263 LP  0  0  0  0  0  0  0  0  0  0  0  0  # atno 17343 bound_to 10162
  156.1294  130.3643  149.9756 LP  0  0  0  0  0  0  0  0  0  0  0  0  # atno 17370 bound_to 10713
  156.7820  130.9225  151.3646 LP  0  0  0  0  0  0  0  0  0  0  0  0  # atno 17371 bound_to 10713
  140.0238  134.9933  157.0646 LP  0  0  0  0  0  0  0  0  0  0  0  0  # atno 17394 bound_to 11000
  140.4396  134.1695  155.7173 LP  0  0  0  0  0  0  0  0  0  0  0  0  # atno 17395 bound_to 11000

$$$$
