AV-unprocessed.smi:1019|AV-procd|sdf|4450|dock5
  -GOLD-   22720 2413D 1   1.00000     0.00000
 Structure written by MMmdl.
 45 47  0  0  0  0  0  0  0  0  3 V2000
  154.6732  139.4144  160.0873 C   0  0  0  0  0  0  0  0  0  0  0  0
  153.6772  138.3201  160.1763 N   0  3  2  0  0  0  0  0  0  0  0  0
  154.2098  137.1144  160.8628 C   0  0  0  0  0  0  0  0  0  0  0  0
  154.3787  137.3361  162.3555 C   0  0  0  0  0  0  0  0  0  0  0  0
  155.2545  138.3337  162.8349 C   0  0  0  0  0  0  0  0  0  0  0  0
  155.4030  138.5383  164.2204 C   0  0  0  0  0  0  0  0  0  0  0  0
  154.6789  137.7453  165.1315 C   0  0  0  0  0  0  0  0  0  0  0  0
  153.8068  136.7467  164.6569 C   0  0  0  0  0  0  0  0  0  0  0  0
  153.6575  136.5415  163.2714 C   0  0  0  0  0  0  0  0  0  0  0  0
  153.0697  138.0170  158.8545 C   0  0  0  0  0  0  0  0  0  0  0  0
  152.7477  139.2893  158.0448 C   0  0  1  0  0  0  0  0  0  0  0  0
  152.9393  139.0167  156.6696 O   0  0  0  0  0  0  0  0  0  0  0  0
  151.2959  139.7555  158.2723 C   0  0  0  0  0  0  0  0  0  0  0  0
  151.0461  141.1187  157.7849 N   0  0  0  0  0  0  0  0  0  0  0  0
  150.2968  141.5487  156.7328 C   0  0  0  0  0  0  0  0  0  0  0  0
  150.3780  142.9078  156.6980 N   0  3  0  0  0  0  0  0  0  0  0  0
  151.1892  143.3537  157.7434 C   0  0  0  0  0  0  0  0  0  0  0  0
  151.5674  144.6388  158.1195 C   0  0  0  0  0  0  0  0  0  0  0  0
  152.4097  144.7462  159.2458 C   0  0  0  0  0  0  0  0  0  0  0  0
  152.8438  143.6043  159.9504 C   0  0  0  0  0  0  0  0  0  0  0  0
  152.4551  142.3058  159.5597 C   0  0  0  0  0  0  0  0  0  0  0  0
  151.6216  142.2089  158.4461 C   0  0  0  0  0  0  0  0  0  0  0  0
  155.5222  139.1197  159.4692 H   0  0  0  0  0  0  0  0  0  0  0  0
  155.0479  139.6945  161.0715 H   0  0  0  0  0  0  0  0  0  0  0  0
  154.2267  140.3080  159.6501 H   0  0  0  0  0  0  0  0  0  0  0  0
  153.5352  136.2686  160.7328 H   0  0  0  0  0  0  0  0  0  0  0  0
  155.1587  136.8176  160.4129 H   0  0  0  0  0  0  0  0  0  0  0  0
  155.8121  138.9479  162.1429 H   0  0  0  0  0  0  0  0  0  0  0  0
  156.0723  139.3039  164.5847 H   0  0  0  0  0  0  0  0  0  0  0  0
  154.7932  137.9027  166.1939 H   0  0  0  0  0  0  0  0  0  0  0  0
  153.2526  136.1378  165.3562 H   0  0  0  0  0  0  0  0  0  0  0  0
  152.9861  135.7740  162.9142 H   0  0  0  0  0  0  0  0  0  0  0  0
  153.7490  137.3988  158.2652 H   0  0  0  0  0  0  0  0  0  0  0  0
  152.1704  137.4172  159.0035 H   0  0  0  0  0  0  0  0  0  0  0  0
  153.4230  140.0980  158.3221 H   0  0  0  0  0  0  0  0  0  0  0  0
  152.7297  138.1093  156.5072 H   0  0  0  0  0  0  0  0  0  0  0  0
  150.5992  139.0930  157.7564 H   0  0  0  0  0  0  0  0  0  0  0  0
  151.0334  139.7147  159.3303 H   0  0  0  0  0  0  0  0  0  0  0  0
  149.7389  140.9258  156.0485 H   0  0  0  0  0  0  0  0  0  0  0  0
  151.2357  145.5154  157.5823 H   0  0  0  0  0  0  0  0  0  0  0  0
  152.7283  145.7243  159.5765 H   0  0  0  0  0  0  0  0  0  0  0  0
  153.4879  143.7275  160.8092 H   0  0  0  0  0  0  0  0  0  0  0  0
  152.7925  141.4380  160.1064 H   0  0  0  0  0  0  0  0  0  0  0  0
  152.9244  138.6722  160.7510 H   0  0  0  0  0  0  0  0  0  0  0  0
  149.9113  143.4863  156.0110 H   0  0  0  0  0  0  0  0  0  0  0  0
  1  2  1  0  0  0  0
  1 23  1  0  0  0  0
  1 24  1  0  0  0  0
  1 25  1  0  0  0  0
  2  3  1  0  0  0  0
  2 10  1  0  0  0  0
  2 44  1  0  0  0  0
  3  4  1  0  0  0  0
  3 26  1  0  0  0  0
  3 27  1  0  0  0  0
  4  9  1  0  0  0  0
  4  5  2  0  0  0  0
  5  6  1  0  0  0  0
  5 28  1  0  0  0  0
  6  7  2  0  0  0  0
  6 29  1  0  0  0  0
  7  8  1  0  0  0  0
  7 30  1  0  0  0  0
  8  9  2  0  0  0  0
  8 31  1  0  0  0  0
  9 32  1  0  0  0  0
 10 11  1  0  0  0  0
 10 33  1  0  0  0  0
 10 34  1  0  0  0  0
 11 12  1  0  0  0  0
 11 13  1  0  0  0  0
 11 35  1  0  0  0  0
 12 36  1  0  0  0  0
 13 14  1  0  0  0  0
 13 37  1  0  0  0  0
 13 38  1  0  0  0  0
 14 22  1  0  0  0  0
 14 15  1  0  0  0  0
 15 16  2  0  0  0  0
 15 39  1  0  0  0  0
 16 17  1  0  0  0  0
 16 45  1  0  0  0  0
 17 22  2  0  0  0  0
 17 18  1  0  0  0  0
 18 19  2  0  0  0  0
 18 40  1  0  0  0  0
 19 20  1  0  0  0  0
 19 41  1  0  0  0  0
 20 21  2  0  0  0  0
 20 42  1  0  0  0  0
 21 22  1  0  0  0  0
 21 43  1  0  0  0  0
M  CHG  1   2   1
M  CHG  1  16   1
M  END
> <s_m_source_file>
AV-unprocessed.smi

> <i_m_source_file_index>
1019

> <i_lp_mmshare_version>
43012

> <i_f3d_flags>
0

> <s_epik_input>
W2NIXTFbY0hdW2NIXVtjSF1bY0hdYzFbQ0gyXU4oW0NIM10pW0NIMl1bQ0BIXShbT0hdKVtDSDJdbihbY0hdbjIpYyhjMjMpW2NIXVtjSF1bY0hdW2NIXTM=

> <s_epik_cmdline>
J2VwaWtfcHl0aG9uJywgJy1waCcsICc3LjAnLCAnLXRuJywgJzgnLCAnLW1hJywgJzIwMCcsICctbWV0YWxfYmluZGluZycsICctaW1hZScsICc8aW5maWxlLm1hZT4nLCAnLW9tYWUnLCAnPG91dGZpbGUubWFlPic=

> <r_epik_Ionization_Penalty>
1.5198

> <r_epik_Ionization_Penalty_Charging>
1.5198

> <r_epik_Ionization_Penalty_Neutral>
3.13312e-06

> <r_epik_State_Penalty>
1.624

> <r_epik_Charging_Adjusted_Penalty>
3.1438

> <i_epik_Tot_Q>
2

> <i_epik_Tot_abs_Q>
2

> <r_epik_Metal_State_Penalty>
5.67392

> <b_epik_Metal_Only>
0

> <s_lp_Force_Field>
OPLS_2005

> <r_lp_Energy>
24.6792

> <b_lp_Chiralities_Consistent>
1

> <s_lp_Variant>
AV-unprocessed.smi:1019-8

> <Gold.Version>
5.8.1

> <Gold.Id.Protein>
6NUR|6NUR_protein|mol2

> <Gold.PLP.Fitness>
56.2469

> <Gold.PLP.PLP>
-48.8440

> <Gold.PLP.part.hbond>
-2.0000

> <Gold.PLP.part.metal>
0.0000

> <Gold.PLP.part.buried>
-5.4722

> <Gold.PLP.part.nonpolar>
-41.5315

> <Gold.PLP.part.repulsive>
0.0985

> <Gold.PLP.ligand.clash>
0.0000

> <Gold.PLP.ligand.torsion>
0.8603

> <Gold.PLP.Chemscore.Hbond>
2.9760

> <Gold.PLP.Chemscore.CHOScore>
0.0000

> <Gold.PLP.Chemscore.Metal>
0.0000

> <Gold.Chemscore.Hbonds>
donor molecule, donor type, donor heavy atom, donor atom, acceptor molecule, acceptor atom, score
      L1  H    16    45       P1  8028  1.98
      P1  H  7997  8008       L1    12  0.93

> <Gold.PLP.Chemscore.Internal.Correction>
0.1956

> <Gold.Rescore>
     Score         DG    S(hbond)    S(metal)    S(lipo)     H(rot)  DE(clash)    DE(int)     intcor
     19.42     -21.34       1.62        0.00     142.93       2.46       0.15       1.77       ----

> <Gold.Chemscore.Fitness>
19.4227

> <Gold.Chemscore.DG>
-21.3379

> <Gold.Chemscore.ZeroCoef>
-5.4800

> <Gold.Chemscore.Hbond>
1.6229

> <Gold.Chemscore.Metal>
0.0000

> <Gold.Chemscore.Lipo>
142.9292

> <Gold.Chemscore.Internal_Hbond>
0.0000

> <Gold.Chemscore.DEClash>
0.1477

> <Gold.Chemscore.DEInternal>
1.7674

> <Gold.Chemscore.Rot>
2.4552

> <Gold.Chemscore.Internal.Correction>
   9.000000E+99

> <Gold.Chemscore.Hbonds>
donor molecule, donor type, donor heavy atom, donor atom, acceptor molecule, acceptor atom, score
      L1  H    16    45       P1  8028  0.94
      P1  H  7997  8008       L1    12  0.41

> <Gold.Chemscore.Hbond.Weighted>
-5.4205

> <Gold.Chemscore.Metal.Weighted>
-0.0000

> <Gold.Chemscore.Lipo.Weighted>
-16.7227

> <Gold.Chemscore.Internal_Hbond.Weighted>
0.0000

> <Gold.Chemscore.DEClash.Weighted>
0.1477

> <Gold.Chemscore.DEInternal.Weighted>
1.7674

> <Gold.Chemscore.Rot.Weighted>
6.2854

> <Gold.Chemscore.Internal.Correction.Weighted>
   9.000000E+99

> <Gold.Protein.RotatedTorsions>
[ 6907 6896 6895 6894 ] final  162.88 input  -60.11 | X-H torsion
[ 7974 7965 7964 7962 ] final  -84.74 input  175.53 | X-H torsion
[ 8008 7997 7996 7995 ] final  -32.39 input   59.86 | X-H torsion
[ 10167 10162 10161 10158 ] final   44.74 input  -65.29 | X-H torsion
[ 10718 10713 10712 10709 ] final   63.45 input   66.30 | X-H torsion
[ 10763 10752 10751 10750 ] final   55.07 input  -60.55 | X-H torsion
[ 11005 11000 10999 10996 ] final   -2.40 input  -57.11 | X-H torsion

> <Gold.Protein.ActiveResidues>
 VAL166  LYS551  ARG553  GLY616  TRP617  ASP618  TYR619  PRO620  LYS621  CYS622 
 ASP623  PHE694  ASN695  SER759  ASP760  ASP761  ALA762  ILE779  LEU786  VAL792 
 PHE793  MET794  SER795  GLU796  ALA797  LYS798  CYS799  TRP800  GLU811  SER814 

> <Gold.Protein.RotatedAtoms>
  151.9338  133.3618  159.3939 H   0  0  0  0  0  0  0  0  0  0  0  0  # atno 6907 bound_to 6896
  150.7012  134.4510  159.5346 H   0  0  0  0  0  0  0  0  0  0  0  0  # atno 6908 bound_to 6896
  152.2155  134.8461  160.0543 H   0  0  0  0  0  0  0  0  0  0  0  0  # atno 6909 bound_to 6896
  145.5026  140.9546  143.1751 H   0  0  0  0  0  0  0  0  0  0  0  0  # atno 7974 bound_to 7965
  154.4181  140.1738  156.1720 H   0  0  0  0  0  0  0  0  0  0  0  0  # atno 8008 bound_to 7997
  155.9752  140.3382  155.6588 H   0  0  0  0  0  0  0  0  0  0  0  0  # atno 8009 bound_to 7997
  155.6572  140.0697  157.2557 H   0  0  0  0  0  0  0  0  0  0  0  0  # atno 8010 bound_to 7997
  140.3312  144.2586  150.6168 H   0  0  0  0  0  0  0  0  0  0  0  0  # atno 10167 bound_to 10162
  157.5972  130.9106  149.9718 H   0  0  0  0  0  0  0  0  0  0  0  0  # atno 10718 bound_to 10713
  152.9812  135.5723  154.5007 H   0  0  0  0  0  0  0  0  0  0  0  0  # atno 10763 bound_to 10752
  154.4527  135.2779  155.1771 H   0  0  0  0  0  0  0  0  0  0  0  0  # atno 10764 bound_to 10752
  154.3392  135.6233  153.5642 H   0  0  0  0  0  0  0  0  0  0  0  0  # atno 10765 bound_to 10752
  140.6580  133.9346  155.8419 H   0  0  0  0  0  0  0  0  0  0  0  0  # atno 11005 bound_to 11000
  144.7771  139.6605  143.7170 LP  0  0  0  0  0  0  0  0  0  0  0  0  # atno 17320 bound_to 7965
  146.2216  139.5647  142.9614 LP  0  0  0  0  0  0  0  0  0  0  0  0  # atno 17321 bound_to 7965
  140.5395  143.2226  151.8107 LP  0  0  0  0  0  0  0  0  0  0  0  0  # atno 17342 bound_to 10162
  139.4856  144.4618  151.9532 LP  0  0  0  0  0  0  0  0  0  0  0  0  # atno 17343 bound_to 10162
  156.1037  130.3654  150.0171 LP  0  0  0  0  0  0  0  0  0  0  0  0  # atno 17370 bound_to 10713
  156.8282  130.9383  151.3638 LP  0  0  0  0  0  0  0  0  0  0  0  0  # atno 17371 bound_to 10713
  141.0487  134.0516  157.3811 LP  0  0  0  0  0  0  0  0  0  0  0  0  # atno 17394 bound_to 11000
  139.9023  135.0168  156.7325 LP  0  0  0  0  0  0  0  0  0  0  0  0  # atno 17395 bound_to 11000

$$$$
