AV-unprocessed.smi:2592|AV-procd|sdf|10162|dock9
  -GOLD-   2272014173D 1   1.00000     0.00000
 Structure written by MMmdl.
 41 42  0  0  0  0  0  0  0  0  2 V2000
  147.0986  136.5856  163.4048 C   0  0  0  0  0  0  0  0  0  0  0  0
  147.6201  136.2356  162.0451 C   0  0  0  0  0  0  0  0  0  0  0  0
  148.0484  137.2512  161.1866 N   0  0  0  0  0  0  0  0  0  0  0  0
  148.4974  136.8046  160.0096 C   0  0  0  0  0  0  0  0  0  0  0  0
  148.9481  137.6185  159.0408 N   0  5  0  0  0  0  0  0  0  0  0  0
  150.2782  137.7869  158.8620 C   0  0  0  0  0  0  0  0  0  0  0  0
  151.1604  136.9645  159.1202 O   0  0  0  0  0  0  0  0  0  0  0  0
  150.6060  138.9810  158.3476 N   0  0  0  0  0  0  0  0  0  0  0  0
  151.9563  139.4355  158.0337 C   0  0  0  0  0  0  0  0  0  0  0  0
  152.1274  140.9367  158.3167 C   0  0  0  0  0  0  0  0  0  0  0  0
  151.3034  141.8066  157.3524 C   0  0  0  0  0  0  0  0  0  0  0  0
  151.1135  143.1931  157.7770 N   0  0  0  0  0  0  0  0  0  0  0  0
  150.0837  143.2863  158.8063 C   0  0  0  0  0  0  0  0  0  0  0  0
  149.8654  144.7357  159.2737 C   0  0  0  0  0  0  0  0  0  0  0  0
  151.0964  145.2737  159.7446 O   0  0  0  0  0  0  0  0  0  0  0  0
  152.1209  145.2455  158.7562 C   0  0  0  0  0  0  0  0  0  0  0  0
  152.3445  143.7991  158.2815 C   0  0  0  0  0  0  0  0  0  0  0  0
  148.3930  135.0477  159.8900 S   0  0  0  0  0  0  0  0  0  0  0  0
  147.7339  134.9796  161.5024 C   0  0  0  0  0  0  0  0  0  0  0  0
  147.3731  133.6740  162.1287 C   0  0  0  0  0  0  0  0  0  0  0  0
  146.0215  136.4279  163.4628 H   0  0  0  0  0  0  0  0  0  0  0  0
  147.2934  137.6289  163.6555 H   0  0  0  0  0  0  0  0  0  0  0  0
  147.5652  135.9711  164.1750 H   0  0  0  0  0  0  0  0  0  0  0  0
  149.8516  139.6237  158.1545 H   0  0  0  0  0  0  0  0  0  0  0  0
  152.6541  138.8607  158.6427 H   0  0  0  0  0  0  0  0  0  0  0  0
  152.1956  139.2114  156.9930 H   0  0  0  0  0  0  0  0  0  0  0  0
  151.8348  141.1385  159.3468 H   0  0  0  0  0  0  0  0  0  0  0  0
  153.1820  141.2032  158.2350 H   0  0  0  0  0  0  0  0  0  0  0  0
  151.8153  141.8041  156.3889 H   0  0  0  0  0  0  0  0  0  0  0  0
  150.3338  141.3381  157.1770 H   0  0  0  0  0  0  0  0  0  0  0  0
  149.1430  142.8861  158.4262 H   0  0  0  0  0  0  0  0  0  0  0  0
  150.3605  142.6701  159.6633 H   0  0  0  0  0  0  0  0  0  0  0  0
  149.4782  145.3509  158.4601 H   0  0  0  0  0  0  0  0  0  0  0  0
  149.1309  144.7683  160.0783 H   0  0  0  0  0  0  0  0  0  0  0  0
  151.8455  145.8881  157.9184 H   0  0  0  0  0  0  0  0  0  0  0  0
  153.0386  145.6510  159.1824 H   0  0  0  0  0  0  0  0  0  0  0  0
  152.7378  143.2050  159.1079 H   0  0  0  0  0  0  0  0  0  0  0  0
  153.1108  143.8042  157.5072 H   0  0  0  0  0  0  0  0  0  0  0  0
  148.1307  133.3719  162.8519 H   0  0  0  0  0  0  0  0  0  0  0  0
  147.2897  132.8874  161.3785 H   0  0  0  0  0  0  0  0  0  0  0  0
  146.4172  133.7427  162.6483 H   0  0  0  0  0  0  0  0  0  0  0  0
  1  2  1  0  0  0  0
  1 21  1  0  0  0  0
  1 22  1  0  0  0  0
  1 23  1  0  0  0  0
  2 19  2  0  0  0  0
  2  3  1  0  0  0  0
  3  4  2  0  0  0  0
  4  5  1  0  0  0  0
  4 18  1  0  0  0  0
  5  6  1  0  0  0  0
  6  7  2  0  0  0  0
  6  8  1  0  0  0  0
  8  9  1  0  0  0  0
  8 24  1  0  0  0  0
  9 10  1  0  0  0  0
  9 25  1  0  0  0  0
  9 26  1  0  0  0  0
 10 11  1  0  0  0  0
 10 27  1  0  0  0  0
 10 28  1  0  0  0  0
 11 12  1  0  0  0  0
 11 29  1  0  0  0  0
 11 30  1  0  0  0  0
 12 17  1  0  0  0  0
 12 13  1  0  0  0  0
 13 14  1  0  0  0  0
 13 31  1  0  0  0  0
 13 32  1  0  0  0  0
 14 15  1  0  0  0  0
 14 33  1  0  0  0  0
 14 34  1  0  0  0  0
 15 16  1  0  0  0  0
 16 17  1  0  0  0  0
 16 35  1  0  0  0  0
 16 36  1  0  0  0  0
 17 37  1  0  0  0  0
 17 38  1  0  0  0  0
 18 19  1  0  0  0  0
 19 20  1  0  0  0  0
 20 39  1  0  0  0  0
 20 40  1  0  0  0  0
 20 41  1  0  0  0  0
M  CHG  1   5  -1
M  END
> <s_m_source_file>
AV-unprocessed.smi

> <i_m_source_file_index>
2592

> <i_lp_mmshare_version>
43012

> <i_f3d_flags>
0

> <s_epik_input>
W0NIM11jMW5jKHNjMVtDSDNdKVtOSF1DKD1PKVtOSF1bQ0gyXVtDSDJdW0NIMl1OMltDSDJdW0NIMl1PW0NIMl1bQ0gyXTI=

> <s_epik_cmdline>
J2VwaWtfcHl0aG9uJywgJy1waCcsICc3LjAnLCAnLXRuJywgJzgnLCAnLW1hJywgJzIwMCcsICctbWV0YWxfYmluZGluZycsICctaW1hZScsICc8aW5maWxlLm1hZT4nLCAnLW9tYWUnLCAnPG91dGZpbGUubWFlPic=

> <r_lp_tautomer_probability>
0.999

> <r_epik_Ionization_Penalty>
8.38414

> <r_epik_Ionization_Penalty_Charging>
6.24826

> <r_epik_Ionization_Penalty_Neutral>
2.13587

> <r_epik_State_Penalty>
6.83636

> <r_epik_Charging_Adjusted_Penalty>
13.0846

> <i_epik_Tot_Q>
-1

> <i_epik_Tot_abs_Q>
1

> <r_epik_Metal_State_Penalty>
2.77797

> <b_epik_Metal_Only>
1

> <s_lp_Force_Field>
OPLS_2005

> <r_lp_Energy>
16.0962

> <b_lp_Chiralities_Consistent>
1

> <s_lp_Variant>
AV-unprocessed.smi:2592-4

> <Gold.Version>
5.8.1

> <Gold.Id.Protein>
6NUR|6NUR_protein|mol2

> <Gold.PLP.Fitness>
44.2061

> <Gold.PLP.PLP>
-38.6312

> <Gold.PLP.part.hbond>
-2.9773

> <Gold.PLP.part.metal>
0.0000

> <Gold.PLP.part.buried>
-6.1638

> <Gold.PLP.part.nonpolar>
-29.7010

> <Gold.PLP.part.repulsive>
0.3834

> <Gold.PLP.ligand.clash>
0.0000

> <Gold.PLP.ligand.torsion>
1.2836

> <Gold.PLP.Chemscore.Hbond>
2.6661

> <Gold.PLP.Chemscore.CHOScore>
0.0000

> <Gold.PLP.Chemscore.Metal>
0.0000

> <Gold.Chemscore.Hbonds>
donor molecule, donor type, donor heavy atom, donor atom, acceptor molecule, acceptor atom, score
      P1  H  6896  6907       L1     7  1.00
      P1  H  6931  6943       L1     3  0.99
      P1  H  6934  6947       L1     3  0.67

> <Gold.PLP.Chemscore.Internal.Correction>
0.1438

> <Gold.Rescore>
     Score         DG    S(hbond)    S(metal)    S(lipo)     H(rot)  DE(clash)    DE(int)     intcor
     19.34     -20.48       2.36        0.00      96.81       1.65       0.01       1.13       ----

> <Gold.Chemscore.Fitness>
19.3369

> <Gold.Chemscore.DG>
-20.4764

> <Gold.Chemscore.ZeroCoef>
-5.4800

> <Gold.Chemscore.Hbond>
2.3598

> <Gold.Chemscore.Metal>
0.0000

> <Gold.Chemscore.Lipo>
96.8086

> <Gold.Chemscore.Internal_Hbond>
0.0000

> <Gold.Chemscore.DEClash>
0.0131

> <Gold.Chemscore.DEInternal>
1.1264

> <Gold.Chemscore.Rot>
1.6452

> <Gold.Chemscore.Internal.Correction>
   9.000000E+99

> <Gold.Chemscore.Hbonds>
donor molecule, donor type, donor heavy atom, donor atom, acceptor molecule, acceptor atom, score
      P1  H  6896  6907       L1     7  0.96
      P1  H  6931  6943       L1     3  0.67
      P1  H  6934  6947       L1     3  0.45

> <Gold.Chemscore.Hbond.Weighted>
-7.8816

> <Gold.Chemscore.Metal.Weighted>
-0.0000

> <Gold.Chemscore.Lipo.Weighted>
-11.3266

> <Gold.Chemscore.Internal_Hbond.Weighted>
0.0000

> <Gold.Chemscore.DEClash.Weighted>
0.0131

> <Gold.Chemscore.DEInternal.Weighted>
1.1264

> <Gold.Chemscore.Rot.Weighted>
4.2118

> <Gold.Chemscore.Internal.Correction.Weighted>
   9.000000E+99

> <Gold.Protein.RotatedTorsions>
[ 6907 6896 6895 6894 ] final  -20.03 input  -60.11 | X-H torsion
[ 7974 7965 7964 7962 ] final   83.18 input  175.53 | X-H torsion
[ 8008 7997 7996 7995 ] final   -2.51 input   59.86 | X-H torsion
[ 10167 10162 10161 10158 ] final  -71.19 input  -65.29 | X-H torsion
[ 10718 10713 10712 10709 ] final   11.37 input   66.30 | X-H torsion
[ 10763 10752 10751 10750 ] final -160.86 input  -60.55 | X-H torsion
[ 11005 11000 10999 10996 ] final -165.89 input  -57.11 | X-H torsion

> <Gold.Protein.ActiveResidues>
 VAL166  LYS551  ARG553  GLY616  TRP617  ASP618  TYR619  PRO620  LYS621  CYS622 
 ASP623  PHE694  ASN695  SER759  ASP760  ASP761  ALA762  ILE779  LEU786  VAL792 
 PHE793  MET794  SER795  GLU796  ALA797  LYS798  CYS799  TRP800  GLU811  SER814 

> <Gold.Protein.RotatedAtoms>
  151.2543  135.0633  159.9073 H   0  0  0  0  0  0  0  0  0  0  0  0  # atno 6907 bound_to 6896
  152.5375  134.0298  159.8030 H   0  0  0  0  0  0  0  0  0  0  0  0  # atno 6908 bound_to 6896
  151.0511  133.5573  159.2673 H   0  0  0  0  0  0  0  0  0  0  0  0  # atno 6909 bound_to 6896
  145.6152  139.2375  143.2169 H   0  0  0  0  0  0  0  0  0  0  0  0  # atno 7974 bound_to 7965
  154.6350  140.2532  155.7389 H   0  0  0  0  0  0  0  0  0  0  0  0  # atno 8008 bound_to 7997
  156.2499  140.2899  156.0638 H   0  0  0  0  0  0  0  0  0  0  0  0  # atno 8009 bound_to 7997
  155.1686  140.0386  157.2848 H   0  0  0  0  0  0  0  0  0  0  0  0  # atno 8010 bound_to 7997
  140.5293  143.2323  151.7291 H   0  0  0  0  0  0  0  0  0  0  0  0  # atno 10167 bound_to 10162
  156.9946  130.6055  149.5689 H   0  0  0  0  0  0  0  0  0  0  0  0  # atno 10718 bound_to 10713
  154.7354  135.3056  154.8820 H   0  0  0  0  0  0  0  0  0  0  0  0  # atno 10763 bound_to 10752
  153.9650  135.6748  153.4750 H   0  0  0  0  0  0  0  0  0  0  0  0  # atno 10764 bound_to 10752
  153.0957  135.4936  154.8697 H   0  0  0  0  0  0  0  0  0  0  0  0  # atno 10765 bound_to 10752
  140.5706  134.5241  157.5161 H   0  0  0  0  0  0  0  0  0  0  0  0  # atno 11005 bound_to 11000
  146.1473  140.6974  142.9338 LP  0  0  0  0  0  0  0  0  0  0  0  0  # atno 17320 bound_to 7965
  144.7253  140.4505  143.6977 LP  0  0  0  0  0  0  0  0  0  0  0  0  # atno 17321 bound_to 7965
  139.4949  144.4138  152.0052 LP  0  0  0  0  0  0  0  0  0  0  0  0  # atno 17342 bound_to 10162
  140.3239  144.3395  150.6003 LP  0  0  0  0  0  0  0  0  0  0  0  0  # atno 17343 bound_to 10162
  156.0194  130.5289  150.8231 LP  0  0  0  0  0  0  0  0  0  0  0  0  # atno 17370 bound_to 10713
  157.5434  131.0941  150.9796 LP  0  0  0  0  0  0  0  0  0  0  0  0  # atno 17371 bound_to 10713
  139.9364  134.7868  156.0793 LP  0  0  0  0  0  0  0  0  0  0  0  0  # atno 17394 bound_to 11000
  141.1058  133.6660  156.2861 LP  0  0  0  0  0  0  0  0  0  0  0  0  # atno 17395 bound_to 11000

$$$$
