AV-unprocessed.smi:1626|AV-procd|sdf|6509|dock1
  -GOLD-   22720 7173D 1   1.00000     0.00000
 Structure written by MMmdl.
 48 50  0  0  0  0  0  0  0  0  2 V2000
  153.5899  142.2037  159.9093 C   0  0  0  0  0  0  0  0  0  0  0  0
  152.4488  141.9156  158.9500 C   0  0  0  0  0  0  0  0  0  0  0  0
  152.0121  140.5821  158.7826 C   0  0  0  0  0  0  0  0  0  0  0  0
  150.9525  140.2723  157.9025 C   0  0  0  0  0  0  0  0  0  0  0  0
  150.3696  139.0563  157.5895 N   0  0  0  0  0  0  0  0  0  0  0  0
  149.4372  139.4224  156.7153 C   0  0  0  0  0  0  0  0  0  0  0  0
  149.3522  140.7338  156.4180 N   0  0  0  0  0  0  0  0  0  0  0  0
  148.4251  141.3672  155.4974 C   0  0  0  0  0  0  0  0  0  0  0  0
  147.5151  140.3490  154.7835 C   0  0  1  0  0  0  0  0  0  0  0  0
  146.5494  141.0428  154.0162 O   0  0  0  0  0  0  0  0  0  0  0  0
  148.3194  139.4268  153.8461 C   0  0  0  0  0  0  0  0  0  0  0  0
  147.4858  138.3513  153.2494 N   0  3  2  0  0  0  0  0  0  0  0  0
  146.7676  138.7761  152.0184 C   0  0  0  0  0  0  0  0  0  0  0  0
  146.0375  137.5903  151.3606 C   0  0  0  0  0  0  0  0  0  0  0  0
  145.0874  136.8832  152.3415 C   0  0  2  0  0  0  0  0  0  0  0  0
  143.9775  137.7103  152.6281 O   0  0  0  0  0  0  0  0  0  0  0  0
  145.8281  136.5266  153.6409 C   0  0  0  0  0  0  0  0  0  0  0  0
  146.5595  137.7421  154.2380 C   0  0  0  0  0  0  0  0  0  0  0  0
  150.3382  141.3415  157.1870 C   0  0  0  0  0  0  0  0  0  0  0  0
  150.7643  142.6722  157.3435 C   0  0  0  0  0  0  0  0  0  0  0  0
  151.8236  142.9641  158.2283 C   0  0  0  0  0  0  0  0  0  0  0  0
  152.2761  144.4043  158.3929 C   0  0  0  0  0  0  0  0  0  0  0  0
  153.9470  141.2920  160.3893 H   0  0  0  0  0  0  0  0  0  0  0  0
  153.2666  142.8890  160.6933 H   0  0  0  0  0  0  0  0  0  0  0  0
  154.4297  142.6538  159.3795 H   0  0  0  0  0  0  0  0  0  0  0  0
  152.4883  139.7831  159.3320 H   0  0  0  0  0  0  0  0  0  0  0  0
  148.7809  138.6948  156.2604 H   0  0  0  0  0  0  0  0  0  0  0  0
  147.8281  142.0946  156.0495 H   0  0  0  0  0  0  0  0  0  0  0  0
  149.0056  141.9316  154.7664 H   0  0  0  0  0  0  0  0  0  0  0  0
  146.9917  139.7626  155.5382 H   0  0  0  0  0  0  0  0  0  0  0  0
  146.9983  141.6510  153.4479 H   0  0  0  0  0  0  0  0  0  0  0  0
  148.7530  140.0395  153.0538 H   0  0  0  0  0  0  0  0  0  0  0  0
  149.1613  138.9785  154.3761 H   0  0  0  0  0  0  0  0  0  0  0  0
  146.0567  139.5661  152.2654 H   0  0  0  0  0  0  0  0  0  0  0  0
  147.4659  139.2002  151.2981 H   0  0  0  0  0  0  0  0  0  0  0  0
  145.4904  137.9269  150.4790 H   0  0  0  0  0  0  0  0  0  0  0  0
  146.7780  136.8738  151.0022 H   0  0  0  0  0  0  0  0  0  0  0  0
  144.7016  135.9719  151.8830 H   0  0  0  0  0  0  0  0  0  0  0  0
  144.2193  138.6091  152.4622 H   0  0  0  0  0  0  0  0  0  0  0  0
  145.1337  136.1089  154.3709 H   0  0  0  0  0  0  0  0  0  0  0  0
  146.5568  135.7419  153.4327 H   0  0  0  0  0  0  0  0  0  0  0  0
  147.1180  137.4200  155.1177 H   0  0  0  0  0  0  0  0  0  0  0  0
  145.8414  138.4907  154.5767 H   0  0  0  0  0  0  0  0  0  0  0  0
  150.2791  143.4613  156.7886 H   0  0  0  0  0  0  0  0  0  0  0  0
  151.6969  145.0790  157.7619 H   0  0  0  0  0  0  0  0  0  0  0  0
  153.3259  144.5085  158.1185 H   0  0  0  0  0  0  0  0  0  0  0  0
  152.1543  144.7270  159.4272 H   0  0  0  0  0  0  0  0  0  0  0  0
  148.1287  137.6194  152.9815 H   0  0  0  0  0  0  0  0  0  0  0  0
  1  2  1  0  0  0  0
  1 23  1  0  0  0  0
  1 24  1  0  0  0  0
  1 25  1  0  0  0  0
  2 21  1  0  0  0  0
  2  3  2  0  0  0  0
  3  4  1  0  0  0  0
  3 26  1  0  0  0  0
  4 19  2  0  0  0  0
  4  5  1  0  0  0  0
  5  6  2  0  0  0  0
  6  7  1  0  0  0  0
  6 27  1  0  0  0  0
  7  8  1  0  0  0  0
  7 19  1  0  0  0  0
  8  9  1  0  0  0  0
  8 28  1  0  0  0  0
  8 29  1  0  0  0  0
  9 10  1  0  0  0  0
  9 11  1  0  0  0  0
  9 30  1  0  0  0  0
 10 31  1  0  0  0  0
 11 12  1  0  0  0  0
 11 32  1  0  0  0  0
 11 33  1  0  0  0  0
 12 18  1  0  0  0  0
 12 13  1  0  0  0  0
 12 48  1  0  0  0  0
 13 14  1  0  0  0  0
 13 34  1  0  0  0  0
 13 35  1  0  0  0  0
 14 15  1  0  0  0  0
 14 36  1  0  0  0  0
 14 37  1  0  0  0  0
 15 16  1  0  0  0  0
 15 17  1  0  0  0  0
 15 38  1  0  0  0  0
 16 39  1  0  0  0  0
 17 18  1  0  0  0  0
 17 40  1  0  0  0  0
 17 41  1  0  0  0  0
 18 42  1  0  0  0  0
 18 43  1  0  0  0  0
 19 20  1  0  0  0  0
 20 21  2  0  0  0  0
 20 44  1  0  0  0  0
 21 22  1  0  0  0  0
 22 45  1  0  0  0  0
 22 46  1  0  0  0  0
 22 47  1  0  0  0  0
M  CHG  1  12   1
M  END
> <s_m_source_file>
AV-unprocessed.smi

> <i_m_source_file_index>
1626

> <i_lp_mmshare_version>
43012

> <i_f3d_flags>
0

> <s_epik_input>
W0NIM11jKFtjSF0xKWMoW0NIM10pW2NIXWMoYzEyKW4oW2NIXW4yKVtDSDJdW0NASF0oW09IXSlbQ0gyXU4zW0NIMl1bQ0gyXVtDSF0oW09IXSlbQ0gyXVtDSDJdMw==

> <s_epik_cmdline>
J2VwaWtfcHl0aG9uJywgJy1waCcsICc3LjAnLCAnLXRuJywgJzgnLCAnLW1hJywgJzIwMCcsICctbWV0YWxfYmluZGluZycsICctaW1hZScsICc8aW5maWxlLm1hZT4nLCAnLW9tYWUnLCAnPG91dGZpbGUubWFlPic=

> <r_epik_Ionization_Penalty>
0.106584

> <r_epik_Ionization_Penalty_Charging>
0.0185694

> <r_epik_Ionization_Penalty_Neutral>
0.0880147

> <r_epik_State_Penalty>
0.0908428

> <r_epik_Charging_Adjusted_Penalty>
0.109412

> <i_epik_Tot_Q>
1

> <i_epik_Tot_abs_Q>
1

> <r_epik_Metal_State_Penalty>
0.0153739

> <b_epik_Metal_Only>
0

> <s_lp_Force_Field>
OPLS_2005

> <r_lp_Energy>
22.63

> <b_lp_Chiralities_Consistent>
1

> <s_lp_Variant>
AV-unprocessed.smi:1626-4

> <Gold.Version>
5.8.1

> <Gold.Id.Protein>
6NUR|6NUR_protein|mol2

> <Gold.PLP.Fitness>
46.1999

> <Gold.PLP.PLP>
-38.0086

> <Gold.PLP.part.hbond>
-3.0825

> <Gold.PLP.part.metal>
0.0000

> <Gold.PLP.part.buried>
0.0735

> <Gold.PLP.part.nonpolar>
-35.6790

> <Gold.PLP.part.repulsive>
0.0315

> <Gold.PLP.ligand.clash>
0.0000

> <Gold.PLP.ligand.torsion>
0.2525

> <Gold.PLP.Chemscore.Hbond>
2.8800

> <Gold.PLP.Chemscore.CHOScore>
0.0000

> <Gold.PLP.Chemscore.Metal>
0.0000

> <Gold.Chemscore.Hbonds>
donor molecule, donor type, donor heavy atom, donor atom, acceptor molecule, acceptor atom, score
      L1  H    12    48       P1  7948  2.00
      L1  H    16    39       P1 10175  0.93

> <Gold.PLP.Chemscore.Internal.Correction>
0.0563

> <Gold.Rescore>
     Score         DG    S(hbond)    S(metal)    S(lipo)     H(rot)  DE(clash)    DE(int)     intcor
     15.99     -17.72       1.87        0.00     109.65       2.67       0.58       1.16       ----

> <Gold.Chemscore.Fitness>
15.9860

> <Gold.Chemscore.DG>
-17.7249

> <Gold.Chemscore.ZeroCoef>
-5.4800

> <Gold.Chemscore.Hbond>
1.8726

> <Gold.Chemscore.Metal>
0.0000

> <Gold.Chemscore.Lipo>
109.6485

> <Gold.Chemscore.Internal_Hbond>
0.0000

> <Gold.Chemscore.DEClash>
0.5770

> <Gold.Chemscore.DEInternal>
1.1619

> <Gold.Chemscore.Rot>
2.6712

> <Gold.Chemscore.Internal.Correction>
   9.000000E+99

> <Gold.Chemscore.Hbonds>
donor molecule, donor type, donor heavy atom, donor atom, acceptor molecule, acceptor atom, score
      L1  H    12    48       P1  7948  0.98
      L1  H    16    39       P1 10175  0.89

> <Gold.Chemscore.Hbond.Weighted>
-6.2544

> <Gold.Chemscore.Metal.Weighted>
-0.0000

> <Gold.Chemscore.Lipo.Weighted>
-12.8289

> <Gold.Chemscore.Internal_Hbond.Weighted>
0.0000

> <Gold.Chemscore.DEClash.Weighted>
0.5770

> <Gold.Chemscore.DEInternal.Weighted>
1.1619

> <Gold.Chemscore.Rot.Weighted>
6.8383

> <Gold.Chemscore.Internal.Correction.Weighted>
   9.000000E+99

> <Gold.Protein.RotatedTorsions>
[ 6907 6896 6895 6894 ] final  121.36 input  -60.11 | X-H torsion
[ 7974 7965 7964 7962 ] final   80.35 input  175.53 | X-H torsion
[ 8008 7997 7996 7995 ] final  124.83 input   59.86 | X-H torsion
[ 10167 10162 10161 10158 ] final   79.58 input  -65.29 | X-H torsion
[ 10718 10713 10712 10709 ] final   22.08 input   66.30 | X-H torsion
[ 10763 10752 10751 10750 ] final   60.74 input  -60.55 | X-H torsion
[ 11005 11000 10999 10996 ] final -173.41 input  -57.11 | X-H torsion

> <Gold.Protein.ActiveResidues>
 VAL166  LYS551  ARG553  GLY616  TRP617  ASP618  TYR619  PRO620  LYS621  CYS622 
 ASP623  PHE694  ASN695  SER759  ASP760  ASP761  ALA762  ILE779  LEU786  VAL792 
 PHE793  MET794  SER795  GLU796  ALA797  LYS798  CYS799  TRP800  GLU811  SER814 

> <Gold.Protein.RotatedAtoms>
  152.4327  133.7306  159.6585 H   0  0  0  0  0  0  0  0  0  0  0  0  # atno 6907 bound_to 6896
  150.8208  133.8246  159.3146 H   0  0  0  0  0  0  0  0  0  0  0  0  # atno 6908 bound_to 6896
  151.5928  135.1054  160.0094 H   0  0  0  0  0  0  0  0  0  0  0  0  # atno 6909 bound_to 6896
  145.6524  139.2451  143.1969 H   0  0  0  0  0  0  0  0  0  0  0  0  # atno 7974 bound_to 7965
  156.2814  140.2730  156.1851 H   0  0  0  0  0  0  0  0  0  0  0  0  # atno 8008 bound_to 7997
  155.0516  140.0386  157.2563 H   0  0  0  0  0  0  0  0  0  0  0  0  # atno 8009 bound_to 7997
  154.7190  140.2684  155.6564 H   0  0  0  0  0  0  0  0  0  0  0  0  # atno 8010 bound_to 7997
  139.9588  144.5975  150.8092 H   0  0  0  0  0  0  0  0  0  0  0  0  # atno 10167 bound_to 10162
  157.1474  130.6659  149.6000 H   0  0  0  0  0  0  0  0  0  0  0  0  # atno 10718 bound_to 10713
  152.9930  135.5525  154.5922 H   0  0  0  0  0  0  0  0  0  0  0  0  # atno 10763 bound_to 10752
  154.5281  135.2812  155.1206 H   0  0  0  0  0  0  0  0  0  0  0  0  # atno 10764 bound_to 10752
  154.2532  135.6395  153.5300 H   0  0  0  0  0  0  0  0  0  0  0  0  # atno 10765 bound_to 10752
  140.4861  134.6029  157.4937 H   0  0  0  0  0  0  0  0  0  0  0  0  # atno 11005 bound_to 11000
  146.1193  140.7329  142.9465 LP  0  0  0  0  0  0  0  0  0  0  0  0  # atno 17320 bound_to 7965
  144.7118  140.4066  143.7075 LP  0  0  0  0  0  0  0  0  0  0  0  0  # atno 17321 bound_to 7965
  140.7560  143.3057  151.2969 LP  0  0  0  0  0  0  0  0  0  0  0  0  # atno 17342 bound_to 10162
  139.6570  144.0257  152.2667 LP  0  0  0  0  0  0  0  0  0  0  0  0  # atno 17343 bound_to 10162
  155.9777  130.4756  150.6609 LP  0  0  0  0  0  0  0  0  0  0  0  0  # atno 17370 bound_to 10713
  157.4252  131.0842  151.1093 LP  0  0  0  0  0  0  0  0  0  0  0  0  # atno 17371 bound_to 10713
  139.9797  134.7157  155.9882 LP  0  0  0  0  0  0  0  0  0  0  0  0  # atno 17394 bound_to 11000
  141.1507  133.6549  156.4005 LP  0  0  0  0  0  0  0  0  0  0  0  0  # atno 17395 bound_to 11000

$$$$
