AV-unprocessed.smi:980|AV-procd|sdf|4311|dock1
  -GOLD-   22720 2213D 1   1.00000     0.00000
 Structure written by MMmdl.
 44 45  0  0  0  0  0  0  0  0  1 V2000
  152.9726  144.1038  158.3891 C   0  0  0  0  0  0  0  0  0  0  0  0
  151.7209  143.8619  159.2596 C   0  0  0  0  0  0  0  0  0  0  0  0
  152.1875  143.6387  160.7117 C   0  0  0  0  0  0  0  0  0  0  0  0
  150.8368  145.1220  159.1814 C   0  0  0  0  0  0  0  0  0  0  0  0
  150.9423  142.6548  158.7751 C   0  0  0  0  0  0  0  0  0  0  0  0
  149.6591  142.6145  158.2783 C   0  0  0  0  0  0  0  0  0  0  0  0
  149.1698  141.0023  157.8352 S   0  0  0  0  0  0  0  0  0  0  0  0
  150.7403  140.4167  158.3612 C   0  0  0  0  0  0  0  0  0  0  0  0
  151.1594  138.9886  158.2607 C   0  0  0  0  0  0  0  0  0  0  0  0
  149.9986  138.0666  157.8673 C   0  0  0  0  0  0  0  0  0  0  0  0
  149.7098  137.1187  158.9342 N   0  0  0  0  0  0  0  0  0  0  0  0
  148.4773  136.8301  159.3761 C   0  0  0  0  0  0  0  0  0  0  0  0
  147.4612  137.3657  158.9322 O   0  0  0  0  0  0  0  0  0  0  0  0
  148.3752  135.7740  160.4847 C   0  0  2  0  0  0  0  0  0  0  0  0
  147.4958  134.5837  160.0377 C   0  0  0  0  0  0  0  0  0  0  0  0
  147.1667  133.6499  161.1889 C   0  0  0  0  0  0  0  0  0  0  0  0
  147.3209  133.9867  162.4809 C   0  0  0  0  0  0  0  0  0  0  0  0
  147.8368  135.3404  162.9361 C   0  0  0  0  0  0  0  0  0  0  0  0
  147.8369  136.3781  161.7974 C   0  0  0  0  0  0  0  0  0  0  0  0
  151.5401  141.3877  158.8070 N   0  0  0  0  0  0  0  0  0  0  0  0
  153.5331  144.9738  158.7329 H   0  0  0  0  0  0  0  0  0  0  0  0
  152.7070  144.2826  157.3464 H   0  0  0  0  0  0  0  0  0  0  0  0
  153.6515  143.2506  158.4178 H   0  0  0  0  0  0  0  0  0  0  0  0
  152.8146  142.7502  160.7937 H   0  0  0  0  0  0  0  0  0  0  0  0
  151.3440  143.5085  161.3905 H   0  0  0  0  0  0  0  0  0  0  0  0
  152.7683  144.4862  161.0771 H   0  0  0  0  0  0  0  0  0  0  0  0
  151.3803  146.0098  159.5059 H   0  0  0  0  0  0  0  0  0  0  0  0
  149.9536  145.0336  159.8152 H   0  0  0  0  0  0  0  0  0  0  0  0
  150.4927  145.3013  158.1620 H   0  0  0  0  0  0  0  0  0  0  0  0
  148.9688  143.4334  158.1404 H   0  0  0  0  0  0  0  0  0  0  0  0
  151.9657  138.9124  157.5298 H   0  0  0  0  0  0  0  0  0  0  0  0
  151.5760  138.6809  159.2205 H   0  0  0  0  0  0  0  0  0  0  0  0
  149.1055  138.6563  157.6537 H   0  0  0  0  0  0  0  0  0  0  0  0
  150.2505  137.5196  156.9572 H   0  0  0  0  0  0  0  0  0  0  0  0
  150.4939  136.6391  159.3520 H   0  0  0  0  0  0  0  0  0  0  0  0
  149.3790  135.3947  160.6858 H   0  0  0  0  0  0  0  0  0  0  0  0
  146.5548  134.9255  159.6039 H   0  0  0  0  0  0  0  0  0  0  0  0
  148.0129  134.0141  159.2645 H   0  0  0  0  0  0  0  0  0  0  0  0
  146.7783  132.6757  160.9302 H   0  0  0  0  0  0  0  0  0  0  0  0
  147.0808  133.2715  163.2540 H   0  0  0  0  0  0  0  0  0  0  0  0
  147.2257  135.6985  163.7648 H   0  0  0  0  0  0  0  0  0  0  0  0
  148.8474  135.2039  163.3220 H   0  0  0  0  0  0  0  0  0  0  0  0
  148.4251  137.2474  162.0941 H   0  0  0  0  0  0  0  0  0  0  0  0
  146.8174  136.7355  161.6427 H   0  0  0  0  0  0  0  0  0  0  0  0
  1  2  1  0  0  0  0
  1 21  1  0  0  0  0
  1 22  1  0  0  0  0
  1 23  1  0  0  0  0
  2  3  1  0  0  0  0
  2  4  1  0  0  0  0
  2  5  1  0  0  0  0
  3 24  1  0  0  0  0
  3 25  1  0  0  0  0
  3 26  1  0  0  0  0
  4 27  1  0  0  0  0
  4 28  1  0  0  0  0
  4 29  1  0  0  0  0
  5 20  1  0  0  0  0
  5  6  2  0  0  0  0
  6  7  1  0  0  0  0
  6 30  1  0  0  0  0
  7  8  1  0  0  0  0
  8  9  1  0  0  0  0
  8 20  2  0  0  0  0
  9 10  1  0  0  0  0
  9 31  1  0  0  0  0
  9 32  1  0  0  0  0
 10 11  1  0  0  0  0
 10 33  1  0  0  0  0
 10 34  1  0  0  0  0
 11 12  1  0  0  0  0
 11 35  1  0  0  0  0
 12 13  2  0  0  0  0
 12 14  1  0  0  0  0
 14 19  1  0  0  0  0
 14 15  1  0  0  0  0
 14 36  1  0  0  0  0
 15 16  1  0  0  0  0
 15 37  1  0  0  0  0
 15 38  1  0  0  0  0
 16 17  2  0  0  0  0
 16 39  1  0  0  0  0
 17 18  1  0  0  0  0
 17 40  1  0  0  0  0
 18 19  1  0  0  0  0
 18 41  1  0  0  0  0
 18 42  1  0  0  0  0
 19 43  1  0  0  0  0
 19 44  1  0  0  0  0
M  END
> <s_m_source_file>
AV-unprocessed.smi

> <i_m_source_file_index>
980

> <i_lp_mmshare_version>
43012

> <i_f3d_flags>
0

> <s_epik_input>
W0NIM11DKFtDSDNdKShbQ0gzXSljMVtjSF1zYyhuMSlbQ0gyXVtDSDJdW05IXUMoPU8pW0NAQEhdMltDSDJdW0NIXT1bQ0hdW0NIMl1bQ0gyXTI=

> <s_epik_cmdline>
J2VwaWtfcHl0aG9uJywgJy1waCcsICc3LjAnLCAnLXRuJywgJzgnLCAnLW1hJywgJzIwMCcsICctbWV0YWxfYmluZGluZycsICctaW1hZScsICc8aW5maWxlLm1hZT4nLCAnLW9tYWUnLCAnPG91dGZpbGUubWFlPic=

> <r_epik_Ionization_Penalty>
0.000809238

> <r_epik_Ionization_Penalty_Charging>
0

> <r_epik_Ionization_Penalty_Neutral>
0.000809238

> <r_epik_State_Penalty>
0.000520038

> <r_epik_Charging_Adjusted_Penalty>
0.000520038

> <i_epik_Tot_Q>
0

> <i_epik_Tot_abs_Q>
0

> <r_epik_Metal_State_Penalty>
-0

> <b_epik_Metal_Only>
0

> <s_lp_Force_Field>
OPLS_2005

> <r_lp_Energy>
0.0985756

> <b_lp_Chiralities_Consistent>
1

> <s_lp_Variant>
AV-unprocessed.smi:980-1

> <Gold.Version>
5.8.1

> <Gold.Id.Protein>
6NUR|6NUR_protein|mol2

> <Gold.PLP.Fitness>
44.0500

> <Gold.PLP.PLP>
-42.0803

> <Gold.PLP.part.hbond>
0.0000

> <Gold.PLP.part.metal>
0.0000

> <Gold.PLP.part.buried>
-6.1203

> <Gold.PLP.part.nonpolar>
-36.4789

> <Gold.PLP.part.repulsive>
0.2010

> <Gold.PLP.ligand.clash>
0.0000

> <Gold.PLP.ligand.torsion>
0.5750

> <Gold.PLP.Chemscore.Hbond>
0.0000

> <Gold.PLP.Chemscore.CHOScore>
1.0000

> <Gold.PLP.Chemscore.Metal>
0.0000

> <Gold.Chemscore.Hbonds>
donor molecule, donor type, donor heavy atom, donor atom, acceptor molecule, acceptor atom, score
      L1  C     6    30       P1  8028  0.23
      L1  C     6    30       P1  8029  0.10

> <Gold.PLP.Chemscore.Internal.Correction>
0.1196

> <Gold.Rescore>
     Score         DG    S(hbond)    S(metal)    S(lipo)     H(rot)  DE(clash)    DE(int)     intcor
     16.23     -17.01       0.00        0.00     129.38       1.41       0.14       0.64       ----

> <Gold.Chemscore.Fitness>
16.2318

> <Gold.Chemscore.DG>
-17.0089

> <Gold.Chemscore.ZeroCoef>
-5.4800

> <Gold.Chemscore.Hbond>
0.0000

> <Gold.Chemscore.Metal>
0.0000

> <Gold.Chemscore.Lipo>
129.3810

> <Gold.Chemscore.Internal_Hbond>
0.0000

> <Gold.Chemscore.DEClash>
0.1356

> <Gold.Chemscore.DEInternal>
0.6415

> <Gold.Chemscore.Rot>
1.4097

> <Gold.Chemscore.Internal.Correction>
   9.000000E+99

> <Gold.Chemscore.Hbond.Weighted>
-0.0000

> <Gold.Chemscore.Metal.Weighted>
-0.0000

> <Gold.Chemscore.Lipo.Weighted>
-15.1376

> <Gold.Chemscore.Internal_Hbond.Weighted>
0.0000

> <Gold.Chemscore.DEClash.Weighted>
0.1356

> <Gold.Chemscore.DEInternal.Weighted>
0.6415

> <Gold.Chemscore.Rot.Weighted>
3.6087

> <Gold.Chemscore.Internal.Correction.Weighted>
   9.000000E+99

> <Gold.Protein.RotatedTorsions>
[ 6907 6896 6895 6894 ] final  115.37 input  -60.11 | X-H torsion
[ 7974 7965 7964 7962 ] final  -29.10 input  175.53 | X-H torsion
[ 8008 7997 7996 7995 ] final  140.52 input   59.86 | X-H torsion
[ 10167 10162 10161 10158 ] final  109.88 input  -65.29 | X-H torsion
[ 10718 10713 10712 10709 ] final  135.95 input   66.30 | X-H torsion
[ 10763 10752 10751 10750 ] final -122.12 input  -60.55 | X-H torsion
[ 11005 11000 10999 10996 ] final   -9.59 input  -57.11 | X-H torsion

> <Gold.Protein.ActiveResidues>
 VAL166  LYS551  ARG553  GLY616  TRP617  ASP618  TYR619  PRO620  LYS621  CYS622 
 ASP623  PHE694  ASN695  SER759  ASP760  ASP761  ALA762  ILE779  LEU786  VAL792 
 PHE793  MET794  SER795  GLU796  ALA797  LYS798  CYS799  TRP800  GLU811  SER814 

> <Gold.Protein.RotatedAtoms>
  152.4746  133.8108  159.7002 H   0  0  0  0  0  0  0  0  0  0  0  0  # atno 6907 bound_to 6896
  150.8755  133.7436  159.2954 H   0  0  0  0  0  0  0  0  0  0  0  0  # atno 6908 bound_to 6896
  151.4957  135.1063  159.9867 H   0  0  0  0  0  0  0  0  0  0  0  0  # atno 6909 bound_to 6896
  146.1241  140.5369  142.8722 H   0  0  0  0  0  0  0  0  0  0  0  0  # atno 7974 bound_to 7965
  156.2978  140.2339  156.4414 H   0  0  0  0  0  0  0  0  0  0  0  0  # atno 8008 bound_to 7997
  154.8182  140.0439  157.1412 H   0  0  0  0  0  0  0  0  0  0  0  0  # atno 8009 bound_to 7997
  154.9345  140.3021  155.5155 H   0  0  0  0  0  0  0  0  0  0  0  0  # atno 8010 bound_to 7997
  139.6731  144.7124  151.1650 H   0  0  0  0  0  0  0  0  0  0  0  0  # atno 10167 bound_to 10162
  157.4517  131.1066  151.0025 H   0  0  0  0  0  0  0  0  0  0  0  0  # atno 10718 bound_to 10713
  154.8683  135.4144  154.2731 H   0  0  0  0  0  0  0  0  0  0  0  0  # atno 10763 bound_to 10752
  153.3637  135.7004  153.6697 H   0  0  0  0  0  0  0  0  0  0  0  0  # atno 10764 bound_to 10752
  153.5588  135.3614  155.2762 H   0  0  0  0  0  0  0  0  0  0  0  0  # atno 10765 bound_to 10752
  140.7357  133.8712  155.8928 H   0  0  0  0  0  0  0  0  0  0  0  0  # atno 11005 bound_to 11000
  144.7625  140.5455  143.6726 LP  0  0  0  0  0  0  0  0  0  0  0  0  # atno 17320 bound_to 7965
  145.5404  139.1475  143.3450 LP  0  0  0  0  0  0  0  0  0  0  0  0  # atno 17321 bound_to 7965
  140.7625  143.5813  150.8892 LP  0  0  0  0  0  0  0  0  0  0  0  0  # atno 17342 bound_to 10162
  139.9479  143.6306  152.3037 LP  0  0  0  0  0  0  0  0  0  0  0  0  # atno 17343 bound_to 10162
  157.0853  130.5919  149.5428 LP  0  0  0  0  0  0  0  0  0  0  0  0  # atno 17370 bound_to 10713
  155.9990  130.5065  150.7591 LP  0  0  0  0  0  0  0  0  0  0  0  0  # atno 17371 bound_to 10713
  140.9881  134.1315  157.4433 LP  0  0  0  0  0  0  0  0  0  0  0  0  # atno 17394 bound_to 11000
  139.8816  135.0032  156.6172 LP  0  0  0  0  0  0  0  0  0  0  0  0  # atno 17395 bound_to 11000

$$$$
