AV-unprocessed.smi:3330|AV-procd|sdf|12801|dock9
  -GOLD-   2272019163D 1   1.00000     0.00000
 Structure written by MMmdl.
 39 40  0  0  0  0  0  0  0  0  2 V2000
  151.9360  143.7965  156.8347 C   0  0  0  0  0  0  0  0  0  0  0  0
  151.1933  143.1089  157.9948 C   0  0  2  0  0  0  0  0  0  0  0  0
  149.7613  142.9522  157.6533 N   0  3  0  0  0  0  0  0  0  0  0  0
  149.3936  141.6847  156.9881 C   0  0  0  0  0  0  0  0  0  0  0  0
  149.8560  141.6660  155.5197 C   0  0  0  0  0  0  0  0  0  0  0  0
  149.1910  140.6163  154.7353 N   0  0  0  0  0  0  0  0  0  0  0  0
  147.8983  140.6495  154.3851 C   0  0  0  0  0  0  0  0  0  0  0  0
  147.0789  141.5319  154.6369 O   0  0  0  0  0  0  0  0  0  0  0  0
  147.5820  139.4002  153.5922 C   0  0  0  0  0  0  0  0  0  0  0  0
  148.8903  138.7824  153.5978 N   0  0  0  0  0  0  0  0  0  0  0  0
  149.7966  139.5113  154.2614 C   0  0  0  0  0  0  0  0  0  0  0  0
  150.9840  139.2185  154.3912 O   0  0  0  0  0  0  0  0  0  0  0  0
  151.3259  143.8816  159.3353 C   0  0  2  0  0  0  0  0  0  0  0  0
  151.8357  145.3235  159.1554 C   0  0  0  0  0  0  0  0  0  0  0  0
  152.1835  143.1756  160.2833 N   0  0  0  0  0  0  0  0  0  0  0  0
  152.9545  142.0527  160.0622 C   0  0  0  0  0  0  0  0  0  0  0  0
  153.5723  141.7419  161.2395 C   0  0  0  0  0  0  0  0  0  0  0  0
  153.1042  142.7379  162.1405 C   0  0  0  0  0  0  0  0  0  0  0  0
  152.2758  143.5943  161.5664 N   0  0  0  0  0  0  0  0  0  0  0  0
  153.0084  143.8514  157.0198 H   0  0  0  0  0  0  0  0  0  0  0  0
  151.5721  144.8123  156.6771 H   0  0  0  0  0  0  0  0  0  0  0  0
  151.8088  143.2506  155.8998 H   0  0  0  0  0  0  0  0  0  0  0  0
  151.6224  142.1156  158.1360 H   0  0  0  0  0  0  0  0  0  0  0  0
  149.2550  142.9734  158.5273 H   0  0  0  0  0  0  0  0  0  0  0  0
  149.8343  140.8477  157.5299 H   0  0  0  0  0  0  0  0  0  0  0  0
  148.3114  141.5521  157.0243 H   0  0  0  0  0  0  0  0  0  0  0  0
  149.6806  142.6430  155.0657 H   0  0  0  0  0  0  0  0  0  0  0  0
  150.9368  141.5189  155.4810 H   0  0  0  0  0  0  0  0  0  0  0  0
  146.8410  138.7794  154.0965 H   0  0  0  0  0  0  0  0  0  0  0  0
  147.2510  139.6365  152.5806 H   0  0  0  0  0  0  0  0  0  0  0  0
  149.0853  137.9039  153.1396 H   0  0  0  0  0  0  0  0  0  0  0  0
  150.3358  143.9376  159.7909 H   0  0  0  0  0  0  0  0  0  0  0  0
  151.1369  145.9323  158.5825 H   0  0  0  0  0  0  0  0  0  0  0  0
  152.7976  145.3456  158.6420 H   0  0  0  0  0  0  0  0  0  0  0  0
  151.9656  145.8139  160.1207 H   0  0  0  0  0  0  0  0  0  0  0  0
  153.0010  141.5728  159.0955 H   0  0  0  0  0  0  0  0  0  0  0  0
  154.2516  140.9242  161.4299 H   0  0  0  0  0  0  0  0  0  0  0  0
  153.3430  142.8653  163.1862 H   0  0  0  0  0  0  0  0  0  0  0  0
  149.4569  143.7351  157.0922 H   0  0  0  0  0  0  0  0  0  0  0  0
  1  2  1  0  0  0  0
  1 20  1  0  0  0  0
  1 21  1  0  0  0  0
  1 22  1  0  0  0  0
  2  3  1  0  0  0  0
  2 13  1  0  0  0  0
  2 23  1  0  0  0  0
  3  4  1  0  0  0  0
  3 24  1  0  0  0  0
  3 39  1  0  0  0  0
  4  5  1  0  0  0  0
  4 25  1  0  0  0  0
  4 26  1  0  0  0  0
  5  6  1  0  0  0  0
  5 27  1  0  0  0  0
  5 28  1  0  0  0  0
  6 11  1  0  0  0  0
  6  7  1  0  0  0  0
  7  8  2  0  0  0  0
  7  9  1  0  0  0  0
  9 10  1  0  0  0  0
  9 29  1  0  0  0  0
  9 30  1  0  0  0  0
 10 11  1  0  0  0  0
 10 31  1  0  0  0  0
 11 12  2  0  0  0  0
 13 14  1  0  0  0  0
 13 15  1  0  0  0  0
 13 32  1  0  0  0  0
 14 33  1  0  0  0  0
 14 34  1  0  0  0  0
 14 35  1  0  0  0  0
 15 19  1  0  0  0  0
 15 16  1  0  0  0  0
 16 17  2  0  0  0  0
 16 36  1  0  0  0  0
 17 18  1  0  0  0  0
 17 37  1  0  0  0  0
 18 19  2  0  0  0  0
 18 38  1  0  0  0  0
M  CHG  1   3   1
M  END
> <s_m_source_file>
AV-unprocessed.smi

> <i_m_source_file_index>
3330

> <i_lp_mmshare_version>
43012

> <i_f3d_flags>
0

> <s_epik_input>
bjFbY0hdW2NIXVtjSF1uMVtDQEBIXShbQ0gzXSlbQ0BIXShbQ0gzXSlbTkhdW0NIMl1bQ0gyXU4yQyg9TylbQ0gyXVtOSF1DMj1P

> <s_epik_cmdline>
J2VwaWtfcHl0aG9uJywgJy1waCcsICc3LjAnLCAnLXRuJywgJzgnLCAnLW1hJywgJzIwMCcsICctbWV0YWxfYmluZGluZycsICctaW1hZScsICc8aW5maWxlLm1hZT4nLCAnLW9tYWUnLCAnPG91dGZpbGUubWFlPic=

> <r_lp_tautomer_probability>
1

> <r_epik_Ionization_Penalty>
0.0124905

> <r_epik_Ionization_Penalty_Charging>
0.0123685

> <r_epik_Ionization_Penalty_Neutral>
0.000122059

> <r_epik_State_Penalty>
0.00957041

> <r_epik_Charging_Adjusted_Penalty>
0.0219389

> <i_epik_Tot_Q>
1

> <i_epik_Tot_abs_Q>
1

> <r_epik_Metal_State_Penalty>
0.0858301

> <b_epik_Metal_Only>
0

> <s_lp_Force_Field>
OPLS_2005

> <r_lp_Energy>
30.1395

> <b_lp_Chiralities_Consistent>
1

> <s_lp_Variant>
AV-unprocessed.smi:3330-1

> <Gold.Version>
5.8.1

> <Gold.Id.Protein>
6NUR|6NUR_protein|mol2

> <Gold.PLP.Fitness>
51.1101

> <Gold.PLP.PLP>
-44.2609

> <Gold.PLP.part.hbond>
-3.9108

> <Gold.PLP.part.metal>
0.0000

> <Gold.PLP.part.buried>
-4.3888

> <Gold.PLP.part.nonpolar>
-36.4384

> <Gold.PLP.part.repulsive>
0.5228

> <Gold.PLP.ligand.clash>
0.0000

> <Gold.PLP.ligand.torsion>
2.0815

> <Gold.PLP.Chemscore.Hbond>
3.6438

> <Gold.PLP.Chemscore.CHOScore>
0.0000

> <Gold.PLP.Chemscore.Metal>
0.0000

> <Gold.Chemscore.Hbonds>
donor molecule, donor type, donor heavy atom, donor atom, acceptor molecule, acceptor atom, score
      L1  H     3    39       P1  8028  2.00
      L1  H    10    31       P1  7948  0.88
      P1  H  7989  7998       L1    12  0.70

> <Gold.PLP.Chemscore.Internal.Correction>
0.0809

> <Gold.Rescore>
     Score         DG    S(hbond)    S(metal)    S(lipo)     H(rot)  DE(clash)    DE(int)     intcor
     12.89     -16.74       1.91        0.00     100.22       2.67       1.75       2.11       ----

> <Gold.Chemscore.Fitness>
12.8872

> <Gold.Chemscore.DG>
-16.7447

> <Gold.Chemscore.ZeroCoef>
-5.4800

> <Gold.Chemscore.Hbond>
1.9059

> <Gold.Chemscore.Metal>
0.0000

> <Gold.Chemscore.Lipo>
100.2167

> <Gold.Chemscore.Internal_Hbond>
0.0000

> <Gold.Chemscore.DEClash>
1.7469

> <Gold.Chemscore.DEInternal>
2.1107

> <Gold.Chemscore.Rot>
2.6666

> <Gold.Chemscore.Internal.Correction>
   9.000000E+99

> <Gold.Chemscore.Hbonds>
donor molecule, donor type, donor heavy atom, donor atom, acceptor molecule, acceptor atom, score
      L1  H     3    39       P1  8028  0.78
      L1  H    10    31       P1  7948  0.85
      P1  H  7989  7998       L1    12  0.07

> <Gold.Chemscore.Hbond.Weighted>
-6.3659

> <Gold.Chemscore.Metal.Weighted>
-0.0000

> <Gold.Chemscore.Lipo.Weighted>
-11.7254

> <Gold.Chemscore.Internal_Hbond.Weighted>
0.0000

> <Gold.Chemscore.DEClash.Weighted>
1.7469

> <Gold.Chemscore.DEInternal.Weighted>
2.1107

> <Gold.Chemscore.Rot.Weighted>
6.8265

> <Gold.Chemscore.Internal.Correction.Weighted>
   9.000000E+99

> <Gold.Protein.RotatedTorsions>
[ 6907 6896 6895 6894 ] final -122.88 input  -60.11 | X-H torsion
[ 7974 7965 7964 7962 ] final  160.84 input  175.53 | X-H torsion
[ 8008 7997 7996 7995 ] final -122.59 input   59.86 | X-H torsion
[ 10167 10162 10161 10158 ] final  -27.01 input  -65.29 | X-H torsion
[ 10718 10713 10712 10709 ] final  -23.57 input   66.30 | X-H torsion
[ 10763 10752 10751 10750 ] final   66.85 input  -60.55 | X-H torsion
[ 11005 11000 10999 10996 ] final   74.07 input  -57.11 | X-H torsion

> <Gold.Protein.ActiveResidues>
 VAL166  LYS551  ARG553  GLY616  TRP617  ASP618  TYR619  PRO620  LYS621  CYS622 
 ASP623  PHE694  ASN695  SER759  ASP760  ASP761  ALA762  ILE779  LEU786  VAL792 
 PHE793  MET794  SER795  GLU796  ALA797  LYS798  CYS799  TRP800  GLU811  SER814 

> <Gold.Protein.RotatedAtoms>
  150.8617  133.7633  159.2989 H   0  0  0  0  0  0  0  0  0  0  0  0  # atno 6907 bound_to 6896
  151.5273  135.1066  159.9903 H   0  0  0  0  0  0  0  0  0  0  0  0  # atno 6908 bound_to 6896
  152.4631  133.7821  159.6912 H   0  0  0  0  0  0  0  0  0  0  0  0  # atno 6909 bound_to 6896
  144.7716  139.7814  143.6295 H   0  0  0  0  0  0  0  0  0  0  0  0  # atno 7974 bound_to 7965
  155.1667  140.0407  157.2854 H   0  0  0  0  0  0  0  0  0  0  0  0  # atno 8008 bound_to 7997
  154.6298  140.2521  155.7420 H   0  0  0  0  0  0  0  0  0  0  0  0  # atno 8009 bound_to 7997
  156.2479  140.2877  156.0645 H   0  0  0  0  0  0  0  0  0  0  0  0  # atno 8010 bound_to 7997
  140.7280  143.4129  151.1075 H   0  0  0  0  0  0  0  0  0  0  0  0  # atno 10167 bound_to 10162
  156.4893  130.4563  149.6765 H   0  0  0  0  0  0  0  0  0  0  0  0  # atno 10718 bound_to 10713
  153.0159  135.5305  154.6888 H   0  0  0  0  0  0  0  0  0  0  0  0  # atno 10763 bound_to 10752
  154.6028  135.2870  155.0519 H   0  0  0  0  0  0  0  0  0  0  0  0  # atno 10764 bound_to 10752
  154.1569  135.6554  153.5029 H   0  0  0  0  0  0  0  0  0  0  0  0  # atno 10765 bound_to 10752
  139.9409  134.7401  156.1103 H   0  0  0  0  0  0  0  0  0  0  0  0  # atno 11005 bound_to 11000
  146.1866  139.5085  142.9832 LP  0  0  0  0  0  0  0  0  0  0  0  0  # atno 17320 bound_to 7965
  145.6307  141.0304  143.1865 LP  0  0  0  0  0  0  0  0  0  0  0  0  # atno 17321 bound_to 7965
  139.7765  143.8417  152.3130 LP  0  0  0  0  0  0  0  0  0  0  0  0  # atno 17342 bound_to 10162
  139.8354  144.7235  150.9398 LP  0  0  0  0  0  0  0  0  0  0  0  0  # atno 17343 bound_to 10162
  156.3443  130.7398  151.2348 LP  0  0  0  0  0  0  0  0  0  0  0  0  # atno 17370 bound_to 10713
  157.7475  131.0395  150.4553 LP  0  0  0  0  0  0  0  0  0  0  0  0  # atno 17371 bound_to 10713
  141.1043  133.6666  156.2826 LP  0  0  0  0  0  0  0  0  0  0  0  0  # atno 17394 bound_to 11000
  140.5955  134.5608  157.5508 LP  0  0  0  0  0  0  0  0  0  0  0  0  # atno 17395 bound_to 11000

$$$$
