AV-unprocessed.smi:2032|AV-procd|sdf|8252|dock2
  -GOLD-   2272010523D 1   1.00000     0.00000
 Structure written by MMmdl.
 42 43  0  0  0  0  0  0  0  0  3 V2000
  149.2016  141.4750  154.7053 C   0  0  0  0  0  0  0  0  0  0  0  0
  149.7324  140.0670  154.9961 C   0  0  1  0  0  0  0  0  0  0  0  0
  149.0521  138.9997  154.1122 C   0  0  0  0  0  0  0  0  0  0  0  0
  149.6250  137.6476  154.3596 N   0  3  2  0  0  0  0  0  0  0  0  0
  149.2263  136.9990  155.6564 C   0  0  2  0  0  0  0  0  0  0  0  0
  149.8399  135.5849  155.8020 C   0  0  0  0  0  0  0  0  0  0  0  0
  147.6820  136.9236  155.8206 C   0  0  0  0  0  0  0  0  0  0  0  0
  147.2356  137.2657  157.1680 N   0  0  0  0  0  0  0  0  0  0  0  0
  147.5742  136.6146  158.2903 C   0  0  0  0  0  0  0  0  0  0  0  0
  148.3416  135.6506  158.2329 O   0  0  0  0  0  0  0  0  0  0  0  0
  146.9963  137.1148  159.4048 N   0  5  0  0  0  0  0  0  0  0  0  0
  147.1750  136.5010  160.5859 C   0  0  0  0  0  0  0  0  0  0  0  0
  147.4796  137.1573  161.7111 N   0  0  0  0  0  0  0  0  0  0  0  0
  147.6148  136.3220  162.8216 C   0  0  0  0  0  0  0  0  0  0  0  0
  147.3999  134.9997  162.5365 C   0  0  0  0  0  0  0  0  0  0  0  0
  147.0181  134.7628  160.8551 S   0  0  0  0  0  0  0  0  0  0  0  0
  151.0903  137.7250  154.1067 C   0  0  0  0  0  0  0  0  0  0  0  0
  151.7528  138.8054  154.9891 C   0  0  1  0  0  0  0  0  0  0  0  0
  153.2501  138.9483  154.6943 C   0  0  0  0  0  0  0  0  0  0  0  0
  151.1321  140.0613  154.7283 O   0  0  0  0  0  0  0  0  0  0  0  0
  148.1310  141.5387  154.9017 H   0  0  0  0  0  0  0  0  0  0  0  0
  149.3683  141.7537  153.6644 H   0  0  0  0  0  0  0  0  0  0  0  0
  149.6978  142.2162  155.3323 H   0  0  0  0  0  0  0  0  0  0  0  0
  149.5642  139.8528  156.0523 H   0  0  0  0  0  0  0  0  0  0  0  0
  147.9710  139.0270  154.2203 H   0  0  0  0  0  0  0  0  0  0  0  0
  149.2262  139.2490  153.0642 H   0  0  0  0  0  0  0  0  0  0  0  0
  149.6189  137.6016  156.4743 H   0  0  0  0  0  0  0  0  0  0  0  0
  149.4803  135.0710  156.6929 H   0  0  0  0  0  0  0  0  0  0  0  0
  150.9233  135.6133  155.9106 H   0  0  0  0  0  0  0  0  0  0  0  0
  149.5975  134.9574  154.9440 H   0  0  0  0  0  0  0  0  0  0  0  0
  147.1577  137.5960  155.1442 H   0  0  0  0  0  0  0  0  0  0  0  0
  147.3310  135.9171  155.5916 H   0  0  0  0  0  0  0  0  0  0  0  0
  146.6098  138.0527  157.2596 H   0  0  0  0  0  0  0  0  0  0  0  0
  147.8647  136.7551  163.7786 H   0  0  0  0  0  0  0  0  0  0  0  0
  147.4405  134.1558  163.2083 H   0  0  0  0  0  0  0  0  0  0  0  0
  151.5847  136.7624  154.2178 H   0  0  0  0  0  0  0  0  0  0  0  0
  151.2357  137.9877  153.0577 H   0  0  0  0  0  0  0  0  0  0  0  0
  151.6366  138.5584  156.0451 H   0  0  0  0  0  0  0  0  0  0  0  0
  153.7798  138.0166  154.8947 H   0  0  0  0  0  0  0  0  0  0  0  0
  153.6975  139.7241  155.3162 H   0  0  0  0  0  0  0  0  0  0  0  0
  153.4248  139.2155  153.6517 H   0  0  0  0  0  0  0  0  0  0  0  0
  149.2481  137.0468  153.6406 H   0  0  0  0  0  0  0  0  0  0  0  0
  1  2  1  0  0  0  0
  1 21  1  0  0  0  0
  1 22  1  0  0  0  0
  1 23  1  0  0  0  0
  2 20  1  0  0  0  0
  2  3  1  0  0  0  0
  2 24  1  0  0  0  0
  3  4  1  0  0  0  0
  3 25  1  0  0  0  0
  3 26  1  0  0  0  0
  4  5  1  0  0  0  0
  4 17  1  0  0  0  0
  4 42  1  0  0  0  0
  5  6  1  0  0  0  0
  5  7  1  0  0  0  0
  5 27  1  0  0  0  0
  6 28  1  0  0  0  0
  6 29  1  0  0  0  0
  6 30  1  0  0  0  0
  7  8  1  0  0  0  0
  7 31  1  0  0  0  0
  7 32  1  0  0  0  0
  8  9  1  0  0  0  0
  8 33  1  0  0  0  0
  9 10  2  0  0  0  0
  9 11  1  0  0  0  0
 11 12  1  0  0  0  0
 12 16  1  0  0  0  0
 12 13  2  0  0  0  0
 13 14  1  0  0  0  0
 14 15  2  0  0  0  0
 14 34  1  0  0  0  0
 15 16  1  0  0  0  0
 15 35  1  0  0  0  0
 17 18  1  0  0  0  0
 17 36  1  0  0  0  0
 17 37  1  0  0  0  0
 18 19  1  0  0  0  0
 18 20  1  0  0  0  0
 18 38  1  0  0  0  0
 19 39  1  0  0  0  0
 19 40  1  0  0  0  0
 19 41  1  0  0  0  0
M  CHG  1   4   1
M  CHG  1  11  -1
M  END
> <s_m_source_file>
AV-unprocessed.smi

> <i_m_source_file_index>
2032

> <i_lp_mmshare_version>
43012

> <i_f3d_flags>
0

> <s_epik_input>
W0NIM11bQ0BASF0xW0NIMl1OKFtDSDJdW0NASF0oTzEpW0NIM10pW0NASF0oW0NIM10pW0NIMl1bTkhdQyg9TylbTkhdYzJuW2NIXVtjSF1zMg==

> <s_epik_cmdline>
J2VwaWtfcHl0aG9uJywgJy1waCcsICc3LjAnLCAnLXRuJywgJzgnLCAnLW1hJywgJzIwMCcsICctbWV0YWxfYmluZGluZycsICctaW1hZScsICc8aW5maWxlLm1hZT4nLCAnLW9tYWUnLCAnPG91dGZpbGUubWFlPic=

> <r_lp_tautomer_probability>
0.999

> <r_epik_Ionization_Penalty>
6.71699

> <r_epik_Ionization_Penalty_Charging>
5.88592

> <r_epik_Ionization_Penalty_Neutral>
0.831074

> <r_epik_State_Penalty>
6.08365

> <r_epik_Charging_Adjusted_Penalty>
11.9696

> <i_epik_Tot_Q>
0

> <i_epik_Tot_abs_Q>
2

> <r_epik_Metal_State_Penalty>
2.0947

> <b_epik_Metal_Only>
1

> <s_lp_Force_Field>
OPLS_2005

> <r_lp_Energy>
10.9101

> <b_lp_Chiralities_Consistent>
1

> <s_lp_Variant>
AV-unprocessed.smi:2032-22

> <Gold.Version>
5.8.1

> <Gold.Id.Protein>
6NUR|6NUR_protein|mol2

> <Gold.PLP.Fitness>
48.4616

> <Gold.PLP.PLP>
-36.3061

> <Gold.PLP.part.hbond>
-4.0052

> <Gold.PLP.part.metal>
0.0000

> <Gold.PLP.part.buried>
-2.2934

> <Gold.PLP.part.nonpolar>
-29.5067

> <Gold.PLP.part.repulsive>
0.0968

> <Gold.PLP.ligand.clash>
0.0000

> <Gold.PLP.ligand.torsion>
0.9769

> <Gold.PLP.Chemscore.Hbond>
4.6240

> <Gold.PLP.Chemscore.CHOScore>
0.0000

> <Gold.PLP.Chemscore.Metal>
0.0000

> <Gold.Chemscore.Hbonds>
donor molecule, donor type, donor heavy atom, donor atom, acceptor molecule, acceptor atom, score
      L1  H     4    42       P1  7948  2.00
      P1  H  6931  6943       L1    13  0.96
      P1  H  6934  6947       L1    13  0.63
      P1  H  7989  7998       L1    20  1.00

> <Gold.PLP.Chemscore.Internal.Correction>
0.2374

> <Gold.Rescore>
     Score         DG    S(hbond)    S(metal)    S(lipo)     H(rot)  DE(clash)    DE(int)     intcor
     16.89     -19.17       2.64        0.00      76.12       1.58       0.02       2.26       ----

> <Gold.Chemscore.Fitness>
16.8926

> <Gold.Chemscore.DG>
-19.1705

> <Gold.Chemscore.ZeroCoef>
-5.4800

> <Gold.Chemscore.Hbond>
2.6429

> <Gold.Chemscore.Metal>
0.0000

> <Gold.Chemscore.Lipo>
76.1157

> <Gold.Chemscore.Internal_Hbond>
0.0000

> <Gold.Chemscore.DEClash>
0.0174

> <Gold.Chemscore.DEInternal>
2.2605

> <Gold.Chemscore.Rot>
1.5791

> <Gold.Chemscore.Internal.Correction>
   9.000000E+99

> <Gold.Chemscore.Hbonds>
donor molecule, donor type, donor heavy atom, donor atom, acceptor molecule, acceptor atom, score
      L1  H     4    42       P1  7948  0.96
      P1  H  6931  6943       L1    13  0.23
      P1  H  6934  6947       L1    13  0.09
      P1  H  7989  7998       L1    20  0.86

> <Gold.Chemscore.Hbond.Weighted>
-8.8274

> <Gold.Chemscore.Metal.Weighted>
-0.0000

> <Gold.Chemscore.Lipo.Weighted>
-8.9055

> <Gold.Chemscore.Internal_Hbond.Weighted>
0.0000

> <Gold.Chemscore.DEClash.Weighted>
0.0174

> <Gold.Chemscore.DEInternal.Weighted>
2.2605

> <Gold.Chemscore.Rot.Weighted>
4.0425

> <Gold.Chemscore.Internal.Correction.Weighted>
   9.000000E+99

> <Gold.Protein.RotatedTorsions>
[ 6907 6896 6895 6894 ] final   88.33 input  -60.11 | X-H torsion
[ 7974 7965 7964 7962 ] final  -96.20 input  175.53 | X-H torsion
[ 8008 7997 7996 7995 ] final  -37.11 input   59.86 | X-H torsion
[ 10167 10162 10161 10158 ] final  145.84 input  -65.29 | X-H torsion
[ 10718 10713 10712 10709 ] final -116.32 input   66.30 | X-H torsion
[ 10763 10752 10751 10750 ] final  152.97 input  -60.55 | X-H torsion
[ 11005 11000 10999 10996 ] final -175.73 input  -57.11 | X-H torsion

> <Gold.Protein.ActiveResidues>
 VAL166  LYS551  ARG553  GLY616  TRP617  ASP618  TYR619  PRO620  LYS621  CYS622 
 ASP623  PHE694  ASN695  SER759  ASP760  ASP761  ALA762  ILE779  LEU786  VAL792 
 PHE793  MET794  SER795  GLU796  ALA797  LYS798  CYS799  TRP800  GLU811  SER814 

> <Gold.Protein.RotatedAtoms>
  152.5423  134.2139  159.8760 H   0  0  0  0  0  0  0  0  0  0  0  0  # atno 6907 bound_to 6896
  151.2120  133.4544  159.2606 H   0  0  0  0  0  0  0  0  0  0  0  0  # atno 6908 bound_to 6896
  151.0888  134.9916  159.8448 H   0  0  0  0  0  0  0  0  0  0  0  0  # atno 6909 bound_to 6896
  145.3500  140.9475  143.2559 H   0  0  0  0  0  0  0  0  0  0  0  0  # atno 7974 bound_to 7965
  154.4060  140.1613  156.2483 H   0  0  0  0  0  0  0  0  0  0  0  0  # atno 8008 bound_to 7997
  155.9141  140.3425  155.6099 H   0  0  0  0  0  0  0  0  0  0  0  0  # atno 8009 bound_to 7997
  155.7301  140.0779  157.2283 H   0  0  0  0  0  0  0  0  0  0  0  0  # atno 8010 bound_to 7997
  139.4918  144.5873  151.6753 H   0  0  0  0  0  0  0  0  0  0  0  0  # atno 10167 bound_to 10162
  156.0955  130.6129  150.9020 H   0  0  0  0  0  0  0  0  0  0  0  0  # atno 10718 bound_to 10713
  154.1286  135.2828  155.3191 H   0  0  0  0  0  0  0  0  0  0  0  0  # atno 10763 bound_to 10752
  154.6372  135.5415  153.7751 H   0  0  0  0  0  0  0  0  0  0  0  0  # atno 10764 bound_to 10752
  153.0289  135.6477  154.1437 H   0  0  0  0  0  0  0  0  0  0  0  0  # atno 10765 bound_to 10752
  140.4600  134.6264  157.4838 H   0  0  0  0  0  0  0  0  0  0  0  0  # atno 11005 bound_to 11000
  144.8725  139.5018  143.6761 LP  0  0  0  0  0  0  0  0  0  0  0  0  # atno 17320 bound_to 7965
  146.2972  139.7314  142.9118 LP  0  0  0  0  0  0  0  0  0  0  0  0  # atno 17321 bound_to 7965
  140.5492  144.0453  150.6120 LP  0  0  0  0  0  0  0  0  0  0  0  0  # atno 17342 bound_to 10162
  140.3502  143.2968  152.0495 LP  0  0  0  0  0  0  0  0  0  0  0  0  # atno 17343 bound_to 10162
  157.6115  131.0936  150.8786 LP  0  0  0  0  0  0  0  0  0  0  0  0  # atno 17370 bound_to 10713
  156.8925  130.5218  149.5285 LP  0  0  0  0  0  0  0  0  0  0  0  0  # atno 17371 bound_to 10713
  139.9951  134.6923  155.9622 LP  0  0  0  0  0  0  0  0  0  0  0  0  # atno 17394 bound_to 11000
  141.1626  133.6538  156.4369 LP  0  0  0  0  0  0  0  0  0  0  0  0  # atno 17395 bound_to 11000

$$$$
