AV-unprocessed.smi:2855|AV-procd|sdf|10984|dock2
  -GOLD-   2272015433D 1   1.00000     0.00000
 Structure written by MMmdl.
 47 48  0  0  0  0  0  0  0  0  1 V2000
  149.9829  143.1197  158.6827 C   0  0  0  0  0  0  0  0  0  0  0  0
  150.2859  141.7833  157.9905 C   0  0  1  0  0  0  0  0  0  0  0  0
  150.9466  141.9950  156.6197 C   0  0  0  0  0  0  0  0  0  0  0  0
  151.2569  140.6600  155.9249 C   0  0  0  0  0  0  0  0  0  0  0  0
  152.1525  139.7326  156.7857 C   0  0  2  0  0  0  0  0  0  0  0  0
  152.4802  138.3920  156.0556 C   0  0  0  0  0  0  0  0  0  0  0  0
  153.4242  137.4821  156.8652 C   0  0  0  0  0  0  0  0  0  0  0  0
  153.0844  138.6140  154.6559 C   0  0  0  0  0  0  0  0  0  0  0  0
  151.5142  139.5408  158.1916 C   0  0  2  0  0  0  0  0  0  0  0  0
  150.3363  138.6819  158.1008 N   0  0  0  0  0  0  0  0  0  0  0  0
  150.0657  137.6090  158.8613 C   0  0  0  0  0  0  0  0  0  0  0  0
  150.7749  137.2588  159.8038 O   0  0  0  0  0  0  0  0  0  0  0  0
  148.8196  136.7820  158.5018 C   0  0  0  0  0  0  0  0  0  0  0  0
  148.4802  135.7461  159.4930 N   0  0  0  0  0  0  0  0  0  0  0  0
  148.4977  134.4041  159.1399 C   0  0  0  0  0  0  0  0  0  0  0  0
  148.2372  133.4009  160.0113 C   0  0  0  0  0  0  0  0  0  0  0  0
  147.9164  133.6958  161.4038 C   0  0  0  0  0  0  0  0  0  0  0  0
  147.6697  132.8576  162.2678 O   0  0  0  0  0  0  0  0  0  0  0  0
  147.9064  135.0570  161.7193 N   0  0  0  0  0  0  0  0  0  0  0  0
  148.1740  136.0957  160.8270 C   0  0  0  0  0  0  0  0  0  0  0  0
  148.1521  137.2633  161.2140 O   0  0  0  0  0  0  0  0  0  0  0  0
  151.1793  140.8882  158.8665 C   0  0  0  0  0  0  0  0  0  0  0  0
  147.6903  135.3101  162.6726 H   0  0  0  0  0  0  0  0  0  0  0  0
  150.8965  143.6833  158.8739 H   0  0  0  0  0  0  0  0  0  0  0  0
  149.4833  142.9611  159.6388 H   0  0  0  0  0  0  0  0  0  0  0  0
  149.3296  143.7408  158.0692 H   0  0  0  0  0  0  0  0  0  0  0  0
  149.3343  141.2730  157.8343 H   0  0  0  0  0  0  0  0  0  0  0  0
  150.2949  142.5932  155.9820 H   0  0  0  0  0  0  0  0  0  0  0  0
  151.8690  142.5656  156.7373 H   0  0  0  0  0  0  0  0  0  0  0  0
  150.3235  140.1514  155.6801 H   0  0  0  0  0  0  0  0  0  0  0  0
  151.7376  140.8874  154.9749 H   0  0  0  0  0  0  0  0  0  0  0  0
  153.0985  140.2540  156.9401 H   0  0  0  0  0  0  0  0  0  0  0  0
  151.5502  137.8401  155.9133 H   0  0  0  0  0  0  0  0  0  0  0  0
  154.3496  137.9981  157.1222 H   0  0  0  0  0  0  0  0  0  0  0  0
  153.6894  136.5884  156.2996 H   0  0  0  0  0  0  0  0  0  0  0  0
  152.9626  137.1343  157.7889 H   0  0  0  0  0  0  0  0  0  0  0  0
  153.9738  139.2432  154.7026 H   0  0  0  0  0  0  0  0  0  0  0  0
  152.3757  139.0800  153.9725 H   0  0  0  0  0  0  0  0  0  0  0  0
  153.3744  137.6673  154.1990 H   0  0  0  0  0  0  0  0  0  0  0  0
  152.2419  139.0435  158.8340 H   0  0  0  0  0  0  0  0  0  0  0  0
  149.6914  138.8900  157.3525 H   0  0  0  0  0  0  0  0  0  0  0  0
  147.9747  137.4580  158.3570 H   0  0  0  0  0  0  0  0  0  0  0  0
  148.9905  136.3254  157.5259 H   0  0  0  0  0  0  0  0  0  0  0  0
  148.7376  134.1382  158.1202 H   0  0  0  0  0  0  0  0  0  0  0  0
  148.2693  132.3741  159.6768 H   0  0  0  0  0  0  0  0  0  0  0  0
  152.1106  141.4137  159.0826 H   0  0  0  0  0  0  0  0  0  0  0  0
  150.7032  140.7176  159.8328 H   0  0  0  0  0  0  0  0  0  0  0  0
  1  2  1  0  0  0  0
  1 24  1  0  0  0  0
  1 25  1  0  0  0  0
  1 26  1  0  0  0  0
  2 22  1  0  0  0  0
  2  3  1  0  0  0  0
  2 27  1  0  0  0  0
  3  4  1  0  0  0  0
  3 28  1  0  0  0  0
  3 29  1  0  0  0  0
  4  5  1  0  0  0  0
  4 30  1  0  0  0  0
  4 31  1  0  0  0  0
  5  6  1  0  0  0  0
  5  9  1  0  0  0  0
  5 32  1  0  0  0  0
  6  7  1  0  0  0  0
  6  8  1  0  0  0  0
  6 33  1  0  0  0  0
  7 34  1  0  0  0  0
  7 35  1  0  0  0  0
  7 36  1  0  0  0  0
  8 37  1  0  0  0  0
  8 38  1  0  0  0  0
  8 39  1  0  0  0  0
  9 10  1  0  0  0  0
  9 22  1  0  0  0  0
  9 40  1  0  0  0  0
 10 11  1  0  0  0  0
 10 41  1  0  0  0  0
 11 12  2  0  0  0  0
 11 13  1  0  0  0  0
 13 14  1  0  0  0  0
 13 42  1  0  0  0  0
 13 43  1  0  0  0  0
 14 20  1  0  0  0  0
 14 15  1  0  0  0  0
 15 16  2  0  0  0  0
 15 44  1  0  0  0  0
 16 17  1  0  0  0  0
 16 45  1  0  0  0  0
 17 18  2  0  0  0  0
 17 19  1  0  0  0  0
 19 23  1  0  0  0  0
 19 20  1  0  0  0  0
 20 21  2  0  0  0  0
 22 46  1  0  0  0  0
 22 47  1  0  0  0  0
M  END
> <s_m_source_file>
AV-unprocessed.smi

> <i_m_source_file_index>
2855

> <i_lp_mmshare_version>
43012

> <i_f3d_flags>
0

> <s_epik_input>
W0NIM11bQ0BASF0xW0NIMl1bQ0gyXVtDQEBIXShbQ0hdKFtDSDNdKVtDSDNdKVtDQEhdKFtDSDJdMSlbTkhdQyg9TylbQ0gyXW4yW2NIXVtjSF1jKD1PKVtuSF1jMj1P

> <s_epik_cmdline>
J2VwaWtfcHl0aG9uJywgJy1waCcsICc3LjAnLCAnLXRuJywgJzgnLCAnLW1hJywgJzIwMCcsICctbWV0YWxfYmluZGluZycsICctaW1hZScsICc8aW5maWxlLm1hZT4nLCAnLW9tYWUnLCAnPG91dGZpbGUubWFlPic=

> <r_lp_tautomer_probability>
0.999537

> <r_epik_Ionization_Penalty>
0.00306256

> <r_epik_Ionization_Penalty_Charging>
0.00306254

> <r_epik_Ionization_Penalty_Neutral>
2.0223e-08

> <r_epik_State_Penalty>
0.0021533

> <r_epik_Charging_Adjusted_Penalty>
0.00521583

> <i_epik_Tot_Q>
0

> <i_epik_Tot_abs_Q>
0

> <r_epik_Metal_State_Penalty>
0.362116

> <b_epik_Metal_Only>
0

> <s_lp_Force_Field>
OPLS_2005

> <r_lp_Energy>
12.2647

> <b_lp_Chiralities_Consistent>
1

> <s_lp_Variant>
AV-unprocessed.smi:2855-8

> <Gold.Version>
5.8.1

> <Gold.Id.Protein>
6NUR|6NUR_protein|mol2

> <Gold.PLP.Fitness>
40.2624

> <Gold.PLP.PLP>
-33.5096

> <Gold.PLP.part.hbond>
-2.7633

> <Gold.PLP.part.metal>
0.0000

> <Gold.PLP.part.buried>
-4.7102

> <Gold.PLP.part.nonpolar>
-26.2003

> <Gold.PLP.part.repulsive>
0.1515

> <Gold.PLP.ligand.clash>
0.0000

> <Gold.PLP.ligand.torsion>
0.2403

> <Gold.PLP.Chemscore.Hbond>
2.3948

> <Gold.PLP.Chemscore.CHOScore>
0.0000

> <Gold.PLP.Chemscore.Metal>
0.0000

> <Gold.Chemscore.Hbonds>
donor molecule, donor type, donor heavy atom, donor atom, acceptor molecule, acceptor atom, score
      P1  H  6896  6909       L1    12  0.60
      P1  H  6931  6943       L1    21  0.91
      P1  H  6934  6947       L1    21  0.61

> <Gold.PLP.Chemscore.Internal.Correction>
0.0491

> <Gold.Rescore>
     Score         DG    S(hbond)    S(metal)    S(lipo)     H(rot)  DE(clash)    DE(int)     intcor
     17.79     -18.07       2.73        0.00      70.17       1.85       0.04       0.24       ----

> <Gold.Chemscore.Fitness>
17.7853

> <Gold.Chemscore.DG>
-18.0658

> <Gold.Chemscore.ZeroCoef>
-5.4800

> <Gold.Chemscore.Hbond>
2.7312

> <Gold.Chemscore.Metal>
0.0000

> <Gold.Chemscore.Lipo>
70.1683

> <Gold.Chemscore.Internal_Hbond>
0.0000

> <Gold.Chemscore.DEClash>
0.0396

> <Gold.Chemscore.DEInternal>
0.2409

> <Gold.Chemscore.Rot>
1.8539

> <Gold.Chemscore.Internal.Correction>
   9.000000E+99

> <Gold.Chemscore.Hbonds>
donor molecule, donor type, donor heavy atom, donor atom, acceptor molecule, acceptor atom, score
      P1  H  6896  6909       L1    12  0.55
      P1  H  6931  6943       L1    21  0.83
      P1  H  6934  6947       L1    21  0.59

> <Gold.Chemscore.Hbond.Weighted>
-9.1221

> <Gold.Chemscore.Metal.Weighted>
-0.0000

> <Gold.Chemscore.Lipo.Weighted>
-8.2097

> <Gold.Chemscore.Internal_Hbond.Weighted>
0.0000

> <Gold.Chemscore.DEClash.Weighted>
0.0396

> <Gold.Chemscore.DEInternal.Weighted>
0.2409

> <Gold.Chemscore.Rot.Weighted>
4.7460

> <Gold.Chemscore.Internal.Correction.Weighted>
   9.000000E+99

> <Gold.Protein.RotatedTorsions>
[ 6907 6896 6895 6894 ] final   95.70 input  -60.11 | X-H torsion
[ 7974 7965 7964 7962 ] final  135.32 input  175.53 | X-H torsion
[ 8008 7997 7996 7995 ] final  -67.92 input   59.86 | X-H torsion
[ 10167 10162 10161 10158 ] final  -13.52 input  -65.29 | X-H torsion
[ 10718 10713 10712 10709 ] final -178.68 input   66.30 | X-H torsion
[ 10763 10752 10751 10750 ] final -164.93 input  -60.55 | X-H torsion
[ 11005 11000 10999 10996 ] final -129.46 input  -57.11 | X-H torsion

> <Gold.Protein.ActiveResidues>
 VAL166  LYS551  ARG553  GLY616  TRP617  ASP618  TYR619  PRO620  LYS621  CYS622 
 ASP623  PHE694  ASN695  SER759  ASP760  ASP761  ALA762  ILE779  LEU786  VAL792 
 PHE793  MET794  SER795  GLU796  ALA797  LYS798  CYS799  TRP800  GLU811  SER814 

> <Gold.Protein.RotatedAtoms>
  152.5441  134.0999  159.8312 H   0  0  0  0  0  0  0  0  0  0  0  0  # atno 6907 bound_to 6896
  151.1078  133.5188  159.2614 H   0  0  0  0  0  0  0  0  0  0  0  0  # atno 6908 bound_to 6896
  151.1918  135.0415  159.8890 H   0  0  0  0  0  0  0  0  0  0  0  0  # atno 6909 bound_to 6896
  144.9675  139.4642  143.5449 H   0  0  0  0  0  0  0  0  0  0  0  0  # atno 7974 bound_to 7965
  154.4832  140.0883  156.7427 H   0  0  0  0  0  0  0  0  0  0  0  0  # atno 8008 bound_to 7997
  155.4416  140.3454  155.4272 H   0  0  0  0  0  0  0  0  0  0  0  0  # atno 8009 bound_to 7997
  156.1223  140.1478  156.9174 H   0  0  0  0  0  0  0  0  0  0  0  0  # atno 8010 bound_to 7997
  140.7184  143.5417  150.9401 H   0  0  0  0  0  0  0  0  0  0  0  0  # atno 10167 bound_to 10162
  156.8479  130.9709  151.3095 H   0  0  0  0  0  0  0  0  0  0  0  0  # atno 10718 bound_to 10713
  154.6981  135.2983  154.9381 H   0  0  0  0  0  0  0  0  0  0  0  0  # atno 10763 bound_to 10752
  154.0322  135.6668  153.4786 H   0  0  0  0  0  0  0  0  0  0  0  0  # atno 10764 bound_to 10752
  153.0661  135.5087  154.8110 H   0  0  0  0  0  0  0  0  0  0  0  0  # atno 10765 bound_to 10752
  140.9430  134.1168  157.4133 H   0  0  0  0  0  0  0  0  0  0  0  0  # atno 11005 bound_to 11000
  146.3372  139.8865  142.8816 LP  0  0  0  0  0  0  0  0  0  0  0  0  # atno 17320 bound_to 7965
  145.2608  141.0076  143.3827 LP  0  0  0  0  0  0  0  0  0  0  0  0  # atno 17321 bound_to 7965
  139.9140  143.6686  152.3110 LP  0  0  0  0  0  0  0  0  0  0  0  0  # atno 17342 bound_to 10162
  139.7079  144.7625  151.1161 LP  0  0  0  0  0  0  0  0  0  0  0  0  # atno 17343 bound_to 10162
  157.6319  130.8736  149.9290 LP  0  0  0  0  0  0  0  0  0  0  0  0  # atno 17370 bound_to 10713
  156.0844  130.3669  150.0516 LP  0  0  0  0  0  0  0  0  0  0  0  0  # atno 17371 bound_to 10713
  139.8825  135.0042  156.6237 LP  0  0  0  0  0  0  0  0  0  0  0  0  # atno 17394 bound_to 11000
  140.7708  133.8740  155.8490 LP  0  0  0  0  0  0  0  0  0  0  0  0  # atno 17395 bound_to 11000

$$$$
