AV-unprocessed.smi:2039|AV-procd|sdf|8282|dock7
  -GOLD-   2272010553D 1   1.00000     0.00000
 Structure written by MMmdl.
 33 34  0  0  0  0  0  0  0  0  1 V2000
  151.0056  137.1524  158.3092 C   0  0  0  0  0  0  0  0  0  0  0  0
  150.2683  136.3274  157.3105 C   0  0  0  0  0  0  0  0  0  0  0  0
  149.7717  135.1166  157.5928 N   0  0  0  0  0  0  0  0  0  0  0  0
  149.1275  134.5451  156.5043 N   0  0  0  0  0  0  0  0  0  0  0  0
  149.1573  135.3451  155.4295 C   0  0  0  0  0  0  0  0  0  0  0  0
  148.5743  135.0092  154.1791 N   0  0  0  0  0  0  0  0  0  0  0  0
  147.5666  134.1538  153.9319 C   0  0  0  0  0  0  0  0  0  0  0  0
  146.9638  133.4983  154.7824 O   0  0  0  0  0  0  0  0  0  0  0  0
  147.2881  134.0985  152.6212 N   0  0  0  0  0  0  0  0  0  0  0  0
  146.2522  133.2682  152.0137 C   0  0  2  0  0  0  0  0  0  0  0  0
  146.5441  133.0963  150.5109 C   0  0  0  0  0  0  0  0  0  0  0  0
  145.4465  132.2752  149.8151 C   0  0  0  0  0  0  0  0  0  0  0  0
  144.0614  132.9073  150.0339 C   0  0  1  0  0  0  0  0  0  0  0  0
  143.0718  132.0944  149.4395 O   0  0  0  0  0  0  0  0  0  0  0  0
  143.7594  133.0723  151.5331 C   0  0  0  0  0  0  0  0  0  0  0  0
  144.8568  133.8898  152.2336 C   0  0  0  0  0  0  0  0  0  0  0  0
  149.9833  136.8764  155.6634 S   0  0  0  0  0  0  0  0  0  0  0  0
  151.1277  136.6065  159.2453 H   0  0  0  0  0  0  0  0  0  0  0  0
  150.4565  138.0723  158.5102 H   0  0  0  0  0  0  0  0  0  0  0  0
  151.9925  137.4097  157.9242 H   0  0  0  0  0  0  0  0  0  0  0  0
  148.9711  135.4770  153.3777 H   0  0  0  0  0  0  0  0  0  0  0  0
  147.8339  134.6718  151.9947 H   0  0  0  0  0  0  0  0  0  0  0  0
  146.2742  132.2794  152.4764 H   0  0  0  0  0  0  0  0  0  0  0  0
  146.6184  134.0747  150.0335 H   0  0  0  0  0  0  0  0  0  0  0  0
  147.5100  132.6098  150.3703 H   0  0  0  0  0  0  0  0  0  0  0  0
  145.6613  132.2014  148.7483 H   0  0  0  0  0  0  0  0  0  0  0  0
  145.4560  131.2560  150.2048 H   0  0  0  0  0  0  0  0  0  0  0  0
  144.0287  133.8836  149.5485 H   0  0  0  0  0  0  0  0  0  0  0  0
  142.3063  132.6240  149.2758 H   0  0  0  0  0  0  0  0  0  0  0  0
  142.7931  133.5593  151.6701 H   0  0  0  0  0  0  0  0  0  0  0  0
  143.6826  132.0924  152.0068 H   0  0  0  0  0  0  0  0  0  0  0  0
  144.6364  133.9545  153.2998 H   0  0  0  0  0  0  0  0  0  0  0  0
  144.8434  134.9123  151.8531 H   0  0  0  0  0  0  0  0  0  0  0  0
  1  2  1  0  0  0  0
  1 18  1  0  0  0  0
  1 19  1  0  0  0  0
  1 20  1  0  0  0  0
  2 17  1  0  0  0  0
  2  3  2  0  0  0  0
  3  4  1  0  0  0  0
  4  5  2  0  0  0  0
  5  6  1  0  0  0  0
  5 17  1  0  0  0  0
  6  7  1  0  0  0  0
  6 21  1  0  0  0  0
  7  8  2  0  0  0  0
  7  9  1  0  0  0  0
  9 10  1  0  0  0  0
  9 22  1  0  0  0  0
 10 16  1  0  0  0  0
 10 11  1  0  0  0  0
 10 23  1  0  0  0  0
 11 12  1  0  0  0  0
 11 24  1  0  0  0  0
 11 25  1  0  0  0  0
 12 13  1  0  0  0  0
 12 26  1  0  0  0  0
 12 27  1  0  0  0  0
 13 14  1  0  0  0  0
 13 15  1  0  0  0  0
 13 28  1  0  0  0  0
 14 29  1  0  0  0  0
 15 16  1  0  0  0  0
 15 30  1  0  0  0  0
 15 31  1  0  0  0  0
 16 32  1  0  0  0  0
 16 33  1  0  0  0  0
M  END
> <s_m_source_file>
AV-unprocessed.smi

> <i_m_source_file_index>
2039

> <i_lp_mmshare_version>
43012

> <i_f3d_flags>
0

> <s_epik_input>
W0NIM11jMW5uYyhzMSlbTkhdQyg9TylbTkhdW0NAQEhdMltDSDJdW0NIMl1bQ0BASF0oW09IXSlbQ0gyXVtDSDJdMg==

> <s_epik_cmdline>
J2VwaWtfcHl0aG9uJywgJy1waCcsICc3LjAnLCAnLXRuJywgJzgnLCAnLW1hJywgJzIwMCcsICctbWV0YWxfYmluZGluZycsICctaW1hZScsICc8aW5maWxlLm1hZT4nLCAnLW9tYWUnLCAnPG91dGZpbGUubWFlPic=

> <r_lp_tautomer_probability>
1

> <r_epik_Ionization_Penalty>
0.000385244

> <r_epik_Ionization_Penalty_Charging>
0

> <r_epik_Ionization_Penalty_Neutral>
0.000385244

> <r_epik_State_Penalty>
-0

> <r_epik_Charging_Adjusted_Penalty>
0

> <i_epik_Tot_Q>
0

> <i_epik_Tot_abs_Q>
0

> <r_epik_Metal_State_Penalty>
0.189642

> <b_epik_Metal_Only>
0

> <s_lp_Force_Field>
OPLS_2005

> <r_lp_Energy>
6.55666

> <b_lp_Chiralities_Consistent>
1

> <s_lp_Variant>
AV-unprocessed.smi:2039-1

> <Gold.Version>
5.8.1

> <Gold.Id.Protein>
6NUR|6NUR_protein|mol2

> <Gold.PLP.Fitness>
38.0348

> <Gold.PLP.PLP>
-26.8531

> <Gold.PLP.part.hbond>
-5.6464

> <Gold.PLP.part.metal>
0.0000

> <Gold.PLP.part.buried>
-4.9204

> <Gold.PLP.part.nonpolar>
-16.9284

> <Gold.PLP.part.repulsive>
0.0508

> <Gold.PLP.ligand.clash>
0.0000

> <Gold.PLP.ligand.torsion>
0.3793

> <Gold.PLP.Chemscore.Hbond>
3.9790

> <Gold.PLP.Chemscore.CHOScore>
0.0000

> <Gold.PLP.Chemscore.Metal>
0.0000

> <Gold.Chemscore.Hbonds>
donor molecule, donor type, donor heavy atom, donor atom, acceptor molecule, acceptor atom, score
      L1  H     6    21       P1  7948  1.00
      L1  H     9    22       P1  7948  0.93
      L1  H    14    29       P1 10186  0.52
      P1  H  6896  6908       L1     3  0.60
      P1  H 10785 10796       L1    14  0.88

> <Gold.PLP.Chemscore.Internal.Correction>
0.0033

> <Gold.Rescore>
     Score         DG    S(hbond)    S(metal)    S(lipo)     H(rot)  DE(clash)    DE(int)     intcor
     18.80     -20.40       3.77        0.00      52.82       1.50       0.01       1.59       ----

> <Gold.Chemscore.Fitness>
18.8047

> <Gold.Chemscore.DG>
-20.4010

> <Gold.Chemscore.ZeroCoef>
-5.4800

> <Gold.Chemscore.Hbond>
3.7672

> <Gold.Chemscore.Metal>
0.0000

> <Gold.Chemscore.Lipo>
52.8170

> <Gold.Chemscore.Internal_Hbond>
0.0000

> <Gold.Chemscore.DEClash>
0.0075

> <Gold.Chemscore.DEInternal>
1.5889

> <Gold.Chemscore.Rot>
1.5004

> <Gold.Chemscore.Internal.Correction>
   9.000000E+99

> <Gold.Chemscore.Hbonds>
donor molecule, donor type, donor heavy atom, donor atom, acceptor molecule, acceptor atom, score
      L1  H     6    21       P1  7948  0.69
      L1  H     9    22       P1  7948  0.36
      L1  H    14    29       P1 10186  0.51
      P1  H  6896  6908       L1     3  0.43
      P1  H 10785 10796       L1    14  0.84

> <Gold.Chemscore.Hbond.Weighted>
-12.5824

> <Gold.Chemscore.Metal.Weighted>
-0.0000

> <Gold.Chemscore.Lipo.Weighted>
-6.1796

> <Gold.Chemscore.Internal_Hbond.Weighted>
0.0000

> <Gold.Chemscore.DEClash.Weighted>
0.0075

> <Gold.Chemscore.DEInternal.Weighted>
1.5889

> <Gold.Chemscore.Rot.Weighted>
3.8409

> <Gold.Chemscore.Internal.Correction.Weighted>
   9.000000E+99

> <Gold.Protein.RotatedTorsions>
[ 6907 6896 6895 6894 ] final  154.02 input  -60.11 | X-H torsion
[ 7974 7965 7964 7962 ] final -155.55 input  175.53 | X-H torsion
[ 8008 7997 7996 7995 ] final   13.43 input   59.86 | X-H torsion
[ 10167 10162 10161 10158 ] final   92.06 input  -65.29 | X-H torsion
[ 10718 10713 10712 10709 ] final   -0.02 input   66.30 | X-H torsion
[ 10763 10752 10751 10750 ] final  151.51 input  -60.55 | X-H torsion
[ 11005 11000 10999 10996 ] final  136.50 input  -57.11 | X-H torsion

> <Gold.Protein.ActiveResidues>
 VAL166  LYS551  ARG553  GLY616  TRP617  ASP618  TYR619  PRO620  LYS621  CYS622 
 ASP623  PHE694  ASN695  SER759  ASP760  ASP761  ALA762  ILE779  LEU786  VAL792 
 PHE793  MET794  SER795  GLU796  ALA797  LYS798  CYS799  TRP800  GLU811  SER814 

> <Gold.Protein.RotatedAtoms>
  152.0644  133.4077  159.4431 H   0  0  0  0  0  0  0  0  0  0  0  0  # atno 6907 bound_to 6896
  150.6865  134.3163  159.4777 H   0  0  0  0  0  0  0  0  0  0  0  0  # atno 6908 bound_to 6896
  152.0988  134.9356  160.0621 H   0  0  0  0  0  0  0  0  0  0  0  0  # atno 6909 bound_to 6896
  144.7634  140.4233  143.5959 H   0  0  0  0  0  0  0  0  0  0  0  0  # atno 7974 bound_to 7965
  154.8344  140.2904  155.5701 H   0  0  0  0  0  0  0  0  0  0  0  0  # atno 8008 bound_to 7997
  156.3007  140.2526  156.3206 H   0  0  0  0  0  0  0  0  0  0  0  0  # atno 8009 bound_to 7997
  154.9196  140.0386  157.1980 H   0  0  0  0  0  0  0  0  0  0  0  0  # atno 8010 bound_to 7997
  139.8313  144.6685  150.9396 H   0  0  0  0  0  0  0  0  0  0  0  0  # atno 10167 bound_to 10162
  156.8265  130.5474  149.5691 H   0  0  0  0  0  0  0  0  0  0  0  0  # atno 10718 bound_to 10713
  154.1050  135.2843  155.3243 H   0  0  0  0  0  0  0  0  0  0  0  0  # atno 10763 bound_to 10752
  154.6529  135.5362  153.7927 H   0  0  0  0  0  0  0  0  0  0  0  0  # atno 10764 bound_to 10752
  153.0365  135.6514  154.1212 H   0  0  0  0  0  0  0  0  0  0  0  0  # atno 10765 bound_to 10752
  140.0050  134.9463  157.0156 H   0  0  0  0  0  0  0  0  0  0  0  0  # atno 11005 bound_to 11000
  145.6545  139.1570  143.2843 LP  0  0  0  0  0  0  0  0  0  0  0  0  # atno 17320 bound_to 7965
  146.1720  140.6631  142.9229 LP  0  0  0  0  0  0  0  0  0  0  0  0  # atno 17321 bound_to 7965
  140.7806  143.3998  151.1168 LP  0  0  0  0  0  0  0  0  0  0  0  0  # atno 17342 bound_to 10162
  139.7651  143.8577  152.3109 LP  0  0  0  0  0  0  0  0  0  0  0  0  # atno 17343 bound_to 10162
  156.0958  130.5931  150.9811 LP  0  0  0  0  0  0  0  0  0  0  0  0  # atno 17370 bound_to 10713
  157.6429  131.0908  150.8214 LP  0  0  0  0  0  0  0  0  0  0  0  0  # atno 17371 bound_to 10713
  140.4657  134.1438  155.7196 LP  0  0  0  0  0  0  0  0  0  0  0  0  # atno 17394 bound_to 11000
  141.1670  133.8683  157.1684 LP  0  0  0  0  0  0  0  0  0  0  0  0  # atno 17395 bound_to 11000

$$$$
