AV-unprocessed.smi:1400|AV-procd|sdf|5687|dock5
  -GOLD-   22720 5313D 1   1.00000     0.00000
 Structure written by MMmdl.
 33 34  0  0  0  0  0  0  0  0  2 V2000
  151.5054  144.6598  161.1538 C   0  0  0  0  0  0  0  0  0  0  0  0
  152.1176  143.2572  161.1591 C   0  0  0  0  0  0  0  0  0  0  0  0
  152.1358  142.6390  162.2238 O   0  0  0  0  0  0  0  0  0  0  0  0
  152.6106  142.7449  160.0057 N   0  0  0  0  0  0  0  0  0  0  0  0
  153.1366  141.3783  159.9049 C   0  0  0  0  0  0  0  0  0  0  0  0
  152.1672  140.5327  159.0591 C   0  0  0  0  0  0  0  0  0  0  0  0
  151.9350  141.1657  157.6704 C   0  0  0  0  0  0  0  0  0  0  0  0
  150.8845  140.4344  156.9665 N   0  0  0  0  0  0  0  0  0  0  0  0
  151.0048  139.8316  155.7744 C   0  0  0  0  0  0  0  0  0  0  0  0
  152.0785  139.8728  155.1692 O   0  0  0  0  0  0  0  0  0  0  0  0
  149.8735  139.2182  155.3578 N   0  5  0  0  0  0  0  0  0  0  0  0
  148.8454  139.9474  154.8937 C   0  0  0  0  0  0  0  0  0  0  0  0
  148.8104  141.2833  154.9607 N   0  0  0  0  0  0  0  0  0  0  0  0
  147.6460  141.8360  154.4241 C   0  0  0  0  0  0  0  0  0  0  0  0
  146.7697  140.8986  153.9450 C   0  0  0  0  0  0  0  0  0  0  0  0
  147.3839  139.2837  154.1566 S   0  0  0  0  0  0  0  0  0  0  0  0
  151.5733  142.6640  157.7903 C   0  0  0  0  0  0  0  0  0  0  0  0
  152.5711  143.4076  158.6957 C   0  0  0  0  0  0  0  0  0  0  0  0
  150.6770  144.7180  160.4470 H   0  0  0  0  0  0  0  0  0  0  0  0
  152.2535  145.4068  160.8875 H   0  0  0  0  0  0  0  0  0  0  0  0
  151.1181  144.9136  162.1412 H   0  0  0  0  0  0  0  0  0  0  0  0
  154.1207  141.4032  159.4347 H   0  0  0  0  0  0  0  0  0  0  0  0
  153.2845  140.9084  160.8780 H   0  0  0  0  0  0  0  0  0  0  0  0
  152.5559  139.5198  158.9484 H   0  0  0  0  0  0  0  0  0  0  0  0
  151.2172  140.4431  159.5885 H   0  0  0  0  0  0  0  0  0  0  0  0
  152.8678  141.0786  157.1100 H   0  0  0  0  0  0  0  0  0  0  0  0
  149.9865  140.3760  157.4234 H   0  0  0  0  0  0  0  0  0  0  0  0
  147.5238  142.9090  154.4252 H   0  0  0  0  0  0  0  0  0  0  0  0
  145.8062  141.0573  153.4851 H   0  0  0  0  0  0  0  0  0  0  0  0
  151.5539  143.1271  156.8032 H   0  0  0  0  0  0  0  0  0  0  0  0
  150.5680  142.7704  158.2008 H   0  0  0  0  0  0  0  0  0  0  0  0
  152.3089  144.4633  158.7464 H   0  0  0  0  0  0  0  0  0  0  0  0
  153.5670  143.3784  158.2512 H   0  0  0  0  0  0  0  0  0  0  0  0
  1  2  1  0  0  0  0
  1 19  1  0  0  0  0
  1 20  1  0  0  0  0
  1 21  1  0  0  0  0
  2  3  2  0  0  0  0
  2  4  1  0  0  0  0
  4 18  1  0  0  0  0
  4  5  1  0  0  0  0
  5  6  1  0  0  0  0
  5 22  1  0  0  0  0
  5 23  1  0  0  0  0
  6  7  1  0  0  0  0
  6 24  1  0  0  0  0
  6 25  1  0  0  0  0
  7  8  1  0  0  0  0
  7 17  1  0  0  0  0
  7 26  1  0  0  0  0
  8  9  1  0  0  0  0
  8 27  1  0  0  0  0
  9 10  2  0  0  0  0
  9 11  1  0  0  0  0
 11 12  1  0  0  0  0
 12 16  1  0  0  0  0
 12 13  2  0  0  0  0
 13 14  1  0  0  0  0
 14 15  2  0  0  0  0
 14 28  1  0  0  0  0
 15 16  1  0  0  0  0
 15 29  1  0  0  0  0
 17 18  1  0  0  0  0
 17 30  1  0  0  0  0
 17 31  1  0  0  0  0
 18 32  1  0  0  0  0
 18 33  1  0  0  0  0
M  CHG  1  11  -1
M  END
> <s_m_source_file>
AV-unprocessed.smi

> <i_m_source_file_index>
1400

> <i_lp_mmshare_version>
43012

> <i_f3d_flags>
0

> <s_epik_input>
W0NIM11DKD1PKU4xW0NIMl1bQ0gyXVtDSF0oW0NIMl1bQ0gyXTEpW05IXUMoPU8pW05IXWMybltjSF1bY0hdczI=

> <s_epik_cmdline>
J2VwaWtfcHl0aG9uJywgJy1waCcsICc3LjAnLCAnLXRuJywgJzgnLCAnLW1hJywgJzIwMCcsICctbWV0YWxfYmluZGluZycsICctaW1hZScsICc8aW5maWxlLm1hZT4nLCAnLW9tYWUnLCAnPG91dGZpbGUubWFlPic=

> <r_lp_tautomer_probability>
1

> <r_epik_Ionization_Penalty>
6.84544

> <r_epik_Ionization_Penalty_Charging>
5.78648

> <r_epik_Ionization_Penalty_Neutral>
1.05897

> <r_epik_State_Penalty>
5.78644

> <r_epik_Charging_Adjusted_Penalty>
11.5729

> <i_epik_Tot_Q>
-1

> <i_epik_Tot_abs_Q>
1

> <r_epik_Metal_State_Penalty>
1.75808

> <b_epik_Metal_Only>
1

> <s_lp_Force_Field>
OPLS_2005

> <r_lp_Energy>
18.2538

> <b_lp_Chiralities_Consistent>
1

> <s_lp_Variant>
AV-unprocessed.smi:1400-2

> <Gold.Version>
5.8.1

> <Gold.Id.Protein>
6NUR|6NUR_protein|mol2

> <Gold.PLP.Fitness>
44.8261

> <Gold.PLP.PLP>
-35.5506

> <Gold.PLP.part.hbond>
-2.2379

> <Gold.PLP.part.metal>
0.0000

> <Gold.PLP.part.buried>
-5.2297

> <Gold.PLP.part.nonpolar>
-31.3192

> <Gold.PLP.part.repulsive>
1.2893

> <Gold.PLP.ligand.clash>
0.0000

> <Gold.PLP.ligand.torsion>
0.7329

> <Gold.PLP.Chemscore.Hbond>
1.7929

> <Gold.PLP.Chemscore.CHOScore>
1.7824

> <Gold.PLP.Chemscore.Metal>
0.0000

> <Gold.Chemscore.Hbonds>
donor molecule, donor type, donor heavy atom, donor atom, acceptor molecule, acceptor atom, score
      P1  H  6933  6945       L1     3  0.42
      P1  H  7989  7998       L1    10  0.83
      L1  C    14    28       P1  8028  0.98
      L1  C    15    29       P1 10175  1.00

> <Gold.PLP.Chemscore.Internal.Correction>
0.0155

> <Gold.Rescore>
     Score         DG    S(hbond)    S(metal)    S(lipo)     H(rot)  DE(clash)    DE(int)     intcor
     14.33     -17.50       1.62        0.00      78.38       1.00       1.25       1.93       ----

> <Gold.Chemscore.Fitness>
14.3313

> <Gold.Chemscore.DG>
-17.5046

> <Gold.Chemscore.ZeroCoef>
-5.4800

> <Gold.Chemscore.Hbond>
1.6212

> <Gold.Chemscore.Metal>
0.0000

> <Gold.Chemscore.Lipo>
78.3756

> <Gold.Chemscore.Internal_Hbond>
0.0000

> <Gold.Chemscore.DEClash>
1.2459

> <Gold.Chemscore.DEInternal>
1.9274

> <Gold.Chemscore.Rot>
1.0000

> <Gold.Chemscore.Internal.Correction>
   9.000000E+99

> <Gold.Chemscore.Hbonds>
donor molecule, donor type, donor heavy atom, donor atom, acceptor molecule, acceptor atom, score
      P1  H  6933  6945       L1     3  0.12
      P1  H  7989  7998       L1    10  0.40
      P1  H  7997  8009       L1    10  0.03

> <Gold.Chemscore.Hbond.Weighted>
-5.4147

> <Gold.Chemscore.Metal.Weighted>
-0.0000

> <Gold.Chemscore.Lipo.Weighted>
-9.1699

> <Gold.Chemscore.Internal_Hbond.Weighted>
0.0000

> <Gold.Chemscore.DEClash.Weighted>
1.2459

> <Gold.Chemscore.DEInternal.Weighted>
1.9274

> <Gold.Chemscore.Rot.Weighted>
2.5600

> <Gold.Chemscore.Internal.Correction.Weighted>
   9.000000E+99

> <Gold.Protein.RotatedTorsions>
[ 6907 6896 6895 6894 ] final  170.34 input  -60.11 | X-H torsion
[ 7974 7965 7964 7962 ] final  -93.60 input  175.53 | X-H torsion
[ 8008 7997 7996 7995 ] final -142.62 input   59.86 | X-H torsion
[ 10167 10162 10161 10158 ] final  -65.09 input  -65.29 | X-H torsion
[ 10718 10713 10712 10709 ] final   65.67 input   66.30 | X-H torsion
[ 10763 10752 10751 10750 ] final  105.72 input  -60.55 | X-H torsion
[ 11005 11000 10999 10996 ] final   78.67 input  -57.11 | X-H torsion

> <Gold.Protein.ActiveResidues>
 VAL166  LYS551  ARG553  GLY616  TRP617  ASP618  TYR619  PRO620  LYS621  CYS622 
 ASP623  PHE694  ASN695  SER759  ASP760  ASP761  ALA762  ILE779  LEU786  VAL792 
 PHE793  MET794  SER795  GLU796  ALA797  LYS798  CYS799  TRP800  GLU811  SER814 

> <Gold.Protein.RotatedAtoms>
  151.8176  133.3390  159.3574 H   0  0  0  0  0  0  0  0  0  0  0  0  # atno 6907 bound_to 6896
  150.7305  134.5604  159.5849 H   0  0  0  0  0  0  0  0  0  0  0  0  # atno 6908 bound_to 6896
  152.3029  134.7590  160.0405 H   0  0  0  0  0  0  0  0  0  0  0  0  # atno 6909 bound_to 6896
  145.3843  140.9521  143.2376 H   0  0  0  0  0  0  0  0  0  0  0  0  # atno 7974 bound_to 7965
  155.4972  140.0572  157.2944 H   0  0  0  0  0  0  0  0  0  0  0  0  # atno 8008 bound_to 7997
  154.4600  140.1992  156.0220 H   0  0  0  0  0  0  0  0  0  0  0  0  # atno 8009 bound_to 7997
  156.0873  140.3238  155.7774 H   0  0  0  0  0  0  0  0  0  0  0  0  # atno 8010 bound_to 7997
  140.5754  143.2321  151.6452 H   0  0  0  0  0  0  0  0  0  0  0  0  # atno 10167 bound_to 10162
  157.6120  130.9226  150.0007 H   0  0  0  0  0  0  0  0  0  0  0  0  # atno 10718 bound_to 10713
  153.3832  135.3900  155.1871 H   0  0  0  0  0  0  0  0  0  0  0  0  # atno 10763 bound_to 10752
  154.8710  135.3730  154.4830 H   0  0  0  0  0  0  0  0  0  0  0  0  # atno 10764 bound_to 10752
  153.5309  135.7086  153.5745 H   0  0  0  0  0  0  0  0  0  0  0  0  # atno 10765 bound_to 10752
  139.9203  134.7782  156.1679 H   0  0  0  0  0  0  0  0  0  0  0  0  # atno 11005 bound_to 11000
  144.8485  139.5359  143.6867 LP  0  0  0  0  0  0  0  0  0  0  0  0  # atno 17320 bound_to 7965
  146.2827  139.6921  142.9217 LP  0  0  0  0  0  0  0  0  0  0  0  0  # atno 17321 bound_to 7965
  139.5140  144.3425  152.0727 LP  0  0  0  0  0  0  0  0  0  0  0  0  # atno 17342 bound_to 10162
  140.2568  144.4110  150.6200 LP  0  0  0  0  0  0  0  0  0  0  0  0  # atno 17343 bound_to 10162
  156.1227  130.3645  149.9861 LP  0  0  0  0  0  0  0  0  0  0  0  0  # atno 17370 bound_to 10713
  156.7937  130.9265  151.3646 LP  0  0  0  0  0  0  0  0  0  0  0  0  # atno 17371 bound_to 10713
  141.0718  133.6793  156.2156 LP  0  0  0  0  0  0  0  0  0  0  0  0  # atno 17394 bound_to 11000
  140.6494  134.5083  157.5576 LP  0  0  0  0  0  0  0  0  0  0  0  0  # atno 17395 bound_to 11000

$$$$
