AV-unprocessed.smi:91|AV-procd|sdf|839|dock5
  -GOLD-   2262017273D 1   1.00000     0.00000
 Structure written by MMmdl.
 60 63  0  0  0  0  0  0  0  0  1 V2000
  149.1969  131.5875  157.3395 C   0  0  0  0  0  0  0  0  0  0  0  0
  150.5574  131.9653  157.2260 O   0  0  0  0  0  0  0  0  0  0  0  0
  151.0797  131.7408  155.9259 C   0  0  0  0  0  0  0  0  0  0  0  0
  150.6572  132.8802  154.9885 C   0  0  2  0  0  0  0  0  0  0  0  0
  151.0050  134.2740  155.5435 C   0  0  0  0  0  0  0  0  0  0  0  0
  150.4652  135.3032  154.6681 N   0  0  0  0  0  0  0  0  0  0  0  0
  150.8721  136.5487  154.9912 C   0  0  0  0  0  0  0  0  0  0  0  0
  151.6825  137.2424  154.1490 N   0  0  0  0  0  0  0  0  0  0  0  0
  152.0807  138.4764  154.4740 C   0  0  0  0  0  0  0  0  0  0  0  0
  151.7926  139.1861  155.5680 N   0  0  0  0  0  0  0  0  0  0  0  0
  150.9787  138.4882  156.4118 C   0  0  0  0  0  0  0  0  0  0  0  0
  150.4737  137.1755  156.1999 C   0  0  0  0  0  0  0  0  0  0  0  0
  149.6788  136.7892  157.2714 N   0  0  0  0  0  0  0  0  0  0  0  0
  149.7162  137.8160  158.0772 C   0  0  0  0  0  0  0  0  0  0  0  0
  150.4783  138.8771  157.6420 N   0  0  0  0  0  0  0  0  0  0  0  0
  150.6957  140.1323  158.3405 C   0  0  0  0  0  0  0  0  0  0  0  0
  151.0256  141.3123  157.3926 C   0  0  1  0  0  0  0  0  0  0  0  0
  149.9250  141.5591  156.3315 C   0  0  0  0  0  0  0  0  0  0  0  0
  150.3179  142.5421  155.3957 O   0  0  0  0  0  0  0  0  0  0  0  0
  151.3733  142.5982  158.1850 C   0  0  1  0  0  0  0  0  0  0  0  0
  152.1803  142.3701  159.4512 C   0  0  0  0  0  0  0  0  0  0  0  0
  152.7349  143.7623  159.7291 C   0  0  0  0  0  0  0  0  0  0  0  0
  152.9519  144.3465  158.4501 O   0  0  0  0  0  0  0  0  0  0  0  0
  152.2876  143.5830  157.4474 C   0  0  0  0  0  0  0  0  0  0  0  0
  149.0266  135.1692  154.4769 C   0  0  0  0  0  0  0  0  0  0  0  0
  148.6756  133.7744  153.9134 C   0  0  0  0  0  0  0  0  0  0  0  0
  147.1574  133.5509  153.9879 C   0  0  0  0  0  0  0  0  0  0  0  0
  149.1423  133.6090  152.4515 C   0  0  0  0  0  0  0  0  0  0  0  0
  149.2518  132.7685  154.7546 O   0  0  0  0  0  0  0  0  0  0  0  0
  148.8474  131.7780  158.3542 H   0  0  0  0  0  0  0  0  0  0  0  0
  149.0636  130.5252  157.1312 H   0  0  0  0  0  0  0  0  0  0  0  0
  148.5700  132.1603  156.6550 H   0  0  0  0  0  0  0  0  0  0  0  0
  152.1684  131.6879  155.9734 H   0  0  0  0  0  0  0  0  0  0  0  0
  150.7239  130.7864  155.5345 H   0  0  0  0  0  0  0  0  0  0  0  0
  151.1826  132.7341  154.0446 H   0  0  0  0  0  0  0  0  0  0  0  0
  150.5886  134.3998  156.5439 H   0  0  0  0  0  0  0  0  0  0  0  0
  152.0871  134.3846  155.6281 H   0  0  0  0  0  0  0  0  0  0  0  0
  152.7231  138.9640  153.7557 H   0  0  0  0  0  0  0  0  0  0  0  0
  149.1897  137.8267  159.0206 H   0  0  0  0  0  0  0  0  0  0  0  0
  149.8082  140.3595  158.9321 H   0  0  0  0  0  0  0  0  0  0  0  0
  151.5058  139.9760  159.0529 H   0  0  0  0  0  0  0  0  0  0  0  0
  151.9210  141.0262  156.8389 H   0  0  0  0  0  0  0  0  0  0  0  0
  149.6924  140.6406  155.7931 H   0  0  0  0  0  0  0  0  0  0  0  0
  148.9915  141.8735  156.7982 H   0  0  0  0  0  0  0  0  0  0  0  0
  149.9074  143.3610  155.6304 H   0  0  0  0  0  0  0  0  0  0  0  0
  150.4535  143.1186  158.4572 H   0  0  0  0  0  0  0  0  0  0  0  0
  151.5853  141.9864  160.2803 H   0  0  0  0  0  0  0  0  0  0  0  0
  152.9984  141.6729  159.2643 H   0  0  0  0  0  0  0  0  0  0  0  0
  151.9993  144.3633  160.2656 H   0  0  0  0  0  0  0  0  0  0  0  0
  153.6508  143.7390  160.3198 H   0  0  0  0  0  0  0  0  0  0  0  0
  153.0447  143.0517  156.8692 H   0  0  0  0  0  0  0  0  0  0  0  0
  151.7362  144.2306  156.7650 H   0  0  0  0  0  0  0  0  0  0  0  0
  148.5260  135.3145  155.4357 H   0  0  0  0  0  0  0  0  0  0  0  0
  148.6648  135.9510  153.8069 H   0  0  0  0  0  0  0  0  0  0  0  0
  146.6180  134.2874  153.3914 H   0  0  0  0  0  0  0  0  0  0  0  0
  146.7965  133.6278  155.0141 H   0  0  0  0  0  0  0  0  0  0  0  0
  146.8856  132.5616  153.6186 H   0  0  0  0  0  0  0  0  0  0  0  0
  148.6160  134.3019  151.7946 H   0  0  0  0  0  0  0  0  0  0  0  0
  148.9471  132.5996  152.0889 H   0  0  0  0  0  0  0  0  0  0  0  0
  150.2071  133.8045  152.3279 H   0  0  0  0  0  0  0  0  0  0  0  0
  1  2  1  0  0  0  0
  1 30  1  0  0  0  0
  1 31  1  0  0  0  0
  1 32  1  0  0  0  0
  2  3  1  0  0  0  0
  3  4  1  0  0  0  0
  3 33  1  0  0  0  0
  3 34  1  0  0  0  0
  4 29  1  0  0  0  0
  4  5  1  0  0  0  0
  4 35  1  0  0  0  0
  5  6  1  0  0  0  0
  5 36  1  0  0  0  0
  5 37  1  0  0  0  0
  6  7  1  0  0  0  0
  6 25  1  0  0  0  0
  7 12  1  0  0  0  0
  7  8  2  0  0  0  0
  8  9  1  0  0  0  0
  9 10  2  0  0  0  0
  9 38  1  0  0  0  0
 10 11  1  0  0  0  0
 11 15  1  0  0  0  0
 11 12  2  0  0  0  0
 12 13  1  0  0  0  0
 13 14  2  0  0  0  0
 14 15  1  0  0  0  0
 14 39  1  0  0  0  0
 15 16  1  0  0  0  0
 16 17  1  0  0  0  0
 16 40  1  0  0  0  0
 16 41  1  0  0  0  0
 17 18  1  0  0  0  0
 17 20  1  0  0  0  0
 17 42  1  0  0  0  0
 18 19  1  0  0  0  0
 18 43  1  0  0  0  0
 18 44  1  0  0  0  0
 19 45  1  0  0  0  0
 20 24  1  0  0  0  0
 20 21  1  0  0  0  0
 20 46  1  0  0  0  0
 21 22  1  0  0  0  0
 21 47  1  0  0  0  0
 21 48  1  0  0  0  0
 22 23  1  0  0  0  0
 22 49  1  0  0  0  0
 22 50  1  0  0  0  0
 23 24  1  0  0  0  0
 24 51  1  0  0  0  0
 24 52  1  0  0  0  0
 25 26  1  0  0  0  0
 25 53  1  0  0  0  0
 25 54  1  0  0  0  0
 26 27  1  0  0  0  0
 26 28  1  0  0  0  0
 26 29  1  0  0  0  0
 27 55  1  0  0  0  0
 27 56  1  0  0  0  0
 27 57  1  0  0  0  0
 28 58  1  0  0  0  0
 28 59  1  0  0  0  0
 28 60  1  0  0  0  0
M  END
> <s_m_source_file>
AV-unprocessed.smi

> <i_m_source_file_index>
91

> <i_lp_mmshare_version>
43012

> <i_f3d_flags>
0

> <s_epik_input>
W0NIM11PW0NIMl1bQ0BASF0oTzEpW0NIMl1OKFtDSDJdQzEoW0NIM10pW0NIM10pYyhuW2NIXW4yKWMoYzIzKW5bY0hdbjNbQ0gyXVtDQEhdKFtDSDJdW09IXSlbQ0BASF00W0NIMl1bQ0gyXU9bQ0gyXTQ=

> <s_epik_cmdline>
J2VwaWtfcHl0aG9uJywgJy1waCcsICc3LjAnLCAnLXRuJywgJzgnLCAnLW1hJywgJzIwMCcsICctbWV0YWxfYmluZGluZycsICctaW1hZScsICc8aW5maWxlLm1hZT4nLCAnLW9tYWUnLCAnPG91dGZpbGUubWFlPic=

> <r_lp_tautomer_probability>
1

> <r_epik_Ionization_Penalty>
8.63591e-05

> <r_epik_Ionization_Penalty_Charging>
0

> <r_epik_Ionization_Penalty_Neutral>
8.63591e-05

> <r_epik_State_Penalty>
-0

> <r_epik_Charging_Adjusted_Penalty>
0

> <i_epik_Tot_Q>
0

> <i_epik_Tot_abs_Q>
0

> <r_epik_Metal_State_Penalty>
-0

> <b_epik_Metal_Only>
0

> <s_lp_Force_Field>
OPLS_2005

> <r_lp_Energy>
46.8468

> <b_lp_Chiralities_Consistent>
1

> <s_lp_Variant>
AV-unprocessed.smi:91-7

> <Gold.Version>
5.8.1

> <Gold.Id.Protein>
6NUR|6NUR_protein|mol2

> <Gold.PLP.Fitness>
48.3375

> <Gold.PLP.PLP>
-40.7932

> <Gold.PLP.part.hbond>
-3.0000

> <Gold.PLP.part.metal>
0.0000

> <Gold.PLP.part.buried>
-9.4714

> <Gold.PLP.part.nonpolar>
-29.4992

> <Gold.PLP.part.repulsive>
0.2971

> <Gold.PLP.ligand.clash>
0.0000

> <Gold.PLP.ligand.torsion>
0.9662

> <Gold.PLP.Chemscore.Hbond>
3.0000

> <Gold.PLP.Chemscore.CHOScore>
0.0000

> <Gold.PLP.Chemscore.Metal>
0.0000

> <Gold.Chemscore.Hbonds>
donor molecule, donor type, donor heavy atom, donor atom, acceptor molecule, acceptor atom, score
      L1  H    19    45       P1  8028  1.00
      P1  H 10752 10764       L1     8  0.50

> <Gold.PLP.Chemscore.Internal.Correction>
0.4767

> <Gold.Rescore>
     Score         DG    S(hbond)    S(metal)    S(lipo)     H(rot)  DE(clash)    DE(int)     intcor
     13.27     -16.81       2.66        0.00      87.15       3.03       0.16       3.38       ----

> <Gold.Chemscore.Fitness>
13.2716

> <Gold.Chemscore.DG>
-16.8108

> <Gold.Chemscore.ZeroCoef>
-5.4800

> <Gold.Chemscore.Hbond>
2.6608

> <Gold.Chemscore.Metal>
0.0000

> <Gold.Chemscore.Lipo>
87.1507

> <Gold.Chemscore.Internal_Hbond>
0.0000

> <Gold.Chemscore.DEClash>
0.1596

> <Gold.Chemscore.DEInternal>
3.3796

> <Gold.Chemscore.Rot>
3.0284

> <Gold.Chemscore.Internal.Correction>
   9.000000E+99

> <Gold.Chemscore.Hbonds>
donor molecule, donor type, donor heavy atom, donor atom, acceptor molecule, acceptor atom, score
      L1  H    19    45       P1  8028  1.00
      P1  H 10752 10764       L1     8  0.02

> <Gold.Chemscore.Hbond.Weighted>
-8.8870

> <Gold.Chemscore.Metal.Weighted>
-0.0000

> <Gold.Chemscore.Lipo.Weighted>
-10.1966

> <Gold.Chemscore.Internal_Hbond.Weighted>
0.0000

> <Gold.Chemscore.DEClash.Weighted>
0.1596

> <Gold.Chemscore.DEInternal.Weighted>
3.3796

> <Gold.Chemscore.Rot.Weighted>
7.7528

> <Gold.Chemscore.Internal.Correction.Weighted>
   9.000000E+99

> <Gold.Protein.RotatedTorsions>
[ 6907 6896 6895 6894 ] final -177.35 input  -60.11 | X-H torsion
[ 7974 7965 7964 7962 ] final  138.85 input  175.53 | X-H torsion
[ 8008 7997 7996 7995 ] final  -95.90 input   59.86 | X-H torsion
[ 10167 10162 10161 10158 ] final  158.93 input  -65.29 | X-H torsion
[ 10718 10713 10712 10709 ] final   31.82 input   66.30 | X-H torsion
[ 10763 10752 10751 10750 ] final  -87.83 input  -60.55 | X-H torsion
[ 11005 11000 10999 10996 ] final   26.06 input  -57.11 | X-H torsion

> <Gold.Protein.ActiveResidues>
 VAL166  LYS551  ARG553  GLY616  TRP617  ASP618  TYR619  PRO620  LYS621  CYS622 
 ASP623  PHE694  ASN695  SER759  ASP760  ASP761  ALA762  ILE779  LEU786  VAL792 
 PHE793  MET794  SER795  GLU796  ALA797  LYS798  CYS799  TRP800  GLU811  SER814 

> <Gold.Protein.RotatedAtoms>
  151.6196  133.3340  159.3084 H   0  0  0  0  0  0  0  0  0  0  0  0  # atno 6907 bound_to 6896
  150.8113  134.7272  159.6702 H   0  0  0  0  0  0  0  0  0  0  0  0  # atno 6908 bound_to 6896
  152.4209  134.5961  160.0039 H   0  0  0  0  0  0  0  0  0  0  0  0  # atno 6909 bound_to 6896
  144.9334  139.5019  143.5607 H   0  0  0  0  0  0  0  0  0  0  0  0  # atno 7974 bound_to 7965
  154.7674  140.0476  157.1023 H   0  0  0  0  0  0  0  0  0  0  0  0  # atno 8008 bound_to 7997
  154.9862  140.3107  155.4906 H   0  0  0  0  0  0  0  0  0  0  0  0  # atno 8009 bound_to 7997
  156.2915  140.2227  156.4964 H   0  0  0  0  0  0  0  0  0  0  0  0  # atno 8010 bound_to 7997
  139.4829  144.4778  151.8486 H   0  0  0  0  0  0  0  0  0  0  0  0  # atno 10167 bound_to 10162
  157.2773  130.7238  149.6537 H   0  0  0  0  0  0  0  0  0  0  0  0  # atno 10718 bound_to 10713
  154.6379  135.5399  153.7755 H   0  0  0  0  0  0  0  0  0  0  0  0  # atno 10763 bound_to 10752
  153.0318  135.6452  154.1204 H   0  0  0  0  0  0  0  0  0  0  0  0  # atno 10764 bound_to 10752
  154.1130  135.2925  155.3206 H   0  0  0  0  0  0  0  0  0  0  0  0  # atno 10765 bound_to 10752
  140.3411  134.2331  155.7690 H   0  0  0  0  0  0  0  0  0  0  0  0  # atno 11005 bound_to 11000
  146.3256  139.8301  142.8910 LP  0  0  0  0  0  0  0  0  0  0  0  0  # atno 17320 bound_to 7965
  145.3105  141.0218  143.3557 LP  0  0  0  0  0  0  0  0  0  0  0  0  # atno 17321 bound_to 7965
  140.4252  144.2190  150.5887 LP  0  0  0  0  0  0  0  0  0  0  0  0  # atno 17342 bound_to 10162
  140.4834  143.2371  151.8922 LP  0  0  0  0  0  0  0  0  0  0  0  0  # atno 17343 bound_to 10162
  155.9664  130.4349  150.5068 LP  0  0  0  0  0  0  0  0  0  0  0  0  # atno 17370 bound_to 10713
  157.3004  131.0644  151.2072 LP  0  0  0  0  0  0  0  0  0  0  0  0  # atno 17371 bound_to 10713
  141.2038  133.7903  157.0320 LP  0  0  0  0  0  0  0  0  0  0  0  0  # atno 17394 bound_to 11000
  140.0780  134.9664  157.1577 LP  0  0  0  0  0  0  0  0  0  0  0  0  # atno 17395 bound_to 11000

$$$$
