AV-unprocessed.smi:1049|AV-procd|sdf|4608|dock5
  -GOLD-   22720 3103D 1   1.00000     0.00000
 Structure written by MMmdl.
 40 41  0  0  0  0  0  0  0  0  1 V2000
  151.5967  145.7142  160.2396 C   0  0  0  0  0  0  0  0  0  0  0  0
  151.8528  144.2302  160.5353 C   0  0  2  0  0  0  0  0  0  0  0  0
  152.5058  144.0328  161.9215 C   0  0  0  0  0  0  0  0  0  0  0  0
  152.8979  142.5647  162.1757 C   0  0  0  0  0  0  0  0  0  0  0  0
  153.7147  142.0065  160.9975 C   0  0  0  0  0  0  0  0  0  0  0  0
  152.9218  142.1570  159.7650 N   0  0  0  0  0  0  0  0  0  0  0  0
  152.2313  141.1705  159.1391 C   0  0  0  0  0  0  0  0  0  0  0  0
  152.1229  140.0286  159.5884 O   0  0  0  0  0  0  0  0  0  0  0  0
  151.6516  141.5412  157.9864 N   0  0  0  0  0  0  0  0  0  0  0  0
  150.9439  140.6551  157.0692 C   0  0  0  0  0  0  0  0  0  0  0  0
  150.4786  141.3827  155.7922 C   0  0  0  0  0  0  0  0  0  0  0  0
  149.5344  140.5746  154.9482 C   0  0  0  0  0  0  0  0  0  0  0  0
  148.4063  141.0668  154.4442 N   0  0  0  0  0  0  0  0  0  0  0  0
  147.8500  140.0181  153.7219 C   0  0  0  0  0  0  0  0  0  0  0  0
  148.6597  138.9142  153.8273 C   0  0  0  0  0  0  0  0  0  0  0  0
  149.7297  139.2761  154.6383 N   0  0  0  0  0  0  0  0  0  0  0  0
  150.8306  138.4143  155.0385 C   0  0  0  0  0  0  0  0  0  0  0  0
  150.6504  137.1772  154.5752 F   0  0  0  0  0  0  0  0  0  0  0  0
  151.9823  138.8978  154.5780 F   0  0  0  0  0  0  0  0  0  0  0  0
  152.7171  143.5736  159.4369 C   0  0  0  0  0  0  0  0  0  0  0  0
  152.5299  146.2764  160.1953 H   0  0  0  0  0  0  0  0  0  0  0  0
  150.9712  146.1659  161.0100 H   0  0  0  0  0  0  0  0  0  0  0  0
  151.0860  145.8410  159.2847 H   0  0  0  0  0  0  0  0  0  0  0  0
  150.8847  143.7279  160.5457 H   0  0  0  0  0  0  0  0  0  0  0  0
  153.4018  144.6514  161.9883 H   0  0  0  0  0  0  0  0  0  0  0  0
  151.8346  144.3790  162.7082 H   0  0  0  0  0  0  0  0  0  0  0  0
  153.4697  142.4866  163.1006 H   0  0  0  0  0  0  0  0  0  0  0  0
  151.9996  141.9621  162.3162 H   0  0  0  0  0  0  0  0  0  0  0  0
  154.6466  142.5642  160.8942 H   0  0  0  0  0  0  0  0  0  0  0  0
  154.0167  140.9812  161.2103 H   0  0  0  0  0  0  0  0  0  0  0  0
  151.7648  142.5003  157.6916 H   0  0  0  0  0  0  0  0  0  0  0  0
  151.5531  139.7855  156.8181 H   0  0  0  0  0  0  0  0  0  0  0  0
  150.0728  140.2746  157.6032 H   0  0  0  0  0  0  0  0  0  0  0  0
  150.0087  142.3234  156.0756 H   0  0  0  0  0  0  0  0  0  0  0  0
  151.3439  141.6502  155.1853 H   0  0  0  0  0  0  0  0  0  0  0  0
  146.9202  140.1384  153.1857 H   0  0  0  0  0  0  0  0  0  0  0  0
  148.5583  137.9235  153.4093 H   0  0  0  0  0  0  0  0  0  0  0  0
  150.8878  138.3504  156.1251 H   0  0  0  0  0  0  0  0  0  0  0  0
  152.2520  143.7075  158.4589 H   0  0  0  0  0  0  0  0  0  0  0  0
  153.6859  144.0714  159.3704 H   0  0  0  0  0  0  0  0  0  0  0  0
  1  2  1  0  0  0  0
  1 21  1  0  0  0  0
  1 22  1  0  0  0  0
  1 23  1  0  0  0  0
  2 20  1  0  0  0  0
  2  3  1  0  0  0  0
  2 24  1  0  0  0  0
  3  4  1  0  0  0  0
  3 25  1  0  0  0  0
  3 26  1  0  0  0  0
  4  5  1  0  0  0  0
  4 27  1  0  0  0  0
  4 28  1  0  0  0  0
  5  6  1  0  0  0  0
  5 29  1  0  0  0  0
  5 30  1  0  0  0  0
  6  7  1  0  0  0  0
  6 20  1  0  0  0  0
  7  8  2  0  0  0  0
  7  9  1  0  0  0  0
  9 10  1  0  0  0  0
  9 31  1  0  0  0  0
 10 11  1  0  0  0  0
 10 32  1  0  0  0  0
 10 33  1  0  0  0  0
 11 12  1  0  0  0  0
 11 34  1  0  0  0  0
 11 35  1  0  0  0  0
 12 16  1  0  0  0  0
 12 13  2  0  0  0  0
 13 14  1  0  0  0  0
 14 15  2  0  0  0  0
 14 36  1  0  0  0  0
 15 16  1  0  0  0  0
 15 37  1  0  0  0  0
 16 17  1  0  0  0  0
 17 18  1  0  0  0  0
 17 19  1  0  0  0  0
 17 38  1  0  0  0  0
 20 39  1  0  0  0  0
 20 40  1  0  0  0  0
M  END
> <s_m_source_file>
AV-unprocessed.smi

> <i_m_source_file_index>
1049

> <i_lp_mmshare_version>
43012

> <i_f3d_flags>
0

> <s_epik_input>
W0NIM11bQ0BASF0xW0NIMl1bQ0gyXVtDSDJdTihbQ0gyXTEpQyg9TylbTkhdW0NIMl1bQ0gyXWMybltjSF1bY0hdbjJbQ0hdKEYpRg==

> <s_epik_cmdline>
J2VwaWtfcHl0aG9uJywgJy1waCcsICc3LjAnLCAnLXRuJywgJzgnLCAnLW1hJywgJzIwMCcsICctbWV0YWxfYmluZGluZycsICctaW1hZScsICc8aW5maWxlLm1hZT4nLCAnLW9tYWUnLCAnPG91dGZpbGUubWFlPic=

> <r_lp_tautomer_probability>
1

> <r_epik_Ionization_Penalty>
0.101141

> <r_epik_Ionization_Penalty_Charging>
0.101077

> <r_epik_Ionization_Penalty_Neutral>
6.38597e-05

> <r_epik_State_Penalty>
0.091079

> <r_epik_Charging_Adjusted_Penalty>
0.192156

> <i_epik_Tot_Q>
0

> <i_epik_Tot_abs_Q>
0

> <r_epik_Metal_State_Penalty>
0.0777008

> <b_epik_Metal_Only>
0

> <s_lp_Force_Field>
OPLS_2005

> <r_lp_Energy>
32.1831

> <b_lp_Chiralities_Consistent>
1

> <s_lp_Variant>
AV-unprocessed.smi:1049-1

> <Gold.Version>
5.8.1

> <Gold.Id.Protein>
6NUR|6NUR_protein|mol2

> <Gold.PLP.Fitness>
49.4105

> <Gold.PLP.PLP>
-48.2928

> <Gold.PLP.part.hbond>
0.0000

> <Gold.PLP.part.metal>
0.0000

> <Gold.PLP.part.buried>
-3.1553

> <Gold.PLP.part.nonpolar>
-46.1010

> <Gold.PLP.part.repulsive>
0.2073

> <Gold.PLP.ligand.clash>
1.4261

> <Gold.PLP.ligand.torsion>
0.2848

> <Gold.PLP.Chemscore.Hbond>
0.0000

> <Gold.PLP.Chemscore.CHOScore>
1.0000

> <Gold.PLP.Chemscore.Metal>
0.0000

> <Gold.Chemscore.Hbonds>
donor molecule, donor type, donor heavy atom, donor atom, acceptor molecule, acceptor atom, score
      L1  C    15    37       P1  7948  1.00

> <Gold.PLP.Chemscore.Internal.Correction>
0.1133

> <Gold.Rescore>
     Score         DG    S(hbond)    S(metal)    S(lipo)     H(rot)  DE(clash)    DE(int)     intcor
     13.34     -13.58       0.00        0.00     103.45       1.56       0.05       0.20       ----

> <Gold.Chemscore.Fitness>
13.3399

> <Gold.Chemscore.DG>
-13.5836

> <Gold.Chemscore.ZeroCoef>
-5.4800

> <Gold.Chemscore.Hbond>
0.0000

> <Gold.Chemscore.Metal>
0.0000

> <Gold.Chemscore.Lipo>
103.4523

> <Gold.Chemscore.Internal_Hbond>
0.0000

> <Gold.Chemscore.DEClash>
0.0476

> <Gold.Chemscore.DEInternal>
0.1960

> <Gold.Chemscore.Rot>
1.5626

> <Gold.Chemscore.Internal.Correction>
   9.000000E+99

> <Gold.Chemscore.Hbond.Weighted>
-0.0000

> <Gold.Chemscore.Metal.Weighted>
-0.0000

> <Gold.Chemscore.Lipo.Weighted>
-12.1039

> <Gold.Chemscore.Internal_Hbond.Weighted>
0.0000

> <Gold.Chemscore.DEClash.Weighted>
0.0476

> <Gold.Chemscore.DEInternal.Weighted>
0.1960

> <Gold.Chemscore.Rot.Weighted>
4.0004

> <Gold.Chemscore.Internal.Correction.Weighted>
   9.000000E+99

> <Gold.Protein.RotatedTorsions>
[ 6907 6896 6895 6894 ] final  160.89 input  -60.11 | X-H torsion
[ 7974 7965 7964 7962 ] final -153.07 input  175.53 | X-H torsion
[ 8008 7997 7996 7995 ] final   88.24 input   59.86 | X-H torsion
[ 10167 10162 10161 10158 ] final -101.98 input  -65.29 | X-H torsion
[ 10718 10713 10712 10709 ] final  106.25 input   66.30 | X-H torsion
[ 10763 10752 10751 10750 ] final -122.68 input  -60.55 | X-H torsion
[ 11005 11000 10999 10996 ] final  179.19 input  -57.11 | X-H torsion

> <Gold.Protein.ActiveResidues>
 VAL166  LYS551  ARG553  GLY616  TRP617  ASP618  TYR619  PRO620  LYS621  CYS622 
 ASP623  PHE694  ASN695  SER759  ASP760  ASP761  ALA762  ILE779  LEU786  VAL792 
 PHE793  MET794  SER795  GLU796  ALA797  LYS798  CYS799  TRP800  GLU811  SER814 

> <Gold.Protein.RotatedAtoms>
  151.9639  133.3704  159.4045 H   0  0  0  0  0  0  0  0  0  0  0  0  # atno 6907 bound_to 6896
  150.6959  134.4211  159.5215 H   0  0  0  0  0  0  0  0  0  0  0  0  # atno 6908 bound_to 6896
  152.1904  134.8676  160.0569 H   0  0  0  0  0  0  0  0  0  0  0  0  # atno 6909 bound_to 6896
  144.7760  140.4576  143.5873 H   0  0  0  0  0  0  0  0  0  0  0  0  # atno 7974 bound_to 7965
  155.9853  140.3373  155.6701 H   0  0  0  0  0  0  0  0  0  0  0  0  # atno 8008 bound_to 7997
  155.6494  140.0704  157.2610 H   0  0  0  0  0  0  0  0  0  0  0  0  # atno 8009 bound_to 7997
  154.4203  140.1728  156.1645 H   0  0  0  0  0  0  0  0  0  0  0  0  # atno 8010 bound_to 7997
  140.2355  143.3576  152.0849 H   0  0  0  0  0  0  0  0  0  0  0  0  # atno 10167 bound_to 10162
  157.6675  131.0846  150.5978 H   0  0  0  0  0  0  0  0  0  0  0  0  # atno 10718 bound_to 10713
  154.8694  135.4124  154.2820 H   0  0  0  0  0  0  0  0  0  0  0  0  # atno 10763 bound_to 10752
  153.3711  135.7007  153.6642 H   0  0  0  0  0  0  0  0  0  0  0  0  # atno 10764 bound_to 10752
  153.5504  135.3630  155.2729 H   0  0  0  0  0  0  0  0  0  0  0  0  # atno 10765 bound_to 10752
  140.4034  134.6757  157.4574 H   0  0  0  0  0  0  0  0  0  0  0  0  # atno 11005 bound_to 11000
  145.6184  139.1521  143.3036 LP  0  0  0  0  0  0  0  0  0  0  0  0  # atno 17320 bound_to 7965
  146.1940  140.6296  142.9133 LP  0  0  0  0  0  0  0  0  0  0  0  0  # atno 17321 bound_to 7965
  139.5095  144.6868  151.5865 LP  0  0  0  0  0  0  0  0  0  0  0  0  # atno 17342 bound_to 10162
  140.6153  143.9360  150.6484 LP  0  0  0  0  0  0  0  0  0  0  0  0  # atno 17343 bound_to 10162
  156.6279  130.4424  149.5798 LP  0  0  0  0  0  0  0  0  0  0  0  0  # atno 17370 bound_to 10713
  156.2305  130.6791  151.1458 LP  0  0  0  0  0  0  0  0  0  0  0  0  # atno 17371 bound_to 10713
  140.0320  134.6393  155.9094 LP  0  0  0  0  0  0  0  0  0  0  0  0  # atno 17394 bound_to 11000
  141.1848  133.6553  156.5172 LP  0  0  0  0  0  0  0  0  0  0  0  0  # atno 17395 bound_to 11000

$$$$
