AV-unprocessed.smi:1285|AV-procd|sdf|5374|dock1
  -GOLD-   22720 4523D 1   1.00000     0.00000
 Structure written by MMmdl.
 47 48  0  0  0  0  0  0  0  0  2 V2000
  149.5394  134.4918  155.9697 C   0  0  0  0  0  0  0  0  0  0  0  0
  148.9831  134.7320  154.5550 C   0  0  0  0  0  0  0  0  0  0  0  0
  147.9117  133.7081  154.0664 C   0  0  2  0  0  0  0  0  0  0  0  0
  146.9685  133.4250  155.2662 C   0  0  0  0  0  0  0  0  0  0  0  0
  148.6050  132.3734  153.6471 C   0  0  0  0  0  0  0  0  0  0  0  0
  149.3738  131.7633  154.7303 N   0  0  0  0  0  0  0  0  0  0  0  0
  149.8771  130.5182  154.7332 C   0  0  0  0  0  0  0  0  0  0  0  0
  149.6647  129.7042  153.8338 O   0  0  0  0  0  0  0  0  0  0  0  0
  150.7845  130.1628  155.9223 C   0  0  1  0  0  0  0  0  0  0  0  0
  150.2912  128.9357  156.7154 C   0  0  0  0  0  0  0  0  0  0  0  0
  152.1599  129.9989  155.4659 N   0  0  0  0  0  0  0  0  0  0  0  0
  152.6946  129.0731  154.6666 C   0  0  0  0  0  0  0  0  0  0  0  0
  154.0049  129.1919  154.5060 N   0  0  0  0  0  0  0  0  0  0  0  0
  154.2329  130.2862  155.2912 C   0  0  0  0  0  0  0  0  0  0  0  0
  153.1645  130.8017  155.8985 N   0  0  0  0  0  0  0  0  0  0  0  0
  147.1333  134.2898  152.9121 N   0  3  0  0  0  0  0  0  0  0  0  0
  146.4134  133.3078  152.0517 C   0  0  0  0  0  0  0  0  0  0  0  0
  145.8486  134.0011  150.8018 C   0  0  0  0  0  0  0  0  0  0  0  0
  144.9707  135.0452  151.1979 O   0  0  0  0  0  0  0  0  0  0  0  0
  145.6456  136.0413  151.9534 C   0  0  0  0  0  0  0  0  0  0  0  0
  146.2228  135.4238  153.2391 C   0  0  0  0  0  0  0  0  0  0  0  0
  150.2784  135.2533  156.2192 H   0  0  0  0  0  0  0  0  0  0  0  0
  150.0343  133.5247  156.0520 H   0  0  0  0  0  0  0  0  0  0  0  0
  148.7594  134.5376  156.7293 H   0  0  0  0  0  0  0  0  0  0  0  0
  148.5949  135.7484  154.4943 H   0  0  0  0  0  0  0  0  0  0  0  0
  149.8332  134.7271  153.8725 H   0  0  0  0  0  0  0  0  0  0  0  0
  147.5277  133.2203  156.1802 H   0  0  0  0  0  0  0  0  0  0  0  0
  146.3369  132.5532  155.0947 H   0  0  0  0  0  0  0  0  0  0  0  0
  146.3129  134.2705  155.4756 H   0  0  0  0  0  0  0  0  0  0  0  0
  147.8620  131.6362  153.3444 H   0  0  0  0  0  0  0  0  0  0  0  0
  149.2488  132.5191  152.7795 H   0  0  0  0  0  0  0  0  0  0  0  0
  149.5936  132.3579  155.5162 H   0  0  0  0  0  0  0  0  0  0  0  0
  150.7703  131.0162  156.6024 H   0  0  0  0  0  0  0  0  0  0  0  0
  149.2850  129.0962  157.1039 H   0  0  0  0  0  0  0  0  0  0  0  0
  150.9415  128.7392  157.5683 H   0  0  0  0  0  0  0  0  0  0  0  0
  150.2697  128.0335  156.1027 H   0  0  0  0  0  0  0  0  0  0  0  0
  152.1150  128.2896  154.2010 H   0  0  0  0  0  0  0  0  0  0  0  0
  155.2170  130.7103  155.4263 H   0  0  0  0  0  0  0  0  0  0  0  0
  147.0684  132.5034  151.7238 H   0  0  0  0  0  0  0  0  0  0  0  0
  145.5925  132.8494  152.6031 H   0  0  0  0  0  0  0  0  0  0  0  0
  146.6511  134.3959  150.1764 H   0  0  0  0  0  0  0  0  0  0  0  0
  145.2937  133.2859  150.1944 H   0  0  0  0  0  0  0  0  0  0  0  0
  146.4336  136.4984  151.3527 H   0  0  0  0  0  0  0  0  0  0  0  0
  144.9378  136.8321  152.2027 H   0  0  0  0  0  0  0  0  0  0  0  0
  145.4072  135.0813  153.8764 H   0  0  0  0  0  0  0  0  0  0  0  0
  146.7420  136.2145  153.7775 H   0  0  0  0  0  0  0  0  0  0  0  0
  147.8416  134.6918  152.3145 H   0  0  0  0  0  0  0  0  0  0  0  0
  1  2  1  0  0  0  0
  1 22  1  0  0  0  0
  1 23  1  0  0  0  0
  1 24  1  0  0  0  0
  2  3  1  0  0  0  0
  2 25  1  0  0  0  0
  2 26  1  0  0  0  0
  3  4  1  0  0  0  0
  3  5  1  0  0  0  0
  3 16  1  0  0  0  0
  4 27  1  0  0  0  0
  4 28  1  0  0  0  0
  4 29  1  0  0  0  0
  5  6  1  0  0  0  0
  5 30  1  0  0  0  0
  5 31  1  0  0  0  0
  6  7  1  0  0  0  0
  6 32  1  0  0  0  0
  7  8  2  0  0  0  0
  7  9  1  0  0  0  0
  9 10  1  0  0  0  0
  9 11  1  0  0  0  0
  9 33  1  0  0  0  0
 10 34  1  0  0  0  0
 10 35  1  0  0  0  0
 10 36  1  0  0  0  0
 11 15  1  0  0  0  0
 11 12  1  0  0  0  0
 12 13  2  0  0  0  0
 12 37  1  0  0  0  0
 13 14  1  0  0  0  0
 14 15  2  0  0  0  0
 14 38  1  0  0  0  0
 16 21  1  0  0  0  0
 16 17  1  0  0  0  0
 16 47  1  0  0  0  0
 17 18  1  0  0  0  0
 17 39  1  0  0  0  0
 17 40  1  0  0  0  0
 18 19  1  0  0  0  0
 18 41  1  0  0  0  0
 18 42  1  0  0  0  0
 19 20  1  0  0  0  0
 20 21  1  0  0  0  0
 20 43  1  0  0  0  0
 20 44  1  0  0  0  0
 21 45  1  0  0  0  0
 21 46  1  0  0  0  0
M  CHG  1  16   1
M  END
> <s_m_source_file>
AV-unprocessed.smi

> <i_m_source_file_index>
1285

> <i_lp_mmshare_version>
43012

> <i_f3d_flags>
0

> <s_epik_input>
W0NIMl0xW0NIMl1PW0NIMl1bQ0gyXU4xW0NAQF0oW0NIM10pKFtDSDJdW0NIM10pW0NIMl1bTkhdQyg9TylbQ0BIXShbQ0gzXSluMltjSF1uW2NIXW4y

> <s_epik_cmdline>
J2VwaWtfcHl0aG9uJywgJy1waCcsICc3LjAnLCAnLXRuJywgJzgnLCAnLW1hJywgJzIwMCcsICctbWV0YWxfYmluZGluZycsICctaW1hZScsICc8aW5maWxlLm1hZT4nLCAnLW9tYWUnLCAnPG91dGZpbGUubWFlPic=

> <r_lp_tautomer_probability>
1

> <r_epik_Ionization_Penalty>
0.569304

> <r_epik_Ionization_Penalty_Charging>
0.569295

> <r_epik_Ionization_Penalty_Neutral>
8.22697e-06

> <r_epik_State_Penalty>
0.581114

> <r_epik_Charging_Adjusted_Penalty>
1.15041

> <i_epik_Tot_Q>
1

> <i_epik_Tot_abs_Q>
1

> <r_epik_Metal_State_Penalty>
0.581117

> <b_epik_Metal_Only>
0

> <s_lp_Force_Field>
OPLS_2005

> <r_lp_Energy>
34.4039

> <b_lp_Chiralities_Consistent>
1

> <s_lp_Variant>
AV-unprocessed.smi:1285-8

> <Gold.Version>
5.8.1

> <Gold.Id.Protein>
6NUR|6NUR_protein|mol2

> <Gold.PLP.Fitness>
34.6352

> <Gold.PLP.PLP>
-26.7046

> <Gold.PLP.part.hbond>
-1.0000

> <Gold.PLP.part.metal>
0.0000

> <Gold.PLP.part.buried>
-1.5789

> <Gold.PLP.part.nonpolar>
-24.0176

> <Gold.PLP.part.repulsive>
0.3982

> <Gold.PLP.ligand.clash>
0.0000

> <Gold.PLP.ligand.torsion>
0.7896

> <Gold.PLP.Chemscore.Hbond>
2.0000

> <Gold.PLP.Chemscore.CHOScore>
0.9878

> <Gold.PLP.Chemscore.Metal>
0.0000

> <Gold.Chemscore.Hbonds>
donor molecule, donor type, donor heavy atom, donor atom, acceptor molecule, acceptor atom, score
      L1  H    16    47       P1  7948  2.00
      L1  C    12    37       P1 10737  0.91

> <Gold.PLP.Chemscore.Internal.Correction>
0.5464

> <Gold.Rescore>
     Score         DG    S(hbond)    S(metal)    S(lipo)     H(rot)  DE(clash)    DE(int)     intcor
      5.47      -6.28       0.92        0.00      40.95       2.76       0.00       0.81       ----

> <Gold.Chemscore.Fitness>
5.4745

> <Gold.Chemscore.DG>
-6.2848

> <Gold.Chemscore.ZeroCoef>
-5.4800

> <Gold.Chemscore.Hbond>
0.9210

> <Gold.Chemscore.Metal>
0.0000

> <Gold.Chemscore.Lipo>
40.9515

> <Gold.Chemscore.Internal_Hbond>
0.0000

> <Gold.Chemscore.DEClash>
0.0038

> <Gold.Chemscore.DEInternal>
0.8065

> <Gold.Chemscore.Rot>
2.7589

> <Gold.Chemscore.Internal.Correction>
   9.000000E+99

> <Gold.Chemscore.Hbonds>
donor molecule, donor type, donor heavy atom, donor atom, acceptor molecule, acceptor atom, score
      L1  H    16    47       P1  7948  0.62

> <Gold.Chemscore.Hbond.Weighted>
-3.0762

> <Gold.Chemscore.Metal.Weighted>
-0.0000

> <Gold.Chemscore.Lipo.Weighted>
-4.7913

> <Gold.Chemscore.Internal_Hbond.Weighted>
0.0000

> <Gold.Chemscore.DEClash.Weighted>
0.0038

> <Gold.Chemscore.DEInternal.Weighted>
0.8065

> <Gold.Chemscore.Rot.Weighted>
7.0627

> <Gold.Chemscore.Internal.Correction.Weighted>
   9.000000E+99

> <Gold.Protein.RotatedTorsions>
[ 6907 6896 6895 6894 ] final   73.97 input  -60.11 | X-H torsion
[ 7974 7965 7964 7962 ] final    2.56 input  175.53 | X-H torsion
[ 8008 7997 7996 7995 ] final  -27.63 input   59.86 | X-H torsion
[ 10167 10162 10161 10158 ] final  101.12 input  -65.29 | X-H torsion
[ 10718 10713 10712 10709 ] final   31.26 input   66.30 | X-H torsion
[ 10763 10752 10751 10750 ] final   55.16 input  -60.55 | X-H torsion
[ 11005 11000 10999 10996 ] final   47.81 input  -57.11 | X-H torsion

> <Gold.Protein.ActiveResidues>
 VAL166  LYS551  ARG553  GLY616  TRP617  ASP618  TYR619  PRO620  LYS621  CYS622 
 ASP623  PHE694  ASN695  SER759  ASP760  ASP761  ALA762  ILE779  LEU786  VAL792 
 PHE793  MET794  SER795  GLU796  ALA797  LYS798  CYS799  TRP800  GLU811  SER814 

> <Gold.Protein.RotatedAtoms>
  152.4951  134.4342  159.9521 H   0  0  0  0  0  0  0  0  0  0  0  0  # atno 6907 bound_to 6896
  151.4322  133.3661  159.2778 H   0  0  0  0  0  0  0  0  0  0  0  0  # atno 6908 bound_to 6896
  150.9147  134.8587  159.7508 H   0  0  0  0  0  0  0  0  0  0  0  0  # atno 6909 bound_to 6896
  146.2444  140.0817  142.8356 H   0  0  0  0  0  0  0  0  0  0  0  0  # atno 7974 bound_to 7965
  154.4368  140.1867  156.0962 H   0  0  0  0  0  0  0  0  0  0  0  0  # atno 8008 bound_to 7997
  156.0327  140.3328  155.7131 H   0  0  0  0  0  0  0  0  0  0  0  0  # atno 8009 bound_to 7997
  155.5815  140.0622  157.2772 H   0  0  0  0  0  0  0  0  0  0  0  0  # atno 8010 bound_to 7997
  139.7466  144.6996  151.0494 H   0  0  0  0  0  0  0  0  0  0  0  0  # atno 10167 bound_to 10162
  157.2702  130.7204  149.6500 H   0  0  0  0  0  0  0  0  0  0  0  0  # atno 10718 bound_to 10713
  152.9813  135.5720  154.5021 H   0  0  0  0  0  0  0  0  0  0  0  0  # atno 10763 bound_to 10752
  154.4539  135.2779  155.1763 H   0  0  0  0  0  0  0  0  0  0  0  0  # atno 10764 bound_to 10752
  154.3380  135.6235  153.5636 H   0  0  0  0  0  0  0  0  0  0  0  0  # atno 10765 bound_to 10752
  140.1246  134.4785  155.8569 H   0  0  0  0  0  0  0  0  0  0  0  0  # atno 11005 bound_to 11000
  145.0727  140.9167  143.4872 LP  0  0  0  0  0  0  0  0  0  0  0  0  # atno 17320 bound_to 7965
  145.0954  139.2860  143.5713 LP  0  0  0  0  0  0  0  0  0  0  0  0  # atno 17321 bound_to 7965
  140.7793  143.4859  150.9957 LP  0  0  0  0  0  0  0  0  0  0  0  0  # atno 17342 bound_to 10162
  139.8547  143.7393  152.3176 LP  0  0  0  0  0  0  0  0  0  0  0  0  # atno 17343 bound_to 10162
  155.9663  130.4370  150.5156 LP  0  0  0  0  0  0  0  0  0  0  0  0  # atno 17370 bound_to 10713
  157.3079  131.0658  151.2022 LP  0  0  0  0  0  0  0  0  0  0  0  0  # atno 17371 bound_to 10713
  141.2158  133.6773  156.6954 LP  0  0  0  0  0  0  0  0  0  0  0  0  # atno 17394 bound_to 11000
  140.2920  134.8233  157.4025 LP  0  0  0  0  0  0  0  0  0  0  0  0  # atno 17395 bound_to 11000

$$$$
