AV-unprocessed.smi:167|AV-procd|sdf|1392|dock2
  -GOLD-   2262019133D 1   1.00000     0.00000
 Structure written by MMmdl.
 51 55  0  0  0  0  0  0  0  0  1 V2000
  148.2271  141.2861  158.1433 O   0  0  0  0  0  0  0  0  0  0  0  0
  147.6569  141.8780  156.9950 C   0  0  0  0  0  0  0  0  0  0  0  0
  148.3185  141.3209  155.7210 C   0  0  2  0  0  0  0  0  0  0  0  0
  147.6098  141.7752  154.4296 C   0  0  0  0  0  0  0  0  0  0  0  0
  147.2499  140.4294  153.7781 C   0  0  1  0  0  0  0  0  0  0  0  0
  148.5302  139.7738  153.2238 C   0  0  0  0  0  0  0  0  0  0  0  0
  149.2120  139.3066  154.5197 C   0  0  0  0  0  0  0  0  0  0  0  0
  148.2009  139.7869  155.5834 C   0  0  2  0  0  0  0  0  0  0  0  0
  146.9076  139.6138  154.9321 N   0  0  0  0  0  0  0  0  0  0  0  0
  146.3816  138.3660  154.7798 C   0  0  0  0  0  0  0  0  0  0  0  0
  146.0996  137.6430  155.8967 N   0  0  0  0  0  0  0  0  0  0  0  0
  145.5805  136.4164  155.8017 C   0  0  0  0  0  0  0  0  0  0  0  0
  145.2644  135.7284  154.7045 N   0  0  0  0  0  0  0  0  0  0  0  0
  145.5304  136.4480  153.5776 C   0  0  0  0  0  0  0  0  0  0  0  0
  146.0734  137.7649  153.5228 C   0  0  0  0  0  0  0  0  0  0  0  0
  146.1659  138.1711  152.1959 N   0  0  0  0  0  0  0  0  0  0  0  0
  145.7157  137.1561  151.5112 C   0  0  0  0  0  0  0  0  0  0  0  0
  145.3396  136.0662  152.2612 N   0  0  0  0  0  0  0  0  0  0  0  0
  144.7796  134.8385  151.7770 C   0  0  0  0  0  0  0  0  0  0  0  0
  145.5513  133.5210  151.8970 C   0  0  0  0  0  0  0  0  0  0  0  0
  144.9059  133.0366  150.5777 C   0  0  0  0  0  0  0  0  0  0  0  0
  145.8022  132.2584  149.5937 C   0  0  0  0  0  0  0  0  0  0  0  0
  146.4941  131.1937  150.2150 O   0  0  0  0  0  0  0  0  0  0  0  0
  143.6006  132.2339  150.7361 C   0  0  0  0  0  0  0  0  0  0  0  0
  142.9065  132.1234  149.5099 O   0  0  0  0  0  0  0  0  0  0  0  0
  144.6914  134.5381  150.2767 C   0  0  0  0  0  0  0  0  0  0  0  0
  148.9938  141.7816  158.3880 H   0  0  0  0  0  0  0  0  0  0  0  0
  146.5813  141.6979  156.9913 H   0  0  0  0  0  0  0  0  0  0  0  0
  147.8041  142.9566  157.0560 H   0  0  0  0  0  0  0  0  0  0  0  0
  149.3643  141.6321  155.7064 H   0  0  0  0  0  0  0  0  0  0  0  0
  146.7050  142.3432  154.6513 H   0  0  0  0  0  0  0  0  0  0  0  0
  148.2445  142.3938  153.7942 H   0  0  0  0  0  0  0  0  0  0  0  0
  146.4676  140.5473  153.0311 H   0  0  0  0  0  0  0  0  0  0  0  0
  148.2906  138.9220  152.5859 H   0  0  0  0  0  0  0  0  0  0  0  0
  149.1422  140.4682  152.6469 H   0  0  0  0  0  0  0  0  0  0  0  0
  149.3098  138.2203  154.5315 H   0  0  0  0  0  0  0  0  0  0  0  0
  150.2062  139.7338  154.6550 H   0  0  0  0  0  0  0  0  0  0  0  0
  148.3102  139.2702  156.5377 H   0  0  0  0  0  0  0  0  0  0  0  0
  145.3925  135.9141  156.7391 H   0  0  0  0  0  0  0  0  0  0  0  0
  145.6517  137.1759  150.4330 H   0  0  0  0  0  0  0  0  0  0  0  0
  143.7981  134.7523  152.2458 H   0  0  0  0  0  0  0  0  0  0  0  0
  146.6304  133.6686  151.8287 H   0  0  0  0  0  0  0  0  0  0  0  0
  145.2990  132.9341  152.7807 H   0  0  0  0  0  0  0  0  0  0  0  0
  145.2158  131.8346  148.7782 H   0  0  0  0  0  0  0  0  0  0  0  0
  146.5425  132.9175  149.1390 H   0  0  0  0  0  0  0  0  0  0  0  0
  147.4222  131.3364  150.1086 H   0  0  0  0  0  0  0  0  0  0  0  0
  143.7956  131.2250  151.1000 H   0  0  0  0  0  0  0  0  0  0  0  0
  142.9413  132.6987  151.4699 H   0  0  0  0  0  0  0  0  0  0  0  0
  142.3257  132.8644  149.4265 H   0  0  0  0  0  0  0  0  0  0  0  0
  143.7291  134.7826  149.8261 H   0  0  0  0  0  0  0  0  0  0  0  0
  145.5077  134.9941  149.7145 H   0  0  0  0  0  0  0  0  0  0  0  0
  1  2  1  0  0  0  0
  1 27  1  0  0  0  0
  2  3  1  0  0  0  0
  2 28  1  0  0  0  0
  2 29  1  0  0  0  0
  3  8  1  0  0  0  0
  3  4  1  0  0  0  0
  3 30  1  0  0  0  0
  4  5  1  0  0  0  0
  4 31  1  0  0  0  0
  4 32  1  0  0  0  0
  5  9  1  0  0  0  0
  5  6  1  0  0  0  0
  5 33  1  0  0  0  0
  6  7  1  0  0  0  0
  6 34  1  0  0  0  0
  6 35  1  0  0  0  0
  7  8  1  0  0  0  0
  7 36  1  0  0  0  0
  7 37  1  0  0  0  0
  8  9  1  0  0  0  0
  8 38  1  0  0  0  0
  9 10  1  0  0  0  0
 10 15  1  0  0  0  0
 10 11  2  0  0  0  0
 11 12  1  0  0  0  0
 12 13  2  0  0  0  0
 12 39  1  0  0  0  0
 13 14  1  0  0  0  0
 14 18  1  0  0  0  0
 14 15  2  0  0  0  0
 15 16  1  0  0  0  0
 16 17  2  0  0  0  0
 17 18  1  0  0  0  0
 17 40  1  0  0  0  0
 18 19  1  0  0  0  0
 19 26  1  0  0  0  0
 19 20  1  0  0  0  0
 19 41  1  0  0  0  0
 20 21  1  0  0  0  0
 20 42  1  0  0  0  0
 20 43  1  0  0  0  0
 21 22  1  0  0  0  0
 21 24  1  0  0  0  0
 21 26  1  0  0  0  0
 22 23  1  0  0  0  0
 22 44  1  0  0  0  0
 22 45  1  0  0  0  0
 23 46  1  0  0  0  0
 24 25  1  0  0  0  0
 24 47  1  0  0  0  0
 24 48  1  0  0  0  0
 25 49  1  0  0  0  0
 26 50  1  0  0  0  0
 26 51  1  0  0  0  0
M  END
> <s_m_source_file>
AV-unprocessed.smi

> <i_m_source_file_index>
167

> <i_lp_mmshare_version>
43012

> <i_f3d_flags>
0

> <s_epik_input>
W09IXVtDSDJdW0NASF0oW0NIMl1bQ0BASF0xMilbQ0BIXShbQ0gyXVtDSDJdMSlOMmMobltjSF1uMyljKGMzNCluW2NIXW40W0NIXShbQ0gyXTUpW0NIMl1DNShbQ0gyXVtPSF0pW0NIMl1bT0hd

> <s_epik_cmdline>
J2VwaWtfcHl0aG9uJywgJy1waCcsICc3LjAnLCAnLXRuJywgJzgnLCAnLW1hJywgJzIwMCcsICctbWV0YWxfYmluZGluZycsICctaW1hZScsICc8aW5maWxlLm1hZT4nLCAnLW9tYWUnLCAnPG91dGZpbGUubWFlPic=

> <r_lp_tautomer_probability>
1

> <r_epik_Ionization_Penalty>
0.0047903

> <r_epik_Ionization_Penalty_Charging>
0

> <r_epik_Ionization_Penalty_Neutral>
0.0047903

> <r_epik_State_Penalty>
0.00341021

> <r_epik_Charging_Adjusted_Penalty>
0.00341021

> <i_epik_Tot_Q>
0

> <i_epik_Tot_abs_Q>
0

> <r_epik_Metal_State_Penalty>
-0

> <b_epik_Metal_Only>
0

> <s_lp_Force_Field>
OPLS_2005

> <r_lp_Energy>
90.0047

> <b_lp_Chiralities_Consistent>
1

> <s_lp_Variant>
AV-unprocessed.smi:167-1

> <Gold.Version>
5.8.1

> <Gold.Id.Protein>
6NUR|6NUR_protein|mol2

> <Gold.PLP.Fitness>
42.8157

> <Gold.PLP.PLP>
-33.4334

> <Gold.PLP.part.hbond>
-4.0264

> <Gold.PLP.part.metal>
0.0000

> <Gold.PLP.part.buried>
0.2563

> <Gold.PLP.part.nonpolar>
-30.5644

> <Gold.PLP.part.repulsive>
0.3957

> <Gold.PLP.ligand.clash>
0.0000

> <Gold.PLP.ligand.torsion>
0.5219

> <Gold.PLP.Chemscore.Hbond>
2.7225

> <Gold.PLP.Chemscore.CHOScore>
0.5818

> <Gold.PLP.Chemscore.Metal>
0.0000

> <Gold.Chemscore.Hbonds>
donor molecule, donor type, donor heavy atom, donor atom, acceptor molecule, acceptor atom, score
      L1  H    23    46       P1 10747  1.00
      L1  H    25    49       P1 10186  0.99
      P1  H 10785 10796       L1    25  0.71
      L1  C    17    40       P1 10171  0.59

> <Gold.PLP.Chemscore.Internal.Correction>
0.5131

> <Gold.Rescore>
     Score         DG    S(hbond)    S(metal)    S(lipo)     H(rot)  DE(clash)    DE(int)     intcor
      9.35     -13.08       2.52        0.00      84.93       4.20       2.22       1.52       ----

> <Gold.Chemscore.Fitness>
9.3483

> <Gold.Chemscore.DG>
-13.0843

> <Gold.Chemscore.ZeroCoef>
-5.4800

> <Gold.Chemscore.Hbond>
2.5237

> <Gold.Chemscore.Metal>
0.0000

> <Gold.Chemscore.Lipo>
84.9301

> <Gold.Chemscore.Internal_Hbond>
0.0000

> <Gold.Chemscore.DEClash>
2.2189

> <Gold.Chemscore.DEInternal>
1.5171

> <Gold.Chemscore.Rot>
4.2038

> <Gold.Chemscore.Internal.Correction>
   9.000000E+99

> <Gold.Chemscore.Hbonds>
donor molecule, donor type, donor heavy atom, donor atom, acceptor molecule, acceptor atom, score
      L1  H    23    46       P1 10747  0.95
      L1  H    25    49       P1 10186  0.92
      P1  H 10785 10796       L1    25  0.50

> <Gold.Chemscore.Hbond.Weighted>
-8.4291

> <Gold.Chemscore.Metal.Weighted>
-0.0000

> <Gold.Chemscore.Lipo.Weighted>
-9.9368

> <Gold.Chemscore.Internal_Hbond.Weighted>
0.0000

> <Gold.Chemscore.DEClash.Weighted>
2.2189

> <Gold.Chemscore.DEInternal.Weighted>
1.5171

> <Gold.Chemscore.Rot.Weighted>
10.7617

> <Gold.Chemscore.Internal.Correction.Weighted>
   9.000000E+99

> <Gold.Protein.RotatedTorsions>
[ 6907 6896 6895 6894 ] final  -75.09 input  -60.11 | X-H torsion
[ 7974 7965 7964 7962 ] final  109.42 input  175.53 | X-H torsion
[ 8008 7997 7996 7995 ] final  103.73 input   59.86 | X-H torsion
[ 10167 10162 10161 10158 ] final -121.36 input  -65.29 | X-H torsion
[ 10718 10713 10712 10709 ] final  160.58 input   66.30 | X-H torsion
[ 10763 10752 10751 10750 ] final   -5.81 input  -60.55 | X-H torsion
[ 11005 11000 10999 10996 ] final   10.36 input  -57.11 | X-H torsion

> <Gold.Protein.ActiveResidues>
 VAL166  LYS551  ARG553  GLY616  TRP617  ASP618  TYR619  PRO620  LYS621  CYS622 
 ASP623  PHE694  ASN695  SER759  ASP760  ASP761  ALA762  ILE779  LEU786  VAL792 
 PHE793  MET794  SER795  GLU796  ALA797  LYS798  CYS799  TRP800  GLU811  SER814 

> <Gold.Protein.RotatedAtoms>
  150.7070  134.4772  159.5452 H   0  0  0  0  0  0  0  0  0  0  0  0  # atno 6907 bound_to 6896
  152.2417  134.8219  160.0468 H   0  0  0  0  0  0  0  0  0  0  0  0  # atno 6908 bound_to 6896
  151.8999  133.3500  159.3864 H   0  0  0  0  0  0  0  0  0  0  0  0  # atno 6909 bound_to 6896
  145.2680  139.2677  143.3981 H   0  0  0  0  0  0  0  0  0  0  0  0  # atno 7974 bound_to 7965
  156.1510  140.3160  155.8648 H   0  0  0  0  0  0  0  0  0  0  0  0  # atno 8008 bound_to 7997
  155.3970  140.0497  157.3055 H   0  0  0  0  0  0  0  0  0  0  0  0  # atno 8009 bound_to 7997
  154.5059  140.2146  155.9264 H   0  0  0  0  0  0  0  0  0  0  0  0  # atno 8010 bound_to 7997
  140.0259  143.5297  152.2199 H   0  0  0  0  0  0  0  0  0  0  0  0  # atno 10167 bound_to 10162
  157.1485  131.0558  151.2292 H   0  0  0  0  0  0  0  0  0  0  0  0  # atno 10718 bound_to 10713
  153.4037  135.7005  153.6408 H   0  0  0  0  0  0  0  0  0  0  0  0  # atno 10763 bound_to 10752
  153.4930  135.3668  155.2502 H   0  0  0  0  0  0  0  0  0  0  0  0  # atno 10764 bound_to 10752
  154.8712  135.4093  154.3377 H   0  0  0  0  0  0  0  0  0  0  0  0  # atno 10765 bound_to 10752
  140.5154  134.0611  155.7829 H   0  0  0  0  0  0  0  0  0  0  0  0  # atno 11005 bound_to 11000
  146.3255  140.3115  142.8627 LP  0  0  0  0  0  0  0  0  0  0  0  0  # atno 17320 bound_to 7965
  144.9360  140.8027  143.5660 LP  0  0  0  0  0  0  0  0  0  0  0  0  # atno 17321 bound_to 7965
  139.6108  144.7608  151.2956 LP  0  0  0  0  0  0  0  0  0  0  0  0  # atno 17342 bound_to 10162
  140.7323  143.6828  150.7987 LP  0  0  0  0  0  0  0  0  0  0  0  0  # atno 17343 bound_to 10162
  157.4242  130.7454  149.6938 LP  0  0  0  0  0  0  0  0  0  0  0  0  # atno 17370 bound_to 10713
  155.9775  130.4062  150.3709 LP  0  0  0  0  0  0  0  0  0  0  0  0  # atno 17371 bound_to 10713
  141.1363  133.9216  157.2426 LP  0  0  0  0  0  0  0  0  0  0  0  0  # atno 17394 bound_to 11000
  139.9635  135.0148  156.9326 LP  0  0  0  0  0  0  0  0  0  0  0  0  # atno 17395 bound_to 11000

$$$$
