AV-unprocessed.smi:157|AV-procd|sdf|1294|dock1
  -GOLD-   2262018573D 1   1.00000     0.00000
 Structure written by MMmdl.
 35 37  0  0  0  0  0  0  0  0  1 V2000
  149.8171  140.7407  153.4231 O   0  0  0  0  0  0  0  0  0  0  0  0
  149.6281  140.1085  154.6722 C   0  0  0  0  0  0  0  0  0  0  0  0
  148.2442  140.4565  155.2593 C   0  0  2  0  0  0  0  0  0  0  0  0
  147.3660  139.3754  154.9390 O   0  0  0  0  0  0  0  0  0  0  0  0
  146.3886  139.7856  154.0283 C   0  0  2  0  0  0  0  0  0  0  0  0
  146.2924  138.7746  152.9292 N   0  0  0  0  0  0  0  0  0  0  0  0
  146.8018  138.8861  151.6949 C   0  0  0  0  0  0  0  0  0  0  0  0
  146.5727  137.8461  150.9108 N   0  0  0  0  0  0  0  0  0  0  0  0
  145.8319  136.9780  151.7111 C   0  0  0  0  0  0  0  0  0  0  0  0
  145.6380  137.5401  152.9649 C   0  0  0  0  0  0  0  0  0  0  0  0
  145.0034  137.1702  154.1354 N   0  0  0  0  0  0  0  0  0  0  0  0
  144.1175  136.2266  154.0742 C   0  0  0  0  0  0  0  0  0  0  0  0
  143.7399  135.4205  153.0096 N   0  0  0  0  0  0  0  0  0  0  0  0
  144.6916  134.7264  152.1592 C   0  0  0  0  0  0  0  0  0  0  0  0
  145.4069  135.6463  151.1621 C   0  0  1  0  0  0  0  0  0  0  0  0
  144.5496  135.9034  150.0688 O   0  0  0  0  0  0  0  0  0  0  0  0
  146.8341  141.1323  153.4698 C   0  0  0  0  0  0  0  0  0  0  0  0
  147.5547  141.7013  154.6705 C   0  0  2  0  0  0  0  0  0  0  0  0
  148.4294  142.7488  154.3033 O   0  0  0  0  0  0  0  0  0  0  0  0
  148.3181  140.5341  156.3449 H   0  0  0  0  0  0  0  0  0  0  0  0
  145.4116  139.8067  154.5123 H   0  0  0  0  0  0  0  0  0  0  0  0
  146.2738  135.1170  150.7654 H   0  0  0  0  0  0  0  0  0  0  0  0
  146.8230  142.0827  155.3840 H   0  0  0  0  0  0  0  0  0  0  0  0
  149.7082  140.0960  152.7408 H   0  0  0  0  0  0  0  0  0  0  0  0
  149.7646  139.0314  154.5737 H   0  0  0  0  0  0  0  0  0  0  0  0
  150.4123  140.4675  155.3394 H   0  0  0  0  0  0  0  0  0  0  0  0
  147.3578  139.7499  151.3616 H   0  0  0  0  0  0  0  0  0  0  0  0
  143.5571  135.9831  154.9778 H   0  0  0  0  0  0  0  0  0  0  0  0
  142.8708  134.9109  153.0774 H   0  0  0  0  0  0  0  0  0  0  0  0
  145.4368  134.2706  152.8129 H   0  0  0  0  0  0  0  0  0  0  0  0
  144.1973  133.9034  151.6423 H   0  0  0  0  0  0  0  0  0  0  0  0
  144.3860  136.8338  150.0352 H   0  0  0  0  0  0  0  0  0  0  0  0
  147.5181  140.9796  152.6331 H   0  0  0  0  0  0  0  0  0  0  0  0
  145.9824  141.7261  153.1366 H   0  0  0  0  0  0  0  0  0  0  0  0
  148.5432  143.3186  155.0488 H   0  0  0  0  0  0  0  0  0  0  0  0
  1  2  1  0  0  0  0
  1 24  1  0  0  0  0
  2  3  1  0  0  0  0
  2 25  1  0  0  0  0
  2 26  1  0  0  0  0
  3 20  1  0  0  0  0
  3 18  1  0  0  0  0
  3  4  1  0  0  0  0
  4  5  1  0  0  0  0
  5 21  1  0  0  0  0
  5  6  1  0  0  0  0
  5 17  1  0  0  0  0
  6 10  1  0  0  0  0
  6  7  1  0  0  0  0
  7  8  2  0  0  0  0
  7 27  1  0  0  0  0
  8  9  1  0  0  0  0
  9 15  1  0  0  0  0
  9 10  2  0  0  0  0
 10 11  1  0  0  0  0
 11 12  2  0  0  0  0
 12 13  1  0  0  0  0
 12 28  1  0  0  0  0
 13 14  1  0  0  0  0
 13 29  1  0  0  0  0
 14 15  1  0  0  0  0
 14 30  1  0  0  0  0
 14 31  1  0  0  0  0
 15 22  1  0  0  0  0
 15 16  1  0  0  0  0
 16 32  1  0  0  0  0
 17 18  1  0  0  0  0
 17 33  1  0  0  0  0
 17 34  1  0  0  0  0
 18 23  1  0  0  0  0
 18 19  1  0  0  0  0
 19 35  1  0  0  0  0
M  END
> <s_m_source_file>
AV-unprocessed.smi

> <i_m_source_file_index>
157

> <i_lp_mmshare_version>
43012

> <i_f3d_flags>
0

> <s_epik_input>
W09IXVtDSDJdW0NASF0xT1tDQEhdKFtDSDJdW0NAQEhdMVtPSF0pbihbY0hdbjIpYyhjMjMpTj1bQ0hdW05IXVtDSDJdW0NASF0zW09IXQ==

> <s_epik_cmdline>
J2VwaWtfcHl0aG9uJywgJy1waCcsICc3LjAnLCAnLXRuJywgJzgnLCAnLW1hJywgJzIwMCcsICctbWV0YWxfYmluZGluZycsICctaW1hZScsICc8aW5maWxlLm1hZT4nLCAnLW9tYWUnLCAnPG91dGZpbGUubWFlPic=

> <r_lp_tautomer_probability>
1

> <r_epik_Ionization_Penalty>
0.0357149

> <r_epik_Ionization_Penalty_Charging>
0.0355056

> <r_epik_Ionization_Penalty_Neutral>
0.000209255

> <r_epik_State_Penalty>
0.0296046

> <r_epik_Charging_Adjusted_Penalty>
0.0651102

> <i_epik_Tot_Q>
0

> <i_epik_Tot_abs_Q>
0

> <r_epik_Metal_State_Penalty>
3.03559e-05

> <b_epik_Metal_Only>
0

> <s_epik_Chemistry_Notes>
This compound has an imine and may undergo hydrolysis. This compound contains an acetal/aminal-like group ( X-CH(R)-Y where X, Y are N, S, or O) that may be acid/base labile, releasing an aldehyde.

> <s_lp_Force_Field>
OPLS_2005

> <r_lp_Energy>
46.7001

> <b_lp_Chiralities_Consistent>
1

> <s_lp_Variant>
AV-unprocessed.smi:157-4

> <Gold.Version>
5.8.1

> <Gold.Id.Protein>
6NUR|6NUR_protein|mol2

> <Gold.PLP.Fitness>
43.9322

> <Gold.PLP.PLP>
-27.7309

> <Gold.PLP.part.hbond>
-7.5000

> <Gold.PLP.part.metal>
0.0000

> <Gold.PLP.part.buried>
-0.9266

> <Gold.PLP.part.nonpolar>
-22.9896

> <Gold.PLP.part.repulsive>
2.2185

> <Gold.PLP.ligand.clash>
0.0000

> <Gold.PLP.ligand.torsion>
0.9914

> <Gold.PLP.Chemscore.Hbond>
5.0736

> <Gold.PLP.Chemscore.CHOScore>
0.9834

> <Gold.PLP.Chemscore.Metal>
0.0000

> <Gold.Chemscore.Hbonds>
donor molecule, donor type, donor heavy atom, donor atom, acceptor molecule, acceptor atom, score
      L1  H     1    24       P1  7957  0.77
      L1  H    16    32       P1 10171  1.00
      L1  H    19    35       P1  8028  0.99
      P1  H  7954  7966       L1     8  1.00
      P1  H  7989  7998       L1     1  0.32
      P1  H  8011  8017       L1     1  1.00
      L1  C     7    27       P1  7957  1.00

> <Gold.PLP.Chemscore.Internal.Correction>
0.0131

> <Gold.Rescore>
     Score         DG    S(hbond)    S(metal)    S(lipo)     H(rot)  DE(clash)    DE(int)     intcor
      8.83     -12.51       3.45        0.00      41.14       3.64       1.58       2.09       ----

> <Gold.Chemscore.Fitness>
8.8346

> <Gold.Chemscore.DG>
-12.5132

> <Gold.Chemscore.ZeroCoef>
-5.4800

> <Gold.Chemscore.Hbond>
3.4515

> <Gold.Chemscore.Metal>
0.0000

> <Gold.Chemscore.Lipo>
41.1449

> <Gold.Chemscore.Internal_Hbond>
0.0000

> <Gold.Chemscore.DEClash>
1.5837

> <Gold.Chemscore.DEInternal>
2.0948

> <Gold.Chemscore.Rot>
3.6362

> <Gold.Chemscore.Internal.Correction>
   9.000000E+99

> <Gold.Chemscore.Hbonds>
donor molecule, donor type, donor heavy atom, donor atom, acceptor molecule, acceptor atom, score
      L1  H     1    24       P1  7957  0.76
      L1  H    16    32       P1 10171  1.00
      L1  H    19    35       P1  8028  0.89
      P1  H  7954  7966       L1     8  0.25
      P1  H  7989  7998       L1     1  0.02
      P1  H  8011  8017       L1     1  0.24

> <Gold.Chemscore.Hbond.Weighted>
-11.5279

> <Gold.Chemscore.Metal.Weighted>
-0.0000

> <Gold.Chemscore.Lipo.Weighted>
-4.8140

> <Gold.Chemscore.Internal_Hbond.Weighted>
0.0000

> <Gold.Chemscore.DEClash.Weighted>
1.5837

> <Gold.Chemscore.DEInternal.Weighted>
2.0948

> <Gold.Chemscore.Rot.Weighted>
9.3087

> <Gold.Chemscore.Internal.Correction.Weighted>
   9.000000E+99

> <Gold.Protein.RotatedTorsions>
[ 6907 6896 6895 6894 ] final  122.55 input  -60.11 | X-H torsion
[ 7974 7965 7964 7962 ] final  -92.65 input  175.53 | X-H torsion
[ 8008 7997 7996 7995 ] final   33.74 input   59.86 | X-H torsion
[ 10167 10162 10161 10158 ] final  148.11 input  -65.29 | X-H torsion
[ 10718 10713 10712 10709 ] final   18.61 input   66.30 | X-H torsion
[ 10763 10752 10751 10750 ] final  -96.46 input  -60.55 | X-H torsion
[ 11005 11000 10999 10996 ] final  -52.07 input  -57.11 | X-H torsion

> <Gold.Protein.ActiveResidues>
 VAL166  LYS551  ARG553  GLY616  TRP617  ASP618  TYR619  PRO620  LYS621  CYS622 
 ASP623  PHE694  ASN695  SER759  ASP760  ASP761  ALA762  ILE779  LEU786  VAL792 
 PHE793  MET794  SER795  GLU796  ALA797  LYS798  CYS799  TRP800  GLU811  SER814 

> <Gold.Protein.RotatedAtoms>
  152.4234  133.7154  159.6502 H   0  0  0  0  0  0  0  0  0  0  0  0  # atno 6907 bound_to 6896
  150.8110  133.8412  159.3188 H   0  0  0  0  0  0  0  0  0  0  0  0  # atno 6908 bound_to 6896
  151.6122  135.1041  160.0135 H   0  0  0  0  0  0  0  0  0  0  0  0  # atno 6909 bound_to 6896
  145.3970  140.9534  143.2308 H   0  0  0  0  0  0  0  0  0  0  0  0  # atno 7974 bound_to 7965
  155.1436  140.3268  155.4446 H   0  0  0  0  0  0  0  0  0  0  0  0  # atno 8008 bound_to 7997
  156.2597  140.1989  156.6500 H   0  0  0  0  0  0  0  0  0  0  0  0  # atno 8009 bound_to 7997
  154.6524  140.0557  156.9957 H   0  0  0  0  0  0  0  0  0  0  0  0  # atno 8010 bound_to 7997
  139.4880  144.5704  151.7065 H   0  0  0  0  0  0  0  0  0  0  0  0  # atno 10167 bound_to 10162
  157.0987  130.6459  149.5867 H   0  0  0  0  0  0  0  0  0  0  0  0  # atno 10718 bound_to 10713
  154.7241  135.5083  153.8858 H   0  0  0  0  0  0  0  0  0  0  0  0  # atno 10763 bound_to 10752
  153.0889  135.6653  153.9903 H   0  0  0  0  0  0  0  0  0  0  0  0  # atno 10764 bound_to 10752
  153.9719  135.3037  155.3406 H   0  0  0  0  0  0  0  0  0  0  0  0  # atno 10765 bound_to 10752
  141.0905  133.6634  156.3970 H   0  0  0  0  0  0  0  0  0  0  0  0  # atno 11005 bound_to 11000
  144.8400  139.5487  143.6904 LP  0  0  0  0  0  0  0  0  0  0  0  0  # atno 17320 bound_to 7965
  146.2770  139.6778  142.9256 LP  0  0  0  0  0  0  0  0  0  0  0  0  # atno 17321 bound_to 7965
  140.5290  144.0760  150.6047 LP  0  0  0  0  0  0  0  0  0  0  0  0  # atno 17342 bound_to 10162
  140.3743  143.2837  152.0242 LP  0  0  0  0  0  0  0  0  0  0  0  0  # atno 17343 bound_to 10162
  155.9879  130.4920  150.7146 LP  0  0  0  0  0  0  0  0  0  0  0  0  # atno 17370 bound_to 10713
  157.4659  131.0888  151.0695 LP  0  0  0  0  0  0  0  0  0  0  0  0  # atno 17371 bound_to 10713
  140.5264  134.6255  157.5335 LP  0  0  0  0  0  0  0  0  0  0  0  0  # atno 17394 bound_to 11000
  139.9730  134.7262  156.0005 LP  0  0  0  0  0  0  0  0  0  0  0  0  # atno 17395 bound_to 11000

$$$$
