AV-unprocessed.smi:143|AV-procd|sdf|1193|dock4
  -GOLD-   2262018353D 1   1.00000     0.00000
 Structure written by MMmdl.
 38 40  0  0  0  0  0  0  0  0  1 V2000
  155.5389  137.1359  160.5030 O   0  0  0  0  0  0  0  0  0  0  0  0
  154.7631  137.1579  161.4607 C   0  0  0  0  0  0  0  0  0  0  0  0
  154.0908  138.4829  161.8798 C   0  0  0  0  0  0  0  0  0  0  0  0
  153.3797  139.1366  160.7865 N   0  0  0  0  0  0  0  0  0  0  0  0
  152.4795  138.3524  160.0219 C   0  0  0  0  0  0  0  0  0  0  0  0
  152.2936  137.1562  160.2532 O   0  0  0  0  0  0  0  0  0  0  0  0
  151.7895  139.0812  158.9635 C   0  0  0  0  0  0  0  0  0  0  0  0
  150.9033  138.4396  158.1832 F   0  0  0  0  0  0  0  0  0  0  0  0
  152.0221  140.3952  158.7559 C   0  0  0  0  0  0  0  0  0  0  0  0
  152.9188  141.1338  159.5064 N   0  0  0  0  0  0  0  0  0  0  0  0
  153.0693  142.6121  159.2299 C   0  0  2  0  0  0  0  0  0  0  0  0
  152.7539  143.5036  160.4461 C   0  0  0  0  0  0  0  0  0  0  0  0
  151.6326  144.3928  159.9340 C   0  0  0  0  0  0  0  0  0  0  0  0
  151.7999  144.3123  158.4207 C   0  0  0  0  0  0  0  0  0  0  0  0
  152.1909  142.9653  158.2064 O   0  0  0  0  0  0  0  0  0  0  0  0
  153.6061  140.5192  160.5789 C   0  0  0  0  0  0  0  0  0  0  0  0
  154.3602  141.1669  161.3074 O   0  0  0  0  0  0  0  0  0  0  0  0
  154.4395  135.9411  162.2617 C   0  0  0  0  0  0  0  0  0  0  0  0
  153.8753  136.0907  163.5506 C   0  0  0  0  0  0  0  0  0  0  0  0
  153.5606  134.9625  164.3326 C   0  0  0  0  0  0  0  0  0  0  0  0
  153.8109  133.6696  163.8375 C   0  0  0  0  0  0  0  0  0  0  0  0
  153.3877  132.1445  164.8943 Br  0  0  0  0  0  0  0  0  0  0  0  0
  154.3757  133.5071  162.5592 C   0  0  0  0  0  0  0  0  0  0  0  0
  154.6891  134.6346  161.7751 C   0  0  0  0  0  0  0  0  0  0  0  0
  153.3820  138.3238  162.6937 H   0  0  0  0  0  0  0  0  0  0  0  0
  154.8255  139.1903  162.2679 H   0  0  0  0  0  0  0  0  0  0  0  0
  151.4778  140.8848  157.9615 H   0  0  0  0  0  0  0  0  0  0  0  0
  154.0950  142.7512  158.8852 H   0  0  0  0  0  0  0  0  0  0  0  0
  152.4731  142.9276  161.3283 H   0  0  0  0  0  0  0  0  0  0  0  0
  153.6414  144.0902  160.6853 H   0  0  0  0  0  0  0  0  0  0  0  0
  150.6649  143.9822  160.2236 H   0  0  0  0  0  0  0  0  0  0  0  0
  151.6926  145.4135  160.3124 H   0  0  0  0  0  0  0  0  0  0  0  0
  150.8850  144.5571  157.8809 H   0  0  0  0  0  0  0  0  0  0  0  0
  152.5923  144.9810  158.0805 H   0  0  0  0  0  0  0  0  0  0  0  0
  153.6736  137.0731  163.9531 H   0  0  0  0  0  0  0  0  0  0  0  0
  153.1271  135.0909  165.3135 H   0  0  0  0  0  0  0  0  0  0  0  0
  154.5703  132.5156  162.1776 H   0  0  0  0  0  0  0  0  0  0  0  0
  155.1239  134.4689  160.8010 H   0  0  0  0  0  0  0  0  0  0  0  0
  1  2  2  0  0  0  0
  2  3  1  0  0  0  0
  2 18  1  0  0  0  0
  3  4  1  0  0  0  0
  3 25  1  0  0  0  0
  3 26  1  0  0  0  0
  4 16  1  0  0  0  0
  4  5  1  0  0  0  0
  5  6  2  0  0  0  0
  5  7  1  0  0  0  0
  7  8  1  0  0  0  0
  7  9  2  0  0  0  0
  9 10  1  0  0  0  0
  9 27  1  0  0  0  0
 10 11  1  0  0  0  0
 10 16  1  0  0  0  0
 11 15  1  0  0  0  0
 11 12  1  0  0  0  0
 11 28  1  0  0  0  0
 12 13  1  0  0  0  0
 12 29  1  0  0  0  0
 12 30  1  0  0  0  0
 13 14  1  0  0  0  0
 13 31  1  0  0  0  0
 13 32  1  0  0  0  0
 14 15  1  0  0  0  0
 14 33  1  0  0  0  0
 14 34  1  0  0  0  0
 16 17  2  0  0  0  0
 18 24  1  0  0  0  0
 18 19  2  0  0  0  0
 19 20  1  0  0  0  0
 19 35  1  0  0  0  0
 20 21  2  0  0  0  0
 20 36  1  0  0  0  0
 21 22  1  0  0  0  0
 21 23  1  0  0  0  0
 23 24  2  0  0  0  0
 23 37  1  0  0  0  0
 24 38  1  0  0  0  0
M  END
> <s_m_source_file>
AV-unprocessed.smi

> <i_m_source_file_index>
143

> <i_lp_mmshare_version>
43012

> <i_f3d_flags>
0

> <s_epik_input>
W2NIXTFbY0hdYyhCcilbY0hdW2NIXWMxQyg9TylbQ0gyXW4yYyg9TyljKEYpW2NIXW4oYzI9TylbQ0BASF0zW0NIMl1bQ0gyXVtDSDJdTzM=

> <s_epik_cmdline>
J2VwaWtfcHl0aG9uJywgJy1waCcsICc3LjAnLCAnLXRuJywgJzgnLCAnLW1hJywgJzIwMCcsICctbWV0YWxfYmluZGluZycsICctaW1hZScsICc8aW5maWxlLm1hZT4nLCAnLW9tYWUnLCAnPG91dGZpbGUubWFlPic=

> <r_lp_tautomer_probability>
1

> <r_epik_Ionization_Penalty>
4.7008e-09

> <r_epik_Ionization_Penalty_Charging>
4.69459e-09

> <r_epik_Ionization_Penalty_Neutral>
6.21034e-12

> <r_epik_State_Penalty>
-0

> <r_epik_Charging_Adjusted_Penalty>
4.69459e-09

> <i_epik_Tot_Q>
0

> <i_epik_Tot_abs_Q>
0

> <r_epik_Metal_State_Penalty>
-0

> <b_epik_Metal_Only>
0

> <s_epik_Chemistry_Notes>
This compound contains an acetal/aminal-like group ( X-CH(R)-Y where X, Y are N, S, or O) that may be acid/base labile, releasing an aldehyde.

> <s_lp_Force_Field>
OPLS_2005

> <r_lp_Energy>
36.1645

> <b_lp_Chiralities_Consistent>
1

> <s_lp_Variant>
AV-unprocessed.smi:143-1

> <Gold.Version>
5.8.1

> <Gold.Id.Protein>
6NUR|6NUR_protein|mol2

> <Gold.PLP.Fitness>
46.9302

> <Gold.PLP.PLP>
-45.5391

> <Gold.PLP.part.hbond>
-1.5393

> <Gold.PLP.part.metal>
0.0000

> <Gold.PLP.part.buried>
-5.6073

> <Gold.PLP.part.nonpolar>
-39.3619

> <Gold.PLP.part.repulsive>
0.0212

> <Gold.PLP.ligand.clash>
0.0402

> <Gold.PLP.ligand.torsion>
0.3233

> <Gold.PLP.Chemscore.Hbond>
0.6825

> <Gold.PLP.Chemscore.CHOScore>
0.0000

> <Gold.PLP.Chemscore.Metal>
0.0000

> <Gold.Chemscore.Hbonds>
donor molecule, donor type, donor heavy atom, donor atom, acceptor molecule, acceptor atom, score
      P1  H  6896  6907       L1     6  0.83

> <Gold.PLP.Chemscore.Internal.Correction>
0.0304

> <Gold.Rescore>
     Score         DG    S(hbond)    S(metal)    S(lipo)     H(rot)  DE(clash)    DE(int)     intcor
     13.55     -16.10       1.00        0.00      96.74       1.58       0.02       2.53       ----

> <Gold.Chemscore.Fitness>
13.5543

> <Gold.Chemscore.DG>
-16.1032

> <Gold.Chemscore.ZeroCoef>
-5.4800

> <Gold.Chemscore.Hbond>
1.0000

> <Gold.Chemscore.Metal>
0.0000

> <Gold.Chemscore.Lipo>
96.7444

> <Gold.Chemscore.Internal_Hbond>
0.0000

> <Gold.Chemscore.DEClash>
0.0186

> <Gold.Chemscore.DEInternal>
2.5303

> <Gold.Chemscore.Rot>
1.5765

> <Gold.Chemscore.Internal.Correction>
   9.000000E+99

> <Gold.Chemscore.Hbonds>
donor molecule, donor type, donor heavy atom, donor atom, acceptor molecule, acceptor atom, score
      P1  H  6896  6907       L1     6  0.82

> <Gold.Chemscore.Hbond.Weighted>
-3.3400

> <Gold.Chemscore.Metal.Weighted>
-0.0000

> <Gold.Chemscore.Lipo.Weighted>
-11.3191

> <Gold.Chemscore.Internal_Hbond.Weighted>
0.0000

> <Gold.Chemscore.DEClash.Weighted>
0.0186

> <Gold.Chemscore.DEInternal.Weighted>
2.5303

> <Gold.Chemscore.Rot.Weighted>
4.0359

> <Gold.Chemscore.Internal.Correction.Weighted>
   9.000000E+99

> <Gold.Protein.RotatedTorsions>
[ 6907 6896 6895 6894 ] final   21.51 input  -60.11 | X-H torsion
[ 7974 7965 7964 7962 ] final  141.67 input  175.53 | X-H torsion
[ 8008 7997 7996 7995 ] final   64.14 input   59.86 | X-H torsion
[ 10167 10162 10161 10158 ] final -136.29 input  -65.29 | X-H torsion
[ 10718 10713 10712 10709 ] final  120.24 input   66.30 | X-H torsion
[ 10763 10752 10751 10750 ] final -168.04 input  -60.55 | X-H torsion
[ 11005 11000 10999 10996 ] final  -21.99 input  -57.11 | X-H torsion

> <Gold.Protein.ActiveResidues>
 VAL166  LYS551  ARG553  GLY616  TRP617  ASP618  TYR619  PRO620  LYS621  CYS622 
 ASP623  PHE694  ASN695  SER759  ASP760  ASP761  ALA762  ILE779  LEU786  VAL792 
 PHE793  MET794  SER795  GLU796  ALA797  LYS798  CYS799  TRP800  GLU811  SER814 

> <Gold.Protein.RotatedAtoms>
  151.9129  135.0331  160.0515 H   0  0  0  0  0  0  0  0  0  0  0  0  # atno 6907 bound_to 6896
  152.2264  133.5019  159.5200 H   0  0  0  0  0  0  0  0  0  0  0  0  # atno 6908 bound_to 6896
  150.7013  134.1191  159.4070 H   0  0  0  0  0  0  0  0  0  0  0  0  # atno 6909 bound_to 6896
  144.9075  139.5338  143.5724 H   0  0  0  0  0  0  0  0  0  0  0  0  # atno 7974 bound_to 7965
  155.6413  140.3497  155.4716 H   0  0  0  0  0  0  0  0  0  0  0  0  # atno 8008 bound_to 7997
  155.9923  140.1196  157.0650 H   0  0  0  0  0  0  0  0  0  0  0  0  # atno 8009 bound_to 7997
  154.4223  140.1117  156.5569 H   0  0  0  0  0  0  0  0  0  0  0  0  # atno 8010 bound_to 7997
  139.8693  143.6978  152.2641 H   0  0  0  0  0  0  0  0  0  0  0  0  # atno 10167 bound_to 10162
  157.5905  131.1065  150.8007 H   0  0  0  0  0  0  0  0  0  0  0  0  # atno 10718 bound_to 10713
  154.6670  135.2933  154.9792 H   0  0  0  0  0  0  0  0  0  0  0  0  # atno 10763 bound_to 10752
  154.0832  135.6601  153.4845 H   0  0  0  0  0  0  0  0  0  0  0  0  # atno 10764 bound_to 10752
  153.0463  135.5202  154.7648 H   0  0  0  0  0  0  0  0  0  0  0  0  # atno 10765 bound_to 10752
  140.8614  133.7785  156.0079 H   0  0  0  0  0  0  0  0  0  0  0  0  # atno 11005 bound_to 11000
  146.3141  139.7855  142.8997 LP  0  0  0  0  0  0  0  0  0  0  0  0  # atno 17320 bound_to 7965
  145.3510  141.0307  143.3338 LP  0  0  0  0  0  0  0  0  0  0  0  0  # atno 17321 bound_to 7965
  139.7299  144.7584  151.0818 LP  0  0  0  0  0  0  0  0  0  0  0  0  # atno 17342 bound_to 10162
  140.7763  143.5101  150.9663 LP  0  0  0  0  0  0  0  0  0  0  0  0  # atno 17343 bound_to 10162
  156.8431  130.5054  149.5319 LP  0  0  0  0  0  0  0  0  0  0  0  0  # atno 17370 bound_to 10713
  156.0959  130.5932  150.9813 LP  0  0  0  0  0  0  0  0  0  0  0  0  # atno 17371 bound_to 10713
  140.8678  134.2763  157.5205 LP  0  0  0  0  0  0  0  0  0  0  0  0  # atno 17394 bound_to 11000
  139.8707  134.9551  156.4198 LP  0  0  0  0  0  0  0  0  0  0  0  0  # atno 17395 bound_to 11000

$$$$
