AV-unprocessed.smi:1046|AV-procd|sdf|4548|dock2
  -GOLD-   22720 2573D 1   1.00000     0.00000
 Structure written by MMmdl.
 53 55  0  0  0  0  0  0  0  0  2 V2000
  153.0274  142.5219  161.6704 C   0  0  0  0  0  0  0  0  0  0  0  0
  152.4773  142.2639  160.2787 C   0  0  0  0  0  0  0  0  0  0  0  0
  152.8855  141.1035  159.5834 C   0  0  0  0  0  0  0  0  0  0  0  0
  152.3990  140.8277  158.2870 C   0  0  0  0  0  0  0  0  0  0  0  0
  152.6624  139.7692  157.4346 N   0  0  0  0  0  0  0  0  0  0  0  0
  151.9136  140.0804  156.3812 C   0  0  0  0  0  0  0  0  0  0  0  0
  151.1953  141.2178  156.4492 N   0  0  0  0  0  0  0  0  0  0  0  0
  150.3169  141.7560  155.4261 C   0  0  0  0  0  0  0  0  0  0  0  0
  149.3289  140.7037  154.8875 C   0  0  2  0  0  0  0  0  0  0  0  0
  150.0067  139.8299  154.0042 O   0  0  0  0  0  0  0  0  0  0  0  0
  148.1508  141.3556  154.1372 C   0  0  0  0  0  0  0  0  0  0  0  0
  147.1759  142.0039  155.0514 N   0  3  0  0  0  0  0  0  0  0  0  0
  146.8778  141.1705  156.2447 C   0  0  0  0  0  0  0  0  0  0  0  0
  145.9228  141.9176  157.1985 C   0  0  0  0  0  0  0  0  0  0  0  0
  144.6701  142.3232  156.5615 N   0  0  0  0  0  0  0  0  0  0  0  0
  143.7773  141.1912  156.2930 C   0  0  0  0  0  0  0  0  0  0  0  0
  142.3585  141.5777  155.8456 C   0  0  0  0  0  0  0  0  0  0  0  0
  142.0393  140.8898  154.6562 O   0  0  0  0  0  0  0  0  0  0  0  0
  144.9887  143.1392  155.3873 C   0  0  0  0  0  0  0  0  0  0  0  0
  145.9170  142.4280  154.3816 C   0  0  0  0  0  0  0  0  0  0  0  0
  151.4842  141.7510  157.7009 C   0  0  0  0  0  0  0  0  0  0  0  0
  151.0697  142.9084  158.3833 C   0  0  0  0  0  0  0  0  0  0  0  0
  151.5662  143.1692  159.6777 C   0  0  0  0  0  0  0  0  0  0  0  0
  151.1142  144.4221  160.4063 C   0  0  0  0  0  0  0  0  0  0  0  0
  153.7380  141.7500  161.9671 H   0  0  0  0  0  0  0  0  0  0  0  0
  152.2207  142.5341  162.4034 H   0  0  0  0  0  0  0  0  0  0  0  0
  153.5431  143.4817  161.7065 H   0  0  0  0  0  0  0  0  0  0  0  0
  153.5789  140.4133  160.0410 H   0  0  0  0  0  0  0  0  0  0  0  0
  151.8874  139.4465  155.5070 H   0  0  0  0  0  0  0  0  0  0  0  0
  149.7718  142.5967  155.8573 H   0  0  0  0  0  0  0  0  0  0  0  0
  150.9262  142.1635  154.6182 H   0  0  0  0  0  0  0  0  0  0  0  0
  148.9634  140.1164  155.7291 H   0  0  0  0  0  0  0  0  0  0  0  0
  149.5805  139.8584  153.1609 H   0  0  0  0  0  0  0  0  0  0  0  0
  148.5141  142.0947  153.4213 H   0  0  0  0  0  0  0  0  0  0  0  0
  147.6475  140.5866  153.5486 H   0  0  0  0  0  0  0  0  0  0  0  0
  146.4524  140.2151  155.9349 H   0  0  0  0  0  0  0  0  0  0  0  0
  147.8051  140.9447  156.7723 H   0  0  0  0  0  0  0  0  0  0  0  0
  145.7120  141.2986  158.0712 H   0  0  0  0  0  0  0  0  0  0  0  0
  146.4298  142.8043  157.5812 H   0  0  0  0  0  0  0  0  0  0  0  0
  144.2174  140.5217  155.5545 H   0  0  0  0  0  0  0  0  0  0  0  0
  143.6836  140.6021  157.2062 H   0  0  0  0  0  0  0  0  0  0  0  0
  141.6280  141.3196  156.6129 H   0  0  0  0  0  0  0  0  0  0  0  0
  142.2745  142.6472  155.6547 H   0  0  0  0  0  0  0  0  0  0  0  0
  142.2585  141.4420  153.9210 H   0  0  0  0  0  0  0  0  0  0  0  0
  144.0768  143.4637  154.8879 H   0  0  0  0  0  0  0  0  0  0  0  0
  145.4752  144.0571  155.7198 H   0  0  0  0  0  0  0  0  0  0  0  0
  146.1364  143.1144  153.5651 H   0  0  0  0  0  0  0  0  0  0  0  0
  145.4197  141.5652  153.9368 H   0  0  0  0  0  0  0  0  0  0  0  0
  150.3763  143.5905  157.9148 H   0  0  0  0  0  0  0  0  0  0  0  0
  150.4027  144.9945  159.8103 H   0  0  0  0  0  0  0  0  0  0  0  0
  151.9667  145.0669  160.6203 H   0  0  0  0  0  0  0  0  0  0  0  0
  150.6292  144.1635  161.3479 H   0  0  0  0  0  0  0  0  0  0  0  0
  147.6218  142.8415  155.3985 H   0  0  0  0  0  0  0  0  0  0  0  0
  1  2  1  0  0  0  0
  1 25  1  0  0  0  0
  1 26  1  0  0  0  0
  1 27  1  0  0  0  0
  2 23  1  0  0  0  0
  2  3  2  0  0  0  0
  3  4  1  0  0  0  0
  3 28  1  0  0  0  0
  4 21  2  0  0  0  0
  4  5  1  0  0  0  0
  5  6  2  0  0  0  0
  6  7  1  0  0  0  0
  6 29  1  0  0  0  0
  7  8  1  0  0  0  0
  7 21  1  0  0  0  0
  8  9  1  0  0  0  0
  8 30  1  0  0  0  0
  8 31  1  0  0  0  0
  9 10  1  0  0  0  0
  9 11  1  0  0  0  0
  9 32  1  0  0  0  0
 10 33  1  0  0  0  0
 11 12  1  0  0  0  0
 11 34  1  0  0  0  0
 11 35  1  0  0  0  0
 12 20  1  0  0  0  0
 12 13  1  0  0  0  0
 12 53  1  0  0  0  0
 13 14  1  0  0  0  0
 13 36  1  0  0  0  0
 13 37  1  0  0  0  0
 14 15  1  0  0  0  0
 14 38  1  0  0  0  0
 14 39  1  0  0  0  0
 15 16  1  0  0  0  0
 15 19  1  0  0  0  0
 16 17  1  0  0  0  0
 16 40  1  0  0  0  0
 16 41  1  0  0  0  0
 17 18  1  0  0  0  0
 17 42  1  0  0  0  0
 17 43  1  0  0  0  0
 18 44  1  0  0  0  0
 19 20  1  0  0  0  0
 19 45  1  0  0  0  0
 19 46  1  0  0  0  0
 20 47  1  0  0  0  0
 20 48  1  0  0  0  0
 21 22  1  0  0  0  0
 22 23  2  0  0  0  0
 22 49  1  0  0  0  0
 23 24  1  0  0  0  0
 24 50  1  0  0  0  0
 24 51  1  0  0  0  0
 24 52  1  0  0  0  0
M  CHG  1  12   1
M  END
> <s_m_source_file>
AV-unprocessed.smi

> <i_m_source_file_index>
1046

> <i_lp_mmshare_version>
43012

> <i_f3d_flags>
0

> <s_epik_input>
W0NIM11jKFtjSF0xKWMoW0NIM10pW2NIXWMoYzEyKW4oW2NIXW4yKVtDSDJdW0NASF0oW09IXSlbQ0gyXU4zW0NIMl1bQ0gyXU4oW0NIMl1bQ0gyXTMpW0NIMl1bQ0gyXVtPSF0=

> <s_epik_cmdline>
J2VwaWtfcHl0aG9uJywgJy1waCcsICc3LjAnLCAnLXRuJywgJzgnLCAnLW1hJywgJzIwMCcsICctbWV0YWxfYmluZGluZycsICctaW1hZScsICc8aW5maWxlLm1hZT4nLCAnLW9tYWUnLCAnPG91dGZpbGUubWFlPic=

> <r_epik_Ionization_Penalty>
0.131947

> <r_epik_Ionization_Penalty_Charging>
0.00213896

> <r_epik_Ionization_Penalty_Neutral>
0.129808

> <r_epik_State_Penalty>
0.319681

> <r_epik_Charging_Adjusted_Penalty>
0.32182

> <i_epik_Tot_Q>
1

> <i_epik_Tot_abs_Q>
1

> <r_epik_Metal_State_Penalty>
0.225417

> <b_epik_Metal_Only>
0

> <s_lp_Force_Field>
OPLS_2005

> <r_lp_Energy>
31.2013

> <b_lp_Chiralities_Consistent>
1

> <s_lp_Variant>
AV-unprocessed.smi:1046-1

> <Gold.Version>
5.8.1

> <Gold.Id.Protein>
6NUR|6NUR_protein|mol2

> <Gold.PLP.Fitness>
64.0428

> <Gold.PLP.PLP>
-48.0764

> <Gold.PLP.part.hbond>
-6.0000

> <Gold.PLP.part.metal>
0.0000

> <Gold.PLP.part.buried>
-4.6304

> <Gold.PLP.part.nonpolar>
-35.8501

> <Gold.PLP.part.repulsive>
0.1665

> <Gold.PLP.ligand.clash>
0.0000

> <Gold.PLP.ligand.torsion>
0.8253

> <Gold.PLP.Chemscore.Hbond>
5.7760

> <Gold.PLP.Chemscore.CHOScore>
0.0000

> <Gold.PLP.Chemscore.Metal>
0.0000

> <Gold.Chemscore.Hbonds>
donor molecule, donor type, donor heavy atom, donor atom, acceptor molecule, acceptor atom, score
      L1  H    10    33       P1  7957  1.00
      L1  H    12    53       P1  8028  0.91
      L1  H    18    44       P1 10174  0.35
      P1  H  7989  7998       L1    10  0.77
      P1  H  7997  8008       L1     5  0.80

> <Gold.PLP.Chemscore.Internal.Correction>
0.2890

> <Gold.Rescore>
     Score         DG    S(hbond)    S(metal)    S(lipo)     H(rot)  DE(clash)    DE(int)     intcor
     16.88     -19.40       2.55        0.00     116.38       3.21       1.78       0.74       ----

> <Gold.Chemscore.Fitness>
16.8788

> <Gold.Chemscore.DG>
-19.3966

> <Gold.Chemscore.ZeroCoef>
-5.4800

> <Gold.Chemscore.Hbond>
2.5471

> <Gold.Chemscore.Metal>
0.0000

> <Gold.Chemscore.Lipo>
116.3758

> <Gold.Chemscore.Internal_Hbond>
0.0000

> <Gold.Chemscore.DEClash>
1.7819

> <Gold.Chemscore.DEInternal>
0.7359

> <Gold.Chemscore.Rot>
3.2058

> <Gold.Chemscore.Internal.Correction>
   9.000000E+99

> <Gold.Chemscore.Hbonds>
donor molecule, donor type, donor heavy atom, donor atom, acceptor molecule, acceptor atom, score
      L1  H    10    33       P1  7957  0.92
      L1  H    12    53       P1  8028  0.25
      L1  H    18    44       P1 10174  0.01
      P1  H  7989  7998       L1    10  0.04
      P1  H  7997  8008       L1     5  0.08

> <Gold.Chemscore.Hbond.Weighted>
-8.5074

> <Gold.Chemscore.Metal.Weighted>
-0.0000

> <Gold.Chemscore.Lipo.Weighted>
-13.6160

> <Gold.Chemscore.Internal_Hbond.Weighted>
0.0000

> <Gold.Chemscore.DEClash.Weighted>
1.7819

> <Gold.Chemscore.DEInternal.Weighted>
0.7359

> <Gold.Chemscore.Rot.Weighted>
8.2067

> <Gold.Chemscore.Internal.Correction.Weighted>
   9.000000E+99

> <Gold.Protein.RotatedTorsions>
[ 6907 6896 6895 6894 ] final  116.20 input  -60.11 | X-H torsion
[ 7974 7965 7964 7962 ] final -119.86 input  175.53 | X-H torsion
[ 8008 7997 7996 7995 ] final  -55.59 input   59.86 | X-H torsion
[ 10167 10162 10161 10158 ] final  -56.62 input  -65.29 | X-H torsion
[ 10718 10713 10712 10709 ] final   50.22 input   66.30 | X-H torsion
[ 10763 10752 10751 10750 ] final -147.62 input  -60.55 | X-H torsion
[ 11005 11000 10999 10996 ] final  155.74 input  -57.11 | X-H torsion

> <Gold.Protein.ActiveResidues>
 VAL166  LYS551  ARG553  GLY616  TRP617  ASP618  TYR619  PRO620  LYS621  CYS622 
 ASP623  PHE694  ASN695  SER759  ASP760  ASP761  ALA762  ILE779  LEU786  VAL792 
 PHE793  MET794  SER795  GLU796  ALA797  LYS798  CYS799  TRP800  GLU811  SER814 

> <Gold.Protein.RotatedAtoms>
  152.4693  133.7993  159.6943 H   0  0  0  0  0  0  0  0  0  0  0  0  # atno 6907 bound_to 6896
  150.8673  133.7546  159.2979 H   0  0  0  0  0  0  0  0  0  0  0  0  # atno 6908 bound_to 6896
  151.5092  135.1067  159.9901 H   0  0  0  0  0  0  0  0  0  0  0  0  # atno 6909 bound_to 6896
  145.0578  140.8267  143.4170 H   0  0  0  0  0  0  0  0  0  0  0  0  # atno 7974 bound_to 7965
  154.4200  140.1149  156.5502 H   0  0  0  0  0  0  0  0  0  0  0  0  # atno 8008 bound_to 7997
  155.6418  140.3496  155.4698 H   0  0  0  0  0  0  0  0  0  0  0  0  # atno 8009 bound_to 7997
  155.9864  140.1170  157.0668 H   0  0  0  0  0  0  0  0  0  0  0  0  # atno 8010 bound_to 7997
  140.6306  143.2458  151.5249 H   0  0  0  0  0  0  0  0  0  0  0  0  # atno 10167 bound_to 10162
  157.4863  130.8347  149.8151 H   0  0  0  0  0  0  0  0  0  0  0  0  # atno 10718 bound_to 10713
  154.8276  135.3355  154.6846 H   0  0  0  0  0  0  0  0  0  0  0  0  # atno 10763 bound_to 10752
  153.7470  135.6942  153.4958 H   0  0  0  0  0  0  0  0  0  0  0  0  # atno 10764 bound_to 10752
  153.2203  135.4451  155.0432 H   0  0  0  0  0  0  0  0  0  0  0  0  # atno 10765 bound_to 10752
  140.1610  134.8609  157.2574 H   0  0  0  0  0  0  0  0  0  0  0  0  # atno 11005 bound_to 11000
  145.1447  139.2551  143.5472 LP  0  0  0  0  0  0  0  0  0  0  0  0  # atno 17320 bound_to 7965
  146.3522  140.1133  142.8603 LP  0  0  0  0  0  0  0  0  0  0  0  0  # atno 17321 bound_to 7965
  139.5521  144.2369  152.1549 LP  0  0  0  0  0  0  0  0  0  0  0  0  # atno 17342 bound_to 10162
  140.1611  144.5024  150.6632 LP  0  0  0  0  0  0  0  0  0  0  0  0  # atno 17343 bound_to 10162
  156.0149  130.3818  150.2144 LP  0  0  0  0  0  0  0  0  0  0  0  0  # atno 17370 bound_to 10713
  157.0331  131.0013  151.3306 LP  0  0  0  0  0  0  0  0  0  0  0  0  # atno 17371 bound_to 10713
  140.2490  134.3705  155.7450 LP  0  0  0  0  0  0  0  0  0  0  0  0  # atno 17394 bound_to 11000
  141.2209  133.7306  156.8906 LP  0  0  0  0  0  0  0  0  0  0  0  0  # atno 17395 bound_to 11000

$$$$
