AV-unprocessed.smi:2136|AV-procd|sdf|8702|dock10
  -GOLD-   2272011463D 1   1.00000     0.00000
 Structure written by MMmdl.
 42 43  0  0  0  0  0  0  0  0  1 V2000
  147.7359  136.5089  163.4193 C   0  0  0  0  0  0  0  0  0  0  0  0
  147.3436  136.5405  161.6207 S   0  0  0  0  0  0  0  0  0  0  0  0
  146.1549  137.3782  161.3995 O   0  0  0  0  0  0  0  0  0  0  0  0
  148.5945  136.8653  160.9179 O   0  0  0  0  0  0  0  0  0  0  0  0
  146.9358  134.8755  161.2622 N   0  0  0  0  0  0  0  0  0  0  0  0
  146.3821  134.0836  162.3873 C   0  0  0  0  0  0  0  0  0  0  0  0
  145.6820  132.7949  161.9372 C   0  0  0  0  0  0  0  0  0  0  0  0
  146.5959  131.9568  161.0509 C   0  0  0  0  0  0  0  0  0  0  0  0
  146.9798  132.7980  159.8370 C   0  0  0  0  0  0  0  0  0  0  0  0
  147.7073  134.1053  160.2352 C   0  0  1  0  0  0  0  0  0  0  0  0
  148.0650  134.8694  158.9481 C   0  0  0  0  0  0  0  0  0  0  0  0
  149.0653  134.5616  158.2988 O   0  0  0  0  0  0  0  0  0  0  0  0
  147.2363  135.8622  158.5887 N   0  0  0  0  0  0  0  0  0  0  0  0
  147.3696  136.6746  157.3864 C   0  0  0  0  0  0  0  0  0  0  0  0
  148.7652  137.3122  157.2923 C   0  0  0  0  0  0  0  0  0  0  0  0
  148.8610  138.3099  156.1552 C   0  0  0  0  0  0  0  0  0  0  0  0
  147.7125  138.7139  155.4437 C   0  0  0  0  0  0  0  0  0  0  0  0
  147.8558  139.6485  154.3999 C   0  0  0  0  0  0  0  0  0  0  0  0
  149.1449  140.1398  154.1115 C   0  0  0  0  0  0  0  0  0  0  0  0
  150.2516  139.7585  154.7855 N   0  0  0  0  0  0  0  0  0  0  0  0
  150.1055  138.8623  155.7849 C   0  0  0  0  0  0  0  0  0  0  0  0
  148.1340  137.4789  163.7159 H   0  0  0  0  0  0  0  0  0  0  0  0
  148.4818  135.7391  163.6152 H   0  0  0  0  0  0  0  0  0  0  0  0
  146.8417  136.3049  164.0026 H   0  0  0  0  0  0  0  0  0  0  0  0
  147.1929  133.8486  163.0780 H   0  0  0  0  0  0  0  0  0  0  0  0
  145.6589  134.6828  162.9396 H   0  0  0  0  0  0  0  0  0  0  0  0
  145.3779  132.2169  162.8104 H   0  0  0  0  0  0  0  0  0  0  0  0
  144.7669  133.0419  161.3972 H   0  0  0  0  0  0  0  0  0  0  0  0
  147.4869  131.6506  161.6003 H   0  0  0  0  0  0  0  0  0  0  0  0
  146.0858  131.0463  160.7351 H   0  0  0  0  0  0  0  0  0  0  0  0
  147.6137  132.2037  159.1771 H   0  0  0  0  0  0  0  0  0  0  0  0
  146.0763  133.0246  159.2678 H   0  0  0  0  0  0  0  0  0  0  0  0
  148.6464  133.8174  160.7114 H   0  0  0  0  0  0  0  0  0  0  0  0
  146.4360  136.0463  159.1765 H   0  0  0  0  0  0  0  0  0  0  0  0
  147.1975  136.0305  156.5237 H   0  0  0  0  0  0  0  0  0  0  0  0
  146.5929  137.4408  157.3629 H   0  0  0  0  0  0  0  0  0  0  0  0
  149.0108  137.8247  158.2228 H   0  0  0  0  0  0  0  0  0  0  0  0
  149.5232  136.5390  157.1582 H   0  0  0  0  0  0  0  0  0  0  0  0
  146.7389  138.3173  155.6920 H   0  0  0  0  0  0  0  0  0  0  0  0
  146.9988  139.9820  153.8337 H   0  0  0  0  0  0  0  0  0  0  0  0
  149.2911  140.8574  153.3178 H   0  0  0  0  0  0  0  0  0  0  0  0
  151.0079  138.5799  156.3068 H   0  0  0  0  0  0  0  0  0  0  0  0
  1  2  1  0  0  0  0
  1 22  1  0  0  0  0
  1 23  1  0  0  0  0
  1 24  1  0  0  0  0
  2  3  2  0  0  0  0
  2  4  2  0  0  0  0
  2  5  1  0  0  0  0
  5 10  1  0  0  0  0
  5  6  1  0  0  0  0
  6  7  1  0  0  0  0
  6 25  1  0  0  0  0
  6 26  1  0  0  0  0
  7  8  1  0  0  0  0
  7 27  1  0  0  0  0
  7 28  1  0  0  0  0
  8  9  1  0  0  0  0
  8 29  1  0  0  0  0
  8 30  1  0  0  0  0
  9 10  1  0  0  0  0
  9 31  1  0  0  0  0
  9 32  1  0  0  0  0
 10 11  1  0  0  0  0
 10 33  1  0  0  0  0
 11 12  2  0  0  0  0
 11 13  1  0  0  0  0
 13 14  1  0  0  0  0
 13 34  1  0  0  0  0
 14 15  1  0  0  0  0
 14 35  1  0  0  0  0
 14 36  1  0  0  0  0
 15 16  1  0  0  0  0
 15 37  1  0  0  0  0
 15 38  1  0  0  0  0
 16 21  1  0  0  0  0
 16 17  2  0  0  0  0
 17 18  1  0  0  0  0
 17 39  1  0  0  0  0
 18 19  2  0  0  0  0
 18 40  1  0  0  0  0
 19 20  1  0  0  0  0
 19 41  1  0  0  0  0
 20 21  2  0  0  0  0
 21 42  1  0  0  0  0
M  END
> <s_m_source_file>
AV-unprocessed.smi

> <i_m_source_file_index>
2136

> <i_lp_mmshare_version>
43012

> <i_f3d_flags>
0

> <s_epik_input>
W0NIM11TKD1PKSg9TylOMVtDSDJdW0NIMl1bQ0gyXVtDSDJdW0NASF0xQyg9TylbTkhdW0NIMl1bQ0gyXWMyW2NIXVtjSF1bY0hdbltjSF0y

> <s_epik_cmdline>
J2VwaWtfcHl0aG9uJywgJy1waCcsICc3LjAnLCAnLXRuJywgJzgnLCAnLW1hJywgJzIwMCcsICctbWV0YWxfYmluZGluZycsICctaW1hZScsICc8aW5maWxlLm1hZT4nLCAnLW9tYWUnLCAnPG91dGZpbGUubWFlPic=

> <r_epik_Ionization_Penalty>
0.0126915

> <r_epik_Ionization_Penalty_Charging>
0

> <r_epik_Ionization_Penalty_Neutral>
0.0126915

> <r_epik_State_Penalty>
0.0098379

> <r_epik_Charging_Adjusted_Penalty>
0.0098379

> <i_epik_Tot_Q>
0

> <i_epik_Tot_abs_Q>
0

> <r_epik_Metal_State_Penalty>
0.00962913

> <b_epik_Metal_Only>
0

> <s_lp_Force_Field>
OPLS_2005

> <r_lp_Energy>
4.41633

> <b_lp_Chiralities_Consistent>
1

> <s_lp_Variant>
AV-unprocessed.smi:2136-1

> <Gold.Version>
5.8.1

> <Gold.Id.Protein>
6NUR|6NUR_protein|mol2

> <Gold.PLP.Fitness>
36.7878

> <Gold.PLP.PLP>
-26.7775

> <Gold.PLP.part.hbond>
-4.2736

> <Gold.PLP.part.metal>
0.0000

> <Gold.PLP.part.buried>
-1.3728

> <Gold.PLP.part.nonpolar>
-22.1076

> <Gold.PLP.part.repulsive>
0.1008

> <Gold.PLP.ligand.clash>
0.0000

> <Gold.PLP.ligand.torsion>
1.9368

> <Gold.PLP.Chemscore.Hbond>
3.1510

> <Gold.PLP.Chemscore.CHOScore>
0.7779

> <Gold.PLP.Chemscore.Metal>
0.0000

> <Gold.Chemscore.Hbonds>
donor molecule, donor type, donor heavy atom, donor atom, acceptor molecule, acceptor atom, score
      P1  H  6896  6909       L1    12  1.00
      P1  H  6931  6943       L1     4  0.90
      P1  H  6934  6947       L1     3  0.80
      P1  H  7989  7998       L1    20  0.42
      L1  C    19    41       P1  7957  0.77

> <Gold.PLP.Chemscore.Internal.Correction>
2.0972

> <Gold.Rescore>
     Score         DG    S(hbond)    S(metal)    S(lipo)     H(rot)  DE(clash)    DE(int)     intcor
      9.61     -14.48       1.82        0.00      59.33       1.56       0.42       4.44       ----

> <Gold.Chemscore.Fitness>
9.6144

> <Gold.Chemscore.DG>
-14.4793

> <Gold.Chemscore.ZeroCoef>
-5.4800

> <Gold.Chemscore.Hbond>
1.8152

> <Gold.Chemscore.Metal>
0.0000

> <Gold.Chemscore.Lipo>
59.3252

> <Gold.Chemscore.Internal_Hbond>
0.0000

> <Gold.Chemscore.DEClash>
0.4212

> <Gold.Chemscore.DEInternal>
4.4437

> <Gold.Chemscore.Rot>
1.5643

> <Gold.Chemscore.Internal.Correction>
   9.000000E+99

> <Gold.Chemscore.Hbonds>
donor molecule, donor type, donor heavy atom, donor atom, acceptor molecule, acceptor atom, score
      P1  H  6896  6909       L1    12  0.81
      P1  H  6931  6943       L1     4  0.17
      P1  H  6934  6947       L1     3  0.11
      P1  H  7989  7998       L1    20  0.04

> <Gold.Chemscore.Hbond.Weighted>
-6.0629

> <Gold.Chemscore.Metal.Weighted>
-0.0000

> <Gold.Chemscore.Lipo.Weighted>
-6.9410

> <Gold.Chemscore.Internal_Hbond.Weighted>
0.0000

> <Gold.Chemscore.DEClash.Weighted>
0.4212

> <Gold.Chemscore.DEInternal.Weighted>
4.4437

> <Gold.Chemscore.Rot.Weighted>
4.0046

> <Gold.Chemscore.Internal.Correction.Weighted>
   9.000000E+99

> <Gold.Protein.RotatedTorsions>
[ 6907 6896 6895 6894 ] final   33.54 input  -60.11 | X-H torsion
[ 7974 7965 7964 7962 ] final  135.30 input  175.53 | X-H torsion
[ 8008 7997 7996 7995 ] final  -33.01 input   59.86 | X-H torsion
[ 10167 10162 10161 10158 ] final -144.25 input  -65.29 | X-H torsion
[ 10718 10713 10712 10709 ] final   20.74 input   66.30 | X-H torsion
[ 10763 10752 10751 10750 ] final    3.65 input  -60.55 | X-H torsion
[ 11005 11000 10999 10996 ] final  -77.56 input  -57.11 | X-H torsion

> <Gold.Protein.ActiveResidues>
 VAL166  LYS551  ARG553  GLY616  TRP617  ASP618  TYR619  PRO620  LYS621  CYS622 
 ASP623  PHE694  ASN695  SER759  ASP760  ASP761  ALA762  ILE779  LEU786  VAL792 
 PHE793  MET794  SER795  GLU796  ALA797  LYS798  CYS799  TRP800  GLU811  SER814 

> <Gold.Protein.RotatedAtoms>
  152.0899  134.9414  160.0571 H   0  0  0  0  0  0  0  0  0  0  0  0  # atno 6907 bound_to 6896
  152.0670  133.4083  159.4450 H   0  0  0  0  0  0  0  0  0  0  0  0  # atno 6908 bound_to 6896
  150.6836  134.3056  159.4768 H   0  0  0  0  0  0  0  0  0  0  0  0  # atno 6909 bound_to 6896
  144.9677  139.4639  143.5448 H   0  0  0  0  0  0  0  0  0  0  0  0  # atno 7974 bound_to 7965
  154.4162  140.1722  156.1819 H   0  0  0  0  0  0  0  0  0  0  0  0  # atno 8008 bound_to 7997
  155.9675  140.3388  155.6522 H   0  0  0  0  0  0  0  0  0  0  0  0  # atno 8009 bound_to 7997
  155.6669  140.0707  157.2525 H   0  0  0  0  0  0  0  0  0  0  0  0  # atno 8010 bound_to 7997
  139.7916  143.7958  152.2650 H   0  0  0  0  0  0  0  0  0  0  0  0  # atno 10167 bound_to 10162
  157.1286  130.6581  149.5945 H   0  0  0  0  0  0  0  0  0  0  0  0  # atno 10718 bound_to 10713
  153.2807  135.6940  153.7388 H   0  0  0  0  0  0  0  0  0  0  0  0  # atno 10763 bound_to 10752
  153.6376  135.3399  155.3062 H   0  0  0  0  0  0  0  0  0  0  0  0  # atno 10764 bound_to 10752
  154.8494  135.4424  154.1859 H   0  0  0  0  0  0  0  0  0  0  0  0  # atno 10765 bound_to 10752
  141.1661  133.7027  156.7840 H   0  0  0  0  0  0  0  0  0  0  0  0  # atno 11005 bound_to 11000
  146.3373  139.8869  142.8815 LP  0  0  0  0  0  0  0  0  0  0  0  0  # atno 17320 bound_to 7965
  145.2605  141.0075  143.3829 LP  0  0  0  0  0  0  0  0  0  0  0  0  # atno 17321 bound_to 7965
  139.8051  144.7358  150.9772 LP  0  0  0  0  0  0  0  0  0  0  0  0  # atno 17342 bound_to 10162
  140.7820  143.4306  151.0700 LP  0  0  0  0  0  0  0  0  0  0  0  0  # atno 17343 bound_to 10162
  155.9813  130.4819  150.6818 LP  0  0  0  0  0  0  0  0  0  0  0  0  # atno 17370 bound_to 10713
  157.4412  131.0861  151.0941 LP  0  0  0  0  0  0  0  0  0  0  0  0  # atno 17371 bound_to 10713
  140.2374  134.8640  157.3539 LP  0  0  0  0  0  0  0  0  0  0  0  0  # atno 17394 bound_to 11000
  140.1830  134.4466  155.7760 LP  0  0  0  0  0  0  0  0  0  0  0  0  # atno 17395 bound_to 11000

$$$$
