AV-unprocessed.smi:460|AV-procd|sdf|2629|dock4
  -GOLD-   2262023 33D 1   1.00000     0.00000
 Structure written by MMmdl.
 47 49  0  0  0  0  0  0  0  0  2 V2000
  149.6783  135.9532  155.0291 C   0  0  0  0  0  0  0  0  0  0  0  0
  150.4063  136.3411  153.7343 C   0  0  0  0  0  0  0  0  0  0  0  0
  151.0632  137.7335  153.7824 C   0  0  1  0  0  0  0  0  0  0  0  0
  151.7170  137.9604  152.5517 O   0  0  0  0  0  0  0  0  0  0  0  0
  150.0655  138.8117  154.0833 C   0  0  0  0  0  0  0  0  0  0  0  0
  148.9686  139.1089  153.3296 N   0  3  0  0  0  0  0  0  0  0  0  0
  148.2718  140.1720  153.9034 C   0  0  0  0  0  0  0  0  0  0  0  0
  147.1109  140.8243  153.4999 C   0  0  0  0  0  0  0  0  0  0  0  0
  146.6653  141.8850  154.3157 C   0  0  0  0  0  0  0  0  0  0  0  0
  147.3668  142.2604  155.4799 C   0  0  0  0  0  0  0  0  0  0  0  0
  148.5421  141.5902  155.8793 C   0  0  0  0  0  0  0  0  0  0  0  0
  148.9743  140.5411  155.0684 C   0  0  0  0  0  0  0  0  0  0  0  0
  150.0672  139.6707  155.1452 N   0  0  0  0  0  0  0  0  0  0  0  0
  151.0109  139.8066  156.2648 C   0  0  0  0  0  0  0  0  0  0  0  0
  151.4799  141.2564  156.4474 C   0  0  0  0  0  0  0  0  0  0  0  0
  152.6035  141.2662  157.3178 O   0  0  0  0  0  0  0  0  0  0  0  0
  152.7058  142.2691  158.2579 C   0  0  0  0  0  0  0  0  0  0  0  0
  152.0417  143.5170  158.1509 C   0  0  0  0  0  0  0  0  0  0  0  0
  152.1934  144.4935  159.1518 C   0  0  0  0  0  0  0  0  0  0  0  0
  153.0077  144.2351  160.2676 C   0  0  0  0  0  0  0  0  0  0  0  0
  153.6703  142.9996  160.3835 C   0  0  0  0  0  0  0  0  0  0  0  0
  153.5247  142.0077  159.3806 C   0  0  0  0  0  0  0  0  0  0  0  0
  154.1465  140.7766  159.4269 O   0  0  0  0  0  0  0  0  0  0  0  0
  154.9839  140.4870  160.5367 C   0  0  0  0  0  0  0  0  0  0  0  0
  149.2673  134.9463  154.9536 H   0  0  0  0  0  0  0  0  0  0  0  0
  148.8510  136.6297  155.2446 H   0  0  0  0  0  0  0  0  0  0  0  0
  150.3577  135.9699  155.8816 H   0  0  0  0  0  0  0  0  0  0  0  0
  151.1726  135.5909  153.5344 H   0  0  0  0  0  0  0  0  0  0  0  0
  149.7068  136.2892  152.8989 H   0  0  0  0  0  0  0  0  0  0  0  0
  151.8363  137.7369  154.5507 H   0  0  0  0  0  0  0  0  0  0  0  0
  151.0744  137.9106  151.8597 H   0  0  0  0  0  0  0  0  0  0  0  0
  146.5738  140.5400  152.6068 H   0  0  0  0  0  0  0  0  0  0  0  0
  145.7688  142.4224  154.0420 H   0  0  0  0  0  0  0  0  0  0  0  0
  146.9965  143.0796  156.0792 H   0  0  0  0  0  0  0  0  0  0  0  0
  149.0729  141.8876  156.7714 H   0  0  0  0  0  0  0  0  0  0  0  0
  150.5465  139.4244  157.1742 H   0  0  0  0  0  0  0  0  0  0  0  0
  151.8642  139.1591  156.0642 H   0  0  0  0  0  0  0  0  0  0  0  0
  151.7496  141.6783  155.4779 H   0  0  0  0  0  0  0  0  0  0  0  0
  150.6689  141.8547  156.8648 H   0  0  0  0  0  0  0  0  0  0  0  0
  151.4066  143.7496  157.3098 H   0  0  0  0  0  0  0  0  0  0  0  0
  151.6835  145.4416  159.0634 H   0  0  0  0  0  0  0  0  0  0  0  0
  153.1245  144.9849  161.0361 H   0  0  0  0  0  0  0  0  0  0  0  0
  154.2872  142.8379  161.2543 H   0  0  0  0  0  0  0  0  0  0  0  0
  155.3913  139.4823  160.4267 H   0  0  0  0  0  0  0  0  0  0  0  0
  154.4279  140.5155  161.4746 H   0  0  0  0  0  0  0  0  0  0  0  0
  155.8252  141.1790  160.5925 H   0  0  0  0  0  0  0  0  0  0  0  0
  148.7247  138.6193  152.4783 H   0  0  0  0  0  0  0  0  0  0  0  0
  1  2  1  0  0  0  0
  1 25  1  0  0  0  0
  1 26  1  0  0  0  0
  1 27  1  0  0  0  0
  2  3  1  0  0  0  0
  2 28  1  0  0  0  0
  2 29  1  0  0  0  0
  3  4  1  0  0  0  0
  3  5  1  0  0  0  0
  3 30  1  0  0  0  0
  4 31  1  0  0  0  0
  5 13  1  0  0  0  0
  5  6  2  0  0  0  0
  6  7  1  0  0  0  0
  6 47  1  0  0  0  0
  7 12  2  0  0  0  0
  7  8  1  0  0  0  0
  8  9  2  0  0  0  0
  8 32  1  0  0  0  0
  9 10  1  0  0  0  0
  9 33  1  0  0  0  0
 10 11  2  0  0  0  0
 10 34  1  0  0  0  0
 11 12  1  0  0  0  0
 11 35  1  0  0  0  0
 12 13  1  0  0  0  0
 13 14  1  0  0  0  0
 14 15  1  0  0  0  0
 14 36  1  0  0  0  0
 14 37  1  0  0  0  0
 15 16  1  0  0  0  0
 15 38  1  0  0  0  0
 15 39  1  0  0  0  0
 16 17  1  0  0  0  0
 17 22  1  0  0  0  0
 17 18  2  0  0  0  0
 18 19  1  0  0  0  0
 18 40  1  0  0  0  0
 19 20  2  0  0  0  0
 19 41  1  0  0  0  0
 20 21  1  0  0  0  0
 20 42  1  0  0  0  0
 21 22  2  0  0  0  0
 21 43  1  0  0  0  0
 22 23  1  0  0  0  0
 23 24  1  0  0  0  0
 24 44  1  0  0  0  0
 24 45  1  0  0  0  0
 24 46  1  0  0  0  0
M  CHG  1   6   1
M  END
> <s_m_source_file>
AV-unprocessed.smi

> <i_m_source_file_index>
460

> <i_lp_mmshare_version>
43012

> <i_f3d_flags>
0

> <s_epik_input>
W2NIXTFbY0hdW2NIXVtjSF1jKGMxMiluKGMobjIpW0NAQEhdKFtPSF0pW0NIMl1bQ0gzXSlbQ0gyXVtDSDJdT2MzW2NIXVtjSF1bY0hdW2NIXWMzT1tDSDNd

> <s_epik_cmdline>
J2VwaWtfcHl0aG9uJywgJy1waCcsICc3LjAnLCAnLXRuJywgJzgnLCAnLW1hJywgJzIwMCcsICctbWV0YWxfYmluZGluZycsICctaW1hZScsICc8aW5maWxlLm1hZT4nLCAnLW9tYWUnLCAnPG91dGZpbGUubWFlPic=

> <r_lp_tautomer_probability>
1

> <r_epik_Ionization_Penalty>
1.48085

> <r_epik_Ionization_Penalty_Charging>
1.48083

> <r_epik_Ionization_Penalty_Neutral>
1.80167e-05

> <r_epik_State_Penalty>
1.56944

> <r_epik_Charging_Adjusted_Penalty>
3.05027

> <i_epik_Tot_Q>
1

> <i_epik_Tot_abs_Q>
1

> <r_epik_Metal_State_Penalty>
5.61877

> <b_epik_Metal_Only>
0

> <s_lp_Force_Field>
OPLS_2005

> <r_lp_Energy>
21.4697

> <b_lp_Chiralities_Consistent>
1

> <s_lp_Variant>
AV-unprocessed.smi:460-4

> <Gold.Version>
5.8.1

> <Gold.Id.Protein>
6NUR|6NUR_protein|mol2

> <Gold.PLP.Fitness>
62.7254

> <Gold.PLP.PLP>
-52.0986

> <Gold.PLP.part.hbond>
-4.0000

> <Gold.PLP.part.metal>
0.0000

> <Gold.PLP.part.buried>
-1.6447

> <Gold.PLP.part.nonpolar>
-46.8527

> <Gold.PLP.part.repulsive>
0.0619

> <Gold.PLP.ligand.clash>
0.0000

> <Gold.PLP.ligand.torsion>
0.7291

> <Gold.PLP.Chemscore.Hbond>
3.9920

> <Gold.PLP.Chemscore.CHOScore>
0.0000

> <Gold.PLP.Chemscore.Metal>
0.0000

> <Gold.Chemscore.Hbonds>
donor molecule, donor type, donor heavy atom, donor atom, acceptor molecule, acceptor atom, score
      P1  H  7997  8009       L1    16  0.09

> <Gold.PLP.Chemscore.Internal.Correction>
0.1089

> <Gold.Rescore>
     Score         DG    S(hbond)    S(metal)    S(lipo)     H(rot)  DE(clash)    DE(int)     intcor
     20.78     -21.84       2.18        0.00     131.05       2.45       0.05       1.01       ----

> <Gold.Chemscore.Fitness>
20.7773

> <Gold.Chemscore.DG>
-21.8389

> <Gold.Chemscore.ZeroCoef>
-5.4800

> <Gold.Chemscore.Hbond>
2.1813

> <Gold.Chemscore.Metal>
0.0000

> <Gold.Chemscore.Lipo>
131.0475

> <Gold.Chemscore.Internal_Hbond>
0.0000

> <Gold.Chemscore.DEClash>
0.0530

> <Gold.Chemscore.DEInternal>
1.0086

> <Gold.Chemscore.Rot>
2.4450

> <Gold.Chemscore.Internal.Correction>
   9.000000E+99

> <Gold.Chemscore.Hbonds>
donor molecule, donor type, donor heavy atom, donor atom, acceptor molecule, acceptor atom, score
      L1  H     4    31       P1  7949  0.01
      L1  H     6    47       P1  7948  0.03
      P1  H  7997  8009       L1    16  0.09

> <Gold.Chemscore.Hbond.Weighted>
-7.2856

> <Gold.Chemscore.Metal.Weighted>
-0.0000

> <Gold.Chemscore.Lipo.Weighted>
-15.3326

> <Gold.Chemscore.Internal_Hbond.Weighted>
0.0000

> <Gold.Chemscore.DEClash.Weighted>
0.0530

> <Gold.Chemscore.DEInternal.Weighted>
1.0086

> <Gold.Chemscore.Rot.Weighted>
6.2593

> <Gold.Chemscore.Internal.Correction.Weighted>
   9.000000E+99

> <Gold.Protein.RotatedTorsions>
[ 6907 6896 6895 6894 ] final  -23.16 input  -60.11 | X-H torsion
[ 7974 7965 7964 7962 ] final  -89.85 input  175.53 | X-H torsion
[ 8008 7997 7996 7995 ] final  156.04 input   59.86 | X-H torsion
[ 10167 10162 10161 10158 ] final  129.55 input  -65.29 | X-H torsion
[ 10718 10713 10712 10709 ] final    2.07 input   66.30 | X-H torsion
[ 10763 10752 10751 10750 ] final  144.99 input  -60.55 | X-H torsion
[ 11005 11000 10999 10996 ] final  -91.44 input  -57.11 | X-H torsion

> <Gold.Protein.ActiveResidues>
 VAL166  LYS551  ARG553  GLY616  TRP617  ASP618  TYR619  PRO620  LYS621  CYS622 
 ASP623  PHE694  ASN695  SER759  ASP760  ASP761  ALA762  ILE779  LEU786  VAL792 
 PHE793  MET794  SER795  GLU796  ALA797  LYS798  CYS799  TRP800  GLU811  SER814 

> <Gold.Protein.RotatedAtoms>
  151.2081  135.0470  159.8899 H   0  0  0  0  0  0  0  0  0  0  0  0  # atno 6907 bound_to 6896
  152.5427  134.0775  159.8231 H   0  0  0  0  0  0  0  0  0  0  0  0  # atno 6908 bound_to 6896
  151.0925  133.5257  159.2646 H   0  0  0  0  0  0  0  0  0  0  0  0  # atno 6909 bound_to 6896
  145.4343  140.9557  143.2110 H   0  0  0  0  0  0  0  0  0  0  0  0  # atno 7974 bound_to 7965
  156.2445  140.1923  156.6894 H   0  0  0  0  0  0  0  0  0  0  0  0  # atno 8008 bound_to 7997
  154.6263  140.0602  156.9704 H   0  0  0  0  0  0  0  0  0  0  0  0  # atno 8009 bound_to 7997
  155.1781  140.3274  155.4383 H   0  0  0  0  0  0  0  0  0  0  0  0  # atno 8010 bound_to 7997
  139.5472  144.6783  151.4435 H   0  0  0  0  0  0  0  0  0  0  0  0  # atno 10167 bound_to 10162
  156.8576  130.5575  149.5665 H   0  0  0  0  0  0  0  0  0  0  0  0  # atno 10718 bound_to 10713
  153.9980  135.2926  155.3405 H   0  0  0  0  0  0  0  0  0  0  0  0  # atno 10763 bound_to 10752
  154.7176  135.5123  153.8765 H   0  0  0  0  0  0  0  0  0  0  0  0  # atno 10764 bound_to 10752
  153.0779  135.6669  154.0225 H   0  0  0  0  0  0  0  0  0  0  0  0  # atno 10765 bound_to 10752
  141.1544  133.7756  156.9880 H   0  0  0  0  0  0  0  0  0  0  0  0  # atno 11005 bound_to 11000
  144.8162  139.5872  143.7007 LP  0  0  0  0  0  0  0  0  0  0  0  0  # atno 17320 bound_to 7965
  146.2590  139.6368  142.9375 LP  0  0  0  0  0  0  0  0  0  0  0  0  # atno 17321 bound_to 7965
  140.6724  143.8264  150.7016 LP  0  0  0  0  0  0  0  0  0  0  0  0  # atno 17342 bound_to 10162
  140.1692  143.4209  152.2012 LP  0  0  0  0  0  0  0  0  0  0  0  0  # atno 17343 bound_to 10162
  156.0794  130.5808  150.9535 LP  0  0  0  0  0  0  0  0  0  0  0  0  # atno 17370 bound_to 10713
  157.6268  131.0925  150.8517 LP  0  0  0  0  0  0  0  0  0  0  0  0  # atno 17371 bound_to 10713
  140.1022  134.9528  157.1940 LP  0  0  0  0  0  0  0  0  0  0  0  0  # atno 17394 bound_to 11000
  140.3304  134.2816  155.7229 LP  0  0  0  0  0  0  0  0  0  0  0  0  # atno 17395 bound_to 11000

$$$$
