AV-unprocessed.smi:2725|AV-procd|sdf|10515|dock6
  -GOLD-   2272014553D 1   1.00000     0.00000
 Structure written by MMmdl.
 44 45  0  0  0  0  0  0  0  0  1 V2000
  149.0300  140.6072  154.3519 O   0  0  0  0  0  0  0  0  0  0  0  0
  148.7378  140.7786  155.5358 C   0  0  0  0  0  0  0  0  0  0  0  0
  147.2788  140.9548  155.9674 C   0  0  0  0  0  0  0  0  0  0  0  0
  146.5192  142.0113  155.1419 C   0  0  0  0  0  0  0  0  0  0  0  0
  145.0545  142.1811  155.5827 C   0  0  0  0  0  0  0  0  0  0  0  0
  144.3413  143.3888  154.9659 C   0  0  0  0  0  0  0  0  0  0  0  0
  143.1545  143.6746  155.8935 C   0  0  0  0  0  0  0  0  0  0  0  0
  143.4917  143.0185  157.2413 C   0  0  0  0  0  0  0  0  0  0  0  0
  144.8925  142.4183  157.0858 C   0  0  0  0  0  0  0  0  0  0  0  0
  149.6502  140.8265  156.5183 N   0  0  0  0  0  0  0  0  0  0  0  0
  151.0957  140.6881  156.3404 C   0  0  2  0  0  0  0  0  0  0  0  0
  151.3813  139.4595  155.4534 C   0  0  0  0  0  0  0  0  0  0  0  0
  152.7668  139.3400  155.2078 O   0  0  0  0  0  0  0  0  0  0  0  0
  151.8148  140.5942  157.7094 C   0  0  0  0  0  0  0  0  0  0  0  0
  152.0166  141.9275  158.4154 C   0  0  0  0  0  0  0  0  0  0  0  0
  151.4381  143.1091  157.9029 C   0  0  0  0  0  0  0  0  0  0  0  0
  151.6465  144.3160  158.5976 C   0  0  0  0  0  0  0  0  0  0  0  0
  152.4248  144.2970  159.7711 C   0  0  0  0  0  0  0  0  0  0  0  0
  152.9624  143.0667  160.1986 C   0  0  0  0  0  0  0  0  0  0  0  0
  152.7668  141.9036  159.5406 N   0  0  0  0  0  0  0  0  0  0  0  0
  146.7824  139.9872  155.8883 H   0  0  0  0  0  0  0  0  0  0  0  0
  147.2561  141.2343  157.0219 H   0  0  0  0  0  0  0  0  0  0  0  0
  147.0271  142.9722  155.2367 H   0  0  0  0  0  0  0  0  0  0  0  0
  146.5524  141.7518  154.0824 H   0  0  0  0  0  0  0  0  0  0  0  0
  144.4968  141.2799  155.3228 H   0  0  0  0  0  0  0  0  0  0  0  0
  145.0100  144.2509  154.9591 H   0  0  0  0  0  0  0  0  0  0  0  0
  144.0270  143.2088  153.9375 H   0  0  0  0  0  0  0  0  0  0  0  0
  142.9837  144.7467  155.9952 H   0  0  0  0  0  0  0  0  0  0  0  0
  142.2424  143.2365  155.4868 H   0  0  0  0  0  0  0  0  0  0  0  0
  143.4496  143.7303  158.0664 H   0  0  0  0  0  0  0  0  0  0  0  0
  142.7703  142.2289  157.4551 H   0  0  0  0  0  0  0  0  0  0  0  0
  145.0213  141.5065  157.6699 H   0  0  0  0  0  0  0  0  0  0  0  0
  145.6355  143.1388  157.4308 H   0  0  0  0  0  0  0  0  0  0  0  0
  149.3208  140.9670  157.4624 H   0  0  0  0  0  0  0  0  0  0  0  0
  151.4885  141.5702  155.8304 H   0  0  0  0  0  0  0  0  0  0  0  0
  151.0692  138.5457  155.9597 H   0  0  0  0  0  0  0  0  0  0  0  0
  150.8337  139.5025  154.5109 H   0  0  0  0  0  0  0  0  0  0  0  0
  152.9094  138.5922  154.6478 H   0  0  0  0  0  0  0  0  0  0  0  0
  151.2732  139.9174  158.3717 H   0  0  0  0  0  0  0  0  0  0  0  0
  152.7938  140.1343  157.5682 H   0  0  0  0  0  0  0  0  0  0  0  0
  150.8431  143.0909  157.0014 H   0  0  0  0  0  0  0  0  0  0  0  0
  151.2170  145.2389  158.2370 H   0  0  0  0  0  0  0  0  0  0  0  0
  152.6064  145.2033  160.3296 H   0  0  0  0  0  0  0  0  0  0  0  0
  153.5650  143.0147  161.0934 H   0  0  0  0  0  0  0  0  0  0  0  0
  1  2  2  0  0  0  0
  2  3  1  0  0  0  0
  2 10  1  0  0  0  0
  3  4  1  0  0  0  0
  3 21  1  0  0  0  0
  3 22  1  0  0  0  0
  4  5  1  0  0  0  0
  4 23  1  0  0  0  0
  4 24  1  0  0  0  0
  5  9  1  0  0  0  0
  5  6  1  0  0  0  0
  5 25  1  0  0  0  0
  6  7  1  0  0  0  0
  6 26  1  0  0  0  0
  6 27  1  0  0  0  0
  7  8  1  0  0  0  0
  7 28  1  0  0  0  0
  7 29  1  0  0  0  0
  8  9  1  0  0  0  0
  8 30  1  0  0  0  0
  8 31  1  0  0  0  0
  9 32  1  0  0  0  0
  9 33  1  0  0  0  0
 10 11  1  0  0  0  0
 10 34  1  0  0  0  0
 11 12  1  0  0  0  0
 11 14  1  0  0  0  0
 11 35  1  0  0  0  0
 12 13  1  0  0  0  0
 12 36  1  0  0  0  0
 12 37  1  0  0  0  0
 13 38  1  0  0  0  0
 14 15  1  0  0  0  0
 14 39  1  0  0  0  0
 14 40  1  0  0  0  0
 15 20  1  0  0  0  0
 15 16  2  0  0  0  0
 16 17  1  0  0  0  0
 16 41  1  0  0  0  0
 17 18  2  0  0  0  0
 17 42  1  0  0  0  0
 18 19  1  0  0  0  0
 18 43  1  0  0  0  0
 19 20  2  0  0  0  0
 19 44  1  0  0  0  0
M  END
> <s_m_source_file>
AV-unprocessed.smi

> <i_m_source_file_index>
2725

> <i_lp_mmshare_version>
43012

> <i_f3d_flags>
0

> <s_epik_input>
W0NIMl0xW0NIMl1bQ0gyXVtDSDJdW0NIXTFbQ0gyXVtDSDJdQyg9TylbTkhdW0NASF0oW0NIMl1bT0hdKVtDSDJdYzJbY0hdW2NIXVtjSF1bY0hdbjI=

> <s_epik_cmdline>
J2VwaWtfcHl0aG9uJywgJy1waCcsICc3LjAnLCAnLXRuJywgJzgnLCAnLW1hJywgJzIwMCcsICctbWV0YWxfYmluZGluZycsICctaW1hZScsICc8aW5maWxlLm1hZT4nLCAnLW9tYWUnLCAnPG91dGZpbGUubWFlPic=

> <r_epik_Ionization_Penalty>
0.0257016

> <r_epik_Ionization_Penalty_Charging>
0

> <r_epik_Ionization_Penalty_Neutral>
0.0257016

> <r_epik_State_Penalty>
0.0209381

> <r_epik_Charging_Adjusted_Penalty>
0.0209381

> <i_epik_Tot_Q>
0

> <i_epik_Tot_abs_Q>
0

> <r_epik_Metal_State_Penalty>
0.0200649

> <b_epik_Metal_Only>
0

> <s_lp_Force_Field>
OPLS_2005

> <r_lp_Energy>
24.7076

> <b_lp_Chiralities_Consistent>
1

> <s_lp_Variant>
AV-unprocessed.smi:2725-1

> <Gold.Version>
5.8.1

> <Gold.Id.Protein>
6NUR|6NUR_protein|mol2

> <Gold.PLP.Fitness>
53.8744

> <Gold.PLP.PLP>
-47.7240

> <Gold.PLP.part.hbond>
-3.0000

> <Gold.PLP.part.metal>
0.0000

> <Gold.PLP.part.buried>
-5.2663

> <Gold.PLP.part.nonpolar>
-41.0453

> <Gold.PLP.part.repulsive>
2.7719

> <Gold.PLP.ligand.clash>
0.0000

> <Gold.PLP.ligand.torsion>
0.4778

> <Gold.PLP.Chemscore.Hbond>
2.3238

> <Gold.PLP.Chemscore.CHOScore>
0.0000

> <Gold.PLP.Chemscore.Metal>
0.0000

> <Gold.Chemscore.Hbonds>
donor molecule, donor type, donor heavy atom, donor atom, acceptor molecule, acceptor atom, score
      P1  H  7997  8008       L1    13  1.00

> <Gold.PLP.Chemscore.Internal.Correction>
0.1347

> <Gold.Rescore>
     Score         DG    S(hbond)    S(metal)    S(lipo)     H(rot)  DE(clash)    DE(int)     intcor
     17.79     -21.29       2.22        0.00     125.08       2.44       1.52       1.99       ----

> <Gold.Chemscore.Fitness>
17.7870

> <Gold.Chemscore.DG>
-21.2921

> <Gold.Chemscore.ZeroCoef>
-5.4800

> <Gold.Chemscore.Hbond>
2.2241

> <Gold.Chemscore.Metal>
0.0000

> <Gold.Chemscore.Lipo>
125.0788

> <Gold.Chemscore.Internal_Hbond>
0.0000

> <Gold.Chemscore.DEClash>
1.5168

> <Gold.Chemscore.DEInternal>
1.9884

> <Gold.Chemscore.Rot>
2.4416

> <Gold.Chemscore.Internal.Correction>
   9.000000E+99

> <Gold.Chemscore.Hbonds>
donor molecule, donor type, donor heavy atom, donor atom, acceptor molecule, acceptor atom, score
      P1  H  7997  8008       L1    13  0.89

> <Gold.Chemscore.Hbond.Weighted>
-7.4284

> <Gold.Chemscore.Metal.Weighted>
-0.0000

> <Gold.Chemscore.Lipo.Weighted>
-14.6342

> <Gold.Chemscore.Internal_Hbond.Weighted>
0.0000

> <Gold.Chemscore.DEClash.Weighted>
1.5168

> <Gold.Chemscore.DEInternal.Weighted>
1.9884

> <Gold.Chemscore.Rot.Weighted>
6.2505

> <Gold.Chemscore.Internal.Correction.Weighted>
   9.000000E+99

> <Gold.Protein.RotatedTorsions>
[ 6907 6896 6895 6894 ] final  140.96 input  -60.11 | X-H torsion
[ 7974 7965 7964 7962 ] final -137.43 input  175.53 | X-H torsion
[ 8008 7997 7996 7995 ] final  -24.56 input   59.86 | X-H torsion
[ 10167 10162 10161 10158 ] final  -29.26 input  -65.29 | X-H torsion
[ 10718 10713 10712 10709 ] final  172.85 input   66.30 | X-H torsion
[ 10763 10752 10751 10750 ] final   88.59 input  -60.55 | X-H torsion
[ 11005 11000 10999 10996 ] final  167.70 input  -57.11 | X-H torsion

> <Gold.Protein.ActiveResidues>
 VAL166  LYS551  ARG553  GLY616  TRP617  ASP618  TYR619  PRO620  LYS621  CYS622 
 ASP623  PHE694  ASN695  SER759  ASP760  ASP761  ALA762  ILE779  LEU786  VAL792 
 PHE793  MET794  SER795  GLU796  ALA797  LYS798  CYS799  TRP800  GLU811  SER814 

> <Gold.Protein.RotatedAtoms>
  152.2367  133.5102  159.5246 H   0  0  0  0  0  0  0  0  0  0  0  0  # atno 6907 bound_to 6896
  150.7052  134.1143  159.4021 H   0  0  0  0  0  0  0  0  0  0  0  0  # atno 6908 bound_to 6896
  151.9064  135.0357  160.0561 H   0  0  0  0  0  0  0  0  0  0  0  0  # atno 6909 bound_to 6896
  144.8843  140.6552  143.5186 H   0  0  0  0  0  0  0  0  0  0  0  0  # atno 7974 bound_to 7965
  154.4522  140.1950  156.0484 H   0  0  0  0  0  0  0  0  0  0  0  0  # atno 8008 bound_to 7997
  156.0672  140.3289  155.7505 H   0  0  0  0  0  0  0  0  0  0  0  0  # atno 8009 bound_to 7997
  155.5319  140.0579  157.2878 H   0  0  0  0  0  0  0  0  0  0  0  0  # atno 8010 bound_to 7997
  140.7262  143.3942  151.1376 H   0  0  0  0  0  0  0  0  0  0  0  0  # atno 10167 bound_to 10162
  156.9729  131.0095  151.2900 H   0  0  0  0  0  0  0  0  0  0  0  0  # atno 10718 bound_to 10713
  153.1784  135.4501  154.9995 H   0  0  0  0  0  0  0  0  0  0  0  0  # atno 10763 bound_to 10752
  154.8013  135.3257  154.7544 H   0  0  0  0  0  0  0  0  0  0  0  0  # atno 10764 bound_to 10752
  153.8012  135.6962  153.4910 H   0  0  0  0  0  0  0  0  0  0  0  0  # atno 10765 bound_to 10752
  140.2795  134.7761  157.3746 H   0  0  0  0  0  0  0  0  0  0  0  0  # atno 11005 bound_to 11000
  145.3898  139.1619  143.4235 LP  0  0  0  0  0  0  0  0  0  0  0  0  # atno 17320 bound_to 7965
  146.3014  140.3986  142.8702 LP  0  0  0  0  0  0  0  0  0  0  0  0  # atno 17321 bound_to 7965
  139.7552  143.8718  152.3087 LP  0  0  0  0  0  0  0  0  0  0  0  0  # atno 17342 bound_to 10162
  139.8585  144.7129  150.9128 LP  0  0  0  0  0  0  0  0  0  0  0  0  # atno 17343 bound_to 10162
  157.5580  130.8226  149.8228 LP  0  0  0  0  0  0  0  0  0  0  0  0  # atno 17370 bound_to 10713
  156.0275  130.3775  150.1781 LP  0  0  0  0  0  0  0  0  0  0  0  0  # atno 17371 bound_to 10713
  140.1296  134.5112  155.8116 LP  0  0  0  0  0  0  0  0  0  0  0  0  # atno 17394 bound_to 11000
  141.2165  133.6785  156.7016 LP  0  0  0  0  0  0  0  0  0  0  0  0  # atno 17395 bound_to 11000

$$$$
