AV-unprocessed.smi:2014|AV-procd|sdf|8162|dock7
  -GOLD-   2272010413D 1   1.00000     0.00000
 Structure written by MMmdl.
 46 48  0  0  0  0  0  0  0  0  1 V2000
  146.0009  139.0197  155.0713 C   0  0  0  0  0  0  0  0  0  0  0  0
  147.3944  139.3676  154.5289 C   0  0  2  0  0  0  0  0  0  0  0  0
  148.3460  138.1576  154.6017 C   0  0  0  0  0  0  0  0  0  0  0  0
  149.7522  138.5026  154.0757 C   0  0  0  0  0  0  0  0  0  0  0  0
  150.3628  139.7179  154.8004 C   0  0  2  0  0  0  0  0  0  0  0  0
  150.6836  139.3629  156.1812 N   0  0  0  0  0  0  0  0  0  0  0  0
  151.9160  139.2600  156.7002 C   0  0  0  0  0  0  0  0  0  0  0  0
  152.9453  139.4076  156.0410 O   0  0  0  0  0  0  0  0  0  0  0  0
  151.9914  138.9325  158.1971 C   0  0  0  0  0  0  0  0  0  0  0  0
  152.3775  140.1089  159.0049 N   0  0  0  0  0  0  0  0  0  0  0  0
  153.4483  139.9652  159.9245 C   0  0  0  0  0  0  0  0  0  0  0  0
  154.0570  138.8984  160.0286 O   0  0  0  0  0  0  0  0  0  0  0  0
  153.7522  141.1477  160.7266 C   0  0  0  0  0  0  0  0  0  0  0  0
  154.8010  141.0311  161.6850 C   0  0  0  0  0  0  0  0  0  0  0  0
  155.6416  140.9519  162.4765 N   0  0  0  0  0  0  0  0  0  0  0  0
  153.0601  142.2941  160.5638 C   0  0  0  0  0  0  0  0  0  0  0  0
  152.0489  142.4246  159.6368 N   0  0  0  0  0  0  0  0  0  0  0  0
  151.2235  143.5986  159.5907 C   0  0  0  0  0  0  0  0  0  0  0  0
  151.7613  144.8912  159.0080 C   0  0  0  0  0  0  0  0  0  0  0  0
  151.5544  144.7641  160.4974 C   0  0  0  0  0  0  0  0  0  0  0  0
  151.6447  141.3125  158.8659 C   0  0  0  0  0  0  0  0  0  0  0  0
  150.6777  141.3829  158.1034 O   0  0  0  0  0  0  0  0  0  0  0  0
  149.3988  140.9227  154.7304 C   0  0  0  0  0  0  0  0  0  0  0  0
  147.9992  140.5767  155.2678 C   0  0  0  0  0  0  0  0  0  0  0  0
  146.0432  138.7437  156.1255 H   0  0  0  0  0  0  0  0  0  0  0  0
  145.5639  138.1836  154.5249 H   0  0  0  0  0  0  0  0  0  0  0  0
  145.3200  139.8659  154.9758 H   0  0  0  0  0  0  0  0  0  0  0  0
  147.2792  139.6404  153.4787 H   0  0  0  0  0  0  0  0  0  0  0  0
  148.4157  137.8059  155.6319 H   0  0  0  0  0  0  0  0  0  0  0  0
  147.9362  137.3284  154.0241 H   0  0  0  0  0  0  0  0  0  0  0  0
  150.4086  137.6366  154.1709 H   0  0  0  0  0  0  0  0  0  0  0  0
  149.6896  138.7175  153.0083 H   0  0  0  0  0  0  0  0  0  0  0  0
  151.2948  139.9820  154.2978 H   0  0  0  0  0  0  0  0  0  0  0  0
  149.9003  139.2181  156.8017 H   0  0  0  0  0  0  0  0  0  0  0  0
  151.0356  138.5327  158.5409 H   0  0  0  0  0  0  0  0  0  0  0  0
  152.6871  138.1027  158.3282 H   0  0  0  0  0  0  0  0  0  0  0  0
  153.3091  143.1466  161.1794 H   0  0  0  0  0  0  0  0  0  0  0  0
  150.1633  143.4130  159.4270 H   0  0  0  0  0  0  0  0  0  0  0  0
  152.7886  144.9071  158.6487 H   0  0  0  0  0  0  0  0  0  0  0  0
  151.0652  145.5185  158.4551 H   0  0  0  0  0  0  0  0  0  0  0  0
  150.7214  145.3078  160.9380 H   0  0  0  0  0  0  0  0  0  0  0  0
  152.4453  144.6946  161.1187 H   0  0  0  0  0  0  0  0  0  0  0  0
  149.8045  141.7761  155.2744 H   0  0  0  0  0  0  0  0  0  0  0  0
  149.3101  141.2466  153.6928 H   0  0  0  0  0  0  0  0  0  0  0  0
  147.3455  141.4428  155.1611 H   0  0  0  0  0  0  0  0  0  0  0  0
  148.0571  140.3682  156.3371 H   0  0  0  0  0  0  0  0  0  0  0  0
  1  2  1  0  0  0  0
  1 25  1  0  0  0  0
  1 26  1  0  0  0  0
  1 27  1  0  0  0  0
  2 24  1  0  0  0  0
  2  3  1  0  0  0  0
  2 28  1  0  0  0  0
  3  4  1  0  0  0  0
  3 29  1  0  0  0  0
  3 30  1  0  0  0  0
  4  5  1  0  0  0  0
  4 31  1  0  0  0  0
  4 32  1  0  0  0  0
  5  6  1  0  0  0  0
  5 23  1  0  0  0  0
  5 33  1  0  0  0  0
  6  7  1  0  0  0  0
  6 34  1  0  0  0  0
  7  8  2  0  0  0  0
  7  9  1  0  0  0  0
  9 10  1  0  0  0  0
  9 35  1  0  0  0  0
  9 36  1  0  0  0  0
 10 21  1  0  0  0  0
 10 11  1  0  0  0  0
 11 12  2  0  0  0  0
 11 13  1  0  0  0  0
 13 14  1  0  0  0  0
 13 16  2  0  0  0  0
 14 15  3  0  0  0  0
 16 17  1  0  0  0  0
 16 37  1  0  0  0  0
 17 18  1  0  0  0  0
 17 21  1  0  0  0  0
 18 20  1  0  0  0  0
 18 19  1  0  0  0  0
 18 38  1  0  0  0  0
 19 20  1  0  0  0  0
 19 39  1  0  0  0  0
 19 40  1  0  0  0  0
 20 41  1  0  0  0  0
 20 42  1  0  0  0  0
 21 22  2  0  0  0  0
 23 24  1  0  0  0  0
 23 43  1  0  0  0  0
 23 44  1  0  0  0  0
 24 45  1  0  0  0  0
 24 46  1  0  0  0  0
M  END
> <s_m_source_file>
AV-unprocessed.smi

> <i_m_source_file_index>
2014

> <i_lp_mmshare_version>
43012

> <i_f3d_flags>
0

> <s_epik_input>
W0NIM11bQ0BASF0xW0NIMl1bQ0gyXVtDQEhdKFtDSDJdW0NIMl0xKVtOSF1DKD1PKVtDSDJdbjJjKD1PKWMoQyNOKVtjSF1uKGMyPU8pW0NIXTNbQ0gyXVtDSDJdMw==

> <s_epik_cmdline>
J2VwaWtfcHl0aG9uJywgJy1waCcsICc3LjAnLCAnLXRuJywgJzgnLCAnLW1hJywgJzIwMCcsICctbWV0YWxfYmluZGluZycsICctaW1hZScsICc8aW5maWxlLm1hZT4nLCAnLW9tYWUnLCAnPG91dGZpbGUubWFlPic=

> <r_lp_tautomer_probability>
1

> <r_epik_Ionization_Penalty>
1.91358e-08

> <r_epik_Ionization_Penalty_Charging>
8.89021e-11

> <r_epik_Ionization_Penalty_Neutral>
1.90469e-08

> <r_epik_State_Penalty>
-0

> <r_epik_Charging_Adjusted_Penalty>
8.89021e-11

> <i_epik_Tot_Q>
0

> <i_epik_Tot_abs_Q>
0

> <r_epik_Metal_State_Penalty>
-0

> <b_epik_Metal_Only>
0

> <s_lp_Force_Field>
OPLS_2005

> <r_lp_Energy>
34.0364

> <b_lp_Chiralities_Consistent>
1

> <s_lp_Variant>
AV-unprocessed.smi:2014-2

> <Gold.Version>
5.8.1

> <Gold.Id.Protein>
6NUR|6NUR_protein|mol2

> <Gold.PLP.Fitness>
50.4620

> <Gold.PLP.PLP>
-48.0906

> <Gold.PLP.part.hbond>
-2.0000

> <Gold.PLP.part.metal>
0.0000

> <Gold.PLP.part.buried>
-2.9215

> <Gold.PLP.part.nonpolar>
-43.0331

> <Gold.PLP.part.repulsive>
0.0843

> <Gold.PLP.ligand.clash>
0.0000

> <Gold.PLP.ligand.torsion>
0.4218

> <Gold.PLP.Chemscore.Hbond>
1.0000

> <Gold.PLP.Chemscore.CHOScore>
0.0000

> <Gold.PLP.Chemscore.Metal>
0.0000

> <Gold.Chemscore.Hbonds>
donor molecule, donor type, donor heavy atom, donor atom, acceptor molecule, acceptor atom, score
      P1  H  7997  8009       L1     8  0.93

> <Gold.PLP.Chemscore.Internal.Correction>
0.2150

> <Gold.Rescore>
     Score         DG    S(hbond)    S(metal)    S(lipo)     H(rot)  DE(clash)    DE(int)     intcor
     15.49     -15.83       1.00        0.00      97.17       1.70       0.11       0.23       ----

> <Gold.Chemscore.Fitness>
15.4930

> <Gold.Chemscore.DG>
-15.8274

> <Gold.Chemscore.ZeroCoef>
-5.4800

> <Gold.Chemscore.Hbond>
1.0000

> <Gold.Chemscore.Metal>
0.0000

> <Gold.Chemscore.Lipo>
97.1722

> <Gold.Chemscore.Internal_Hbond>
0.0000

> <Gold.Chemscore.DEClash>
0.1068

> <Gold.Chemscore.DEInternal>
0.2276

> <Gold.Chemscore.Rot>
1.7038

> <Gold.Chemscore.Internal.Correction>
   9.000000E+99

> <Gold.Chemscore.Hbonds>
donor molecule, donor type, donor heavy atom, donor atom, acceptor molecule, acceptor atom, score
      P1  H  7997  8009       L1     8  0.91

> <Gold.Chemscore.Hbond.Weighted>
-3.3400

> <Gold.Chemscore.Metal.Weighted>
-0.0000

> <Gold.Chemscore.Lipo.Weighted>
-11.3691

> <Gold.Chemscore.Internal_Hbond.Weighted>
0.0000

> <Gold.Chemscore.DEClash.Weighted>
0.1068

> <Gold.Chemscore.DEInternal.Weighted>
0.2276

> <Gold.Chemscore.Rot.Weighted>
4.3618

> <Gold.Chemscore.Internal.Correction.Weighted>
   9.000000E+99

> <Gold.Protein.RotatedTorsions>
[ 6907 6896 6895 6894 ] final  148.73 input  -60.11 | X-H torsion
[ 7974 7965 7964 7962 ] final  -40.29 input  175.53 | X-H torsion
[ 8008 7997 7996 7995 ] final  178.60 input   59.86 | X-H torsion
[ 10167 10162 10161 10158 ] final  -40.20 input  -65.29 | X-H torsion
[ 10718 10713 10712 10709 ] final -113.93 input   66.30 | X-H torsion
[ 10763 10752 10751 10750 ] final  109.23 input  -60.55 | X-H torsion
[ 11005 11000 10999 10996 ] final    3.16 input  -57.11 | X-H torsion

> <Gold.Protein.ActiveResidues>
 VAL166  LYS551  ARG553  GLY616  TRP617  ASP618  TYR619  PRO620  LYS621  CYS622 
 ASP623  PHE694  ASN695  SER759  ASP760  ASP761  ALA762  ILE779  LEU786  VAL792 
 PHE793  MET794  SER795  GLU796  ALA797  LYS798  CYS799  TRP800  GLU811  SER814 

> <Gold.Protein.RotatedAtoms>
  152.1375  133.4444  159.4750 H   0  0  0  0  0  0  0  0  0  0  0  0  # atno 6907 bound_to 6896
  150.6883  134.2345  159.4457 H   0  0  0  0  0  0  0  0  0  0  0  0  # atno 6908 bound_to 6896
  152.0234  134.9809  160.0622 H   0  0  0  0  0  0  0  0  0  0  0  0  # atno 6909 bound_to 6896
  146.0318  140.6722  142.9129 H   0  0  0  0  0  0  0  0  0  0  0  0  # atno 7974 bound_to 7965
  156.0528  140.1329  157.0031 H   0  0  0  0  0  0  0  0  0  0  0  0  # atno 8008 bound_to 7997
  154.4443  140.1007  156.6472 H   0  0  0  0  0  0  0  0  0  0  0  0  # atno 8009 bound_to 7997
  155.5498  140.3462  155.4468 H   0  0  0  0  0  0  0  0  0  0  0  0  # atno 8010 bound_to 7997
  140.7041  143.3168  151.2890 H   0  0  0  0  0  0  0  0  0  0  0  0  # atno 10167 bound_to 10162
  156.0798  130.5999  150.8708 H   0  0  0  0  0  0  0  0  0  0  0  0  # atno 10718 bound_to 10713
  153.4319  135.3786  155.2175 H   0  0  0  0  0  0  0  0  0  0  0  0  # atno 10763 bound_to 10752
  154.8750  135.3842  154.4258 H   0  0  0  0  0  0  0  0  0  0  0  0  # atno 10764 bound_to 10752
  153.4792  135.7088  153.6011 H   0  0  0  0  0  0  0  0  0  0  0  0  # atno 10765 bound_to 10752
  140.5962  133.9878  155.8111 H   0  0  0  0  0  0  0  0  0  0  0  0  # atno 11005 bound_to 11000
  144.7034  140.3749  143.7138 LP  0  0  0  0  0  0  0  0  0  0  0  0  # atno 17320 bound_to 7965
  145.7029  139.1665  143.2583 LP  0  0  0  0  0  0  0  0  0  0  0  0  # atno 17321 bound_to 7965
  139.6609  144.0191  152.2691 LP  0  0  0  0  0  0  0  0  0  0  0  0  # atno 17342 bound_to 10162
  139.9758  144.6462  150.7946 LP  0  0  0  0  0  0  0  0  0  0  0  0  # atno 17343 bound_to 10162
  157.5909  131.0944  150.9120 LP  0  0  0  0  0  0  0  0  0  0  0  0  # atno 17370 bound_to 10713
  156.9296  130.5345  149.5279 LP  0  0  0  0  0  0  0  0  0  0  0  0  # atno 17371 bound_to 10713
  141.0902  133.9928  157.3249 LP  0  0  0  0  0  0  0  0  0  0  0  0  # atno 17394 bound_to 11000
  139.9252  135.0201  156.8209 LP  0  0  0  0  0  0  0  0  0  0  0  0  # atno 17395 bound_to 11000

$$$$
