AV-unprocessed.smi:1182|AV-procd|sdf|4967|dock1
  -GOLD-   22720 3563D 1   1.00000     0.00000
 Structure written by MMmdl.
 37 38  0  0  0  0  0  0  0  0  1 V2000
  144.7095  137.0919  152.4904 O   0  0  0  0  0  0  0  0  0  0  0  0
  145.8853  136.7844  152.2932 C   0  0  0  0  0  0  0  0  0  0  0  0
  146.9130  137.6254  152.4806 N   0  0  0  0  0  0  0  0  0  0  0  0
  146.8135  139.0067  152.9495 C   0  0  0  0  0  0  0  0  0  0  0  0
  147.9055  139.3841  153.9814 C   0  0  0  0  0  0  0  0  0  0  0  0
  149.1174  138.8123  153.5212 O   0  0  0  0  0  0  0  0  0  0  0  0
  148.0912  140.9145  154.1450 C   0  0  0  0  0  0  0  0  0  0  0  0
  149.0733  141.2865  155.2704 C   0  0  0  0  0  0  0  0  0  0  0  0
  148.6750  140.6384  156.6034 C   0  0  0  0  0  0  0  0  0  0  0  0
  148.5642  139.1150  156.4586 C   0  0  0  0  0  0  0  0  0  0  0  0
  147.5731  138.7319  155.3452 C   0  0  0  0  0  0  0  0  0  0  0  0
  146.3139  135.5852  151.8616 N   0  0  0  0  0  0  0  0  0  0  0  0
  145.5413  134.4327  151.5569 C   0  0  0  0  0  0  0  0  0  0  0  0
  146.2901  133.2673  151.2763 C   0  0  0  0  0  0  0  0  0  0  0  0
  145.6178  132.0697  150.9642 C   0  0  0  0  0  0  0  0  0  0  0  0
  144.2118  132.0682  150.9402 C   0  0  0  0  0  0  0  0  0  0  0  0
  143.5427  133.2712  151.2311 C   0  0  0  0  0  0  0  0  0  0  0  0
  144.1851  134.4200  151.5306 N   0  0  0  0  0  0  0  0  0  0  0  0
  147.8431  137.2874  152.2825 H   0  0  0  0  0  0  0  0  0  0  0  0
  146.8584  139.6903  152.0999 H   0  0  0  0  0  0  0  0  0  0  0  0
  145.8223  139.1462  153.3829 H   0  0  0  0  0  0  0  0  0  0  0  0
  149.3863  139.2725  152.7409 H   0  0  0  0  0  0  0  0  0  0  0  0
  148.4362  141.3639  153.2134 H   0  0  0  0  0  0  0  0  0  0  0  0
  147.1234  141.3693  154.3606 H   0  0  0  0  0  0  0  0  0  0  0  0
  150.0821  140.9733  154.9984 H   0  0  0  0  0  0  0  0  0  0  0  0
  149.1102  142.3702  155.3830 H   0  0  0  0  0  0  0  0  0  0  0  0
  149.4068  140.8874  157.3724 H   0  0  0  0  0  0  0  0  0  0  0  0
  147.7207  141.0461  156.9394 H   0  0  0  0  0  0  0  0  0  0  0  0
  149.5469  138.6938  156.2434 H   0  0  0  0  0  0  0  0  0  0  0  0
  148.2443  138.6762  157.4040 H   0  0  0  0  0  0  0  0  0  0  0  0
  146.5733  139.0398  155.6547 H   0  0  0  0  0  0  0  0  0  0  0  0
  147.5350  137.6463  155.2464 H   0  0  0  0  0  0  0  0  0  0  0  0
  147.3106  135.4834  151.7423 H   0  0  0  0  0  0  0  0  0  0  0  0
  147.3702  133.2858  151.2990 H   0  0  0  0  0  0  0  0  0  0  0  0
  146.1724  131.1686  150.7477 H   0  0  0  0  0  0  0  0  0  0  0  0
  143.6607  131.1695  150.7057 H   0  0  0  0  0  0  0  0  0  0  0  0
  142.4636  133.3130  151.2237 H   0  0  0  0  0  0  0  0  0  0  0  0
  1  2  2  0  0  0  0
  2  3  1  0  0  0  0
  2 12  1  0  0  0  0
  3  4  1  0  0  0  0
  3 19  1  0  0  0  0
  4  5  1  0  0  0  0
  4 20  1  0  0  0  0
  4 21  1  0  0  0  0
  5 11  1  0  0  0  0
  5  6  1  0  0  0  0
  5  7  1  0  0  0  0
  6 22  1  0  0  0  0
  7  8  1  0  0  0  0
  7 23  1  0  0  0  0
  7 24  1  0  0  0  0
  8  9  1  0  0  0  0
  8 25  1  0  0  0  0
  8 26  1  0  0  0  0
  9 10  1  0  0  0  0
  9 27  1  0  0  0  0
  9 28  1  0  0  0  0
 10 11  1  0  0  0  0
 10 29  1  0  0  0  0
 10 30  1  0  0  0  0
 11 31  1  0  0  0  0
 11 32  1  0  0  0  0
 12 13  1  0  0  0  0
 12 33  1  0  0  0  0
 13 18  1  0  0  0  0
 13 14  2  0  0  0  0
 14 15  1  0  0  0  0
 14 34  1  0  0  0  0
 15 16  2  0  0  0  0
 15 35  1  0  0  0  0
 16 17  1  0  0  0  0
 16 36  1  0  0  0  0
 17 18  2  0  0  0  0
 17 37  1  0  0  0  0
M  END
> <s_m_source_file>
AV-unprocessed.smi

> <i_m_source_file_index>
1182

> <i_lp_mmshare_version>
43012

> <i_f3d_flags>
0

> <s_epik_input>
bjFbY0hdW2NIXVtjSF1bY0hdYzFbTkhdQyg9TylbTkhdW0NIMl1DMihbT0hdKVtDSDJdW0NIMl1bQ0gyXVtDSDJdW0NIMl0y

> <s_epik_cmdline>
J2VwaWtfcHl0aG9uJywgJy1waCcsICc3LjAnLCAnLXRuJywgJzgnLCAnLW1hJywgJzIwMCcsICctbWV0YWxfYmluZGluZycsICctaW1hZScsICc8aW5maWxlLm1hZT4nLCAnLW9tYWUnLCAnPG91dGZpbGUubWFlPic=

> <r_lp_tautomer_probability>
1

> <r_epik_Ionization_Penalty>
5.55141e-05

> <r_epik_Ionization_Penalty_Charging>
0

> <r_epik_Ionization_Penalty_Neutral>
5.55141e-05

> <r_epik_State_Penalty>
-0

> <r_epik_Charging_Adjusted_Penalty>
0

> <i_epik_Tot_Q>
0

> <i_epik_Tot_abs_Q>
0

> <r_epik_Metal_State_Penalty>
-0

> <b_epik_Metal_Only>
0

> <s_lp_Force_Field>
OPLS_2005

> <r_lp_Energy>
16.5718

> <b_lp_Chiralities_Consistent>
1

> <s_lp_Variant>
AV-unprocessed.smi:1182-1

> <Gold.Version>
5.8.1

> <Gold.Id.Protein>
6NUR|6NUR_protein|mol2

> <Gold.PLP.Fitness>
41.0971

> <Gold.PLP.PLP>
-29.8253

> <Gold.PLP.part.hbond>
-3.8396

> <Gold.PLP.part.metal>
0.0000

> <Gold.PLP.part.buried>
-4.3073

> <Gold.PLP.part.nonpolar>
-23.0514

> <Gold.PLP.part.repulsive>
1.3676

> <Gold.PLP.ligand.clash>
0.0000

> <Gold.PLP.ligand.torsion>
0.3470

> <Gold.PLP.Chemscore.Hbond>
2.9920

> <Gold.PLP.Chemscore.CHOScore>
0.9940

> <Gold.PLP.Chemscore.Metal>
0.0000

> <Gold.Chemscore.Hbonds>
donor molecule, donor type, donor heavy atom, donor atom, acceptor molecule, acceptor atom, score
      L1  H     3    19       P1  7948  1.00
      L1  H     6    22       P1  7957  1.00
      L1  H    12    33       P1  7948  0.99
      L1  C    17    37       P1 10186  0.97

> <Gold.PLP.Chemscore.Internal.Correction>
0.0078

> <Gold.Rescore>
     Score         DG    S(hbond)    S(metal)    S(lipo)     H(rot)  DE(clash)    DE(int)     intcor
     16.59     -18.38       2.94        0.00      65.48       1.79       0.10       1.69       ----

> <Gold.Chemscore.Fitness>
16.5925

> <Gold.Chemscore.DG>
-18.3797

> <Gold.Chemscore.ZeroCoef>
-5.4800

> <Gold.Chemscore.Hbond>
2.9370

> <Gold.Chemscore.Metal>
0.0000

> <Gold.Chemscore.Lipo>
65.4763

> <Gold.Chemscore.Internal_Hbond>
0.0000

> <Gold.Chemscore.DEClash>
0.0957

> <Gold.Chemscore.DEInternal>
1.6915

> <Gold.Chemscore.Rot>
1.7853

> <Gold.Chemscore.Internal.Correction>
   9.000000E+99

> <Gold.Chemscore.Hbonds>
donor molecule, donor type, donor heavy atom, donor atom, acceptor molecule, acceptor atom, score
      L1  H     3    19       P1  7948  0.96
      L1  H     6    22       P1  7957  1.00
      L1  H    12    33       P1  7948  0.93

> <Gold.Chemscore.Hbond.Weighted>
-9.8094

> <Gold.Chemscore.Metal.Weighted>
-0.0000

> <Gold.Chemscore.Lipo.Weighted>
-7.6607

> <Gold.Chemscore.Internal_Hbond.Weighted>
0.0000

> <Gold.Chemscore.DEClash.Weighted>
0.0957

> <Gold.Chemscore.DEInternal.Weighted>
1.6915

> <Gold.Chemscore.Rot.Weighted>
4.5704

> <Gold.Chemscore.Internal.Correction.Weighted>
   9.000000E+99

> <Gold.Protein.RotatedTorsions>
[ 6907 6896 6895 6894 ] final   85.10 input  -60.11 | X-H torsion
[ 7974 7965 7964 7962 ] final  -54.46 input  175.53 | X-H torsion
[ 8008 7997 7996 7995 ] final  178.25 input   59.86 | X-H torsion
[ 10167 10162 10161 10158 ] final -167.54 input  -65.29 | X-H torsion
[ 10718 10713 10712 10709 ] final   77.20 input   66.30 | X-H torsion
[ 10763 10752 10751 10750 ] final    9.07 input  -60.55 | X-H torsion
[ 11005 11000 10999 10996 ] final  -87.36 input  -57.11 | X-H torsion

> <Gold.Protein.ActiveResidues>
 VAL166  LYS551  ARG553  GLY616  TRP617  ASP618  TYR619  PRO620  LYS621  CYS622 
 ASP623  PHE694  ASN695  SER759  ASP760  ASP761  ALA762  ILE779  LEU786  VAL792 
 PHE793  MET794  SER795  GLU796  ALA797  LYS798  CYS799  TRP800  GLU811  SER814 

> <Gold.Protein.RotatedAtoms>
  152.5367  134.2638  159.8945 H   0  0  0  0  0  0  0  0  0  0  0  0  # atno 6907 bound_to 6896
  151.2597  133.4302  159.2623 H   0  0  0  0  0  0  0  0  0  0  0  0  # atno 6908 bound_to 6896
  151.0464  134.9657  159.8245 H   0  0  0  0  0  0  0  0  0  0  0  0  # atno 6909 bound_to 6896
  145.8854  140.8112  142.9819 H   0  0  0  0  0  0  0  0  0  0  0  0  # atno 7974 bound_to 7965
  156.0568  140.1338  156.9988 H   0  0  0  0  0  0  0  0  0  0  0  0  # atno 8008 bound_to 7997
  154.4461  140.0999  156.6528 H   0  0  0  0  0  0  0  0  0  0  0  0  # atno 8009 bound_to 7997
  155.5440  140.3461  155.4455 H   0  0  0  0  0  0  0  0  0  0  0  0  # atno 8010 bound_to 7997
  139.6043  144.0946  152.1776 H   0  0  0  0  0  0  0  0  0  0  0  0  # atno 10167 bound_to 10162
  157.6702  130.9810  150.1607 H   0  0  0  0  0  0  0  0  0  0  0  0  # atno 10718 bound_to 10713
  153.2180  135.6877  153.8033 H   0  0  0  0  0  0  0  0  0  0  0  0  # atno 10763 bound_to 10752
  153.7242  135.3262  155.3274 H   0  0  0  0  0  0  0  0  0  0  0  0  # atno 10764 bound_to 10752
  154.8256  135.4620  154.1016 H   0  0  0  0  0  0  0  0  0  0  0  0  # atno 10765 bound_to 10752
  141.1618  133.7507  156.9296 H   0  0  0  0  0  0  0  0  0  0  0  0  # atno 11005 bound_to 11000
  144.6728  140.1447  143.7434 LP  0  0  0  0  0  0  0  0  0  0  0  0  # atno 17320 bound_to 7965
  145.8973  139.2410  143.1514 LP  0  0  0  0  0  0  0  0  0  0  0  0  # atno 17321 bound_to 7965
  140.0550  144.5902  150.7307 LP  0  0  0  0  0  0  0  0  0  0  0  0  # atno 17342 bound_to 10162
  140.7273  143.2650  151.4076 LP  0  0  0  0  0  0  0  0  0  0  0  0  # atno 17343 bound_to 10162
  156.2384  130.3688  149.8365 LP  0  0  0  0  0  0  0  0  0  0  0  0  # atno 17370 bound_to 10713
  156.6172  130.8611  151.3467 LP  0  0  0  0  0  0  0  0  0  0  0  0  # atno 17371 bound_to 10713
  140.1396  134.9302  157.2448 LP  0  0  0  0  0  0  0  0  0  0  0  0  # atno 17394 bound_to 11000
  140.2853  134.3302  155.7331 LP  0  0  0  0  0  0  0  0  0  0  0  0  # atno 17395 bound_to 11000

$$$$
