AV-unprocessed.smi:148|AV-procd|sdf|1210|dock5
  -GOLD-   2262018383D 1   1.00000     0.00000
 Structure written by MMmdl.
 63 67  0  0  0  0  0  0  0  0  1 V2000
  145.9684  136.1312  151.9568 O   0  0  0  0  0  0  0  0  0  0  0  0
  145.1594  135.5384  152.9529 C   0  0  0  0  0  0  0  0  0  0  0  0
  145.4697  134.0326  153.1209 C   0  0  2  0  0  0  0  0  0  0  0  0
  146.8378  133.8716  153.8347 C   0  0  0  0  0  0  0  0  0  0  0  0
  146.8203  134.2471  155.2359 N   0  0  0  0  0  0  0  0  0  0  0  0
  145.7445  134.7362  155.9428 C   0  0  0  0  0  0  0  0  0  0  0  0
  145.9678  134.9633  157.2080 N   0  0  0  0  0  0  0  0  0  0  0  0
  147.3036  134.6237  157.3773 C   0  0  0  0  0  0  0  0  0  0  0  0
  148.1755  134.5855  158.4947 C   0  0  0  0  0  0  0  0  0  0  0  0
  147.7434  134.8756  159.7419 N   0  0  0  0  0  0  0  0  0  0  0  0
  148.1866  136.2074  160.1529 C   0  0  0  0  0  0  0  0  0  0  0  0
  147.4911  136.6495  161.4465 C   0  0  0  0  0  0  0  0  0  0  0  0
  147.7104  135.6086  162.5489 C   0  0  0  0  0  0  0  0  0  0  0  0
  147.2285  134.2309  162.0743 C   0  0  0  0  0  0  0  0  0  0  0  0
  147.9081  133.8055  160.7446 C   0  0  1  0  0  0  0  0  0  0  0  0
  147.4415  132.3995  160.2274 C   0  0  2  0  0  0  0  0  0  0  0  0
  145.9094  132.2640  160.0592 C   0  0  0  0  0  0  0  0  0  0  0  0
  145.4681  131.0490  160.8867 C   0  0  0  0  0  0  0  0  0  0  0  0
  146.6046  130.7925  161.8743 C   0  0  0  0  0  0  0  0  0  0  0  0
  147.8503  131.1762  161.0780 C   0  0  2  0  0  0  0  0  0  0  0  0
  148.9975  131.3540  161.8839 O   0  0  0  0  0  0  0  0  0  0  0  0
  149.4623  134.1975  158.2911 N   0  0  0  0  0  0  0  0  0  0  0  0
  149.8639  133.8493  157.0646 C   0  0  0  0  0  0  0  0  0  0  0  0
  149.1541  133.8053  155.9343 N   0  0  0  0  0  0  0  0  0  0  0  0
  147.8656  134.2033  156.1413 C   0  0  0  0  0  0  0  0  0  0  0  0
  145.3387  133.2410  151.7838 C   0  0  2  0  0  0  0  0  0  0  0  0
  143.9372  133.2223  151.1919 C   0  0  0  0  0  0  0  0  0  0  0  0
  144.0120  132.0520  150.2230 C   0  0  0  0  0  0  0  0  0  0  0  0
  144.7851  131.0826  150.9117 O   0  0  0  0  0  0  0  0  0  0  0  0
  145.6308  131.7307  151.8574 C   0  0  0  0  0  0  0  0  0  0  0  0
  146.8714  135.9146  152.1330 H   0  0  0  0  0  0  0  0  0  0  0  0
  145.3230  136.0671  153.8923 H   0  0  0  0  0  0  0  0  0  0  0  0
  144.1125  135.6989  152.6960 H   0  0  0  0  0  0  0  0  0  0  0  0
  144.7062  133.6473  153.7979 H   0  0  0  0  0  0  0  0  0  0  0  0
  147.1862  132.8418  153.7538 H   0  0  0  0  0  0  0  0  0  0  0  0
  147.5915  134.4881  153.3434 H   0  0  0  0  0  0  0  0  0  0  0  0
  144.7749  134.8943  155.4930 H   0  0  0  0  0  0  0  0  0  0  0  0
  149.2675  136.2010  160.3008 H   0  0  0  0  0  0  0  0  0  0  0  0
  147.9770  136.9291  159.3618 H   0  0  0  0  0  0  0  0  0  0  0  0
  147.8725  137.6202  161.7640 H   0  0  0  0  0  0  0  0  0  0  0  0
  146.4231  136.7765  161.2651 H   0  0  0  0  0  0  0  0  0  0  0  0
  148.7688  135.5607  162.8075 H   0  0  0  0  0  0  0  0  0  0  0  0
  147.1791  135.9016  163.4547 H   0  0  0  0  0  0  0  0  0  0  0  0
  147.4294  133.5090  162.8638 H   0  0  0  0  0  0  0  0  0  0  0  0
  146.1455  134.2605  161.9577 H   0  0  0  0  0  0  0  0  0  0  0  0
  148.9793  133.7378  160.9411 H   0  0  0  0  0  0  0  0  0  0  0  0
  147.9036  132.2307  159.2544 H   0  0  0  0  0  0  0  0  0  0  0  0
  145.3860  133.1586  160.3951 H   0  0  0  0  0  0  0  0  0  0  0  0
  145.6408  132.1283  159.0111 H   0  0  0  0  0  0  0  0  0  0  0  0
  144.5121  131.2088  161.3855 H   0  0  0  0  0  0  0  0  0  0  0  0
  145.3557  130.1854  160.2298 H   0  0  0  0  0  0  0  0  0  0  0  0
  146.4881  131.4334  162.7485 H   0  0  0  0  0  0  0  0  0  0  0  0
  146.6309  129.7590  162.2213 H   0  0  0  0  0  0  0  0  0  0  0  0
  148.0700  130.3513  160.3981 H   0  0  0  0  0  0  0  0  0  0  0  0
  149.7387  131.5130  161.3196 H   0  0  0  0  0  0  0  0  0  0  0  0
  150.8990  133.5532  156.9783 H   0  0  0  0  0  0  0  0  0  0  0  0
  146.0065  133.6822  151.0421 H   0  0  0  0  0  0  0  0  0  0  0  0
  143.1955  133.0173  151.9654 H   0  0  0  0  0  0  0  0  0  0  0  0
  143.6675  134.1544  150.6945 H   0  0  0  0  0  0  0  0  0  0  0  0
  143.0304  131.6640  149.9501 H   0  0  0  0  0  0  0  0  0  0  0  0
  144.5338  132.3422  149.3100 H   0  0  0  0  0  0  0  0  0  0  0  0
  146.6721  131.5036  151.6321 H   0  0  0  0  0  0  0  0  0  0  0  0
  145.4007  131.3255  152.8431 H   0  0  0  0  0  0  0  0  0  0  0  0
  1  2  1  0  0  0  0
  1 31  1  0  0  0  0
  2  3  1  0  0  0  0
  2 32  1  0  0  0  0
  2 33  1  0  0  0  0
  3  4  1  0  0  0  0
  3 26  1  0  0  0  0
  3 34  1  0  0  0  0
  4  5  1  0  0  0  0
  4 35  1  0  0  0  0
  4 36  1  0  0  0  0
  5 25  1  0  0  0  0
  5  6  1  0  0  0  0
  6  7  2  0  0  0  0
  6 37  1  0  0  0  0
  7  8  1  0  0  0  0
  8 25  2  0  0  0  0
  8  9  1  0  0  0  0
  9 10  1  0  0  0  0
  9 22  2  0  0  0  0
 10 15  1  0  0  0  0
 10 11  1  0  0  0  0
 11 12  1  0  0  0  0
 11 38  1  0  0  0  0
 11 39  1  0  0  0  0
 12 13  1  0  0  0  0
 12 40  1  0  0  0  0
 12 41  1  0  0  0  0
 13 14  1  0  0  0  0
 13 42  1  0  0  0  0
 13 43  1  0  0  0  0
 14 15  1  0  0  0  0
 14 44  1  0  0  0  0
 14 45  1  0  0  0  0
 15 16  1  0  0  0  0
 15 46  1  0  0  0  0
 16 20  1  0  0  0  0
 16 17  1  0  0  0  0
 16 47  1  0  0  0  0
 17 18  1  0  0  0  0
 17 48  1  0  0  0  0
 17 49  1  0  0  0  0
 18 19  1  0  0  0  0
 18 50  1  0  0  0  0
 18 51  1  0  0  0  0
 19 20  1  0  0  0  0
 19 52  1  0  0  0  0
 19 53  1  0  0  0  0
 20 21  1  0  0  0  0
 20 54  1  0  0  0  0
 21 55  1  0  0  0  0
 22 23  1  0  0  0  0
 23 24  2  0  0  0  0
 23 56  1  0  0  0  0
 24 25  1  0  0  0  0
 26 30  1  0  0  0  0
 26 27  1  0  0  0  0
 26 57  1  0  0  0  0
 27 28  1  0  0  0  0
 27 58  1  0  0  0  0
 27 59  1  0  0  0  0
 28 29  1  0  0  0  0
 28 60  1  0  0  0  0
 28 61  1  0  0  0  0
 29 30  1  0  0  0  0
 30 62  1  0  0  0  0
 30 63  1  0  0  0  0
M  END
> <s_m_source_file>
AV-unprocessed.smi

> <i_m_source_file_index>
148

> <i_lp_mmshare_version>
43012

> <i_f3d_flags>
0

> <s_epik_input>
W0NIMl0xT1tDSDJdW0NIMl1bQ0BIXTFbQ0BIXShbQ0gyXVtPSF0pW0NIMl1uKFtjSF1uMiljKGMyMyluW2NIXW5jM040W0NIMl1bQ0gyXVtDSDJdW0NIMl1bQ0BIXTRbQ0BASF01W0NIMl1bQ0gyXVtDSDJdW0NASF01W09IXQ==

> <s_epik_cmdline>
J2VwaWtfcHl0aG9uJywgJy1waCcsICc3LjAnLCAnLXRuJywgJzgnLCAnLW1hJywgJzIwMCcsICctbWV0YWxfYmluZGluZycsICctaW1hZScsICc8aW5maWxlLm1hZT4nLCAnLW9tYWUnLCAnPG91dGZpbGUubWFlPic=

> <r_lp_tautomer_probability>
1

> <r_epik_Ionization_Penalty>
0.00556303

> <r_epik_Ionization_Penalty_Charging>
0

> <r_epik_Ionization_Penalty_Neutral>
0.00556303

> <r_epik_State_Penalty>
0.00401767

> <r_epik_Charging_Adjusted_Penalty>
0.00401767

> <i_epik_Tot_Q>
0

> <i_epik_Tot_abs_Q>
0

> <r_epik_Metal_State_Penalty>
-0

> <b_epik_Metal_Only>
0

> <s_lp_Force_Field>
OPLS_2005

> <r_lp_Energy>
71.2164

> <b_lp_Chiralities_Consistent>
1

> <s_lp_Variant>
AV-unprocessed.smi:148-9

> <Gold.Version>
5.8.1

> <Gold.Id.Protein>
6NUR|6NUR_protein|mol2

> <Gold.PLP.Fitness>
42.2875

> <Gold.PLP.PLP>
-36.8867

> <Gold.PLP.part.hbond>
-1.8131

> <Gold.PLP.part.metal>
0.0000

> <Gold.PLP.part.buried>
-6.7251

> <Gold.PLP.part.nonpolar>
-28.5129

> <Gold.PLP.part.repulsive>
0.1236

> <Gold.PLP.ligand.clash>
0.0000

> <Gold.PLP.ligand.torsion>
0.5069

> <Gold.PLP.Chemscore.Hbond>
2.0000

> <Gold.PLP.Chemscore.CHOScore>
0.0000

> <Gold.PLP.Chemscore.Metal>
0.0000

> <Gold.Chemscore.Hbonds>
donor molecule, donor type, donor heavy atom, donor atom, acceptor molecule, acceptor atom, score
      L1  H     1    31       P1  7948  0.83
      P1  H  6896  6907       L1    22  0.98

> <Gold.PLP.Chemscore.Internal.Correction>
0.4146

> <Gold.Rescore>
     Score         DG    S(hbond)    S(metal)    S(lipo)     H(rot)  DE(clash)    DE(int)     intcor
     13.49     -14.10       1.93        0.00      91.36       3.32       0.01       0.61       ----

> <Gold.Chemscore.Fitness>
13.4865

> <Gold.Chemscore.DG>
-14.1000

> <Gold.Chemscore.ZeroCoef>
-5.4800

> <Gold.Chemscore.Hbond>
1.9254

> <Gold.Chemscore.Metal>
0.0000

> <Gold.Chemscore.Lipo>
91.3594

> <Gold.Chemscore.Internal_Hbond>
0.0000

> <Gold.Chemscore.DEClash>
0.0073

> <Gold.Chemscore.DEInternal>
0.6062

> <Gold.Chemscore.Rot>
3.3203

> <Gold.Chemscore.Internal.Correction>
   9.000000E+99

> <Gold.Chemscore.Hbonds>
donor molecule, donor type, donor heavy atom, donor atom, acceptor molecule, acceptor atom, score
      L1  H     1    31       P1  7948  0.77
      P1  H  6896  6907       L1    22  0.42

> <Gold.Chemscore.Hbond.Weighted>
-6.4310

> <Gold.Chemscore.Metal.Weighted>
-0.0000

> <Gold.Chemscore.Lipo.Weighted>
-10.6890

> <Gold.Chemscore.Internal_Hbond.Weighted>
0.0000

> <Gold.Chemscore.DEClash.Weighted>
0.0073

> <Gold.Chemscore.DEInternal.Weighted>
0.6062

> <Gold.Chemscore.Rot.Weighted>
8.5000

> <Gold.Chemscore.Internal.Correction.Weighted>
   9.000000E+99

> <Gold.Protein.RotatedTorsions>
[ 6907 6896 6895 6894 ] final -120.56 input  -60.11 | X-H torsion
[ 7974 7965 7964 7962 ] final   38.01 input  175.53 | X-H torsion
[ 8008 7997 7996 7995 ] final -154.79 input   59.86 | X-H torsion
[ 10167 10162 10161 10158 ] final  133.07 input  -65.29 | X-H torsion
[ 10718 10713 10712 10709 ] final -136.37 input   66.30 | X-H torsion
[ 10763 10752 10751 10750 ] final  167.09 input  -60.55 | X-H torsion
[ 11005 11000 10999 10996 ] final  177.50 input  -57.11 | X-H torsion

> <Gold.Protein.ActiveResidues>
 VAL166  LYS551  ARG553  GLY616  TRP617  ASP618  TYR619  PRO620  LYS621  CYS622 
 ASP623  PHE694  ASN695  SER759  ASP760  ASP761  ALA762  ILE779  LEU786  VAL792 
 PHE793  MET794  SER795  GLU796  ALA797  LYS798  CYS799  TRP800  GLU811  SER814 

> <Gold.Protein.RotatedAtoms>
  150.8404  133.7945  159.3062 H   0  0  0  0  0  0  0  0  0  0  0  0  # atno 6907 bound_to 6896
  151.5648  135.1063  159.9991 H   0  0  0  0  0  0  0  0  0  0  0  0  # atno 6908 bound_to 6896
  152.4469  133.7511  159.6750 H   0  0  0  0  0  0  0  0  0  0  0  0  # atno 6909 bound_to 6896
  146.1094  139.5824  142.9362 H   0  0  0  0  0  0  0  0  0  0  0  0  # atno 7974 bound_to 7965
  155.6918  140.0756  157.2445 H   0  0  0  0  0  0  0  0  0  0  0  0  # atno 8008 bound_to 7997
  154.4087  140.1663  156.2147 H   0  0  0  0  0  0  0  0  0  0  0  0  # atno 8009 bound_to 7997
  155.9445  140.3382  155.6358 H   0  0  0  0  0  0  0  0  0  0  0  0  # atno 8010 bound_to 7997
  139.5312  144.6633  151.4943 H   0  0  0  0  0  0  0  0  0  0  0  0  # atno 10167 bound_to 10162
  156.2763  130.7295  151.1278 H   0  0  0  0  0  0  0  0  0  0  0  0  # atno 10718 bound_to 10713
  154.3487  135.2753  155.2384 H   0  0  0  0  0  0  0  0  0  0  0  0  # atno 10763 bound_to 10752
  154.4622  135.5904  153.6267 H   0  0  0  0  0  0  0  0  0  0  0  0  # atno 10764 bound_to 10752
  152.9851  135.6068  154.3695 H   0  0  0  0  0  0  0  0  0  0  0  0  # atno 10765 bound_to 10752
  140.3848  134.6914  157.4473 H   0  0  0  0  0  0  0  0  0  0  0  0  # atno 11005 bound_to 11000
  145.5694  141.0396  143.2182 LP  0  0  0  0  0  0  0  0  0  0  0  0  # atno 17320 bound_to 7965
  144.7499  139.7222  143.7277 LP  0  0  0  0  0  0  0  0  0  0  0  0  # atno 17321 bound_to 7965
  140.6492  143.8732  150.6768 LP  0  0  0  0  0  0  0  0  0  0  0  0  # atno 17342 bound_to 10162
  140.2091  143.3897  152.1732 LP  0  0  0  0  0  0  0  0  0  0  0  0  # atno 17343 bound_to 10162
  157.7300  131.0619  150.5746 LP  0  0  0  0  0  0  0  0  0  0  0  0  # atno 17370 bound_to 10713
  156.5847  130.4313  149.5962 LP  0  0  0  0  0  0  0  0  0  0  0  0  # atno 17371 bound_to 10713
  140.0451  134.6211  155.8932 LP  0  0  0  0  0  0  0  0  0  0  0  0  # atno 17394 bound_to 11000
  141.1911  133.6570  156.5441 LP  0  0  0  0  0  0  0  0  0  0  0  0  # atno 17395 bound_to 11000

$$$$
