AV-unprocessed.smi:2528|AV-procd|sdf|9948|dock6
  -GOLD-   2272013593D 1   1.00000     0.00000
 Structure written by MMmdl.
 44 46  0  0  0  0  0  0  0  0  2 V2000
  150.3382  140.4702  156.2655 O   0  0  0  0  0  0  0  0  0  0  0  0
  150.0132  141.6359  156.0395 C   0  0  0  0  0  0  0  0  0  0  0  0
  149.1899  141.9922  155.0429 N   0  0  0  0  0  0  0  0  0  0  0  0
  148.5646  141.0698  154.0983 C   0  0  0  0  0  0  0  0  0  0  0  0
  147.0350  140.9644  154.2717 C   0  0  2  0  0  0  0  0  0  0  0  0
  146.3310  142.3280  154.4312 C   0  0  0  0  0  0  0  0  0  0  0  0
  144.8733  142.1419  154.6151 N   0  3  2  0  0  0  0  0  0  0  0  0
  144.1502  143.4332  154.7355 C   0  0  0  0  0  0  0  0  0  0  0  0
  142.6329  143.2103  154.8326 C   0  0  0  0  0  0  0  0  0  0  0  0
  142.2937  142.2827  156.0060 C   0  0  0  0  0  0  0  0  0  0  0  0
  143.0714  140.9664  155.8750 C   0  0  0  0  0  0  0  0  0  0  0  0
  144.5874  141.2183  155.7470 C   0  0  1  0  0  0  0  0  0  0  0  0
  145.3557  139.8965  155.5519 C   0  0  0  0  0  0  0  0  0  0  0  0
  146.7454  140.1558  155.4064 O   0  0  0  0  0  0  0  0  0  0  0  0
  150.4235  142.7078  156.7400 N   0  0  0  0  0  0  0  0  0  0  0  0
  151.2718  142.7384  157.8790 C   0  0  0  0  0  0  0  0  0  0  0  0
  151.6559  144.0300  158.3053 C   0  0  0  0  0  0  0  0  0  0  0  0
  152.4955  144.1677  159.4279 C   0  0  0  0  0  0  0  0  0  0  0  0
  152.9291  143.0089  160.0963 C   0  0  0  0  0  0  0  0  0  0  0  0
  152.4988  141.7615  159.6081 C   0  0  0  0  0  0  0  0  0  0  0  0
  151.6939  141.6272  158.5329 N   0  0  0  0  0  0  0  0  0  0  0  0
  148.9829  142.9733  154.9253 H   0  0  0  0  0  0  0  0  0  0  0  0
  148.7876  141.4330  153.0948 H   0  0  0  0  0  0  0  0  0  0  0  0
  149.0234  140.0822  154.1704 H   0  0  0  0  0  0  0  0  0  0  0  0
  146.6403  140.4625  153.3864 H   0  0  0  0  0  0  0  0  0  0  0  0
  146.7299  142.8701  155.2900 H   0  0  0  0  0  0  0  0  0  0  0  0
  146.5123  142.9442  153.5497 H   0  0  0  0  0  0  0  0  0  0  0  0
  144.5064  143.9715  155.6154 H   0  0  0  0  0  0  0  0  0  0  0  0
  144.3727  144.0578  153.8695 H   0  0  0  0  0  0  0  0  0  0  0  0
  142.1215  144.1658  154.9524 H   0  0  0  0  0  0  0  0  0  0  0  0
  142.2648  142.7763  153.9020 H   0  0  0  0  0  0  0  0  0  0  0  0
  142.5477  142.7703  156.9481 H   0  0  0  0  0  0  0  0  0  0  0  0
  141.2215  142.0862  156.0341 H   0  0  0  0  0  0  0  0  0  0  0  0
  142.8693  140.3335  156.7400 H   0  0  0  0  0  0  0  0  0  0  0  0
  142.7119  140.4195  155.0022 H   0  0  0  0  0  0  0  0  0  0  0  0
  144.9420  141.6895  156.6660 H   0  0  0  0  0  0  0  0  0  0  0  0
  145.2133  139.2472  156.4160 H   0  0  0  0  0  0  0  0  0  0  0  0
  144.9864  139.3513  154.6817 H   0  0  0  0  0  0  0  0  0  0  0  0
  150.0893  143.6062  156.4249 H   0  0  0  0  0  0  0  0  0  0  0  0
  151.3151  144.9104  157.7801 H   0  0  0  0  0  0  0  0  0  0  0  0
  152.8012  145.1458  159.7685 H   0  0  0  0  0  0  0  0  0  0  0  0
  153.5738  143.0739  160.9603 H   0  0  0  0  0  0  0  0  0  0  0  0
  152.8084  140.8474  160.0928 H   0  0  0  0  0  0  0  0  0  0  0  0
  144.5290  141.6915  153.7793 H   0  0  0  0  0  0  0  0  0  0  0  0
  1  2  2  0  0  0  0
  2  3  1  0  0  0  0
  2 15  1  0  0  0  0
  3  4  1  0  0  0  0
  3 22  1  0  0  0  0
  4  5  1  0  0  0  0
  4 23  1  0  0  0  0
  4 24  1  0  0  0  0
  5 14  1  0  0  0  0
  5  6  1  0  0  0  0
  5 25  1  0  0  0  0
  6  7  1  0  0  0  0
  6 26  1  0  0  0  0
  6 27  1  0  0  0  0
  7 12  1  0  0  0  0
  7  8  1  0  0  0  0
  7 44  1  0  0  0  0
  8  9  1  0  0  0  0
  8 28  1  0  0  0  0
  8 29  1  0  0  0  0
  9 10  1  0  0  0  0
  9 30  1  0  0  0  0
  9 31  1  0  0  0  0
 10 11  1  0  0  0  0
 10 32  1  0  0  0  0
 10 33  1  0  0  0  0
 11 12  1  0  0  0  0
 11 34  1  0  0  0  0
 11 35  1  0  0  0  0
 12 13  1  0  0  0  0
 12 36  1  0  0  0  0
 13 14  1  0  0  0  0
 13 37  1  0  0  0  0
 13 38  1  0  0  0  0
 15 16  1  0  0  0  0
 15 39  1  0  0  0  0
 16 21  1  0  0  0  0
 16 17  2  0  0  0  0
 17 18  1  0  0  0  0
 17 40  1  0  0  0  0
 18 19  2  0  0  0  0
 18 41  1  0  0  0  0
 19 20  1  0  0  0  0
 19 42  1  0  0  0  0
 20 21  2  0  0  0  0
 20 43  1  0  0  0  0
M  CHG  1   7   1
M  END
> <s_m_source_file>
AV-unprocessed.smi

> <i_m_source_file_index>
2528

> <i_lp_mmshare_version>
43012

> <i_f3d_flags>
0

> <s_epik_input>
bjFbY0hdW2NIXVtjSF1bY0hdYzFbTkhdQyg9TylbTkhdW0NIMl1bQ0BIXShbQ0gyXTIpT1tDSDJdW0NAQEhdKE4yMylbQ0gyXVtDSDJdW0NIMl1bQ0gyXTM=

> <s_epik_cmdline>
J2VwaWtfcHl0aG9uJywgJy1waCcsICc3LjAnLCAnLXRuJywgJzgnLCAnLW1hJywgJzIwMCcsICctbWV0YWxfYmluZGluZycsICctaW1hZScsICc8aW5maWxlLm1hZT4nLCAnLW9tYWUnLCAnPG91dGZpbGUubWFlPic=

> <r_epik_Ionization_Penalty>
0.0932337

> <r_epik_Ionization_Penalty_Charging>
0.0931942

> <r_epik_Ionization_Penalty_Neutral>
3.9565e-05

> <r_epik_State_Penalty>
0.0834605

> <r_epik_Charging_Adjusted_Penalty>
0.176655

> <i_epik_Tot_Q>
1

> <i_epik_Tot_abs_Q>
1

> <r_epik_Metal_State_Penalty>
0.0834607

> <b_epik_Metal_Only>
0

> <s_lp_Force_Field>
OPLS_2005

> <r_lp_Energy>
24.6959

> <b_lp_Chiralities_Consistent>
1

> <s_lp_Variant>
AV-unprocessed.smi:2528-1

> <Gold.Version>
5.8.1

> <Gold.Id.Protein>
6NUR|6NUR_protein|mol2

> <Gold.PLP.Fitness>
47.5321

> <Gold.PLP.PLP>
-35.8533

> <Gold.PLP.part.hbond>
-2.9986

> <Gold.PLP.part.metal>
0.0000

> <Gold.PLP.part.buried>
-5.4932

> <Gold.PLP.part.nonpolar>
-28.8648

> <Gold.PLP.part.repulsive>
0.3241

> <Gold.PLP.ligand.clash>
0.0000

> <Gold.PLP.ligand.torsion>
0.1616

> <Gold.PLP.Chemscore.Hbond>
4.0000

> <Gold.PLP.Chemscore.CHOScore>
0.0000

> <Gold.PLP.Chemscore.Metal>
0.0000

> <Gold.Chemscore.Hbonds>
donor molecule, donor type, donor heavy atom, donor atom, acceptor molecule, acceptor atom, score
      L1  H     3    22       P1  8028  1.00
      L1  H     7    44       P1 10175  1.20
      L1  H    15    39       P1  8028  1.00

> <Gold.PLP.Chemscore.Internal.Correction>
0.0020

> <Gold.Rescore>
     Score         DG    S(hbond)    S(metal)    S(lipo)     H(rot)  DE(clash)    DE(int)     intcor
     19.08     -20.45       2.88        0.00      74.00       1.29       0.01       1.37       ----

> <Gold.Chemscore.Fitness>
19.0783

> <Gold.Chemscore.DG>
-20.4548

> <Gold.Chemscore.ZeroCoef>
-5.4800

> <Gold.Chemscore.Hbond>
2.8778

> <Gold.Chemscore.Metal>
0.0000

> <Gold.Chemscore.Lipo>
73.9980

> <Gold.Chemscore.Internal_Hbond>
0.0000

> <Gold.Chemscore.DEClash>
0.0075

> <Gold.Chemscore.DEInternal>
1.3690

> <Gold.Chemscore.Rot>
1.2870

> <Gold.Chemscore.Internal.Correction>
   9.000000E+99

> <Gold.Chemscore.Hbonds>
donor molecule, donor type, donor heavy atom, donor atom, acceptor molecule, acceptor atom, score
      L1  H     3    22       P1  8028  0.95
      L1  H     7    44       P1 10175  0.04
      L1  H    15    39       P1  8028  0.98

> <Gold.Chemscore.Hbond.Weighted>
-9.6118

> <Gold.Chemscore.Metal.Weighted>
-0.0000

> <Gold.Chemscore.Lipo.Weighted>
-8.6578

> <Gold.Chemscore.Internal_Hbond.Weighted>
0.0000

> <Gold.Chemscore.DEClash.Weighted>
0.0075

> <Gold.Chemscore.DEInternal.Weighted>
1.3690

> <Gold.Chemscore.Rot.Weighted>
3.2948

> <Gold.Chemscore.Internal.Correction.Weighted>
   9.000000E+99

> <Gold.Protein.RotatedTorsions>
[ 6907 6896 6895 6894 ] final -104.36 input  -60.11 | X-H torsion
[ 7974 7965 7964 7962 ] final  118.82 input  175.53 | X-H torsion
[ 8008 7997 7996 7995 ] final  -59.85 input   59.86 | X-H torsion
[ 10167 10162 10161 10158 ] final -177.27 input  -65.29 | X-H torsion
[ 10718 10713 10712 10709 ] final  -93.24 input   66.30 | X-H torsion
[ 10763 10752 10751 10750 ] final -148.77 input  -60.55 | X-H torsion
[ 11005 11000 10999 10996 ] final  -22.89 input  -57.11 | X-H torsion

> <Gold.Protein.ActiveResidues>
 VAL166  LYS551  ARG553  GLY616  TRP617  ASP618  TYR619  PRO620  LYS621  CYS622 
 ASP623  PHE694  ASN695  SER759  ASP760  ASP761  ALA762  ILE779  LEU786  VAL792 
 PHE793  MET794  SER795  GLU796  ALA797  LYS798  CYS799  TRP800  GLU811  SER814 

> <Gold.Protein.RotatedAtoms>
  150.7284  134.0289  159.3726 H   0  0  0  0  0  0  0  0  0  0  0  0  # atno 6907 bound_to 6896
  151.8257  135.0635  160.0440 H   0  0  0  0  0  0  0  0  0  0  0  0  # atno 6908 bound_to 6896
  152.2970  133.5581  159.5630 H   0  0  0  0  0  0  0  0  0  0  0  0  # atno 6909 bound_to 6896
  145.1506  139.3213  143.4568 H   0  0  0  0  0  0  0  0  0  0  0  0  # atno 7974 bound_to 7965
  154.4371  140.1052  156.6180 H   0  0  0  0  0  0  0  0  0  0  0  0  # atno 8008 bound_to 7997
  155.5738  140.3489  155.4503 H   0  0  0  0  0  0  0  0  0  0  0  0  # atno 8009 bound_to 7997
  156.0370  140.1273  157.0186 H   0  0  0  0  0  0  0  0  0  0  0  0  # atno 8010 bound_to 7997
  139.5489  144.2163  152.1039 H   0  0  0  0  0  0  0  0  0  0  0  0  # atno 10167 bound_to 10162
  156.0011  130.5019  150.5746 H   0  0  0  0  0  0  0  0  0  0  0  0  # atno 10718 bound_to 10713
  154.8215  135.3326  154.7025 H   0  0  0  0  0  0  0  0  0  0  0  0  # atno 10763 bound_to 10752
  153.7657  135.6929  153.4921 H   0  0  0  0  0  0  0  0  0  0  0  0  # atno 10764 bound_to 10752
  153.2079  135.4492  155.0294 H   0  0  0  0  0  0  0  0  0  0  0  0  # atno 10765 bound_to 10752
  140.8700  133.7727  156.0175 H   0  0  0  0  0  0  0  0  0  0  0  0  # atno 11005 bound_to 11000
  146.3495  140.1579  142.8591 LP  0  0  0  0  0  0  0  0  0  0  0  0  # atno 17320 bound_to 7965
  145.0435  140.8963  143.5038 LP  0  0  0  0  0  0  0  0  0  0  0  0  # atno 17321 bound_to 7965
  140.1654  144.4986  150.6609 LP  0  0  0  0  0  0  0  0  0  0  0  0  # atno 17342 bound_to 10162
  140.6745  143.2299  151.5541 LP  0  0  0  0  0  0  0  0  0  0  0  0  # atno 17343 bound_to 10162
  157.3636  131.0754  151.1616 LP  0  0  0  0  0  0  0  0  0  0  0  0  # atno 17370 bound_to 10713
  157.2393  130.6562  149.5883 LP  0  0  0  0  0  0  0  0  0  0  0  0  # atno 17371 bound_to 10713
  140.8585  134.2869  157.5245 LP  0  0  0  0  0  0  0  0  0  0  0  0  # atno 17394 bound_to 11000
  139.8711  134.9505  156.4058 LP  0  0  0  0  0  0  0  0  0  0  0  0  # atno 17395 bound_to 11000

$$$$
