AV-unprocessed.smi:3348|AV-procd|sdf|12918|dock2
  -GOLD-   2272019333D 1   1.00000     0.00000
 Structure written by MMmdl.
 47 48  0  0  0  0  0  0  0  0  2 V2000
  144.0107  136.7149  152.5622 C   0  0  0  0  0  0  0  0  0  0  0  0
  145.4169  136.1933  152.2063 C   0  0  1  0  0  0  0  0  0  0  0  0
  145.4747  135.5806  150.7914 C   0  0  0  0  0  0  0  0  0  0  0  0
  145.2701  134.1433  150.7851 N   0  0  0  0  0  0  0  0  0  0  0  0
  144.0816  133.4437  150.7803 C   0  0  0  0  0  0  0  0  0  0  0  0
  144.3933  132.1144  150.7701 C   0  0  0  0  0  0  0  0  0  0  0  0
  145.8161  132.1005  150.7625 C   0  0  0  0  0  0  0  0  0  0  0  0
  146.3376  133.3168  150.7699 N   0  0  0  0  0  0  0  0  0  0  0  0
  146.4296  137.2675  152.3119 N   0  3  0  0  0  0  0  0  0  0  0  0
  146.4283  138.0207  153.5841 C   0  0  0  0  0  0  0  0  0  0  0  0
  147.1759  139.3485  153.4318 C   0  0  0  0  0  0  0  0  0  0  0  0
  148.3730  139.2765  154.1911 O   0  0  0  0  0  0  0  0  0  0  0  0
  149.1764  140.4518  154.1546 C   0  0  1  0  0  0  0  0  0  0  0  0
  148.3132  141.7097  154.3918 C   0  0  0  0  0  0  0  0  0  0  0  0
  147.7000  141.7202  155.8016 C   0  0  0  0  0  0  0  0  0  0  0  0
  148.7856  141.5898  156.8807 C   0  0  0  0  0  0  0  0  0  0  0  0
  149.6528  140.3409  156.6543 C   0  0  0  0  0  0  0  0  0  0  0  0
  150.2689  140.3277  155.2405 C   0  0  1  0  0  0  0  0  0  0  0  0
  151.1668  139.1002  155.0195 C   0  0  0  0  0  0  0  0  0  0  0  0
  143.2655  135.9210  152.5098 H   0  0  0  0  0  0  0  0  0  0  0  0
  143.6986  137.5066  151.8804 H   0  0  0  0  0  0  0  0  0  0  0  0
  143.9697  137.1125  153.5758 H   0  0  0  0  0  0  0  0  0  0  0  0
  145.6869  135.4120  152.9187 H   0  0  0  0  0  0  0  0  0  0  0  0
  144.7195  136.0380  150.1503 H   0  0  0  0  0  0  0  0  0  0  0  0
  146.4411  135.7869  150.3287 H   0  0  0  0  0  0  0  0  0  0  0  0
  143.1239  133.9429  150.7876 H   0  0  0  0  0  0  0  0  0  0  0  0
  143.7095  131.2783  150.7663 H   0  0  0  0  0  0  0  0  0  0  0  0
  146.4803  131.2491  150.7510 H   0  0  0  0  0  0  0  0  0  0  0  0
  147.3389  136.8345  152.2297 H   0  0  0  0  0  0  0  0  0  0  0  0
  145.4011  138.2209  153.8876 H   0  0  0  0  0  0  0  0  0  0  0  0
  146.8886  137.4244  154.3731 H   0  0  0  0  0  0  0  0  0  0  0  0
  147.3943  139.5434  152.3806 H   0  0  0  0  0  0  0  0  0  0  0  0
  146.5463  140.1615  153.7925 H   0  0  0  0  0  0  0  0  0  0  0  0
  149.6682  140.5287  153.1832 H   0  0  0  0  0  0  0  0  0  0  0  0
  148.9350  142.5972  154.2680 H   0  0  0  0  0  0  0  0  0  0  0  0
  147.5262  141.7931  153.6431 H   0  0  0  0  0  0  0  0  0  0  0  0
  147.1350  142.6402  155.9536 H   0  0  0  0  0  0  0  0  0  0  0  0
  146.9867  140.9009  155.8981 H   0  0  0  0  0  0  0  0  0  0  0  0
  149.4173  142.4790  156.8718 H   0  0  0  0  0  0  0  0  0  0  0  0
  148.3248  141.5486  157.8681 H   0  0  0  0  0  0  0  0  0  0  0  0
  150.4429  140.3070  157.4052 H   0  0  0  0  0  0  0  0  0  0  0  0
  149.0486  139.4453  156.8047 H   0  0  0  0  0  0  0  0  0  0  0  0
  150.9103  141.2064  155.1574 H   0  0  0  0  0  0  0  0  0  0  0  0
  150.6047  138.1706  155.1124 H   0  0  0  0  0  0  0  0  0  0  0  0
  151.9757  139.0713  155.7498 H   0  0  0  0  0  0  0  0  0  0  0  0
  151.6199  139.1185  154.0281 H   0  0  0  0  0  0  0  0  0  0  0  0
  146.3119  137.9095  151.5413 H   0  0  0  0  0  0  0  0  0  0  0  0
  1  2  1  0  0  0  0
  1 20  1  0  0  0  0
  1 21  1  0  0  0  0
  1 22  1  0  0  0  0
  2  3  1  0  0  0  0
  2  9  1  0  0  0  0
  2 23  1  0  0  0  0
  3  4  1  0  0  0  0
  3 24  1  0  0  0  0
  3 25  1  0  0  0  0
  4  8  1  0  0  0  0
  4  5  1  0  0  0  0
  5  6  2  0  0  0  0
  5 26  1  0  0  0  0
  6  7  1  0  0  0  0
  6 27  1  0  0  0  0
  7  8  2  0  0  0  0
  7 28  1  0  0  0  0
  9 10  1  0  0  0  0
  9 29  1  0  0  0  0
  9 47  1  0  0  0  0
 10 11  1  0  0  0  0
 10 30  1  0  0  0  0
 10 31  1  0  0  0  0
 11 12  1  0  0  0  0
 11 32  1  0  0  0  0
 11 33  1  0  0  0  0
 12 13  1  0  0  0  0
 13 18  1  0  0  0  0
 13 14  1  0  0  0  0
 13 34  1  0  0  0  0
 14 15  1  0  0  0  0
 14 35  1  0  0  0  0
 14 36  1  0  0  0  0
 15 16  1  0  0  0  0
 15 37  1  0  0  0  0
 15 38  1  0  0  0  0
 16 17  1  0  0  0  0
 16 39  1  0  0  0  0
 16 40  1  0  0  0  0
 17 18  1  0  0  0  0
 17 41  1  0  0  0  0
 17 42  1  0  0  0  0
 18 19  1  0  0  0  0
 18 43  1  0  0  0  0
 19 44  1  0  0  0  0
 19 45  1  0  0  0  0
 19 46  1  0  0  0  0
M  CHG  1   9   1
M  END
> <s_m_source_file>
AV-unprocessed.smi

> <i_m_source_file_index>
3348

> <i_lp_mmshare_version>
43012

> <i_f3d_flags>
0

> <s_epik_input>
bjFbY0hdW2NIXVtjSF1uMVtDSDJdW0NAQEhdKFtDSDNdKVtOSF1bQ0gyXVtDSDJdT1tDQEBIXTJbQ0gyXVtDSDJdW0NIMl1bQ0gyXVtDQEhdMltDSDNd

> <s_epik_cmdline>
J2VwaWtfcHl0aG9uJywgJy1waCcsICc3LjAnLCAnLXRuJywgJzgnLCAnLW1hJywgJzIwMCcsICctbWV0YWxfYmluZGluZycsICctaW1hZScsICc8aW5maWxlLm1hZT4nLCAnLW9tYWUnLCAnPG91dGZpbGUubWFlPic=

> <r_lp_tautomer_probability>
1

> <r_epik_Ionization_Penalty>
0.00925088

> <r_epik_Ionization_Penalty_Charging>
0.00924645

> <r_epik_Ionization_Penalty_Neutral>
4.42413e-06

> <r_epik_State_Penalty>
0.0070118

> <r_epik_Charging_Adjusted_Penalty>
0.0162583

> <i_epik_Tot_Q>
1

> <i_epik_Tot_abs_Q>
1

> <r_epik_Metal_State_Penalty>
0.00701222

> <b_epik_Metal_Only>
0

> <s_lp_Force_Field>
OPLS_2005

> <r_lp_Energy>
16.697

> <b_lp_Chiralities_Consistent>
1

> <s_lp_Variant>
AV-unprocessed.smi:3348-4

> <Gold.Version>
5.8.1

> <Gold.Id.Protein>
6NUR|6NUR_protein|mol2

> <Gold.PLP.Fitness>
45.3165

> <Gold.PLP.PLP>
-35.8287

> <Gold.PLP.part.hbond>
-1.0000

> <Gold.PLP.part.metal>
0.0000

> <Gold.PLP.part.buried>
-4.4972

> <Gold.PLP.part.nonpolar>
-31.1934

> <Gold.PLP.part.repulsive>
0.4028

> <Gold.PLP.ligand.clash>
0.0000

> <Gold.PLP.ligand.torsion>
1.3572

> <Gold.PLP.Chemscore.Hbond>
2.0000

> <Gold.PLP.Chemscore.CHOScore>
2.0000

> <Gold.PLP.Chemscore.Metal>
0.0000

> <Gold.Chemscore.Hbonds>
donor molecule, donor type, donor heavy atom, donor atom, acceptor molecule, acceptor atom, score
      L1  H     9    29       P1  7948  2.00
      L1  C     5    26       P1 10186  1.00
      L1  C     7    28       P1 10747  0.91

> <Gold.PLP.Chemscore.Internal.Correction>
0.2022

> <Gold.Rescore>
     Score         DG    S(hbond)    S(metal)    S(lipo)     H(rot)  DE(clash)    DE(int)     intcor
     13.89     -15.28       1.00        0.00      94.92       1.82       0.17       1.21       ----

> <Gold.Chemscore.Fitness>
13.8921

> <Gold.Chemscore.DG>
-15.2755

> <Gold.Chemscore.ZeroCoef>
-5.4800

> <Gold.Chemscore.Hbond>
0.9999

> <Gold.Chemscore.Metal>
0.0000

> <Gold.Chemscore.Lipo>
94.9181

> <Gold.Chemscore.Internal_Hbond>
0.0000

> <Gold.Chemscore.DEClash>
0.1686

> <Gold.Chemscore.DEInternal>
1.2148

> <Gold.Chemscore.Rot>
1.8163

> <Gold.Chemscore.Internal.Correction>
   9.000000E+99

> <Gold.Chemscore.Hbonds>
donor molecule, donor type, donor heavy atom, donor atom, acceptor molecule, acceptor atom, score
      L1  H     9    29       P1  7948  1.00

> <Gold.Chemscore.Hbond.Weighted>
-3.3398

> <Gold.Chemscore.Metal.Weighted>
-0.0000

> <Gold.Chemscore.Lipo.Weighted>
-11.1054

> <Gold.Chemscore.Internal_Hbond.Weighted>
0.0000

> <Gold.Chemscore.DEClash.Weighted>
0.1686

> <Gold.Chemscore.DEInternal.Weighted>
1.2148

> <Gold.Chemscore.Rot.Weighted>
4.6497

> <Gold.Chemscore.Internal.Correction.Weighted>
   9.000000E+99

> <Gold.Protein.RotatedTorsions>
[ 6907 6896 6895 6894 ] final  113.23 input  -60.11 | X-H torsion
[ 7974 7965 7964 7962 ] final  -45.97 input  175.53 | X-H torsion
[ 8008 7997 7996 7995 ] final  -94.54 input   59.86 | X-H torsion
[ 10167 10162 10161 10158 ] final -175.99 input  -65.29 | X-H torsion
[ 10718 10713 10712 10709 ] final    7.14 input   66.30 | X-H torsion
[ 10763 10752 10751 10750 ] final -172.91 input  -60.55 | X-H torsion
[ 11005 11000 10999 10996 ] final  -58.52 input  -57.11 | X-H torsion

> <Gold.Protein.ActiveResidues>
 VAL166  LYS551  ARG553  GLY616  TRP617  ASP618  TYR619  PRO620  LYS621  CYS622 
 ASP623  PHE694  ASN695  SER759  ASP760  ASP761  ALA762  ILE779  LEU786  VAL792 
 PHE793  MET794  SER795  GLU796  ALA797  LYS798  CYS799  TRP800  GLU811  SER814 

> <Gold.Protein.RotatedAtoms>
  152.4872  133.8405  159.7149 H   0  0  0  0  0  0  0  0  0  0  0  0  # atno 6907 bound_to 6896
  150.8969  133.7159  159.2896 H   0  0  0  0  0  0  0  0  0  0  0  0  # atno 6908 bound_to 6896
  151.4613  135.1042  159.9778 H   0  0  0  0  0  0  0  0  0  0  0  0  # atno 6909 bound_to 6896
  145.9767  140.7327  142.9384 H   0  0  0  0  0  0  0  0  0  0  0  0  # atno 7974 bound_to 7965
  154.7497  140.0488  157.0883 H   0  0  0  0  0  0  0  0  0  0  0  0  # atno 8008 bound_to 7997
  155.0073  140.3132  155.4824 H   0  0  0  0  0  0  0  0  0  0  0  0  # atno 8009 bound_to 7997
  156.2882  140.2190  156.5185 H   0  0  0  0  0  0  0  0  0  0  0  0  # atno 8010 bound_to 7997
  139.5552  144.2006  152.1148 H   0  0  0  0  0  0  0  0  0  0  0  0  # atno 10167 bound_to 10162
  156.9325  130.5831  149.5650 H   0  0  0  0  0  0  0  0  0  0  0  0  # atno 10718 bound_to 10713
  154.6139  135.2867  155.0402 H   0  0  0  0  0  0  0  0  0  0  0  0  # atno 10763 bound_to 10752
  154.1622  135.6486  153.4992 H   0  0  0  0  0  0  0  0  0  0  0  0  # atno 10764 bound_to 10752
  153.0206  135.5381  154.6902 H   0  0  0  0  0  0  0  0  0  0  0  0  # atno 10765 bound_to 10752
  141.1211  133.6612  156.4933 H   0  0  0  0  0  0  0  0  0  0  0  0  # atno 11005 bound_to 11000
  144.6850  140.2839  143.7288 LP  0  0  0  0  0  0  0  0  0  0  0  0  # atno 17320 bound_to 7965
  145.7829  139.1898  143.2147 LP  0  0  0  0  0  0  0  0  0  0  0  0  # atno 17321 bound_to 7965
  140.1509  144.5115  150.6688 LP  0  0  0  0  0  0  0  0  0  0  0  0  # atno 17342 bound_to 10162
  140.6824  143.2333  151.5350 LP  0  0  0  0  0  0  0  0  0  0  0  0  # atno 17343 bound_to 10162
  156.0441  130.5520  150.8839 LP  0  0  0  0  0  0  0  0  0  0  0  0  # atno 17370 bound_to 10713
  157.5838  131.0946  150.9229 LP  0  0  0  0  0  0  0  0  0  0  0  0  # atno 17371 bound_to 10713
  140.4506  134.6932  157.5037 LP  0  0  0  0  0  0  0  0  0  0  0  0  # atno 17394 bound_to 11000
  140.0168  134.6606  155.9297 LP  0  0  0  0  0  0  0  0  0  0  0  0  # atno 17395 bound_to 11000

$$$$
