AV-unprocessed.smi:37|AV-procd|sdf|333|dock2
  -GOLD-   2262016163D 1   1.00000     0.00000
 Structure written by MMmdl.
 43 44  0  0  0  0  0  0  0  0  2 V2000
  148.0478  145.0826  161.7333 C   0  0  0  0  0  0  0  0  0  0  0  0
  147.5788  144.9910  160.2730 C   0  0  0  0  0  0  0  0  0  0  0  0
  147.5299  143.5594  159.7344 C   0  0  0  0  0  0  0  0  0  0  0  0
  146.7748  142.7056  160.2022 O   0  0  0  0  0  0  0  0  0  0  0  0
  148.3973  143.3744  158.7226 O   0  0  0  0  0  0  0  0  0  0  0  0
  148.7424  142.0633  158.2956 C   0  0  0  0  0  0  0  0  0  0  0  0
  149.8471  142.1131  157.2219 C   0  0  2  0  0  0  0  0  0  0  0  0
  149.6793  140.9920  156.3514 O   0  0  0  0  0  0  0  0  0  0  0  0
  150.9211  140.4211  156.0942 C   0  0  2  0  0  0  0  0  0  0  0  0
  150.7609  138.9768  155.6792 N   0  0  0  0  0  0  0  0  0  0  0  0
  149.5147  138.3740  155.6271 C   0  0  0  0  0  0  0  0  0  0  0  0
  149.3781  137.0836  155.2604 C   0  0  0  0  0  0  0  0  0  0  0  0
  148.1566  136.5238  155.2248 F   0  0  0  0  0  0  0  0  0  0  0  0
  150.5624  136.3026  154.9070 C   0  0  0  0  0  0  0  0  0  0  0  0
  150.4316  135.1266  154.5709 O   0  0  0  0  0  0  0  0  0  0  0  0
  151.7767  136.9227  154.9668 N   0  5  0  0  0  0  0  0  0  0  0  0
  151.9197  138.2281  155.3399 C   0  0  0  0  0  0  0  0  0  0  0  0
  153.0102  138.7969  155.4002 O   0  0  0  0  0  0  0  0  0  0  0  0
  151.7084  140.5835  157.3907 C   0  0  2  0  0  0  0  0  0  0  0  0
  151.1057  139.2785  158.7822 Br  0  0  0  0  0  0  0  0  0  0  0  0
  151.2890  141.9978  157.7668 C   0  0  2  0  0  0  0  0  0  0  0  0
  151.4110  142.2618  159.1611 O   0  0  0  0  0  0  0  0  0  0  0  0
  152.5699  142.0262  159.8008 C   0  0  0  0  0  0  0  0  0  0  0  0
  153.3921  141.1583  159.5024 O   0  0  0  0  0  0  0  0  0  0  0  0
  152.7691  142.9733  160.9859 C   0  0  0  0  0  0  0  0  0  0  0  0
  151.6587  144.0255  161.1261 C   0  0  0  0  0  0  0  0  0  0  0  0
  148.0541  146.1193  162.0696 H   0  0  0  0  0  0  0  0  0  0  0  0
  149.0585  144.6909  161.8535 H   0  0  0  0  0  0  0  0  0  0  0  0
  147.3876  144.5246  162.3985 H   0  0  0  0  0  0  0  0  0  0  0  0
  146.5844  145.4282  160.1808 H   0  0  0  0  0  0  0  0  0  0  0  0
  148.2415  145.5778  159.6367 H   0  0  0  0  0  0  0  0  0  0  0  0
  149.1150  141.5421  159.1773 H   0  0  0  0  0  0  0  0  0  0  0  0
  147.8747  141.5010  157.9478 H   0  0  0  0  0  0  0  0  0  0  0  0
  149.7606  143.0368  156.6485 H   0  0  0  0  0  0  0  0  0  0  0  0
  151.3751  140.9347  155.2440 H   0  0  0  0  0  0  0  0  0  0  0  0
  148.6293  138.9306  155.8913 H   0  0  0  0  0  0  0  0  0  0  0  0
  152.7809  140.4656  157.2345 H   0  0  0  0  0  0  0  0  0  0  0  0
  151.9008  142.7021  157.2001 H   0  0  0  0  0  0  0  0  0  0  0  0
  152.8291  142.3786  161.8977 H   0  0  0  0  0  0  0  0  0  0  0  0
  153.7321  143.4713  160.8706 H   0  0  0  0  0  0  0  0  0  0  0  0
  151.8531  144.6770  161.9780 H   0  0  0  0  0  0  0  0  0  0  0  0
  150.6857  143.5588  161.2835 H   0  0  0  0  0  0  0  0  0  0  0  0
  151.5932  144.6555  160.2384 H   0  0  0  0  0  0  0  0  0  0  0  0
  1  2  1  0  0  0  0
  1 27  1  0  0  0  0
  1 28  1  0  0  0  0
  1 29  1  0  0  0  0
  2  3  1  0  0  0  0
  2 30  1  0  0  0  0
  2 31  1  0  0  0  0
  3  4  2  0  0  0  0
  3  5  1  0  0  0  0
  5  6  1  0  0  0  0
  6  7  1  0  0  0  0
  6 32  1  0  0  0  0
  6 33  1  0  0  0  0
  7 21  1  0  0  0  0
  7  8  1  0  0  0  0
  7 34  1  0  0  0  0
  8  9  1  0  0  0  0
  9 10  1  0  0  0  0
  9 19  1  0  0  0  0
  9 35  1  0  0  0  0
 10 17  1  0  0  0  0
 10 11  1  0  0  0  0
 11 12  2  0  0  0  0
 11 36  1  0  0  0  0
 12 13  1  0  0  0  0
 12 14  1  0  0  0  0
 14 15  2  0  0  0  0
 14 16  1  0  0  0  0
 16 17  1  0  0  0  0
 17 18  2  0  0  0  0
 19 20  1  0  0  0  0
 19 21  1  0  0  0  0
 19 37  1  0  0  0  0
 21 22  1  0  0  0  0
 21 38  1  0  0  0  0
 22 23  1  0  0  0  0
 23 24  2  0  0  0  0
 23 25  1  0  0  0  0
 25 26  1  0  0  0  0
 25 39  1  0  0  0  0
 25 40  1  0  0  0  0
 26 41  1  0  0  0  0
 26 42  1  0  0  0  0
 26 43  1  0  0  0  0
M  CHG  1  16  -1
M  END
> <s_m_source_file>
AV-unprocessed.smi

> <i_m_source_file_index>
37

> <i_lp_mmshare_version>
43012

> <i_f3d_flags>
0

> <s_epik_input>
W0NIM11bQ0gyXUMoPU8pT1tDSDJdW0NAQEhdMU9bQ0BASF0objJbY0hdYyhGKWMoPU8pW25IXWMyPU8pW0NAQEhdKEJyKVtDQEhdMU9DKD1PKVtDSDJdW0NIM10=

> <s_epik_cmdline>
J2VwaWtfcHl0aG9uJywgJy1waCcsICc3LjAnLCAnLXRuJywgJzgnLCAnLW1hJywgJzIwMCcsICctbWV0YWxfYmluZGluZycsICctaW1hZScsICc8aW5maWxlLm1hZT4nLCAnLW9tYWUnLCAnPG91dGZpbGUubWFlPic=

> <r_epik_Ionization_Penalty>
1.08158

> <r_epik_Ionization_Penalty_Charging>
9.05154e-09

> <r_epik_Ionization_Penalty_Neutral>
1.08158

> <r_epik_State_Penalty>
1.13706

> <r_epik_Charging_Adjusted_Penalty>
1.13706

> <i_epik_Tot_Q>
-1

> <i_epik_Tot_abs_Q>
1

> <r_epik_Metal_State_Penalty>
0.00343535

> <b_epik_Metal_Only>
0

> <s_epik_Chemistry_Notes>
This compound has an ester and may undergo hydrolysis at high or low pH. This compound contains an acetal/aminal-like group ( X-CH(R)-Y where X, Y are N, S, or O) that may be acid/base labile, releasing an aldehyde.

> <s_lp_Force_Field>
OPLS_2005

> <r_lp_Energy>
37.8596

> <b_lp_Chiralities_Consistent>
1

> <s_lp_Variant>
AV-unprocessed.smi:37-31

> <Gold.Version>
5.8.1

> <Gold.Id.Protein>
6NUR|6NUR_protein|mol2

> <Gold.PLP.Fitness>
49.0289

> <Gold.PLP.PLP>
-38.5623

> <Gold.PLP.part.hbond>
-4.3395

> <Gold.PLP.part.metal>
0.0000

> <Gold.PLP.part.buried>
-5.7964

> <Gold.PLP.part.nonpolar>
-30.8920

> <Gold.PLP.part.repulsive>
1.6159

> <Gold.PLP.ligand.clash>
0.0000

> <Gold.PLP.ligand.torsion>
1.0577

> <Gold.PLP.Chemscore.Hbond>
4.0943

> <Gold.PLP.Chemscore.CHOScore>
0.0000

> <Gold.PLP.Chemscore.Metal>
0.0000

> <Gold.Chemscore.Hbonds>
donor molecule, donor type, donor heavy atom, donor atom, acceptor molecule, acceptor atom, score
      P1  H  6933  6944       L1     4  0.06
      P1  H  6934  6946       L1     4  0.99
      P1  H  7997  8008       L1    18  0.89
      P1  H 10752 10763       L1    16  2.00

> <Gold.PLP.Chemscore.Internal.Correction>
0.2989

> <Gold.Rescore>
     Score         DG    S(hbond)    S(metal)    S(lipo)     H(rot)  DE(clash)    DE(int)     intcor
      8.06     -12.26       2.26        0.00      65.03       3.27       0.09       4.11       ----

> <Gold.Chemscore.Fitness>
8.0600

> <Gold.Chemscore.DG>
-12.2591

> <Gold.Chemscore.ZeroCoef>
-5.4800

> <Gold.Chemscore.Hbond>
2.2557

> <Gold.Chemscore.Metal>
0.0000

> <Gold.Chemscore.Lipo>
65.0290

> <Gold.Chemscore.Internal_Hbond>
0.0000

> <Gold.Chemscore.DEClash>
0.0933

> <Gold.Chemscore.DEInternal>
4.1058

> <Gold.Chemscore.Rot>
3.2669

> <Gold.Chemscore.Internal.Correction>
   9.000000E+99

> <Gold.Chemscore.Hbonds>
donor molecule, donor type, donor heavy atom, donor atom, acceptor molecule, acceptor atom, score
      P1  H  6934  6946       L1     4  0.94
      P1  H  7997  8008       L1    18  0.84
      P1  H 10752 10763       L1    16  0.44

> <Gold.Chemscore.Hbond.Weighted>
-7.5341

> <Gold.Chemscore.Metal.Weighted>
-0.0000

> <Gold.Chemscore.Lipo.Weighted>
-7.6084

> <Gold.Chemscore.Internal_Hbond.Weighted>
0.0000

> <Gold.Chemscore.DEClash.Weighted>
0.0933

> <Gold.Chemscore.DEInternal.Weighted>
4.1058

> <Gold.Chemscore.Rot.Weighted>
8.3634

> <Gold.Chemscore.Internal.Correction.Weighted>
   9.000000E+99

> <Gold.Protein.RotatedTorsions>
[ 6907 6896 6895 6894 ] final  -18.76 input  -60.11 | X-H torsion
[ 7974 7965 7964 7962 ] final  174.64 input  175.53 | X-H torsion
[ 8008 7997 7996 7995 ] final  -40.24 input   59.86 | X-H torsion
[ 10167 10162 10161 10158 ] final   26.34 input  -65.29 | X-H torsion
[ 10718 10713 10712 10709 ] final   18.38 input   66.30 | X-H torsion
[ 10763 10752 10751 10750 ] final   63.95 input  -60.55 | X-H torsion
[ 11005 11000 10999 10996 ] final  108.01 input  -57.11 | X-H torsion

> <Gold.Protein.ActiveResidues>
 VAL166  LYS551  ARG553  GLY616  TRP617  ASP618  TYR619  PRO620  LYS621  CYS622 
 ASP623  PHE694  ASN695  SER759  ASP760  ASP761  ALA762  ILE779  LEU786  VAL792 
 PHE793  MET794  SER795  GLU796  ALA797  LYS798  CYS799  TRP800  GLU811  SER814 

> <Gold.Protein.RotatedAtoms>
  151.2733  135.0691  159.9141 H   0  0  0  0  0  0  0  0  0  0  0  0  # atno 6907 bound_to 6896
  152.5347  134.0108  159.7947 H   0  0  0  0  0  0  0  0  0  0  0  0  # atno 6908 bound_to 6896
  151.0349  133.5707  159.2688 H   0  0  0  0  0  0  0  0  0  0  0  0  # atno 6909 bound_to 6896
  144.7217  139.9827  143.6439 H   0  0  0  0  0  0  0  0  0  0  0  0  # atno 7974 bound_to 7965
  154.4014  140.1530  156.2995 H   0  0  0  0  0  0  0  0  0  0  0  0  # atno 8008 bound_to 7997
  155.8713  140.3448  155.5801 H   0  0  0  0  0  0  0  0  0  0  0  0  # atno 8009 bound_to 7997
  155.7771  140.0838  157.2069 H   0  0  0  0  0  0  0  0  0  0  0  0  # atno 8010 bound_to 7997
  140.5031  144.0283  150.6341 H   0  0  0  0  0  0  0  0  0  0  0  0  # atno 10167 bound_to 10162
  157.0956  130.6446  149.5859 H   0  0  0  0  0  0  0  0  0  0  0  0  # atno 10718 bound_to 10713
  153.0037  135.5410  154.6433 H   0  0  0  0  0  0  0  0  0  0  0  0  # atno 10763 bound_to 10752
  154.5683  135.2839  155.0854 H   0  0  0  0  0  0  0  0  0  0  0  0  # atno 10764 bound_to 10752
  154.2030  135.6480  153.5145 H   0  0  0  0  0  0  0  0  0  0  0  0  # atno 10765 bound_to 10752
  139.8837  134.9418  156.5906 H   0  0  0  0  0  0  0  0  0  0  0  0  # atno 11005 bound_to 11000
  146.0475  139.3479  143.0660 LP  0  0  0  0  0  0  0  0  0  0  0  0  # atno 17320 bound_to 7965
  145.8257  140.9656  143.0875 LP  0  0  0  0  0  0  0  0  0  0  0  0  # atno 17321 bound_to 7965
  140.3584  143.2922  152.0410 LP  0  0  0  0  0  0  0  0  0  0  0  0  # atno 17342 bound_to 10162
  139.4877  144.6321  151.7049 LP  0  0  0  0  0  0  0  0  0  0  0  0  # atno 17343 bound_to 10162
  155.9887  130.4931  150.7180 LP  0  0  0  0  0  0  0  0  0  0  0  0  # atno 17370 bound_to 10713
  157.4684  131.0890  151.0669 LP  0  0  0  0  0  0  0  0  0  0  0  0  # atno 17371 bound_to 10713
  140.7958  133.8545  155.8684 LP  0  0  0  0  0  0  0  0  0  0  0  0  # atno 17394 bound_to 11000
  140.9637  134.1622  157.4633 LP  0  0  0  0  0  0  0  0  0  0  0  0  # atno 17395 bound_to 11000

$$$$
