AV-unprocessed.smi:112|AV-procd|sdf|1087|dock10
  -GOLD-   2262018183D 1   1.00000     0.00000
 Structure written by MMmdl.
 54 57  0  0  0  0  0  0  0  0  3 V2000
  146.2716  141.3926  157.8062 C   0  0  0  0  0  0  0  0  0  0  0  0
  147.3709  141.0068  156.8293 C   0  0  0  0  0  0  0  0  0  0  0  0
  147.1522  140.1584  155.7989 C   0  0  0  0  0  0  0  0  0  0  0  0
  148.1275  139.7912  154.8916 N   0  0  0  0  0  0  0  0  0  0  0  0
  147.8034  138.8360  153.7694 C   0  0  2  0  0  0  0  0  0  0  0  0
  146.8529  139.4656  152.7611 C   0  0  0  0  0  0  0  0  0  0  0  0
  146.1610  138.2372  152.2020 C   0  0  1  0  0  0  0  0  0  0  0  0
  146.8636  137.7499  151.0747 O   0  0  0  0  0  0  0  0  0  0  0  0
  146.2170  137.2088  153.3518 C   0  0  2  0  0  0  0  0  0  0  0  0
  144.8647  137.0466  154.0659 C   0  0  0  0  0  0  0  0  0  0  0  0
  143.8938  136.5714  153.1584 O   0  0  0  0  0  0  0  0  0  0  0  0
  147.1460  137.7331  154.3024 O   0  0  0  0  0  0  0  0  0  0  0  0
  149.4284  140.3200  155.0089 C   0  0  0  0  0  0  0  0  0  0  0  0
  150.3063  140.0353  154.1913 O   0  0  0  0  0  0  0  0  0  0  0  0
  149.6938  141.2003  156.0826 N   0  0  0  0  0  0  0  0  0  0  0  0
  151.0529  141.7746  156.2093 C   0  0  0  0  0  0  0  0  0  0  0  0
  151.9348  141.0584  157.2562 C   0  0  0  0  0  0  0  0  0  0  0  0
  152.3711  139.9360  156.9980 O   0  0  0  0  0  0  0  0  0  0  0  0
  152.1873  141.7049  158.4217 N   0  0  0  0  0  0  0  0  0  0  0  0
  151.6569  143.0416  158.7412 C   0  0  0  0  0  0  0  0  0  0  0  0
  152.1760  143.3883  160.1539 C   0  0  0  0  0  0  0  0  0  0  0  0
  152.9887  142.1825  160.5221 C   0  0  0  0  0  0  0  0  0  0  0  0
  153.6948  141.9804  161.7202 C   0  0  0  0  0  0  0  0  0  0  0  0
  154.4143  140.7723  161.8952 C   0  0  0  0  0  0  0  0  0  0  0  0
  155.1684  140.5252  163.1402 N   0  3  0  0  0  0  0  0  0  0  0  0
  155.6184  139.4006  163.3344 O   0  0  0  0  0  0  0  0  0  0  0  0
  155.3120  141.4558  163.9265 O   0  5  0  0  0  0  0  0  0  0  0  0
  154.4002  139.8038  160.8564 C   0  0  0  0  0  0  0  0  0  0  0  0
  153.6850  140.0234  159.6588 C   0  0  0  0  0  0  0  0  0  0  0  0
  152.9748  141.2340  159.5060 C   0  0  0  0  0  0  0  0  0  0  0  0
  148.7034  141.5849  157.0205 C   0  0  0  0  0  0  0  0  0  0  0  0
  148.9723  142.3715  157.9306 O   0  0  0  0  0  0  0  0  0  0  0  0
  145.3293  140.8958  157.5731 H   0  0  0  0  0  0  0  0  0  0  0  0
  146.0969  142.4688  157.7781 H   0  0  0  0  0  0  0  0  0  0  0  0
  146.5508  141.1166  158.8235 H   0  0  0  0  0  0  0  0  0  0  0  0
  146.1593  139.7502  155.6738 H   0  0  0  0  0  0  0  0  0  0  0  0
  148.7374  138.4926  153.3232 H   0  0  0  0  0  0  0  0  0  0  0  0
  146.1307  140.0963  153.2810 H   0  0  0  0  0  0  0  0  0  0  0  0
  147.3879  140.0676  152.0254 H   0  0  0  0  0  0  0  0  0  0  0  0
  145.1414  138.4651  151.8888 H   0  0  0  0  0  0  0  0  0  0  0  0
  147.6677  137.3497  151.3685 H   0  0  0  0  0  0  0  0  0  0  0  0
  146.5640  136.2412  152.9835 H   0  0  0  0  0  0  0  0  0  0  0  0
  144.9432  136.3780  154.9237 H   0  0  0  0  0  0  0  0  0  0  0  0
  144.5140  138.0100  154.4369 H   0  0  0  0  0  0  0  0  0  0  0  0
  144.3334  136.0757  152.4842 H   0  0  0  0  0  0  0  0  0  0  0  0
  151.5622  141.7575  155.2448 H   0  0  0  0  0  0  0  0  0  0  0  0
  150.9947  142.8345  156.4608 H   0  0  0  0  0  0  0  0  0  0  0  0
  152.0071  143.7792  158.0178 H   0  0  0  0  0  0  0  0  0  0  0  0
  150.5661  143.0396  158.7290 H   0  0  0  0  0  0  0  0  0  0  0  0
  152.7992  144.2830  160.1501 H   0  0  0  0  0  0  0  0  0  0  0  0
  151.3598  143.5287  160.8631 H   0  0  0  0  0  0  0  0  0  0  0  0
  153.6803  142.7426  162.4853 H   0  0  0  0  0  0  0  0  0  0  0  0
  154.9421  138.8762  160.9680 H   0  0  0  0  0  0  0  0  0  0  0  0
  153.7021  139.2625  158.8948 H   0  0  0  0  0  0  0  0  0  0  0  0
  1  2  1  0  0  0  0
  1 33  1  0  0  0  0
  1 34  1  0  0  0  0
  1 35  1  0  0  0  0
  2 31  1  0  0  0  0
  2  3  2  0  0  0  0
  3  4  1  0  0  0  0
  3 36  1  0  0  0  0
  4  5  1  0  0  0  0
  4 13  1  0  0  0  0
  5 12  1  0  0  0  0
  5  6  1  0  0  0  0
  5 37  1  0  0  0  0
  6  7  1  0  0  0  0
  6 38  1  0  0  0  0
  6 39  1  0  0  0  0
  7  8  1  0  0  0  0
  7  9  1  0  0  0  0
  7 40  1  0  0  0  0
  8 41  1  0  0  0  0
  9 10  1  0  0  0  0
  9 12  1  0  0  0  0
  9 42  1  0  0  0  0
 10 11  1  0  0  0  0
 10 43  1  0  0  0  0
 10 44  1  0  0  0  0
 11 45  1  0  0  0  0
 13 14  2  0  0  0  0
 13 15  1  0  0  0  0
 15 16  1  0  0  0  0
 15 31  1  0  0  0  0
 16 17  1  0  0  0  0
 16 46  1  0  0  0  0
 16 47  1  0  0  0  0
 17 18  2  0  0  0  0
 17 19  1  0  0  0  0
 19 30  1  0  0  0  0
 19 20  1  0  0  0  0
 20 21  1  0  0  0  0
 20 48  1  0  0  0  0
 20 49  1  0  0  0  0
 21 22  1  0  0  0  0
 21 50  1  0  0  0  0
 21 51  1  0  0  0  0
 22 30  2  0  0  0  0
 22 23  1  0  0  0  0
 23 24  2  0  0  0  0
 23 52  1  0  0  0  0
 24 25  1  0  0  0  0
 24 28  1  0  0  0  0
 25 26  2  0  0  0  0
 25 27  1  0  0  0  0
 28 29  2  0  0  0  0
 28 53  1  0  0  0  0
 29 30  1  0  0  0  0
 29 54  1  0  0  0  0
 31 32  2  0  0  0  0
M  CHG  1  25   1
M  CHG  1  27  -1
M  END
> <s_m_source_file>
AV-unprocessed.smi

> <i_m_source_file_index>
112

> <i_lp_mmshare_version>
43012

> <i_f3d_flags>
0

> <s_epik_input>
W09IXVtDSDJdW0NAQEhdKE8xKVtDQEhdKFtPSF0pW0NIMl1bQ0BIXTFuKFtjSF1jMltDSDNdKWMoPU8pbihjMj1PKVtDSDJdQyg9TylOKFtDSDJdW0NIMl0zKWMoYzM0KVtjSF1bY0hdYyhbY0hdNClbTitdKD1PKVtPLV0=

> <s_epik_cmdline>
J2VwaWtfcHl0aG9uJywgJy1waCcsICc3LjAnLCAnLXRuJywgJzgnLCAnLW1hJywgJzIwMCcsICctbWV0YWxfYmluZGluZycsICctaW1hZScsICc8aW5maWxlLm1hZT4nLCAnLW9tYWUnLCAnPG91dGZpbGUubWFlPic=

> <r_lp_tautomer_probability>
1

> <r_epik_Ionization_Penalty>
2.5696e-07

> <r_epik_Ionization_Penalty_Charging>
1.04886e-08

> <r_epik_Ionization_Penalty_Neutral>
2.46472e-07

> <r_epik_State_Penalty>
-0

> <r_epik_Charging_Adjusted_Penalty>
1.04886e-08

> <i_epik_Tot_Q>
0

> <i_epik_Tot_abs_Q>
2

> <r_epik_Metal_State_Penalty>
-0

> <b_epik_Metal_Only>
0

> <s_epik_Chemistry_Notes>
This compound contains an acetal/aminal-like group ( X-CH(R)-Y where X, Y are N, S, or O) that may be acid/base labile, releasing an aldehyde.

> <s_lp_Force_Field>
OPLS_2005

> <r_lp_Energy>
58.3709

> <b_lp_Chiralities_Consistent>
1

> <s_lp_Variant>
AV-unprocessed.smi:112-5

> <Gold.Version>
5.8.1

> <Gold.Id.Protein>
6NUR|6NUR_protein|mol2

> <Gold.PLP.Fitness>
58.4511

> <Gold.PLP.PLP>
-50.7419

> <Gold.PLP.part.hbond>
-5.0140

> <Gold.PLP.part.metal>
0.0000

> <Gold.PLP.part.buried>
-7.9589

> <Gold.PLP.part.nonpolar>
-38.5265

> <Gold.PLP.part.repulsive>
0.6211

> <Gold.PLP.ligand.clash>
0.0000

> <Gold.PLP.ligand.torsion>
0.6601

> <Gold.PLP.Chemscore.Hbond>
3.0000

> <Gold.PLP.Chemscore.CHOScore>
0.0000

> <Gold.PLP.Chemscore.Metal>
0.0000

> <Gold.Chemscore.Hbonds>
donor molecule, donor type, donor heavy atom, donor atom, acceptor molecule, acceptor atom, score
      L1  H     8    41       P1  7948  1.00
      P1  H  7989  7998       L1    14  1.00
      P1  H  7997  8009       L1    18  0.99

> <Gold.PLP.Chemscore.Internal.Correction>
0.0293

> <Gold.Rescore>
     Score         DG    S(hbond)    S(metal)    S(lipo)     H(rot)  DE(clash)    DE(int)     intcor
     16.09     -19.52       2.89        0.00     109.61       3.29       0.23       3.20       ----

> <Gold.Chemscore.Fitness>
16.0893

> <Gold.Chemscore.DG>
-19.5173

> <Gold.Chemscore.ZeroCoef>
-5.4800

> <Gold.Chemscore.Hbond>
2.8861

> <Gold.Chemscore.Metal>
0.0000

> <Gold.Chemscore.Lipo>
109.6091

> <Gold.Chemscore.Internal_Hbond>
0.0000

> <Gold.Chemscore.DEClash>
0.2277

> <Gold.Chemscore.DEInternal>
3.2004

> <Gold.Chemscore.Rot>
3.2916

> <Gold.Chemscore.Internal.Correction>
   9.000000E+99

> <Gold.Chemscore.Hbonds>
donor molecule, donor type, donor heavy atom, donor atom, acceptor molecule, acceptor atom, score
      L1  H     8    41       P1  7948  1.00
      P1  H  7989  7998       L1    14  0.98
      P1  H  7997  8009       L1    18  0.60

> <Gold.Chemscore.Hbond.Weighted>
-9.6396

> <Gold.Chemscore.Metal.Weighted>
-0.0000

> <Gold.Chemscore.Lipo.Weighted>
-12.8243

> <Gold.Chemscore.Internal_Hbond.Weighted>
0.0000

> <Gold.Chemscore.DEClash.Weighted>
0.2277

> <Gold.Chemscore.DEInternal.Weighted>
3.2004

> <Gold.Chemscore.Rot.Weighted>
8.4265

> <Gold.Chemscore.Internal.Correction.Weighted>
   9.000000E+99

> <Gold.Protein.RotatedTorsions>
[ 6907 6896 6895 6894 ] final  -41.92 input  -60.11 | X-H torsion
[ 7974 7965 7964 7962 ] final   57.01 input  175.53 | X-H torsion
[ 8008 7997 7996 7995 ] final -174.08 input   59.86 | X-H torsion
[ 10167 10162 10161 10158 ] final -121.91 input  -65.29 | X-H torsion
[ 10718 10713 10712 10709 ] final  -30.96 input   66.30 | X-H torsion
[ 10763 10752 10751 10750 ] final  132.39 input  -60.55 | X-H torsion
[ 11005 11000 10999 10996 ] final  126.61 input  -57.11 | X-H torsion

> <Gold.Protein.ActiveResidues>
 VAL166  LYS551  ARG553  GLY616  TRP617  ASP618  TYR619  PRO620  LYS621  CYS622 
 ASP623  PHE694  ASN695  SER759  ASP760  ASP761  ALA762  ILE779  LEU786  VAL792 
 PHE793  MET794  SER795  GLU796  ALA797  LYS798  CYS799  TRP800  GLU811  SER814 

> <Gold.Protein.RotatedAtoms>
  150.9612  134.9000  159.7731 H   0  0  0  0  0  0  0  0  0  0  0  0  # atno 6907 bound_to 6896
  152.5157  134.3670  159.9314 H   0  0  0  0  0  0  0  0  0  0  0  0  # atno 6908 bound_to 6896
  151.3682  133.3824  159.2731 H   0  0  0  0  0  0  0  0  0  0  0  0  # atno 6909 bound_to 6896
  145.9337  139.3829  143.0406 H   0  0  0  0  0  0  0  0  0  0  0  0  # atno 7974 bound_to 7965
  155.9656  140.1153  157.0857 H   0  0  0  0  0  0  0  0  0  0  0  0  # atno 8008 bound_to 7997
  154.4143  140.1173  156.5305 H   0  0  0  0  0  0  0  0  0  0  0  0  # atno 8009 bound_to 7997
  155.6663  140.3473  155.4804 H   0  0  0  0  0  0  0  0  0  0  0  0  # atno 8010 bound_to 7997
  140.0199  143.5355  152.2225 H   0  0  0  0  0  0  0  0  0  0  0  0  # atno 10167 bound_to 10162
  156.3932  130.4376  149.7378 H   0  0  0  0  0  0  0  0  0  0  0  0  # atno 10718 bound_to 10713
  153.7899  135.3156  155.3377 H   0  0  0  0  0  0  0  0  0  0  0  0  # atno 10763 bound_to 10752
  154.8129  135.4655  154.0569 H   0  0  0  0  0  0  0  0  0  0  0  0  # atno 10764 bound_to 10752
  153.1883  135.6904  153.8472 H   0  0  0  0  0  0  0  0  0  0  0  0  # atno 10765 bound_to 10752
  139.9465  134.9629  156.8733 H   0  0  0  0  0  0  0  0  0  0  0  0  # atno 11005 bound_to 11000
  145.8392  140.9589  143.0808 LP  0  0  0  0  0  0  0  0  0  0  0  0  # atno 17320 bound_to 7965
  144.6768  140.0263  143.7483 LP  0  0  0  0  0  0  0  0  0  0  0  0  # atno 17321 bound_to 7965
  139.6147  144.7617  151.2873 LP  0  0  0  0  0  0  0  0  0  0  0  0  # atno 17342 bound_to 10162
  140.7347  143.6759  150.8042 LP  0  0  0  0  0  0  0  0  0  0  0  0  # atno 17343 bound_to 10162
  156.4424  130.7867  151.2888 LP  0  0  0  0  0  0  0  0  0  0  0  0  # atno 17370 bound_to 10713
  157.7500  131.0121  150.3370 LP  0  0  0  0  0  0  0  0  0  0  0  0  # atno 17371 bound_to 10713
  140.5822  134.0341  155.7468 LP  0  0  0  0  0  0  0  0  0  0  0  0  # atno 17394 bound_to 11000
  141.1117  133.9606  157.2898 LP  0  0  0  0  0  0  0  0  0  0  0  0  # atno 17395 bound_to 11000

$$$$
