AV-unprocessed.smi:2334|AV-procd|sdf|9321|dock6
  -GOLD-   2272012543D 1   1.00000     0.00000
 Structure written by MMmdl.
 49 51  0  0  0  0  0  0  0  0  1 V2000
  148.7456  139.2699  154.2005 C   0  0  0  0  0  0  0  0  0  0  0  0
  149.9302  139.0971  155.1353 C   0  0  0  0  0  0  0  0  0  0  0  0
  150.3283  140.2165  155.7782 N   0  0  0  0  0  0  0  0  0  0  0  0
  151.3729  140.1501  156.6367 C   0  0  0  0  0  0  0  0  0  0  0  0
  151.7575  141.3414  157.2830 N   0  0  0  0  0  0  0  0  0  0  0  0
  150.9825  142.5663  157.1577 C   0  0  0  0  0  0  0  0  0  0  0  0
  151.6517  143.5467  158.1195 C   0  0  0  0  0  0  0  0  0  0  0  0
  152.1597  142.6396  159.2403 C   0  0  0  0  0  0  0  0  0  0  0  0
  152.5108  141.3273  158.5296 C   0  0  0  0  0  0  0  0  0  0  0  0
  152.0622  138.9387  156.8741 C   0  0  0  0  0  0  0  0  0  0  0  0
  151.6490  137.7722  156.2041 C   0  0  0  0  0  0  0  0  0  0  0  0
  150.5624  137.8424  155.3009 C   0  0  0  0  0  0  0  0  0  0  0  0
  150.0584  136.7132  154.5965 N   0  0  0  0  0  0  0  0  0  0  0  0
  149.9074  135.4528  155.0378 C   0  0  0  0  0  0  0  0  0  0  0  0
  150.2172  135.0551  156.1602 O   0  0  0  0  0  0  0  0  0  0  0  0
  149.3907  134.6690  154.0767 N   0  0  0  0  0  0  0  0  0  0  0  0
  149.0897  133.2301  154.1308 C   0  0  0  0  0  0  0  0  0  0  0  0
  150.3447  132.4461  154.5715 C   0  0  0  0  0  0  0  0  0  0  0  0
  147.9681  133.0211  155.1714 C   0  0  0  0  0  0  0  0  0  0  0  0
  146.6219  133.6024  154.6984 C   0  0  0  0  0  0  0  0  0  0  0  0
  146.2539  133.0301  153.4491 O   0  0  0  0  0  0  0  0  0  0  0  0
  147.1915  133.3073  152.4152 C   0  0  0  0  0  0  0  0  0  0  0  0
  148.5610  132.7030  152.7743 C   0  0  0  0  0  0  0  0  0  0  0  0
  149.0184  138.9808  153.1849 H   0  0  0  0  0  0  0  0  0  0  0  0
  148.4024  140.3052  154.1745 H   0  0  0  0  0  0  0  0  0  0  0  0
  147.9119  138.6468  154.5258 H   0  0  0  0  0  0  0  0  0  0  0  0
  150.9838  142.9410  156.1334 H   0  0  0  0  0  0  0  0  0  0  0  0
  149.9505  142.3771  157.4566 H   0  0  0  0  0  0  0  0  0  0  0  0
  152.4961  144.0306  157.6265 H   0  0  0  0  0  0  0  0  0  0  0  0
  150.9742  144.3250  158.4716 H   0  0  0  0  0  0  0  0  0  0  0  0
  153.0036  143.0649  159.7839 H   0  0  0  0  0  0  0  0  0  0  0  0
  151.3560  142.4619  159.9561 H   0  0  0  0  0  0  0  0  0  0  0  0
  152.2616  140.4684  159.1539 H   0  0  0  0  0  0  0  0  0  0  0  0
  153.5753  141.2856  158.2967 H   0  0  0  0  0  0  0  0  0  0  0  0
  152.8985  138.8876  157.5551 H   0  0  0  0  0  0  0  0  0  0  0  0
  152.1645  136.8466  156.4071 H   0  0  0  0  0  0  0  0  0  0  0  0
  149.8498  136.8704  153.6214 H   0  0  0  0  0  0  0  0  0  0  0  0
  149.1839  135.1172  153.1960 H   0  0  0  0  0  0  0  0  0  0  0  0
  150.1206  131.3880  154.7113 H   0  0  0  0  0  0  0  0  0  0  0  0
  150.7371  132.8241  155.5161 H   0  0  0  0  0  0  0  0  0  0  0  0
  151.1450  132.5051  153.8340 H   0  0  0  0  0  0  0  0  0  0  0  0
  147.8353  131.9545  155.3579 H   0  0  0  0  0  0  0  0  0  0  0  0
  148.2475  133.4627  156.1289 H   0  0  0  0  0  0  0  0  0  0  0  0
  145.8430  133.3783  155.4274 H   0  0  0  0  0  0  0  0  0  0  0  0
  146.6680  134.6890  154.6124 H   0  0  0  0  0  0  0  0  0  0  0  0
  146.8247  132.8718  151.4856 H   0  0  0  0  0  0  0  0  0  0  0  0
  147.2652  134.3834  152.2513 H   0  0  0  0  0  0  0  0  0  0  0  0
  149.2721  132.8878  151.9695 H   0  0  0  0  0  0  0  0  0  0  0  0
  148.4537  131.6187  152.8275 H   0  0  0  0  0  0  0  0  0  0  0  0
  1  2  1  0  0  0  0
  1 24  1  0  0  0  0
  1 25  1  0  0  0  0
  1 26  1  0  0  0  0
  2 12  1  0  0  0  0
  2  3  2  0  0  0  0
  3  4  1  0  0  0  0
  4  5  1  0  0  0  0
  4 10  2  0  0  0  0
  5  9  1  0  0  0  0
  5  6  1  0  0  0  0
  6  7  1  0  0  0  0
  6 27  1  0  0  0  0
  6 28  1  0  0  0  0
  7  8  1  0  0  0  0
  7 29  1  0  0  0  0
  7 30  1  0  0  0  0
  8  9  1  0  0  0  0
  8 31  1  0  0  0  0
  8 32  1  0  0  0  0
  9 33  1  0  0  0  0
  9 34  1  0  0  0  0
 10 11  1  0  0  0  0
 10 35  1  0  0  0  0
 11 12  2  0  0  0  0
 11 36  1  0  0  0  0
 12 13  1  0  0  0  0
 13 14  1  0  0  0  0
 13 37  1  0  0  0  0
 14 15  2  0  0  0  0
 14 16  1  0  0  0  0
 16 17  1  0  0  0  0
 16 38  1  0  0  0  0
 17 23  1  0  0  0  0
 17 18  1  0  0  0  0
 17 19  1  0  0  0  0
 18 39  1  0  0  0  0
 18 40  1  0  0  0  0
 18 41  1  0  0  0  0
 19 20  1  0  0  0  0
 19 42  1  0  0  0  0
 19 43  1  0  0  0  0
 20 21  1  0  0  0  0
 20 44  1  0  0  0  0
 20 45  1  0  0  0  0
 21 22  1  0  0  0  0
 22 23  1  0  0  0  0
 22 46  1  0  0  0  0
 22 47  1  0  0  0  0
 23 48  1  0  0  0  0
 23 49  1  0  0  0  0
M  END
> <s_m_source_file>
AV-unprocessed.smi

> <i_m_source_file_index>
2334

> <i_lp_mmshare_version>
43012

> <i_f3d_flags>
0

> <s_epik_input>
W0NIMl0xW0NIMl1bQ0gyXVtDSDJdTjFjKG5jMltDSDNdKVtjSF1bY0hdYzJbTkhdQyg9TylbTkhdQzMoW0NIM10pW0NIMl1bQ0gyXU9bQ0gyXVtDSDJdMw==

> <s_epik_cmdline>
J2VwaWtfcHl0aG9uJywgJy1waCcsICc3LjAnLCAnLXRuJywgJzgnLCAnLW1hJywgJzIwMCcsICctbWV0YWxfYmluZGluZycsICctaW1hZScsICc8aW5maWxlLm1hZT4nLCAnLW9tYWUnLCAnPG91dGZpbGUubWFlPic=

> <r_lp_tautomer_probability>
1

> <r_epik_Ionization_Penalty>
0.314437

> <r_epik_Ionization_Penalty_Charging>
0

> <r_epik_Ionization_Penalty_Neutral>
0.314437

> <r_epik_State_Penalty>
0.308039

> <r_epik_Charging_Adjusted_Penalty>
0.308039

> <i_epik_Tot_Q>
0

> <i_epik_Tot_abs_Q>
0

> <r_epik_Metal_State_Penalty>
0.200041

> <b_epik_Metal_Only>
0

> <s_lp_Force_Field>
OPLS_2005

> <r_lp_Energy>
36.0775

> <b_lp_Chiralities_Consistent>
1

> <s_lp_Variant>
AV-unprocessed.smi:2334-1

> <Gold.Version>
5.8.1

> <Gold.Id.Protein>
6NUR|6NUR_protein|mol2

> <Gold.PLP.Fitness>
39.5045

> <Gold.PLP.PLP>
-34.2295

> <Gold.PLP.part.hbond>
-2.0000

> <Gold.PLP.part.metal>
0.0000

> <Gold.PLP.part.buried>
-3.9175

> <Gold.PLP.part.nonpolar>
-28.3299

> <Gold.PLP.part.repulsive>
0.2008

> <Gold.PLP.ligand.clash>
0.0000

> <Gold.PLP.ligand.torsion>
0.4587

> <Gold.PLP.Chemscore.Hbond>
2.0000

> <Gold.PLP.Chemscore.CHOScore>
0.0000

> <Gold.PLP.Chemscore.Metal>
0.0000

> <Gold.Chemscore.Hbonds>
donor molecule, donor type, donor heavy atom, donor atom, acceptor molecule, acceptor atom, score
      L1  H    13    37       P1  7948  0.97
      L1  H    16    38       P1  7948  0.80

> <Gold.PLP.Chemscore.Internal.Correction>
0.1924

> <Gold.Rescore>
     Score         DG    S(hbond)    S(metal)    S(lipo)     H(rot)  DE(clash)    DE(int)     intcor
     17.85     -18.95       1.76        0.00      86.74       1.00       0.02       1.09       ----

> <Gold.Chemscore.Fitness>
17.8507

> <Gold.Chemscore.DG>
-18.9538

> <Gold.Chemscore.ZeroCoef>
-5.4800

> <Gold.Chemscore.Hbond>
1.7620

> <Gold.Chemscore.Metal>
0.0000

> <Gold.Chemscore.Lipo>
86.7398

> <Gold.Chemscore.Internal_Hbond>
0.0000

> <Gold.Chemscore.DEClash>
0.0153

> <Gold.Chemscore.DEInternal>
1.0877

> <Gold.Chemscore.Rot>
1.0000

> <Gold.Chemscore.Internal.Correction>
   9.000000E+99

> <Gold.Chemscore.Hbonds>
donor molecule, donor type, donor heavy atom, donor atom, acceptor molecule, acceptor atom, score
      L1  H    13    37       P1  7948  0.39
      L1  H    16    38       P1  7948  0.12

> <Gold.Chemscore.Hbond.Weighted>
-5.8852

> <Gold.Chemscore.Metal.Weighted>
-0.0000

> <Gold.Chemscore.Lipo.Weighted>
-10.1486

> <Gold.Chemscore.Internal_Hbond.Weighted>
0.0000

> <Gold.Chemscore.DEClash.Weighted>
0.0153

> <Gold.Chemscore.DEInternal.Weighted>
1.0877

> <Gold.Chemscore.Rot.Weighted>
2.5600

> <Gold.Chemscore.Internal.Correction.Weighted>
   9.000000E+99

> <Gold.Protein.RotatedTorsions>
[ 6907 6896 6895 6894 ] final  -51.12 input  -60.11 | X-H torsion
[ 7974 7965 7964 7962 ] final  -81.32 input  175.53 | X-H torsion
[ 8008 7997 7996 7995 ] final -172.60 input   59.86 | X-H torsion
[ 10167 10162 10161 10158 ] final  -70.99 input  -65.29 | X-H torsion
[ 10718 10713 10712 10709 ] final  -70.97 input   66.30 | X-H torsion
[ 10763 10752 10751 10750 ] final   93.84 input  -60.55 | X-H torsion
[ 11005 11000 10999 10996 ] final -162.56 input  -57.11 | X-H torsion

> <Gold.Protein.ActiveResidues>
 VAL166  LYS551  ARG553  GLY616  TRP617  ASP618  TYR619  PRO620  LYS621  CYS622 
 ASP623  PHE694  ASN695  SER759  ASP760  ASP761  ALA762  ILE779  LEU786  VAL792 
 PHE793  MET794  SER795  GLU796  ALA797  LYS798  CYS799  TRP800  GLU811  SER814 

> <Gold.Protein.RotatedAtoms>
  150.8642  134.8001  159.7105 H   0  0  0  0  0  0  0  0  0  0  0  0  # atno 6907 bound_to 6896
  152.4669  134.5051  159.9746 H   0  0  0  0  0  0  0  0  0  0  0  0  # atno 6908 bound_to 6896
  151.5149  133.3439  159.2927 H   0  0  0  0  0  0  0  0  0  0  0  0  # atno 6909 bound_to 6896
  145.5482  140.9500  143.1513 H   0  0  0  0  0  0  0  0  0  0  0  0  # atno 7974 bound_to 7965
  155.9466  140.1118  157.1011 H   0  0  0  0  0  0  0  0  0  0  0  0  # atno 8008 bound_to 7997
  154.4100  140.1208  156.5064 H   0  0  0  0  0  0  0  0  0  0  0  0  # atno 8009 bound_to 7997
  155.6894  140.3472  155.4890 H   0  0  0  0  0  0  0  0  0  0  0  0  # atno 8010 bound_to 7997
  140.5309  143.2322  151.7264 H   0  0  0  0  0  0  0  0  0  0  0  0  # atno 10167 bound_to 10162
  156.0383  130.4342  150.2375 H   0  0  0  0  0  0  0  0  0  0  0  0  # atno 10718 bound_to 10713
  153.2348  135.4311  155.0634 H   0  0  0  0  0  0  0  0  0  0  0  0  # atno 10763 bound_to 10752
  154.8313  135.3388  154.6735 H   0  0  0  0  0  0  0  0  0  0  0  0  # atno 10764 bound_to 10752
  153.7161  135.7020  153.5081 H   0  0  0  0  0  0  0  0  0  0  0  0  # atno 10765 bound_to 10752
  140.6079  134.4879  157.5212 H   0  0  0  0  0  0  0  0  0  0  0  0  # atno 11005 bound_to 11000
  144.7542  139.7115  143.7260 LP  0  0  0  0  0  0  0  0  0  0  0  0  # atno 17320 bound_to 7965
  146.1935  139.5188  142.9790 LP  0  0  0  0  0  0  0  0  0  0  0  0  # atno 17321 bound_to 7965
  139.4954  144.4116  152.0075 LP  0  0  0  0  0  0  0  0  0  0  0  0  # atno 17342 bound_to 10162
  140.3218  144.3419  150.6008 LP  0  0  0  0  0  0  0  0  0  0  0  0  # atno 17343 bound_to 10162
  157.0472  131.0052  151.3265 LP  0  0  0  0  0  0  0  0  0  0  0  0  # atno 17370 bound_to 10713
  157.5166  130.7972  149.7763 LP  0  0  0  0  0  0  0  0  0  0  0  0  # atno 17371 bound_to 10713
  139.9204  134.8160  156.1229 LP  0  0  0  0  0  0  0  0  0  0  0  0  # atno 17394 bound_to 11000
  141.0828  133.6747  156.2372 LP  0  0  0  0  0  0  0  0  0  0  0  0  # atno 17395 bound_to 11000

$$$$
