AV-unprocessed.smi:2061|AV-procd|sdf|8392|dock10
  -GOLD-   2272011 73D 1   1.00000     0.00000
 Structure written by MMmdl.
 45 46  0  0  0  0  0  0  0  0  3 V2000
  152.9706  143.5277  159.9418 C   0  0  0  0  0  0  0  0  0  0  0  0
  151.9840  142.9409  158.9906 C   0  0  0  0  0  0  0  0  0  0  0  0
  151.6366  143.2512  157.7060 C   0  0  0  0  0  0  0  0  0  0  0  0
  150.6366  142.2896  157.4023 C   0  0  0  0  0  0  0  0  0  0  0  0
  149.9956  142.2838  156.1354 N   0  0  0  0  0  0  0  0  0  0  0  0
  150.1671  141.4245  155.1152 C   0  0  0  0  0  0  0  0  0  0  0  0
  151.0618  140.5717  155.1621 O   0  0  0  0  0  0  0  0  0  0  0  0
  149.2642  141.6183  154.1140 N   0  5  0  0  0  0  0  0  0  0  0  0
  148.5274  140.5512  153.4270 C   0  0  0  0  0  0  0  0  0  0  0  0
  146.9929  140.8017  153.4445 C   0  0  2  0  0  0  0  0  0  0  0  0
  146.5310  141.8622  154.4750 C   0  0  0  0  0  0  0  0  0  0  0  0
  146.2351  139.5110  153.5017 N   0  3  1  0  0  0  0  0  0  0  0  0
  146.4787  138.5380  152.4052 C   0  0  0  0  0  0  0  0  0  0  0  0
  145.4276  137.4184  152.4651 C   0  0  1  0  0  0  0  0  0  0  0  0
  145.6573  136.3555  151.3855 C   0  0  0  0  0  0  0  0  0  0  0  0
  145.5000  136.7805  153.7387 O   0  0  0  0  0  0  0  0  0  0  0  0
  145.2995  137.6465  154.8572 C   0  0  2  0  0  0  0  0  0  0  0  0
  143.8310  138.0886  154.9889 C   0  0  0  0  0  0  0  0  0  0  0  0
  146.2925  138.8260  154.8149 C   0  0  0  0  0  0  0  0  0  0  0  0
  150.3888  141.4722  158.4153 N   0  0  0  0  0  0  0  0  0  0  0  0
  151.2534  141.8831  159.4365 O   0  0  0  0  0  0  0  0  0  0  0  0
  152.7994  144.5972  160.0645 H   0  0  0  0  0  0  0  0  0  0  0  0
  153.9881  143.3876  159.5765 H   0  0  0  0  0  0  0  0  0  0  0  0
  152.8973  143.0596  160.9237 H   0  0  0  0  0  0  0  0  0  0  0  0
  152.0358  144.0384  157.0843 H   0  0  0  0  0  0  0  0  0  0  0  0
  149.2878  142.9905  156.0009 H   0  0  0  0  0  0  0  0  0  0  0  0
  148.8530  140.4614  152.3907 H   0  0  0  0  0  0  0  0  0  0  0  0
  148.7241  139.5726  153.8674 H   0  0  0  0  0  0  0  0  0  0  0  0
  146.7832  141.2501  152.4724 H   0  0  0  0  0  0  0  0  0  0  0  0
  147.0166  142.8251  154.3069 H   0  0  0  0  0  0  0  0  0  0  0  0
  146.7394  141.5727  155.5064 H   0  0  0  0  0  0  0  0  0  0  0  0
  145.4582  142.0385  154.3932 H   0  0  0  0  0  0  0  0  0  0  0  0
  146.4187  139.0327  151.4359 H   0  0  0  0  0  0  0  0  0  0  0  0
  147.4808  138.1157  152.4914 H   0  0  0  0  0  0  0  0  0  0  0  0
  144.4332  137.8398  152.3152 H   0  0  0  0  0  0  0  0  0  0  0  0
  145.6016  136.7927  150.3881 H   0  0  0  0  0  0  0  0  0  0  0  0
  144.9031  135.5706  151.4456 H   0  0  0  0  0  0  0  0  0  0  0  0
  146.6360  135.8869  151.4930 H   0  0  0  0  0  0  0  0  0  0  0  0
  145.5287  137.0530  155.7426 H   0  0  0  0  0  0  0  0  0  0  0  0
  143.6728  138.6349  155.9189 H   0  0  0  0  0  0  0  0  0  0  0  0
  143.1647  137.2259  154.9970 H   0  0  0  0  0  0  0  0  0  0  0  0
  143.5199  138.7428  154.1753 H   0  0  0  0  0  0  0  0  0  0  0  0
  147.3092  138.4681  154.9843 H   0  0  0  0  0  0  0  0  0  0  0  0
  146.0626  139.5254  155.6200 H   0  0  0  0  0  0  0  0  0  0  0  0
  145.2712  139.7964  153.3940 H   0  0  0  0  0  0  0  0  0  0  0  0
  1  2  1  0  0  0  0
  1 22  1  0  0  0  0
  1 23  1  0  0  0  0
  1 24  1  0  0  0  0
  2 21  1  0  0  0  0
  2  3  2  0  0  0  0
  3  4  1  0  0  0  0
  3 25  1  0  0  0  0
  4  5  1  0  0  0  0
  4 20  2  0  0  0  0
  5  6  1  0  0  0  0
  5 26  1  0  0  0  0
  6  7  2  0  0  0  0
  6  8  1  0  0  0  0
  8  9  1  0  0  0  0
  9 10  1  0  0  0  0
  9 27  1  0  0  0  0
  9 28  1  0  0  0  0
 10 11  1  0  0  0  0
 10 12  1  0  0  0  0
 10 29  1  0  0  0  0
 11 30  1  0  0  0  0
 11 31  1  0  0  0  0
 11 32  1  0  0  0  0
 12 19  1  0  0  0  0
 12 13  1  0  0  0  0
 12 45  1  0  0  0  0
 13 14  1  0  0  0  0
 13 33  1  0  0  0  0
 13 34  1  0  0  0  0
 14 15  1  0  0  0  0
 14 16  1  0  0  0  0
 14 35  1  0  0  0  0
 15 36  1  0  0  0  0
 15 37  1  0  0  0  0
 15 38  1  0  0  0  0
 16 17  1  0  0  0  0
 17 18  1  0  0  0  0
 17 19  1  0  0  0  0
 17 39  1  0  0  0  0
 18 40  1  0  0  0  0
 18 41  1  0  0  0  0
 18 42  1  0  0  0  0
 19 43  1  0  0  0  0
 19 44  1  0  0  0  0
 20 21  1  0  0  0  0
M  CHG  1   8  -1
M  CHG  1  12   1
M  END
> <s_m_source_file>
AV-unprocessed.smi

> <i_m_source_file_index>
2061

> <i_lp_mmshare_version>
43012

> <i_f3d_flags>
0

> <s_epik_input>
W0NIM11jMVtjSF1jKG5vMSlbTkhdQyg9TylbTkhdW0NIMl1bQ0BIXShbQ0gzXSlOMltDSDJdW0NAQEhdKFtDSDNdKU9bQ0BASF0oW0NIM10pW0NIMl0y

> <s_epik_cmdline>
J2VwaWtfcHl0aG9uJywgJy1waCcsICc3LjAnLCAnLXRuJywgJzgnLCAnLW1hJywgJzIwMCcsICctbWV0YWxfYmluZGluZycsICctaW1hZScsICc8aW5maWxlLm1hZT4nLCAnLW9tYWUnLCAnPG91dGZpbGUubWFlPic=

> <r_epik_Ionization_Penalty>
6.8073

> <r_epik_Ionization_Penalty_Charging>
6.80729

> <r_epik_Ionization_Penalty_Neutral>
5.65391e-06

> <r_epik_State_Penalty>
7.47323

> <r_epik_Charging_Adjusted_Penalty>
14.2805

> <i_epik_Tot_Q>
0

> <i_epik_Tot_abs_Q>
2

> <r_epik_Metal_State_Penalty>
3.40035

> <b_epik_Metal_Only>
1

> <s_lp_Force_Field>
OPLS_2005

> <r_lp_Energy>
16.7719

> <b_lp_Chiralities_Consistent>
1

> <s_lp_Variant>
AV-unprocessed.smi:2061-33

> <Gold.Version>
5.8.1

> <Gold.Id.Protein>
6NUR|6NUR_protein|mol2

> <Gold.PLP.Fitness>
42.4035

> <Gold.PLP.PLP>
-33.8445

> <Gold.PLP.part.hbond>
-5.9697

> <Gold.PLP.part.metal>
0.0000

> <Gold.PLP.part.buried>
-0.4325

> <Gold.PLP.part.nonpolar>
-28.4350

> <Gold.PLP.part.repulsive>
0.4745

> <Gold.PLP.ligand.clash>
0.0000

> <Gold.PLP.ligand.torsion>
1.6816

> <Gold.PLP.Chemscore.Hbond>
3.9045

> <Gold.PLP.Chemscore.CHOScore>
0.0000

> <Gold.PLP.Chemscore.Metal>
0.0000

> <Gold.Chemscore.Hbonds>
donor molecule, donor type, donor heavy atom, donor atom, acceptor molecule, acceptor atom, score
      L1  H     5    26       P1  8028  0.98
      L1  H    12    45       P1 10175  2.00
      P1  H  7989  7998       L1     7  0.66
      P1  H  8011  8017       L1     8  0.33

> <Gold.PLP.Chemscore.Internal.Correction>
0.2087

> <Gold.Rescore>
     Score         DG    S(hbond)    S(metal)    S(lipo)     H(rot)  DE(clash)    DE(int)     intcor
     15.37     -17.96       2.21        0.00      77.52       1.56       0.82       1.77       ----

> <Gold.Chemscore.Fitness>
15.3666

> <Gold.Chemscore.DG>
-17.9601

> <Gold.Chemscore.ZeroCoef>
-5.4800

> <Gold.Chemscore.Hbond>
2.2129

> <Gold.Chemscore.Metal>
0.0000

> <Gold.Chemscore.Lipo>
77.5217

> <Gold.Chemscore.Internal_Hbond>
0.0000

> <Gold.Chemscore.DEClash>
0.8193

> <Gold.Chemscore.DEInternal>
1.7742

> <Gold.Chemscore.Rot>
1.5550

> <Gold.Chemscore.Internal.Correction>
   9.000000E+99

> <Gold.Chemscore.Hbonds>
donor molecule, donor type, donor heavy atom, donor atom, acceptor molecule, acceptor atom, score
      L1  H     5    26       P1  8028  0.93
      L1  H    12    45       P1 10175  0.98
      P1  H  7989  7998       L1     7  0.07
      P1  H  8011  8017       L1     8  0.02

> <Gold.Chemscore.Hbond.Weighted>
-7.3909

> <Gold.Chemscore.Metal.Weighted>
-0.0000

> <Gold.Chemscore.Lipo.Weighted>
-9.0700

> <Gold.Chemscore.Internal_Hbond.Weighted>
0.0000

> <Gold.Chemscore.DEClash.Weighted>
0.8193

> <Gold.Chemscore.DEInternal.Weighted>
1.7742

> <Gold.Chemscore.Rot.Weighted>
3.9809

> <Gold.Chemscore.Internal.Correction.Weighted>
   9.000000E+99

> <Gold.Protein.RotatedTorsions>
[ 6907 6896 6895 6894 ] final  170.41 input  -60.11 | X-H torsion
[ 7974 7965 7964 7962 ] final  141.10 input  175.53 | X-H torsion
[ 8008 7997 7996 7995 ] final  -55.15 input   59.86 | X-H torsion
[ 10167 10162 10161 10158 ] final  170.21 input  -65.29 | X-H torsion
[ 10718 10713 10712 10709 ] final   60.24 input   66.30 | X-H torsion
[ 10763 10752 10751 10750 ] final   78.27 input  -60.55 | X-H torsion
[ 11005 11000 10999 10996 ] final   45.71 input  -57.11 | X-H torsion

> <Gold.Protein.ActiveResidues>
 VAL166  LYS551  ARG553  GLY616  TRP617  ASP618  TYR619  PRO620  LYS621  CYS622 
 ASP623  PHE694  ASN695  SER759  ASP760  ASP761  ALA762  ILE779  LEU786  VAL792 
 PHE793  MET794  SER795  GLU796  ALA797  LYS798  CYS799  TRP800  GLU811  SER814 

> <Gold.Protein.RotatedAtoms>
  151.8165  133.3388  159.3570 H   0  0  0  0  0  0  0  0  0  0  0  0  # atno 6907 bound_to 6896
  150.7309  134.5614  159.5854 H   0  0  0  0  0  0  0  0  0  0  0  0  # atno 6908 bound_to 6896
  152.3037  134.7581  160.0403 H   0  0  0  0  0  0  0  0  0  0  0  0  # atno 6909 bound_to 6896
  144.9126  139.5272  143.5701 H   0  0  0  0  0  0  0  0  0  0  0  0  # atno 7974 bound_to 7965
  154.4185  140.1159  156.5430 H   0  0  0  0  0  0  0  0  0  0  0  0  # atno 8008 bound_to 7997
  155.6488  140.3496  155.4722 H   0  0  0  0  0  0  0  0  0  0  0  0  # atno 8009 bound_to 7997
  155.9810  140.1160  157.0716 H   0  0  0  0  0  0  0  0  0  0  0  0  # atno 8010 bound_to 7997
  139.5012  144.3622  151.9813 H   0  0  0  0  0  0  0  0  0  0  0  0  # atno 10167 bound_to 10162
  157.5738  130.8928  149.9311 H   0  0  0  0  0  0  0  0  0  0  0  0  # atno 10718 bound_to 10713
  153.0861  135.4883  154.8600 H   0  0  0  0  0  0  0  0  0  0  0  0  # atno 10763 bound_to 10752
  154.7213  135.3040  154.9046 H   0  0  0  0  0  0  0  0  0  0  0  0  # atno 10764 bound_to 10752
  153.9709  135.6801  153.4800 H   0  0  0  0  0  0  0  0  0  0  0  0  # atno 10765 bound_to 10752
  140.1435  134.4553  155.8433 H   0  0  0  0  0  0  0  0  0  0  0  0  # atno 11005 bound_to 11000
  146.3166  139.7944  142.8978 LP  0  0  0  0  0  0  0  0  0  0  0  0  # atno 17320 bound_to 7965
  145.3428  141.0291  143.3382 LP  0  0  0  0  0  0  0  0  0  0  0  0  # atno 17321 bound_to 7965
  140.3058  144.3595  150.6047 LP  0  0  0  0  0  0  0  0  0  0  0  0  # atno 17342 bound_to 10162
  140.5838  143.2171  151.7380 LP  0  0  0  0  0  0  0  0  0  0  0  0  # atno 17343 bound_to 10162
  156.0782  130.3676  150.0633 LP  0  0  0  0  0  0  0  0  0  0  0  0  # atno 17370 bound_to 10713
  156.8783  130.9547  151.3602 LP  0  0  0  0  0  0  0  0  0  0  0  0  # atno 17371 bound_to 10713
  141.2189  133.6842  156.7290 LP  0  0  0  0  0  0  0  0  0  0  0  0  # atno 17394 bound_to 11000
  140.2693  134.8405  157.3832 LP  0  0  0  0  0  0  0  0  0  0  0  0  # atno 17395 bound_to 11000

$$$$
