AV-unprocessed.smi:1015|AV-procd|sdf|4434|dock2
  -GOLD-   22720 2393D 1   1.00000     0.00000
 Structure written by MMmdl.
 43 44  0  0  0  0  0  0  0  0  2 V2000
  143.6271  132.8162  151.0969 C   0  0  0  0  0  0  0  0  0  0  0  0
  143.6493  134.0470  151.7986 O   0  0  0  0  0  0  0  0  0  0  0  0
  144.0911  135.1258  150.9916 C   0  0  0  0  0  0  0  0  0  0  0  0
  145.6266  135.1090  150.9366 C   0  0  0  0  0  0  0  0  0  0  0  0
  146.2305  136.3143  151.5601 N   0  3  2  0  0  0  0  0  0  0  0  0
  145.8630  136.4521  152.9921 C   0  0  0  0  0  0  0  0  0  0  0  0
  146.6188  137.6175  153.6514 C   0  0  0  0  0  0  0  0  0  0  0  0
  146.3732  138.9468  152.9080 C   0  0  1  0  0  0  0  0  0  0  0  0
  147.1566  140.1347  153.5060 C   0  0  0  0  0  0  0  0  0  0  0  0
  148.5921  139.8774  153.5405 N   0  0  0  0  0  0  0  0  0  0  0  0
  149.3701  139.9412  154.6327 C   0  0  0  0  0  0  0  0  0  0  0  0
  148.9405  140.1571  155.7655 O   0  0  0  0  0  0  0  0  0  0  0  0
  150.8717  139.7780  154.4039 C   0  0  0  0  0  0  0  0  0  0  0  0
  151.3185  138.4930  154.9070 N   0  0  0  0  0  0  0  0  0  0  0  0
  151.0135  137.2499  154.5298 C   0  0  0  0  0  0  0  0  0  0  0  0
  151.6191  136.3473  155.2864 N   0  0  0  0  0  0  0  0  0  0  0  0
  152.3417  137.1193  156.1806 N   0  0  0  0  0  0  0  0  0  0  0  0
  152.1663  138.3935  155.9613 N   0  0  0  0  0  0  0  0  0  0  0  0
  146.7170  138.7560  151.4204 C   0  0  0  0  0  0  0  0  0  0  0  0
  145.9558  137.5677  150.8098 C   0  0  0  0  0  0  0  0  0  0  0  0
  143.2880  132.0218  151.7616 H   0  0  0  0  0  0  0  0  0  0  0  0
  144.6214  132.5505  150.7358 H   0  0  0  0  0  0  0  0  0  0  0  0
  142.9449  132.8577  150.2469 H   0  0  0  0  0  0  0  0  0  0  0  0
  143.6523  135.0678  149.9955 H   0  0  0  0  0  0  0  0  0  0  0  0
  143.7567  136.0669  151.4312 H   0  0  0  0  0  0  0  0  0  0  0  0
  146.0163  134.2121  151.4199 H   0  0  0  0  0  0  0  0  0  0  0  0
  145.9242  135.0456  149.8890 H   0  0  0  0  0  0  0  0  0  0  0  0
  144.7857  136.6026  153.0814 H   0  0  0  0  0  0  0  0  0  0  0  0
  146.0992  135.5299  153.5245 H   0  0  0  0  0  0  0  0  0  0  0  0
  146.3004  137.6961  154.6912 H   0  0  0  0  0  0  0  0  0  0  0  0
  147.6870  137.3972  153.6711 H   0  0  0  0  0  0  0  0  0  0  0  0
  145.3092  139.1794  152.9791 H   0  0  0  0  0  0  0  0  0  0  0  0
  146.9335  141.0529  152.9597 H   0  0  0  0  0  0  0  0  0  0  0  0
  146.8321  140.3081  154.5324 H   0  0  0  0  0  0  0  0  0  0  0  0
  149.0398  139.6911  152.6546 H   0  0  0  0  0  0  0  0  0  0  0  0
  151.0983  139.8379  153.3386 H   0  0  0  0  0  0  0  0  0  0  0  0
  151.4235  140.5778  154.9005 H   0  0  0  0  0  0  0  0  0  0  0  0
  150.3454  137.0088  153.7163 H   0  0  0  0  0  0  0  0  0  0  0  0
  146.4798  139.6638  150.8644 H   0  0  0  0  0  0  0  0  0  0  0  0
  147.7902  138.5965  151.3060 H   0  0  0  0  0  0  0  0  0  0  0  0
  146.2524  137.4605  149.7673 H   0  0  0  0  0  0  0  0  0  0  0  0
  144.8833  137.7688  150.8126 H   0  0  0  0  0  0  0  0  0  0  0  0
  147.2304  136.1699  151.5414 H   0  0  0  0  0  0  0  0  0  0  0  0
  1  2  1  0  0  0  0
  1 21  1  0  0  0  0
  1 22  1  0  0  0  0
  1 23  1  0  0  0  0
  2  3  1  0  0  0  0
  3  4  1  0  0  0  0
  3 24  1  0  0  0  0
  3 25  1  0  0  0  0
  4  5  1  0  0  0  0
  4 26  1  0  0  0  0
  4 27  1  0  0  0  0
  5 20  1  0  0  0  0
  5  6  1  0  0  0  0
  5 43  1  0  0  0  0
  6  7  1  0  0  0  0
  6 28  1  0  0  0  0
  6 29  1  0  0  0  0
  7  8  1  0  0  0  0
  7 30  1  0  0  0  0
  7 31  1  0  0  0  0
  8  9  1  0  0  0  0
  8 19  1  0  0  0  0
  8 32  1  0  0  0  0
  9 10  1  0  0  0  0
  9 33  1  0  0  0  0
  9 34  1  0  0  0  0
 10 11  1  0  0  0  0
 10 35  1  0  0  0  0
 11 12  2  0  0  0  0
 11 13  1  0  0  0  0
 13 14  1  0  0  0  0
 13 36  1  0  0  0  0
 13 37  1  0  0  0  0
 14 18  1  0  0  0  0
 14 15  1  0  0  0  0
 15 16  2  0  0  0  0
 15 38  1  0  0  0  0
 16 17  1  0  0  0  0
 17 18  2  0  0  0  0
 19 20  1  0  0  0  0
 19 39  1  0  0  0  0
 19 40  1  0  0  0  0
 20 41  1  0  0  0  0
 20 42  1  0  0  0  0
M  CHG  1   5   1
M  END
> <s_m_source_file>
AV-unprocessed.smi

> <i_m_source_file_index>
1015

> <i_lp_mmshare_version>
43012

> <i_f3d_flags>
0

> <s_epik_input>
W0NIM11PW0NIMl1bQ0gyXU4xW0NIMl1bQ0gyXVtDSF0oW0NIMl1bQ0gyXTEpW0NIMl1bTkhdQyg9TylbQ0gyXW4yW2NIXW5ubjI=

> <s_epik_cmdline>
J2VwaWtfcHl0aG9uJywgJy1waCcsICc3LjAnLCAnLXRuJywgJzgnLCAnLW1hJywgJzIwMCcsICctbWV0YWxfYmluZGluZycsICctaW1hZScsICc8aW5maWxlLm1hZT4nLCAnLW9tYWUnLCAnPG91dGZpbGUubWFlPic=

> <r_lp_tautomer_probability>
1

> <r_epik_Ionization_Penalty>
0.0104119

> <r_epik_Ionization_Penalty_Charging>
0.0104107

> <r_epik_Ionization_Penalty_Neutral>
1.19574e-06

> <r_epik_State_Penalty>
0.00795975

> <r_epik_Charging_Adjusted_Penalty>
0.0183705

> <i_epik_Tot_Q>
1

> <i_epik_Tot_abs_Q>
1

> <r_epik_Metal_State_Penalty>
0.00795975

> <b_epik_Metal_Only>
0

> <s_lp_Force_Field>
OPLS_2005

> <r_lp_Energy>
21.2096

> <b_lp_Chiralities_Consistent>
1

> <s_lp_Variant>
AV-unprocessed.smi:1015-1

> <Gold.Version>
5.8.1

> <Gold.Id.Protein>
6NUR|6NUR_protein|mol2

> <Gold.PLP.Fitness>
44.6057

> <Gold.PLP.PLP>
-30.6428

> <Gold.PLP.part.hbond>
-3.9917

> <Gold.PLP.part.metal>
0.0000

> <Gold.PLP.part.buried>
5.5481

> <Gold.PLP.part.nonpolar>
-33.4894

> <Gold.PLP.part.repulsive>
0.4800

> <Gold.PLP.ligand.clash>
0.0000

> <Gold.PLP.ligand.torsion>
0.6760

> <Gold.PLP.Chemscore.Hbond>
4.0000

> <Gold.PLP.Chemscore.CHOScore>
1.0381

> <Gold.PLP.Chemscore.Metal>
0.0000

> <Gold.Chemscore.Hbonds>
donor molecule, donor type, donor heavy atom, donor atom, acceptor molecule, acceptor atom, score
      L1  H     5    43       P1  7948  2.00
      L1  H    10    35       P1  7957  1.00
      P1  H 10752 10764       L1    16  0.95
      L1  C    15    38       P1  7948  0.77
      L1  C    15    38       P1  7949  0.26

> <Gold.PLP.Chemscore.Internal.Correction>
0.2005

> <Gold.Rescore>
     Score         DG    S(hbond)    S(metal)    S(lipo)     H(rot)  DE(clash)    DE(int)     intcor
     11.05     -14.87       2.83        0.00      69.28       3.19       3.12       0.71       ----

> <Gold.Chemscore.Fitness>
11.0469

> <Gold.Chemscore.DG>
-14.8745

> <Gold.Chemscore.ZeroCoef>
-5.4800

> <Gold.Chemscore.Hbond>
2.8330

> <Gold.Chemscore.Metal>
0.0000

> <Gold.Chemscore.Lipo>
69.2812

> <Gold.Chemscore.Internal_Hbond>
0.0000

> <Gold.Chemscore.DEClash>
3.1178

> <Gold.Chemscore.DEInternal>
0.7099

> <Gold.Chemscore.Rot>
3.1928

> <Gold.Chemscore.Internal.Correction>
   9.000000E+99

> <Gold.Chemscore.Hbonds>
donor molecule, donor type, donor heavy atom, donor atom, acceptor molecule, acceptor atom, score
      L1  H     5    43       P1  7948  1.00
      L1  H    10    35       P1  7957  0.98
      P1  H 10752 10764       L1    16  0.15

> <Gold.Chemscore.Hbond.Weighted>
-9.4623

> <Gold.Chemscore.Metal.Weighted>
-0.0000

> <Gold.Chemscore.Lipo.Weighted>
-8.1059

> <Gold.Chemscore.Internal_Hbond.Weighted>
0.0000

> <Gold.Chemscore.DEClash.Weighted>
3.1178

> <Gold.Chemscore.DEInternal.Weighted>
0.7099

> <Gold.Chemscore.Rot.Weighted>
8.1737

> <Gold.Chemscore.Internal.Correction.Weighted>
   9.000000E+99

> <Gold.Protein.RotatedTorsions>
[ 6907 6896 6895 6894 ] final  -35.36 input  -60.11 | X-H torsion
[ 7974 7965 7964 7962 ] final -101.25 input  175.53 | X-H torsion
[ 8008 7997 7996 7995 ] final   38.47 input   59.86 | X-H torsion
[ 10167 10162 10161 10158 ] final   65.79 input  -65.29 | X-H torsion
[ 10718 10713 10712 10709 ] final  -62.07 input   66.30 | X-H torsion
[ 10763 10752 10751 10750 ] final  -71.23 input  -60.55 | X-H torsion
[ 11005 11000 10999 10996 ] final -126.26 input  -57.11 | X-H torsion

> <Gold.Protein.ActiveResidues>
 VAL166  LYS551  ARG553  GLY616  TRP617  ASP618  TYR619  PRO620  LYS621  CYS622 
 ASP623  PHE694  ASN695  SER759  ASP760  ASP761  ALA762  ILE779  LEU786  VAL792 
 PHE793  MET794  SER795  GLU796  ALA797  LYS798  CYS799  TRP800  GLU811  SER814 

> <Gold.Protein.RotatedAtoms>
  151.0407  134.9605  159.8160 H   0  0  0  0  0  0  0  0  0  0  0  0  # atno 6907 bound_to 6896
  152.5363  134.2661  159.8964 H   0  0  0  0  0  0  0  0  0  0  0  0  # atno 6908 bound_to 6896
  151.2673  133.4230  159.2653 H   0  0  0  0  0  0  0  0  0  0  0  0  # atno 6909 bound_to 6896
  145.2841  140.9334  143.2915 H   0  0  0  0  0  0  0  0  0  0  0  0  # atno 7974 bound_to 7965
  155.2206  140.3330  155.4316 H   0  0  0  0  0  0  0  0  0  0  0  0  # atno 8008 bound_to 7997
  156.2334  140.1861  156.7229 H   0  0  0  0  0  0  0  0  0  0  0  0  # atno 8009 bound_to 7997
  154.6018  140.0622  156.9363 H   0  0  0  0  0  0  0  0  0  0  0  0  # atno 8010 bound_to 7997
  140.1075  144.4848  150.6999 H   0  0  0  0  0  0  0  0  0  0  0  0  # atno 10167 bound_to 10162
  156.0880  130.4205  150.1083 H   0  0  0  0  0  0  0  0  0  0  0  0  # atno 10718 bound_to 10713
  154.4288  135.5969  153.6055 H   0  0  0  0  0  0  0  0  0  0  0  0  # atno 10763 bound_to 10752
  152.9797  135.5970  154.3865 H   0  0  0  0  0  0  0  0  0  0  0  0  # atno 10764 bound_to 10752
  154.3700  135.2841  155.2250 H   0  0  0  0  0  0  0  0  0  0  0  0  # atno 10765 bound_to 10752
  140.9696  134.0824  157.3884 H   0  0  0  0  0  0  0  0  0  0  0  0  # atno 11005 bound_to 11000
  144.9228  139.4391  143.6533 LP  0  0  0  0  0  0  0  0  0  0  0  0  # atno 17320 bound_to 7965
  146.3207  139.8098  142.8948 LP  0  0  0  0  0  0  0  0  0  0  0  0  # atno 17321 bound_to 7965
  140.6944  143.2395  151.5042 LP  0  0  0  0  0  0  0  0  0  0  0  0  # atno 17342 bound_to 10162
  139.5637  144.2093  152.1732 LP  0  0  0  0  0  0  0  0  0  0  0  0  # atno 17343 bound_to 10162
  156.9099  130.9648  151.3564 LP  0  0  0  0  0  0  0  0  0  0  0  0  # atno 17370 bound_to 10713
  157.6020  130.8519  149.8817 LP  0  0  0  0  0  0  0  0  0  0  0  0  # atno 17371 bound_to 10713
  139.8907  135.0114  156.6751 LP  0  0  0  0  0  0  0  0  0  0  0  0  # atno 17394 bound_to 11000
  140.7349  133.9027  155.8237 LP  0  0  0  0  0  0  0  0  0  0  0  0  # atno 17395 bound_to 11000

$$$$
