AV-unprocessed.smi:3062|AV-procd|sdf|11684|dock6
  -GOLD-   2272017 93D 1   1.00000     0.00000
 Structure written by MMmdl.
 39 40  0  0  0  0  0  0  0  0  1 V2000
  147.1596  137.7451  154.4584 C   0  0  0  0  0  0  0  0  0  0  0  0
  148.4197  137.1870  155.0634 C   0  0  0  0  0  0  0  0  0  0  0  0
  149.5072  137.8550  154.8590 N   0  0  0  0  0  0  0  0  0  0  0  0
  150.7177  137.4331  155.3717 N   0  0  0  0  0  0  0  0  0  0  0  0
  151.8440  138.3129  155.0377 C   0  0  0  0  0  0  0  0  0  0  0  0
  151.6605  139.7383  155.6043 C   0  0  1  0  0  0  0  0  0  0  0  0
  150.4572  140.3072  155.1286 O   0  0  0  0  0  0  0  0  0  0  0  0
  151.6165  139.7719  157.1407 C   0  0  0  0  0  0  0  0  0  0  0  0
  151.4065  141.1024  157.5848 O   0  0  0  0  0  0  0  0  0  0  0  0
  151.5635  141.2519  158.9860 C   0  0  0  0  0  0  0  0  0  0  0  0
  151.4171  142.7049  159.3163 C   0  0  0  0  0  0  0  0  0  0  0  0
  151.2727  143.7362  158.4233 C   0  0  0  0  0  0  0  0  0  0  0  0
  151.1633  145.0136  159.0476 C   0  0  0  0  0  0  0  0  0  0  0  0
  151.2288  144.9446  160.4136 C   0  0  0  0  0  0  0  0  0  0  0  0
  151.4301  143.3033  160.9612 S   0  0  0  0  0  0  0  0  0  0  0  0
  150.8935  136.3093  156.1239 C   0  0  0  0  0  0  0  0  0  0  0  0
  151.9943  135.9700  156.5609 O   0  0  0  0  0  0  0  0  0  0  0  0
  149.6577  135.5568  156.3517 C   0  0  0  0  0  0  0  0  0  0  0  0
  149.7958  134.3732  157.1377 C   0  0  0  0  0  0  0  0  0  0  0  0
  149.9063  133.4248  157.7925 N   0  0  0  0  0  0  0  0  0  0  0  0
  148.4631  135.9584  155.8500 C   0  0  0  0  0  0  0  0  0  0  0  0
  147.1517  135.2134  156.0593 C   0  0  0  0  0  0  0  0  0  0  0  0
  146.3923  137.8836  155.2200 H   0  0  0  0  0  0  0  0  0  0  0  0
  146.7653  137.0709  153.6980 H   0  0  0  0  0  0  0  0  0  0  0  0
  147.3293  138.7137  153.9852 H   0  0  0  0  0  0  0  0  0  0  0  0
  152.7873  137.8847  155.3832 H   0  0  0  0  0  0  0  0  0  0  0  0
  151.9401  138.3606  153.9515 H   0  0  0  0  0  0  0  0  0  0  0  0
  152.4768  140.3841  155.2791 H   0  0  0  0  0  0  0  0  0  0  0  0
  149.8816  139.6059  154.8637 H   0  0  0  0  0  0  0  0  0  0  0  0
  150.7911  139.1492  157.4891 H   0  0  0  0  0  0  0  0  0  0  0  0
  152.5325  139.3581  157.5664 H   0  0  0  0  0  0  0  0  0  0  0  0
  150.8082  140.6715  159.5172 H   0  0  0  0  0  0  0  0  0  0  0  0
  152.5452  140.8924  159.2979 H   0  0  0  0  0  0  0  0  0  0  0  0
  151.2410  143.6183  157.3502 H   0  0  0  0  0  0  0  0  0  0  0  0
  151.0423  145.9253  158.4813 H   0  0  0  0  0  0  0  0  0  0  0  0
  151.1727  145.7526  161.1281 H   0  0  0  0  0  0  0  0  0  0  0  0
  147.2952  134.2608  156.5686 H   0  0  0  0  0  0  0  0  0  0  0  0
  146.6710  135.0004  155.1039 H   0  0  0  0  0  0  0  0  0  0  0  0
  146.4682  135.8111  156.6631 H   0  0  0  0  0  0  0  0  0  0  0  0
  1  2  1  0  0  0  0
  1 23  1  0  0  0  0
  1 24  1  0  0  0  0
  1 25  1  0  0  0  0
  2 21  1  0  0  0  0
  2  3  2  0  0  0  0
  3  4  1  0  0  0  0
  4  5  1  0  0  0  0
  4 16  1  0  0  0  0
  5  6  1  0  0  0  0
  5 26  1  0  0  0  0
  5 27  1  0  0  0  0
  6  7  1  0  0  0  0
  6  8  1  0  0  0  0
  6 28  1  0  0  0  0
  7 29  1  0  0  0  0
  8  9  1  0  0  0  0
  8 30  1  0  0  0  0
  8 31  1  0  0  0  0
  9 10  1  0  0  0  0
 10 11  1  0  0  0  0
 10 32  1  0  0  0  0
 10 33  1  0  0  0  0
 11 15  1  0  0  0  0
 11 12  2  0  0  0  0
 12 13  1  0  0  0  0
 12 34  1  0  0  0  0
 13 14  2  0  0  0  0
 13 35  1  0  0  0  0
 14 15  1  0  0  0  0
 14 36  1  0  0  0  0
 16 17  2  0  0  0  0
 16 18  1  0  0  0  0
 18 19  1  0  0  0  0
 18 21  2  0  0  0  0
 19 20  3  0  0  0  0
 21 22  1  0  0  0  0
 22 37  1  0  0  0  0
 22 38  1  0  0  0  0
 22 39  1  0  0  0  0
M  END
> <s_m_source_file>
AV-unprocessed.smi

> <i_m_source_file_index>
3062

> <i_lp_mmshare_version>
43012

> <i_f3d_flags>
0

> <s_epik_input>
TiNDYyhjMVtDSDNdKWMoPU8pbihuYzFbQ0gzXSlbQ0gyXVtDQEhdKFtPSF0pW0NIMl1PW0NIMl1jMltjSF1bY0hdW2NIXXMy

> <s_epik_cmdline>
J2VwaWtfcHl0aG9uJywgJy1waCcsICc3LjAnLCAnLXRuJywgJzgnLCAnLW1hJywgJzIwMCcsICctbWV0YWxfYmluZGluZycsICctaW1hZScsICc8aW5maWxlLm1hZT4nLCAnLW9tYWUnLCAnPG91dGZpbGUubWFlPic=

> <r_lp_tautomer_probability>
1

> <r_epik_Ionization_Penalty>
6.86395e-08

> <r_epik_Ionization_Penalty_Charging>
2.24757e-10

> <r_epik_Ionization_Penalty_Neutral>
6.84147e-08

> <r_epik_State_Penalty>
-0

> <r_epik_Charging_Adjusted_Penalty>
2.24757e-10

> <i_epik_Tot_Q>
0

> <i_epik_Tot_abs_Q>
0

> <r_epik_Metal_State_Penalty>
-0

> <b_epik_Metal_Only>
0

> <s_lp_Force_Field>
OPLS_2005

> <r_lp_Energy>
25.5383

> <b_lp_Chiralities_Consistent>
1

> <s_lp_Variant>
AV-unprocessed.smi:3062-2

> <Gold.Version>
5.8.1

> <Gold.Id.Protein>
6NUR|6NUR_protein|mol2

> <Gold.PLP.Fitness>
47.2464

> <Gold.PLP.PLP>
-38.2971

> <Gold.PLP.part.hbond>
-3.0000

> <Gold.PLP.part.metal>
0.0000

> <Gold.PLP.part.buried>
-3.8045

> <Gold.PLP.part.nonpolar>
-31.4260

> <Gold.PLP.part.repulsive>
0.1784

> <Gold.PLP.ligand.clash>
0.0000

> <Gold.PLP.ligand.torsion>
0.0617

> <Gold.PLP.Chemscore.Hbond>
3.0000

> <Gold.PLP.Chemscore.CHOScore>
0.0000

> <Gold.PLP.Chemscore.Metal>
0.0000

> <Gold.Chemscore.Hbonds>
donor molecule, donor type, donor heavy atom, donor atom, acceptor molecule, acceptor atom, score
      P1  H  6896  6908       L1    20  1.00
      P1  H  7989  7998       L1     7  0.17
      P1  H 10752 10764       L1    17  1.00

> <Gold.PLP.Chemscore.Internal.Correction>
0.0727

> <Gold.Rescore>
     Score         DG    S(hbond)    S(metal)    S(lipo)     H(rot)  DE(clash)    DE(int)     intcor
     17.22     -17.57       1.98        0.00     101.65       2.51       0.11       0.24       ----

> <Gold.Chemscore.Fitness>
17.2187

> <Gold.Chemscore.DG>
-17.5716

> <Gold.Chemscore.ZeroCoef>
-5.4800

> <Gold.Chemscore.Hbond>
1.9848

> <Gold.Chemscore.Metal>
0.0000

> <Gold.Chemscore.Lipo>
101.6474

> <Gold.Chemscore.Internal_Hbond>
0.0000

> <Gold.Chemscore.DEClash>
0.1130

> <Gold.Chemscore.DEInternal>
0.2399

> <Gold.Chemscore.Rot>
2.5119

> <Gold.Chemscore.Internal.Correction>
   9.000000E+99

> <Gold.Chemscore.Hbonds>
donor molecule, donor type, donor heavy atom, donor atom, acceptor molecule, acceptor atom, score
      P1  H  6896  6908       L1    20  0.78
      P1  H 10752 10764       L1    17  0.78

> <Gold.Chemscore.Hbond.Weighted>
-6.6293

> <Gold.Chemscore.Metal.Weighted>
-0.0000

> <Gold.Chemscore.Lipo.Weighted>
-11.8927

> <Gold.Chemscore.Internal_Hbond.Weighted>
0.0000

> <Gold.Chemscore.DEClash.Weighted>
0.1130

> <Gold.Chemscore.DEInternal.Weighted>
0.2399

> <Gold.Chemscore.Rot.Weighted>
6.4305

> <Gold.Chemscore.Internal.Correction.Weighted>
   9.000000E+99

> <Gold.Protein.RotatedTorsions>
[ 6907 6896 6895 6894 ] final  119.33 input  -60.11 | X-H torsion
[ 7974 7965 7964 7962 ] final  179.89 input  175.53 | X-H torsion
[ 8008 7997 7996 7995 ] final   63.28 input   59.86 | X-H torsion
[ 10167 10162 10161 10158 ] final  128.17 input  -65.29 | X-H torsion
[ 10718 10713 10712 10709 ] final  159.70 input   66.30 | X-H torsion
[ 10763 10752 10751 10750 ] final  -24.64 input  -60.55 | X-H torsion
[ 11005 11000 10999 10996 ] final  110.04 input  -57.11 | X-H torsion

> <Gold.Protein.ActiveResidues>
 VAL166  LYS551  ARG553  GLY616  TRP617  ASP618  TYR619  PRO620  LYS621  CYS622 
 ASP623  PHE694  ASN695  SER759  ASP760  ASP761  ALA762  ILE779  LEU786  VAL792 
 PHE793  MET794  SER795  GLU796  ALA797  LYS798  CYS799  TRP800  GLU811  SER814 

> <Gold.Protein.RotatedAtoms>
  152.4480  133.7573  159.6726 H   0  0  0  0  0  0  0  0  0  0  0  0  # atno 6907 bound_to 6896
  150.8384  133.7966  159.3076 H   0  0  0  0  0  0  0  0  0  0  0  0  # atno 6908 bound_to 6896
  151.5598  135.1068  160.0021 H   0  0  0  0  0  0  0  0  0  0  0  0  # atno 6909 bound_to 6896
  144.7142  140.0616  143.6432 H   0  0  0  0  0  0  0  0  0  0  0  0  # atno 7974 bound_to 7965
  155.6277  140.3496  155.4672 H   0  0  0  0  0  0  0  0  0  0  0  0  # atno 8008 bound_to 7997
  156.0028  140.1217  157.0554 H   0  0  0  0  0  0  0  0  0  0  0  0  # atno 8009 bound_to 7997
  154.4254  140.1097  156.5707 H   0  0  0  0  0  0  0  0  0  0  0  0  # atno 8010 bound_to 7997
  139.5540  144.6835  151.4237 H   0  0  0  0  0  0  0  0  0  0  0  0  # atno 10167 bound_to 10162
  157.1606  131.0586  151.2234 H   0  0  0  0  0  0  0  0  0  0  0  0  # atno 10718 bound_to 10713
  153.6870  135.6964  153.5101 H   0  0  0  0  0  0  0  0  0  0  0  0  # atno 10763 bound_to 10752
  153.2442  135.4296  155.0729 H   0  0  0  0  0  0  0  0  0  0  0  0  # atno 10764 bound_to 10752
  154.8384  135.3515  154.6412 H   0  0  0  0  0  0  0  0  0  0  0  0  # atno 10765 bound_to 10752
  139.8874  134.9474  156.6219 H   0  0  0  0  0  0  0  0  0  0  0  0  # atno 11005 bound_to 11000
  145.9859  139.2977  143.1014 LP  0  0  0  0  0  0  0  0  0  0  0  0  # atno 17320 bound_to 7965
  145.8958  140.9275  143.0529 LP  0  0  0  0  0  0  0  0  0  0  0  0  # atno 17321 bound_to 7965
  140.6809  143.8083  150.7121 LP  0  0  0  0  0  0  0  0  0  0  0  0  # atno 17342 bound_to 10162
  140.1536  143.4336  152.2114 LP  0  0  0  0  0  0  0  0  0  0  0  0  # atno 17343 bound_to 10162
  157.4136  130.7399  149.6858 LP  0  0  0  0  0  0  0  0  0  0  0  0  # atno 17370 bound_to 10713
  155.9754  130.4089  150.3849 LP  0  0  0  0  0  0  0  0  0  0  0  0  # atno 17371 bound_to 10713
  140.7733  133.8720  155.8509 LP  0  0  0  0  0  0  0  0  0  0  0  0  # atno 17394 bound_to 11000
  140.9823  134.1389  157.4483 LP  0  0  0  0  0  0  0  0  0  0  0  0  # atno 17395 bound_to 11000

$$$$
