AV-unprocessed.smi:2944|AV-procd|sdf|11274|dock10
  -GOLD-   2272016163D 1   1.00000     0.00000
 Structure written by MMmdl.
 45 47  0  0  0  0  0  0  0  0  2 V2000
  150.8693  137.2896  154.7692 C   0  0  0  0  0  0  0  0  0  0  0  0
  152.1274  137.6788  155.2912 O   0  0  0  0  0  0  0  0  0  0  0  0
  152.2071  139.0735  155.5380 C   0  0  0  0  0  0  0  0  0  0  0  0
  151.4882  139.4188  156.8501 C   0  0  0  0  0  0  0  0  0  0  0  0
  151.1865  140.8535  156.9708 N   0  0  0  0  0  0  0  0  0  0  0  0
  150.3771  141.6504  156.2194 C   0  0  0  0  0  0  0  0  0  0  0  0
  149.3839  141.1505  154.8507 S   0  0  0  0  0  0  0  0  0  0  0  0
  147.6957  140.9659  155.5063 C   0  0  2  0  0  0  0  0  0  0  0  0
  147.3654  139.4764  155.6967 C   0  0  0  0  0  0  0  0  0  0  0  0
  146.6550  141.6568  154.5979 C   0  0  0  0  0  0  0  0  0  0  0  0
  146.5870  141.2729  153.4274 O   0  0  0  0  0  0  0  0  0  0  0  0
  145.9005  142.6773  155.0967 N   0  0  0  0  0  0  0  0  0  0  0  0
  144.9700  143.4810  154.3024 C   0  0  0  0  0  0  0  0  0  0  0  0
  144.3459  144.4496  155.2976 C   0  0  0  0  0  0  0  0  0  0  0  0
  145.0145  144.0883  156.5209 N   0  0  0  0  0  0  0  0  0  0  0  0
  145.8885  143.0879  156.3884 C   0  0  0  0  0  0  0  0  0  0  0  0
  146.5437  142.6349  157.3275 O   0  0  0  0  0  0  0  0  0  0  0  0
  150.4417  142.9099  156.7315 N   0  3  0  0  0  0  0  0  0  0  0  0
  151.2820  142.9168  157.8447 C   0  0  0  0  0  0  0  0  0  0  0  0
  151.6429  143.9492  158.7045 C   0  0  0  0  0  0  0  0  0  0  0  0
  152.5231  143.6180  159.7555 C   0  0  0  0  0  0  0  0  0  0  0  0
  153.0086  142.3046  159.9204 C   0  0  0  0  0  0  0  0  0  0  0  0
  152.6361  141.2661  159.0417 C   0  0  0  0  0  0  0  0  0  0  0  0
  151.7655  141.6005  158.0045 C   0  0  0  0  0  0  0  0  0  0  0  0
  150.8559  136.2108  154.6145 H   0  0  0  0  0  0  0  0  0  0  0  0
  150.6751  137.7710  153.8100 H   0  0  0  0  0  0  0  0  0  0  0  0
  150.0609  137.5404  155.4569 H   0  0  0  0  0  0  0  0  0  0  0  0
  153.2515  139.3826  155.5988 H   0  0  0  0  0  0  0  0  0  0  0  0
  151.7547  139.6240  154.7121 H   0  0  0  0  0  0  0  0  0  0  0  0
  150.5639  138.8498  156.9489 H   0  0  0  0  0  0  0  0  0  0  0  0
  152.1106  139.1381  157.7001 H   0  0  0  0  0  0  0  0  0  0  0  0
  147.7011  141.4030  156.5018 H   0  0  0  0  0  0  0  0  0  0  0  0
  146.3519  139.3399  156.0759 H   0  0  0  0  0  0  0  0  0  0  0  0
  148.0461  139.0173  156.4140 H   0  0  0  0  0  0  0  0  0  0  0  0
  147.4506  138.9200  154.7623 H   0  0  0  0  0  0  0  0  0  0  0  0
  145.4957  144.0219  153.5139 H   0  0  0  0  0  0  0  0  0  0  0  0
  144.2007  142.8592  153.8482 H   0  0  0  0  0  0  0  0  0  0  0  0
  144.5446  145.4905  155.0399 H   0  0  0  0  0  0  0  0  0  0  0  0
  143.2689  144.3035  155.3909 H   0  0  0  0  0  0  0  0  0  0  0  0
  144.8323  144.5607  157.3948 H   0  0  0  0  0  0  0  0  0  0  0  0
  151.2703  144.9557  158.5812 H   0  0  0  0  0  0  0  0  0  0  0  0
  152.8309  144.3863  160.4497 H   0  0  0  0  0  0  0  0  0  0  0  0
  153.6801  142.0882  160.7388 H   0  0  0  0  0  0  0  0  0  0  0  0
  153.0092  140.2625  159.1827 H   0  0  0  0  0  0  0  0  0  0  0  0
  149.9326  143.7001  156.3559 H   0  0  0  0  0  0  0  0  0  0  0  0
  1  2  1  0  0  0  0
  1 25  1  0  0  0  0
  1 26  1  0  0  0  0
  1 27  1  0  0  0  0
  2  3  1  0  0  0  0
  3  4  1  0  0  0  0
  3 28  1  0  0  0  0
  3 29  1  0  0  0  0
  4  5  1  0  0  0  0
  4 30  1  0  0  0  0
  4 31  1  0  0  0  0
  5 24  1  0  0  0  0
  5  6  1  0  0  0  0
  6  7  1  0  0  0  0
  6 18  2  0  0  0  0
  7  8  1  0  0  0  0
  8  9  1  0  0  0  0
  8 10  1  0  0  0  0
  8 32  1  0  0  0  0
  9 33  1  0  0  0  0
  9 34  1  0  0  0  0
  9 35  1  0  0  0  0
 10 11  2  0  0  0  0
 10 12  1  0  0  0  0
 12 16  1  0  0  0  0
 12 13  1  0  0  0  0
 13 14  1  0  0  0  0
 13 36  1  0  0  0  0
 13 37  1  0  0  0  0
 14 15  1  0  0  0  0
 14 38  1  0  0  0  0
 14 39  1  0  0  0  0
 15 16  1  0  0  0  0
 15 40  1  0  0  0  0
 16 17  2  0  0  0  0
 18 19  1  0  0  0  0
 18 45  1  0  0  0  0
 19 24  2  0  0  0  0
 19 20  1  0  0  0  0
 20 21  2  0  0  0  0
 20 41  1  0  0  0  0
 21 22  1  0  0  0  0
 21 42  1  0  0  0  0
 22 23  2  0  0  0  0
 22 43  1  0  0  0  0
 23 24  1  0  0  0  0
 23 44  1  0  0  0  0
M  CHG  1  18   1
M  END
> <s_m_source_file>
AV-unprocessed.smi

> <i_m_source_file_index>
2944

> <i_lp_mmshare_version>
43012

> <i_f3d_flags>
0

> <s_epik_input>
W2NIXTFbY0hdW2NIXVtjSF1jKGMxMiluKFtDSDJdW0NIMl1PW0NIM10pYyhuMilTW0NASF0oW0NIM10pQyg9TylOM1tDSDJdW0NIMl1bTkhdQzM9Tw==

> <s_epik_cmdline>
J2VwaWtfcHl0aG9uJywgJy1waCcsICc3LjAnLCAnLXRuJywgJzgnLCAnLW1hJywgJzIwMCcsICctbWV0YWxfYmluZGluZycsICctaW1hZScsICc8aW5maWxlLm1hZT4nLCAnLW9tYWUnLCAnPG91dGZpbGUubWFlPic=

> <r_lp_tautomer_probability>
0.9999

> <r_epik_Ionization_Penalty>
1.88808

> <r_epik_Ionization_Penalty_Charging>
1.88806

> <r_epik_Ionization_Penalty_Neutral>
2.68145e-05

> <r_epik_State_Penalty>
2.00836

> <r_epik_Charging_Adjusted_Penalty>
3.89641

> <i_epik_Tot_Q>
1

> <i_epik_Tot_abs_Q>
1

> <r_epik_Metal_State_Penalty>
2.03272

> <b_epik_Metal_Only>
0

> <s_lp_Force_Field>
OPLS_2005

> <r_lp_Energy>
42.6194

> <b_lp_Chiralities_Consistent>
1

> <s_lp_Variant>
AV-unprocessed.smi:2944-3

> <Gold.Version>
5.8.1

> <Gold.Id.Protein>
6NUR|6NUR_protein|mol2

> <Gold.PLP.Fitness>
50.6529

> <Gold.PLP.PLP>
-47.6204

> <Gold.PLP.part.hbond>
-1.6964

> <Gold.PLP.part.metal>
0.0000

> <Gold.PLP.part.buried>
-4.8798

> <Gold.PLP.part.nonpolar>
-41.8631

> <Gold.PLP.part.repulsive>
0.4610

> <Gold.PLP.ligand.clash>
0.8794

> <Gold.PLP.ligand.torsion>
1.0999

> <Gold.PLP.Chemscore.Hbond>
2.0000

> <Gold.PLP.Chemscore.CHOScore>
0.0000

> <Gold.PLP.Chemscore.Metal>
0.0000

> <Gold.Chemscore.Hbonds>
donor molecule, donor type, donor heavy atom, donor atom, acceptor molecule, acceptor atom, score
      L1  H    18    45       P1  8028  2.00
      P1  H 10752 10764       L1     2  0.07

> <Gold.PLP.Chemscore.Internal.Correction>
0.1117

> <Gold.Rescore>
     Score         DG    S(hbond)    S(metal)    S(lipo)     H(rot)  DE(clash)    DE(int)     intcor
     12.95     -15.80       0.98        0.00     110.56       2.30       0.21       2.64       ----

> <Gold.Chemscore.Fitness>
12.9537

> <Gold.Chemscore.DG>
-15.7977

> <Gold.Chemscore.ZeroCoef>
-5.4800

> <Gold.Chemscore.Hbond>
0.9783

> <Gold.Chemscore.Metal>
0.0000

> <Gold.Chemscore.Lipo>
110.5572

> <Gold.Chemscore.Internal_Hbond>
0.0000

> <Gold.Chemscore.DEClash>
0.2078

> <Gold.Chemscore.DEInternal>
2.6361

> <Gold.Chemscore.Rot>
2.2988

> <Gold.Chemscore.Internal.Correction>
   9.000000E+99

> <Gold.Chemscore.Hbonds>
donor molecule, donor type, donor heavy atom, donor atom, acceptor molecule, acceptor atom, score
      L1  H    18    45       P1  8028  0.99
      P1  H 10752 10764       L1     2  0.01

> <Gold.Chemscore.Hbond.Weighted>
-3.2675

> <Gold.Chemscore.Metal.Weighted>
-0.0000

> <Gold.Chemscore.Lipo.Weighted>
-12.9352

> <Gold.Chemscore.Internal_Hbond.Weighted>
0.0000

> <Gold.Chemscore.DEClash.Weighted>
0.2078

> <Gold.Chemscore.DEInternal.Weighted>
2.6361

> <Gold.Chemscore.Rot.Weighted>
5.8850

> <Gold.Chemscore.Internal.Correction.Weighted>
   9.000000E+99

> <Gold.Protein.RotatedTorsions>
[ 6907 6896 6895 6894 ] final  144.54 input  -60.11 | X-H torsion
[ 7974 7965 7964 7962 ] final  176.24 input  175.53 | X-H torsion
[ 8008 7997 7996 7995 ] final  157.57 input   59.86 | X-H torsion
[ 10167 10162 10161 10158 ] final   69.95 input  -65.29 | X-H torsion
[ 10718 10713 10712 10709 ] final  163.30 input   66.30 | X-H torsion
[ 10763 10752 10751 10750 ] final  -40.80 input  -60.55 | X-H torsion
[ 11005 11000 10999 10996 ] final   -9.40 input  -57.11 | X-H torsion

> <Gold.Protein.ActiveResidues>
 VAL166  LYS551  ARG553  GLY616  TRP617  ASP618  TYR619  PRO620  LYS621  CYS622 
 ASP623  PHE694  ASN695  SER759  ASP760  ASP761  ALA762  ILE779  LEU786  VAL792 
 PHE793  MET794  SER795  GLU796  ALA797  LYS798  CYS799  TRP800  GLU811  SER814 

> <Gold.Protein.RotatedAtoms>
  152.1923  133.4782  159.5014 H   0  0  0  0  0  0  0  0  0  0  0  0  # atno 6907 bound_to 6896
  150.6953  134.1696  159.4216 H   0  0  0  0  0  0  0  0  0  0  0  0  # atno 6908 bound_to 6896
  151.9611  135.0123  160.0598 H   0  0  0  0  0  0  0  0  0  0  0  0  # atno 6909 bound_to 6896
  144.7187  140.0068  143.6440 H   0  0  0  0  0  0  0  0  0  0  0  0  # atno 7974 bound_to 7965
  156.2356  140.1882  156.7128 H   0  0  0  0  0  0  0  0  0  0  0  0  # atno 8008 bound_to 7997
  154.6100  140.0623  156.9509 H   0  0  0  0  0  0  0  0  0  0  0  0  # atno 8009 bound_to 7997
  155.2031  140.3294  155.4342 H   0  0  0  0  0  0  0  0  0  0  0  0  # atno 8010 bound_to 7997
  140.0623  144.5223  150.7286 H   0  0  0  0  0  0  0  0  0  0  0  0  # atno 10167 bound_to 10162
  157.1105  131.0466  151.2459 H   0  0  0  0  0  0  0  0  0  0  0  0  # atno 10718 bound_to 10713
  153.9520  135.6749  153.4744 H   0  0  0  0  0  0  0  0  0  0  0  0  # atno 10763 bound_to 10752
  153.0880  135.4889  154.8631 H   0  0  0  0  0  0  0  0  0  0  0  0  # atno 10764 bound_to 10752
  154.7320  135.3140  154.8834 H   0  0  0  0  0  0  0  0  0  0  0  0  # atno 10765 bound_to 10752
  140.7338  133.8727  155.8913 H   0  0  0  0  0  0  0  0  0  0  0  0  # atno 11005 bound_to 11000
  146.0291  139.3319  143.0766 LP  0  0  0  0  0  0  0  0  0  0  0  0  # atno 17320 bound_to 7965
  145.8475  140.9547  143.0767 LP  0  0  0  0  0  0  0  0  0  0  0  0  # atno 17321 bound_to 7965
  140.7166  143.2550  151.4414 LP  0  0  0  0  0  0  0  0  0  0  0  0  # atno 17342 bound_to 10162
  139.5886  144.1548  152.2060 LP  0  0  0  0  0  0  0  0  0  0  0  0  # atno 17343 bound_to 10162
  157.4563  130.7627  149.7196 LP  0  0  0  0  0  0  0  0  0  0  0  0  # atno 17370 bound_to 10713
  155.9851  130.3985  150.3275 LP  0  0  0  0  0  0  0  0  0  0  0  0  # atno 17371 bound_to 10713
  140.9898  134.1294  157.4419 LP  0  0  0  0  0  0  0  0  0  0  0  0  # atno 17394 bound_to 11000
  139.8820  135.0037  156.6201 LP  0  0  0  0  0  0  0  0  0  0  0  0  # atno 17395 bound_to 11000

$$$$
