AV-unprocessed.smi:2534|AV-procd|sdf|9974|dock9
  -GOLD-   2272014 23D 1   1.00000     0.00000
 Structure written by MMmdl.
 40 42  0  0  0  0  0  0  0  0  1 V2000
  152.1004  145.9871  160.3288 C   0  0  0  0  0  0  0  0  0  0  0  0
  151.8108  144.6288  159.6748 C   0  0  2  0  0  0  0  0  0  0  0  0
  152.8951  144.2556  158.6494 C   0  0  0  0  0  0  0  0  0  0  0  0
  152.6147  142.8889  158.0000 C   0  0  0  0  0  0  0  0  0  0  0  0
  151.2143  142.7980  157.3508 C   0  0  1  0  0  0  0  0  0  0  0  0
  151.1803  143.6841  156.2456 O   0  0  0  0  0  0  0  0  0  0  0  0
  150.9771  141.3584  156.8228 C   0  0  0  0  0  0  0  0  0  0  0  0
  150.0163  141.2643  155.7301 N   0  0  0  0  0  0  0  0  0  0  0  0
  150.4602  141.2042  154.4470 N   0  0  0  0  0  0  0  0  0  0  0  0
  149.3699  141.1253  153.6877 C   0  0  0  0  0  0  0  0  0  0  0  0
  148.1787  141.1475  154.4631 C   0  0  0  0  0  0  0  0  0  0  0  0
  146.7515  141.0955  154.1659 C   0  0  0  0  0  0  0  0  0  0  0  0
  145.9169  141.1423  155.1563 N   0  0  0  0  0  0  0  0  0  0  0  0
  146.3591  141.2440  156.4802 N   0  0  0  0  0  0  0  0  0  0  0  0
  145.2707  141.2852  157.4561 C   0  0  0  0  0  0  0  0  0  0  0  0
  147.6719  141.3088  156.8633 C   0  0  0  0  0  0  0  0  0  0  0  0
  148.0507  141.4160  158.0297 O   0  0  0  0  0  0  0  0  0  0  0  0
  148.6346  141.2423  155.7365 C   0  0  0  0  0  0  0  0  0  0  0  0
  150.1237  143.2463  158.3552 C   0  0  0  0  0  0  0  0  0  0  0  0
  150.4250  144.6081  159.0069 C   0  0  0  0  0  0  0  0  0  0  0  0
  152.1028  146.7900  159.5908 H   0  0  0  0  0  0  0  0  0  0  0  0
  153.0727  145.9853  160.8224 H   0  0  0  0  0  0  0  0  0  0  0  0
  151.3497  146.2286  161.0817 H   0  0  0  0  0  0  0  0  0  0  0  0
  151.8171  143.8755  160.4639 H   0  0  0  0  0  0  0  0  0  0  0  0
  152.9563  145.0245  157.8782 H   0  0  0  0  0  0  0  0  0  0  0  0
  153.8715  144.2315  159.1344 H   0  0  0  0  0  0  0  0  0  0  0  0
  153.3881  142.6696  157.2629 H   0  0  0  0  0  0  0  0  0  0  0  0
  152.7047  142.1181  158.7668 H   0  0  0  0  0  0  0  0  0  0  0  0
  150.3849  144.1926  156.2917 H   0  0  0  0  0  0  0  0  0  0  0  0
  151.9163  140.9100  156.4986 H   0  0  0  0  0  0  0  0  0  0  0  0
  150.6209  140.7258  157.6373 H   0  0  0  0  0  0  0  0  0  0  0  0
  149.4796  141.0593  152.6153 H   0  0  0  0  0  0  0  0  0  0  0  0
  146.4024  141.0199  153.1363 H   0  0  0  0  0  0  0  0  0  0  0  0
  145.6076  141.3533  158.4911 H   0  0  0  0  0  0  0  0  0  0  0  0
  144.6591  140.3861  157.3720 H   0  0  0  0  0  0  0  0  0  0  0  0
  144.6292  142.1460  157.2640 H   0  0  0  0  0  0  0  0  0  0  0  0
  149.1499  143.2968  157.8672 H   0  0  0  0  0  0  0  0  0  0  0  0
  150.0303  142.4954  159.1410 H   0  0  0  0  0  0  0  0  0  0  0  0
  149.6540  144.8342  159.7441 H   0  0  0  0  0  0  0  0  0  0  0  0
  150.3658  145.3955  158.2541 H   0  0  0  0  0  0  0  0  0  0  0  0
  1  2  1  0  0  0  0
  1 21  1  0  0  0  0
  1 22  1  0  0  0  0
  1 23  1  0  0  0  0
  2 20  1  0  0  0  0
  2  3  1  0  0  0  0
  2 24  1  0  0  0  0
  3  4  1  0  0  0  0
  3 25  1  0  0  0  0
  3 26  1  0  0  0  0
  4  5  1  0  0  0  0
  4 27  1  0  0  0  0
  4 28  1  0  0  0  0
  5  6  1  0  0  0  0
  5  7  1  0  0  0  0
  5 19  1  0  0  0  0
  6 29  1  0  0  0  0
  7  8  1  0  0  0  0
  7 30  1  0  0  0  0
  7 31  1  0  0  0  0
  8 18  1  0  0  0  0
  8  9  1  0  0  0  0
  9 10  2  0  0  0  0
 10 11  1  0  0  0  0
 10 32  1  0  0  0  0
 11 18  2  0  0  0  0
 11 12  1  0  0  0  0
 12 13  2  0  0  0  0
 12 33  1  0  0  0  0
 13 14  1  0  0  0  0
 14 15  1  0  0  0  0
 14 16  1  0  0  0  0
 15 34  1  0  0  0  0
 15 35  1  0  0  0  0
 15 36  1  0  0  0  0
 16 17  2  0  0  0  0
 16 18  1  0  0  0  0
 19 20  1  0  0  0  0
 19 37  1  0  0  0  0
 19 38  1  0  0  0  0
 20 39  1  0  0  0  0
 20 40  1  0  0  0  0
M  END
> <s_m_source_file>
AV-unprocessed.smi

> <i_m_source_file_index>
2534

> <i_lp_mmshare_version>
43012

> <i_f3d_flags>
0

> <s_epik_input>
W0NIMl0xW0NIMl1bQ0BIXShbQ0gzXSlbQ0gyXVtDSDJdW0NAQF0xKFtPSF0pW0NIMl1uKG5bY0hdMiljKGMyMyljKD1PKW4oW0NIM10pbltjSF0z

> <s_epik_cmdline>
J2VwaWtfcHl0aG9uJywgJy1waCcsICc3LjAnLCAnLXRuJywgJzgnLCAnLW1hJywgJzIwMCcsICctbWV0YWxfYmluZGluZycsICctaW1hZScsICc8aW5maWxlLm1hZT4nLCAnLW9tYWUnLCAnPG91dGZpbGUubWFlPic=

> <r_lp_tautomer_probability>
1

> <r_epik_Ionization_Penalty>
4.4666e-07

> <r_epik_Ionization_Penalty_Charging>
3.10141e-10

> <r_epik_Ionization_Penalty_Neutral>
4.46349e-07

> <r_epik_State_Penalty>
-0

> <r_epik_Charging_Adjusted_Penalty>
3.10141e-10

> <i_epik_Tot_Q>
0

> <i_epik_Tot_abs_Q>
0

> <r_epik_Metal_State_Penalty>
-0

> <b_epik_Metal_Only>
0

> <s_lp_Force_Field>
OPLS_2005

> <r_lp_Energy>
31.1347

> <b_lp_Chiralities_Consistent>
1

> <s_lp_Variant>
AV-unprocessed.smi:2534-1

> <Gold.Version>
5.8.1

> <Gold.Id.Protein>
6NUR|6NUR_protein|mol2

> <Gold.PLP.Fitness>
42.5995

> <Gold.PLP.PLP>
-34.3615

> <Gold.PLP.part.hbond>
-2.1837

> <Gold.PLP.part.metal>
0.0000

> <Gold.PLP.part.buried>
-5.9503

> <Gold.PLP.part.nonpolar>
-27.5334

> <Gold.PLP.part.repulsive>
0.3366

> <Gold.PLP.ligand.clash>
0.0000

> <Gold.PLP.ligand.torsion>
0.6779

> <Gold.PLP.Chemscore.Hbond>
1.3414

> <Gold.PLP.Chemscore.CHOScore>
1.8553

> <Gold.PLP.Chemscore.Metal>
0.0000

> <Gold.Chemscore.Hbonds>
donor molecule, donor type, donor heavy atom, donor atom, acceptor molecule, acceptor atom, score
      L1  H     6    29       P1  8028  1.00
      P1  H  7989  7998       L1     9  0.51
      L1  C    10    32       P1  7957  0.34
      L1  C    12    33       P1 10175  0.19

> <Gold.PLP.Chemscore.Internal.Correction>
0.0035

> <Gold.Rescore>
     Score         DG    S(hbond)    S(metal)    S(lipo)     H(rot)  DE(clash)    DE(int)     intcor
     13.39     -15.82       1.07        0.00      94.61       1.68       0.28       2.16       ----

> <Gold.Chemscore.Fitness>
13.3875

> <Gold.Chemscore.DG>
-15.8208

> <Gold.Chemscore.ZeroCoef>
-5.4800

> <Gold.Chemscore.Hbond>
1.0663

> <Gold.Chemscore.Metal>
0.0000

> <Gold.Chemscore.Lipo>
94.6079

> <Gold.Chemscore.Internal_Hbond>
0.0000

> <Gold.Chemscore.DEClash>
0.2759

> <Gold.Chemscore.DEInternal>
2.1573

> <Gold.Chemscore.Rot>
1.6758

> <Gold.Chemscore.Internal.Correction>
   9.000000E+99

> <Gold.Chemscore.Hbonds>
donor molecule, donor type, donor heavy atom, donor atom, acceptor molecule, acceptor atom, score
      L1  H     6    29       P1  8028  0.97
      P1  H  7989  7998       L1     9  0.22

> <Gold.Chemscore.Hbond.Weighted>
-3.5616

> <Gold.Chemscore.Metal.Weighted>
-0.0000

> <Gold.Chemscore.Lipo.Weighted>
-11.0691

> <Gold.Chemscore.Internal_Hbond.Weighted>
0.0000

> <Gold.Chemscore.DEClash.Weighted>
0.2759

> <Gold.Chemscore.DEInternal.Weighted>
2.1573

> <Gold.Chemscore.Rot.Weighted>
4.2899

> <Gold.Chemscore.Internal.Correction.Weighted>
   9.000000E+99

> <Gold.Protein.RotatedTorsions>
[ 6907 6896 6895 6894 ] final   30.80 input  -60.11 | X-H torsion
[ 7974 7965 7964 7962 ] final  139.83 input  175.53 | X-H torsion
[ 8008 7997 7996 7995 ] final  170.53 input   59.86 | X-H torsion
[ 10167 10162 10161 10158 ] final  102.43 input  -65.29 | X-H torsion
[ 10718 10713 10712 10709 ] final -142.15 input   66.30 | X-H torsion
[ 10763 10752 10751 10750 ] final  164.01 input  -60.55 | X-H torsion
[ 11005 11000 10999 10996 ] final  -32.04 input  -57.11 | X-H torsion

> <Gold.Protein.ActiveResidues>
 VAL166  LYS551  ARG553  GLY616  TRP617  ASP618  TYR619  PRO620  LYS621  CYS622 
 ASP623  PHE694  ASN695  SER759  ASP760  ASP761  ALA762  ILE779  LEU786  VAL792 
 PHE793  MET794  SER795  GLU796  ALA797  LYS798  CYS799  TRP800  GLU811  SER814 

> <Gold.Protein.RotatedAtoms>
  152.0512  134.9652  160.0574 H   0  0  0  0  0  0  0  0  0  0  0  0  # atno 6907 bound_to 6896
  152.1052  133.4266  159.4614 H   0  0  0  0  0  0  0  0  0  0  0  0  # atno 6908 bound_to 6896
  150.6841  134.2632  159.4601 H   0  0  0  0  0  0  0  0  0  0  0  0  # atno 6909 bound_to 6896
  144.9243  139.5128  143.5648 H   0  0  0  0  0  0  0  0  0  0  0  0  # atno 7974 bound_to 7965
  156.1356  140.1535  156.8999 H   0  0  0  0  0  0  0  0  0  0  0  0  # atno 8008 bound_to 7997
  154.4945  140.0842  156.7705 H   0  0  0  0  0  0  0  0  0  0  0  0  # atno 8009 bound_to 7997
  155.4174  140.3421  155.4271 H   0  0  0  0  0  0  0  0  0  0  0  0  # atno 8010 bound_to 7997
  139.7351  144.7026  151.0662 H   0  0  0  0  0  0  0  0  0  0  0  0  # atno 10167 bound_to 10162
  156.3424  130.7644  151.1783 H   0  0  0  0  0  0  0  0  0  0  0  0  # atno 10718 bound_to 10713
  154.3024  135.2759  155.2604 H   0  0  0  0  0  0  0  0  0  0  0  0  # atno 10763 bound_to 10752
  154.5035  135.5801  153.6553 H   0  0  0  0  0  0  0  0  0  0  0  0  # atno 10764 bound_to 10752
  152.9899  135.6164  154.3196 H   0  0  0  0  0  0  0  0  0  0  0  0  # atno 10765 bound_to 10752
  140.9519  133.7216  156.1233 H   0  0  0  0  0  0  0  0  0  0  0  0  # atno 11005 bound_to 11000
  146.3219  139.8146  142.8939 LP  0  0  0  0  0  0  0  0  0  0  0  0  # atno 17320 bound_to 7965
  145.3245  141.0252  143.3481 LP  0  0  0  0  0  0  0  0  0  0  0  0  # atno 17321 bound_to 7965
  140.7777  143.4995  150.9790 LP  0  0  0  0  0  0  0  0  0  0  0  0  # atno 17342 bound_to 10162
  139.8683  143.7225  152.3168 LP  0  0  0  0  0  0  0  0  0  0  0  0  # atno 17343 bound_to 10162
  157.7449  131.0450  150.4824 LP  0  0  0  0  0  0  0  0  0  0  0  0  # atno 17370 bound_to 10713
  156.5006  130.4116  149.6355 LP  0  0  0  0  0  0  0  0  0  0  0  0  # atno 17371 bound_to 10713
  140.7591  134.3960  157.5529 LP  0  0  0  0  0  0  0  0  0  0  0  0  # atno 17394 bound_to 11000
  139.8850  134.8949  156.2669 LP  0  0  0  0  0  0  0  0  0  0  0  0  # atno 17395 bound_to 11000

$$$$
