AV-unprocessed.smi:21|AV-procd|sdf|146|dock9
  -GOLD-   2262015363D 1   1.00000     0.00000
 Structure written by MMmdl.
 62 65  0  0  0  0  0  0  0  0  2 V2000
  146.9078  132.6597  152.9871 C   0  0  0  0  0  0  0  0  0  0  0  0
  146.5212  133.6513  153.9251 O   0  0  0  0  0  0  0  0  0  0  0  0
  147.3093  133.6583  155.1084 C   0  0  2  0  0  0  0  0  0  0  0  0
  147.0354  134.9458  155.8732 C   0  0  0  0  0  0  0  0  0  0  0  0
  147.9087  135.9939  155.1697 C   0  0  1  0  0  0  0  0  0  0  0  0
  148.2580  137.2194  156.0514 C   0  0  0  0  0  0  0  0  0  0  0  0
  148.8847  138.3014  155.2888 N   0  0  0  0  0  0  0  0  0  0  0  0
  148.1079  138.9404  154.2338 C   0  0  0  0  0  0  0  0  0  0  0  0
  149.9840  138.9287  155.7926 C   0  0  0  0  0  0  0  0  0  0  0  0
  151.1746  138.2748  155.7345 N   0  0  0  0  0  0  0  0  0  0  0  0
  152.2858  138.8315  156.2225 C   0  0  0  0  0  0  0  0  0  0  0  0
  152.4330  140.0191  156.8086 N   0  0  0  0  0  0  0  0  0  0  0  0
  151.2472  140.6876  156.8732 C   0  0  0  0  0  0  0  0  0  0  0  0
  149.9861  140.2233  156.3972 C   0  0  0  0  0  0  0  0  0  0  0  0
  149.0115  141.1787  156.6687 N   0  0  0  0  0  0  0  0  0  0  0  0
  149.6565  142.1483  157.2558 C   0  0  0  0  0  0  0  0  0  0  0  0
  151.0085  141.9435  157.4036 N   0  0  0  0  0  0  0  0  0  0  0  0
  151.9584  142.8465  158.0292 C   0  0  0  0  0  0  0  0  0  0  0  0
  151.9643  142.8115  159.5804 C   0  0  2  0  0  0  0  0  0  0  0  0
  151.6423  144.2235  160.1227 C   0  0  0  0  0  0  0  0  0  0  0  0
  151.1187  144.1729  161.4343 O   0  0  0  0  0  0  0  0  0  0  0  0
  153.2579  142.2118  160.2060 C   0  0  1  0  0  0  0  0  0  0  0  0
  153.2105  142.0373  161.7161 C   0  0  0  0  0  0  0  0  0  0  0  0
  154.3492  141.0590  161.9630 C   0  0  0  0  0  0  0  0  0  0  0  0
  154.2919  140.1628  160.8637 O   0  0  0  0  0  0  0  0  0  0  0  0
  153.6095  140.7783  159.7750 C   0  0  0  0  0  0  0  0  0  0  0  0
  149.0696  135.2383  154.6137 N   0  3  1  0  0  0  0  0  0  0  0  0
  150.4267  135.6304  155.0624 C   0  0  0  0  0  0  0  0  0  0  0  0
  148.7993  133.7903  154.7781 C   0  0  0  0  0  0  0  0  0  0  0  0
  147.0918  132.7842  155.7249 H   0  0  0  0  0  0  0  0  0  0  0  0
  147.3604  136.3477  154.2955 H   0  0  0  0  0  0  0  0  0  0  0  0
  146.2644  132.7193  152.1095 H   0  0  0  0  0  0  0  0  0  0  0  0
  146.8045  131.6592  153.4090 H   0  0  0  0  0  0  0  0  0  0  0  0
  147.9374  132.7934  152.6553 H   0  0  0  0  0  0  0  0  0  0  0  0
  145.9777  135.2124  155.8875 H   0  0  0  0  0  0  0  0  0  0  0  0
  147.3604  134.8238  156.9073 H   0  0  0  0  0  0  0  0  0  0  0  0
  147.3775  137.5706  156.5890 H   0  0  0  0  0  0  0  0  0  0  0  0
  148.9712  136.9230  156.8205 H   0  0  0  0  0  0  0  0  0  0  0  0
  148.7601  139.3470  153.4602 H   0  0  0  0  0  0  0  0  0  0  0  0
  147.4952  139.7460  154.6388 H   0  0  0  0  0  0  0  0  0  0  0  0
  147.4425  138.2205  153.7563 H   0  0  0  0  0  0  0  0  0  0  0  0
  153.1850  138.2405  156.1302 H   0  0  0  0  0  0  0  0  0  0  0  0
  149.1609  143.0480  157.5911 H   0  0  0  0  0  0  0  0  0  0  0  0
  152.9534  142.6175  157.6457 H   0  0  0  0  0  0  0  0  0  0  0  0
  151.7214  143.8526  157.6812 H   0  0  0  0  0  0  0  0  0  0  0  0
  151.1331  142.1810  159.8970 H   0  0  0  0  0  0  0  0  0  0  0  0
  152.5407  144.8412  160.1315 H   0  0  0  0  0  0  0  0  0  0  0  0
  150.9297  144.7396  159.4795 H   0  0  0  0  0  0  0  0  0  0  0  0
  150.8566  143.2842  161.6197 H   0  0  0  0  0  0  0  0  0  0  0  0
  154.1041  142.8595  159.9707 H   0  0  0  0  0  0  0  0  0  0  0  0
  153.3426  142.9716  162.2623 H   0  0  0  0  0  0  0  0  0  0  0  0
  152.2630  141.5907  162.0214 H   0  0  0  0  0  0  0  0  0  0  0  0
  155.3088  141.5775  161.9474 H   0  0  0  0  0  0  0  0  0  0  0  0
  154.2581  140.5350  162.9146 H   0  0  0  0  0  0  0  0  0  0  0  0
  152.7110  140.1952  159.5699 H   0  0  0  0  0  0  0  0  0  0  0  0
  154.2366  140.7575  158.8847 H   0  0  0  0  0  0  0  0  0  0  0  0
  150.5390  135.5153  156.1412 H   0  0  0  0  0  0  0  0  0  0  0  0
  150.6503  136.6623  154.7921 H   0  0  0  0  0  0  0  0  0  0  0  0
  151.1755  135.0021  154.5788 H   0  0  0  0  0  0  0  0  0  0  0  0
  149.3762  133.4078  155.6219 H   0  0  0  0  0  0  0  0  0  0  0  0
  149.1036  133.2269  153.8964 H   0  0  0  0  0  0  0  0  0  0  0  0
  149.0448  135.4148  153.6194 H   0  0  0  0  0  0  0  0  0  0  0  0
  1  2  1  0  0  0  0
  1 32  1  0  0  0  0
  1 33  1  0  0  0  0
  1 34  1  0  0  0  0
  2  3  1  0  0  0  0
  3 30  1  0  0  0  0
  3 29  1  0  0  0  0
  3  4  1  0  0  0  0
  4  5  1  0  0  0  0
  4 35  1  0  0  0  0
  4 36  1  0  0  0  0
  5 31  1  0  0  0  0
  5  6  1  0  0  0  0
  5 27  1  0  0  0  0
  6  7  1  0  0  0  0
  6 37  1  0  0  0  0
  6 38  1  0  0  0  0
  7  8  1  0  0  0  0
  7  9  1  0  0  0  0
  8 39  1  0  0  0  0
  8 40  1  0  0  0  0
  8 41  1  0  0  0  0
  9 14  1  0  0  0  0
  9 10  2  0  0  0  0
 10 11  1  0  0  0  0
 11 12  2  0  0  0  0
 11 42  1  0  0  0  0
 12 13  1  0  0  0  0
 13 17  1  0  0  0  0
 13 14  2  0  0  0  0
 14 15  1  0  0  0  0
 15 16  2  0  0  0  0
 16 17  1  0  0  0  0
 16 43  1  0  0  0  0
 17 18  1  0  0  0  0
 18 19  1  0  0  0  0
 18 44  1  0  0  0  0
 18 45  1  0  0  0  0
 19 20  1  0  0  0  0
 19 22  1  0  0  0  0
 19 46  1  0  0  0  0
 20 21  1  0  0  0  0
 20 47  1  0  0  0  0
 20 48  1  0  0  0  0
 21 49  1  0  0  0  0
 22 26  1  0  0  0  0
 22 23  1  0  0  0  0
 22 50  1  0  0  0  0
 23 24  1  0  0  0  0
 23 51  1  0  0  0  0
 23 52  1  0  0  0  0
 24 25  1  0  0  0  0
 24 53  1  0  0  0  0
 24 54  1  0  0  0  0
 25 26  1  0  0  0  0
 26 55  1  0  0  0  0
 26 56  1  0  0  0  0
 27 28  1  0  0  0  0
 27 29  1  0  0  0  0
 27 62  1  0  0  0  0
 28 57  1  0  0  0  0
 28 58  1  0  0  0  0
 28 59  1  0  0  0  0
 29 60  1  0  0  0  0
 29 61  1  0  0  0  0
M  CHG  1  27   1
M  END
> <s_m_source_file>
AV-unprocessed.smi

> <i_m_source_file_index>
21

> <i_lp_mmshare_version>
43012

> <i_f3d_flags>
0

> <s_epik_input>
W0NIM11PW0NASF0xW0NIMl1bQ0BIXShOKFtDSDNdKVtDSDJdMSlbQ0gyXU4oW0NIM10pYyhuW2NIXW4yKWMoYzIzKW5bY0hdbjNbQ0gyXVtDQEhdKFtDSDJdW09IXSlbQ0BASF00W0NIMl1bQ0gyXU9bQ0gyXTQ=

> <s_epik_cmdline>
J2VwaWtfcHl0aG9uJywgJy1waCcsICc3LjAnLCAnLXRuJywgJzgnLCAnLW1hJywgJzIwMCcsICctbWV0YWxfYmluZGluZycsICctaW1hZScsICc8aW5maWxlLm1hZT4nLCAnLW9tYWUnLCAnPG91dGZpbGUubWFlPic=

> <r_lp_tautomer_probability>
1

> <r_epik_Ionization_Penalty>
0.0157465

> <r_epik_Ionization_Penalty_Charging>
0.015354

> <r_epik_Ionization_Penalty_Neutral>
0.000392529

> <r_epik_State_Penalty>
0.0120612

> <r_epik_Charging_Adjusted_Penalty>
0.0274152

> <i_epik_Tot_Q>
1

> <i_epik_Tot_abs_Q>
1

> <r_epik_Metal_State_Penalty>
0.0121253

> <b_epik_Metal_Only>
0

> <s_lp_Force_Field>
OPLS_2005

> <r_lp_Energy>
61.785

> <b_lp_Chiralities_Consistent>
1

> <s_lp_Variant>
AV-unprocessed.smi:21-26

> <Gold.Version>
5.8.1

> <Gold.Id.Protein>
6NUR|6NUR_protein|mol2

> <Gold.PLP.Fitness>
50.3009

> <Gold.PLP.PLP>
-45.6521

> <Gold.PLP.part.hbond>
-4.4853

> <Gold.PLP.part.metal>
0.0000

> <Gold.PLP.part.buried>
-1.8513

> <Gold.PLP.part.nonpolar>
-37.7760

> <Gold.PLP.part.repulsive>
0.1879

> <Gold.PLP.ligand.clash>
0.0000

> <Gold.PLP.ligand.torsion>
2.6452

> <Gold.PLP.Chemscore.Hbond>
2.5000

> <Gold.PLP.Chemscore.CHOScore>
0.5778

> <Gold.PLP.Chemscore.Metal>
0.0000

> <Gold.Chemscore.Hbonds>
donor molecule, donor type, donor heavy atom, donor atom, acceptor molecule, acceptor atom, score
      L1  H    27    62       P1  7948  2.00
      P1  H  7997  8009       L1    12  0.75
      L1  C    16    43       P1  8028  0.60

> <Gold.PLP.Chemscore.Internal.Correction>
0.7058

> <Gold.Rescore>
     Score         DG    S(hbond)    S(metal)    S(lipo)     H(rot)  DE(clash)    DE(int)     intcor
      9.89     -13.11       1.29        0.00      95.61       3.08       0.21       3.01       ----

> <Gold.Chemscore.Fitness>
9.8938

> <Gold.Chemscore.DG>
-13.1061

> <Gold.Chemscore.ZeroCoef>
-5.4800

> <Gold.Chemscore.Hbond>
1.2917

> <Gold.Chemscore.Metal>
0.0000

> <Gold.Chemscore.Lipo>
95.6055

> <Gold.Chemscore.Internal_Hbond>
0.0000

> <Gold.Chemscore.DEClash>
0.2053

> <Gold.Chemscore.DEInternal>
3.0070

> <Gold.Chemscore.Rot>
3.0758

> <Gold.Chemscore.Internal.Correction>
   9.000000E+99

> <Gold.Chemscore.Hbonds>
donor molecule, donor type, donor heavy atom, donor atom, acceptor molecule, acceptor atom, score
      L1  H    27    62       P1  7948  0.65
      P1  H  7997  8009       L1    12  0.09

> <Gold.Chemscore.Hbond.Weighted>
-4.3144

> <Gold.Chemscore.Metal.Weighted>
-0.0000

> <Gold.Chemscore.Lipo.Weighted>
-11.1858

> <Gold.Chemscore.Internal_Hbond.Weighted>
0.0000

> <Gold.Chemscore.DEClash.Weighted>
0.2053

> <Gold.Chemscore.DEInternal.Weighted>
3.0070

> <Gold.Chemscore.Rot.Weighted>
7.8741

> <Gold.Chemscore.Internal.Correction.Weighted>
   9.000000E+99

> <Gold.Protein.RotatedTorsions>
[ 6907 6896 6895 6894 ] final   48.08 input  -60.11 | X-H torsion
[ 7974 7965 7964 7962 ] final  -47.12 input  175.53 | X-H torsion
[ 8008 7997 7996 7995 ] final -171.11 input   59.86 | X-H torsion
[ 10167 10162 10161 10158 ] final   62.14 input  -65.29 | X-H torsion
[ 10718 10713 10712 10709 ] final  -33.17 input   66.30 | X-H torsion
[ 10763 10752 10751 10750 ] final  111.97 input  -60.55 | X-H torsion
[ 11005 11000 10999 10996 ] final  158.19 input  -57.11 | X-H torsion

> <Gold.Protein.ActiveResidues>
 VAL166  LYS551  ARG553  GLY616  TRP617  ASP618  TYR619  PRO620  LYS621  CYS622 
 ASP623  PHE694  ASN695  SER759  ASP760  ASP761  ALA762  ILE779  LEU786  VAL792 
 PHE793  MET794  SER795  GLU796  ALA797  LYS798  CYS799  TRP800  GLU811  SER814 

> <Gold.Protein.RotatedAtoms>
  152.2754  134.7887  160.0406 H   0  0  0  0  0  0  0  0  0  0  0  0  # atno 6907 bound_to 6896
  151.8485  133.3430  159.3674 H   0  0  0  0  0  0  0  0  0  0  0  0  # atno 6908 bound_to 6896
  150.7168  134.5250  159.5716 H   0  0  0  0  0  0  0  0  0  0  0  0  # atno 6909 bound_to 6896
  145.9649  140.7442  142.9439 H   0  0  0  0  0  0  0  0  0  0  0  0  # atno 7974 bound_to 7965
  155.9273  140.1085  157.1160 H   0  0  0  0  0  0  0  0  0  0  0  0  # atno 8008 bound_to 7997
  154.4064  140.1244  156.4822 H   0  0  0  0  0  0  0  0  0  0  0  0  # atno 8009 bound_to 7997
  155.7123  140.3471  155.4981 H   0  0  0  0  0  0  0  0  0  0  0  0  # atno 8010 bound_to 7997
  140.1471  144.4498  150.6779 H   0  0  0  0  0  0  0  0  0  0  0  0  # atno 10167 bound_to 10162
  156.3659  130.4331  149.7585 H   0  0  0  0  0  0  0  0  0  0  0  0  # atno 10718 bound_to 10713
  153.4710  135.3700  155.2391 H   0  0  0  0  0  0  0  0  0  0  0  0  # atno 10763 bound_to 10752
  154.8757  135.3931  154.3811 H   0  0  0  0  0  0  0  0  0  0  0  0  # atno 10764 bound_to 10752
  153.4400  135.7084  153.6240 H   0  0  0  0  0  0  0  0  0  0  0  0  # atno 10765 bound_to 10752
  140.1841  134.8454  157.2837 H   0  0  0  0  0  0  0  0  0  0  0  0  # atno 11005 bound_to 11000
  144.6823  140.2652  143.7313 LP  0  0  0  0  0  0  0  0  0  0  0  0  # atno 17320 bound_to 7965
  145.7988  139.1956  143.2060 LP  0  0  0  0  0  0  0  0  0  0  0  0  # atno 17321 bound_to 7965
  140.6725  143.2291  151.5590 LP  0  0  0  0  0  0  0  0  0  0  0  0  # atno 17342 bound_to 10162
  139.5443  144.2562  152.1413 LP  0  0  0  0  0  0  0  0  0  0  0  0  # atno 17343 bound_to 10162
  156.4731  130.8006  151.3023 LP  0  0  0  0  0  0  0  0  0  0  0  0  # atno 17370 bound_to 10713
  157.7479  131.0029  150.3019 LP  0  0  0  0  0  0  0  0  0  0  0  0  # atno 17371 bound_to 10713
  140.2234  134.3996  155.7555 LP  0  0  0  0  0  0  0  0  0  0  0  0  # atno 17394 bound_to 11000
  141.2224  133.7177  156.8526 LP  0  0  0  0  0  0  0  0  0  0  0  0  # atno 17395 bound_to 11000

$$$$
