AV-unprocessed.smi:1047|AV-procd|sdf|4592|dock10
  -GOLD-   22720 3 73D 1   1.00000     0.00000
 Structure written by MMmdl.
 55 57  0  0  0  0  0  0  0  0  1 V2000
  157.4286  135.1512  151.3713 C   0  0  0  0  0  0  0  0  0  0  0  0
  158.5509  136.1066  151.8012 C   0  0  0  0  0  0  0  0  0  0  0  0
  158.1815  137.0597  152.8460 N   0  0  0  0  0  0  0  0  0  0  0  0
  156.8953  137.6824  152.5549 C   0  0  0  0  0  0  0  0  0  0  0  0
  156.4867  138.6888  153.6430 C   0  0  0  0  0  0  0  0  0  0  0  0
  156.4608  138.0343  154.9072 O   0  0  0  0  0  0  0  0  0  0  0  0
  157.7142  137.4560  155.2624 C   0  0  1  0  0  0  0  0  0  0  0  0
  157.5538  136.8010  156.6425 C   0  0  0  0  0  0  0  0  0  0  0  0
  157.4481  137.8022  157.6998 N   0  0  0  0  0  0  0  0  0  0  0  0
  156.8199  137.2964  158.9167 C   0  0  0  0  0  0  0  0  0  0  0  0
  156.7347  138.3869  159.9977 C   0  0  2  0  0  0  0  0  0  0  0  0
  157.7236  138.1233  160.9736 O   0  0  0  0  0  0  0  0  0  0  0  0
  155.3516  138.4064  160.6765 C   0  0  0  0  0  0  0  0  0  0  0  0
  154.4258  139.3247  160.0365 N   0  0  0  0  0  0  0  0  0  0  0  0
  153.9016  139.2142  158.8010 C   0  0  0  0  0  0  0  0  0  0  0  0
  153.0622  140.1675  158.4073 N   0  0  0  0  0  0  0  0  0  0  0  0
  153.0397  140.9943  159.5177 C   0  0  0  0  0  0  0  0  0  0  0  0
  152.3331  142.1942  159.7521 C   0  0  0  0  0  0  0  0  0  0  0  0
  152.4618  142.8836  160.9790 C   0  0  0  0  0  0  0  0  0  0  0  0
  151.6816  144.1693  161.1895 C   0  0  0  0  0  0  0  0  0  0  0  0
  153.3114  142.3744  161.9940 C   0  0  0  0  0  0  0  0  0  0  0  0
  153.4704  143.1007  163.3180 C   0  0  0  0  0  0  0  0  0  0  0  0
  154.0226  141.1755  161.7771 C   0  0  0  0  0  0  0  0  0  0  0  0
  153.8837  140.4970  160.5535 C   0  0  0  0  0  0  0  0  0  0  0  0
  158.1196  136.4440  154.1698 C   0  0  0  0  0  0  0  0  0  0  0  0
  157.8089  134.4031  150.6755 H   0  0  0  0  0  0  0  0  0  0  0  0
  156.6158  135.6751  150.8695 H   0  0  0  0  0  0  0  0  0  0  0  0
  157.0125  134.6231  152.2295 H   0  0  0  0  0  0  0  0  0  0  0  0
  159.3788  135.4945  152.1613 H   0  0  0  0  0  0  0  0  0  0  0  0
  158.9300  136.6400  150.9284 H   0  0  0  0  0  0  0  0  0  0  0  0
  156.9400  138.1923  151.5918 H   0  0  0  0  0  0  0  0  0  0  0  0
  156.1240  136.9155  152.4664 H   0  0  0  0  0  0  0  0  0  0  0  0
  157.1807  139.5303  153.6731 H   0  0  0  0  0  0  0  0  0  0  0  0
  155.4980  139.0962  153.4315 H   0  0  0  0  0  0  0  0  0  0  0  0
  158.4556  138.2553  155.3256 H   0  0  0  0  0  0  0  0  0  0  0  0
  156.6517  136.1878  156.6383 H   0  0  0  0  0  0  0  0  0  0  0  0
  158.3871  136.1245  156.8364 H   0  0  0  0  0  0  0  0  0  0  0  0
  156.9341  138.6077  157.3574 H   0  0  0  0  0  0  0  0  0  0  0  0
  155.8106  136.9607  158.6751 H   0  0  0  0  0  0  0  0  0  0  0  0
  157.3518  136.4223  159.2950 H   0  0  0  0  0  0  0  0  0  0  0  0
  156.9261  139.3664  159.5565 H   0  0  0  0  0  0  0  0  0  0  0  0
  158.2810  137.4309  160.6523 H   0  0  0  0  0  0  0  0  0  0  0  0
  154.9080  137.4100  160.6536 H   0  0  0  0  0  0  0  0  0  0  0  0
  155.4449  138.6787  161.7287 H   0  0  0  0  0  0  0  0  0  0  0  0
  154.1500  138.3852  158.1546 H   0  0  0  0  0  0  0  0  0  0  0  0
  151.6879  142.5822  158.9780 H   0  0  0  0  0  0  0  0  0  0  0  0
  151.0233  144.0794  162.0538 H   0  0  0  0  0  0  0  0  0  0  0  0
  151.0641  144.4071  160.3228 H   0  0  0  0  0  0  0  0  0  0  0  0
  152.3610  145.0052  161.3563 H   0  0  0  0  0  0  0  0  0  0  0  0
  154.1845  142.5930  163.9667 H   0  0  0  0  0  0  0  0  0  0  0  0
  152.5165  143.1505  163.8434 H   0  0  0  0  0  0  0  0  0  0  0  0
  153.8310  144.1168  163.1564 H   0  0  0  0  0  0  0  0  0  0  0  0
  154.6739  140.7770  162.5409 H   0  0  0  0  0  0  0  0  0  0  0  0
  157.4085  135.6163  154.1583 H   0  0  0  0  0  0  0  0  0  0  0  0
  159.0884  136.0182  154.4294 H   0  0  0  0  0  0  0  0  0  0  0  0
  1  2  1  0  0  0  0
  1 26  1  0  0  0  0
  1 27  1  0  0  0  0
  1 28  1  0  0  0  0
  2  3  1  0  0  0  0
  2 29  1  0  0  0  0
  2 30  1  0  0  0  0
  3 25  1  0  0  0  0
  3  4  1  0  0  0  0
  4  5  1  0  0  0  0
  4 31  1  0  0  0  0
  4 32  1  0  0  0  0
  5  6  1  0  0  0  0
  5 33  1  0  0  0  0
  5 34  1  0  0  0  0
  6  7  1  0  0  0  0
  7  8  1  0  0  0  0
  7 25  1  0  0  0  0
  7 35  1  0  0  0  0
  8  9  1  0  0  0  0
  8 36  1  0  0  0  0
  8 37  1  0  0  0  0
  9 10  1  0  0  0  0
  9 38  1  0  0  0  0
 10 11  1  0  0  0  0
 10 39  1  0  0  0  0
 10 40  1  0  0  0  0
 11 12  1  0  0  0  0
 11 13  1  0  0  0  0
 11 41  1  0  0  0  0
 12 42  1  0  0  0  0
 13 14  1  0  0  0  0
 13 43  1  0  0  0  0
 13 44  1  0  0  0  0
 14 24  1  0  0  0  0
 14 15  1  0  0  0  0
 15 16  2  0  0  0  0
 15 45  1  0  0  0  0
 16 17  1  0  0  0  0
 17 24  2  0  0  0  0
 17 18  1  0  0  0  0
 18 19  2  0  0  0  0
 18 46  1  0  0  0  0
 19 20  1  0  0  0  0
 19 21  1  0  0  0  0
 20 47  1  0  0  0  0
 20 48  1  0  0  0  0
 20 49  1  0  0  0  0
 21 22  1  0  0  0  0
 21 23  2  0  0  0  0
 22 50  1  0  0  0  0
 22 51  1  0  0  0  0
 22 52  1  0  0  0  0
 23 24  1  0  0  0  0
 23 53  1  0  0  0  0
 25 54  1  0  0  0  0
 25 55  1  0  0  0  0
M  END
> <s_m_source_file>
AV-unprocessed.smi

> <i_m_source_file_index>
1047

> <i_lp_mmshare_version>
43012

> <i_f3d_flags>
0

> <s_epik_input>
W0NIM11bQ0gyXU4xW0NIMl1bQ0gyXU9bQ0BIXShbQ0gyXTEpW0NIMl1bTkhdW0NIMl1bQ0BIXShbT0hdKVtDSDJdbihbY0hdbjIpYyhjMjMpW2NIXWMoW0NIM10pYyhbY0hdMylbQ0gzXQ==

> <s_epik_cmdline>
J2VwaWtfcHl0aG9uJywgJy1waCcsICc3LjAnLCAnLXRuJywgJzgnLCAnLW1hJywgJzIwMCcsICctbWV0YWxfYmluZGluZycsICctaW1hZScsICc8aW5maWxlLm1hZT4nLCAnLW9tYWUnLCAnPG91dGZpbGUubWFlPic=

> <r_epik_Ionization_Penalty>
2.74124

> <r_epik_Ionization_Penalty_Charging>
0

> <r_epik_Ionization_Penalty_Neutral>
2.74124

> <r_epik_State_Penalty>
2.37482

> <r_epik_Charging_Adjusted_Penalty>
2.37482

> <i_epik_Tot_Q>
0

> <i_epik_Tot_abs_Q>
0

> <r_epik_Metal_State_Penalty>
2.25944

> <b_epik_Metal_Only>
0

> <s_lp_Force_Field>
OPLS_2005

> <r_lp_Energy>
35.4924

> <b_lp_Chiralities_Consistent>
1

> <s_lp_Variant>
AV-unprocessed.smi:1047-33

> <Gold.Version>
5.8.1

> <Gold.Id.Protein>
6NUR|6NUR_protein|mol2

> <Gold.PLP.Fitness>
48.3625

> <Gold.PLP.PLP>
-51.0823

> <Gold.PLP.part.hbond>
-3.0000

> <Gold.PLP.part.metal>
0.0000

> <Gold.PLP.part.buried>
-2.5296

> <Gold.PLP.part.nonpolar>
-45.3401

> <Gold.PLP.part.repulsive>
0.5008

> <Gold.PLP.ligand.clash>
0.0000

> <Gold.PLP.ligand.torsion>
1.3825

> <Gold.PLP.Chemscore.Hbond>
0.0000

> <Gold.PLP.Chemscore.CHOScore>
0.0000

> <Gold.PLP.Chemscore.Metal>
0.0000

> <Gold.PLP.Chemscore.Internal.Correction>
0.0451

> <Gold.Rescore>
     Score         DG    S(hbond)    S(metal)    S(lipo)     H(rot)  DE(clash)    DE(int)     intcor
     16.26     -17.82       0.00        0.00     160.71       2.52       0.26       1.31       ----

> <Gold.Chemscore.Fitness>
16.2580

> <Gold.Chemscore.DG>
-17.8248

> <Gold.Chemscore.ZeroCoef>
-5.4800

> <Gold.Chemscore.Hbond>
0.0009

> <Gold.Chemscore.Metal>
0.0000

> <Gold.Chemscore.Lipo>
160.7057

> <Gold.Chemscore.Internal_Hbond>
0.0000

> <Gold.Chemscore.DEClash>
0.2616

> <Gold.Chemscore.DEInternal>
1.3053

> <Gold.Chemscore.Rot>
2.5237

> <Gold.Chemscore.Internal.Correction>
   9.000000E+99

> <Gold.Chemscore.Hbond.Weighted>
-0.0029

> <Gold.Chemscore.Metal.Weighted>
-0.0000

> <Gold.Chemscore.Lipo.Weighted>
-18.8026

> <Gold.Chemscore.Internal_Hbond.Weighted>
0.0000

> <Gold.Chemscore.DEClash.Weighted>
0.2616

> <Gold.Chemscore.DEInternal.Weighted>
1.3053

> <Gold.Chemscore.Rot.Weighted>
6.4607

> <Gold.Chemscore.Internal.Correction.Weighted>
   9.000000E+99

> <Gold.Protein.RotatedTorsions>
[ 6907 6896 6895 6894 ] final  -15.97 input  -60.11 | X-H torsion
[ 7974 7965 7964 7962 ] final  137.13 input  175.53 | X-H torsion
[ 8008 7997 7996 7995 ] final  144.44 input   59.86 | X-H torsion
[ 10167 10162 10161 10158 ] final -157.22 input  -65.29 | X-H torsion
[ 10718 10713 10712 10709 ] final   37.29 input   66.30 | X-H torsion
[ 10763 10752 10751 10750 ] final -178.86 input  -60.55 | X-H torsion
[ 11005 11000 10999 10996 ] final  -67.94 input  -57.11 | X-H torsion

> <Gold.Protein.ActiveResidues>
 VAL166  LYS551  ARG553  GLY616  TRP617  ASP618  TYR619  PRO620  LYS621  CYS622 
 ASP623  PHE694  ASN695  SER759  ASP760  ASP761  ALA762  ILE779  LEU786  VAL792 
 PHE793  MET794  SER795  GLU796  ALA797  LYS798  CYS799  TRP800  GLU811  SER814 

> <Gold.Protein.RotatedAtoms>
  151.3157  135.0806  159.9287 H   0  0  0  0  0  0  0  0  0  0  0  0  # atno 6907 bound_to 6896
  152.5268  133.9690  159.7763 H   0  0  0  0  0  0  0  0  0  0  0  0  # atno 6908 bound_to 6896
  151.0002  133.6012  159.2726 H   0  0  0  0  0  0  0  0  0  0  0  0  # atno 6909 bound_to 6896
  144.9498  139.4832  143.5531 H   0  0  0  0  0  0  0  0  0  0  0  0  # atno 7974 bound_to 7965
  156.2908  140.2236  156.5053 H   0  0  0  0  0  0  0  0  0  0  0  0  # atno 8008 bound_to 7997
  154.7655  140.0470  157.1030 H   0  0  0  0  0  0  0  0  0  0  0  0  # atno 8009 bound_to 7997
  154.9939  140.3093  155.4898 H   0  0  0  0  0  0  0  0  0  0  0  0  # atno 8010 bound_to 7997
  139.6788  143.9617  152.2325 H   0  0  0  0  0  0  0  0  0  0  0  0  # atno 10167 bound_to 10162
  157.3452  130.7569  149.6939 H   0  0  0  0  0  0  0  0  0  0  0  0  # atno 10718 bound_to 10713
  154.5424  135.2807  155.1083 H   0  0  0  0  0  0  0  0  0  0  0  0  # atno 10763 bound_to 10752
  154.2561  135.6330  153.5261 H   0  0  0  0  0  0  0  0  0  0  0  0  # atno 10764 bound_to 10752
  152.9982  135.5594  154.5967 H   0  0  0  0  0  0  0  0  0  0  0  0  # atno 10765 bound_to 10752
  141.1520  133.6730  156.6369 H   0  0  0  0  0  0  0  0  0  0  0  0  # atno 11005 bound_to 11000
  146.3317  139.8575  142.8862 LP  0  0  0  0  0  0  0  0  0  0  0  0  # atno 17320 bound_to 7965
  145.2862  141.0153  143.3689 LP  0  0  0  0  0  0  0  0  0  0  0  0  # atno 17321 bound_to 7965
  139.9401  144.6687  150.8275 LP  0  0  0  0  0  0  0  0  0  0  0  0  # atno 17342 bound_to 10162
  140.7645  143.3250  151.2536 LP  0  0  0  0  0  0  0  0  0  0  0  0  # atno 17343 bound_to 10162
  155.9713  130.4156  150.4191 LP  0  0  0  0  0  0  0  0  0  0  0  0  # atno 17370 bound_to 10713
  157.2245  131.0490  151.2528 LP  0  0  0  0  0  0  0  0  0  0  0  0  # atno 17371 bound_to 10713
  140.3423  134.7838  157.4407 LP  0  0  0  0  0  0  0  0  0  0  0  0  # atno 17394 bound_to 11000
  140.0928  134.5578  155.8428 LP  0  0  0  0  0  0  0  0  0  0  0  0  # atno 17395 bound_to 11000

$$$$
