AV-unprocessed.smi:3216|AV-procd|sdf|12288|dock5
  -GOLD-   2272018133D 1   1.00000     0.00000
 Structure written by MMmdl.
 36 36  0  0  0  0  0  0  0  0  1 V2000
  151.1928  137.8994  153.9460 C   0  0  0  0  0  0  0  0  0  0  0  0
  150.7671  139.3711  154.0910 C   0  0  0  0  0  0  0  0  0  0  0  0
  151.6081  140.0738  155.1668 C   0  0  0  0  0  0  0  0  0  0  0  0
  149.2631  139.5190  154.3912 C   0  0  0  0  0  0  0  0  0  0  0  0
  148.4537  139.3026  153.1987 N   0  0  0  0  0  0  0  0  0  0  0  0
  147.1478  139.0011  153.2121 C   0  0  0  0  0  0  0  0  0  0  0  0
  146.4929  138.8767  154.2471 O   0  0  0  0  0  0  0  0  0  0  0  0
  146.4723  138.8207  151.8476 C   0  0  0  0  0  0  0  0  0  0  0  0
  145.3218  137.9031  151.8541 N   0  0  0  0  0  0  0  0  0  0  0  0
  145.6954  136.4947  151.7674 C   0  0  0  0  0  0  0  0  0  0  0  0
  144.4675  135.6362  151.4204 C   0  0  0  0  0  0  0  0  0  0  0  0
  144.8348  134.3457  150.8639 N   0  0  0  0  0  0  0  0  0  0  0  0
  144.0092  133.3745  150.3372 C   0  0  0  0  0  0  0  0  0  0  0  0
  144.8034  132.3369  149.9410 C   0  0  0  0  0  0  0  0  0  0  0  0
  146.1175  132.7736  150.2686 C   0  0  0  0  0  0  0  0  0  0  0  0
  146.1335  133.9775  150.8175 N   0  0  0  0  0  0  0  0  0  0  0  0
  150.9897  137.3379  154.8584 H   0  0  0  0  0  0  0  0  0  0  0  0
  152.2603  137.8194  153.7382 H   0  0  0  0  0  0  0  0  0  0  0  0
  150.6674  137.4062  153.1279 H   0  0  0  0  0  0  0  0  0  0  0  0
  150.9705  139.8704  153.1426 H   0  0  0  0  0  0  0  0  0  0  0  0
  151.4539  139.6228  156.1476 H   0  0  0  0  0  0  0  0  0  0  0  0
  151.3486  141.1302  155.2417 H   0  0  0  0  0  0  0  0  0  0  0  0
  152.6721  140.0137  154.9363 H   0  0  0  0  0  0  0  0  0  0  0  0
  148.9659  138.8123  155.1681 H   0  0  0  0  0  0  0  0  0  0  0  0
  149.0555  140.5192  154.7748 H   0  0  0  0  0  0  0  0  0  0  0  0
  148.9166  139.3891  152.3057 H   0  0  0  0  0  0  0  0  0  0  0  0
  146.1578  139.7874  151.4504 H   0  0  0  0  0  0  0  0  0  0  0  0
  147.2184  138.4333  151.1532 H   0  0  0  0  0  0  0  0  0  0  0  0
  144.7403  138.0457  152.6673 H   0  0  0  0  0  0  0  0  0  0  0  0
  146.4752  136.3363  151.0215 H   0  0  0  0  0  0  0  0  0  0  0  0
  146.0992  136.1739  152.7285 H   0  0  0  0  0  0  0  0  0  0  0  0
  143.8793  135.4561  152.3208 H   0  0  0  0  0  0  0  0  0  0  0  0
  143.8132  136.1619  150.7226 H   0  0  0  0  0  0  0  0  0  0  0  0
  142.9375  133.5006  150.2924 H   0  0  0  0  0  0  0  0  0  0  0  0
  144.4930  131.4073  149.4876 H   0  0  0  0  0  0  0  0  0  0  0  0
  147.0541  132.2556  150.1238 H   0  0  0  0  0  0  0  0  0  0  0  0
  1  2  1  0  0  0  0
  1 17  1  0  0  0  0
  1 18  1  0  0  0  0
  1 19  1  0  0  0  0
  2  3  1  0  0  0  0
  2  4  1  0  0  0  0
  2 20  1  0  0  0  0
  3 21  1  0  0  0  0
  3 22  1  0  0  0  0
  3 23  1  0  0  0  0
  4  5  1  0  0  0  0
  4 24  1  0  0  0  0
  4 25  1  0  0  0  0
  5  6  1  0  0  0  0
  5 26  1  0  0  0  0
  6  7  2  0  0  0  0
  6  8  1  0  0  0  0
  8  9  1  0  0  0  0
  8 27  1  0  0  0  0
  8 28  1  0  0  0  0
  9 10  1  0  0  0  0
  9 29  1  0  0  0  0
 10 11  1  0  0  0  0
 10 30  1  0  0  0  0
 10 31  1  0  0  0  0
 11 12  1  0  0  0  0
 11 32  1  0  0  0  0
 11 33  1  0  0  0  0
 12 16  1  0  0  0  0
 12 13  1  0  0  0  0
 13 14  2  0  0  0  0
 13 34  1  0  0  0  0
 14 15  1  0  0  0  0
 14 35  1  0  0  0  0
 15 16  2  0  0  0  0
 15 36  1  0  0  0  0
M  END
> <s_m_source_file>
AV-unprocessed.smi

> <i_m_source_file_index>
3216

> <i_lp_mmshare_version>
43012

> <i_f3d_flags>
0

> <s_epik_input>
W0NIM11bQ0hdKFtDSDNdKVtDSDJdW05IXUMoPU8pW0NIMl1bTkhdW0NIMl1bQ0gyXW4xW2NIXVtjSF1bY0hdbjE=

> <s_epik_cmdline>
J2VwaWtfcHl0aG9uJywgJy1waCcsICc3LjAnLCAnLXRuJywgJzgnLCAnLW1hJywgJzIwMCcsICctbWV0YWxfYmluZGluZycsICctaW1hZScsICc8aW5maWxlLm1hZT4nLCAnLW9tYWUnLCAnPG91dGZpbGUubWFlPic=

> <r_lp_tautomer_probability>
1

> <r_epik_Ionization_Penalty>
0.724936

> <r_epik_Ionization_Penalty_Charging>
0

> <r_epik_Ionization_Penalty_Neutral>
0.724936

> <r_epik_State_Penalty>
0.747957

> <r_epik_Charging_Adjusted_Penalty>
0.747957

> <i_epik_Tot_Q>
0

> <i_epik_Tot_abs_Q>
0

> <r_epik_Metal_State_Penalty>
0.746186

> <b_epik_Metal_Only>
0

> <s_lp_Force_Field>
OPLS_2005

> <r_lp_Energy>
6.66152

> <b_lp_Chiralities_Consistent>
1

> <s_lp_Variant>
AV-unprocessed.smi:3216-2

> <Gold.Version>
5.8.1

> <Gold.Id.Protein>
6NUR|6NUR_protein|mol2

> <Gold.PLP.Fitness>
44.1541

> <Gold.PLP.PLP>
-36.9252

> <Gold.PLP.part.hbond>
-2.3261

> <Gold.PLP.part.metal>
0.0000

> <Gold.PLP.part.buried>
-4.8279

> <Gold.PLP.part.nonpolar>
-31.9669

> <Gold.PLP.part.repulsive>
0.4152

> <Gold.PLP.ligand.clash>
0.0000

> <Gold.PLP.ligand.torsion>
0.9656

> <Gold.PLP.Chemscore.Hbond>
1.0000

> <Gold.PLP.Chemscore.CHOScore>
2.0000

> <Gold.PLP.Chemscore.Metal>
0.0000

> <Gold.Chemscore.Hbonds>
donor molecule, donor type, donor heavy atom, donor atom, acceptor molecule, acceptor atom, score
      L1  H     5    26       P1  7957  0.88
      L1  C    13    34       P1 10186  1.00
      L1  C    15    36       P1 10747  1.00

> <Gold.PLP.Chemscore.Internal.Correction>
0.1602

> <Gold.Rescore>
     Score         DG    S(hbond)    S(metal)    S(lipo)     H(rot)  DE(clash)    DE(int)     intcor
     10.77     -11.76       1.00        0.00      73.77       2.22       0.04       0.96       ----

> <Gold.Chemscore.Fitness>
10.7688

> <Gold.Chemscore.DG>
-11.7614

> <Gold.Chemscore.ZeroCoef>
-5.4800

> <Gold.Chemscore.Hbond>
1.0001

> <Gold.Chemscore.Metal>
0.0000

> <Gold.Chemscore.Lipo>
73.7699

> <Gold.Chemscore.Internal_Hbond>
0.0000

> <Gold.Chemscore.DEClash>
0.0358

> <Gold.Chemscore.DEInternal>
0.9568

> <Gold.Chemscore.Rot>
2.2227

> <Gold.Chemscore.Internal.Correction>
   9.000000E+99

> <Gold.Chemscore.Hbonds>
donor molecule, donor type, donor heavy atom, donor atom, acceptor molecule, acceptor atom, score
      L1  H     5    26       P1  7957  0.84

> <Gold.Chemscore.Hbond.Weighted>
-3.3405

> <Gold.Chemscore.Metal.Weighted>
-0.0000

> <Gold.Chemscore.Lipo.Weighted>
-8.6311

> <Gold.Chemscore.Internal_Hbond.Weighted>
0.0000

> <Gold.Chemscore.DEClash.Weighted>
0.0358

> <Gold.Chemscore.DEInternal.Weighted>
0.9568

> <Gold.Chemscore.Rot.Weighted>
5.6902

> <Gold.Chemscore.Internal.Correction.Weighted>
   9.000000E+99

> <Gold.Protein.RotatedTorsions>
[ 6907 6896 6895 6894 ] final    0.46 input  -60.11 | X-H torsion
[ 7974 7965 7964 7962 ] final  -72.08 input  175.53 | X-H torsion
[ 8008 7997 7996 7995 ] final -169.78 input   59.86 | X-H torsion
[ 10167 10162 10161 10158 ] final  -95.98 input  -65.29 | X-H torsion
[ 10718 10713 10712 10709 ] final  -11.47 input   66.30 | X-H torsion
[ 10763 10752 10751 10750 ] final -152.19 input  -60.55 | X-H torsion
[ 11005 11000 10999 10996 ] final -119.25 input  -57.11 | X-H torsion

> <Gold.Protein.ActiveResidues>
 VAL166  LYS551  ARG553  GLY616  TRP617  ASP618  TYR619  PRO620  LYS621  CYS622 
 ASP623  PHE694  ASN695  SER759  ASP760  ASP761  ALA762  ILE779  LEU786  VAL792 
 PHE793  MET794  SER795  GLU796  ALA797  LYS798  CYS799  TRP800  GLU811  SER814 

> <Gold.Protein.RotatedAtoms>
  151.5768  135.1060  160.0007 H   0  0  0  0  0  0  0  0  0  0  0  0  # atno 6907 bound_to 6896
  152.4374  133.7381  159.6636 H   0  0  0  0  0  0  0  0  0  0  0  0  # atno 6908 bound_to 6896
  150.8273  133.8080  159.3136 H   0  0  0  0  0  0  0  0  0  0  0  0  # atno 6909 bound_to 6896
  145.6698  140.9225  143.0889 H   0  0  0  0  0  0  0  0  0  0  0  0  # atno 7974 bound_to 7965
  155.9096  140.1055  157.1289 H   0  0  0  0  0  0  0  0  0  0  0  0  # atno 8008 bound_to 7997
  154.4037  140.1277  156.4605 H   0  0  0  0  0  0  0  0  0  0  0  0  # atno 8009 bound_to 7997
  155.7326  140.3468  155.5069 H   0  0  0  0  0  0  0  0  0  0  0  0  # atno 8010 bound_to 7997
  140.2986  143.3176  152.0272 H   0  0  0  0  0  0  0  0  0  0  0  0  # atno 10167 bound_to 10162
  156.6585  130.4975  149.6038 H   0  0  0  0  0  0  0  0  0  0  0  0  # atno 10718 bound_to 10713
  154.8010  135.3242  154.7550 H   0  0  0  0  0  0  0  0  0  0  0  0  # atno 10763 bound_to 10752
  153.8218  135.6887  153.4830 H   0  0  0  0  0  0  0  0  0  0  0  0  # atno 10764 bound_to 10752
  153.1727  135.4617  154.9867 H   0  0  0  0  0  0  0  0  0  0  0  0  # atno 10765 bound_to 10752
  141.0229  134.0097  157.3257 H   0  0  0  0  0  0  0  0  0  0  0  0  # atno 11005 bound_to 11000
  144.7060  139.8558  143.7429 LP  0  0  0  0  0  0  0  0  0  0  0  0  # atno 17320 bound_to 7965
  146.1055  139.4054  143.0320 LP  0  0  0  0  0  0  0  0  0  0  0  0  # atno 17321 bound_to 7965
  139.4920  144.6472  151.6752 LP  0  0  0  0  0  0  0  0  0  0  0  0  # atno 17342 bound_to 10162
  140.5671  144.0172  150.6198 LP  0  0  0  0  0  0  0  0  0  0  0  0  # atno 17343 bound_to 10162
  156.2029  130.6631  151.1187 LP  0  0  0  0  0  0  0  0  0  0  0  0  # atno 17370 bound_to 10713
  157.7117  131.0730  150.6475 LP  0  0  0  0  0  0  0  0  0  0  0  0  # atno 17371 bound_to 10713
  139.9157  135.0196  156.7872 LP  0  0  0  0  0  0  0  0  0  0  0  0  # atno 17394 bound_to 11000
  140.6542  133.9704  155.7771 LP  0  0  0  0  0  0  0  0  0  0  0  0  # atno 17395 bound_to 11000

$$$$
