AV-unprocessed.smi:1545|AV-procd|sdf|6217|dock3
  -GOLD-   22720 6393D 1   1.00000     0.00000
 Structure written by MMmdl.
 41 43  0  0  0  0  0  0  0  0  1 V2000
  151.0282  137.3844  153.9086 O   0  0  0  0  0  0  0  0  0  0  0  0
  150.3544  137.7955  155.0785 C   0  0  0  0  0  0  0  0  0  0  0  0
  150.6999  139.2549  155.4090 C   0  0  0  0  0  0  0  0  0  0  0  0
  151.1021  139.4204  156.7937 N   0  0  0  0  0  0  0  0  0  0  0  0
  151.3922  140.5485  157.5528 C   0  0  0  0  0  0  0  0  0  0  0  0
  151.3470  141.7945  157.0853 N   0  0  0  0  0  0  0  0  0  0  0  0
  151.7168  142.5364  158.1913 C   0  0  0  0  0  0  0  0  0  0  0  0
  151.8656  143.9327  158.3511 C   0  0  0  0  0  0  0  0  0  0  0  0
  152.2642  144.4711  159.5921 C   0  0  0  0  0  0  0  0  0  0  0  0
  152.5194  143.6233  160.6896 C   0  0  0  0  0  0  0  0  0  0  0  0
  152.3756  142.2292  160.5535 C   0  0  0  0  0  0  0  0  0  0  0  0
  151.9765  141.6960  159.3130 C   0  0  0  0  0  0  0  0  0  0  0  0
  151.7490  140.4030  158.8507 N   0  0  0  0  0  0  0  0  0  0  0  0
  151.8819  139.1688  159.6136 C   0  0  0  0  0  0  0  0  0  0  0  0
  152.9042  138.1972  158.9908 C   0  0  1  0  0  0  0  0  0  0  0  0
  153.9309  138.9277  158.3479 O   0  0  0  0  0  0  0  0  0  0  0  0
  153.4540  137.2313  160.0283 C   0  0  0  0  0  0  0  0  0  0  0  0
  154.2681  136.1450  159.6378 C   0  0  0  0  0  0  0  0  0  0  0  0
  154.7788  135.2573  160.6048 C   0  0  0  0  0  0  0  0  0  0  0  0
  154.4794  135.4511  161.9669 C   0  0  0  0  0  0  0  0  0  0  0  0
  153.6716  136.5346  162.3622 C   0  0  0  0  0  0  0  0  0  0  0  0
  153.3862  136.7236  163.6724 F   0  0  0  0  0  0  0  0  0  0  0  0
  153.1613  137.4231  161.3958 C   0  0  0  0  0  0  0  0  0  0  0  0
  150.3858  137.1870  153.2444 H   0  0  0  0  0  0  0  0  0  0  0  0
  149.2853  137.7102  154.8831 H   0  0  0  0  0  0  0  0  0  0  0  0
  150.5826  137.1262  155.9088 H   0  0  0  0  0  0  0  0  0  0  0  0
  151.4684  139.6426  154.7391 H   0  0  0  0  0  0  0  0  0  0  0  0
  149.8151  139.8741  155.2605 H   0  0  0  0  0  0  0  0  0  0  0  0
  151.2337  138.5460  157.2805 H   0  0  0  0  0  0  0  0  0  0  0  0
  151.6745  144.5907  157.5164 H   0  0  0  0  0  0  0  0  0  0  0  0
  152.3762  145.5399  159.7022 H   0  0  0  0  0  0  0  0  0  0  0  0
  152.8268  144.0441  161.6358 H   0  0  0  0  0  0  0  0  0  0  0  0
  152.5740  141.5772  161.3912 H   0  0  0  0  0  0  0  0  0  0  0  0
  152.1670  139.4194  160.6361 H   0  0  0  0  0  0  0  0  0  0  0  0
  150.9017  138.6952  159.6815 H   0  0  0  0  0  0  0  0  0  0  0  0
  152.4064  137.6152  158.2141 H   0  0  0  0  0  0  0  0  0  0  0  0
  154.7514  138.7288  158.7725 H   0  0  0  0  0  0  0  0  0  0  0  0
  154.5050  135.9909  158.5951 H   0  0  0  0  0  0  0  0  0  0  0  0
  155.4010  134.4280  160.3013 H   0  0  0  0  0  0  0  0  0  0  0  0
  154.8705  134.7702  162.7086 H   0  0  0  0  0  0  0  0  0  0  0  0
  152.5449  138.2527  161.7095 H   0  0  0  0  0  0  0  0  0  0  0  0
  1  2  1  0  0  0  0
  1 24  1  0  0  0  0
  2  3  1  0  0  0  0
  2 25  1  0  0  0  0
  2 26  1  0  0  0  0
  3  4  1  0  0  0  0
  3 27  1  0  0  0  0
  3 28  1  0  0  0  0
  4  5  1  0  0  0  0
  4 29  1  0  0  0  0
  5 13  1  0  0  0  0
  5  6  2  0  0  0  0
  6  7  1  0  0  0  0
  7 12  2  0  0  0  0
  7  8  1  0  0  0  0
  8  9  2  0  0  0  0
  8 30  1  0  0  0  0
  9 10  1  0  0  0  0
  9 31  1  0  0  0  0
 10 11  2  0  0  0  0
 10 32  1  0  0  0  0
 11 12  1  0  0  0  0
 11 33  1  0  0  0  0
 12 13  1  0  0  0  0
 13 14  1  0  0  0  0
 14 15  1  0  0  0  0
 14 34  1  0  0  0  0
 14 35  1  0  0  0  0
 15 16  1  0  0  0  0
 15 17  1  0  0  0  0
 15 36  1  0  0  0  0
 16 37  1  0  0  0  0
 17 23  1  0  0  0  0
 17 18  2  0  0  0  0
 18 19  1  0  0  0  0
 18 38  1  0  0  0  0
 19 20  2  0  0  0  0
 19 39  1  0  0  0  0
 20 21  1  0  0  0  0
 20 40  1  0  0  0  0
 21 22  1  0  0  0  0
 21 23  2  0  0  0  0
 23 41  1  0  0  0  0
M  END
> <s_m_source_file>
AV-unprocessed.smi

> <i_m_source_file_index>
1545

> <i_lp_mmshare_version>
43012

> <i_f3d_flags>
0

> <s_epik_input>
W09IXVtDSDJdW0NIMl1bTkhdYyhuMSluKGMoYzEyKVtjSF1bY0hdW2NIXVtjSF0yKVtDSDJdW0NASF0oW09IXSljM1tjSF1bY0hdW2NIXWMoRilbY0hdMw==

> <s_epik_cmdline>
J2VwaWtfcHl0aG9uJywgJy1waCcsICc3LjAnLCAnLXRuJywgJzgnLCAnLW1hJywgJzIwMCcsICctbWV0YWxfYmluZGluZycsICctaW1hZScsICc8aW5maWxlLm1hZT4nLCAnLW9tYWUnLCAnPG91dGZpbGUubWFlPic=

> <r_epik_Ionization_Penalty>
1.30972

> <r_epik_Ionization_Penalty_Charging>
0

> <r_epik_Ionization_Penalty_Neutral>
1.30972

> <r_epik_State_Penalty>
1.38438

> <r_epik_Charging_Adjusted_Penalty>
1.38438

> <i_epik_Tot_Q>
0

> <i_epik_Tot_abs_Q>
0

> <r_epik_Metal_State_Penalty>
0.00551145

> <b_epik_Metal_Only>
0

> <s_lp_Force_Field>
OPLS_2005

> <r_lp_Energy>
10.2352

> <b_lp_Chiralities_Consistent>
1

> <s_lp_Variant>
AV-unprocessed.smi:1545-4

> <Gold.Version>
5.8.1

> <Gold.Id.Protein>
6NUR|6NUR_protein|mol2

> <Gold.PLP.Fitness>
53.5925

> <Gold.PLP.PLP>
-46.0226

> <Gold.PLP.part.hbond>
-3.0000

> <Gold.PLP.part.metal>
0.0000

> <Gold.PLP.part.buried>
-3.9869

> <Gold.PLP.part.nonpolar>
-39.0798

> <Gold.PLP.part.repulsive>
0.1221

> <Gold.PLP.ligand.clash>
0.0000

> <Gold.PLP.ligand.torsion>
0.7654

> <Gold.PLP.Chemscore.Hbond>
3.0000

> <Gold.PLP.Chemscore.CHOScore>
0.0000

> <Gold.PLP.Chemscore.Metal>
0.0000

> <Gold.Chemscore.Hbonds>
donor molecule, donor type, donor heavy atom, donor atom, acceptor molecule, acceptor atom, score
      L1  H     1    24       P1  7948  0.38
      P1  H  7997  8009       L1    16  0.30

> <Gold.PLP.Chemscore.Internal.Correction>
0.1008

> <Gold.Rescore>
     Score         DG    S(hbond)    S(metal)    S(lipo)     H(rot)  DE(clash)    DE(int)     intcor
     17.87     -19.96       2.46        0.00     121.02       3.08       1.33       0.76       ----

> <Gold.Chemscore.Fitness>
17.8701

> <Gold.Chemscore.DG>
-19.9596

> <Gold.Chemscore.ZeroCoef>
-5.4800

> <Gold.Chemscore.Hbond>
2.4575

> <Gold.Chemscore.Metal>
0.0000

> <Gold.Chemscore.Lipo>
121.0209

> <Gold.Chemscore.Internal_Hbond>
0.0000

> <Gold.Chemscore.DEClash>
1.3276

> <Gold.Chemscore.DEInternal>
0.7619

> <Gold.Chemscore.Rot>
3.0812

> <Gold.Chemscore.Internal.Correction>
   9.000000E+99

> <Gold.Chemscore.Hbonds>
donor molecule, donor type, donor heavy atom, donor atom, acceptor molecule, acceptor atom, score
      L1  H     1    24       P1  7948  0.02

> <Gold.Chemscore.Hbond.Weighted>
-8.2080

> <Gold.Chemscore.Metal.Weighted>
-0.0000

> <Gold.Chemscore.Lipo.Weighted>
-14.1594

> <Gold.Chemscore.Internal_Hbond.Weighted>
0.0000

> <Gold.Chemscore.DEClash.Weighted>
1.3276

> <Gold.Chemscore.DEInternal.Weighted>
0.7619

> <Gold.Chemscore.Rot.Weighted>
7.8878

> <Gold.Chemscore.Internal.Correction.Weighted>
   9.000000E+99

> <Gold.Protein.RotatedTorsions>
[ 6907 6896 6895 6894 ] final   40.38 input  -60.11 | X-H torsion
[ 7974 7965 7964 7962 ] final   45.78 input  175.53 | X-H torsion
[ 8008 7997 7996 7995 ] final  132.14 input   59.86 | X-H torsion
[ 10167 10162 10161 10158 ] final   16.84 input  -65.29 | X-H torsion
[ 10718 10713 10712 10709 ] final   39.60 input   66.30 | X-H torsion
[ 10763 10752 10751 10750 ] final  137.99 input  -60.55 | X-H torsion
[ 11005 11000 10999 10996 ] final  -70.03 input  -57.11 | X-H torsion

> <Gold.Protein.ActiveResidues>
 VAL166  LYS551  ARG553  GLY616  TRP617  ASP618  TYR619  PRO620  LYS621  CYS622 
 ASP623  PHE694  ASN695  SER759  ASP760  ASP761  ALA762  ILE779  LEU786  VAL792 
 PHE793  MET794  SER795  GLU796  ALA797  LYS798  CYS799  TRP800  GLU811  SER814 

> <Gold.Protein.RotatedAtoms>
  152.1818  134.8748  160.0525 H   0  0  0  0  0  0  0  0  0  0  0  0  # atno 6907 bound_to 6896
  151.9669  133.3708  159.4064 H   0  0  0  0  0  0  0  0  0  0  0  0  # atno 6908 bound_to 6896
  150.6919  134.4104  159.5203 H   0  0  0  0  0  0  0  0  0  0  0  0  # atno 6909 bound_to 6896
  146.0449  139.4927  142.9755 H   0  0  0  0  0  0  0  0  0  0  0  0  # atno 7974 bound_to 7965
  156.2979  140.2554  156.3040 H   0  0  0  0  0  0  0  0  0  0  0  0  # atno 8008 bound_to 7997
  154.9390  140.0396  157.2106 H   0  0  0  0  0  0  0  0  0  0  0  0  # atno 8009 bound_to 7997
  154.8144  140.2850  155.5835 H   0  0  0  0  0  0  0  0  0  0  0  0  # atno 8010 bound_to 7997
  140.5768  143.9056  150.6757 H   0  0  0  0  0  0  0  0  0  0  0  0  # atno 10167 bound_to 10162
  157.3725  130.7709  149.7130 H   0  0  0  0  0  0  0  0  0  0  0  0  # atno 10718 bound_to 10713
  153.8823  135.3043  155.3445 H   0  0  0  0  0  0  0  0  0  0  0  0  # atno 10763 bound_to 10752
  154.7756  135.4863  153.9740 H   0  0  0  0  0  0  0  0  0  0  0  0  # atno 10764 bound_to 10752
  153.1345  135.6811  153.9223 H   0  0  0  0  0  0  0  0  0  0  0  0  # atno 10765 bound_to 10752
  141.1566  133.6779  156.6690 H   0  0  0  0  0  0  0  0  0  0  0  0  # atno 11005 bound_to 11000
  145.6822  141.0188  143.1600 LP  0  0  0  0  0  0  0  0  0  0  0  0  # atno 17320 bound_to 7965
  144.7093  139.8435  143.7420 LP  0  0  0  0  0  0  0  0  0  0  0  0  # atno 17321 bound_to 7965
  140.2546  143.3568  152.1376 LP  0  0  0  0  0  0  0  0  0  0  0  0  # atno 17342 bound_to 10162
  139.5147  144.6952  151.5649 LP  0  0  0  0  0  0  0  0  0  0  0  0  # atno 17343 bound_to 10162
  155.9758  130.4083  150.3821 LP  0  0  0  0  0  0  0  0  0  0  0  0  # atno 17370 bound_to 10713
  157.1914  131.0416  151.2698 LP  0  0  0  0  0  0  0  0  0  0  0  0  # atno 17371 bound_to 10713
  140.3189  134.8024  157.4236 LP  0  0  0  0  0  0  0  0  0  0  0  0  # atno 17394 bound_to 11000
  140.1114  134.5341  155.8263 LP  0  0  0  0  0  0  0  0  0  0  0  0  # atno 17395 bound_to 11000

$$$$
