AV-unprocessed.smi:20|AV-procd|sdf|119|dock4
  -GOLD-   2262015293D 1   1.00000     0.00000
 Structure written by MMmdl.
 57 61  0  0  0  0  0  0  0  0  1 V2000
  139.7650  136.2599  154.7152 O   0  0  0  0  0  0  0  0  0  0  0  0
  140.7813  136.5264  154.0782 C   0  0  0  0  0  0  0  0  0  0  0  0
  141.9148  135.5411  153.8447 C   0  0  0  0  0  0  0  0  0  0  0  0
  143.0732  136.4392  153.3599 C   0  0  2  0  0  0  0  0  0  0  0  0
  143.9445  135.7355  152.2939 C   0  0  0  0  0  0  0  0  0  0  0  0
  145.1614  136.5900  151.9029 C   0  0  0  0  0  0  0  0  0  0  0  0
  145.9815  136.9770  153.1417 C   0  0  0  0  0  0  0  0  0  0  0  0
  145.1305  137.6207  154.1393 N   0  0  0  0  0  0  0  0  0  0  0  0
  145.7914  138.3395  155.0806 C   0  0  0  0  0  0  0  0  0  0  0  0
  145.3938  138.2842  156.3799 N   0  0  0  0  0  0  0  0  0  0  0  0
  146.0448  138.9830  157.3143 C   0  0  0  0  0  0  0  0  0  0  0  0
  147.0956  139.7921  157.1698 N   0  0  0  0  0  0  0  0  0  0  0  0
  147.4912  139.8633  155.8670 C   0  0  0  0  0  0  0  0  0  0  0  0
  146.9044  139.1703  154.7705 C   0  0  0  0  0  0  0  0  0  0  0  0
  147.5761  139.4878  153.5959 N   0  0  0  0  0  0  0  0  0  0  0  0
  148.5115  140.3138  153.9768 C   0  0  0  0  0  0  0  0  0  0  0  0
  148.5174  140.6158  155.3204 N   0  0  0  0  0  0  0  0  0  0  0  0
  149.4478  141.4998  156.0024 C   0  0  0  0  0  0  0  0  0  0  0  0
  150.3551  140.8161  157.0644 C   0  0  1  0  0  0  0  0  0  0  0  0
  151.1288  139.6547  156.3941 C   0  0  0  0  0  0  0  0  0  0  0  0
  151.6500  140.0388  155.1383 O   0  0  0  0  0  0  0  0  0  0  0  0
  151.3337  141.7967  157.7780 C   0  0  1  0  0  0  0  0  0  0  0  0
  150.7026  142.9981  158.4671 C   0  0  0  0  0  0  0  0  0  0  0  0
  151.7925  143.4442  159.4335 C   0  0  0  0  0  0  0  0  0  0  0  0
  152.4692  142.2569  159.8204 O   0  0  0  0  0  0  0  0  0  0  0  0
  152.0857  141.1834  158.9689 C   0  0  0  0  0  0  0  0  0  0  0  0
  143.9642  136.8438  154.5640 C   0  0  0  0  0  0  0  0  0  0  0  0
  142.3294  137.6780  152.8002 C   0  0  0  0  0  0  0  0  0  0  0  0
  141.0576  137.6913  153.4963 N   0  0  0  0  0  0  0  0  0  0  0  0
  142.1566  134.9811  154.7489 H   0  0  0  0  0  0  0  0  0  0  0  0
  141.6036  134.8316  153.0768 H   0  0  0  0  0  0  0  0  0  0  0  0
  144.2932  134.7789  152.6855 H   0  0  0  0  0  0  0  0  0  0  0  0
  143.3533  135.5038  151.4073 H   0  0  0  0  0  0  0  0  0  0  0  0
  145.7893  136.0454  151.1971 H   0  0  0  0  0  0  0  0  0  0  0  0
  144.8303  137.4925  151.3879 H   0  0  0  0  0  0  0  0  0  0  0  0
  146.4267  136.0858  153.5860 H   0  0  0  0  0  0  0  0  0  0  0  0
  146.8075  137.6218  152.8429 H   0  0  0  0  0  0  0  0  0  0  0  0
  145.6689  138.8803  158.3217 H   0  0  0  0  0  0  0  0  0  0  0  0
  149.2171  140.7416  153.2794 H   0  0  0  0  0  0  0  0  0  0  0  0
  150.0541  141.9662  155.2256 H   0  0  0  0  0  0  0  0  0  0  0  0
  148.8818  142.3073  156.4683 H   0  0  0  0  0  0  0  0  0  0  0  0
  149.7213  140.3714  157.8321 H   0  0  0  0  0  0  0  0  0  0  0  0
  151.9429  139.3119  157.0335 H   0  0  0  0  0  0  0  0  0  0  0  0
  150.4849  138.7960  156.2097 H   0  0  0  0  0  0  0  0  0  0  0  0
  152.5334  139.7111  155.0666 H   0  0  0  0  0  0  0  0  0  0  0  0
  152.0690  142.1587  157.0575 H   0  0  0  0  0  0  0  0  0  0  0  0
  150.4326  143.8032  157.7864 H   0  0  0  0  0  0  0  0  0  0  0  0
  149.8107  142.6989  159.0200 H   0  0  0  0  0  0  0  0  0  0  0  0
  152.5033  144.0994  158.9285 H   0  0  0  0  0  0  0  0  0  0  0  0
  151.3927  143.9773  160.2966 H   0  0  0  0  0  0  0  0  0  0  0  0
  151.4326  140.5197  159.5374 H   0  0  0  0  0  0  0  0  0  0  0  0
  152.9607  140.6111  158.6602 H   0  0  0  0  0  0  0  0  0  0  0  0
  143.3771  137.4165  155.2838 H   0  0  0  0  0  0  0  0  0  0  0  0
  144.3157  135.9504  155.0821 H   0  0  0  0  0  0  0  0  0  0  0  0
  142.8722  138.6112  152.9536 H   0  0  0  0  0  0  0  0  0  0  0  0
  142.1332  137.5796  151.7317 H   0  0  0  0  0  0  0  0  0  0  0  0
  140.4513  138.4986  153.5167 H   0  0  0  0  0  0  0  0  0  0  0  0
  1  2  2  0  0  0  0
  2 29  1  0  0  0  0
  2  3  1  0  0  0  0
  3  4  1  0  0  0  0
  3 30  1  0  0  0  0
  3 31  1  0  0  0  0
  4 27  1  0  0  0  0
  4  5  1  0  0  0  0
  4 28  1  0  0  0  0
  5  6  1  0  0  0  0
  5 32  1  0  0  0  0
  5 33  1  0  0  0  0
  6  7  1  0  0  0  0
  6 34  1  0  0  0  0
  6 35  1  0  0  0  0
  7  8  1  0  0  0  0
  7 36  1  0  0  0  0
  7 37  1  0  0  0  0
  8  9  1  0  0  0  0
  8 27  1  0  0  0  0
  9 14  1  0  0  0  0
  9 10  2  0  0  0  0
 10 11  1  0  0  0  0
 11 12  2  0  0  0  0
 11 38  1  0  0  0  0
 12 13  1  0  0  0  0
 13 17  1  0  0  0  0
 13 14  2  0  0  0  0
 14 15  1  0  0  0  0
 15 16  2  0  0  0  0
 16 17  1  0  0  0  0
 16 39  1  0  0  0  0
 17 18  1  0  0  0  0
 18 19  1  0  0  0  0
 18 40  1  0  0  0  0
 18 41  1  0  0  0  0
 19 20  1  0  0  0  0
 19 22  1  0  0  0  0
 19 42  1  0  0  0  0
 20 21  1  0  0  0  0
 20 43  1  0  0  0  0
 20 44  1  0  0  0  0
 21 45  1  0  0  0  0
 22 26  1  0  0  0  0
 22 23  1  0  0  0  0
 22 46  1  0  0  0  0
 23 24  1  0  0  0  0
 23 47  1  0  0  0  0
 23 48  1  0  0  0  0
 24 25  1  0  0  0  0
 24 49  1  0  0  0  0
 24 50  1  0  0  0  0
 25 26  1  0  0  0  0
 26 51  1  0  0  0  0
 26 52  1  0  0  0  0
 27 53  1  0  0  0  0
 27 54  1  0  0  0  0
 28 29  1  0  0  0  0
 28 55  1  0  0  0  0
 28 56  1  0  0  0  0
 29 57  1  0  0  0  0
M  END
> <s_m_source_file>
AV-unprocessed.smi

> <i_m_source_file_index>
20

> <i_lp_mmshare_version>
43012

> <i_f3d_flags>
0

> <s_epik_input>
W0NIMl0xW05IXUMoPU8pW0NIMl1bQ0BAXTEyW0NIMl1bQ0gyXVtDSDJdTihbQ0gyXTIpYyhuW2NIXW4zKWMoYzM0KW5bY0hdbjRbQ0gyXVtDQEhdKFtDSDJdW09IXSlbQ0BASF01W0NIMl1bQ0gyXU9bQ0gyXTU=

> <s_epik_cmdline>
J2VwaWtfcHl0aG9uJywgJy1waCcsICc3LjAnLCAnLXRuJywgJzgnLCAnLW1hJywgJzIwMCcsICctbWV0YWxfYmluZGluZycsICctaW1hZScsICc8aW5maWxlLm1hZT4nLCAnLW9tYWUnLCAnPG91dGZpbGUubWFlPic=

> <r_lp_tautomer_probability>
1

> <r_epik_Ionization_Penalty>
0.0019697

> <r_epik_Ionization_Penalty_Charging>
0

> <r_epik_Ionization_Penalty_Neutral>
0.0019697

> <r_epik_State_Penalty>
0.00113613

> <r_epik_Charging_Adjusted_Penalty>
0.00113613

> <i_epik_Tot_Q>
0

> <i_epik_Tot_abs_Q>
0

> <r_epik_Metal_State_Penalty>
-0

> <b_epik_Metal_Only>
0

> <s_lp_Force_Field>
OPLS_2005

> <r_lp_Energy>
59.3743

> <b_lp_Chiralities_Consistent>
1

> <s_lp_Variant>
AV-unprocessed.smi:20-7

> <Gold.Version>
5.8.1

> <Gold.Id.Protein>
6NUR|6NUR_protein|mol2

> <Gold.PLP.Fitness>
42.3827

> <Gold.PLP.PLP>
-33.9481

> <Gold.PLP.part.hbond>
-2.0000

> <Gold.PLP.part.metal>
0.0000

> <Gold.PLP.part.buried>
-4.2275

> <Gold.PLP.part.nonpolar>
-28.7651

> <Gold.PLP.part.repulsive>
0.5898

> <Gold.PLP.ligand.clash>
0.0000

> <Gold.PLP.ligand.torsion>
0.4843

> <Gold.PLP.Chemscore.Hbond>
1.9920

> <Gold.PLP.Chemscore.CHOScore>
0.9744

> <Gold.PLP.Chemscore.Metal>
0.0000

> <Gold.Chemscore.Hbonds>
donor molecule, donor type, donor heavy atom, donor atom, acceptor molecule, acceptor atom, score
      P1  H  7989  7998       L1    21  0.74
      P1  H 11000 11005       L1     1  0.94
      L1  C    16    39       P1  7957  0.94

> <Gold.PLP.Chemscore.Internal.Correction>
0.5039

> <Gold.Rescore>
     Score         DG    S(hbond)    S(metal)    S(lipo)     H(rot)  DE(clash)    DE(int)     intcor
     10.76     -12.95       1.53        0.00      80.26       2.74       0.73       1.46       ----

> <Gold.Chemscore.Fitness>
10.7552

> <Gold.Chemscore.DG>
-12.9455

> <Gold.Chemscore.ZeroCoef>
-5.4800

> <Gold.Chemscore.Hbond>
1.5250

> <Gold.Chemscore.Metal>
0.0000

> <Gold.Chemscore.Lipo>
80.2578

> <Gold.Chemscore.Internal_Hbond>
0.0000

> <Gold.Chemscore.DEClash>
0.7259

> <Gold.Chemscore.DEInternal>
1.4644

> <Gold.Chemscore.Rot>
2.7415

> <Gold.Chemscore.Internal.Correction>
   9.000000E+99

> <Gold.Chemscore.Hbonds>
donor molecule, donor type, donor heavy atom, donor atom, acceptor molecule, acceptor atom, score
      P1  H  7989  7998       L1    21  0.09
      P1  H 11000 11005       L1     1  0.83

> <Gold.Chemscore.Hbond.Weighted>
-5.0936

> <Gold.Chemscore.Metal.Weighted>
-0.0000

> <Gold.Chemscore.Lipo.Weighted>
-9.3902

> <Gold.Chemscore.Internal_Hbond.Weighted>
0.0000

> <Gold.Chemscore.DEClash.Weighted>
0.7259

> <Gold.Chemscore.DEInternal.Weighted>
1.4644

> <Gold.Chemscore.Rot.Weighted>
7.0182

> <Gold.Chemscore.Internal.Correction.Weighted>
   9.000000E+99

> <Gold.Protein.RotatedTorsions>
[ 6907 6896 6895 6894 ] final   56.08 input  -60.11 | X-H torsion
[ 7974 7965 7964 7962 ] final -165.57 input  175.53 | X-H torsion
[ 8008 7997 7996 7995 ] final   77.37 input   59.86 | X-H torsion
[ 10167 10162 10161 10158 ] final  164.93 input  -65.29 | X-H torsion
[ 10718 10713 10712 10709 ] final -136.23 input   66.30 | X-H torsion
[ 10763 10752 10751 10750 ] final  149.09 input  -60.55 | X-H torsion
[ 11005 11000 10999 10996 ] final   88.13 input  -57.11 | X-H torsion

> <Gold.Protein.ActiveResidues>
 VAL166  LYS551  ARG553  GLY616  TRP617  ASP618  TYR619  PRO620  LYS621  CYS622 
 ASP623  PHE694  ASN695  SER759  ASP760  ASP761  ALA762  ILE779  LEU786  VAL792 
 PHE793  MET794  SER795  GLU796  ALA797  LYS798  CYS799  TRP800  GLU811  SER814 

> <Gold.Protein.RotatedAtoms>
  152.3601  134.6884  160.0209 H   0  0  0  0  0  0  0  0  0  0  0  0  # atno 6907 bound_to 6896
  151.7210  133.3309  159.3323 H   0  0  0  0  0  0  0  0  0  0  0  0  # atno 6908 bound_to 6896
  150.7599  134.6382  159.6267 H   0  0  0  0  0  0  0  0  0  0  0  0  # atno 6909 bound_to 6896
  144.7266  140.2794  143.6238 H   0  0  0  0  0  0  0  0  0  0  0  0  # atno 7974 bound_to 7965
  155.8406  140.3462  155.5629 H   0  0  0  0  0  0  0  0  0  0  0  0  # atno 8008 bound_to 7997
  155.8145  140.0903  157.1904 H   0  0  0  0  0  0  0  0  0  0  0  0  # atno 8009 bound_to 7997
  154.4005  140.1441  156.3413 H   0  0  0  0  0  0  0  0  0  0  0  0  # atno 8010 bound_to 7997
  139.4897  144.4185  151.9215 H   0  0  0  0  0  0  0  0  0  0  0  0  # atno 10167 bound_to 10162
  156.2748  130.7287  151.1265 H   0  0  0  0  0  0  0  0  0  0  0  0  # atno 10718 bound_to 10713
  154.0654  135.2871  155.3317 H   0  0  0  0  0  0  0  0  0  0  0  0  # atno 10763 bound_to 10752
  154.6781  135.5274  153.8229 H   0  0  0  0  0  0  0  0  0  0  0  0  # atno 10764 bound_to 10752
  153.0506  135.6574  154.0840 H   0  0  0  0  0  0  0  0  0  0  0  0  # atno 10765 bound_to 10752
  139.8903  134.8468  156.2958 H   0  0  0  0  0  0  0  0  0  0  0  0  # atno 11005 bound_to 11000
  145.7964  139.1947  143.2073 LP  0  0  0  0  0  0  0  0  0  0  0  0  # atno 17320 bound_to 7965
  146.0713  140.7866  142.9686 LP  0  0  0  0  0  0  0  0  0  0  0  0  # atno 17321 bound_to 7965
  140.3628  144.2952  150.5931 LP  0  0  0  0  0  0  0  0  0  0  0  0  # atno 17342 bound_to 10162
  140.5388  143.2228  151.8119 LP  0  0  0  0  0  0  0  0  0  0  0  0  # atno 17343 bound_to 10162
  157.7296  131.0623  150.5767 LP  0  0  0  0  0  0  0  0  0  0  0  0  # atno 17370 bound_to 10713
  156.5867  130.4318  149.5954 LP  0  0  0  0  0  0  0  0  0  0  0  0  # atno 17371 bound_to 10713
  140.9946  133.7188  156.0866 LP  0  0  0  0  0  0  0  0  0  0  0  0  # atno 17394 bound_to 11000
  140.7579  134.3972  157.5530 LP  0  0  0  0  0  0  0  0  0  0  0  0  # atno 17395 bound_to 11000

$$$$
