AV-unprocessed.smi:1278|AV-procd|sdf|5352|dock2
  -GOLD-   22720 4483D 1   1.00000     0.00000
 Structure written by MMmdl.
 38 39  0  0  0  0  0  0  0  0  3 V2000
  143.6788  132.7010  148.6065 C   0  0  0  0  0  0  0  0  0  0  0  0
  143.8015  132.6772  150.1403 C   0  0  1  0  0  0  0  0  0  0  0  0
  144.8676  131.6837  150.6387 C   0  0  0  0  0  0  0  0  0  0  0  0
  146.2858  132.2167  150.3903 C   0  0  0  0  0  0  0  0  0  0  0  0
  146.4577  133.6262  150.9784 C   0  0  0  0  0  0  0  0  0  0  0  0
  145.4344  134.5600  150.4417 N   0  3  2  0  0  0  0  0  0  0  0  0
  145.6702  135.9598  150.8738 C   0  0  0  0  0  0  0  0  0  0  0  0
  145.1248  136.2346  152.2883 C   0  0  0  0  0  0  0  0  0  0  0  0
  143.9027  137.0283  152.2402 N   0  0  0  0  0  0  0  0  0  0  0  0
  143.0034  137.1387  153.2284 C   0  0  0  0  0  0  0  0  0  0  0  0
  143.1840  136.5413  154.2924 O   0  0  0  0  0  0  0  0  0  0  0  0
  141.9505  137.9279  152.9195 N   0  5  0  0  0  0  0  0  0  0  0  0
  140.7467  137.6839  153.4628 C   0  0  0  0  0  0  0  0  0  0  0  0
  140.5125  136.6538  154.2838 N   0  0  0  0  0  0  0  0  0  0  0  0
  139.1924  136.5917  154.7341 C   0  0  0  0  0  0  0  0  0  0  0  0
  138.4053  137.6034  154.2516 C   0  0  0  0  0  0  0  0  0  0  0  0
  139.3044  138.6719  153.2126 S   0  0  0  0  0  0  0  0  0  0  0  0
  144.0541  134.0817  150.7265 C   0  0  0  0  0  0  0  0  0  0  0  0
  144.5909  133.0600  148.1300 H   0  0  0  0  0  0  0  0  0  0  0  0
  142.8646  133.3537  148.2902 H   0  0  0  0  0  0  0  0  0  0  0  0
  143.4694  131.7053  148.2150 H   0  0  0  0  0  0  0  0  0  0  0  0
  142.8376  132.3345  150.5187 H   0  0  0  0  0  0  0  0  0  0  0  0
  144.7327  131.5193  151.7086 H   0  0  0  0  0  0  0  0  0  0  0  0
  144.7388  130.7110  150.1621 H   0  0  0  0  0  0  0  0  0  0  0  0
  147.0180  131.5398  150.8316 H   0  0  0  0  0  0  0  0  0  0  0  0
  146.4951  132.2363  149.3204 H   0  0  0  0  0  0  0  0  0  0  0  0
  146.3878  133.5938  152.0669 H   0  0  0  0  0  0  0  0  0  0  0  0
  147.4564  133.9912  150.7356 H   0  0  0  0  0  0  0  0  0  0  0  0
  146.7342  136.1944  150.8144 H   0  0  0  0  0  0  0  0  0  0  0  0
  145.1693  136.6334  150.1771 H   0  0  0  0  0  0  0  0  0  0  0  0
  144.9413  135.2986  152.8184 H   0  0  0  0  0  0  0  0  0  0  0  0
  145.8465  136.7919  152.8840 H   0  0  0  0  0  0  0  0  0  0  0  0
  143.7192  137.5396  151.3888 H   0  0  0  0  0  0  0  0  0  0  0  0
  138.8997  135.7917  155.3977 H   0  0  0  0  0  0  0  0  0  0  0  0
  137.3590  137.7859  154.4439 H   0  0  0  0  0  0  0  0  0  0  0  0
  143.3155  134.7749  150.3252 H   0  0  0  0  0  0  0  0  0  0  0  0
  143.9022  134.0617  151.8071 H   0  0  0  0  0  0  0  0  0  0  0  0
  145.5488  134.5531  149.4382 H   0  0  0  0  0  0  0  0  0  0  0  0
  1  2  1  0  0  0  0
  1 19  1  0  0  0  0
  1 20  1  0  0  0  0
  1 21  1  0  0  0  0
  2 18  1  0  0  0  0
  2  3  1  0  0  0  0
  2 22  1  0  0  0  0
  3  4  1  0  0  0  0
  3 23  1  0  0  0  0
  3 24  1  0  0  0  0
  4  5  1  0  0  0  0
  4 25  1  0  0  0  0
  4 26  1  0  0  0  0
  5  6  1  0  0  0  0
  5 27  1  0  0  0  0
  5 28  1  0  0  0  0
  6  7  1  0  0  0  0
  6 18  1  0  0  0  0
  6 38  1  0  0  0  0
  7  8  1  0  0  0  0
  7 29  1  0  0  0  0
  7 30  1  0  0  0  0
  8  9  1  0  0  0  0
  8 31  1  0  0  0  0
  8 32  1  0  0  0  0
  9 10  1  0  0  0  0
  9 33  1  0  0  0  0
 10 11  2  0  0  0  0
 10 12  1  0  0  0  0
 12 13  1  0  0  0  0
 13 17  1  0  0  0  0
 13 14  2  0  0  0  0
 14 15  1  0  0  0  0
 15 16  2  0  0  0  0
 15 34  1  0  0  0  0
 16 17  1  0  0  0  0
 16 35  1  0  0  0  0
 18 36  1  0  0  0  0
 18 37  1  0  0  0  0
M  CHG  1   6   1
M  CHG  1  12  -1
M  END
> <s_m_source_file>
AV-unprocessed.smi

> <i_m_source_file_index>
1278

> <i_lp_mmshare_version>
43012

> <i_f3d_flags>
0

> <s_epik_input>
W0NIM11bQ0BASF0xW0NIMl1bQ0gyXVtDSDJdTihbQ0gyXTEpW0NIMl1bQ0gyXVtOSF1DKD1PKVtOSF1jMm5bY0hdW2NIXXMy

> <s_epik_cmdline>
J2VwaWtfcHl0aG9uJywgJy1waCcsICc3LjAnLCAnLXRuJywgJzgnLCAnLW1hJywgJzIwMCcsICctbWV0YWxfYmluZGluZycsICctaW1hZScsICc8aW5maWxlLm1hZT4nLCAnLW9tYWUnLCAnPG91dGZpbGUubWFlPic=

> <r_lp_tautomer_probability>
0.999

> <r_epik_Ionization_Penalty>
6.22019

> <r_epik_Ionization_Penalty_Charging>
5.38911

> <r_epik_Ionization_Penalty_Neutral>
0.831074

> <r_epik_State_Penalty>
5.38904

> <r_epik_Charging_Adjusted_Penalty>
10.7782

> <i_epik_Tot_Q>
0

> <i_epik_Tot_abs_Q>
2

> <r_epik_Metal_State_Penalty>
1.41502

> <b_epik_Metal_Only>
1

> <s_lp_Force_Field>
OPLS_2005

> <r_lp_Energy>
8.87374

> <b_lp_Chiralities_Consistent>
1

> <s_lp_Variant>
AV-unprocessed.smi:1278-6

> <Gold.Version>
5.8.1

> <Gold.Id.Protein>
6NUR|6NUR_protein|mol2

> <Gold.PLP.Fitness>
44.1117

> <Gold.PLP.PLP>
-36.6220

> <Gold.PLP.part.hbond>
-2.0000

> <Gold.PLP.part.metal>
0.0000

> <Gold.PLP.part.buried>
-4.4785

> <Gold.PLP.part.nonpolar>
-32.1066

> <Gold.PLP.part.repulsive>
1.1164

> <Gold.PLP.ligand.clash>
0.0000

> <Gold.PLP.ligand.torsion>
0.8097

> <Gold.PLP.Chemscore.Hbond>
2.0000

> <Gold.PLP.Chemscore.CHOScore>
1.0000

> <Gold.PLP.Chemscore.Metal>
0.0000

> <Gold.Chemscore.Hbonds>
donor molecule, donor type, donor heavy atom, donor atom, acceptor molecule, acceptor atom, score
      L1  H     6    38       P1  7921  1.00
      L1  H     9    33       P1 10171  1.00
      L1  C    15    34       P1 11000  1.00

> <Gold.PLP.Chemscore.Internal.Correction>
0.1091

> <Gold.Rescore>
     Score         DG    S(hbond)    S(metal)    S(lipo)     H(rot)  DE(clash)    DE(int)     intcor
     15.80     -18.66       1.90        0.00      92.60       1.57       0.60       2.26       ----

> <Gold.Chemscore.Fitness>
15.7985

> <Gold.Chemscore.DG>
-18.6567

> <Gold.Chemscore.ZeroCoef>
-5.4800

> <Gold.Chemscore.Hbond>
1.9029

> <Gold.Chemscore.Metal>
0.0000

> <Gold.Chemscore.Lipo>
92.5995

> <Gold.Chemscore.Internal_Hbond>
0.0000

> <Gold.Chemscore.DEClash>
0.5973

> <Gold.Chemscore.DEInternal>
2.2610

> <Gold.Chemscore.Rot>
1.5676

> <Gold.Chemscore.Internal.Correction>
   9.000000E+99

> <Gold.Chemscore.Hbonds>
donor molecule, donor type, donor heavy atom, donor atom, acceptor molecule, acceptor atom, score
      L1  H     6    38       P1  7921  0.94
      L1  H     9    33       P1 10171  1.00

> <Gold.Chemscore.Hbond.Weighted>
-6.3556

> <Gold.Chemscore.Metal.Weighted>
-0.0000

> <Gold.Chemscore.Lipo.Weighted>
-10.8341

> <Gold.Chemscore.Internal_Hbond.Weighted>
0.0000

> <Gold.Chemscore.DEClash.Weighted>
0.5973

> <Gold.Chemscore.DEInternal.Weighted>
2.2610

> <Gold.Chemscore.Rot.Weighted>
4.0130

> <Gold.Chemscore.Internal.Correction.Weighted>
   9.000000E+99

> <Gold.Protein.RotatedTorsions>
[ 6907 6896 6895 6894 ] final  -95.94 input  -60.11 | X-H torsion
[ 7974 7965 7964 7962 ] final -142.74 input  175.53 | X-H torsion
[ 8008 7997 7996 7995 ] final -127.11 input   59.86 | X-H torsion
[ 10167 10162 10161 10158 ] final  -70.99 input  -65.29 | X-H torsion
[ 10718 10713 10712 10709 ] final   48.79 input   66.30 | X-H torsion
[ 10763 10752 10751 10750 ] final -105.68 input  -60.55 | X-H torsion
[ 11005 11000 10999 10996 ] final -100.74 input  -57.11 | X-H torsion

> <Gold.Protein.ActiveResidues>
 VAL166  LYS551  ARG553  GLY616  TRP617  ASP618  TYR619  PRO620  LYS621  CYS622 
 ASP623  PHE694  ASN695  SER759  ASP760  ASP761  ALA762  ILE779  LEU786  VAL792 
 PHE793  MET794  SER795  GLU796  ALA797  LYS798  CYS799  TRP800  GLU811  SER814 

> <Gold.Protein.RotatedAtoms>
  150.6976  134.1580  159.4165 H   0  0  0  0  0  0  0  0  0  0  0  0  # atno 6907 bound_to 6896
  151.9561  135.0143  160.0554 H   0  0  0  0  0  0  0  0  0  0  0  0  # atno 6908 bound_to 6896
  152.1968  133.4777  159.5074 H   0  0  0  0  0  0  0  0  0  0  0  0  # atno 6909 bound_to 6896
  144.8421  140.5921  143.5445 H   0  0  0  0  0  0  0  0  0  0  0  0  # atno 7974 bound_to 7965
  155.2408  140.0428  157.2974 H   0  0  0  0  0  0  0  0  0  0  0  0  # atno 8008 bound_to 7997
  154.5829  140.2405  155.7998 H   0  0  0  0  0  0  0  0  0  0  0  0  # atno 8009 bound_to 7997
  156.2206  140.2971  155.9951 H   0  0  0  0  0  0  0  0  0  0  0  0  # atno 8010 bound_to 7997
  140.5309  143.2322  151.7264 H   0  0  0  0  0  0  0  0  0  0  0  0  # atno 10167 bound_to 10162
  157.4722  130.8262  149.8000 H   0  0  0  0  0  0  0  0  0  0  0  0  # atno 10718 bound_to 10713
  154.7962  135.4740  154.0167 H   0  0  0  0  0  0  0  0  0  0  0  0  # atno 10763 bound_to 10752
  153.1708  135.6824  153.8618 H   0  0  0  0  0  0  0  0  0  0  0  0  # atno 10764 bound_to 10752
  153.8201  135.3205  155.3387 H   0  0  0  0  0  0  0  0  0  0  0  0  # atno 10765 bound_to 10752
  141.1259  133.8422  157.1141 H   0  0  0  0  0  0  0  0  0  0  0  0  # atno 11005 bound_to 11000
  145.4672  139.1507  143.3834 LP  0  0  0  0  0  0  0  0  0  0  0  0  # atno 17320 bound_to 7965
  146.2712  140.4804  142.8814 LP  0  0  0  0  0  0  0  0  0  0  0  0  # atno 17321 bound_to 7965
  139.4954  144.4116  152.0074 LP  0  0  0  0  0  0  0  0  0  0  0  0  # atno 17342 bound_to 10162
  140.3218  144.3419  150.6008 LP  0  0  0  0  0  0  0  0  0  0  0  0  # atno 17343 bound_to 10162
  156.0079  130.3847  150.2367 LP  0  0  0  0  0  0  0  0  0  0  0  0  # atno 17370 bound_to 10713
  157.0550  131.0073  151.3241 LP  0  0  0  0  0  0  0  0  0  0  0  0  # atno 17371 bound_to 10713
  140.0257  134.9925  157.0681 LP  0  0  0  0  0  0  0  0  0  0  0  0  # atno 17394 bound_to 11000
  140.4367  134.1724  155.7171 LP  0  0  0  0  0  0  0  0  0  0  0  0  # atno 17395 bound_to 11000

$$$$
