AV-unprocessed.smi:1203|AV-procd|sdf|5036|dock8
  -GOLD-   22720 4 63D 1   1.00000     0.00000
 Structure written by MMmdl.
 40 41  0  0  0  0  0  0  0  0  2 V2000
  154.3696  138.4181  161.0486 C   0  0  0  0  0  0  0  0  0  0  0  0
  154.9626  139.7436  159.9178 S   0  0  0  0  0  0  0  0  0  0  0  0
  156.3402  140.0854  160.3029 O   0  0  0  0  0  0  0  0  0  0  0  0
  154.6604  139.3534  158.5320 O   0  0  0  0  0  0  0  0  0  0  0  0
  153.9584  141.0976  160.3278 N   0  0  0  0  0  0  0  0  0  0  0  0
  153.7889  141.5573  161.7038 C   0  0  0  0  0  0  0  0  0  0  0  0
  153.0431  142.8817  161.5663 C   0  0  0  0  0  0  0  0  0  0  0  0
  152.1920  142.6964  160.3129 C   0  0  0  0  0  0  0  0  0  0  0  0
  153.0170  141.7577  159.4065 C   0  0  2  0  0  0  0  0  0  0  0  0
  152.1205  140.8130  158.5925 C   0  0  0  0  0  0  0  0  0  0  0  0
  152.1804  139.5945  158.7613 O   0  0  0  0  0  0  0  0  0  0  0  0
  151.2900  141.3922  157.7109 N   0  0  0  0  0  0  0  0  0  0  0  0
  150.3421  140.6916  156.8479 C   0  0  0  0  0  0  0  0  0  0  0  0
  150.1191  141.4196  155.5076 C   0  0  0  0  0  0  0  0  0  0  0  0
  149.1389  140.7144  154.5855 C   0  0  0  0  0  0  0  0  0  0  0  0
  147.9891  141.3853  154.1132 C   0  0  0  0  0  0  0  0  0  0  0  0
  147.1121  140.7185  153.2326 C   0  0  0  0  0  0  0  0  0  0  0  0
  147.4032  139.3944  152.8462 C   0  0  0  0  0  0  0  0  0  0  0  0
  148.5101  138.7828  153.3218 N   0  3  0  0  0  0  0  0  0  0  0  0
  149.3746  139.3867  154.1662 C   0  0  0  0  0  0  0  0  0  0  0  0
  154.9939  137.5339  160.9228 H   0  0  0  0  0  0  0  0  0  0  0  0
  153.3384  138.1591  160.8165 H   0  0  0  0  0  0  0  0  0  0  0  0
  154.4367  138.7608  162.0808 H   0  0  0  0  0  0  0  0  0  0  0  0
  153.1961  140.8260  162.2542 H   0  0  0  0  0  0  0  0  0  0  0  0
  154.7512  141.6762  162.2025 H   0  0  0  0  0  0  0  0  0  0  0  0
  152.4513  143.1267  162.4485 H   0  0  0  0  0  0  0  0  0  0  0  0
  153.7587  143.6897  161.4080 H   0  0  0  0  0  0  0  0  0  0  0  0
  151.2347  142.2570  160.5981 H   0  0  0  0  0  0  0  0  0  0  0  0
  151.9772  143.6489  159.8277 H   0  0  0  0  0  0  0  0  0  0  0  0
  153.6116  142.3648  158.7220 H   0  0  0  0  0  0  0  0  0  0  0  0
  151.3236  142.3980  157.6246 H   0  0  0  0  0  0  0  0  0  0  0  0
  150.7357  139.6931  156.6572 H   0  0  0  0  0  0  0  0  0  0  0  0
  149.3905  140.5468  157.3621 H   0  0  0  0  0  0  0  0  0  0  0  0
  149.7642  142.4336  155.6971 H   0  0  0  0  0  0  0  0  0  0  0  0
  151.0714  141.5263  154.9870 H   0  0  0  0  0  0  0  0  0  0  0  0
  147.7869  142.4036  154.4122 H   0  0  0  0  0  0  0  0  0  0  0  0
  146.2307  141.2173  152.8566 H   0  0  0  0  0  0  0  0  0  0  0  0
  146.7888  138.8104  152.1764 H   0  0  0  0  0  0  0  0  0  0  0  0
  150.2280  138.7971  154.4686 H   0  0  0  0  0  0  0  0  0  0  0  0
  148.7021  137.8242  153.0296 H   0  0  0  0  0  0  0  0  0  0  0  0
  1  2  1  0  0  0  0
  1 21  1  0  0  0  0
  1 22  1  0  0  0  0
  1 23  1  0  0  0  0
  2  3  2  0  0  0  0
  2  4  2  0  0  0  0
  2  5  1  0  0  0  0
  5  9  1  0  0  0  0
  5  6  1  0  0  0  0
  6  7  1  0  0  0  0
  6 24  1  0  0  0  0
  6 25  1  0  0  0  0
  7  8  1  0  0  0  0
  7 26  1  0  0  0  0
  7 27  1  0  0  0  0
  8  9  1  0  0  0  0
  8 28  1  0  0  0  0
  8 29  1  0  0  0  0
  9 10  1  0  0  0  0
  9 30  1  0  0  0  0
 10 11  2  0  0  0  0
 10 12  1  0  0  0  0
 12 13  1  0  0  0  0
 12 31  1  0  0  0  0
 13 14  1  0  0  0  0
 13 32  1  0  0  0  0
 13 33  1  0  0  0  0
 14 15  1  0  0  0  0
 14 34  1  0  0  0  0
 14 35  1  0  0  0  0
 15 20  1  0  0  0  0
 15 16  2  0  0  0  0
 16 17  1  0  0  0  0
 16 36  1  0  0  0  0
 17 18  2  0  0  0  0
 17 37  1  0  0  0  0
 18 19  1  0  0  0  0
 18 38  1  0  0  0  0
 19 20  2  0  0  0  0
 19 40  1  0  0  0  0
 20 39  1  0  0  0  0
M  CHG  1  19   1
M  END
> <s_m_source_file>
AV-unprocessed.smi

> <i_m_source_file_index>
1203

> <i_lp_mmshare_version>
43012

> <i_f3d_flags>
0

> <s_epik_input>
W0NIM11TKD1PKSg9TylOMVtDSDJdW0NIMl1bQ0gyXVtDQEhdMUMoPU8pW05IXVtDSDJdW0NIMl1jMltjSF1bY0hdW2NIXW5bY0hdMg==

> <s_epik_cmdline>
J2VwaWtfcHl0aG9uJywgJy1waCcsICc3LjAnLCAnLXRuJywgJzgnLCAnLW1hJywgJzIwMCcsICctbWV0YWxfYmluZGluZycsICctaW1hZScsICc8aW5maWxlLm1hZT4nLCAnLW9tYWUnLCAnPG91dGZpbGUubWFlPic=

> <r_epik_Ionization_Penalty>
2.2835

> <r_epik_Ionization_Penalty_Charging>
2.2835

> <r_epik_Ionization_Penalty_Neutral>
1.4017e-07

> <r_epik_State_Penalty>
2.43297

> <r_epik_Charging_Adjusted_Penalty>
4.71647

> <i_epik_Tot_Q>
1

> <i_epik_Tot_abs_Q>
1

> <r_epik_Metal_State_Penalty>
2.44558

> <b_epik_Metal_Only>
0

> <s_lp_Force_Field>
OPLS_2005

> <r_lp_Energy>
15.5637

> <b_lp_Chiralities_Consistent>
1

> <s_lp_Variant>
AV-unprocessed.smi:1203-4

> <Gold.Version>
5.8.1

> <Gold.Id.Protein>
6NUR|6NUR_protein|mol2

> <Gold.PLP.Fitness>
51.1650

> <Gold.PLP.PLP>
-42.6575

> <Gold.PLP.part.hbond>
-3.0000

> <Gold.PLP.part.metal>
0.0000

> <Gold.PLP.part.buried>
-2.8268

> <Gold.PLP.part.nonpolar>
-36.6840

> <Gold.PLP.part.repulsive>
0.1086

> <Gold.PLP.ligand.clash>
0.0000

> <Gold.PLP.ligand.torsion>
1.2803

> <Gold.PLP.Chemscore.Hbond>
3.0000

> <Gold.PLP.Chemscore.CHOScore>
0.0000

> <Gold.PLP.Chemscore.Metal>
0.0000

> <Gold.Chemscore.Hbonds>
donor molecule, donor type, donor heavy atom, donor atom, acceptor molecule, acceptor atom, score
      L1  H    19    40       P1  7948  2.00
      P1  H  7997  8008       L1     4  0.84

> <Gold.PLP.Chemscore.Internal.Correction>
2.0682

> <Gold.Rescore>
     Score         DG    S(hbond)    S(metal)    S(lipo)     H(rot)  DE(clash)    DE(int)     intcor
     13.87     -19.12       1.95        0.00      98.27       1.70       0.11       5.13       ----

> <Gold.Chemscore.Fitness>
13.8732

> <Gold.Chemscore.DG>
-19.1210

> <Gold.Chemscore.ZeroCoef>
-5.4800

> <Gold.Chemscore.Hbond>
1.9457

> <Gold.Chemscore.Metal>
0.0000

> <Gold.Chemscore.Lipo>
98.2697

> <Gold.Chemscore.Internal_Hbond>
0.0000

> <Gold.Chemscore.DEClash>
0.1133

> <Gold.Chemscore.DEInternal>
5.1345

> <Gold.Chemscore.Rot>
1.7012

> <Gold.Chemscore.Internal.Correction>
   9.000000E+99

> <Gold.Chemscore.Hbonds>
donor molecule, donor type, donor heavy atom, donor atom, acceptor molecule, acceptor atom, score
      L1  H    19    40       P1  7948  0.98
      P1  H  7997  8008       L1     4  0.81

> <Gold.Chemscore.Hbond.Weighted>
-6.4986

> <Gold.Chemscore.Metal.Weighted>
-0.0000

> <Gold.Chemscore.Lipo.Weighted>
-11.4976

> <Gold.Chemscore.Internal_Hbond.Weighted>
0.0000

> <Gold.Chemscore.DEClash.Weighted>
0.1133

> <Gold.Chemscore.DEInternal.Weighted>
5.1345

> <Gold.Chemscore.Rot.Weighted>
4.3551

> <Gold.Chemscore.Internal.Correction.Weighted>
   9.000000E+99

> <Gold.Protein.RotatedTorsions>
[ 6907 6896 6895 6894 ] final  -22.23 input  -60.11 | X-H torsion
[ 7974 7965 7964 7962 ] final  -37.67 input  175.53 | X-H torsion
[ 8008 7997 7996 7995 ] final -128.77 input   59.86 | X-H torsion
[ 10167 10162 10161 10158 ] final -160.04 input  -65.29 | X-H torsion
[ 10718 10713 10712 10709 ] final  124.49 input   66.30 | X-H torsion
[ 10763 10752 10751 10750 ] final  -29.58 input  -60.55 | X-H torsion
[ 11005 11000 10999 10996 ] final -170.33 input  -57.11 | X-H torsion

> <Gold.Protein.ActiveResidues>
 VAL166  LYS551  ARG553  GLY616  TRP617  ASP618  TYR619  PRO620  LYS621  CYS622 
 ASP623  PHE694  ASN695  SER759  ASP760  ASP761  ALA762  ILE779  LEU786  VAL792 
 PHE793  MET794  SER795  GLU796  ALA797  LYS798  CYS799  TRP800  GLU811  SER814 

> <Gold.Protein.RotatedAtoms>
  151.2216  135.0520  159.8951 H   0  0  0  0  0  0  0  0  0  0  0  0  # atno 6907 bound_to 6896
  152.5415  134.0634  159.8172 H   0  0  0  0  0  0  0  0  0  0  0  0  # atno 6908 bound_to 6896
  151.0801  133.5348  159.2653 H   0  0  0  0  0  0  0  0  0  0  0  0  # atno 6909 bound_to 6896
  146.0554  140.6423  142.9022 H   0  0  0  0  0  0  0  0  0  0  0  0  # atno 7974 bound_to 7965
  155.2682  140.0439  157.3004 H   0  0  0  0  0  0  0  0  0  0  0  0  # atno 8008 bound_to 7997
  154.5669  140.2362  155.8219 H   0  0  0  0  0  0  0  0  0  0  0  0  # atno 8009 bound_to 7997
  156.2092  140.3003  155.9702 H   0  0  0  0  0  0  0  0  0  0  0  0  # atno 8010 bound_to 7997
  139.6569  143.9982  152.2200 H   0  0  0  0  0  0  0  0  0  0  0  0  # atno 10167 bound_to 10162
  157.5580  131.1091  150.8588 H   0  0  0  0  0  0  0  0  0  0  0  0  # atno 10718 bound_to 10713
  153.7670  135.6915  153.4914 H   0  0  0  0  0  0  0  0  0  0  0  0  # atno 10763 bound_to 10752
  153.1900  135.4474  155.0136 H   0  0  0  0  0  0  0  0  0  0  0  0  # atno 10764 bound_to 10752
  154.8132  135.3387  154.7181 H   0  0  0  0  0  0  0  0  0  0  0  0  # atno 10765 bound_to 10752
  140.5207  134.5711  157.5047 H   0  0  0  0  0  0  0  0  0  0  0  0  # atno 11005 bound_to 11000
  144.7145  140.4161  143.7055 LP  0  0  0  0  0  0  0  0  0  0  0  0  # atno 17320 bound_to 7965
  145.6652  139.1588  143.2786 LP  0  0  0  0  0  0  0  0  0  0  0  0  # atno 17321 bound_to 7965
  139.9711  144.6493  150.7988 LP  0  0  0  0  0  0  0  0  0  0  0  0  # atno 17342 bound_to 10162
  140.7563  143.3063  151.2953 LP  0  0  0  0  0  0  0  0  0  0  0  0  # atno 17343 bound_to 10162
  156.9093  130.5275  149.5280 LP  0  0  0  0  0  0  0  0  0  0  0  0  # atno 17370 bound_to 10713
  156.0636  130.5684  150.9244 LP  0  0  0  0  0  0  0  0  0  0  0  0  # atno 17371 bound_to 10713
  139.9607  134.7457  156.0243 LP  0  0  0  0  0  0  0  0  0  0  0  0  # atno 17394 bound_to 11000
  141.1335  133.6580  156.3530 LP  0  0  0  0  0  0  0  0  0  0  0  0  # atno 17395 bound_to 11000

$$$$
