AV-unprocessed.smi:1179|AV-procd|sdf|4959|dock6
  -GOLD-   22720 3553D 1   1.00000     0.00000
 Structure written by MMmdl.
 47 48  0  0  0  0  0  0  0  0  2 V2000
  153.5181  141.6321  160.9448 C   0  0  0  0  0  0  0  0  0  0  0  0
  152.8797  142.3567  159.7966 C   0  0  0  0  0  0  0  0  0  0  0  0
  153.1030  143.6936  159.3634 C   0  0  0  0  0  0  0  0  0  0  0  0
  152.2735  143.8436  158.2878 C   0  0  0  0  0  0  0  0  0  0  0  0
  152.0502  145.0233  157.3998 C   0  0  0  0  0  0  0  0  0  0  0  0
  151.6099  142.6408  158.1225 N   0  0  0  0  0  0  0  0  0  0  0  0
  150.6209  142.2673  157.1227 C   0  0  0  0  0  0  0  0  0  0  0  0
  150.6739  140.7692  156.8174 C   0  0  0  0  0  0  0  0  0  0  0  0
  150.0835  139.9704  157.5444 O   0  0  0  0  0  0  0  0  0  0  0  0
  151.3861  140.3996  155.7413 N   0  0  0  0  0  0  0  0  0  0  0  0
  151.5628  139.0263  155.2869 C   0  0  0  0  0  0  0  0  0  0  0  0
  150.6523  138.7048  154.0855 C   0  0  0  0  0  0  0  0  0  0  0  0
  149.9536  137.4035  154.2377 N   0  3  2  0  0  0  0  0  0  0  0  0
  148.7511  137.5087  155.1038 C   0  0  0  0  0  0  0  0  0  0  0  0
  147.9639  136.1860  155.1288 C   0  0  0  0  0  0  0  0  0  0  0  0
  148.8375  134.9942  155.5606 C   0  0  2  0  0  0  0  0  0  0  0  0
  149.1411  134.9929  157.0691 C   0  0  0  0  0  0  0  0  0  0  0  0
  150.1116  134.9539  154.6973 C   0  0  0  0  0  0  0  0  0  0  0  0
  150.8506  136.3043  154.6842 C   0  0  0  0  0  0  0  0  0  0  0  0
  151.9866  141.7310  159.0479 N   0  0  0  0  0  0  0  0  0  0  0  0
  154.1450  142.3016  161.5341 H   0  0  0  0  0  0  0  0  0  0  0  0
  154.1466  140.8143  160.5916 H   0  0  0  0  0  0  0  0  0  0  0  0
  152.7657  141.2111  161.6123 H   0  0  0  0  0  0  0  0  0  0  0  0
  153.7715  144.4321  159.7807 H   0  0  0  0  0  0  0  0  0  0  0  0
  152.6763  145.8629  157.7025 H   0  0  0  0  0  0  0  0  0  0  0  0
  151.0108  145.3494  157.4407 H   0  0  0  0  0  0  0  0  0  0  0  0
  152.2909  144.7824  156.3643 H   0  0  0  0  0  0  0  0  0  0  0  0
  149.6245  142.5371  157.4768 H   0  0  0  0  0  0  0  0  0  0  0  0
  150.7993  142.8427  156.2136 H   0  0  0  0  0  0  0  0  0  0  0  0
  151.8363  141.1255  155.2011 H   0  0  0  0  0  0  0  0  0  0  0  0
  152.6080  138.8953  155.0059 H   0  0  0  0  0  0  0  0  0  0  0  0
  151.3794  138.3513  156.1233 H   0  0  0  0  0  0  0  0  0  0  0  0
  149.9179  139.4952  153.9228 H   0  0  0  0  0  0  0  0  0  0  0  0
  151.2757  138.6770  153.1904 H   0  0  0  0  0  0  0  0  0  0  0  0
  149.0485  137.7982  156.1127 H   0  0  0  0  0  0  0  0  0  0  0  0
  148.0988  138.2993  154.7309 H   0  0  0  0  0  0  0  0  0  0  0  0
  147.0978  136.2770  155.7853 H   0  0  0  0  0  0  0  0  0  0  0  0
  147.5669  135.9938  154.1310 H   0  0  0  0  0  0  0  0  0  0  0  0
  148.2741  134.0818  155.3597 H   0  0  0  0  0  0  0  0  0  0  0  0
  149.7045  135.8730  157.3771 H   0  0  0  0  0  0  0  0  0  0  0  0
  149.7238  134.1146  157.3484 H   0  0  0  0  0  0  0  0  0  0  0  0
  148.2199  134.9708  157.6519 H   0  0  0  0  0  0  0  0  0  0  0  0
  150.7792  134.1647  155.0456 H   0  0  0  0  0  0  0  0  0  0  0  0
  149.8410  134.6892  153.6741 H   0  0  0  0  0  0  0  0  0  0  0  0
  151.7096  136.2221  154.0200 H   0  0  0  0  0  0  0  0  0  0  0  0
  151.2464  136.5326  155.6748 H   0  0  0  0  0  0  0  0  0  0  0  0
  149.6149  137.1532  153.3198 H   0  0  0  0  0  0  0  0  0  0  0  0
  1  2  1  0  0  0  0
  1 21  1  0  0  0  0
  1 22  1  0  0  0  0
  1 23  1  0  0  0  0
  2 20  2  0  0  0  0
  2  3  1  0  0  0  0
  3  4  2  0  0  0  0
  3 24  1  0  0  0  0
  4  5  1  0  0  0  0
  4  6  1  0  0  0  0
  5 25  1  0  0  0  0
  5 26  1  0  0  0  0
  5 27  1  0  0  0  0
  6  7  1  0  0  0  0
  6 20  1  0  0  0  0
  7  8  1  0  0  0  0
  7 28  1  0  0  0  0
  7 29  1  0  0  0  0
  8  9  2  0  0  0  0
  8 10  1  0  0  0  0
 10 11  1  0  0  0  0
 10 30  1  0  0  0  0
 11 12  1  0  0  0  0
 11 31  1  0  0  0  0
 11 32  1  0  0  0  0
 12 13  1  0  0  0  0
 12 33  1  0  0  0  0
 12 34  1  0  0  0  0
 13 19  1  0  0  0  0
 13 14  1  0  0  0  0
 13 47  1  0  0  0  0
 14 15  1  0  0  0  0
 14 35  1  0  0  0  0
 14 36  1  0  0  0  0
 15 16  1  0  0  0  0
 15 37  1  0  0  0  0
 15 38  1  0  0  0  0
 16 17  1  0  0  0  0
 16 18  1  0  0  0  0
 16 39  1  0  0  0  0
 17 40  1  0  0  0  0
 17 41  1  0  0  0  0
 17 42  1  0  0  0  0
 18 19  1  0  0  0  0
 18 43  1  0  0  0  0
 18 44  1  0  0  0  0
 19 45  1  0  0  0  0
 19 46  1  0  0  0  0
M  CHG  1  13   1
M  END
> <s_m_source_file>
AV-unprocessed.smi

> <i_m_source_file_index>
1179

> <i_lp_mmshare_version>
43012

> <i_f3d_flags>
0

> <s_epik_input>
W0NIM11jMVtjSF1jKFtDSDNdKW4objEpW0NIMl1DKD1PKVtOSF1bQ0gyXVtDSDJdTjJbQ0gyXVtDSDJdW0NIXShbQ0gzXSlbQ0gyXVtDSDJdMg==

> <s_epik_cmdline>
J2VwaWtfcHl0aG9uJywgJy1waCcsICc3LjAnLCAnLXRuJywgJzgnLCAnLW1hJywgJzIwMCcsICctbWV0YWxfYmluZGluZycsICctaW1hZScsICc8aW5maWxlLm1hZT4nLCAnLW9tYWUnLCAnPG91dGZpbGUubWFlPic=

> <r_lp_tautomer_probability>
1

> <r_epik_Ionization_Penalty>
0.00206343

> <r_epik_Ionization_Penalty_Charging>
0.00187095

> <r_epik_Ionization_Penalty_Neutral>
0.000192474

> <r_epik_State_Penalty>
-0

> <r_epik_Charging_Adjusted_Penalty>
0.00187095

> <i_epik_Tot_Q>
1

> <i_epik_Tot_abs_Q>
1

> <r_epik_Metal_State_Penalty>
-0

> <b_epik_Metal_Only>
0

> <s_lp_Force_Field>
OPLS_2005

> <r_lp_Energy>
16.047

> <b_lp_Chiralities_Consistent>
1

> <s_lp_Variant>
AV-unprocessed.smi:1179-2

> <Gold.Version>
5.8.1

> <Gold.Id.Protein>
6NUR|6NUR_protein|mol2

> <Gold.PLP.Fitness>
41.2508

> <Gold.PLP.PLP>
-37.8169

> <Gold.PLP.part.hbond>
-1.0226

> <Gold.PLP.part.metal>
0.0000

> <Gold.PLP.part.buried>
-4.7524

> <Gold.PLP.part.nonpolar>
-31.8936

> <Gold.PLP.part.repulsive>
0.1838

> <Gold.PLP.ligand.clash>
0.0000

> <Gold.PLP.ligand.torsion>
1.3003

> <Gold.PLP.Chemscore.Hbond>
2.0000

> <Gold.PLP.Chemscore.CHOScore>
0.0000

> <Gold.PLP.Chemscore.Metal>
0.0000

> <Gold.Chemscore.Hbonds>
donor molecule, donor type, donor heavy atom, donor atom, acceptor molecule, acceptor atom, score
      L1  H    13    47       P1  7948  2.00

> <Gold.PLP.Chemscore.Internal.Correction>
0.0344

> <Gold.Rescore>
     Score         DG    S(hbond)    S(metal)    S(lipo)     H(rot)  DE(clash)    DE(int)     intcor
     14.42     -17.19       0.96        0.00     109.05       1.67       1.57       1.20       ----

> <Gold.Chemscore.Fitness>
14.4156

> <Gold.Chemscore.DG>
-17.1889

> <Gold.Chemscore.ZeroCoef>
-5.4800

> <Gold.Chemscore.Hbond>
0.9624

> <Gold.Chemscore.Metal>
0.0000

> <Gold.Chemscore.Lipo>
109.0461

> <Gold.Chemscore.Internal_Hbond>
0.0000

> <Gold.Chemscore.DEClash>
1.5710

> <Gold.Chemscore.DEInternal>
1.2024

> <Gold.Chemscore.Rot>
1.6657

> <Gold.Chemscore.Internal.Correction>
   9.000000E+99

> <Gold.Chemscore.Hbonds>
donor molecule, donor type, donor heavy atom, donor atom, acceptor molecule, acceptor atom, score
      L1  H    13    47       P1  7948  0.74

> <Gold.Chemscore.Hbond.Weighted>
-3.2146

> <Gold.Chemscore.Metal.Weighted>
-0.0000

> <Gold.Chemscore.Lipo.Weighted>
-12.7584

> <Gold.Chemscore.Internal_Hbond.Weighted>
0.0000

> <Gold.Chemscore.DEClash.Weighted>
1.5710

> <Gold.Chemscore.DEInternal.Weighted>
1.2024

> <Gold.Chemscore.Rot.Weighted>
4.2641

> <Gold.Chemscore.Internal.Correction.Weighted>
   9.000000E+99

> <Gold.Protein.RotatedTorsions>
[ 6907 6896 6895 6894 ] final  -53.41 input  -60.11 | X-H torsion
[ 7974 7965 7964 7962 ] final   17.35 input  175.53 | X-H torsion
[ 8008 7997 7996 7995 ] final -101.40 input   59.86 | X-H torsion
[ 10167 10162 10161 10158 ] final  -61.71 input  -65.29 | X-H torsion
[ 10718 10713 10712 10709 ] final  154.13 input   66.30 | X-H torsion
[ 10763 10752 10751 10750 ] final -133.10 input  -60.55 | X-H torsion
[ 11005 11000 10999 10996 ] final -119.60 input  -57.11 | X-H torsion

> <Gold.Protein.ActiveResidues>
 VAL166  LYS551  ARG553  GLY616  TRP617  ASP618  TYR619  PRO620  LYS621  CYS622 
 ASP623  PHE694  ASN695  SER759  ASP760  ASP761  ALA762  ILE779  LEU786  VAL792 
 PHE793  MET794  SER795  GLU796  ALA797  LYS798  CYS799  TRP800  GLU811  SER814 

> <Gold.Protein.RotatedAtoms>
  150.8430  134.7728  159.6947 H   0  0  0  0  0  0  0  0  0  0  0  0  # atno 6907 bound_to 6896
  152.4513  134.5384  159.9841 H   0  0  0  0  0  0  0  0  0  0  0  0  # atno 6908 bound_to 6896
  151.5520  133.3378  159.2990 H   0  0  0  0  0  0  0  0  0  0  0  0  # atno 6909 bound_to 6896
  146.2221  139.8614  142.8604 H   0  0  0  0  0  0  0  0  0  0  0  0  # atno 7974 bound_to 7965
  154.8420  140.0434  157.1547 H   0  0  0  0  0  0  0  0  0  0  0  0  # atno 8008 bound_to 7997
  154.9036  140.3003  155.5284 H   0  0  0  0  0  0  0  0  0  0  0  0  # atno 8009 bound_to 7997
  156.2992  140.2371  156.4067 H   0  0  0  0  0  0  0  0  0  0  0  0  # atno 8010 bound_to 7997
  140.5988  143.2356  151.5976 H   0  0  0  0  0  0  0  0  0  0  0  0  # atno 10167 bound_to 10162
  157.2356  131.0748  151.1825 H   0  0  0  0  0  0  0  0  0  0  0  0  # atno 10718 bound_to 10713
  154.8736  135.3777  154.4517 H   0  0  0  0  0  0  0  0  0  0  0  0  # atno 10763 bound_to 10752
  153.5193  135.7029  153.5745 H   0  0  0  0  0  0  0  0  0  0  0  0  # atno 10764 bound_to 10752
  153.3999  135.3951  155.1946 H   0  0  0  0  0  0  0  0  0  0  0  0  # atno 10765 bound_to 10752
  141.0203  134.0133  157.3291 H   0  0  0  0  0  0  0  0  0  0  0  0  # atno 11005 bound_to 11000
  145.2700  141.0105  143.3777 LP  0  0  0  0  0  0  0  0  0  0  0  0  # atno 17320 bound_to 7965
  144.9231  139.4388  143.6531 LP  0  0  0  0  0  0  0  0  0  0  0  0  # atno 17321 bound_to 7965
  139.5276  144.3011  152.1072 LP  0  0  0  0  0  0  0  0  0  0  0  0  # atno 17342 bound_to 10162
  140.2188  144.4487  150.6351 LP  0  0  0  0  0  0  0  0  0  0  0  0  # atno 17343 bound_to 10162
  157.3432  130.7044  149.6394 LP  0  0  0  0  0  0  0  0  0  0  0  0  # atno 17370 bound_to 10713
  155.9673  130.4274  150.4741 LP  0  0  0  0  0  0  0  0  0  0  0  0  # atno 17371 bound_to 10713
  139.9142  135.0194  156.7815 LP  0  0  0  0  0  0  0  0  0  0  0  0  # atno 17394 bound_to 11000
  140.6583  133.9668  155.7791 LP  0  0  0  0  0  0  0  0  0  0  0  0  # atno 17395 bound_to 11000

$$$$
