AV-unprocessed.smi:72|AV-procd|sdf|690|dock1
  -GOLD-   2262017 03D 1   1.00000     0.00000
 Structure written by MMmdl.
 29 30  0  0  0  0  0  0  0  0  1 V2000
  152.3948  136.9657  155.8486 N   0  0  0  0  0  0  0  0  0  0  0  0
  151.5983  137.9039  155.4800 C   0  0  0  0  0  0  0  0  0  0  0  0
  150.7615  137.8644  154.3558 N   0  0  0  0  0  0  0  0  0  0  0  0
  149.9809  138.8751  154.1268 C   0  0  0  0  0  0  0  0  0  0  0  0
  149.9084  140.0267  155.0202 N   0  0  0  0  0  0  0  0  0  0  0  0
  149.0172  141.2234  154.7122 C   0  0  1  0  0  0  0  0  0  0  0  0
  148.6214  141.1838  153.3673 O   0  0  0  0  0  0  0  0  0  0  0  0
  147.2584  140.7860  153.2255 C   0  0  1  0  0  0  0  0  0  0  0  0
  147.1403  139.2476  153.1244 C   0  0  0  0  0  0  0  0  0  0  0  0
  147.5788  138.8152  151.8542 O   0  0  0  0  0  0  0  0  0  0  0  0
  146.6338  141.4060  154.4795 C   0  0  1  0  0  0  0  0  0  0  0  0
  145.4181  140.7919  154.8602 O   0  0  0  0  0  0  0  0  0  0  0  0
  147.7104  141.2307  155.5427 C   0  0  2  0  0  0  0  0  0  0  0  0
  147.6614  142.3221  156.4398 O   0  0  0  0  0  0  0  0  0  0  0  0
  150.8302  140.1221  156.0955 C   0  0  0  0  0  0  0  0  0  0  0  0
  150.9212  141.1223  156.8065 O   0  0  0  0  0  0  0  0  0  0  0  0
  151.6125  139.0401  156.2967 N   0  0  0  0  0  0  0  0  0  0  0  0
  149.6588  142.0902  154.8807 H   0  0  0  0  0  0  0  0  0  0  0  0
  146.8278  141.2405  152.3322 H   0  0  0  0  0  0  0  0  0  0  0  0
  146.4565  142.4663  154.2899 H   0  0  0  0  0  0  0  0  0  0  0  0
  147.5844  140.2811  156.0653 H   0  0  0  0  0  0  0  0  0  0  0  0
  152.8919  137.2412  156.6838 H   0  0  0  0  0  0  0  0  0  0  0  0
  149.3337  138.9167  153.2506 H   0  0  0  0  0  0  0  0  0  0  0  0
  147.6836  138.7324  153.9148 H   0  0  0  0  0  0  0  0  0  0  0  0
  146.0987  138.9383  153.2095 H   0  0  0  0  0  0  0  0  0  0  0  0
  147.8679  137.9184  151.9252 H   0  0  0  0  0  0  0  0  0  0  0  0
  144.8763  140.7054  154.0906 H   0  0  0  0  0  0  0  0  0  0  0  0
  147.8571  143.1117  155.9575 H   0  0  0  0  0  0  0  0  0  0  0  0
  152.2595  139.0668  157.0710 H   0  0  0  0  0  0  0  0  0  0  0  0
  1  2  2  0  0  0  0
  1 22  1  0  0  0  0
  2 17  1  0  0  0  0
  2  3  1  0  0  0  0
  3  4  2  0  0  0  0
  4  5  1  0  0  0  0
  4 23  1  0  0  0  0
  5  6  1  0  0  0  0
  5 15  1  0  0  0  0
  6 18  1  0  0  0  0
  6 13  1  0  0  0  0
  6  7  1  0  0  0  0
  7  8  1  0  0  0  0
  8 19  1  0  0  0  0
  8  9  1  0  0  0  0
  8 11  1  0  0  0  0
  9 10  1  0  0  0  0
  9 24  1  0  0  0  0
  9 25  1  0  0  0  0
 10 26  1  0  0  0  0
 11 20  1  0  0  0  0
 11 12  1  0  0  0  0
 11 13  1  0  0  0  0
 12 27  1  0  0  0  0
 13 21  1  0  0  0  0
 13 14  1  0  0  0  0
 14 28  1  0  0  0  0
 15 16  2  0  0  0  0
 15 17  1  0  0  0  0
 17 29  1  0  0  0  0
M  END
> <s_m_source_file>
AV-unprocessed.smi

> <i_m_source_file_index>
72

> <i_lp_mmshare_version>
43012

> <i_f3d_flags>
0

> <s_epik_input>
W05IMl1jMW5bY0hdbihjKD1PKW4xKVtDQEBIXTJPW0NASF0oW0NIMl1bT0hdKVtDQEBIXShbT0hdKVtDQEhdMltPSF0=

> <s_epik_cmdline>
J2VwaWtfcHl0aG9uJywgJy1waCcsICc3LjAnLCAnLXRuJywgJzgnLCAnLW1hJywgJzIwMCcsICctbWV0YWxfYmluZGluZycsICctaW1hZScsICc8aW5maWxlLm1hZT4nLCAnLW9tYWUnLCAnPG91dGZpbGUubWFlPic=

> <r_lp_tautomer_probability>
7.17554e-07

> <r_epik_Ionization_Penalty>
0.0066451

> <r_epik_Ionization_Penalty_Charging>
0.00663793

> <r_epik_Ionization_Penalty_Neutral>
7.17052e-06

> <r_epik_State_Penalty>
0.419231

> <r_epik_Charging_Adjusted_Penalty>
0.425868

> <i_epik_Tot_Q>
0

> <i_epik_Tot_abs_Q>
0

> <r_epik_Metal_State_Penalty>
1.44144

> <b_epik_Metal_Only>
0

> <s_epik_Chemistry_Notes>
This compound contains an acetal/aminal-like group ( X-CH(R)-Y where X, Y are N, S, or O) that may be acid/base labile, releasing an aldehyde.

> <s_lp_Force_Field>
OPLS_2005

> <r_lp_Energy>
40.5406

> <b_lp_Chiralities_Consistent>
1

> <s_lp_Variant>
AV-unprocessed.smi:72-28

> <Gold.Version>
5.8.1

> <Gold.Id.Protein>
6NUR|6NUR_protein|mol2

> <Gold.PLP.Fitness>
41.7284

> <Gold.PLP.PLP>
-25.4743

> <Gold.PLP.part.hbond>
-6.4076

> <Gold.PLP.part.metal>
0.0000

> <Gold.PLP.part.buried>
-4.1027

> <Gold.PLP.part.nonpolar>
-18.7204

> <Gold.PLP.part.repulsive>
3.4340

> <Gold.PLP.ligand.clash>
0.0000

> <Gold.PLP.ligand.torsion>
0.6347

> <Gold.PLP.Chemscore.Hbond>
4.8080

> <Gold.PLP.Chemscore.CHOScore>
1.0000

> <Gold.PLP.Chemscore.Metal>
0.0000

> <Gold.Chemscore.Hbonds>
donor molecule, donor type, donor heavy atom, donor atom, acceptor molecule, acceptor atom, score
      L1  H    10    26       P1  7948  1.00
      L1  H    12    27       P1 10175  1.00
      L1  H    14    28       P1  8028  1.00
      P1  H  8011  8017       L1     7  0.93
      P1  H 10752 10763       L1     1  0.86
      L1  C     4    23       P1  7957  1.00

> <Gold.PLP.Chemscore.Internal.Correction>
0.0994

> <Gold.Rescore>
     Score         DG    S(hbond)    S(metal)    S(lipo)     H(rot)  DE(clash)    DE(int)     intcor
     10.46     -12.49       4.30        0.00      25.92       4.06       1.90       0.12       ----

> <Gold.Chemscore.Fitness>
10.4644

> <Gold.Chemscore.DG>
-12.4863

> <Gold.Chemscore.ZeroCoef>
-5.4800

> <Gold.Chemscore.Hbond>
4.3016

> <Gold.Chemscore.Metal>
0.0000

> <Gold.Chemscore.Lipo>
25.9195

> <Gold.Chemscore.Internal_Hbond>
0.0000

> <Gold.Chemscore.DEClash>
1.9008

> <Gold.Chemscore.DEInternal>
0.1210

> <Gold.Chemscore.Rot>
4.0600

> <Gold.Chemscore.Internal.Correction>
   9.000000E+99

> <Gold.Chemscore.Hbonds>
donor molecule, donor type, donor heavy atom, donor atom, acceptor molecule, acceptor atom, score
      L1  H    10    26       P1  7948  0.98
      L1  H    12    27       P1 10175  0.94
      L1  H    14    28       P1  8028  0.38
      P1  H  8011  8017       L1     7  0.62
      P1  H 10752 10763       L1     1  0.81

> <Gold.Chemscore.Hbond.Weighted>
-14.3673

> <Gold.Chemscore.Metal.Weighted>
-0.0000

> <Gold.Chemscore.Lipo.Weighted>
-3.0326

> <Gold.Chemscore.Internal_Hbond.Weighted>
0.0000

> <Gold.Chemscore.DEClash.Weighted>
1.9008

> <Gold.Chemscore.DEInternal.Weighted>
0.1210

> <Gold.Chemscore.Rot.Weighted>
10.3936

> <Gold.Chemscore.Internal.Correction.Weighted>
   9.000000E+99

> <Gold.Protein.RotatedTorsions>
[ 6907 6896 6895 6894 ] final  168.56 input  -60.11 | X-H torsion
[ 7974 7965 7964 7962 ] final   36.37 input  175.53 | X-H torsion
[ 8008 7997 7996 7995 ] final  173.69 input   59.86 | X-H torsion
[ 10167 10162 10161 10158 ] final -161.92 input  -65.29 | X-H torsion
[ 10718 10713 10712 10709 ] final -117.84 input   66.30 | X-H torsion
[ 10763 10752 10751 10750 ] final   76.58 input  -60.55 | X-H torsion
[ 11005 11000 10999 10996 ] final -117.11 input  -57.11 | X-H torsion

> <Gold.Protein.ActiveResidues>
 VAL166  LYS551  ARG553  GLY616  TRP617  ASP618  TYR619  PRO620  LYS621  CYS622 
 ASP623  PHE694  ASN695  SER759  ASP760  ASP761  ALA762  ILE779  LEU786  VAL792 
 PHE793  MET794  SER795  GLU796  ALA797  LYS798  CYS799  TRP800  GLU811  SER814 

> <Gold.Protein.RotatedAtoms>
  151.8458  133.3431  159.3657 H   0  0  0  0  0  0  0  0  0  0  0  0  # atno 6907 bound_to 6896
  150.7221  134.5347  159.5727 H   0  0  0  0  0  0  0  0  0  0  0  0  # atno 6908 bound_to 6896
  152.2831  134.7807  160.0444 H   0  0  0  0  0  0  0  0  0  0  0  0  # atno 6909 bound_to 6896
  146.1216  139.6025  142.9286 H   0  0  0  0  0  0  0  0  0  0  0  0  # atno 7974 bound_to 7965
  156.1050  140.1453  156.9417 H   0  0  0  0  0  0  0  0  0  0  0  0  # atno 8008 bound_to 7997
  154.4727  140.0904  156.7230 H   0  0  0  0  0  0  0  0  0  0  0  0  # atno 8009 bound_to 7997
  155.4696  140.3441  155.4326 H   0  0  0  0  0  0  0  0  0  0  0  0  # atno 8010 bound_to 7997
  139.6430  144.0224  152.2106 H   0  0  0  0  0  0  0  0  0  0  0  0  # atno 10167 bound_to 10162
  156.1063  130.6212  150.9215 H   0  0  0  0  0  0  0  0  0  0  0  0  # atno 10718 bound_to 10713
  153.0735  135.4946  154.8356 H   0  0  0  0  0  0  0  0  0  0  0  0  # atno 10763 bound_to 10752
  154.7056  135.3010  154.9278 H   0  0  0  0  0  0  0  0  0  0  0  0  # atno 10764 bound_to 10752
  153.9988  135.6769  153.4811 H   0  0  0  0  0  0  0  0  0  0  0  0  # atno 10765 bound_to 10752
  141.0377  133.9884  157.3045 H   0  0  0  0  0  0  0  0  0  0  0  0  # atno 11005 bound_to 11000
  145.5454  141.0417  143.2307 LP  0  0  0  0  0  0  0  0  0  0  0  0  # atno 17320 bound_to 7965
  144.7602  139.6975  143.7237 LP  0  0  0  0  0  0  0  0  0  0  0  0  # atno 17321 bound_to 7965
  139.9919  144.6355  150.7807 LP  0  0  0  0  0  0  0  0  0  0  0  0  # atno 17342 bound_to 10162
  140.7500  143.2949  151.3233 LP  0  0  0  0  0  0  0  0  0  0  0  0  # atno 17343 bound_to 10162
  157.6239  131.0927  150.8570 LP  0  0  0  0  0  0  0  0  0  0  0  0  # atno 17370 bound_to 10713
  156.8688  130.5139  149.5298 LP  0  0  0  0  0  0  0  0  0  0  0  0  # atno 17371 bound_to 10713
  139.9252  135.0201  156.8210 LP  0  0  0  0  0  0  0  0  0  0  0  0  # atno 17394 bound_to 11000
  140.6292  133.9922  155.7654 LP  0  0  0  0  0  0  0  0  0  0  0  0  # atno 17395 bound_to 11000

$$$$
