AV-unprocessed.smi:2753|AV-procd|sdf|10613|dock4
  -GOLD-   2272015 63D 1   1.00000     0.00000
 Structure written by MMmdl.
 27 28  0  0  0  0  0  0  0  0  3 V2000
  155.8072  137.5825  158.8095 F   0  0  0  0  0  0  0  0  0  0  0  0
  154.6079  138.0634  159.1373 C   0  0  0  0  0  0  0  0  0  0  0  0
  154.1358  137.3718  160.1742 F   0  0  0  0  0  0  0  0  0  0  0  0
  154.7339  139.3416  159.4935 F   0  0  0  0  0  0  0  0  0  0  0  0
  153.6621  137.9448  157.9587 C   0  0  0  0  0  0  0  0  0  0  0  0
  153.3823  136.6566  157.4140 C   0  0  0  0  0  0  0  0  0  0  0  0
  152.5312  136.8796  156.4065 N   0  5  0  0  0  0  0  0  0  0  0  0
  152.2808  138.2019  156.3042 C   0  0  0  0  0  0  0  0  0  0  0  0
  151.3605  138.8421  155.2855 C   0  0  2  0  0  0  0  0  0  0  0  0
  150.2862  139.7239  155.9475 C   0  0  0  0  0  0  0  0  0  0  0  0
  149.3638  140.3344  154.8811 C   0  0  0  0  0  0  0  0  0  0  0  0
  148.7756  139.2418  153.9721 C   0  0  0  0  0  0  0  0  0  0  0  0
  149.8531  138.4413  153.3503 N   0  3  0  0  0  0  0  0  0  0  0  0
  150.7388  137.7953  154.3430 C   0  0  0  0  0  0  0  0  0  0  0  0
  152.9695  138.8611  157.2549 N   0  0  0  0  0  0  0  0  0  0  0  0
  153.7138  135.6565  157.6638 H   0  0  0  0  0  0  0  0  0  0  0  0
  151.9872  139.4964  154.6769 H   0  0  0  0  0  0  0  0  0  0  0  0
  149.6936  139.1267  156.6420 H   0  0  0  0  0  0  0  0  0  0  0  0
  150.7549  140.5138  156.5357 H   0  0  0  0  0  0  0  0  0  0  0  0
  148.5608  140.8950  155.3604 H   0  0  0  0  0  0  0  0  0  0  0  0
  149.9243  141.0504  154.2785 H   0  0  0  0  0  0  0  0  0  0  0  0
  148.1227  138.5820  154.5451 H   0  0  0  0  0  0  0  0  0  0  0  0
  148.1670  139.6904  153.1867 H   0  0  0  0  0  0  0  0  0  0  0  0
  149.4400  137.7269  152.7684 H   0  0  0  0  0  0  0  0  0  0  0  0
  151.5199  137.2458  153.8168 H   0  0  0  0  0  0  0  0  0  0  0  0
  150.1619  137.0644  154.9117 H   0  0  0  0  0  0  0  0  0  0  0  0
  150.4139  139.0509  152.7723 H   0  0  0  0  0  0  0  0  0  0  0  0
  1  2  1  0  0  0  0
  2  3  1  0  0  0  0
  2  4  1  0  0  0  0
  2  5  1  0  0  0  0
  5 15  1  0  0  0  0
  5  6  2  0  0  0  0
  6  7  1  0  0  0  0
  6 16  1  0  0  0  0
  7  8  1  0  0  0  0
  8  9  1  0  0  0  0
  8 15  2  0  0  0  0
  9 14  1  0  0  0  0
  9 10  1  0  0  0  0
  9 17  1  0  0  0  0
 10 11  1  0  0  0  0
 10 18  1  0  0  0  0
 10 19  1  0  0  0  0
 11 12  1  0  0  0  0
 11 20  1  0  0  0  0
 11 21  1  0  0  0  0
 12 13  1  0  0  0  0
 12 22  1  0  0  0  0
 12 23  1  0  0  0  0
 13 14  1  0  0  0  0
 13 24  1  0  0  0  0
 13 27  1  0  0  0  0
 14 25  1  0  0  0  0
 14 26  1  0  0  0  0
M  CHG  1   7  -1
M  CHG  1  13   1
M  END
> <s_m_source_file>
AV-unprocessed.smi

> <i_m_source_file_index>
2753

> <i_lp_mmshare_version>
43012

> <i_f3d_flags>
0

> <s_epik_input>
RkMoRikoRiljMVtjSF1bbkhdYyhuMSlbQ0BASF0yW0NIMl1bQ0gyXVtDSDJdW05IXVtDSDJdMg==

> <s_epik_cmdline>
J2VwaWtfcHl0aG9uJywgJy1waCcsICc3LjAnLCAnLXRuJywgJzgnLCAnLW1hJywgJzIwMCcsICctbWV0YWxfYmluZGluZycsICctaW1hZScsICc8aW5maWxlLm1hZT4nLCAnLW9tYWUnLCAnPG91dGZpbGUubWFlPic=

> <r_lp_tautomer_probability>
0.5

> <r_epik_Ionization_Penalty>
6.42345

> <r_epik_Ionization_Penalty_Charging>
5.19935

> <r_epik_Ionization_Penalty_Neutral>
1.22411

> <r_epik_State_Penalty>
5.30226

> <r_epik_Charging_Adjusted_Penalty>
10.5016

> <i_epik_Tot_Q>
0

> <i_epik_Tot_abs_Q>
2

> <r_epik_Metal_State_Penalty>
1.35744

> <b_epik_Metal_Only>
1

> <s_lp_Force_Field>
OPLS_2005

> <r_lp_Energy>
18.3827

> <b_lp_Chiralities_Consistent>
1

> <s_lp_Variant>
AV-unprocessed.smi:2753-5

> <Gold.Version>
5.8.1

> <Gold.Id.Protein>
6NUR|6NUR_protein|mol2

> <Gold.PLP.Fitness>
35.4295

> <Gold.PLP.PLP>
-19.2694

> <Gold.PLP.part.hbond>
-4.0000

> <Gold.PLP.part.metal>
0.0000

> <Gold.PLP.part.buried>
-1.9613

> <Gold.PLP.part.nonpolar>
-14.8527

> <Gold.PLP.part.repulsive>
0.0921

> <Gold.PLP.ligand.clash>
0.0000

> <Gold.PLP.ligand.torsion>
0.0347

> <Gold.PLP.Chemscore.Hbond>
5.3961

> <Gold.PLP.Chemscore.CHOScore>
0.0000

> <Gold.PLP.Chemscore.Metal>
0.0000

> <Gold.Chemscore.Hbonds>
donor molecule, donor type, donor heavy atom, donor atom, acceptor molecule, acceptor atom, score
      L1  H    13    24       P1  7948  2.00
      L1  H    13    27       P1  7957  0.44
      P1  H  7997  8010       L1    15  1.00
      P1  H 10752 10764       L1     7  1.95

> <Gold.PLP.Chemscore.Internal.Correction>
0.0414

> <Gold.Rescore>
     Score         DG    S(hbond)    S(metal)    S(lipo)     H(rot)  DE(clash)    DE(int)     intcor
     15.60     -15.69       2.32        0.00      42.88       1.00       0.07       0.02       ----

> <Gold.Chemscore.Fitness>
15.5997

> <Gold.Chemscore.DG>
-15.6908

> <Gold.Chemscore.ZeroCoef>
-5.4800

> <Gold.Chemscore.Hbond>
2.3215

> <Gold.Chemscore.Metal>
0.0000

> <Gold.Chemscore.Lipo>
42.8819

> <Gold.Chemscore.Internal_Hbond>
0.0000

> <Gold.Chemscore.DEClash>
0.0696

> <Gold.Chemscore.DEInternal>
0.0216

> <Gold.Chemscore.Rot>
1.0000

> <Gold.Chemscore.Internal.Correction>
   9.000000E+99

> <Gold.Chemscore.Hbonds>
donor molecule, donor type, donor heavy atom, donor atom, acceptor molecule, acceptor atom, score
      L1  H    13    24       P1  7948  0.82
      L1  H    13    27       P1  7957  0.18
      P1  H  7997  8010       L1    15  0.36
      P1  H 10752 10764       L1     7  0.22

> <Gold.Chemscore.Hbond.Weighted>
-7.7537

> <Gold.Chemscore.Metal.Weighted>
-0.0000

> <Gold.Chemscore.Lipo.Weighted>
-5.0172

> <Gold.Chemscore.Internal_Hbond.Weighted>
0.0000

> <Gold.Chemscore.DEClash.Weighted>
0.0696

> <Gold.Chemscore.DEInternal.Weighted>
0.0216

> <Gold.Chemscore.Rot.Weighted>
2.5600

> <Gold.Chemscore.Internal.Correction.Weighted>
   9.000000E+99

> <Gold.Protein.RotatedTorsions>
[ 6907 6896 6895 6894 ] final -153.79 input  -60.11 | X-H torsion
[ 7974 7965 7964 7962 ] final   80.62 input  175.53 | X-H torsion
[ 8008 7997 7996 7995 ] final   62.58 input   59.86 | X-H torsion
[ 10167 10162 10161 10158 ] final -167.01 input  -65.29 | X-H torsion
[ 10718 10713 10712 10709 ] final  -33.41 input   66.30 | X-H torsion
[ 10763 10752 10751 10750 ] final  -28.11 input  -60.55 | X-H torsion
[ 11005 11000 10999 10996 ] final -141.45 input  -57.11 | X-H torsion

> <Gold.Protein.ActiveResidues>
 VAL166  LYS551  ARG553  GLY616  TRP617  ASP618  TYR619  PRO620  LYS621  CYS622 
 ASP623  PHE694  ASN695  SER759  ASP760  ASP761  ALA762  ILE779  LEU786  VAL792 
 PHE793  MET794  SER795  GLU796  ALA797  LYS798  CYS799  TRP800  GLU811  SER814 

> <Gold.Protein.RotatedAtoms>
  151.2479  133.4365  159.2609 H   0  0  0  0  0  0  0  0  0  0  0  0  # atno 6907 bound_to 6896
  151.0645  134.9758  159.8287 H   0  0  0  0  0  0  0  0  0  0  0  0  # atno 6908 bound_to 6896
  152.5403  134.2427  159.8921 H   0  0  0  0  0  0  0  0  0  0  0  0  # atno 6909 bound_to 6896
  145.6489  139.2443  143.1988 H   0  0  0  0  0  0  0  0  0  0  0  0  # atno 7974 bound_to 7965
  155.6166  140.3495  155.4639 H   0  0  0  0  0  0  0  0  0  0  0  0  # atno 8008 bound_to 7997
  156.0112  140.1233  157.0476 H   0  0  0  0  0  0  0  0  0  0  0  0  # atno 8009 bound_to 7997
  154.4281  140.1081  156.5819 H   0  0  0  0  0  0  0  0  0  0  0  0  # atno 8010 bound_to 7997
  139.6077  144.0879  152.1810 H   0  0  0  0  0  0  0  0  0  0  0  0  # atno 10167 bound_to 10162
  156.3630  130.4327  149.7608 H   0  0  0  0  0  0  0  0  0  0  0  0  # atno 10718 bound_to 10713
  153.7430  135.6931  153.4963 H   0  0  0  0  0  0  0  0  0  0  0  0  # atno 10763 bound_to 10752
  153.2056  135.4421  155.0318 H   0  0  0  0  0  0  0  0  0  0  0  0  # atno 10764 bound_to 10752
  154.8214  135.3424  154.6954 H   0  0  0  0  0  0  0  0  0  0  0  0  # atno 10765 bound_to 10752
  140.8323  134.2502  157.4850 H   0  0  0  0  0  0  0  0  0  0  0  0  # atno 11005 bound_to 11000
  146.1220  140.7297  142.9453 LP  0  0  0  0  0  0  0  0  0  0  0  0  # atno 17320 bound_to 7965
  144.7130  140.4108  143.7066 LP  0  0  0  0  0  0  0  0  0  0  0  0  # atno 17321 bound_to 7965
  140.0490  144.5948  150.7351 LP  0  0  0  0  0  0  0  0  0  0  0  0  # atno 17342 bound_to 10162
  140.7297  143.2675  151.3996 LP  0  0  0  0  0  0  0  0  0  0  0  0  # atno 17343 bound_to 10162
  156.4764  130.8020  151.3037 LP  0  0  0  0  0  0  0  0  0  0  0  0  # atno 17370 bound_to 10713
  157.7475  131.0019  150.2982 LP  0  0  0  0  0  0  0  0  0  0  0  0  # atno 17371 bound_to 10713
  139.8704  134.9593  156.4326 LP  0  0  0  0  0  0  0  0  0  0  0  0  # atno 17394 bound_to 11000
  140.8984  133.7797  155.9652 LP  0  0  0  0  0  0  0  0  0  0  0  0  # atno 17395 bound_to 11000

$$$$
