AV-unprocessed.smi:804|AV-procd|sdf|3795|dock7
  -GOLD-   22720 1233D 1   1.00000     0.00000
 Structure written by MMmdl.
 38 39  0  0  0  0  0  0  0  0  2 V2000
  153.3373  139.4370  159.7114 C   0  0  0  0  0  0  0  0  0  0  0  0
  152.7650  138.2441  158.9251 C   0  0  0  0  0  0  0  0  0  0  0  0
  153.2623  136.9311  159.5654 C   0  0  0  0  0  0  0  0  0  0  0  0
  151.2238  138.3152  158.9486 C   0  0  0  0  0  0  0  0  0  0  0  0
  153.2605  138.3575  157.5446 N   0  5  0  0  0  0  0  0  0  0  0  0
  152.5096  138.4694  156.4070 C   0  0  0  0  0  0  0  0  0  0  0  0
  152.3973  137.6730  155.4698 O   0  0  0  0  0  0  0  0  0  0  0  0
  151.7358  139.7671  156.3485 C   0  0  0  0  0  0  0  0  0  0  0  0
  152.0218  140.7156  157.2772 N   0  0  0  0  0  0  0  0  0  0  0  0
  151.3473  141.8696  157.2591 C   0  0  0  0  0  0  0  0  0  0  0  0
  151.6742  142.8259  158.2297 N   0  0  0  0  0  0  0  0  0  0  0  0
  152.4687  142.4848  159.4128 C   0  0  0  0  0  0  0  0  0  0  0  0
  152.0775  143.3699  160.6080 C   0  0  0  0  0  0  0  0  0  0  0  0
  152.1959  144.7419  160.2522 O   0  0  0  0  0  0  0  0  0  0  0  0
  151.3227  145.0809  159.1819 C   0  0  0  0  0  0  0  0  0  0  0  0
  151.6837  144.2602  157.9322 C   0  0  0  0  0  0  0  0  0  0  0  0
  150.3830  142.1760  156.3837 N   0  0  0  0  0  0  0  0  0  0  0  0
  150.0754  141.2553  155.4477 C   0  0  0  0  0  0  0  0  0  0  0  0
  150.7290  140.0103  155.3754 C   0  0  0  0  0  0  0  0  0  0  0  0
  150.3008  138.8999  154.1181 Cl  0  0  0  0  0  0  0  0  0  0  0  0
  153.0093  139.4186  160.7512 H   0  0  0  0  0  0  0  0  0  0  0  0
  153.0163  140.3882  159.2846 H   0  0  0  0  0  0  0  0  0  0  0  0
  154.4283  139.4289  159.7129 H   0  0  0  0  0  0  0  0  0  0  0  0
  154.3498  136.8545  159.5255 H   0  0  0  0  0  0  0  0  0  0  0  0
  152.8507  136.0512  159.0705 H   0  0  0  0  0  0  0  0  0  0  0  0
  152.9693  136.8727  160.6139 H   0  0  0  0  0  0  0  0  0  0  0  0
  150.8484  138.3205  159.9722 H   0  0  0  0  0  0  0  0  0  0  0  0
  150.7663  137.4628  158.4465 H   0  0  0  0  0  0  0  0  0  0  0  0
  150.8586  139.2206  158.4623 H   0  0  0  0  0  0  0  0  0  0  0  0
  152.3437  141.4426  159.7064 H   0  0  0  0  0  0  0  0  0  0  0  0
  153.5242  142.6210  159.1747 H   0  0  0  0  0  0  0  0  0  0  0  0
  151.0594  143.1526  160.9355 H   0  0  0  0  0  0  0  0  0  0  0  0
  152.7333  143.1659  161.4543 H   0  0  0  0  0  0  0  0  0  0  0  0
  150.2854  144.9084  159.4738 H   0  0  0  0  0  0  0  0  0  0  0  0
  151.4201  146.1459  158.9705 H   0  0  0  0  0  0  0  0  0  0  0  0
  152.6769  144.5359  157.5766 H   0  0  0  0  0  0  0  0  0  0  0  0
  150.9813  144.5194  157.1406 H   0  0  0  0  0  0  0  0  0  0  0  0
  149.3018  141.5200  154.7421 H   0  0  0  0  0  0  0  0  0  0  0  0
  1  2  1  0  0  0  0
  1 21  1  0  0  0  0
  1 22  1  0  0  0  0
  1 23  1  0  0  0  0
  2  3  1  0  0  0  0
  2  4  1  0  0  0  0
  2  5  1  0  0  0  0
  3 24  1  0  0  0  0
  3 25  1  0  0  0  0
  3 26  1  0  0  0  0
  4 27  1  0  0  0  0
  4 28  1  0  0  0  0
  4 29  1  0  0  0  0
  5  6  1  0  0  0  0
  6  7  2  0  0  0  0
  6  8  1  0  0  0  0
  8 19  1  0  0  0  0
  8  9  2  0  0  0  0
  9 10  1  0  0  0  0
 10 11  1  0  0  0  0
 10 17  2  0  0  0  0
 11 16  1  0  0  0  0
 11 12  1  0  0  0  0
 12 13  1  0  0  0  0
 12 30  1  0  0  0  0
 12 31  1  0  0  0  0
 13 14  1  0  0  0  0
 13 32  1  0  0  0  0
 13 33  1  0  0  0  0
 14 15  1  0  0  0  0
 15 16  1  0  0  0  0
 15 34  1  0  0  0  0
 15 35  1  0  0  0  0
 16 36  1  0  0  0  0
 16 37  1  0  0  0  0
 17 18  1  0  0  0  0
 18 19  2  0  0  0  0
 18 38  1  0  0  0  0
 19 20  1  0  0  0  0
M  CHG  1   5  -1
M  END
> <s_m_source_file>
AV-unprocessed.smi

> <i_m_source_file_index>
804

> <i_lp_mmshare_version>
43012

> <i_f3d_flags>
0

> <s_epik_input>
W0NIM11DKFtDSDNdKShbQ0gzXSlbTkhdQyg9TyljMW5jKG5bY0hdYzFDbClOMltDSDJdW0NIMl1PW0NIMl1bQ0gyXTI=

> <s_epik_cmdline>
J2VwaWtfcHl0aG9uJywgJy1waCcsICc3LjAnLCAnLXRuJywgJzgnLCAnLW1hJywgJzIwMCcsICctbWV0YWxfYmluZGluZycsICctaW1hZScsICc8aW5maWxlLm1hZT4nLCAnLW9tYWUnLCAnPG91dGZpbGUubWFlPic=

> <r_lp_tautomer_probability>
1

> <r_epik_Ionization_Penalty>
6.49938

> <r_epik_Ionization_Penalty_Charging>
6.49935

> <r_epik_Ionization_Penalty_Neutral>
2.43511e-05

> <r_epik_State_Penalty>
6.49934

> <r_epik_Charging_Adjusted_Penalty>
12.9987

> <i_epik_Tot_Q>
-1

> <i_epik_Tot_abs_Q>
1

> <r_epik_Metal_State_Penalty>
2.42664

> <b_epik_Metal_Only>
1

> <s_lp_Force_Field>
OPLS_2005

> <r_lp_Energy>
19.224

> <b_lp_Chiralities_Consistent>
1

> <s_lp_Variant>
AV-unprocessed.smi:804-2

> <Gold.Version>
5.8.1

> <Gold.Id.Protein>
6NUR|6NUR_protein|mol2

> <Gold.PLP.Fitness>
43.1201

> <Gold.PLP.PLP>
-39.0392

> <Gold.PLP.part.hbond>
-2.1488

> <Gold.PLP.part.metal>
0.0000

> <Gold.PLP.part.buried>
-3.2763

> <Gold.PLP.part.nonpolar>
-33.5245

> <Gold.PLP.part.repulsive>
0.7330

> <Gold.PLP.ligand.clash>
0.0000

> <Gold.PLP.ligand.torsion>
0.9974

> <Gold.PLP.Chemscore.Hbond>
1.9840

> <Gold.PLP.Chemscore.CHOScore>
0.0000

> <Gold.PLP.Chemscore.Metal>
0.0000

> <Gold.Chemscore.Hbonds>
donor molecule, donor type, donor heavy atom, donor atom, acceptor molecule, acceptor atom, score
      P1  H  7997  8008       L1     5  0.82

> <Gold.PLP.Chemscore.Internal.Correction>
0.1237

> <Gold.Rescore>
     Score         DG    S(hbond)    S(metal)    S(lipo)     H(rot)  DE(clash)    DE(int)     intcor
     12.92     -15.52       0.63        0.00      89.76       1.00       0.04       2.56       ----

> <Gold.Chemscore.Fitness>
12.9236

> <Gold.Chemscore.DG>
-15.5194

> <Gold.Chemscore.ZeroCoef>
-5.4800

> <Gold.Chemscore.Hbond>
0.6281

> <Gold.Chemscore.Metal>
0.0000

> <Gold.Chemscore.Lipo>
89.7561

> <Gold.Chemscore.Internal_Hbond>
0.0000

> <Gold.Chemscore.DEClash>
0.0354

> <Gold.Chemscore.DEInternal>
2.5603

> <Gold.Chemscore.Rot>
1.0000

> <Gold.Chemscore.Internal.Correction>
   9.000000E+99

> <Gold.Chemscore.Hbonds>
donor molecule, donor type, donor heavy atom, donor atom, acceptor molecule, acceptor atom, score
      P1  H  7997  8008       L1     5  0.04
      P1  H 10752 10764       L1     7  0.03

> <Gold.Chemscore.Hbond.Weighted>
-2.0979

> <Gold.Chemscore.Metal.Weighted>
-0.0000

> <Gold.Chemscore.Lipo.Weighted>
-10.5015

> <Gold.Chemscore.Internal_Hbond.Weighted>
0.0000

> <Gold.Chemscore.DEClash.Weighted>
0.0354

> <Gold.Chemscore.DEInternal.Weighted>
2.5603

> <Gold.Chemscore.Rot.Weighted>
2.5600

> <Gold.Chemscore.Internal.Correction.Weighted>
   9.000000E+99

> <Gold.Protein.RotatedTorsions>
[ 6907 6896 6895 6894 ] final -127.68 input  -60.11 | X-H torsion
[ 7974 7965 7964 7962 ] final  168.42 input  175.53 | X-H torsion
[ 8008 7997 7996 7995 ] final  -86.80 input   59.86 | X-H torsion
[ 10167 10162 10161 10158 ] final   26.35 input  -65.29 | X-H torsion
[ 10718 10713 10712 10709 ] final  -75.44 input   66.30 | X-H torsion
[ 10763 10752 10751 10750 ] final  -13.78 input  -60.55 | X-H torsion
[ 11005 11000 10999 10996 ] final   87.31 input  -57.11 | X-H torsion

> <Gold.Protein.ActiveResidues>
 VAL166  LYS551  ARG553  GLY616  TRP617  ASP618  TYR619  PRO620  LYS621  CYS622 
 ASP623  PHE694  ASN695  SER759  ASP760  ASP761  ALA762  ILE779  LEU786  VAL792 
 PHE793  MET794  SER795  GLU796  ALA797  LYS798  CYS799  TRP800  GLU811  SER814 

> <Gold.Protein.RotatedAtoms>
  150.9098  133.7011  159.2857 H   0  0  0  0  0  0  0  0  0  0  0  0  # atno 6907 bound_to 6896
  151.4502  135.1028  159.9705 H   0  0  0  0  0  0  0  0  0  0  0  0  # atno 6908 bound_to 6896
  152.4924  133.8486  159.7245 H   0  0  0  0  0  0  0  0  0  0  0  0  # atno 6909 bound_to 6896
  144.7389  139.8905  143.6403 H   0  0  0  0  0  0  0  0  0  0  0  0  # atno 7974 bound_to 7965
  154.6560  140.0574  157.0009 H   0  0  0  0  0  0  0  0  0  0  0  0  # atno 8008 bound_to 7997
  155.1300  140.3255  155.4458 H   0  0  0  0  0  0  0  0  0  0  0  0  # atno 8009 bound_to 7997
  156.2597  140.1982  156.6419 H   0  0  0  0  0  0  0  0  0  0  0  0  # atno 8010 bound_to 7997
  140.5030  144.0284  150.6340 H   0  0  0  0  0  0  0  0  0  0  0  0  # atno 10167 bound_to 10162
  156.0207  130.4441  150.3043 H   0  0  0  0  0  0  0  0  0  0  0  0  # atno 10718 bound_to 10713
  153.5185  135.7016  153.5744 H   0  0  0  0  0  0  0  0  0  0  0  0  # atno 10763 bound_to 10752
  153.3803  135.3922  155.1852 H   0  0  0  0  0  0  0  0  0  0  0  0  # atno 10764 bound_to 10752
  154.8697  135.3833  154.4671 H   0  0  0  0  0  0  0  0  0  0  0  0  # atno 10765 bound_to 10752
  139.8923  134.8413  156.2842 H   0  0  0  0  0  0  0  0  0  0  0  0  # atno 11005 bound_to 11000
  146.1145  139.4154  143.0267 LP  0  0  0  0  0  0  0  0  0  0  0  0  # atno 17320 bound_to 7965
  145.7395  141.0013  143.1309 LP  0  0  0  0  0  0  0  0  0  0  0  0  # atno 17321 bound_to 7965
  140.3585  143.2922  152.0410 LP  0  0  0  0  0  0  0  0  0  0  0  0  # atno 17342 bound_to 10162
  139.4877  144.6321  151.7050 LP  0  0  0  0  0  0  0  0  0  0  0  0  # atno 17343 bound_to 10162
  157.1146  131.0230  151.3034 LP  0  0  0  0  0  0  0  0  0  0  0  0  # atno 17370 bound_to 10713
  157.4677  130.7690  149.7294 LP  0  0  0  0  0  0  0  0  0  0  0  0  # atno 17371 bound_to 10713
  141.0019  133.7146  156.0973 LP  0  0  0  0  0  0  0  0  0  0  0  0  # atno 17394 bound_to 11000
  140.7486  134.4070  157.5544 LP  0  0  0  0  0  0  0  0  0  0  0  0  # atno 17395 bound_to 11000

$$$$
