AV-unprocessed.smi:322|AV-procd|sdf|2337|dock9
  -GOLD-   2262022243D 1   1.00000     0.00000
 Structure written by MMmdl.
 44 46  0  0  0  0  0  0  0  0  2 V2000
  151.0575  140.0033  154.9283 O   0  0  0  0  0  0  0  0  0  0  0  0
  150.1180  140.6041  155.7917 C   0  0  0  0  0  0  0  0  0  0  0  0
  150.7681  141.4475  156.8381 C   0  0  0  0  0  0  0  0  0  0  0  0
  150.6039  142.7917  156.9938 N   0  3  0  0  0  0  0  0  0  0  0  0
  151.3608  143.2381  158.0779 C   0  0  0  0  0  0  0  0  0  0  0  0
  151.5167  144.5103  158.6195 C   0  0  0  0  0  0  0  0  0  0  0  0
  152.3697  144.6217  159.7372 C   0  0  0  0  0  0  0  0  0  0  0  0
  153.0282  143.4961  160.2742 C   0  0  0  0  0  0  0  0  0  0  0  0
  152.8620  142.2112  159.7165 C   0  0  0  0  0  0  0  0  0  0  0  0
  152.0179  142.1106  158.6112 C   0  0  0  0  0  0  0  0  0  0  0  0
  151.6249  141.0300  157.8147 N   0  0  0  0  0  0  0  0  0  0  0  0
  152.1452  139.6884  158.1221 C   0  0  0  0  0  0  0  0  0  0  0  0
  151.0661  138.5909  158.0344 C   0  0  2  0  0  0  0  0  0  0  0  0
  150.0627  138.8594  158.9940 O   0  0  0  0  0  0  0  0  0  0  0  0
  151.6452  137.1949  158.3072 C   0  0  0  0  0  0  0  0  0  0  0  0
  150.7625  136.2197  157.7706 O   0  0  0  0  0  0  0  0  0  0  0  0
  150.8425  136.0877  156.3585 C   0  0  0  0  0  0  0  0  0  0  0  0
  150.4251  134.7140  155.8612 C   0  0  0  0  0  0  0  0  0  0  0  0
  149.4312  134.5930  154.8671 C   0  0  0  0  0  0  0  0  0  0  0  0
  149.0478  133.3209  154.4001 C   0  0  0  0  0  0  0  0  0  0  0  0
  149.6616  132.1648  154.9206 C   0  0  0  0  0  0  0  0  0  0  0  0
  149.1925  130.6060  154.3487 Cl  0  0  0  0  0  0  0  0  0  0  0  0
  150.6601  132.2822  155.9071 C   0  0  0  0  0  0  0  0  0  0  0  0
  151.0431  133.5544  156.3749 C   0  0  0  0  0  0  0  0  0  0  0  0
  151.6301  139.4540  155.4421 H   0  0  0  0  0  0  0  0  0  0  0  0
  149.4296  141.2131  155.2056 H   0  0  0  0  0  0  0  0  0  0  0  0
  149.5264  139.8238  156.2711 H   0  0  0  0  0  0  0  0  0  0  0  0
  151.0136  145.3740  158.2100 H   0  0  0  0  0  0  0  0  0  0  0  0
  152.5219  145.5899  160.1922 H   0  0  0  0  0  0  0  0  0  0  0  0
  153.6744  143.6204  161.1310 H   0  0  0  0  0  0  0  0  0  0  0  0
  153.3712  141.3550  160.1339 H   0  0  0  0  0  0  0  0  0  0  0  0
  152.9710  139.4787  157.4411 H   0  0  0  0  0  0  0  0  0  0  0  0
  152.5765  139.7178  159.1235 H   0  0  0  0  0  0  0  0  0  0  0  0
  150.6151  138.6080  157.0417 H   0  0  0  0  0  0  0  0  0  0  0  0
  149.7114  139.7200  158.8253 H   0  0  0  0  0  0  0  0  0  0  0  0
  152.6086  137.0918  157.8055 H   0  0  0  0  0  0  0  0  0  0  0  0
  151.8212  137.0483  159.3742 H   0  0  0  0  0  0  0  0  0  0  0  0
  150.1697  136.8217  155.9148 H   0  0  0  0  0  0  0  0  0  0  0  0
  151.8461  136.3391  156.0116 H   0  0  0  0  0  0  0  0  0  0  0  0
  148.9579  135.4761  154.4634 H   0  0  0  0  0  0  0  0  0  0  0  0
  148.2836  133.2338  153.6417 H   0  0  0  0  0  0  0  0  0  0  0  0
  151.1340  131.3973  156.3058 H   0  0  0  0  0  0  0  0  0  0  0  0
  151.8106  133.6360  157.1306 H   0  0  0  0  0  0  0  0  0  0  0  0
  150.0117  143.3590  156.4012 H   0  0  0  0  0  0  0  0  0  0  0  0
  1  2  1  0  0  0  0
  1 25  1  0  0  0  0
  2  3  1  0  0  0  0
  2 26  1  0  0  0  0
  2 27  1  0  0  0  0
  3 11  1  0  0  0  0
  3  4  2  0  0  0  0
  4  5  1  0  0  0  0
  4 44  1  0  0  0  0
  5 10  2  0  0  0  0
  5  6  1  0  0  0  0
  6  7  2  0  0  0  0
  6 28  1  0  0  0  0
  7  8  1  0  0  0  0
  7 29  1  0  0  0  0
  8  9  2  0  0  0  0
  8 30  1  0  0  0  0
  9 10  1  0  0  0  0
  9 31  1  0  0  0  0
 10 11  1  0  0  0  0
 11 12  1  0  0  0  0
 12 13  1  0  0  0  0
 12 32  1  0  0  0  0
 12 33  1  0  0  0  0
 13 14  1  0  0  0  0
 13 15  1  0  0  0  0
 13 34  1  0  0  0  0
 14 35  1  0  0  0  0
 15 16  1  0  0  0  0
 15 36  1  0  0  0  0
 15 37  1  0  0  0  0
 16 17  1  0  0  0  0
 17 18  1  0  0  0  0
 17 38  1  0  0  0  0
 17 39  1  0  0  0  0
 18 24  1  0  0  0  0
 18 19  2  0  0  0  0
 19 20  1  0  0  0  0
 19 40  1  0  0  0  0
 20 21  2  0  0  0  0
 20 41  1  0  0  0  0
 21 22  1  0  0  0  0
 21 23  1  0  0  0  0
 23 24  2  0  0  0  0
 23 42  1  0  0  0  0
 24 43  1  0  0  0  0
M  CHG  1   4   1
M  END
> <s_m_source_file>
AV-unprocessed.smi

> <i_m_source_file_index>
322

> <i_lp_mmshare_version>
43012

> <i_f3d_flags>
0

> <s_epik_input>
W2NIXTFbY0hdW2NIXVtjSF1jKGMxMiluKGMobjIpW0NIMl1bT0hdKVtDSDJdW0NASF0oW09IXSlbQ0gyXU9bQ0gyXWMzW2NIXVtjSF1jKENsKVtjSF1bY0hdMw==

> <s_epik_cmdline>
J2VwaWtfcHl0aG9uJywgJy1waCcsICc3LjAnLCAnLXRuJywgJzgnLCAnLW1hJywgJzIwMCcsICctbWV0YWxfYmluZGluZycsICctaW1hZScsICc8aW5maWxlLm1hZT4nLCAnLW9tYWUnLCAnPG91dGZpbGUubWFlPic=

> <r_epik_Ionization_Penalty>
1.34314

> <r_epik_Ionization_Penalty_Charging>
1.34228

> <r_epik_Ionization_Penalty_Neutral>
0.000856898

> <r_epik_State_Penalty>
1.41963

> <r_epik_Charging_Adjusted_Penalty>
2.76191

> <i_epik_Tot_Q>
1

> <i_epik_Tot_abs_Q>
1

> <r_epik_Metal_State_Penalty>
5.45585

> <b_epik_Metal_Only>
0

> <s_lp_Force_Field>
OPLS_2005

> <r_lp_Energy>
17.7001

> <b_lp_Chiralities_Consistent>
1

> <s_lp_Variant>
AV-unprocessed.smi:322-3

> <Gold.Version>
5.8.1

> <Gold.Id.Protein>
6NUR|6NUR_protein|mol2

> <Gold.PLP.Fitness>
60.2104

> <Gold.PLP.PLP>
-52.2753

> <Gold.PLP.part.hbond>
-3.0549

> <Gold.PLP.part.metal>
0.0000

> <Gold.PLP.part.buried>
-7.8380

> <Gold.PLP.part.nonpolar>
-42.5464

> <Gold.PLP.part.repulsive>
0.0521

> <Gold.PLP.ligand.clash>
0.0000

> <Gold.PLP.ligand.torsion>
0.6756

> <Gold.PLP.Chemscore.Hbond>
3.0532

> <Gold.PLP.Chemscore.CHOScore>
0.0000

> <Gold.PLP.Chemscore.Metal>
0.0000

> <Gold.Chemscore.Hbonds>
donor molecule, donor type, donor heavy atom, donor atom, acceptor molecule, acceptor atom, score
      L1  H     4    44       P1  8028  2.00
      P1  H  6896  6908       L1    16  0.10
      P1  H  7989  7998       L1     1  1.00

> <Gold.PLP.Chemscore.Internal.Correction>
0.1265

> <Gold.Rescore>
     Score         DG    S(hbond)    S(metal)    S(lipo)     H(rot)  DE(clash)    DE(int)     intcor
     18.16     -18.91       1.95        0.00     129.86       3.24       0.00       0.75       ----

> <Gold.Chemscore.Fitness>
18.1555

> <Gold.Chemscore.DG>
-18.9093

> <Gold.Chemscore.ZeroCoef>
-5.4800

> <Gold.Chemscore.Hbond>
1.9540

> <Gold.Chemscore.Metal>
0.0000

> <Gold.Chemscore.Lipo>
129.8554

> <Gold.Chemscore.Internal_Hbond>
0.0000

> <Gold.Chemscore.DEClash>
0.0044

> <Gold.Chemscore.DEInternal>
0.7494

> <Gold.Chemscore.Rot>
3.2383

> <Gold.Chemscore.Internal.Correction>
   9.000000E+99

> <Gold.Chemscore.Hbonds>
donor molecule, donor type, donor heavy atom, donor atom, acceptor molecule, acceptor atom, score
      L1  H     4    44       P1  8028  1.00
      P1  H  6896  6908       L1    16  0.01
      P1  H  7989  7998       L1     1  0.97

> <Gold.Chemscore.Hbond.Weighted>
-6.5263

> <Gold.Chemscore.Metal.Weighted>
-0.0000

> <Gold.Chemscore.Lipo.Weighted>
-15.1931

> <Gold.Chemscore.Internal_Hbond.Weighted>
0.0000

> <Gold.Chemscore.DEClash.Weighted>
0.0044

> <Gold.Chemscore.DEInternal.Weighted>
0.7494

> <Gold.Chemscore.Rot.Weighted>
8.2901

> <Gold.Chemscore.Internal.Correction.Weighted>
   9.000000E+99

> <Gold.Protein.RotatedTorsions>
[ 6907 6896 6895 6894 ] final -169.70 input  -60.11 | X-H torsion
[ 7974 7965 7964 7962 ] final -134.72 input  175.53 | X-H torsion
[ 8008 7997 7996 7995 ] final    7.19 input   59.86 | X-H torsion
[ 10167 10162 10161 10158 ] final  -74.03 input  -65.29 | X-H torsion
[ 10718 10713 10712 10709 ] final   49.83 input   66.30 | X-H torsion
[ 10763 10752 10751 10750 ] final  171.20 input  -60.55 | X-H torsion
[ 11005 11000 10999 10996 ] final   93.33 input  -57.11 | X-H torsion

> <Gold.Protein.ActiveResidues>
 VAL166  LYS551  ARG553  GLY616  TRP617  ASP618  TYR619  PRO620  LYS621  CYS622 
 ASP623  PHE694  ASN695  SER759  ASP760  ASP761  ALA762  ILE779  LEU786  VAL792 
 PHE793  MET794  SER795  GLU796  ALA797  LYS798  CYS799  TRP800  GLU811  SER814 

> <Gold.Protein.RotatedAtoms>
  151.4958  133.3515  159.2860 H   0  0  0  0  0  0  0  0  0  0  0  0  # atno 6907 bound_to 6896
  150.8805  134.8197  159.7232 H   0  0  0  0  0  0  0  0  0  0  0  0  # atno 6908 bound_to 6896
  152.4759  134.4855  159.9731 H   0  0  0  0  0  0  0  0  0  0  0  0  # atno 6909 bound_to 6896
  144.9077  140.6855  143.5044 H   0  0  0  0  0  0  0  0  0  0  0  0  # atno 7974 bound_to 7965
  154.7506  140.2766  155.6295 H   0  0  0  0  0  0  0  0  0  0  0  0  # atno 8008 bound_to 7997
  156.2895  140.2679  156.2185 H   0  0  0  0  0  0  0  0  0  0  0  0  # atno 8009 bound_to 7997
  155.0141  140.0372  157.2401 H   0  0  0  0  0  0  0  0  0  0  0  0  # atno 8010 bound_to 7997
  140.5061  143.2352  151.7672 H   0  0  0  0  0  0  0  0  0  0  0  0  # atno 10167 bound_to 10162
  157.4825  130.8324  149.8110 H   0  0  0  0  0  0  0  0  0  0  0  0  # atno 10718 bound_to 10713
  154.4085  135.2756  155.2052 H   0  0  0  0  0  0  0  0  0  0  0  0  # atno 10763 bound_to 10752
  154.4048  135.6036  153.5921 H   0  0  0  0  0  0  0  0  0  0  0  0  # atno 10764 bound_to 10752
  152.9831  135.5935  154.4363 H   0  0  0  0  0  0  0  0  0  0  0  0  # atno 10765 bound_to 10752
  139.8811  134.8783  156.3702 H   0  0  0  0  0  0  0  0  0  0  0  0  # atno 11005 bound_to 11000
  145.3507  139.1707  143.4436 LP  0  0  0  0  0  0  0  0  0  0  0  0  # atno 17320 bound_to 7965
  146.3142  140.3558  142.8660 LP  0  0  0  0  0  0  0  0  0  0  0  0  # atno 17321 bound_to 7965
  139.4884  144.4456  151.9714 LP  0  0  0  0  0  0  0  0  0  0  0  0  # atno 17342 bound_to 10162
  140.3546  144.3047  150.5943 LP  0  0  0  0  0  0  0  0  0  0  0  0  # atno 17343 bound_to 10162
  156.0129  130.3825  150.2204 LP  0  0  0  0  0  0  0  0  0  0  0  0  # atno 17370 bound_to 10713
  157.0391  131.0030  151.3289 LP  0  0  0  0  0  0  0  0  0  0  0  0  # atno 17371 bound_to 10713
  140.9470  133.7476  156.0221 LP  0  0  0  0  0  0  0  0  0  0  0  0  # atno 17394 bound_to 11000
  140.8152  134.3353  157.5399 LP  0  0  0  0  0  0  0  0  0  0  0  0  # atno 17395 bound_to 11000

$$$$
