AV-unprocessed.smi:1017|AV-procd|sdf|4438|dock9
  -GOLD-   22720 2393D 1   1.00000     0.00000
 Structure written by MMmdl.
 44 45  0  0  0  0  0  0  0  0  1 V2000
  152.4198  140.0502  158.0124 C   0  0  0  0  0  0  0  0  0  0  0  0
  152.5634  139.5964  156.6781 O   0  0  0  0  0  0  0  0  0  0  0  0
  151.5763  140.1316  155.8131 C   0  0  0  0  0  0  0  0  0  0  0  0
  151.1878  139.0615  154.7815 C   0  0  0  0  0  0  0  0  0  0  0  0
  149.7388  139.0276  154.5568 N   0  0  0  0  0  0  0  0  0  0  0  0
  149.1702  137.7759  154.7246 N   0  0  0  0  0  0  0  0  0  0  0  0
  147.9001  137.6078  154.5529 C   0  0  0  0  0  0  0  0  0  0  0  0
  147.3004  136.2561  154.7432 C   0  0  0  0  0  0  0  0  0  0  0  0
  146.5815  136.0190  155.7142 O   0  0  0  0  0  0  0  0  0  0  0  0
  147.5911  135.3445  153.7948 N   0  0  0  0  0  0  0  0  0  0  0  0
  147.1592  133.9426  153.6668 C   0  0  0  0  0  0  0  0  0  0  0  0
  148.3009  132.9868  154.1198 C   0  0  0  0  0  0  0  0  0  0  0  0
  149.4423  133.2996  153.5048 F   0  0  0  0  0  0  0  0  0  0  0  0
  148.4962  133.0899  155.4356 F   0  0  0  0  0  0  0  0  0  0  0  0
  148.0278  131.7136  153.8361 F   0  0  0  0  0  0  0  0  0  0  0  0
  145.8507  133.6607  154.4598 C   0  0  0  0  0  0  0  0  0  0  0  0
  144.6548  134.4950  153.9656 C   0  0  0  0  0  0  0  0  0  0  0  0
  144.4002  134.2616  152.4700 C   0  0  0  0  0  0  0  0  0  0  0  0
  145.6651  134.5350  151.6436 C   0  0  0  0  0  0  0  0  0  0  0  0
  146.8620  133.7120  152.1601 C   0  0  0  0  0  0  0  0  0  0  0  0
  147.0464  138.7290  154.1786 C   0  0  0  0  0  0  0  0  0  0  0  0
  147.6173  139.9426  154.0174 C   0  0  0  0  0  0  0  0  0  0  0  0
  149.0523  140.1563  154.2060 C   0  0  0  0  0  0  0  0  0  0  0  0
  149.5940  141.2515  154.0594 O   0  0  0  0  0  0  0  0  0  0  0  0
  153.1968  139.6066  158.6350 H   0  0  0  0  0  0  0  0  0  0  0  0
  151.4523  139.7619  158.4255 H   0  0  0  0  0  0  0  0  0  0  0  0
  152.5177  141.1351  158.0732 H   0  0  0  0  0  0  0  0  0  0  0  0
  150.7035  140.4381  156.3922 H   0  0  0  0  0  0  0  0  0  0  0  0
  151.9644  141.0170  155.3067 H   0  0  0  0  0  0  0  0  0  0  0  0
  151.7060  139.2620  153.8419 H   0  0  0  0  0  0  0  0  0  0  0  0
  151.5442  138.0823  155.1059 H   0  0  0  0  0  0  0  0  0  0  0  0
  148.1951  135.6656  153.0522 H   0  0  0  0  0  0  0  0  0  0  0  0
  145.5948  132.6050  154.3627 H   0  0  0  0  0  0  0  0  0  0  0  0
  145.9920  133.8210  155.5279 H   0  0  0  0  0  0  0  0  0  0  0  0
  143.7630  134.2344  154.5360 H   0  0  0  0  0  0  0  0  0  0  0  0
  144.8350  135.5548  154.1493 H   0  0  0  0  0  0  0  0  0  0  0  0
  144.0771  133.2317  152.3123 H   0  0  0  0  0  0  0  0  0  0  0  0
  143.5844  134.8983  152.1263 H   0  0  0  0  0  0  0  0  0  0  0  0
  145.4780  134.2953  150.5965 H   0  0  0  0  0  0  0  0  0  0  0  0
  145.8999  135.5995  151.6740 H   0  0  0  0  0  0  0  0  0  0  0  0
  147.7442  133.9450  151.5624 H   0  0  0  0  0  0  0  0  0  0  0  0
  146.6525  132.6567  151.9820 H   0  0  0  0  0  0  0  0  0  0  0  0
  145.9826  138.6173  154.0297 H   0  0  0  0  0  0  0  0  0  0  0  0
  146.9969  140.7824  153.7408 H   0  0  0  0  0  0  0  0  0  0  0  0
  1  2  1  0  0  0  0
  1 25  1  0  0  0  0
  1 26  1  0  0  0  0
  1 27  1  0  0  0  0
  2  3  1  0  0  0  0
  3  4  1  0  0  0  0
  3 28  1  0  0  0  0
  3 29  1  0  0  0  0
  4  5  1  0  0  0  0
  4 30  1  0  0  0  0
  4 31  1  0  0  0  0
  5 23  1  0  0  0  0
  5  6  1  0  0  0  0
  6  7  2  0  0  0  0
  7  8  1  0  0  0  0
  7 21  1  0  0  0  0
  8  9  2  0  0  0  0
  8 10  1  0  0  0  0
 10 11  1  0  0  0  0
 10 32  1  0  0  0  0
 11 20  1  0  0  0  0
 11 12  1  0  0  0  0
 11 16  1  0  0  0  0
 12 13  1  0  0  0  0
 12 14  1  0  0  0  0
 12 15  1  0  0  0  0
 16 17  1  0  0  0  0
 16 33  1  0  0  0  0
 16 34  1  0  0  0  0
 17 18  1  0  0  0  0
 17 35  1  0  0  0  0
 17 36  1  0  0  0  0
 18 19  1  0  0  0  0
 18 37  1  0  0  0  0
 18 38  1  0  0  0  0
 19 20  1  0  0  0  0
 19 39  1  0  0  0  0
 19 40  1  0  0  0  0
 20 41  1  0  0  0  0
 20 42  1  0  0  0  0
 21 22  2  0  0  0  0
 21 43  1  0  0  0  0
 22 23  1  0  0  0  0
 22 44  1  0  0  0  0
 23 24  2  0  0  0  0
M  END
> <s_m_source_file>
AV-unprocessed.smi

> <i_m_source_file_index>
1017

> <i_lp_mmshare_version>
43012

> <i_f3d_flags>
0

> <s_epik_input>
W0NIM11PW0NIMl1bQ0gyXW4xbmMoW2NIXVtjSF1jMT1PKUMoPU8pW05IXUMyKEMoRikoRilGKVtDSDJdW0NIMl1bQ0gyXVtDSDJdW0NIMl0y

> <s_epik_cmdline>
J2VwaWtfcHl0aG9uJywgJy1waCcsICc3LjAnLCAnLXRuJywgJzgnLCAnLW1hJywgJzIwMCcsICctbWV0YWxfYmluZGluZycsICctaW1hZScsICc8aW5maWxlLm1hZT4nLCAnLW9tYWUnLCAnPG91dGZpbGUubWFlPic=

> <r_lp_tautomer_probability>
1

> <r_epik_Ionization_Penalty>
9.29602e-06

> <r_epik_Ionization_Penalty_Charging>
4.97824e-09

> <r_epik_Ionization_Penalty_Neutral>
9.29104e-06

> <r_epik_State_Penalty>
-0

> <r_epik_Charging_Adjusted_Penalty>
4.97824e-09

> <i_epik_Tot_Q>
0

> <i_epik_Tot_abs_Q>
0

> <r_epik_Metal_State_Penalty>
0.00907788

> <b_epik_Metal_Only>
0

> <s_lp_Force_Field>
OPLS_2005

> <r_lp_Energy>
35.4859

> <b_lp_Chiralities_Consistent>
1

> <s_lp_Variant>
AV-unprocessed.smi:1017-1

> <Gold.Version>
5.8.1

> <Gold.Id.Protein>
6NUR|6NUR_protein|mol2

> <Gold.PLP.Fitness>
36.5694

> <Gold.PLP.PLP>
-32.7311

> <Gold.PLP.part.hbond>
-3.9102

> <Gold.PLP.part.metal>
0.0000

> <Gold.PLP.part.buried>
-1.5850

> <Gold.PLP.part.nonpolar>
-27.2011

> <Gold.PLP.part.repulsive>
0.3868

> <Gold.PLP.ligand.clash>
0.0000

> <Gold.PLP.ligand.torsion>
2.4380

> <Gold.PLP.Chemscore.Hbond>
2.8623

> <Gold.PLP.Chemscore.CHOScore>
0.0000

> <Gold.PLP.Chemscore.Metal>
0.0000

> <Gold.Chemscore.Hbonds>
donor molecule, donor type, donor heavy atom, donor atom, acceptor molecule, acceptor atom, score
      L1  H    10    32       P1  7948  0.94
      P1  H  7989  7998       L1    24  0.27
      P1  H  7997  8009       L1     2  1.00
      P1  H  8011  8017       L1    24  0.65

> <Gold.PLP.Chemscore.Internal.Correction>
0.1275

> <Gold.Rescore>
     Score         DG    S(hbond)    S(metal)    S(lipo)     H(rot)  DE(clash)    DE(int)     intcor
     10.14     -15.85       2.36        0.00      58.34       1.70       0.31       5.40       ----

> <Gold.Chemscore.Fitness>
10.1418

> <Gold.Chemscore.DG>
-15.8536

> <Gold.Chemscore.ZeroCoef>
-5.4800

> <Gold.Chemscore.Hbond>
2.3637

> <Gold.Chemscore.Metal>
0.0000

> <Gold.Chemscore.Lipo>
58.3424

> <Gold.Chemscore.Internal_Hbond>
0.0000

> <Gold.Chemscore.DEClash>
0.3071

> <Gold.Chemscore.DEInternal>
5.4047

> <Gold.Chemscore.Rot>
1.6982

> <Gold.Chemscore.Internal.Correction>
   9.000000E+99

> <Gold.Chemscore.Hbonds>
donor molecule, donor type, donor heavy atom, donor atom, acceptor molecule, acceptor atom, score
      L1  H    10    32       P1  7948  0.90
      P1  H  7989  7998       L1    24  0.17
      P1  H  7997  8009       L1     2  0.30
      P1  H  8011  8017       L1    24  0.64

> <Gold.Chemscore.Hbond.Weighted>
-7.8949

> <Gold.Chemscore.Metal.Weighted>
-0.0000

> <Gold.Chemscore.Lipo.Weighted>
-6.8261

> <Gold.Chemscore.Internal_Hbond.Weighted>
0.0000

> <Gold.Chemscore.DEClash.Weighted>
0.3071

> <Gold.Chemscore.DEInternal.Weighted>
5.4047

> <Gold.Chemscore.Rot.Weighted>
4.3474

> <Gold.Chemscore.Internal.Correction.Weighted>
   9.000000E+99

> <Gold.Protein.RotatedTorsions>
[ 6907 6896 6895 6894 ] final  -83.89 input  -60.11 | X-H torsion
[ 7974 7965 7964 7962 ] final   66.86 input  175.53 | X-H torsion
[ 8008 7997 7996 7995 ] final -157.05 input   59.86 | X-H torsion
[ 10167 10162 10161 10158 ] final -110.96 input  -65.29 | X-H torsion
[ 10718 10713 10712 10709 ] final   42.96 input   66.30 | X-H torsion
[ 10763 10752 10751 10750 ] final   70.27 input  -60.55 | X-H torsion
[ 11005 11000 10999 10996 ] final  -40.01 input  -57.11 | X-H torsion

> <Gold.Protein.ActiveResidues>
 VAL166  LYS551  ARG553  GLY616  TRP617  ASP618  TYR619  PRO620  LYS621  CYS622 
 ASP623  PHE694  ASN695  SER759  ASP760  ASP761  ALA762  ILE779  LEU786  VAL792 
 PHE793  MET794  SER795  GLU796  ALA797  LYS798  CYS799  TRP800  GLU811  SER814 

> <Gold.Protein.RotatedAtoms>
  150.6881  134.3442  159.4880 H   0  0  0  0  0  0  0  0  0  0  0  0  # atno 6907 bound_to 6896
  152.1291  134.9146  160.0569 H   0  0  0  0  0  0  0  0  0  0  0  0  # atno 6908 bound_to 6896
  152.0322  133.3907  159.4339 H   0  0  0  0  0  0  0  0  0  0  0  0  # atno 6909 bound_to 6896
  145.8215  139.3087  143.1040 H   0  0  0  0  0  0  0  0  0  0  0  0  # atno 7974 bound_to 7965
  155.7265  140.0796  157.2308 H   0  0  0  0  0  0  0  0  0  0  0  0  # atno 8008 bound_to 7997
  154.4038  140.1603  156.2515 H   0  0  0  0  0  0  0  0  0  0  0  0  # atno 8009 bound_to 7997
  155.9148  140.3401  155.6129 H   0  0  0  0  0  0  0  0  0  0  0  0  # atno 8010 bound_to 7997
  140.1388  143.4297  152.1576 H   0  0  0  0  0  0  0  0  0  0  0  0  # atno 10167 bound_to 10162
  157.4106  130.7912  149.7427 H   0  0  0  0  0  0  0  0  0  0  0  0  # atno 10718 bound_to 10713
  153.0332  135.5180  154.7416 H   0  0  0  0  0  0  0  0  0  0  0  0  # atno 10763 bound_to 10752
  154.6413  135.2913  155.0102 H   0  0  0  0  0  0  0  0  0  0  0  0  # atno 10764 bound_to 10752
  154.1019  135.6635  153.4922 H   0  0  0  0  0  0  0  0  0  0  0  0  # atno 10765 bound_to 10752
  141.0143  133.6893  156.2263 H   0  0  0  0  0  0  0  0  0  0  0  0  # atno 11005 bound_to 11000
  145.9669  140.8791  143.0182 LP  0  0  0  0  0  0  0  0  0  0  0  0  # atno 17320 bound_to 7965
  144.6747  140.1891  143.7398 LP  0  0  0  0  0  0  0  0  0  0  0  0  # atno 17321 bound_to 7965
  139.5482  144.7316  151.4516 LP  0  0  0  0  0  0  0  0  0  0  0  0  # atno 17342 bound_to 10162
  140.6773  143.8161  150.7075 LP  0  0  0  0  0  0  0  0  0  0  0  0  # atno 17343 bound_to 10162
  155.9849  130.3987  150.3286 LP  0  0  0  0  0  0  0  0  0  0  0  0  # atno 17370 bound_to 10713
  157.1424  131.0300  151.2922 LP  0  0  0  0  0  0  0  0  0  0  0  0  # atno 17371 bound_to 10713
  140.6681  134.4897  157.5586 LP  0  0  0  0  0  0  0  0  0  0  0  0  # atno 17394 bound_to 11000
  139.9108  134.8349  156.1536 LP  0  0  0  0  0  0  0  0  0  0  0  0  # atno 17395 bound_to 11000

$$$$
