AV-unprocessed.smi:2624|AV-procd|sdf|10234|dock5
  -GOLD-   2272014243D 1   1.00000     0.00000
 Structure written by MMmdl.
 38 39  0  0  0  0  0  0  0  0  2 V2000
  148.7595  132.7072  154.0630 C   0  0  0  0  0  0  0  0  0  0  0  0
  149.9518  133.3199  154.5219 O   0  0  0  0  0  0  0  0  0  0  0  0
  149.7029  134.4892  155.2832 C   0  0  0  0  0  0  0  0  0  0  0  0
  151.0383  135.0231  155.8222 C   0  0  0  0  0  0  0  0  0  0  0  0
  150.8320  136.1294  156.7663 N   0  0  0  0  0  0  0  0  0  0  0  0
  151.4349  137.3603  156.4439 C   0  0  0  0  0  0  0  0  0  0  0  0
  151.3141  138.4468  157.2298 C   0  0  0  0  0  0  0  0  0  0  0  0
  151.9721  139.7219  156.8546 C   0  0  0  0  0  0  0  0  0  0  0  0
  152.3529  139.9240  155.7003 O   0  0  0  0  0  0  0  0  0  0  0  0
  152.1332  140.7637  157.9138 C   0  0  0  0  0  0  0  0  0  0  0  0
  151.1915  141.8176  157.9850 C   0  0  0  0  0  0  0  0  0  0  0  0
  151.3084  142.8292  158.9585 C   0  0  0  0  0  0  0  0  0  0  0  0
  150.2879  143.9472  159.0088 C   0  0  0  0  0  0  0  0  0  0  0  0
  152.3751  142.7933  159.8769 C   0  0  0  0  0  0  0  0  0  0  0  0
  153.3163  141.7494  159.8203 C   0  0  0  0  0  0  0  0  0  0  0  0
  153.2044  140.7352  158.8475 C   0  0  0  0  0  0  0  0  0  0  0  0
  154.1372  139.7342  158.8562 O   0  5  0  0  0  0  0  0  0  0  0  0
  150.5441  138.3111  158.4511 C   0  0  0  0  0  0  0  0  0  0  0  0
  149.9739  137.1325  158.7709 C   0  0  0  0  0  0  0  0  0  0  0  0
  149.2210  136.9744  159.9709 C   0  0  0  0  0  0  0  0  0  0  0  0
  148.5920  136.8493  160.9346 N   0  0  0  0  0  0  0  0  0  0  0  0
  150.1025  135.9491  157.9089 C   0  0  0  0  0  0  0  0  0  0  0  0
  149.5935  134.8627  158.1905 O   0  0  0  0  0  0  0  0  0  0  0  0
  149.0048  131.8182  153.4823 H   0  0  0  0  0  0  0  0  0  0  0  0
  148.1909  133.3818  153.4216 H   0  0  0  0  0  0  0  0  0  0  0  0
  148.1271  132.4004  154.8971 H   0  0  0  0  0  0  0  0  0  0  0  0
  149.2172  135.2416  154.6596 H   0  0  0  0  0  0  0  0  0  0  0  0
  149.0284  134.2594  156.1098 H   0  0  0  0  0  0  0  0  0  0  0  0
  151.5847  134.2128  156.3071 H   0  0  0  0  0  0  0  0  0  0  0  0
  151.6759  135.3361  154.9937 H   0  0  0  0  0  0  0  0  0  0  0  0
  151.9975  137.3572  155.5205 H   0  0  0  0  0  0  0  0  0  0  0  0
  150.3727  141.8616  157.2812 H   0  0  0  0  0  0  0  0  0  0  0  0
  150.5246  144.6672  159.7928 H   0  0  0  0  0  0  0  0  0  0  0  0
  149.2951  143.5424  159.2055 H   0  0  0  0  0  0  0  0  0  0  0  0
  150.2610  144.4773  158.0564 H   0  0  0  0  0  0  0  0  0  0  0  0
  152.4763  143.5624  160.6283 H   0  0  0  0  0  0  0  0  0  0  0  0
  154.1280  141.7266  160.5329 H   0  0  0  0  0  0  0  0  0  0  0  0
  150.4322  139.1495  159.1239 H   0  0  0  0  0  0  0  0  0  0  0  0
  1  2  1  0  0  0  0
  1 24  1  0  0  0  0
  1 25  1  0  0  0  0
  1 26  1  0  0  0  0
  2  3  1  0  0  0  0
  3  4  1  0  0  0  0
  3 27  1  0  0  0  0
  3 28  1  0  0  0  0
  4  5  1  0  0  0  0
  4 29  1  0  0  0  0
  4 30  1  0  0  0  0
  5 22  1  0  0  0  0
  5  6  1  0  0  0  0
  6  7  2  0  0  0  0
  6 31  1  0  0  0  0
  7  8  1  0  0  0  0
  7 18  1  0  0  0  0
  8  9  2  0  0  0  0
  8 10  1  0  0  0  0
 10 16  1  0  0  0  0
 10 11  2  0  0  0  0
 11 12  1  0  0  0  0
 11 32  1  0  0  0  0
 12 13  1  0  0  0  0
 12 14  2  0  0  0  0
 13 33  1  0  0  0  0
 13 34  1  0  0  0  0
 13 35  1  0  0  0  0
 14 15  1  0  0  0  0
 14 36  1  0  0  0  0
 15 16  2  0  0  0  0
 15 37  1  0  0  0  0
 16 17  1  0  0  0  0
 18 19  2  0  0  0  0
 18 38  1  0  0  0  0
 19 20  1  0  0  0  0
 19 22  1  0  0  0  0
 20 21  3  0  0  0  0
 22 23  2  0  0  0  0
M  CHG  1  17  -1
M  END
> <s_m_source_file>
AV-unprocessed.smi

> <i_m_source_file_index>
2624

> <i_lp_mmshare_version>
43012

> <i_f3d_flags>
0

> <s_epik_input>
W0NIM11PW0NIMl1bQ0gyXW4xW2NIXWMoW2NIXWMoQyNOKWMxPU8pQyg9TyljMltjSF1jKFtDSDNdKVtjSF1bY0hdYzJbT0hd

> <s_epik_cmdline>
J2VwaWtfcHl0aG9uJywgJy1waCcsICc3LjAnLCAnLXRuJywgJzgnLCAnLW1hJywgJzIwMCcsICctbWV0YWxfYmluZGluZycsICctaW1hZScsICc8aW5maWxlLm1hZT4nLCAnLW9tYWUnLCAnPG91dGZpbGUubWFlPic=

> <r_epik_Ionization_Penalty>
0.985482

> <r_epik_Ionization_Penalty_Charging>
0.985482

> <r_epik_Ionization_Penalty_Neutral>
1.08437e-11

> <r_epik_State_Penalty>
1.03272

> <r_epik_Charging_Adjusted_Penalty>
2.0182

> <i_epik_Tot_Q>
-1

> <i_epik_Tot_abs_Q>
1

> <r_epik_Metal_State_Penalty>
1.03272

> <b_epik_Metal_Only>
0

> <s_lp_Force_Field>
OPLS_2005

> <r_lp_Energy>
23.2451

> <b_lp_Chiralities_Consistent>
1

> <s_lp_Variant>
AV-unprocessed.smi:2624-2

> <Gold.Version>
5.8.1

> <Gold.Id.Protein>
6NUR|6NUR_protein|mol2

> <Gold.PLP.Fitness>
48.2417

> <Gold.PLP.PLP>
-35.0045

> <Gold.PLP.part.hbond>
-5.0498

> <Gold.PLP.part.metal>
0.0000

> <Gold.PLP.part.buried>
-1.7834

> <Gold.PLP.part.nonpolar>
-27.3823

> <Gold.PLP.part.repulsive>
0.1125

> <Gold.PLP.ligand.clash>
0.0000

> <Gold.PLP.ligand.torsion>
1.6125

> <Gold.PLP.Chemscore.Hbond>
4.9164

> <Gold.PLP.Chemscore.CHOScore>
0.0000

> <Gold.PLP.Chemscore.Metal>
0.0000

> <Gold.Chemscore.Hbonds>
donor molecule, donor type, donor heavy atom, donor atom, acceptor molecule, acceptor atom, score
      P1  H  6896  6907       L1    23  1.00
      P1  H  6931  6943       L1    21  1.00
      P1  H  7997  8008       L1     9  0.59
      P1  H  7997  8010       L1    17  1.73

> <Gold.PLP.Chemscore.Internal.Correction>
1.7130

> <Gold.Rescore>
     Score         DG    S(hbond)    S(metal)    S(lipo)     H(rot)  DE(clash)    DE(int)     intcor
     16.54     -19.91       2.25        0.00      89.88       1.41       0.45       2.93       ----

> <Gold.Chemscore.Fitness>
16.5361

> <Gold.Chemscore.DG>
-19.9106

> <Gold.Chemscore.ZeroCoef>
-5.4800

> <Gold.Chemscore.Hbond>
2.2506

> <Gold.Chemscore.Metal>
0.0000

> <Gold.Chemscore.Lipo>
89.8777

> <Gold.Chemscore.Internal_Hbond>
0.0000

> <Gold.Chemscore.DEClash>
0.4457

> <Gold.Chemscore.DEInternal>
2.9288

> <Gold.Chemscore.Rot>
1.4071

> <Gold.Chemscore.Internal.Correction>
   9.000000E+99

> <Gold.Chemscore.Hbonds>
donor molecule, donor type, donor heavy atom, donor atom, acceptor molecule, acceptor atom, score
      P1  H  6896  6907       L1    23  0.44
      P1  H  6931  6943       L1    21  0.38
      P1  H  7989  7998       L1     9  0.01
      P1  H  7997  8008       L1     9  0.31
      P1  H  7997  8010       L1    17  0.47

> <Gold.Chemscore.Hbond.Weighted>
-7.5171

> <Gold.Chemscore.Metal.Weighted>
-0.0000

> <Gold.Chemscore.Lipo.Weighted>
-10.5157

> <Gold.Chemscore.Internal_Hbond.Weighted>
0.0000

> <Gold.Chemscore.DEClash.Weighted>
0.4457

> <Gold.Chemscore.DEInternal.Weighted>
2.9288

> <Gold.Chemscore.Rot.Weighted>
3.6022

> <Gold.Chemscore.Internal.Correction.Weighted>
   9.000000E+99

> <Gold.Protein.RotatedTorsions>
[ 6907 6896 6895 6894 ] final  -94.63 input  -60.11 | X-H torsion
[ 7974 7965 7964 7962 ] final  -20.40 input  175.53 | X-H torsion
[ 8008 7997 7996 7995 ] final   -9.36 input   59.86 | X-H torsion
[ 10167 10162 10161 10158 ] final  149.08 input  -65.29 | X-H torsion
[ 10718 10713 10712 10709 ] final -149.52 input   66.30 | X-H torsion
[ 10763 10752 10751 10750 ] final   60.73 input  -60.55 | X-H torsion
[ 11005 11000 10999 10996 ] final  -79.79 input  -57.11 | X-H torsion

> <Gold.Protein.ActiveResidues>
 VAL166  LYS551  ARG553  GLY616  TRP617  ASP618  TYR619  PRO620  LYS621  CYS622 
 ASP623  PHE694  ASN695  SER759  ASP760  ASP761  ALA762  ILE779  LEU786  VAL792 
 PHE793  MET794  SER795  GLU796  ALA797  LYS798  CYS799  TRP800  GLU811  SER814 

> <Gold.Protein.RotatedAtoms>
  150.6946  134.1782  159.4238 H   0  0  0  0  0  0  0  0  0  0  0  0  # atno 6907 bound_to 6896
  151.9757  135.0051  160.0564 H   0  0  0  0  0  0  0  0  0  0  0  0  # atno 6908 bound_to 6896
  152.1800  133.4666  159.4990 H   0  0  0  0  0  0  0  0  0  0  0  0  # atno 6909 bound_to 6896
  146.1790  140.4196  142.8502 H   0  0  0  0  0  0  0  0  0  0  0  0  # atno 7974 bound_to 7965
  154.5654  140.2357  155.8272 H   0  0  0  0  0  0  0  0  0  0  0  0  # atno 8008 bound_to 7997
  156.2064  140.3038  155.9594 H   0  0  0  0  0  0  0  0  0  0  0  0  # atno 8009 bound_to 7997
  155.2811  140.0422  157.3006 H   0  0  0  0  0  0  0  0  0  0  0  0  # atno 8010 bound_to 7997
  139.4866  144.5629  151.7198 H   0  0  0  0  0  0  0  0  0  0  0  0  # atno 10167 bound_to 10162
  156.4342  130.8090  151.2318 H   0  0  0  0  0  0  0  0  0  0  0  0  # atno 10718 bound_to 10713
  152.9929  135.5526  154.5920 H   0  0  0  0  0  0  0  0  0  0  0  0  # atno 10763 bound_to 10752
  154.5279  135.2811  155.1208 H   0  0  0  0  0  0  0  0  0  0  0  0  # atno 10764 bound_to 10752
  154.2534  135.6394  153.5301 H   0  0  0  0  0  0  0  0  0  0  0  0  # atno 10765 bound_to 10752
  141.1667  133.7121  156.8176 H   0  0  0  0  0  0  0  0  0  0  0  0  # atno 11005 bound_to 11000
  144.8283  140.6666  143.6307 LP  0  0  0  0  0  0  0  0  0  0  0  0  # atno 17320 bound_to 7965
  145.4130  139.1577  143.4115 LP  0  0  0  0  0  0  0  0  0  0  0  0  # atno 17321 bound_to 7965
  140.5202  144.0890  150.6020 LP  0  0  0  0  0  0  0  0  0  0  0  0  # atno 17342 bound_to 10162
  140.3846  143.2784  152.0131 LP  0  0  0  0  0  0  0  0  0  0  0  0  # atno 17343 bound_to 10162
  157.7507  131.0188  150.3643 LP  0  0  0  0  0  0  0  0  0  0  0  0  # atno 17370 bound_to 10713
  156.3987  130.3911  149.6976 LP  0  0  0  0  0  0  0  0  0  0  0  0  # atno 17371 bound_to 10713
  140.2142  134.8805  157.3308 LP  0  0  0  0  0  0  0  0  0  0  0  0  # atno 17394 bound_to 11000
  140.2054  134.4203  155.7640 LP  0  0  0  0  0  0  0  0  0  0  0  0  # atno 17395 bound_to 11000

$$$$
