AV-unprocessed.smi:212|AV-procd|sdf|1628|dock10
  -GOLD-   2262019573D 1   1.00000     0.00000
 Structure written by MMmdl.
 65 68  0  0  0  0  0  0  0  0  2 V2000
  149.9382  140.0213  154.8962 C   0  0  0  0  0  0  0  0  0  0  0  0
  150.9811  140.5009  155.9242 C   0  0  1  0  0  0  0  0  0  0  0  0
  150.4152  141.5056  156.9514 C   0  0  0  0  0  0  0  0  0  0  0  0
  151.4801  141.9845  157.8729 N   0  3  1  0  0  0  0  0  0  0  0  0
  151.0038  143.0086  158.8405 C   0  0  0  0  0  0  0  0  0  0  0  0
  152.1526  143.8756  159.4079 C   0  0  0  0  0  0  0  0  0  0  0  0
  151.5788  145.1100  160.1237 C   0  0  0  0  0  0  0  0  0  0  0  0
  153.0659  143.0842  160.3625 C   0  0  0  0  0  0  0  0  0  0  0  0
  152.9402  144.3619  158.3392 O   0  0  0  0  0  0  0  0  0  0  0  0
  152.2150  140.8666  158.5199 C   0  0  0  0  0  0  0  0  0  0  0  0
  152.7756  139.8873  157.4711 C   0  0  0  0  0  0  0  0  0  0  0  0
  151.7186  139.4147  156.5825 N   0  0  0  0  0  0  0  0  0  0  0  0
  151.0764  138.3197  157.0646 C   0  0  0  0  0  0  0  0  0  0  0  0
  150.7472  138.2300  158.3800 N   0  0  0  0  0  0  0  0  0  0  0  0
  150.1343  137.1384  158.8480 C   0  0  0  0  0  0  0  0  0  0  0  0
  149.7715  136.0375  158.1869 N   0  0  0  0  0  0  0  0  0  0  0  0
  150.1081  136.1194  156.8681 C   0  0  0  0  0  0  0  0  0  0  0  0
  150.7622  137.2112  156.2325 C   0  0  0  0  0  0  0  0  0  0  0  0
  150.9500  136.9344  154.8843 N   0  0  0  0  0  0  0  0  0  0  0  0
  150.4332  135.7457  154.7296 C   0  0  0  0  0  0  0  0  0  0  0  0
  149.8881  135.1904  155.8662 N   0  0  0  0  0  0  0  0  0  0  0  0
  149.2523  133.8911  155.9831 C   0  0  0  0  0  0  0  0  0  0  0  0
  148.8395  133.2426  154.6337 C   0  0  2  0  0  0  0  0  0  0  0  0
  147.4796  133.8319  154.1994 C   0  0  0  0  0  0  0  0  0  0  0  0
  147.5222  135.2431  154.1430 O   0  0  0  0  0  0  0  0  0  0  0  0
  148.8152  131.6836  154.5851 C   0  0  1  0  0  0  0  0  0  0  0  0
  148.2291  131.0248  153.3492 C   0  0  0  0  0  0  0  0  0  0  0  0
  148.6768  129.5804  153.5431 C   0  0  0  0  0  0  0  0  0  0  0  0
  149.9533  129.6569  154.1718 O   0  0  0  0  0  0  0  0  0  0  0  0
  150.1534  130.9527  154.7326 C   0  0  0  0  0  0  0  0  0  0  0  0
  149.5488  140.8637  154.3241 H   0  0  0  0  0  0  0  0  0  0  0  0
  149.0845  139.5306  155.3625 H   0  0  0  0  0  0  0  0  0  0  0  0
  150.3806  139.3217  154.1863 H   0  0  0  0  0  0  0  0  0  0  0  0
  151.7337  141.0388  155.3458 H   0  0  0  0  0  0  0  0  0  0  0  0
  149.9800  142.3546  156.4244 H   0  0  0  0  0  0  0  0  0  0  0  0
  149.6080  141.0568  157.5303 H   0  0  0  0  0  0  0  0  0  0  0  0
  150.2390  143.6363  158.3792 H   0  0  0  0  0  0  0  0  0  0  0  0
  150.5048  142.5173  159.6778 H   0  0  0  0  0  0  0  0  0  0  0  0
  150.9590  144.8204  160.9731 H   0  0  0  0  0  0  0  0  0  0  0  0
  150.9589  145.7078  159.4540 H   0  0  0  0  0  0  0  0  0  0  0  0
  152.3712  145.7567  160.5028 H   0  0  0  0  0  0  0  0  0  0  0  0
  152.4994  142.6774  161.2009 H   0  0  0  0  0  0  0  0  0  0  0  0
  153.8519  143.7176  160.7753 H   0  0  0  0  0  0  0  0  0  0  0  0
  153.5550  142.2497  159.8591 H   0  0  0  0  0  0  0  0  0  0  0  0
  153.4291  143.6406  157.9712 H   0  0  0  0  0  0  0  0  0  0  0  0
  153.0368  141.2647  159.1163 H   0  0  0  0  0  0  0  0  0  0  0  0
  151.5471  140.3427  159.2056 H   0  0  0  0  0  0  0  0  0  0  0  0
  153.5354  140.3852  156.8675 H   0  0  0  0  0  0  0  0  0  0  0  0
  153.2772  139.0547  157.9664 H   0  0  0  0  0  0  0  0  0  0  0  0
  149.9004  137.1484  159.9023 H   0  0  0  0  0  0  0  0  0  0  0  0
  150.4271  135.2437  153.7729 H   0  0  0  0  0  0  0  0  0  0  0  0
  149.9096  133.2270  156.5446 H   0  0  0  0  0  0  0  0  0  0  0  0
  148.3685  134.0265  156.6081 H   0  0  0  0  0  0  0  0  0  0  0  0
  149.5674  133.5708  153.8904 H   0  0  0  0  0  0  0  0  0  0  0  0
  147.1762  133.4381  153.2288 H   0  0  0  0  0  0  0  0  0  0  0  0
  146.6994  133.5598  154.9108 H   0  0  0  0  0  0  0  0  0  0  0  0
  148.0641  135.4991  153.4122 H   0  0  0  0  0  0  0  0  0  0  0  0
  148.1831  131.3394  155.4051 H   0  0  0  0  0  0  0  0  0  0  0  0
  147.1453  131.1253  153.2850 H   0  0  0  0  0  0  0  0  0  0  0  0
  148.6577  131.4074  152.4276 H   0  0  0  0  0  0  0  0  0  0  0  0
  147.9906  129.0567  154.2100 H   0  0  0  0  0  0  0  0  0  0  0  0
  148.7254  129.0273  152.6050 H   0  0  0  0  0  0  0  0  0  0  0  0
  150.9501  131.4330  154.1680 H   0  0  0  0  0  0  0  0  0  0  0  0
  150.4736  130.8865  155.7727 H   0  0  0  0  0  0  0  0  0  0  0  0
  152.1607  142.4537  157.2927 H   0  0  0  0  0  0  0  0  0  0  0  0
  1  2  1  0  0  0  0
  1 31  1  0  0  0  0
  1 32  1  0  0  0  0
  1 33  1  0  0  0  0
  2 12  1  0  0  0  0
  2  3  1  0  0  0  0
  2 34  1  0  0  0  0
  3  4  1  0  0  0  0
  3 35  1  0  0  0  0
  3 36  1  0  0  0  0
  4  5  1  0  0  0  0
  4 10  1  0  0  0  0
  4 65  1  0  0  0  0
  5  6  1  0  0  0  0
  5 37  1  0  0  0  0
  5 38  1  0  0  0  0
  6  7  1  0  0  0  0
  6  8  1  0  0  0  0
  6  9  1  0  0  0  0
  7 39  1  0  0  0  0
  7 40  1  0  0  0  0
  7 41  1  0  0  0  0
  8 42  1  0  0  0  0
  8 43  1  0  0  0  0
  8 44  1  0  0  0  0
  9 45  1  0  0  0  0
 10 11  1  0  0  0  0
 10 46  1  0  0  0  0
 10 47  1  0  0  0  0
 11 12  1  0  0  0  0
 11 48  1  0  0  0  0
 11 49  1  0  0  0  0
 12 13  1  0  0  0  0
 13 18  1  0  0  0  0
 13 14  2  0  0  0  0
 14 15  1  0  0  0  0
 15 16  2  0  0  0  0
 15 50  1  0  0  0  0
 16 17  1  0  0  0  0
 17 21  1  0  0  0  0
 17 18  2  0  0  0  0
 18 19  1  0  0  0  0
 19 20  2  0  0  0  0
 20 21  1  0  0  0  0
 20 51  1  0  0  0  0
 21 22  1  0  0  0  0
 22 23  1  0  0  0  0
 22 52  1  0  0  0  0
 22 53  1  0  0  0  0
 23 24  1  0  0  0  0
 23 26  1  0  0  0  0
 23 54  1  0  0  0  0
 24 25  1  0  0  0  0
 24 55  1  0  0  0  0
 24 56  1  0  0  0  0
 25 57  1  0  0  0  0
 26 30  1  0  0  0  0
 26 27  1  0  0  0  0
 26 58  1  0  0  0  0
 27 28  1  0  0  0  0
 27 59  1  0  0  0  0
 27 60  1  0  0  0  0
 28 29  1  0  0  0  0
 28 61  1  0  0  0  0
 28 62  1  0  0  0  0
 29 30  1  0  0  0  0
 30 63  1  0  0  0  0
 30 64  1  0  0  0  0
M  CHG  1   4   1
M  END
> <s_m_source_file>
AV-unprocessed.smi

> <i_m_source_file_index>
212

> <i_lp_mmshare_version>
43012

> <i_f3d_flags>
0

> <s_epik_input>
W0NIM11bQ0BASF0xW0NIMl1OKFtDSDJdQyhbQ0gzXSkoW0NIM10pW09IXSlbQ0gyXVtDSDJdTjFjKG5bY0hdbjIpYyhjMjMpbltjSF1uM1tDSDJdW0NASF0oW0NIMl1bT0hdKVtDQEBIXTRbQ0gyXVtDSDJdT1tDSDJdNA==

> <s_epik_cmdline>
J2VwaWtfcHl0aG9uJywgJy1waCcsICc3LjAnLCAnLXRuJywgJzgnLCAnLW1hJywgJzIwMCcsICctbWV0YWxfYmluZGluZycsICctaW1hZScsICc8aW5maWxlLm1hZT4nLCAnLW9tYWUnLCAnPG91dGZpbGUubWFlPic=

> <r_lp_tautomer_probability>
1

> <r_epik_Ionization_Penalty>
0.00182193

> <r_epik_Ionization_Penalty_Charging>
0.00173996

> <r_epik_Ionization_Penalty_Neutral>
8.19718e-05

> <r_epik_State_Penalty>
-0

> <r_epik_Charging_Adjusted_Penalty>
0.00173996

> <i_epik_Tot_Q>
1

> <i_epik_Tot_abs_Q>
1

> <r_epik_Metal_State_Penalty>
-0

> <b_epik_Metal_Only>
0

> <s_lp_Force_Field>
OPLS_2005

> <r_lp_Energy>
60.5032

> <b_lp_Chiralities_Consistent>
1

> <s_lp_Variant>
AV-unprocessed.smi:212-12

> <Gold.Version>
5.8.1

> <Gold.Id.Protein>
6NUR|6NUR_protein|mol2

> <Gold.PLP.Fitness>
49.4836

> <Gold.PLP.PLP>
-46.1164

> <Gold.PLP.part.hbond>
-2.5301

> <Gold.PLP.part.metal>
0.0000

> <Gold.PLP.part.buried>
-4.3767

> <Gold.PLP.part.nonpolar>
-38.7344

> <Gold.PLP.part.repulsive>
0.2732

> <Gold.PLP.ligand.clash>
0.0000

> <Gold.PLP.ligand.torsion>
1.4134

> <Gold.PLP.Chemscore.Hbond>
1.1872

> <Gold.PLP.Chemscore.CHOScore>
0.5375

> <Gold.PLP.Chemscore.Metal>
0.0000

> <Gold.Chemscore.Hbonds>
donor molecule, donor type, donor heavy atom, donor atom, acceptor molecule, acceptor atom, score
      L1  H    25    57       P1  7948  1.00
      P1  H  6896  6908       L1    16  0.15
      L1  C    20    51       P1  7948  0.01
      L1  C    20    51       P1  7949  0.14

> <Gold.PLP.Chemscore.Internal.Correction>
1.0201

> <Gold.Rescore>
     Score         DG    S(hbond)    S(metal)    S(lipo)     H(rot)  DE(clash)    DE(int)     intcor
      9.65     -12.26       0.98        0.00     110.63       3.68       0.01       2.60       ----

> <Gold.Chemscore.Fitness>
9.6527

> <Gold.Chemscore.DG>
-12.2600

> <Gold.Chemscore.ZeroCoef>
-5.4800

> <Gold.Chemscore.Hbond>
0.9762

> <Gold.Chemscore.Metal>
0.0000

> <Gold.Chemscore.Lipo>
110.6263

> <Gold.Chemscore.Internal_Hbond>
0.0000

> <Gold.Chemscore.DEClash>
0.0078

> <Gold.Chemscore.DEInternal>
2.5995

> <Gold.Chemscore.Rot>
3.6812

> <Gold.Chemscore.Internal.Correction>
   9.000000E+99

> <Gold.Chemscore.Hbonds>
donor molecule, donor type, donor heavy atom, donor atom, acceptor molecule, acceptor atom, score
      L1  H    25    57       P1  7948  1.00
      P1  H  6896  6908       L1    16  0.08

> <Gold.Chemscore.Hbond.Weighted>
-3.2607

> <Gold.Chemscore.Metal.Weighted>
-0.0000

> <Gold.Chemscore.Lipo.Weighted>
-12.9433

> <Gold.Chemscore.Internal_Hbond.Weighted>
0.0000

> <Gold.Chemscore.DEClash.Weighted>
0.0078

> <Gold.Chemscore.DEInternal.Weighted>
2.5995

> <Gold.Chemscore.Rot.Weighted>
9.4239

> <Gold.Chemscore.Internal.Correction.Weighted>
   9.000000E+99

> <Gold.Protein.RotatedTorsions>
[ 6907 6896 6895 6894 ] final  145.73 input  -60.11 | X-H torsion
[ 7974 7965 7964 7962 ] final   24.13 input  175.53 | X-H torsion
[ 8008 7997 7996 7995 ] final  125.64 input   59.86 | X-H torsion
[ 10167 10162 10161 10158 ] final -175.84 input  -65.29 | X-H torsion
[ 10718 10713 10712 10709 ] final  -29.67 input   66.30 | X-H torsion
[ 10763 10752 10751 10750 ] final -146.99 input  -60.55 | X-H torsion
[ 11005 11000 10999 10996 ] final -120.64 input  -57.11 | X-H torsion

> <Gold.Protein.ActiveResidues>
 VAL166  LYS551  ARG553  GLY616  TRP617  ASP618  TYR619  PRO620  LYS621  CYS622 
 ASP623  PHE694  ASN695  SER759  ASP760  ASP761  ALA762  ILE779  LEU786  VAL792 
 PHE793  MET794  SER795  GLU796  ALA797  LYS798  CYS799  TRP800  GLU811  SER814 

> <Gold.Protein.RotatedAtoms>
  152.1771  133.4682  159.4938 H   0  0  0  0  0  0  0  0  0  0  0  0  # atno 6907 bound_to 6896
  150.6928  134.1880  159.4283 H   0  0  0  0  0  0  0  0  0  0  0  0  # atno 6908 bound_to 6896
  151.9789  135.0038  160.0607 H   0  0  0  0  0  0  0  0  0  0  0  0  # atno 6909 bound_to 6896
  146.1952  139.7647  142.8803 H   0  0  0  0  0  0  0  0  0  0  0  0  # atno 7974 bound_to 7965
  156.2840  140.2711  156.1982 H   0  0  0  0  0  0  0  0  0  0  0  0  # atno 8008 bound_to 7997
  155.0388  140.0386  157.2520 H   0  0  0  0  0  0  0  0  0  0  0  0  # atno 8009 bound_to 7997
  154.7291  140.2703  155.6477 H   0  0  0  0  0  0  0  0  0  0  0  0  # atno 8010 bound_to 7997
  139.5560  144.1988  152.1160 H   0  0  0  0  0  0  0  0  0  0  0  0  # atno 10167 bound_to 10162
  156.4095  130.4405  149.7263 H   0  0  0  0  0  0  0  0  0  0  0  0  # atno 10718 bound_to 10713
  154.8309  135.3372  154.6748 H   0  0  0  0  0  0  0  0  0  0  0  0  # atno 10763 bound_to 10752
  153.7368  135.6948  153.4981 H   0  0  0  0  0  0  0  0  0  0  0  0  # atno 10764 bound_to 10752
  153.2273  135.4428  155.0507 H   0  0  0  0  0  0  0  0  0  0  0  0  # atno 10765 bound_to 10752
  141.0128  134.0239  157.3390 H   0  0  0  0  0  0  0  0  0  0  0  0  # atno 11005 bound_to 11000
  145.3667  141.0335  143.3254 LP  0  0  0  0  0  0  0  0  0  0  0  0  # atno 17320 bound_to 7965
  144.8565  139.5241  143.6832 LP  0  0  0  0  0  0  0  0  0  0  0  0  # atno 17321 bound_to 7965
  140.1492  144.5130  150.6697 LP  0  0  0  0  0  0  0  0  0  0  0  0  # atno 17342 bound_to 10162
  140.6833  143.2337  151.5327 LP  0  0  0  0  0  0  0  0  0  0  0  0  # atno 17343 bound_to 10162
  156.4247  130.7786  151.2804 LP  0  0  0  0  0  0  0  0  0  0  0  0  # atno 17370 bound_to 10713
  157.7506  131.0172  150.3576 LP  0  0  0  0  0  0  0  0  0  0  0  0  # atno 17371 bound_to 10713
  139.9100  135.0188  156.7650 LP  0  0  0  0  0  0  0  0  0  0  0  0  # atno 17394 bound_to 11000
  140.6704  133.9564  155.7853 LP  0  0  0  0  0  0  0  0  0  0  0  0  # atno 17395 bound_to 11000

$$$$
