AV-unprocessed.smi:288|AV-procd|sdf|2210|dock3
  -GOLD-   2262022 43D 1   1.00000     0.00000
 Structure written by MMmdl.
 33 34  0  0  0  0  0  0  0  0  1 V2000
  153.2038  138.5077  160.0350 O   0  0  0  0  0  0  0  0  0  0  0  0
  152.9061  139.6618  159.7217 C   0  0  0  0  0  0  0  0  0  0  0  0
  153.4748  140.8410  160.3653 C   0  0  0  0  0  0  0  0  0  0  0  0
  154.3534  140.6899  161.3709 F   0  0  0  0  0  0  0  0  0  0  0  0
  153.1352  142.0861  159.9671 C   0  0  0  0  0  0  0  0  0  0  0  0
  152.2413  142.3322  158.9373 N   0  0  0  0  0  0  0  0  0  0  0  0
  151.8824  143.7377  158.5044 C   0  0  1  0  0  0  0  0  0  0  0  0
  150.3789  143.9976  158.7081 C   0  0  0  0  0  0  0  0  0  0  0  0
  150.3687  145.3180  159.4513 C   0  0  0  0  0  0  0  0  0  0  0  0
  151.6755  145.2492  160.2275 C   0  0  0  0  0  0  0  0  0  0  0  0
  152.5725  144.6687  159.2893 O   0  0  0  0  0  0  0  0  0  0  0  0
  151.6410  141.2497  158.2581 C   0  0  0  0  0  0  0  0  0  0  0  0
  150.8563  141.4476  157.3275 O   0  0  0  0  0  0  0  0  0  0  0  0
  151.9828  139.9452  158.6852 N   0  0  0  0  0  0  0  0  0  0  0  0
  151.3800  138.8196  157.9901 C   0  0  0  0  0  0  0  0  0  0  0  0
  150.3878  138.0215  158.8658 C   0  0  2  0  0  0  0  0  0  0  0  0
  151.1249  137.1530  159.7048 O   0  0  0  0  0  0  0  0  0  0  0  0
  149.4217  137.1626  158.0266 C   0  0  0  0  0  0  0  0  0  0  0  0
  150.1061  136.2934  157.2822 F   0  0  0  0  0  0  0  0  0  0  0  0
  148.6263  136.4669  158.8394 F   0  0  0  0  0  0  0  0  0  0  0  0
  148.6630  137.9265  157.2392 F   0  0  0  0  0  0  0  0  0  0  0  0
  153.5952  142.9126  160.4862 H   0  0  0  0  0  0  0  0  0  0  0  0
  152.2153  143.8271  157.4687 H   0  0  0  0  0  0  0  0  0  0  0  0
  149.8538  144.0337  157.7532 H   0  0  0  0  0  0  0  0  0  0  0  0
  149.9408  143.2115  159.3257 H   0  0  0  0  0  0  0  0  0  0  0  0
  150.3964  146.1480  158.7439 H   0  0  0  0  0  0  0  0  0  0  0  0
  149.4959  145.4419  160.0929 H   0  0  0  0  0  0  0  0  0  0  0  0
  152.0215  146.2276  160.5609 H   0  0  0  0  0  0  0  0  0  0  0  0
  151.5738  144.6032  161.1005 H   0  0  0  0  0  0  0  0  0  0  0  0
  150.8863  139.2329  157.1094 H   0  0  0  0  0  0  0  0  0  0  0  0
  152.1722  138.1932  157.5765 H   0  0  0  0  0  0  0  0  0  0  0  0
  149.8013  138.6953  159.4919 H   0  0  0  0  0  0  0  0  0  0  0  0
  151.0979  137.4928  160.5863 H   0  0  0  0  0  0  0  0  0  0  0  0
  1  2  2  0  0  0  0
  2 14  1  0  0  0  0
  2  3  1  0  0  0  0
  3  4  1  0  0  0  0
  3  5  2  0  0  0  0
  5  6  1  0  0  0  0
  5 22  1  0  0  0  0
  6  7  1  0  0  0  0
  6 12  1  0  0  0  0
  7 11  1  0  0  0  0
  7  8  1  0  0  0  0
  7 23  1  0  0  0  0
  8  9  1  0  0  0  0
  8 24  1  0  0  0  0
  8 25  1  0  0  0  0
  9 10  1  0  0  0  0
  9 26  1  0  0  0  0
  9 27  1  0  0  0  0
 10 11  1  0  0  0  0
 10 28  1  0  0  0  0
 10 29  1  0  0  0  0
 12 13  2  0  0  0  0
 12 14  1  0  0  0  0
 14 15  1  0  0  0  0
 15 16  1  0  0  0  0
 15 30  1  0  0  0  0
 15 31  1  0  0  0  0
 16 17  1  0  0  0  0
 16 18  1  0  0  0  0
 16 32  1  0  0  0  0
 17 33  1  0  0  0  0
 18 19  1  0  0  0  0
 18 20  1  0  0  0  0
 18 21  1  0  0  0  0
M  END
> <s_m_source_file>
AV-unprocessed.smi

> <i_m_source_file_index>
288

> <i_lp_mmshare_version>
43012

> <i_f3d_flags>
0

> <s_epik_input>
TzFbQ0gyXVtDSDJdW0NIMl1bQ0BIXTFuKFtjSF1jKEYpYzI9TyljKD1PKW4yW0NIMl1bQ0BIXShbT0hdKUMoRikoRilG

> <s_epik_cmdline>
J2VwaWtfcHl0aG9uJywgJy1waCcsICc3LjAnLCAnLXRuJywgJzgnLCAnLW1hJywgJzIwMCcsICctbWV0YWxfYmluZGluZycsICctaW1hZScsICc8aW5maWxlLm1hZT4nLCAnLW9tYWUnLCAnPG91dGZpbGUubWFlPic=

> <r_lp_tautomer_probability>
1

> <r_epik_Ionization_Penalty>
0.000551119

> <r_epik_Ionization_Penalty_Charging>
2.51184e-08

> <r_epik_Ionization_Penalty_Neutral>
0.000551094

> <r_epik_State_Penalty>
0.000345115

> <r_epik_Charging_Adjusted_Penalty>
0.00034514

> <i_epik_Tot_Q>
0

> <i_epik_Tot_abs_Q>
0

> <r_epik_Metal_State_Penalty>
-0

> <b_epik_Metal_Only>
0

> <s_epik_Chemistry_Notes>
This compound contains an acetal/aminal-like group ( X-CH(R)-Y where X, Y are N, S, or O) that may be acid/base labile, releasing an aldehyde.

> <s_lp_Force_Field>
OPLS_2005

> <r_lp_Energy>
35.1555

> <b_lp_Chiralities_Consistent>
1

> <s_lp_Variant>
AV-unprocessed.smi:288-2

> <Gold.Version>
5.8.1

> <Gold.Id.Protein>
6NUR|6NUR_protein|mol2

> <Gold.PLP.Fitness>
42.1807

> <Gold.PLP.PLP>
-39.6988

> <Gold.PLP.part.hbond>
-1.0000

> <Gold.PLP.part.metal>
0.0000

> <Gold.PLP.part.buried>
-5.1720

> <Gold.PLP.part.nonpolar>
-33.3039

> <Gold.PLP.part.repulsive>
0.0475

> <Gold.PLP.ligand.clash>
0.0000

> <Gold.PLP.ligand.torsion>
0.2640

> <Gold.PLP.Chemscore.Hbond>
1.0000

> <Gold.PLP.Chemscore.CHOScore>
0.0000

> <Gold.PLP.Chemscore.Metal>
0.0000

> <Gold.Chemscore.Hbonds>
donor molecule, donor type, donor heavy atom, donor atom, acceptor molecule, acceptor atom, score
      P1  H  6896  6909       L1    17  1.00

> <Gold.PLP.Chemscore.Internal.Correction>
0.0098

> <Gold.Rescore>
     Score         DG    S(hbond)    S(metal)    S(lipo)     H(rot)  DE(clash)    DE(int)     intcor
      7.58      -9.24       0.98        0.00      60.22       2.57       0.06       1.59       ----

> <Gold.Chemscore.Fitness>
7.5849

> <Gold.Chemscore.DG>
-9.2444

> <Gold.Chemscore.ZeroCoef>
-5.4800

> <Gold.Chemscore.Hbond>
0.9840

> <Gold.Chemscore.Metal>
0.0000

> <Gold.Chemscore.Lipo>
60.2207

> <Gold.Chemscore.Internal_Hbond>
0.0000

> <Gold.Chemscore.DEClash>
0.0645

> <Gold.Chemscore.DEInternal>
1.5950

> <Gold.Chemscore.Rot>
2.5656

> <Gold.Chemscore.Internal.Correction>
   9.000000E+99

> <Gold.Chemscore.Hbonds>
donor molecule, donor type, donor heavy atom, donor atom, acceptor molecule, acceptor atom, score
      P1  H  6896  6909       L1    17  0.47

> <Gold.Chemscore.Hbond.Weighted>
-3.2865

> <Gold.Chemscore.Metal.Weighted>
-0.0000

> <Gold.Chemscore.Lipo.Weighted>
-7.0458

> <Gold.Chemscore.Internal_Hbond.Weighted>
0.0000

> <Gold.Chemscore.DEClash.Weighted>
0.0645

> <Gold.Chemscore.DEInternal.Weighted>
1.5950

> <Gold.Chemscore.Rot.Weighted>
6.5679

> <Gold.Chemscore.Internal.Correction.Weighted>
   9.000000E+99

> <Gold.Protein.RotatedTorsions>
[ 6907 6896 6895 6894 ] final  105.07 input  -60.11 | X-H torsion
[ 7974 7965 7964 7962 ] final   63.34 input  175.53 | X-H torsion
[ 8008 7997 7996 7995 ] final  -81.67 input   59.86 | X-H torsion
[ 10167 10162 10161 10158 ] final  143.46 input  -65.29 | X-H torsion
[ 10718 10713 10712 10709 ] final   88.17 input   66.30 | X-H torsion
[ 10763 10752 10751 10750 ] final   41.08 input  -60.55 | X-H torsion
[ 11005 11000 10999 10996 ] final  108.43 input  -57.11 | X-H torsion

> <Gold.Protein.ActiveResidues>
 VAL166  LYS551  ARG553  GLY616  TRP617  ASP618  TYR619  PRO620  LYS621  CYS622 
 ASP623  PHE694  ASN695  SER759  ASP760  ASP761  ALA762  ILE779  LEU786  VAL792 
 PHE793  MET794  SER795  GLU796  ALA797  LYS798  CYS799  TRP800  GLU811  SER814 

> <Gold.Protein.RotatedAtoms>
  152.5243  133.9583  159.7704 H   0  0  0  0  0  0  0  0  0  0  0  0  # atno 6907 bound_to 6896
  150.9879  133.6171  159.2719 H   0  0  0  0  0  0  0  0  0  0  0  0  # atno 6908 bound_to 6896
  151.3324  135.0851  159.9396 H   0  0  0  0  0  0  0  0  0  0  0  0  # atno 6909 bound_to 6896
  145.8629  139.3327  143.0808 H   0  0  0  0  0  0  0  0  0  0  0  0  # atno 7974 bound_to 7965
  154.6007  140.0644  156.9364 H   0  0  0  0  0  0  0  0  0  0  0  0  # atno 8008 bound_to 7997
  155.2137  140.3324  155.4307 H   0  0  0  0  0  0  0  0  0  0  0  0  # atno 8009 bound_to 7997
  156.2316  140.1843  156.7211 H   0  0  0  0  0  0  0  0  0  0  0  0  # atno 8010 bound_to 7997
  139.4969  144.6039  151.6421 H   0  0  0  0  0  0  0  0  0  0  0  0  # atno 10167 bound_to 10162
  157.6947  131.0284  150.3234 H   0  0  0  0  0  0  0  0  0  0  0  0  # atno 10718 bound_to 10713
  152.9918  135.6172  154.2730 H   0  0  0  0  0  0  0  0  0  0  0  0  # atno 10763 bound_to 10752
  154.2462  135.2787  155.2836 H   0  0  0  0  0  0  0  0  0  0  0  0  # atno 10764 bound_to 10752
  154.5327  135.5783  153.6830 H   0  0  0  0  0  0  0  0  0  0  0  0  # atno 10765 bound_to 10752
  139.8844  134.9430  156.5972 H   0  0  0  0  0  0  0  0  0  0  0  0  # atno 11005 bound_to 11000
  145.9227  140.9104  143.0397 LP  0  0  0  0  0  0  0  0  0  0  0  0  # atno 17320 bound_to 7965
  144.6726  140.1310  143.7443 LP  0  0  0  0  0  0  0  0  0  0  0  0  # atno 17321 bound_to 7965
  140.5696  144.0132  150.6210 LP  0  0  0  0  0  0  0  0  0  0  0  0  # atno 17342 bound_to 10162
  140.3245  143.3116  152.0750 LP  0  0  0  0  0  0  0  0  0  0  0  0  # atno 17343 bound_to 10162
  156.3718  130.3865  149.7169 LP  0  0  0  0  0  0  0  0  0  0  0  0  # atno 17370 bound_to 10713
  156.4581  130.7939  151.2959 LP  0  0  0  0  0  0  0  0  0  0  0  0  # atno 17371 bound_to 10713
  140.7911  133.8581  155.8647 LP  0  0  0  0  0  0  0  0  0  0  0  0  # atno 17394 bound_to 11000
  140.9676  134.1573  157.4603 LP  0  0  0  0  0  0  0  0  0  0  0  0  # atno 17395 bound_to 11000

$$$$
