AV-unprocessed.smi:2846|AV-procd|sdf|10951|dock5
  -GOLD-   2272015403D 1   1.00000     0.00000
 Structure written by MMmdl.
 48 50  0  0  0  0  0  0  0  0  1 V2000
  149.8628  140.1185  156.5960 O   0  0  0  0  0  0  0  0  0  0  0  0
  149.8425  141.3491  156.6372 C   0  0  0  0  0  0  0  0  0  0  0  0
  151.1367  142.1579  156.5206 C   0  0  0  0  0  0  0  0  0  0  0  0
  151.6474  142.8016  157.7994 C   0  0  0  0  0  0  0  0  0  0  0  0
  151.8966  144.1228  157.8862 C   0  0  0  0  0  0  0  0  0  0  0  0
  152.3937  144.8148  159.1430 C   0  0  0  0  0  0  0  0  0  0  0  0
  152.2480  143.9309  160.3933 C   0  0  0  0  0  0  0  0  0  0  0  0
  152.6938  142.4909  160.1087 C   0  0  0  0  0  0  0  0  0  0  0  0
  151.8655  141.8578  158.9758 C   0  0  0  0  0  0  0  0  0  0  0  0
  148.7161  142.0639  156.7770 N   0  0  0  0  0  0  0  0  0  0  0  0
  147.3671  141.5125  156.8894 C   0  0  0  0  0  0  0  0  0  0  0  0
  146.4591  141.8616  155.6770 C   0  0  0  0  0  0  0  0  0  0  0  0
  145.5307  143.0306  156.0408 C   0  0  0  0  0  0  0  0  0  0  0  0
  144.7657  143.6764  155.0425 C   0  0  0  0  0  0  0  0  0  0  0  0
  143.9080  144.7305  155.4139 C   0  0  0  0  0  0  0  0  0  0  0  0
  143.7675  145.1597  156.6852 N   0  0  0  0  0  0  0  0  0  0  0  0
  144.4883  144.5370  157.6407 C   0  0  0  0  0  0  0  0  0  0  0  0
  145.3735  143.4735  157.3755 C   0  0  0  0  0  0  0  0  0  0  0  0
  147.2867  142.1235  154.3980 C   0  0  0  0  0  0  0  0  0  0  0  0
  147.6757  140.7484  153.8485 C   0  0  0  0  0  0  0  0  0  0  0  0
  146.5975  139.7820  154.3502 C   0  0  0  0  0  0  0  0  0  0  0  0
  145.6650  140.6117  155.2425 C   0  0  0  0  0  0  0  0  0  0  0  0
  151.9074  141.4819  156.1469 H   0  0  0  0  0  0  0  0  0  0  0  0
  151.0170  142.9287  155.7582 H   0  0  0  0  0  0  0  0  0  0  0  0
  151.7532  144.7532  157.0208 H   0  0  0  0  0  0  0  0  0  0  0  0
  153.4397  145.0811  158.9889 H   0  0  0  0  0  0  0  0  0  0  0  0
  151.8453  145.7469  159.2815 H   0  0  0  0  0  0  0  0  0  0  0  0
  152.8244  144.3523  161.2172 H   0  0  0  0  0  0  0  0  0  0  0  0
  151.2063  143.9250  160.7163 H   0  0  0  0  0  0  0  0  0  0  0  0
  153.7483  142.4930  159.8292 H   0  0  0  0  0  0  0  0  0  0  0  0
  152.6152  141.8836  161.0107 H   0  0  0  0  0  0  0  0  0  0  0  0
  150.8871  141.5571  159.3518 H   0  0  0  0  0  0  0  0  0  0  0  0
  152.3621  140.9512  158.6282 H   0  0  0  0  0  0  0  0  0  0  0  0
  148.7960  143.0705  156.7965 H   0  0  0  0  0  0  0  0  0  0  0  0
  147.4019  140.4358  157.0616 H   0  0  0  0  0  0  0  0  0  0  0  0
  146.9337  141.9360  157.7960 H   0  0  0  0  0  0  0  0  0  0  0  0
  144.8248  143.3729  154.0079 H   0  0  0  0  0  0  0  0  0  0  0  0
  143.3150  145.2396  154.6684 H   0  0  0  0  0  0  0  0  0  0  0  0
  144.3518  144.8934  158.6508 H   0  0  0  0  0  0  0  0  0  0  0  0
  145.9083  143.0124  158.1919 H   0  0  0  0  0  0  0  0  0  0  0  0
  146.6560  142.6069  153.6498 H   0  0  0  0  0  0  0  0  0  0  0  0
  148.1479  142.7735  154.5509 H   0  0  0  0  0  0  0  0  0  0  0  0
  147.7487  140.7555  152.7606 H   0  0  0  0  0  0  0  0  0  0  0  0
  148.6500  140.4516  154.2393 H   0  0  0  0  0  0  0  0  0  0  0  0
  146.0492  139.3228  153.5271 H   0  0  0  0  0  0  0  0  0  0  0  0
  147.0581  138.9771  154.9242 H   0  0  0  0  0  0  0  0  0  0  0  0
  145.2695  140.0370  156.0805 H   0  0  0  0  0  0  0  0  0  0  0  0
  144.8104  140.9193  154.6373 H   0  0  0  0  0  0  0  0  0  0  0  0
  1  2  2  0  0  0  0
  2  3  1  0  0  0  0
  2 10  1  0  0  0  0
  3  4  1  0  0  0  0
  3 23  1  0  0  0  0
  3 24  1  0  0  0  0
  4  9  1  0  0  0  0
  4  5  2  0  0  0  0
  5  6  1  0  0  0  0
  5 25  1  0  0  0  0
  6  7  1  0  0  0  0
  6 26  1  0  0  0  0
  6 27  1  0  0  0  0
  7  8  1  0  0  0  0
  7 28  1  0  0  0  0
  7 29  1  0  0  0  0
  8  9  1  0  0  0  0
  8 30  1  0  0  0  0
  8 31  1  0  0  0  0
  9 32  1  0  0  0  0
  9 33  1  0  0  0  0
 10 11  1  0  0  0  0
 10 34  1  0  0  0  0
 11 12  1  0  0  0  0
 11 35  1  0  0  0  0
 11 36  1  0  0  0  0
 12 22  1  0  0  0  0
 12 13  1  0  0  0  0
 12 19  1  0  0  0  0
 13 18  1  0  0  0  0
 13 14  2  0  0  0  0
 14 15  1  0  0  0  0
 14 37  1  0  0  0  0
 15 16  2  0  0  0  0
 15 38  1  0  0  0  0
 16 17  1  0  0  0  0
 17 18  2  0  0  0  0
 17 39  1  0  0  0  0
 18 40  1  0  0  0  0
 19 20  1  0  0  0  0
 19 41  1  0  0  0  0
 19 42  1  0  0  0  0
 20 21  1  0  0  0  0
 20 43  1  0  0  0  0
 20 44  1  0  0  0  0
 21 22  1  0  0  0  0
 21 45  1  0  0  0  0
 21 46  1  0  0  0  0
 22 47  1  0  0  0  0
 22 48  1  0  0  0  0
M  END
> <s_m_source_file>
AV-unprocessed.smi

> <i_m_source_file_index>
2846

> <i_lp_mmshare_version>
43012

> <i_f3d_flags>
0

> <s_epik_input>
W0NIMl0xW0NIMl1bQ0gyXVtDSDJdW0NIXT1DMVtDSDJdQyg9TylbTkhdW0NIMl1DMihbQ0gyXVtDSDJdW0NIMl1bQ0gyXTIpYzNbY0hdW2NIXW5bY0hdW2NIXTM=

> <s_epik_cmdline>
J2VwaWtfcHl0aG9uJywgJy1waCcsICc3LjAnLCAnLXRuJywgJzgnLCAnLW1hJywgJzIwMCcsICctbWV0YWxfYmluZGluZycsICctaW1hZScsICc8aW5maWxlLm1hZT4nLCAnLW9tYWUnLCAnPG91dGZpbGUubWFlPic=

> <r_epik_Ionization_Penalty>
0.0617419

> <r_epik_Ionization_Penalty_Charging>
0

> <r_epik_Ionization_Penalty_Neutral>
0.0617419

> <r_epik_State_Penalty>
0.0536117

> <r_epik_Charging_Adjusted_Penalty>
0.0536117

> <i_epik_Tot_Q>
0

> <i_epik_Tot_abs_Q>
0

> <r_epik_Metal_State_Penalty>
0.0485218

> <b_epik_Metal_Only>
0

> <s_lp_Force_Field>
OPLS_2005

> <r_lp_Energy>
29.944

> <b_lp_Chiralities_Consistent>
1

> <s_lp_Variant>
AV-unprocessed.smi:2846-1

> <Gold.Version>
5.8.1

> <Gold.Id.Protein>
6NUR|6NUR_protein|mol2

> <Gold.PLP.Fitness>
46.1963

> <Gold.PLP.PLP>
-45.9562

> <Gold.PLP.part.hbond>
-1.0000

> <Gold.PLP.part.metal>
0.0000

> <Gold.PLP.part.buried>
-6.6176

> <Gold.PLP.part.nonpolar>
-38.8557

> <Gold.PLP.part.repulsive>
0.0721

> <Gold.PLP.ligand.clash>
0.0000

> <Gold.PLP.ligand.torsion>
1.4553

> <Gold.PLP.Chemscore.Hbond>
1.0000

> <Gold.PLP.Chemscore.CHOScore>
0.0000

> <Gold.PLP.Chemscore.Metal>
0.0000

> <Gold.Chemscore.Hbonds>
donor molecule, donor type, donor heavy atom, donor atom, acceptor molecule, acceptor atom, score
      L1  H    10    34       P1  8028  0.90

> <Gold.PLP.Chemscore.Internal.Correction>
0.1506

> <Gold.Rescore>
     Score         DG    S(hbond)    S(metal)    S(lipo)     H(rot)  DE(clash)    DE(int)     intcor
     18.72     -19.90       0.92        0.00     127.11       1.38       0.06       1.12       ----

> <Gold.Chemscore.Fitness>
18.7220

> <Gold.Chemscore.DG>
-19.9050

> <Gold.Chemscore.ZeroCoef>
-5.4800

> <Gold.Chemscore.Hbond>
0.9232

> <Gold.Chemscore.Metal>
0.0000

> <Gold.Chemscore.Lipo>
127.1070

> <Gold.Chemscore.Internal_Hbond>
0.0000

> <Gold.Chemscore.DEClash>
0.0604

> <Gold.Chemscore.DEInternal>
1.1226

> <Gold.Chemscore.Rot>
1.3789

> <Gold.Chemscore.Internal.Correction>
   9.000000E+99

> <Gold.Chemscore.Hbonds>
donor molecule, donor type, donor heavy atom, donor atom, acceptor molecule, acceptor atom, score
      L1  H    10    34       P1  8028  0.73

> <Gold.Chemscore.Hbond.Weighted>
-3.0834

> <Gold.Chemscore.Metal.Weighted>
-0.0000

> <Gold.Chemscore.Lipo.Weighted>
-14.8715

> <Gold.Chemscore.Internal_Hbond.Weighted>
0.0000

> <Gold.Chemscore.DEClash.Weighted>
0.0604

> <Gold.Chemscore.DEInternal.Weighted>
1.1226

> <Gold.Chemscore.Rot.Weighted>
3.5299

> <Gold.Chemscore.Internal.Correction.Weighted>
   9.000000E+99

> <Gold.Protein.RotatedTorsions>
[ 6907 6896 6895 6894 ] final  165.91 input  -60.11 | X-H torsion
[ 7974 7965 7964 7962 ] final  -36.70 input  175.53 | X-H torsion
[ 8008 7997 7996 7995 ] final   57.17 input   59.86 | X-H torsion
[ 10167 10162 10161 10158 ] final   78.36 input  -65.29 | X-H torsion
[ 10718 10713 10712 10709 ] final  105.62 input   66.30 | X-H torsion
[ 10763 10752 10751 10750 ] final -139.48 input  -60.55 | X-H torsion
[ 11005 11000 10999 10996 ] final   74.48 input  -57.11 | X-H torsion

> <Gold.Protein.ActiveResidues>
 VAL166  LYS551  ARG553  GLY616  TRP617  ASP618  TYR619  PRO620  LYS621  CYS622 
 ASP623  PHE694  ASN695  SER759  ASP760  ASP761  ALA762  ILE779  LEU786  VAL792 
 PHE793  MET794  SER795  GLU796  ALA797  LYS798  CYS799  TRP800  GLU811  SER814 

> <Gold.Protein.RotatedAtoms>
  151.8871  133.3508  159.3785 H   0  0  0  0  0  0  0  0  0  0  0  0  # atno 6907 bound_to 6896
  150.7112  134.4961  159.5548 H   0  0  0  0  0  0  0  0  0  0  0  0  # atno 6908 bound_to 6896
  152.2524  134.8119  160.0495 H   0  0  0  0  0  0  0  0  0  0  0  0  # atno 6909 bound_to 6896
  146.0639  140.6309  142.8984 H   0  0  0  0  0  0  0  0  0  0  0  0  # atno 7974 bound_to 7965
  155.5293  140.3481  155.4423 H   0  0  0  0  0  0  0  0  0  0  0  0  # atno 8008 bound_to 7997
  156.0729  140.1367  156.9833 H   0  0  0  0  0  0  0  0  0  0  0  0  # atno 8009 bound_to 7997
  154.4538  140.0962  156.6671 H   0  0  0  0  0  0  0  0  0  0  0  0  # atno 8010 bound_to 7997
  139.9718  144.5889  150.7979 H   0  0  0  0  0  0  0  0  0  0  0  0  # atno 10167 bound_to 10162
  157.6699  131.0832  150.5884 H   0  0  0  0  0  0  0  0  0  0  0  0  # atno 10718 bound_to 10713
  154.8608  135.3581  154.5553 H   0  0  0  0  0  0  0  0  0  0  0  0  # atno 10763 bound_to 10752
  153.6170  135.7007  153.5330 H   0  0  0  0  0  0  0  0  0  0  0  0  # atno 10764 bound_to 10752
  153.3161  135.4164  155.1337 H   0  0  0  0  0  0  0  0  0  0  0  0  # atno 10765 bound_to 10752
  139.9389  134.7436  156.1153 H   0  0  0  0  0  0  0  0  0  0  0  0  # atno 11005 bound_to 11000
  144.7191  140.4312  143.7022 LP  0  0  0  0  0  0  0  0  0  0  0  0  # atno 17320 bound_to 7965
  145.6511  139.1565  143.2861 LP  0  0  0  0  0  0  0  0  0  0  0  0  # atno 17321 bound_to 7965
  140.7519  143.2981  151.3151 LP  0  0  0  0  0  0  0  0  0  0  0  0  # atno 17342 bound_to 10162
  139.6475  144.0423  152.2602 LP  0  0  0  0  0  0  0  0  0  0  0  0  # atno 17343 bound_to 10162
  156.6184  130.4399  149.5831 LP  0  0  0  0  0  0  0  0  0  0  0  0  # atno 17370 bound_to 10713
  156.2375  130.6831  151.1523 LP  0  0  0  0  0  0  0  0  0  0  0  0  # atno 17371 bound_to 10713
  141.1015  133.6675  156.2765 LP  0  0  0  0  0  0  0  0  0  0  0  0  # atno 17394 bound_to 11000
  140.6003  134.5561  157.5516 LP  0  0  0  0  0  0  0  0  0  0  0  0  # atno 17395 bound_to 11000

$$$$
