AV-unprocessed.smi:155|AV-procd|sdf|1276|dock5
  -GOLD-   2262018543D 1   1.00000     0.00000
 Structure written by MMmdl.
 63 66  0  0  0  0  0  0  0  0  2 V2000
  143.8723  132.4871  149.5934 C   0  0  0  0  0  0  0  0  0  0  0  0
  144.9999  133.4246  149.8046 N   0  3  0  0  0  0  0  0  0  0  0  0
  146.2262  132.7097  150.2221 C   0  0  0  0  0  0  0  0  0  0  0  0
  144.6648  134.5458  150.7179 C   0  0  0  0  0  0  0  0  0  0  0  0
  145.8704  135.4772  150.9647 C   0  0  0  0  0  0  0  0  0  0  0  0
  145.5489  136.5573  151.8984 N   0  0  0  0  0  0  0  0  0  0  0  0
  145.4674  136.0948  153.2922 C   0  0  0  0  0  0  0  0  0  0  0  0
  146.8118  136.0647  154.0490 C   0  0  0  0  0  0  0  0  0  0  0  0
  147.1256  137.3995  154.7518 C   0  0  0  0  0  0  0  0  0  0  0  0
  147.3925  138.4937  153.8170 N   0  0  0  0  0  0  0  0  0  0  0  0
  148.0944  139.5640  154.2688 C   0  0  0  0  0  0  0  0  0  0  0  0
  147.6498  140.8215  154.0031 N   0  0  0  0  0  0  0  0  0  0  0  0
  148.3325  141.8850  154.4374 C   0  0  0  0  0  0  0  0  0  0  0  0
  149.4629  141.9193  155.1455 N   0  0  0  0  0  0  0  0  0  0  0  0
  149.9096  140.6611  155.4227 C   0  0  0  0  0  0  0  0  0  0  0  0
  149.2929  139.4403  155.0276 C   0  0  0  0  0  0  0  0  0  0  0  0
  150.0283  138.3622  155.5075 N   0  0  0  0  0  0  0  0  0  0  0  0
  151.0253  138.9139  156.1435 C   0  0  0  0  0  0  0  0  0  0  0  0
  151.0270  140.2899  156.1494 N   0  0  0  0  0  0  0  0  0  0  0  0
  152.0023  141.1507  156.7931 C   0  0  0  0  0  0  0  0  0  0  0  0
  151.5794  141.5791  158.2141 C   0  0  1  0  0  0  0  0  0  0  0  0
  151.3286  140.3930  158.9404 O   0  0  0  0  0  0  0  0  0  0  0  0
  152.6393  142.4186  158.9754 C   0  0  2  0  0  0  0  0  0  0  0  0
  152.2389  142.7982  160.4038 C   0  0  0  0  0  0  0  0  0  0  0  0
  151.3655  144.0259  160.2188 C   0  0  0  0  0  0  0  0  0  0  0  0
  151.8235  144.5993  158.8762 C   0  0  0  0  0  0  0  0  0  0  0  0
  152.8154  143.7024  158.3882 O   0  0  0  0  0  0  0  0  0  0  0  0
  146.4175  138.7576  152.7600 C   0  0  0  0  0  0  0  0  0  0  0  0
  146.4853  137.6647  151.6807 C   0  0  0  0  0  0  0  0  0  0  0  0
  143.5929  131.9958  150.5264 H   0  0  0  0  0  0  0  0  0  0  0  0
  144.1473  131.7149  148.8743 H   0  0  0  0  0  0  0  0  0  0  0  0
  142.9921  132.9957  149.2019 H   0  0  0  0  0  0  0  0  0  0  0  0
  146.0968  132.2514  151.2036 H   0  0  0  0  0  0  0  0  0  0  0  0
  147.0755  133.3920  150.2712 H   0  0  0  0  0  0  0  0  0  0  0  0
  146.4775  131.9245  149.5083 H   0  0  0  0  0  0  0  0  0  0  0  0
  143.8198  135.1001  150.3053 H   0  0  0  0  0  0  0  0  0  0  0  0
  144.3310  134.1418  151.6739 H   0  0  0  0  0  0  0  0  0  0  0  0
  146.7383  134.9117  151.3064 H   0  0  0  0  0  0  0  0  0  0  0  0
  146.1588  135.9343  150.0183 H   0  0  0  0  0  0  0  0  0  0  0  0
  144.7734  136.7429  153.8282 H   0  0  0  0  0  0  0  0  0  0  0  0
  145.0077  135.1090  153.3330 H   0  0  0  0  0  0  0  0  0  0  0  0
  146.7406  135.3011  154.8240 H   0  0  0  0  0  0  0  0  0  0  0  0
  147.6343  135.7509  153.4054 H   0  0  0  0  0  0  0  0  0  0  0  0
  146.3024  137.6806  155.4101 H   0  0  0  0  0  0  0  0  0  0  0  0
  147.9999  137.2525  155.3878 H   0  0  0  0  0  0  0  0  0  0  0  0
  147.9121  142.8462  154.1811 H   0  0  0  0  0  0  0  0  0  0  0  0
  151.7861  138.3290  156.6394 H   0  0  0  0  0  0  0  0  0  0  0  0
  152.9478  140.6077  156.8305 H   0  0  0  0  0  0  0  0  0  0  0  0
  152.1725  142.0259  156.1647 H   0  0  0  0  0  0  0  0  0  0  0  0
  150.6381  142.1266  158.1565 H   0  0  0  0  0  0  0  0  0  0  0  0
  151.3789  139.6611  158.3448 H   0  0  0  0  0  0  0  0  0  0  0  0
  153.5922  141.8880  158.9727 H   0  0  0  0  0  0  0  0  0  0  0  0
  151.7396  141.9995  160.9528 H   0  0  0  0  0  0  0  0  0  0  0  0
  153.1325  143.0732  160.9657 H   0  0  0  0  0  0  0  0  0  0  0  0
  150.3140  143.7415  160.1656 H   0  0  0  0  0  0  0  0  0  0  0  0
  151.4805  144.7364  161.0377 H   0  0  0  0  0  0  0  0  0  0  0  0
  150.9927  144.6498  158.1714 H   0  0  0  0  0  0  0  0  0  0  0  0
  152.2427  145.6005  158.9770 H   0  0  0  0  0  0  0  0  0  0  0  0
  145.4154  138.8426  153.1818 H   0  0  0  0  0  0  0  0  0  0  0  0
  146.6130  139.7214  152.2907 H   0  0  0  0  0  0  0  0  0  0  0  0
  147.5098  137.2996  151.5871 H   0  0  0  0  0  0  0  0  0  0  0  0
  146.2363  138.1108  150.7171 H   0  0  0  0  0  0  0  0  0  0  0  0
  145.2111  133.8385  148.9076 H   0  0  0  0  0  0  0  0  0  0  0  0
  1  2  1  0  0  0  0
  1 30  1  0  0  0  0
  1 31  1  0  0  0  0
  1 32  1  0  0  0  0
  2  3  1  0  0  0  0
  2  4  1  0  0  0  0
  2 63  1  0  0  0  0
  3 33  1  0  0  0  0
  3 34  1  0  0  0  0
  3 35  1  0  0  0  0
  4  5  1  0  0  0  0
  4 36  1  0  0  0  0
  4 37  1  0  0  0  0
  5  6  1  0  0  0  0
  5 38  1  0  0  0  0
  5 39  1  0  0  0  0
  6 29  1  0  0  0  0
  6  7  1  0  0  0  0
  7  8  1  0  0  0  0
  7 40  1  0  0  0  0
  7 41  1  0  0  0  0
  8  9  1  0  0  0  0
  8 42  1  0  0  0  0
  8 43  1  0  0  0  0
  9 10  1  0  0  0  0
  9 44  1  0  0  0  0
  9 45  1  0  0  0  0
 10 11  1  0  0  0  0
 10 28  1  0  0  0  0
 11 16  1  0  0  0  0
 11 12  2  0  0  0  0
 12 13  1  0  0  0  0
 13 14  2  0  0  0  0
 13 46  1  0  0  0  0
 14 15  1  0  0  0  0
 15 19  1  0  0  0  0
 15 16  2  0  0  0  0
 16 17  1  0  0  0  0
 17 18  2  0  0  0  0
 18 19  1  0  0  0  0
 18 47  1  0  0  0  0
 19 20  1  0  0  0  0
 20 21  1  0  0  0  0
 20 48  1  0  0  0  0
 20 49  1  0  0  0  0
 21 22  1  0  0  0  0
 21 23  1  0  0  0  0
 21 50  1  0  0  0  0
 22 51  1  0  0  0  0
 23 27  1  0  0  0  0
 23 24  1  0  0  0  0
 23 52  1  0  0  0  0
 24 25  1  0  0  0  0
 24 53  1  0  0  0  0
 24 54  1  0  0  0  0
 25 26  1  0  0  0  0
 25 55  1  0  0  0  0
 25 56  1  0  0  0  0
 26 27  1  0  0  0  0
 26 57  1  0  0  0  0
 26 58  1  0  0  0  0
 28 29  1  0  0  0  0
 28 59  1  0  0  0  0
 28 60  1  0  0  0  0
 29 61  1  0  0  0  0
 29 62  1  0  0  0  0
M  CHG  1   2   1
M  END
> <s_m_source_file>
AV-unprocessed.smi

> <i_m_source_file_index>
155

> <i_lp_mmshare_version>
43012

> <i_f3d_flags>
0

> <s_epik_input>
W0NIM11OKFtDSDNdKVtDSDJdW0NIMl1OMVtDSDJdW0NIMl1bQ0gyXU4oW0NIMl1bQ0gyXTEpYyhuW2NIXW4yKWMoYzIzKW5bY0hdbjNbQ0gyXVtDQEhdKFtPSF0pW0NAQEhdNFtDSDJdW0NIMl1bQ0gyXU80

> <s_epik_cmdline>
J2VwaWtfcHl0aG9uJywgJy1waCcsICc3LjAnLCAnLXRuJywgJzgnLCAnLW1hJywgJzIwMCcsICctbWV0YWxfYmluZGluZycsICctaW1hZScsICc8aW5maWxlLm1hZT4nLCAnLW9tYWUnLCAnPG91dGZpbGUubWFlPic=

> <r_lp_tautomer_probability>
1

> <r_epik_Ionization_Penalty>
0.0599493

> <r_epik_Ionization_Penalty_Charging>
0.00816363

> <r_epik_Ionization_Penalty_Neutral>
0.0517857

> <r_epik_State_Penalty>
0.460607

> <r_epik_Charging_Adjusted_Penalty>
0.468771

> <i_epik_Tot_Q>
1

> <i_epik_Tot_abs_Q>
1

> <r_epik_Metal_State_Penalty>
0.45965

> <b_epik_Metal_Only>
0

> <s_lp_Force_Field>
OPLS_2005

> <r_lp_Energy>
58.8836

> <b_lp_Chiralities_Consistent>
1

> <s_lp_Variant>
AV-unprocessed.smi:155-10

> <Gold.Version>
5.8.1

> <Gold.Id.Protein>
6NUR|6NUR_protein|mol2

> <Gold.PLP.Fitness>
46.6704

> <Gold.PLP.PLP>
-43.5563

> <Gold.PLP.part.hbond>
-1.0000

> <Gold.PLP.part.metal>
0.0000

> <Gold.PLP.part.buried>
-2.1282

> <Gold.PLP.part.nonpolar>
-42.4938

> <Gold.PLP.part.repulsive>
2.2125

> <Gold.PLP.ligand.clash>
0.0000

> <Gold.PLP.ligand.torsion>
1.0558

> <Gold.PLP.Chemscore.Hbond>
1.0000

> <Gold.PLP.Chemscore.CHOScore>
0.6135

> <Gold.PLP.Chemscore.Metal>
0.0000

> <Gold.Chemscore.Hbonds>
donor molecule, donor type, donor heavy atom, donor atom, acceptor molecule, acceptor atom, score
      L1  H     2    63       P1  7921  1.00
      L1  C    13    46       P1  8028  0.64

> <Gold.PLP.Chemscore.Internal.Correction>
0.3853

> <Gold.Rescore>
     Score         DG    S(hbond)    S(metal)    S(lipo)     H(rot)  DE(clash)    DE(int)     intcor
     12.57     -15.40       0.97        0.00     116.43       2.71       1.80       1.03       ----

> <Gold.Chemscore.Fitness>
12.5680

> <Gold.Chemscore.DG>
-15.3971

> <Gold.Chemscore.ZeroCoef>
-5.4800

> <Gold.Chemscore.Hbond>
0.9663

> <Gold.Chemscore.Metal>
0.0000

> <Gold.Chemscore.Lipo>
116.4303

> <Gold.Chemscore.Internal_Hbond>
0.0000

> <Gold.Chemscore.DEClash>
1.8004

> <Gold.Chemscore.DEInternal>
1.0288

> <Gold.Chemscore.Rot>
2.7080

> <Gold.Chemscore.Internal.Correction>
   9.000000E+99

> <Gold.Chemscore.Hbonds>
donor molecule, donor type, donor heavy atom, donor atom, acceptor molecule, acceptor atom, score
      L1  H     2    63       P1  7921  0.88

> <Gold.Chemscore.Hbond.Weighted>
-3.2274

> <Gold.Chemscore.Metal.Weighted>
-0.0000

> <Gold.Chemscore.Lipo.Weighted>
-13.6224

> <Gold.Chemscore.Internal_Hbond.Weighted>
0.0000

> <Gold.Chemscore.DEClash.Weighted>
1.8004

> <Gold.Chemscore.DEInternal.Weighted>
1.0288

> <Gold.Chemscore.Rot.Weighted>
6.9326

> <Gold.Chemscore.Internal.Correction.Weighted>
   9.000000E+99

> <Gold.Protein.RotatedTorsions>
[ 6907 6896 6895 6894 ] final   24.96 input  -60.11 | X-H torsion
[ 7974 7965 7964 7962 ] final  101.04 input  175.53 | X-H torsion
[ 8008 7997 7996 7995 ] final -164.32 input   59.86 | X-H torsion
[ 10167 10162 10161 10158 ] final   85.91 input  -65.29 | X-H torsion
[ 10718 10713 10712 10709 ] final  140.25 input   66.30 | X-H torsion
[ 10763 10752 10751 10750 ] final  165.66 input  -60.55 | X-H torsion
[ 11005 11000 10999 10996 ] final   55.94 input  -57.11 | X-H torsion

> <Gold.Protein.ActiveResidues>
 VAL166  LYS551  ARG553  GLY616  TRP617  ASP618  TYR619  PRO620  LYS621  CYS622 
 ASP623  PHE694  ASN695  SER759  ASP760  ASP761  ALA762  ILE779  LEU786  VAL792 
 PHE793  MET794  SER795  GLU796  ALA797  LYS798  CYS799  TRP800  GLU811  SER814 

> <Gold.Protein.RotatedAtoms>
  151.9654  135.0103  160.0549 H   0  0  0  0  0  0  0  0  0  0  0  0  # atno 6907 bound_to 6896
  152.1831  133.4716  159.4977 H   0  0  0  0  0  0  0  0  0  0  0  0  # atno 6908 bound_to 6896
  150.6921  134.1725  159.4260 H   0  0  0  0  0  0  0  0  0  0  0  0  # atno 6909 bound_to 6896
  145.3775  139.2386  143.3421 H   0  0  0  0  0  0  0  0  0  0  0  0  # atno 7974 bound_to 7965
  155.8339  140.0938  157.1776 H   0  0  0  0  0  0  0  0  0  0  0  0  # atno 8008 bound_to 7997
  154.3980  140.1414  156.3708 H   0  0  0  0  0  0  0  0  0  0  0  0  # atno 8009 bound_to 7997
  155.8137  140.3449  155.5475 H   0  0  0  0  0  0  0  0  0  0  0  0  # atno 8010 bound_to 7997
  139.8929  144.6375  150.8719 H   0  0  0  0  0  0  0  0  0  0  0  0  # atno 10167 bound_to 10162
  157.4054  131.1021  151.0509 H   0  0  0  0  0  0  0  0  0  0  0  0  # atno 10718 bound_to 10713
  154.3273  135.2755  155.2489 H   0  0  0  0  0  0  0  0  0  0  0  0  # atno 10763 bound_to 10752
  154.4816  135.5857  153.6397 H   0  0  0  0  0  0  0  0  0  0  0  0  # atno 10764 bound_to 10752
  152.9870  135.6113  154.3463 H   0  0  0  0  0  0  0  0  0  0  0  0  # atno 10765 bound_to 10752
  140.0568  134.5659  155.9198 H   0  0  0  0  0  0  0  0  0  0  0  0  # atno 11005 bound_to 11000
  146.2857  140.4437  142.8759 LP  0  0  0  0  0  0  0  0  0  0  0  0  # atno 17320 bound_to 7965
  144.8531  140.7031  143.6155 LP  0  0  0  0  0  0  0  0  0  0  0  0  # atno 17321 bound_to 7965
  140.7723  143.3496  151.2042 LP  0  0  0  0  0  0  0  0  0  0  0  0  # atno 17342 bound_to 10162
  139.7093  143.9403  152.2940 LP  0  0  0  0  0  0  0  0  0  0  0  0  # atno 17343 bound_to 10162
  157.1493  130.6177  149.5577 LP  0  0  0  0  0  0  0  0  0  0  0  0  # atno 17370 bound_to 10713
  155.9835  130.4854  150.6935 LP  0  0  0  0  0  0  0  0  0  0  0  0  # atno 17371 bound_to 10713
  141.1955  133.6587  156.5648 LP  0  0  0  0  0  0  0  0  0  0  0  0  # atno 17394 bound_to 11000
  140.3832  134.7505  157.4674 LP  0  0  0  0  0  0  0  0  0  0  0  0  # atno 17395 bound_to 11000

$$$$
