AV-unprocessed.smi:2521|AV-procd|sdf|9915|dock4
  -GOLD-   2272013553D 1   1.00000     0.00000
 Structure written by MMmdl.
 36 37  0  0  0  0  0  0  0  0  1 V2000
  151.6230  143.6473  157.0952 C   0  0  0  0  0  0  0  0  0  0  0  0
  150.7233  142.4743  157.5105 C   0  0  0  0  0  0  0  0  0  0  0  0
  151.1872  141.7872  158.8029 C   0  0  0  0  0  0  0  0  0  0  0  0
  150.5182  141.4984  156.3939 C   0  0  0  0  0  0  0  0  0  0  0  0
  151.5140  140.7727  155.8672 N   0  0  0  0  0  0  0  0  0  0  0  0
  151.0794  139.9438  154.8429 N   0  0  0  0  0  0  0  0  0  0  0  0
  149.7635  140.0687  154.6235 C   0  0  0  0  0  0  0  0  0  0  0  0
  149.0573  139.3452  153.6264 N   0  0  0  0  0  0  0  0  0  0  0  0
  147.7427  139.3786  153.3464 C   0  0  0  0  0  0  0  0  0  0  0  0
  146.9131  140.0935  153.9090 O   0  0  0  0  0  0  0  0  0  0  0  0
  147.4355  138.5223  152.3610 N   0  0  0  0  0  0  0  0  0  0  0  0
  146.0993  138.3017  151.8156 C   0  0  0  0  0  0  0  0  0  0  0  0
  145.6097  136.8610  152.0569 C   0  0  2  0  0  0  0  0  0  0  0  0
  145.5788  136.0078  150.8054 C   0  0  0  0  0  0  0  0  0  0  0  0
  144.6572  134.8641  151.2200 C   0  0  0  0  0  0  0  0  0  0  0  0
  143.7549  135.4140  152.1756 O   0  0  0  0  0  0  0  0  0  0  0  0
  144.1586  136.7342  152.5250 C   0  0  0  0  0  0  0  0  0  0  0  0
  148.9411  141.2192  155.6626 S   0  0  0  0  0  0  0  0  0  0  0  0
  151.2173  144.1634  156.2245 H   0  0  0  0  0  0  0  0  0  0  0  0
  152.6278  143.3070  156.8430 H   0  0  0  0  0  0  0  0  0  0  0  0
  151.7123  144.3778  157.8997 H   0  0  0  0  0  0  0  0  0  0  0  0
  149.7439  142.9025  157.7273 H   0  0  0  0  0  0  0  0  0  0  0  0
  150.4810  141.0164  159.1128 H   0  0  0  0  0  0  0  0  0  0  0  0
  151.2733  142.5040  159.6197 H   0  0  0  0  0  0  0  0  0  0  0  0
  152.1611  141.3140  158.6731 H   0  0  0  0  0  0  0  0  0  0  0  0
  149.6184  138.7194  153.0678 H   0  0  0  0  0  0  0  0  0  0  0  0
  148.1830  137.9768  151.9577 H   0  0  0  0  0  0  0  0  0  0  0  0
  145.3891  139.0244  152.2212 H   0  0  0  0  0  0  0  0  0  0  0  0
  146.1470  138.4930  150.7433 H   0  0  0  0  0  0  0  0  0  0  0  0
  146.2578  136.3750  152.7883 H   0  0  0  0  0  0  0  0  0  0  0  0
  145.1349  136.5623  149.9771 H   0  0  0  0  0  0  0  0  0  0  0  0
  146.5661  135.6643  150.4953 H   0  0  0  0  0  0  0  0  0  0  0  0
  144.1255  134.4320  150.3721 H   0  0  0  0  0  0  0  0  0  0  0  0
  145.2285  134.0700  151.7019 H   0  0  0  0  0  0  0  0  0  0  0  0
  144.0455  136.9137  153.5945 H   0  0  0  0  0  0  0  0  0  0  0  0
  143.5188  137.4404  151.9939 H   0  0  0  0  0  0  0  0  0  0  0  0
  1  2  1  0  0  0  0
  1 19  1  0  0  0  0
  1 20  1  0  0  0  0
  1 21  1  0  0  0  0
  2  3  1  0  0  0  0
  2  4  1  0  0  0  0
  2 22  1  0  0  0  0
  3 23  1  0  0  0  0
  3 24  1  0  0  0  0
  3 25  1  0  0  0  0
  4 18  1  0  0  0  0
  4  5  2  0  0  0  0
  5  6  1  0  0  0  0
  6  7  2  0  0  0  0
  7  8  1  0  0  0  0
  7 18  1  0  0  0  0
  8  9  1  0  0  0  0
  8 26  1  0  0  0  0
  9 10  2  0  0  0  0
  9 11  1  0  0  0  0
 11 12  1  0  0  0  0
 11 27  1  0  0  0  0
 12 13  1  0  0  0  0
 12 28  1  0  0  0  0
 12 29  1  0  0  0  0
 13 17  1  0  0  0  0
 13 14  1  0  0  0  0
 13 30  1  0  0  0  0
 14 15  1  0  0  0  0
 14 31  1  0  0  0  0
 14 32  1  0  0  0  0
 15 16  1  0  0  0  0
 15 33  1  0  0  0  0
 15 34  1  0  0  0  0
 16 17  1  0  0  0  0
 17 35  1  0  0  0  0
 17 36  1  0  0  0  0
M  END
> <s_m_source_file>
AV-unprocessed.smi

> <i_m_source_file_index>
2521

> <i_lp_mmshare_version>
43012

> <i_f3d_flags>
0

> <s_epik_input>
W0NIM11bQ0hdKFtDSDNdKWMxbm5jKHMxKVtOSF1DKD1PKVtOSF1bQ0gyXVtDQEBIXTJbQ0gyXVtDSDJdT1tDSDJdMg==

> <s_epik_cmdline>
J2VwaWtfcHl0aG9uJywgJy1waCcsICc3LjAnLCAnLXRuJywgJzgnLCAnLW1hJywgJzIwMCcsICctbWV0YWxfYmluZGluZycsICctaW1hZScsICc8aW5maWxlLm1hZT4nLCAnLW9tYWUnLCAnPG91dGZpbGUubWFlPic=

> <r_lp_tautomer_probability>
1

> <r_epik_Ionization_Penalty>
0.000452582

> <r_epik_Ionization_Penalty_Charging>
0

> <r_epik_Ionization_Penalty_Neutral>
0.000452582

> <r_epik_State_Penalty>
-0

> <r_epik_Charging_Adjusted_Penalty>
0

> <i_epik_Tot_Q>
0

> <i_epik_Tot_abs_Q>
0

> <r_epik_Metal_State_Penalty>
0.207746

> <b_epik_Metal_Only>
0

> <s_lp_Force_Field>
OPLS_2005

> <r_lp_Energy>
11.692

> <b_lp_Chiralities_Consistent>
1

> <s_lp_Variant>
AV-unprocessed.smi:2521-1

> <Gold.Version>
5.8.1

> <Gold.Id.Protein>
6NUR|6NUR_protein|mol2

> <Gold.PLP.Fitness>
35.8872

> <Gold.PLP.PLP>
-31.5519

> <Gold.PLP.part.hbond>
-4.8262

> <Gold.PLP.part.metal>
0.0000

> <Gold.PLP.part.buried>
-0.8999

> <Gold.PLP.part.nonpolar>
-27.2316

> <Gold.PLP.part.repulsive>
0.5404

> <Gold.PLP.ligand.clash>
0.0000

> <Gold.PLP.ligand.torsion>
0.6932

> <Gold.PLP.Chemscore.Hbond>
1.8800

> <Gold.PLP.Chemscore.CHOScore>
0.0000

> <Gold.PLP.Chemscore.Metal>
0.0000

> <Gold.Chemscore.Hbonds>
donor molecule, donor type, donor heavy atom, donor atom, acceptor molecule, acceptor atom, score
      L1  H    11    27       P1  7948  0.93
      P1  H  7989  7998       L1     6  0.86

> <Gold.PLP.Chemscore.Internal.Correction>
0.0818

> <Gold.Rescore>
     Score         DG    S(hbond)    S(metal)    S(lipo)     H(rot)  DE(clash)    DE(int)     intcor
     11.07     -13.74       1.09        0.00      71.18       1.45       0.75       1.93       ----

> <Gold.Chemscore.Fitness>
11.0676

> <Gold.Chemscore.DG>
-13.7442

> <Gold.Chemscore.ZeroCoef>
-5.4800

> <Gold.Chemscore.Hbond>
1.0891

> <Gold.Chemscore.Metal>
0.0000

> <Gold.Chemscore.Lipo>
71.1848

> <Gold.Chemscore.Internal_Hbond>
0.0000

> <Gold.Chemscore.DEClash>
0.7512

> <Gold.Chemscore.DEInternal>
1.9255

> <Gold.Chemscore.Rot>
1.4461

> <Gold.Chemscore.Internal.Correction>
   9.000000E+99

> <Gold.Chemscore.Hbonds>
donor molecule, donor type, donor heavy atom, donor atom, acceptor molecule, acceptor atom, score
      L1  H     8    26       P1  7957  0.01
      L1  H    11    27       P1  7948  0.90
      P1  H  7989  7998       L1     6  0.04

> <Gold.Chemscore.Hbond.Weighted>
-3.6375

> <Gold.Chemscore.Metal.Weighted>
-0.0000

> <Gold.Chemscore.Lipo.Weighted>
-8.3286

> <Gold.Chemscore.Internal_Hbond.Weighted>
0.0000

> <Gold.Chemscore.DEClash.Weighted>
0.7512

> <Gold.Chemscore.DEInternal.Weighted>
1.9255

> <Gold.Chemscore.Rot.Weighted>
3.7019

> <Gold.Chemscore.Internal.Correction.Weighted>
   9.000000E+99

> <Gold.Protein.RotatedTorsions>
[ 6907 6896 6895 6894 ] final  -90.89 input  -60.11 | X-H torsion
[ 7974 7965 7964 7962 ] final   62.20 input  175.53 | X-H torsion
[ 8008 7997 7996 7995 ] final -165.87 input   59.86 | X-H torsion
[ 10167 10162 10161 10158 ] final  149.35 input  -65.29 | X-H torsion
[ 10718 10713 10712 10709 ] final -105.53 input   66.30 | X-H torsion
[ 10763 10752 10751 10750 ] final  165.55 input  -60.55 | X-H torsion
[ 11005 11000 10999 10996 ] final -101.93 input  -57.11 | X-H torsion

> <Gold.Protein.ActiveResidues>
 VAL166  LYS551  ARG553  GLY616  TRP617  ASP618  TYR619  PRO620  LYS621  CYS622 
 ASP623  PHE694  ASN695  SER759  ASP760  ASP761  ALA762  ILE779  LEU786  VAL792 
 PHE793  MET794  SER795  GLU796  ALA797  LYS798  CYS799  TRP800  GLU811  SER814 

> <Gold.Protein.RotatedAtoms>
  150.6886  134.2363  159.4454 H   0  0  0  0  0  0  0  0  0  0  0  0  # atno 6907 bound_to 6896
  152.0310  134.9765  160.0582 H   0  0  0  0  0  0  0  0  0  0  0  0  # atno 6908 bound_to 6896
  152.1305  133.4370  159.4755 H   0  0  0  0  0  0  0  0  0  0  0  0  # atno 6909 bound_to 6896
  145.8761  139.3411  143.0734 H   0  0  0  0  0  0  0  0  0  0  0  0  # atno 7974 bound_to 7965
  155.8558  140.0970  157.1645 H   0  0  0  0  0  0  0  0  0  0  0  0  # atno 8008 bound_to 7997
  154.3988  140.1374  156.3963 H   0  0  0  0  0  0  0  0  0  0  0  0  # atno 8009 bound_to 7997
  155.7911  140.3455  155.5352 H   0  0  0  0  0  0  0  0  0  0  0  0  # atno 8010 bound_to 7997
  139.4862  144.5608  151.7234 H   0  0  0  0  0  0  0  0  0  0  0  0  # atno 10167 bound_to 10162
  156.0350  130.5568  150.7553 H   0  0  0  0  0  0  0  0  0  0  0  0  # atno 10718 bound_to 10713
  154.3257  135.2755  155.2497 H   0  0  0  0  0  0  0  0  0  0  0  0  # atno 10763 bound_to 10752
  154.4831  135.5853  153.6407 H   0  0  0  0  0  0  0  0  0  0  0  0  # atno 10764 bound_to 10752
  152.9872  135.6116  154.3445 H   0  0  0  0  0  0  0  0  0  0  0  0  # atno 10765 bound_to 10752
  141.1210  133.8517  157.1294 H   0  0  0  0  0  0  0  0  0  0  0  0  # atno 11005 bound_to 11000
  145.9079  140.9199  143.0469 LP  0  0  0  0  0  0  0  0  0  0  0  0  # atno 17320 bound_to 7965
  144.6726  140.1120  143.7455 LP  0  0  0  0  0  0  0  0  0  0  0  0  # atno 17321 bound_to 7965
  140.5178  144.0926  150.6013 LP  0  0  0  0  0  0  0  0  0  0  0  0  # atno 17342 bound_to 10162
  140.3874  143.2770  152.0100 LP  0  0  0  0  0  0  0  0  0  0  0  0  # atno 17343 bound_to 10162
  157.5086  131.0924  151.0226 LP  0  0  0  0  0  0  0  0  0  0  0  0  # atno 17370 bound_to 10713
  157.0587  130.5817  149.5382 LP  0  0  0  0  0  0  0  0  0  0  0  0  # atno 17371 bound_to 10713
  140.0168  134.9963  157.0511 LP  0  0  0  0  0  0  0  0  0  0  0  0  # atno 17394 bound_to 11000
  140.4506  134.1587  155.7181 LP  0  0  0  0  0  0  0  0  0  0  0  0  # atno 17395 bound_to 11000

$$$$
