AV-unprocessed.smi:2774|AV-procd|sdf|10684|dock4
  -GOLD-   2272015133D 1   1.00000     0.00000
 Structure written by MMmdl.
 34 35  0  0  0  0  0  0  0  0  1 V2000
  149.4786  142.1734  154.7096 O   0  0  0  0  0  0  0  0  0  0  0  0
  149.7008  141.2454  155.7536 C   0  0  2  0  0  0  0  0  0  0  0  0
  150.1266  142.0023  157.0270 C   0  0  0  0  0  0  0  0  0  0  0  0
  151.0214  143.1241  156.7303 N   0  0  0  0  0  0  0  0  0  0  0  0
  151.7181  143.7086  157.8796 C   0  0  2  0  0  0  0  0  0  0  0  0
  152.3008  142.6212  158.8134 C   0  0  0  0  0  0  0  0  0  0  0  0
  153.0731  143.2083  160.0066 C   0  0  0  0  0  0  0  0  0  0  0  0
  152.1945  144.0893  160.9032 C   0  0  0  0  0  0  0  0  0  0  0  0
  151.5607  145.5177  159.9872 S   0  0  0  0  0  0  0  0  0  0  0  0
  150.7398  144.6230  158.6404 C   0  0  0  0  0  0  0  0  0  0  0  0
  150.6417  140.1074  155.3758 C   0  0  0  0  0  0  0  0  0  0  0  0
  151.8727  139.9113  156.0409 C   0  0  0  0  0  0  0  0  0  0  0  0
  152.6910  138.8358  155.6424 C   0  0  0  0  0  0  0  0  0  0  0  0
  152.3612  137.9796  154.6519 N   0  0  0  0  0  0  0  0  0  0  0  0
  151.1835  138.1705  154.0202 C   0  0  0  0  0  0  0  0  0  0  0  0
  150.2918  139.2130  154.3424 C   0  0  0  0  0  0  0  0  0  0  0  0
  149.3753  143.0317  155.0915 H   0  0  0  0  0  0  0  0  0  0  0  0
  148.7255  140.7987  155.9505 H   0  0  0  0  0  0  0  0  0  0  0  0
  149.2327  142.3396  157.5502 H   0  0  0  0  0  0  0  0  0  0  0  0
  150.6342  141.3078  157.6974 H   0  0  0  0  0  0  0  0  0  0  0  0
  150.5024  143.8459  156.2401 H   0  0  0  0  0  0  0  0  0  0  0  0
  152.5385  144.3268  157.5125 H   0  0  0  0  0  0  0  0  0  0  0  0
  151.4997  141.9768  159.1783 H   0  0  0  0  0  0  0  0  0  0  0  0
  152.9863  141.9746  158.2673 H   0  0  0  0  0  0  0  0  0  0  0  0
  153.4869  142.3933  160.6010 H   0  0  0  0  0  0  0  0  0  0  0  0
  153.9256  143.7852  159.6458 H   0  0  0  0  0  0  0  0  0  0  0  0
  151.3550  143.5154  161.2972 H   0  0  0  0  0  0  0  0  0  0  0  0
  152.7673  144.4486  161.7585 H   0  0  0  0  0  0  0  0  0  0  0  0
  150.3051  145.3595  157.9636 H   0  0  0  0  0  0  0  0  0  0  0  0
  149.9127  144.0441  159.0538 H   0  0  0  0  0  0  0  0  0  0  0  0
  152.1845  140.5619  156.8446 H   0  0  0  0  0  0  0  0  0  0  0  0
  153.6363  138.6588  156.1337 H   0  0  0  0  0  0  0  0  0  0  0  0
  150.9438  137.4710  153.2331 H   0  0  0  0  0  0  0  0  0  0  0  0
  149.3601  139.3200  153.8066 H   0  0  0  0  0  0  0  0  0  0  0  0
  1  2  1  0  0  0  0
  1 17  1  0  0  0  0
  2  3  1  0  0  0  0
  2 11  1  0  0  0  0
  2 18  1  0  0  0  0
  3  4  1  0  0  0  0
  3 19  1  0  0  0  0
  3 20  1  0  0  0  0
  4  5  1  0  0  0  0
  4 21  1  0  0  0  0
  5 10  1  0  0  0  0
  5  6  1  0  0  0  0
  5 22  1  0  0  0  0
  6  7  1  0  0  0  0
  6 23  1  0  0  0  0
  6 24  1  0  0  0  0
  7  8  1  0  0  0  0
  7 25  1  0  0  0  0
  7 26  1  0  0  0  0
  8  9  1  0  0  0  0
  8 27  1  0  0  0  0
  8 28  1  0  0  0  0
  9 10  1  0  0  0  0
 10 29  1  0  0  0  0
 10 30  1  0  0  0  0
 11 16  1  0  0  0  0
 11 12  2  0  0  0  0
 12 13  1  0  0  0  0
 12 31  1  0  0  0  0
 13 14  2  0  0  0  0
 13 32  1  0  0  0  0
 14 15  1  0  0  0  0
 15 16  2  0  0  0  0
 15 33  1  0  0  0  0
 16 34  1  0  0  0  0
M  END
> <s_m_source_file>
AV-unprocessed.smi

> <i_m_source_file_index>
2774

> <i_lp_mmshare_version>
43012

> <i_f3d_flags>
0

> <s_epik_input>
W2NIXTFbY0hdbltjSF1bY0hdYzFbQ0BIXShbT0hdKVtDSDJdW05IXVtDQEBIXTJbQ0gyXVtDSDJdW0NIMl1TW0NIMl0y

> <s_epik_cmdline>
J2VwaWtfcHl0aG9uJywgJy1waCcsICc3LjAnLCAnLXRuJywgJzgnLCAnLW1hJywgJzIwMCcsICctbWV0YWxfYmluZGluZycsICctaW1hZScsICc8aW5maWxlLm1hZT4nLCAnLW9tYWUnLCAnPG91dGZpbGUubWFlPic=

> <r_epik_Ionization_Penalty>
2.08116

> <r_epik_Ionization_Penalty_Charging>
0

> <r_epik_Ionization_Penalty_Neutral>
2.08116

> <r_epik_State_Penalty>
2.1944

> <r_epik_Charging_Adjusted_Penalty>
2.1944

> <i_epik_Tot_Q>
0

> <i_epik_Tot_abs_Q>
0

> <r_epik_Metal_State_Penalty>
2.1769

> <b_epik_Metal_Only>
0

> <s_lp_Force_Field>
OPLS_2005

> <r_lp_Energy>
17.4742

> <b_lp_Chiralities_Consistent>
1

> <s_lp_Variant>
AV-unprocessed.smi:2774-5

> <Gold.Version>
5.8.1

> <Gold.Id.Protein>
6NUR|6NUR_protein|mol2

> <Gold.PLP.Fitness>
52.3959

> <Gold.PLP.PLP>
-43.5913

> <Gold.PLP.part.hbond>
-4.2468

> <Gold.PLP.part.metal>
0.0000

> <Gold.PLP.part.buried>
-3.0531

> <Gold.PLP.part.nonpolar>
-36.2741

> <Gold.PLP.part.repulsive>
0.0696

> <Gold.PLP.ligand.clash>
0.0000

> <Gold.PLP.ligand.torsion>
0.5420

> <Gold.PLP.Chemscore.Hbond>
2.1625

> <Gold.PLP.Chemscore.CHOScore>
1.1116

> <Gold.PLP.Chemscore.Metal>
0.0000

> <Gold.Chemscore.Hbonds>
donor molecule, donor type, donor heavy atom, donor atom, acceptor molecule, acceptor atom, score
      L1  H     1    17       P1  8028  1.00
      L1  H     4    21       P1  8028  1.00
      P1  H  8011  8017       L1     1  0.02
      P1  H 10752 10765       L1    14  0.05
      L1  C    15    33       P1  7948  0.12
      L1  C    15    33       P1  7949  0.99

> <Gold.PLP.Chemscore.Internal.Correction>
0.0663

> <Gold.Rescore>
     Score         DG    S(hbond)    S(metal)    S(lipo)     H(rot)  DE(clash)    DE(int)     intcor
     22.00     -22.53       2.37        0.00     119.56       1.89       0.09       0.44       ----

> <Gold.Chemscore.Fitness>
22.0017

> <Gold.Chemscore.DG>
-22.5327

> <Gold.Chemscore.ZeroCoef>
-5.4800

> <Gold.Chemscore.Hbond>
2.3682

> <Gold.Chemscore.Metal>
0.0000

> <Gold.Chemscore.Lipo>
119.5591

> <Gold.Chemscore.Internal_Hbond>
0.0000

> <Gold.Chemscore.DEClash>
0.0937

> <Gold.Chemscore.DEInternal>
0.4372

> <Gold.Chemscore.Rot>
1.8928

> <Gold.Chemscore.Internal.Correction>
   9.000000E+99

> <Gold.Chemscore.Hbonds>
donor molecule, donor type, donor heavy atom, donor atom, acceptor molecule, acceptor atom, score
      L1  H     1    17       P1  8028  1.00
      L1  H     4    21       P1  8028  0.98
      P1  H  8011  8017       L1     1  0.02
      P1  H 10752 10765       L1    14  0.04

> <Gold.Chemscore.Hbond.Weighted>
-7.9098

> <Gold.Chemscore.Metal.Weighted>
-0.0000

> <Gold.Chemscore.Lipo.Weighted>
-13.9884

> <Gold.Chemscore.Internal_Hbond.Weighted>
0.0000

> <Gold.Chemscore.DEClash.Weighted>
0.0937

> <Gold.Chemscore.DEInternal.Weighted>
0.4372

> <Gold.Chemscore.Rot.Weighted>
4.8455

> <Gold.Chemscore.Internal.Correction.Weighted>
   9.000000E+99

> <Gold.Protein.RotatedTorsions>
[ 6907 6896 6895 6894 ] final  170.64 input  -60.11 | X-H torsion
[ 7974 7965 7964 7962 ] final  140.08 input  175.53 | X-H torsion
[ 8008 7997 7996 7995 ] final  157.30 input   59.86 | X-H torsion
[ 10167 10162 10161 10158 ] final -164.62 input  -65.29 | X-H torsion
[ 10718 10713 10712 10709 ] final -133.81 input   66.30 | X-H torsion
[ 10763 10752 10751 10750 ] final  165.69 input  -60.55 | X-H torsion
[ 11005 11000 10999 10996 ] final -173.78 input  -57.11 | X-H torsion

> <Gold.Protein.ActiveResidues>
 VAL166  LYS551  ARG553  GLY616  TRP617  ASP618  TYR619  PRO620  LYS621  CYS622 
 ASP623  PHE694  ASN695  SER759  ASP760  ASP761  ALA762  ILE779  LEU786  VAL792 
 PHE793  MET794  SER795  GLU796  ALA797  LYS798  CYS799  TRP800  GLU811  SER814 

> <Gold.Protein.RotatedAtoms>
  151.8129  133.3384  159.3560 H   0  0  0  0  0  0  0  0  0  0  0  0  # atno 6907 bound_to 6896
  150.7320  134.5647  159.5869 H   0  0  0  0  0  0  0  0  0  0  0  0  # atno 6908 bound_to 6896
  152.3062  134.7554  160.0398 H   0  0  0  0  0  0  0  0  0  0  0  0  # atno 6909 bound_to 6896
  144.9220  139.5156  143.5659 H   0  0  0  0  0  0  0  0  0  0  0  0  # atno 7974 bound_to 7965
  156.2372  140.1889  156.7087 H   0  0  0  0  0  0  0  0  0  0  0  0  # atno 8008 bound_to 7997
  154.6128  140.0619  156.9543 H   0  0  0  0  0  0  0  0  0  0  0  0  # atno 8009 bound_to 7997
  155.1988  140.3290  155.4349 H   0  0  0  0  0  0  0  0  0  0  0  0  # atno 8010 bound_to 7997
  139.6238  144.0572  152.1957 H   0  0  0  0  0  0  0  0  0  0  0  0  # atno 10167 bound_to 10162
  156.2489  130.7141  151.1032 H   0  0  0  0  0  0  0  0  0  0  0  0  # atno 10718 bound_to 10713
  154.3278  135.2755  155.2487 H   0  0  0  0  0  0  0  0  0  0  0  0  # atno 10763 bound_to 10752
  154.4812  135.5858  153.6394 H   0  0  0  0  0  0  0  0  0  0  0  0  # atno 10764 bound_to 10752
  152.9869  135.6112  154.3468 H   0  0  0  0  0  0  0  0  0  0  0  0  # atno 10765 bound_to 10752
  140.4819  134.6067  157.4922 H   0  0  0  0  0  0  0  0  0  0  0  0  # atno 11005 bound_to 11000
  146.3209  139.8106  142.8946 LP  0  0  0  0  0  0  0  0  0  0  0  0  # atno 17320 bound_to 7965
  145.3281  141.0260  143.3462 LP  0  0  0  0  0  0  0  0  0  0  0  0  # atno 17321 bound_to 7965
  140.0220  144.6146  150.7558 LP  0  0  0  0  0  0  0  0  0  0  0  0  # atno 17342 bound_to 10162
  140.7398  143.2797  151.3636 LP  0  0  0  0  0  0  0  0  0  0  0  0  # atno 17343 bound_to 10162
  157.7206  131.0683  150.6150 LP  0  0  0  0  0  0  0  0  0  0  0  0  # atno 17370 bound_to 10713
  156.6229  130.4410  149.5815 LP  0  0  0  0  0  0  0  0  0  0  0  0  # atno 17371 bound_to 10713
  139.9821  134.7120  155.9840 LP  0  0  0  0  0  0  0  0  0  0  0  0  # atno 17394 bound_to 11000
  141.1527  133.6546  156.4064 LP  0  0  0  0  0  0  0  0  0  0  0  0  # atno 17395 bound_to 11000

$$$$
