AV-unprocessed.smi:2092|AV-procd|sdf|8542|dock1
  -GOLD-   2272011263D 1   1.00000     0.00000
 Structure written by MMmdl.
 44 45  0  0  0  0  0  0  0  0  1 V2000
  146.2188  135.7033  156.4994 C   0  0  0  0  0  0  0  0  0  0  0  0
  147.0427  135.9999  155.2380 C   0  0  2  0  0  0  0  0  0  0  0  0
  148.1597  135.1104  155.2355 O   0  0  0  0  0  0  0  0  0  0  0  0
  147.8540  133.7206  155.1513 C   0  0  0  0  0  0  0  0  0  0  0  0
  149.0571  132.9590  154.5838 C   0  0  0  0  0  0  0  0  0  0  0  0
  148.8545  131.6497  154.7299 F   0  0  0  0  0  0  0  0  0  0  0  0
  149.2037  133.2267  153.2865 F   0  0  0  0  0  0  0  0  0  0  0  0
  150.1669  133.2966  155.2402 F   0  0  0  0  0  0  0  0  0  0  0  0
  147.5082  137.4647  155.2069 C   0  0  0  0  0  0  0  0  0  0  0  0
  147.0822  138.2706  156.0345 O   0  0  0  0  0  0  0  0  0  0  0  0
  148.4173  137.7806  154.2712 N   0  0  0  0  0  0  0  0  0  0  0  0
  149.0980  139.0675  154.1720 C   0  0  0  0  0  0  0  0  0  0  0  0
  150.4930  139.0606  154.7803 C   0  0  0  0  0  0  0  0  0  0  0  0
  151.5394  138.3574  154.1527 C   0  0  0  0  0  0  0  0  0  0  0  0
  152.8204  138.4060  154.7331 C   0  0  0  0  0  0  0  0  0  0  0  0
  153.0971  139.0928  155.8616 N   0  0  0  0  0  0  0  0  0  0  0  0
  152.0951  139.7622  156.4832 C   0  0  0  0  0  0  0  0  0  0  0  0
  152.3985  140.4923  157.6523 N   0  0  0  0  0  0  0  0  0  0  0  0
  152.9008  139.7595  158.8125 C   0  0  0  0  0  0  0  0  0  0  0  0
  153.4735  140.7369  159.8527 C   0  0  0  0  0  0  0  0  0  0  0  0
  152.4871  141.7045  160.1962 O   0  0  0  0  0  0  0  0  0  0  0  0
  152.0914  142.4805  159.0701 C   0  0  0  0  0  0  0  0  0  0  0  0
  151.4723  141.5673  157.9980 C   0  0  0  0  0  0  0  0  0  0  0  0
  150.7752  139.7585  155.9749 C   0  0  0  0  0  0  0  0  0  0  0  0
  145.3453  136.3531  156.5650 H   0  0  0  0  0  0  0  0  0  0  0  0
  146.8090  135.8419  157.4061 H   0  0  0  0  0  0  0  0  0  0  0  0
  145.8624  134.6732  156.4941 H   0  0  0  0  0  0  0  0  0  0  0  0
  146.4229  135.7919  154.3636 H   0  0  0  0  0  0  0  0  0  0  0  0
  147.6016  133.3270  156.1370 H   0  0  0  0  0  0  0  0  0  0  0  0
  146.9931  133.5604  154.5023 H   0  0  0  0  0  0  0  0  0  0  0  0
  148.7089  137.0590  153.6281 H   0  0  0  0  0  0  0  0  0  0  0  0
  149.1840  139.3292  153.1174 H   0  0  0  0  0  0  0  0  0  0  0  0
  148.4892  139.8451  154.6367 H   0  0  0  0  0  0  0  0  0  0  0  0
  151.3718  137.8034  153.2408 H   0  0  0  0  0  0  0  0  0  0  0  0
  153.6478  137.8850  154.2746 H   0  0  0  0  0  0  0  0  0  0  0  0
  152.0892  139.1780  159.2519 H   0  0  0  0  0  0  0  0  0  0  0  0
  153.6791  139.0578  158.5098 H   0  0  0  0  0  0  0  0  0  0  0  0
  153.7698  140.1967  160.7519 H   0  0  0  0  0  0  0  0  0  0  0  0
  154.3671  141.2326  159.4695 H   0  0  0  0  0  0  0  0  0  0  0  0
  151.3648  143.2264  159.3920 H   0  0  0  0  0  0  0  0  0  0  0  0
  152.9487  143.0244  158.6700 H   0  0  0  0  0  0  0  0  0  0  0  0
  151.2059  142.1692  157.1305 H   0  0  0  0  0  0  0  0  0  0  0  0
  150.5479  141.1265  158.3730 H   0  0  0  0  0  0  0  0  0  0  0  0
  149.9918  140.3090  156.4734 H   0  0  0  0  0  0  0  0  0  0  0  0
  1  2  1  0  0  0  0
  1 25  1  0  0  0  0
  1 26  1  0  0  0  0
  1 27  1  0  0  0  0
  2  3  1  0  0  0  0
  2  9  1  0  0  0  0
  2 28  1  0  0  0  0
  3  4  1  0  0  0  0
  4  5  1  0  0  0  0
  4 29  1  0  0  0  0
  4 30  1  0  0  0  0
  5  6  1  0  0  0  0
  5  7  1  0  0  0  0
  5  8  1  0  0  0  0
  9 10  2  0  0  0  0
  9 11  1  0  0  0  0
 11 12  1  0  0  0  0
 11 31  1  0  0  0  0
 12 13  1  0  0  0  0
 12 32  1  0  0  0  0
 12 33  1  0  0  0  0
 13 24  1  0  0  0  0
 13 14  2  0  0  0  0
 14 15  1  0  0  0  0
 14 34  1  0  0  0  0
 15 16  2  0  0  0  0
 15 35  1  0  0  0  0
 16 17  1  0  0  0  0
 17 18  1  0  0  0  0
 17 24  2  0  0  0  0
 18 23  1  0  0  0  0
 18 19  1  0  0  0  0
 19 20  1  0  0  0  0
 19 36  1  0  0  0  0
 19 37  1  0  0  0  0
 20 21  1  0  0  0  0
 20 38  1  0  0  0  0
 20 39  1  0  0  0  0
 21 22  1  0  0  0  0
 22 23  1  0  0  0  0
 22 40  1  0  0  0  0
 22 41  1  0  0  0  0
 23 42  1  0  0  0  0
 23 43  1  0  0  0  0
 24 44  1  0  0  0  0
M  END
> <s_m_source_file>
AV-unprocessed.smi

> <i_m_source_file_index>
2092

> <i_lp_mmshare_version>
43012

> <i_f3d_flags>
0

> <s_epik_input>
RkMoRikoRilbQ0gyXU9bQ0BASF0oW0NIM10pQyg9TylbTkhdW0NIMl1jMVtjSF1bY0hdbmMoW2NIXTEpTjJbQ0gyXVtDSDJdT1tDSDJdW0NIMl0y

> <s_epik_cmdline>
J2VwaWtfcHl0aG9uJywgJy1waCcsICc3LjAnLCAnLXRuJywgJzgnLCAnLW1hJywgJzIwMCcsICctbWV0YWxfYmluZGluZycsICctaW1hZScsICc8aW5maWxlLm1hZT4nLCAnLW9tYWUnLCAnPG91dGZpbGUubWFlPic=

> <r_lp_tautomer_probability>
1

> <r_epik_Ionization_Penalty>
0.00451782

> <r_epik_Ionization_Penalty_Charging>
0

> <r_epik_Ionization_Penalty_Neutral>
0.00451782

> <r_epik_State_Penalty>
0.00326147

> <r_epik_Charging_Adjusted_Penalty>
0.00326147

> <i_epik_Tot_Q>
0

> <i_epik_Tot_abs_Q>
0

> <r_epik_Metal_State_Penalty>
-0

> <b_epik_Metal_Only>
0

> <s_lp_Force_Field>
OPLS_2005

> <r_lp_Energy>
14.8319

> <b_lp_Chiralities_Consistent>
1

> <s_lp_Variant>
AV-unprocessed.smi:2092-1

> <Gold.Version>
5.8.1

> <Gold.Id.Protein>
6NUR|6NUR_protein|mol2

> <Gold.PLP.Fitness>
41.7485

> <Gold.PLP.PLP>
-37.0522

> <Gold.PLP.part.hbond>
-2.7519

> <Gold.PLP.part.metal>
0.0000

> <Gold.PLP.part.buried>
-3.4708

> <Gold.PLP.part.nonpolar>
-30.0335

> <Gold.PLP.part.repulsive>
0.0855

> <Gold.PLP.ligand.clash>
0.0000

> <Gold.PLP.ligand.torsion>
0.9571

> <Gold.PLP.Chemscore.Hbond>
2.0000

> <Gold.PLP.Chemscore.CHOScore>
0.0000

> <Gold.PLP.Chemscore.Metal>
0.0000

> <Gold.Chemscore.Hbonds>
donor molecule, donor type, donor heavy atom, donor atom, acceptor molecule, acceptor atom, score
      L1  H    11    31       P1  7948  1.00
      P1  H  7997  8010       L1    16  1.00

> <Gold.PLP.Chemscore.Internal.Correction>
0.6105

> <Gold.Rescore>
     Score         DG    S(hbond)    S(metal)    S(lipo)     H(rot)  DE(clash)    DE(int)     intcor
     13.28     -14.13       1.84        0.00      75.87       2.49       0.15       0.70       ----

> <Gold.Chemscore.Fitness>
13.2784

> <Gold.Chemscore.DG>
-14.1333

> <Gold.Chemscore.ZeroCoef>
-5.4800

> <Gold.Chemscore.Hbond>
1.8416

> <Gold.Chemscore.Metal>
0.0000

> <Gold.Chemscore.Lipo>
75.8685

> <Gold.Chemscore.Internal_Hbond>
0.0000

> <Gold.Chemscore.DEClash>
0.1500

> <Gold.Chemscore.DEInternal>
0.7049

> <Gold.Chemscore.Rot>
2.4899

> <Gold.Chemscore.Internal.Correction>
   9.000000E+99

> <Gold.Chemscore.Hbonds>
donor molecule, donor type, donor heavy atom, donor atom, acceptor molecule, acceptor atom, score
      L1  H    11    31       P1  7948  0.97
      P1  H  7997  8010       L1    16  0.25

> <Gold.Chemscore.Hbond.Weighted>
-6.1508

> <Gold.Chemscore.Metal.Weighted>
-0.0000

> <Gold.Chemscore.Lipo.Weighted>
-8.8766

> <Gold.Chemscore.Internal_Hbond.Weighted>
0.0000

> <Gold.Chemscore.DEClash.Weighted>
0.1500

> <Gold.Chemscore.DEInternal.Weighted>
0.7049

> <Gold.Chemscore.Rot.Weighted>
6.3741

> <Gold.Chemscore.Internal.Correction.Weighted>
   9.000000E+99

> <Gold.Protein.RotatedTorsions>
[ 6907 6896 6895 6894 ] final  -59.29 input  -60.11 | X-H torsion
[ 7974 7965 7964 7962 ] final  138.72 input  175.53 | X-H torsion
[ 8008 7997 7996 7995 ] final   88.68 input   59.86 | X-H torsion
[ 10167 10162 10161 10158 ] final   93.87 input  -65.29 | X-H torsion
[ 10718 10713 10712 10709 ] final  -43.19 input   66.30 | X-H torsion
[ 10763 10752 10751 10750 ] final   11.07 input  -60.55 | X-H torsion
[ 11005 11000 10999 10996 ] final  174.25 input  -57.11 | X-H torsion

> <Gold.Protein.ActiveResidues>
 VAL166  LYS551  ARG553  GLY616  TRP617  ASP618  TYR619  PRO620  LYS621  CYS622 
 ASP623  PHE694  ASN695  SER759  ASP760  ASP761  ALA762  ILE779  LEU786  VAL792 
 PHE793  MET794  SER795  GLU796  ALA797  LYS798  CYS799  TRP800  GLU811  SER814 

> <Gold.Protein.RotatedAtoms>
  150.7942  134.6988  159.6537 H   0  0  0  0  0  0  0  0  0  0  0  0  # atno 6907 bound_to 6896
  152.4051  134.6217  160.0062 H   0  0  0  0  0  0  0  0  0  0  0  0  # atno 6908 bound_to 6896
  151.6476  133.3285  159.3180 H   0  0  0  0  0  0  0  0  0  0  0  0  # atno 6909 bound_to 6896
  144.9346  139.5005  143.5601 H   0  0  0  0  0  0  0  0  0  0  0  0  # atno 7974 bound_to 7965
  155.9907  140.3369  155.6750 H   0  0  0  0  0  0  0  0  0  0  0  0  # atno 8008 bound_to 7997
  155.6424  140.0696  157.2632 H   0  0  0  0  0  0  0  0  0  0  0  0  # atno 8009 bound_to 7997
  154.4218  140.1740  156.1575 H   0  0  0  0  0  0  0  0  0  0  0  0  # atno 8010 bound_to 7997
  139.8138  144.6761  150.9606 H   0  0  0  0  0  0  0  0  0  0  0  0  # atno 10167 bound_to 10162
  156.2516  130.4188  149.8644 H   0  0  0  0  0  0  0  0  0  0  0  0  # atno 10718 bound_to 10713
  153.1965  135.6850  153.8285 H   0  0  0  0  0  0  0  0  0  0  0  0  # atno 10763 bound_to 10752
  153.7566  135.3216  155.3331 H   0  0  0  0  0  0  0  0  0  0  0  0  # atno 10764 bound_to 10752
  154.8147  135.4693  154.0712 H   0  0  0  0  0  0  0  0  0  0  0  0  # atno 10765 bound_to 10752
  140.3493  134.7209  157.4257 H   0  0  0  0  0  0  0  0  0  0  0  0  # atno 11005 bound_to 11000
  146.3261  139.8321  142.8906 LP  0  0  0  0  0  0  0  0  0  0  0  0  # atno 17320 bound_to 7965
  145.3088  141.0214  143.3566 LP  0  0  0  0  0  0  0  0  0  0  0  0  # atno 17321 bound_to 7965
  140.7816  143.4158  151.0919 LP  0  0  0  0  0  0  0  0  0  0  0  0  # atno 17342 bound_to 10162
  139.7823  143.8337  152.3139 LP  0  0  0  0  0  0  0  0  0  0  0  0  # atno 17343 bound_to 10162
  156.6190  130.8618  151.3471 LP  0  0  0  0  0  0  0  0  0  0  0  0  # atno 17370 bound_to 10713
  157.7216  130.9566  150.1463 LP  0  0  0  0  0  0  0  0  0  0  0  0  # atno 17371 bound_to 10713
  140.0716  134.5854  155.8636 LP  0  0  0  0  0  0  0  0  0  0  0  0  # atno 17394 bound_to 11000
  141.2016  133.6620  156.5963 LP  0  0  0  0  0  0  0  0  0  0  0  0  # atno 17395 bound_to 11000

$$$$
