AV-unprocessed.smi:247|AV-procd|sdf|1895|dock4
  -GOLD-   2262020563D 1   1.00000     0.00000
 Structure written by MMmdl.
 61 65  0  0  0  0  0  0  0  0  1 V2000
  144.7841  136.5792  149.7404 O   0  0  0  0  0  0  0  0  0  0  0  0
  144.9671  136.2746  151.1093 C   0  0  0  0  0  0  0  0  0  0  0  0
  145.1130  134.7529  151.3902 C   0  0  0  0  0  0  0  0  0  0  0  0
  145.0970  134.5293  152.9358 C   0  0  0  0  0  0  0  0  0  0  0  0
  144.0211  135.2034  153.6496 N   0  0  0  0  0  0  0  0  0  0  0  0
  144.1500  136.2438  154.5425 C   0  0  0  0  0  0  0  0  0  0  0  0
  143.0316  136.6900  155.0443 N   0  0  0  0  0  0  0  0  0  0  0  0
  142.0515  135.9153  154.4352 C   0  0  0  0  0  0  0  0  0  0  0  0
  140.6302  135.8708  154.5163 C   0  0  0  0  0  0  0  0  0  0  0  0
  139.9130  136.7123  155.3068 N   0  0  0  0  0  0  0  0  0  0  0  0
  140.4379  136.9520  156.6475 C   0  0  0  0  0  0  0  0  0  0  0  0
  140.1625  138.4248  156.9631 C   0  0  0  0  0  0  0  0  0  0  0  0
  139.0095  138.7833  156.0322 C   0  0  0  0  0  0  0  0  0  0  0  0
  139.3164  137.9433  154.7855 C   0  0  2  0  0  0  0  0  0  0  0  0
  138.1194  137.7044  153.8206 C   0  0  1  0  0  0  0  0  0  0  0  0
  137.1778  136.5649  154.2785 C   0  0  0  0  0  0  0  0  0  0  0  0
  136.1447  136.3581  153.3210 O   0  0  0  0  0  0  0  0  0  0  0  0
  135.2984  137.4910  153.1650 C   0  0  0  0  0  0  0  0  0  0  0  0
  136.1170  138.6739  152.6286 C   0  0  0  0  0  0  0  0  0  0  0  0
  137.2910  138.9827  153.5681 C   0  0  2  0  0  0  0  0  0  0  0  0
  138.0885  139.9906  152.9785 O   0  0  0  0  0  0  0  0  0  0  0  0
  139.9930  134.9431  153.7533 N   0  0  0  0  0  0  0  0  0  0  0  0
  140.6890  134.1214  152.9628 C   0  0  0  0  0  0  0  0  0  0  0  0
  142.0095  134.0554  152.7847 N   0  0  0  0  0  0  0  0  0  0  0  0
  142.6583  134.9768  153.5527 C   0  0  0  0  0  0  0  0  0  0  0  0
  143.9757  133.9755  150.6779 C   0  0  0  0  0  0  0  0  0  0  0  0
  144.1922  132.4522  150.7219 C   0  0  0  0  0  0  0  0  0  0  0  0
  145.4472  132.1255  150.1375 O   0  0  0  0  0  0  0  0  0  0  0  0
  146.5513  132.6916  150.8335 C   0  0  0  0  0  0  0  0  0  0  0  0
  146.4570  134.2297  150.8200 C   0  0  0  0  0  0  0  0  0  0  0  0
  144.2548  137.3592  149.6740 H   0  0  0  0  0  0  0  0  0  0  0  0
  145.8511  136.8101  151.4574 H   0  0  0  0  0  0  0  0  0  0  0  0
  144.1143  136.6878  151.6477 H   0  0  0  0  0  0  0  0  0  0  0  0
  145.0290  133.4715  153.1837 H   0  0  0  0  0  0  0  0  0  0  0  0
  146.0425  134.8630  153.3656 H   0  0  0  0  0  0  0  0  0  0  0  0
  145.1072  136.6622  154.8166 H   0  0  0  0  0  0  0  0  0  0  0  0
  139.9049  136.3083  157.3481 H   0  0  0  0  0  0  0  0  0  0  0  0
  141.5028  136.7283  156.7276 H   0  0  0  0  0  0  0  0  0  0  0  0
  139.9325  138.5976  158.0147 H   0  0  0  0  0  0  0  0  0  0  0  0
  141.0374  139.0240  156.7075 H   0  0  0  0  0  0  0  0  0  0  0  0
  138.0698  138.4855  156.4956 H   0  0  0  0  0  0  0  0  0  0  0  0
  138.9581  139.8517  155.8210 H   0  0  0  0  0  0  0  0  0  0  0  0
  140.0994  138.4692  154.2369 H   0  0  0  0  0  0  0  0  0  0  0  0
  138.5251  137.3968  152.8566 H   0  0  0  0  0  0  0  0  0  0  0  0
  137.7311  135.6314  154.3812 H   0  0  0  0  0  0  0  0  0  0  0  0
  136.7289  136.7746  155.2494 H   0  0  0  0  0  0  0  0  0  0  0  0
  134.4991  137.2408  152.4671 H   0  0  0  0  0  0  0  0  0  0  0  0
  134.8252  137.7421  154.1155 H   0  0  0  0  0  0  0  0  0  0  0  0
  136.4896  138.4281  151.6330 H   0  0  0  0  0  0  0  0  0  0  0  0
  135.4786  139.5510  152.5168 H   0  0  0  0  0  0  0  0  0  0  0  0
  136.8990  139.3648  154.5115 H   0  0  0  0  0  0  0  0  0  0  0  0
  138.6289  139.5952  152.3117 H   0  0  0  0  0  0  0  0  0  0  0  0
  140.1038  133.4172  152.3904 H   0  0  0  0  0  0  0  0  0  0  0  0
  143.0014  134.2327  151.0916 H   0  0  0  0  0  0  0  0  0  0  0  0
  143.9297  134.2678  149.6284 H   0  0  0  0  0  0  0  0  0  0  0  0
  144.1376  132.0662  151.7400 H   0  0  0  0  0  0  0  0  0  0  0  0
  143.4062  131.9509  150.1571 H   0  0  0  0  0  0  0  0  0  0  0  0
  146.5988  132.2966  151.8483 H   0  0  0  0  0  0  0  0  0  0  0  0
  147.4695  132.3754  150.3385 H   0  0  0  0  0  0  0  0  0  0  0  0
  146.5779  134.5506  149.7852 H   0  0  0  0  0  0  0  0  0  0  0  0
  147.2968  134.6604  151.3664 H   0  0  0  0  0  0  0  0  0  0  0  0
  1  2  1  0  0  0  0
  1 31  1  0  0  0  0
  2  3  1  0  0  0  0
  2 32  1  0  0  0  0
  2 33  1  0  0  0  0
  3 30  1  0  0  0  0
  3  4  1  0  0  0  0
  3 26  1  0  0  0  0
  4  5  1  0  0  0  0
  4 34  1  0  0  0  0
  4 35  1  0  0  0  0
  5 25  1  0  0  0  0
  5  6  1  0  0  0  0
  6  7  2  0  0  0  0
  6 36  1  0  0  0  0
  7  8  1  0  0  0  0
  8 25  2  0  0  0  0
  8  9  1  0  0  0  0
  9 10  1  0  0  0  0
  9 22  2  0  0  0  0
 10 14  1  0  0  0  0
 10 11  1  0  0  0  0
 11 12  1  0  0  0  0
 11 37  1  0  0  0  0
 11 38  1  0  0  0  0
 12 13  1  0  0  0  0
 12 39  1  0  0  0  0
 12 40  1  0  0  0  0
 13 14  1  0  0  0  0
 13 41  1  0  0  0  0
 13 42  1  0  0  0  0
 14 15  1  0  0  0  0
 14 43  1  0  0  0  0
 15 20  1  0  0  0  0
 15 16  1  0  0  0  0
 15 44  1  0  0  0  0
 16 17  1  0  0  0  0
 16 45  1  0  0  0  0
 16 46  1  0  0  0  0
 17 18  1  0  0  0  0
 18 19  1  0  0  0  0
 18 47  1  0  0  0  0
 18 48  1  0  0  0  0
 19 20  1  0  0  0  0
 19 49  1  0  0  0  0
 19 50  1  0  0  0  0
 20 21  1  0  0  0  0
 20 51  1  0  0  0  0
 21 52  1  0  0  0  0
 22 23  1  0  0  0  0
 23 24  2  0  0  0  0
 23 53  1  0  0  0  0
 24 25  1  0  0  0  0
 26 27  1  0  0  0  0
 26 54  1  0  0  0  0
 26 55  1  0  0  0  0
 27 28  1  0  0  0  0
 27 56  1  0  0  0  0
 27 57  1  0  0  0  0
 28 29  1  0  0  0  0
 29 30  1  0  0  0  0
 29 58  1  0  0  0  0
 29 59  1  0  0  0  0
 30 60  1  0  0  0  0
 30 61  1  0  0  0  0
M  END
> <s_m_source_file>
AV-unprocessed.smi

> <i_m_source_file_index>
247

> <i_lp_mmshare_version>
43012

> <i_f3d_flags>
0

> <s_epik_input>
W0NIMl0xW0NIMl1PW0NIMl1bQ0gyXUMxKFtDSDJdW09IXSlbQ0gyXW4oW2NIXW4yKWMoYzIzKW5bY0hdbmMzTjRbQ0gyXVtDSDJdW0NIMl1bQ0BIXTRbQ0BASF01W0NIMl1PW0NIMl1bQ0gyXVtDQEhdNVtPSF0=

> <s_epik_cmdline>
J2VwaWtfcHl0aG9uJywgJy1waCcsICc3LjAnLCAnLXRuJywgJzgnLCAnLW1hJywgJzIwMCcsICctbWV0YWxfYmluZGluZycsICctaW1hZScsICc8aW5maWxlLm1hZT4nLCAnLW9tYWUnLCAnPG91dGZpbGUubWFlPic=

> <r_lp_tautomer_probability>
1

> <r_epik_Ionization_Penalty>
0.00362597

> <r_epik_Ionization_Penalty_Charging>
0

> <r_epik_Ionization_Penalty_Neutral>
0.00362597

> <r_epik_State_Penalty>
0.00241433

> <r_epik_Charging_Adjusted_Penalty>
0.00241433

> <i_epik_Tot_Q>
0

> <i_epik_Tot_abs_Q>
0

> <r_epik_Metal_State_Penalty>
-0

> <b_epik_Metal_Only>
0

> <s_lp_Force_Field>
OPLS_2005

> <r_lp_Energy>
58.878

> <b_lp_Chiralities_Consistent>
1

> <s_lp_Variant>
AV-unprocessed.smi:247-8

> <Gold.Version>
5.8.1

> <Gold.Id.Protein>
6NUR|6NUR_protein|mol2

> <Gold.PLP.Fitness>
46.7315

> <Gold.PLP.PLP>
-37.8047

> <Gold.PLP.part.hbond>
-5.2773

> <Gold.PLP.part.metal>
0.0000

> <Gold.PLP.part.buried>
-7.6338

> <Gold.PLP.part.nonpolar>
-24.9264

> <Gold.PLP.part.repulsive>
0.4533

> <Gold.PLP.ligand.clash>
0.0000

> <Gold.PLP.ligand.torsion>
1.0917

> <Gold.PLP.Chemscore.Hbond>
2.7446

> <Gold.PLP.Chemscore.CHOScore>
0.8192

> <Gold.PLP.Chemscore.Metal>
0.0000

> <Gold.Chemscore.Hbonds>
donor molecule, donor type, donor heavy atom, donor atom, acceptor molecule, acceptor atom, score
      L1  H     1    31       P1 10171  0.34
      L1  C    23    53       P1 10187  0.22

> <Gold.PLP.Chemscore.Internal.Correction>
0.4190

> <Gold.Rescore>
     Score         DG    S(hbond)    S(metal)    S(lipo)     H(rot)  DE(clash)    DE(int)     intcor
     10.89     -13.42       2.49        0.00      67.39       3.23       0.11       2.42       ----

> <Gold.Chemscore.Fitness>
10.8921

> <Gold.Chemscore.DG>
-13.4227

> <Gold.Chemscore.ZeroCoef>
-5.4800

> <Gold.Chemscore.Hbond>
2.4914

> <Gold.Chemscore.Metal>
0.0000

> <Gold.Chemscore.Lipo>
67.3922

> <Gold.Chemscore.Internal_Hbond>
0.0000

> <Gold.Chemscore.DEClash>
0.1088

> <Gold.Chemscore.DEInternal>
2.4218

> <Gold.Chemscore.Rot>
3.2278

> <Gold.Chemscore.Internal.Correction>
   9.000000E+99

> <Gold.Chemscore.Hbonds>
donor molecule, donor type, donor heavy atom, donor atom, acceptor molecule, acceptor atom, score
      L1  H     1    31       P1 10171  0.33
      L1  H    21    52       P1 10160  0.01

> <Gold.Chemscore.Hbond.Weighted>
-8.3211

> <Gold.Chemscore.Metal.Weighted>
-0.0000

> <Gold.Chemscore.Lipo.Weighted>
-7.8849

> <Gold.Chemscore.Internal_Hbond.Weighted>
0.0000

> <Gold.Chemscore.DEClash.Weighted>
0.1088

> <Gold.Chemscore.DEInternal.Weighted>
2.4218

> <Gold.Chemscore.Rot.Weighted>
8.2633

> <Gold.Chemscore.Internal.Correction.Weighted>
   9.000000E+99

> <Gold.Protein.RotatedTorsions>
[ 6907 6896 6895 6894 ] final  174.33 input  -60.11 | X-H torsion
[ 7974 7965 7964 7962 ] final -101.69 input  175.53 | X-H torsion
[ 8008 7997 7996 7995 ] final   -1.26 input   59.86 | X-H torsion
[ 10167 10162 10161 10158 ] final -113.35 input  -65.29 | X-H torsion
[ 10718 10713 10712 10709 ] final   41.00 input   66.30 | X-H torsion
[ 10763 10752 10751 10750 ] final  146.14 input  -60.55 | X-H torsion
[ 11005 11000 10999 10996 ] final  -92.76 input  -57.11 | X-H torsion

> <Gold.Protein.ActiveResidues>
 VAL166  LYS551  ARG553  GLY616  TRP617  ASP618  TYR619  PRO620  LYS621  CYS622 
 ASP623  PHE694  ASN695  SER759  ASP760  ASP761  ALA762  ILE779  LEU786  VAL792 
 PHE793  MET794  SER795  GLU796  ALA797  LYS798  CYS799  TRP800  GLU811  SER814 

> <Gold.Protein.RotatedAtoms>
  151.7541  133.3329  159.3399 H   0  0  0  0  0  0  0  0  0  0  0  0  # atno 6907 bound_to 6896
  150.7524  134.6166  159.6123 H   0  0  0  0  0  0  0  0  0  0  0  0  # atno 6908 bound_to 6896
  152.3449  134.7087  160.0305 H   0  0  0  0  0  0  0  0  0  0  0  0  # atno 6909 bound_to 6896
  145.2784  140.9319  143.2946 H   0  0  0  0  0  0  0  0  0  0  0  0  # atno 7974 bound_to 7965
  154.6488  140.2564  155.7237 H   0  0  0  0  0  0  0  0  0  0  0  0  # atno 8008 bound_to 7997
  156.2565  140.2872  156.0834 H   0  0  0  0  0  0  0  0  0  0  0  0  # atno 8009 bound_to 7997
  155.1482  140.0381  157.2805 H   0  0  0  0  0  0  0  0  0  0  0  0  # atno 8010 bound_to 7997
  140.1128  143.4512  152.1741 H   0  0  0  0  0  0  0  0  0  0  0  0  # atno 10167 bound_to 10162
  157.3886  130.7794  149.7251 H   0  0  0  0  0  0  0  0  0  0  0  0  # atno 10718 bound_to 10713
  154.0170  135.2909  155.3385 H   0  0  0  0  0  0  0  0  0  0  0  0  # atno 10763 bound_to 10752
  154.7069  135.5165  153.8612 H   0  0  0  0  0  0  0  0  0  0  0  0  # atno 10764 bound_to 10752
  153.0698  135.6643  154.0395 H   0  0  0  0  0  0  0  0  0  0  0  0  # atno 10765 bound_to 10752
  141.1514  133.7842  157.0064 H   0  0  0  0  0  0  0  0  0  0  0  0  # atno 11005 bound_to 11000
  144.9274  139.4338  143.6511 LP  0  0  0  0  0  0  0  0  0  0  0  0  # atno 17320 bound_to 7965
  146.3224  139.8168  142.8935 LP  0  0  0  0  0  0  0  0  0  0  0  0  # atno 17321 bound_to 7965
  139.5610  144.7405  151.4155 LP  0  0  0  0  0  0  0  0  0  0  0  0  # atno 17342 bound_to 10162
  140.6916  143.7848  150.7264 LP  0  0  0  0  0  0  0  0  0  0  0  0  # atno 17343 bound_to 10162
  155.9793  130.4042  150.3597 LP  0  0  0  0  0  0  0  0  0  0  0  0  # atno 17370 bound_to 10713
  157.1710  131.0369  151.2795 LP  0  0  0  0  0  0  0  0  0  0  0  0  # atno 17371 bound_to 10713
  140.0906  134.9595  157.1770 LP  0  0  0  0  0  0  0  0  0  0  0  0  # atno 17394 bound_to 11000
  140.3451  134.2660  155.7206 LP  0  0  0  0  0  0  0  0  0  0  0  0  # atno 17395 bound_to 11000

$$$$
