AV-unprocessed.smi:1824|AV-procd|sdf|7400|dock6
  -GOLD-   22720 9 73D 1   1.00000     0.00000
 Structure written by MMmdl.
 45 47  0  0  0  0  0  0  0  0  2 V2000
  149.0018  141.5280  154.8284 C   0  0  0  0  0  0  0  0  0  0  0  0
  149.5909  140.1303  155.0479 C   0  0  1  0  0  0  0  0  0  0  0  0
  149.0049  139.0943  154.0678 C   0  0  0  0  0  0  0  0  0  0  0  0
  149.6467  137.7682  154.2386 N   0  3  2  0  0  0  0  0  0  0  0  0
  149.1500  137.0102  155.4190 C   0  0  0  0  0  0  0  0  0  0  0  0
  148.9390  135.5141  155.1132 C   0  0  2  0  0  0  0  0  0  0  0  0
  147.6838  135.1181  155.6327 O   0  0  0  0  0  0  0  0  0  0  0  0
  150.0465  134.6424  155.7366 C   0  0  0  0  0  0  0  0  0  0  0  0
  150.0527  133.2906  155.2052 N   0  0  0  0  0  0  0  0  0  0  0  0
  149.1854  132.7677  154.3171 C   0  0  0  0  0  0  0  0  0  0  0  0
  149.3667  131.4992  153.9628 N   0  0  0  0  0  0  0  0  0  0  0  0
  150.4855  131.1585  154.7034 C   0  0  0  0  0  0  0  0  0  0  0  0
  151.1970  129.9401  154.7818 C   0  0  0  0  0  0  0  0  0  0  0  0
  152.3255  129.8236  155.6198 C   0  0  0  0  0  0  0  0  0  0  0  0
  152.9961  128.6487  155.6822 F   0  0  0  0  0  0  0  0  0  0  0  0
  152.7579  130.9222  156.3922 C   0  0  0  0  0  0  0  0  0  0  0  0
  153.8410  130.8015  157.1957 F   0  0  0  0  0  0  0  0  0  0  0  0
  152.0649  132.1466  156.3306 C   0  0  0  0  0  0  0  0  0  0  0  0
  150.9405  132.2584  155.4918 C   0  0  0  0  0  0  0  0  0  0  0  0
  151.1242  137.8923  154.1512 C   0  0  0  0  0  0  0  0  0  0  0  0
  151.6643  138.9777  155.1080 C   0  0  1  0  0  0  0  0  0  0  0  0
  153.1688  139.2057  154.9275 C   0  0  0  0  0  0  0  0  0  0  0  0
  150.9980  140.2083  154.8472 O   0  0  0  0  0  0  0  0  0  0  0  0
  147.9212  141.5261  154.9740 H   0  0  0  0  0  0  0  0  0  0  0  0
  149.2027  141.8879  153.8189 H   0  0  0  0  0  0  0  0  0  0  0  0
  149.4296  142.2460  155.5285 H   0  0  0  0  0  0  0  0  0  0  0  0
  149.3888  139.8291  156.0773 H   0  0  0  0  0  0  0  0  0  0  0  0
  147.9233  139.0135  154.1830 H   0  0  0  0  0  0  0  0  0  0  0  0
  149.1775  139.4251  153.0427 H   0  0  0  0  0  0  0  0  0  0  0  0
  149.8364  137.1313  156.2568 H   0  0  0  0  0  0  0  0  0  0  0  0
  148.1985  137.4292  155.7502 H   0  0  0  0  0  0  0  0  0  0  0  0
  148.9304  135.3437  154.0370 H   0  0  0  0  0  0  0  0  0  0  0  0
  147.1256  134.8653  154.9123 H   0  0  0  0  0  0  0  0  0  0  0  0
  151.0250  135.0859  155.5464 H   0  0  0  0  0  0  0  0  0  0  0  0
  149.9341  134.5931  156.8206 H   0  0  0  0  0  0  0  0  0  0  0  0
  148.3727  133.3513  153.9096 H   0  0  0  0  0  0  0  0  0  0  0  0
  150.8742  129.0922  154.1960 H   0  0  0  0  0  0  0  0  0  0  0  0
  152.3947  132.9876  156.9220 H   0  0  0  0  0  0  0  0  0  0  0  0
  151.6104  136.9363  154.3408 H   0  0  0  0  0  0  0  0  0  0  0  0
  151.3761  138.1606  153.1241 H   0  0  0  0  0  0  0  0  0  0  0  0
  151.4885  138.6903  156.1453 H   0  0  0  0  0  0  0  0  0  0  0  0
  153.7313  138.2927  155.1239 H   0  0  0  0  0  0  0  0  0  0  0  0
  153.5312  139.9722  155.6130 H   0  0  0  0  0  0  0  0  0  0  0  0
  153.4005  139.5306  153.9126 H   0  0  0  0  0  0  0  0  0  0  0  0
  149.3541  137.2194  153.4421 H   0  0  0  0  0  0  0  0  0  0  0  0
  1  2  1  0  0  0  0
  1 24  1  0  0  0  0
  1 25  1  0  0  0  0
  1 26  1  0  0  0  0
  2 23  1  0  0  0  0
  2  3  1  0  0  0  0
  2 27  1  0  0  0  0
  3  4  1  0  0  0  0
  3 28  1  0  0  0  0
  3 29  1  0  0  0  0
  4  5  1  0  0  0  0
  4 20  1  0  0  0  0
  4 45  1  0  0  0  0
  5  6  1  0  0  0  0
  5 30  1  0  0  0  0
  5 31  1  0  0  0  0
  6  7  1  0  0  0  0
  6  8  1  0  0  0  0
  6 32  1  0  0  0  0
  7 33  1  0  0  0  0
  8  9  1  0  0  0  0
  8 34  1  0  0  0  0
  8 35  1  0  0  0  0
  9 19  1  0  0  0  0
  9 10  1  0  0  0  0
 10 11  2  0  0  0  0
 10 36  1  0  0  0  0
 11 12  1  0  0  0  0
 12 19  2  0  0  0  0
 12 13  1  0  0  0  0
 13 14  2  0  0  0  0
 13 37  1  0  0  0  0
 14 15  1  0  0  0  0
 14 16  1  0  0  0  0
 16 17  1  0  0  0  0
 16 18  2  0  0  0  0
 18 19  1  0  0  0  0
 18 38  1  0  0  0  0
 20 21  1  0  0  0  0
 20 39  1  0  0  0  0
 20 40  1  0  0  0  0
 21 22  1  0  0  0  0
 21 23  1  0  0  0  0
 21 41  1  0  0  0  0
 22 42  1  0  0  0  0
 22 43  1  0  0  0  0
 22 44  1  0  0  0  0
M  CHG  1   4   1
M  END
> <s_m_source_file>
AV-unprocessed.smi

> <i_m_source_file_index>
1824

> <i_lp_mmshare_version>
43012

> <i_f3d_flags>
0

> <s_epik_input>
W0NIM11bQ0BASF0xW0NIMl1OKFtDSDJdW0NASF0oTzEpW0NIM10pW0NIMl1bQ0BIXShbT0hdKVtDSDJdbihbY0hdbjIpYyhjMjMpW2NIXWMoRiljKEYpW2NIXTM=

> <s_epik_cmdline>
J2VwaWtfcHl0aG9uJywgJy1waCcsICc3LjAnLCAnLXRuJywgJzgnLCAnLW1hJywgJzIwMCcsICctbWV0YWxfYmluZGluZycsICctaW1hZScsICc8aW5maWxlLm1hZT4nLCAnLW9tYWUnLCAnPG91dGZpbGUubWFlPic=

> <r_epik_Ionization_Penalty>
0.61967

> <r_epik_Ionization_Penalty_Charging>
0.608065

> <r_epik_Ionization_Penalty_Neutral>
0.0116057

> <r_epik_State_Penalty>
0.664205

> <r_epik_Charging_Adjusted_Penalty>
1.27227

> <i_epik_Tot_Q>
1

> <i_epik_Tot_abs_Q>
1

> <r_epik_Metal_State_Penalty>
0.654947

> <b_epik_Metal_Only>
0

> <s_lp_Force_Field>
OPLS_2005

> <r_lp_Energy>
21.7037

> <b_lp_Chiralities_Consistent>
1

> <s_lp_Variant>
AV-unprocessed.smi:1824-8

> <Gold.Version>
5.8.1

> <Gold.Id.Protein>
6NUR|6NUR_protein|mol2

> <Gold.PLP.Fitness>
47.7288

> <Gold.PLP.PLP>
-41.2142

> <Gold.PLP.part.hbond>
-2.0000

> <Gold.PLP.part.metal>
0.0000

> <Gold.PLP.part.buried>
-1.7730

> <Gold.PLP.part.nonpolar>
-37.9475

> <Gold.PLP.part.repulsive>
0.1625

> <Gold.PLP.ligand.clash>
0.0000

> <Gold.PLP.ligand.torsion>
1.2605

> <Gold.PLP.Chemscore.Hbond>
3.0000

> <Gold.PLP.Chemscore.CHOScore>
0.0000

> <Gold.PLP.Chemscore.Metal>
0.0000

> <Gold.Chemscore.Hbonds>
donor molecule, donor type, donor heavy atom, donor atom, acceptor molecule, acceptor atom, score
      L1  H     4    45       P1  7948  2.00
      P1  H  7989  7998       L1    23  1.00

> <Gold.PLP.Chemscore.Internal.Correction>
0.0357

> <Gold.Rescore>
     Score         DG    S(hbond)    S(metal)    S(lipo)     H(rot)  DE(clash)    DE(int)     intcor
     14.55     -16.26       1.88        0.00      89.23       2.33       0.42       1.29       ----

> <Gold.Chemscore.Fitness>
14.5470

> <Gold.Chemscore.DG>
-16.2624

> <Gold.Chemscore.ZeroCoef>
-5.4800

> <Gold.Chemscore.Hbond>
1.8847

> <Gold.Chemscore.Metal>
0.0000

> <Gold.Chemscore.Lipo>
89.2293

> <Gold.Chemscore.Internal_Hbond>
0.0000

> <Gold.Chemscore.DEClash>
0.4237

> <Gold.Chemscore.DEInternal>
1.2917

> <Gold.Chemscore.Rot>
2.3251

> <Gold.Chemscore.Internal.Correction>
   9.000000E+99

> <Gold.Chemscore.Hbonds>
donor molecule, donor type, donor heavy atom, donor atom, acceptor molecule, acceptor atom, score
      L1  H     4    45       P1  7948  0.97
      P1  H  7989  7998       L1    23  0.69

> <Gold.Chemscore.Hbond.Weighted>
-6.2949

> <Gold.Chemscore.Metal.Weighted>
-0.0000

> <Gold.Chemscore.Lipo.Weighted>
-10.4398

> <Gold.Chemscore.Internal_Hbond.Weighted>
0.0000

> <Gold.Chemscore.DEClash.Weighted>
0.4237

> <Gold.Chemscore.DEInternal.Weighted>
1.2917

> <Gold.Chemscore.Rot.Weighted>
5.9523

> <Gold.Chemscore.Internal.Correction.Weighted>
   9.000000E+99

> <Gold.Protein.RotatedTorsions>
[ 6907 6896 6895 6894 ] final -110.28 input  -60.11 | X-H torsion
[ 7974 7965 7964 7962 ] final  177.19 input  175.53 | X-H torsion
[ 8008 7997 7996 7995 ] final  -64.05 input   59.86 | X-H torsion
[ 10167 10162 10161 10158 ] final   37.71 input  -65.29 | X-H torsion
[ 10718 10713 10712 10709 ] final  143.28 input   66.30 | X-H torsion
[ 10763 10752 10751 10750 ] final -156.15 input  -60.55 | X-H torsion
[ 11005 11000 10999 10996 ] final  113.37 input  -57.11 | X-H torsion

> <Gold.Protein.ActiveResidues>
 VAL166  LYS551  ARG553  GLY616  TRP617  ASP618  TYR619  PRO620  LYS621  CYS622 
 ASP623  PHE694  ASN695  SER759  ASP760  ASP761  ALA762  ILE779  LEU786  VAL792 
 PHE793  MET794  SER795  GLU796  ALA797  LYS798  CYS799  TRP800  GLU811  SER814 

> <Gold.Protein.RotatedAtoms>
  150.7615  133.9405  159.3454 H   0  0  0  0  0  0  0  0  0  0  0  0  # atno 6907 bound_to 6896
  151.7313  135.0872  160.0310 H   0  0  0  0  0  0  0  0  0  0  0  0  # atno 6908 bound_to 6896
  152.3588  133.6233  159.6035 H   0  0  0  0  0  0  0  0  0  0  0  0  # atno 6909 bound_to 6896
  144.7172  140.0210  143.6440 H   0  0  0  0  0  0  0  0  0  0  0  0  # atno 7974 bound_to 7965
  154.4589  140.0962  156.6837 H   0  0  0  0  0  0  0  0  0  0  0  0  # atno 8008 bound_to 7997
  155.5054  140.3475  155.4360 H   0  0  0  0  0  0  0  0  0  0  0  0  # atno 8009 bound_to 7997
  156.0832  140.1378  156.9675 H   0  0  0  0  0  0  0  0  0  0  0  0  # atno 8010 bound_to 7997
  140.4006  144.1728  150.6133 H   0  0  0  0  0  0  0  0  0  0  0  0  # atno 10167 bound_to 10162
  157.3708  131.0978  151.0830 H   0  0  0  0  0  0  0  0  0  0  0  0  # atno 10718 bound_to 10713
  154.7734  135.3152  154.8142 H   0  0  0  0  0  0  0  0  0  0  0  0  # atno 10763 bound_to 10752
  153.8871  135.6829  153.4767 H   0  0  0  0  0  0  0  0  0  0  0  0  # atno 10764 bound_to 10752
  153.1353  135.4762  154.9347 H   0  0  0  0  0  0  0  0  0  0  0  0  # atno 10765 bound_to 10752
  139.8951  134.9548  156.6728 H   0  0  0  0  0  0  0  0  0  0  0  0  # atno 11005 bound_to 11000
  146.0180  139.3227  143.0830 LP  0  0  0  0  0  0  0  0  0  0  0  0  # atno 17320 bound_to 7965
  145.8602  140.9479  143.0704 LP  0  0  0  0  0  0  0  0  0  0  0  0  # atno 17321 bound_to 7965
  140.4743  143.2401  151.9045 LP  0  0  0  0  0  0  0  0  0  0  0  0  # atno 17342 bound_to 10162
  139.4785  144.5336  151.8630 LP  0  0  0  0  0  0  0  0  0  0  0  0  # atno 17343 bound_to 10162
  157.1935  130.6362  149.5713 LP  0  0  0  0  0  0  0  0  0  0  0  0  # atno 17370 bound_to 10713
  155.9755  130.4714  150.6464 LP  0  0  0  0  0  0  0  0  0  0  0  0  # atno 17371 bound_to 10713
  140.7360  133.9018  155.8244 LP  0  0  0  0  0  0  0  0  0  0  0  0  # atno 17394 bound_to 11000
  141.0116  134.1013  157.4216 LP  0  0  0  0  0  0  0  0  0  0  0  0  # atno 17395 bound_to 11000

$$$$
