AV-unprocessed.smi:2168|AV-procd|sdf|8818|dock6
  -GOLD-   2272012 13D 1   1.00000     0.00000
 Structure written by MMmdl.
 46 47  0  0  0  0  0  0  0  0  1 V2000
  154.1708  137.0399  164.9485 C   0  0  0  0  0  0  0  0  0  0  0  0
  153.7133  137.1199  163.4844 C   0  0  0  0  0  0  0  0  0  0  0  0
  154.5161  136.2523  162.6036 N   0  0  0  0  0  0  0  0  0  0  0  0
  154.3983  134.8051  162.8693 C   0  0  0  0  0  0  0  0  0  0  0  0
  155.5343  134.3156  163.7784 C   0  0  0  0  0  0  0  0  0  0  0  0
  154.7480  136.7728  160.9636 S   0  0  0  0  0  0  0  0  0  0  0  0
  155.4392  135.7070  160.2219 O   0  0  0  0  0  0  0  0  0  0  0  0
  153.4915  137.3468  160.4578 O   0  0  0  0  0  0  0  0  0  0  0  0
  155.8587  138.0631  161.2187 N   0  0  0  0  0  0  0  0  0  0  0  0
  155.6060  139.0835  162.2304 C   0  0  0  0  0  0  0  0  0  0  0  0
  154.8762  140.2802  161.6561 C   0  0  0  0  0  0  0  0  0  0  0  0
  154.2600  141.2219  162.5022 C   0  0  0  0  0  0  0  0  0  0  0  0
  153.5739  142.3081  161.9268 C   0  0  0  0  0  0  0  0  0  0  0  0
  153.5190  142.4229  160.5167 C   0  0  0  0  0  0  0  0  0  0  0  0
  152.8276  143.4988  159.9173 N   0  0  0  0  0  0  0  0  0  0  0  0
  152.1848  144.4321  160.8399 C   0  0  0  0  0  0  0  0  0  0  0  0
  151.7401  145.7027  160.0949 C   0  0  0  0  0  0  0  0  0  0  0  0
  150.9072  145.3509  158.9955 O   0  0  0  0  0  0  0  0  0  0  0  0
  151.5935  144.5345  158.0529 C   0  0  0  0  0  0  0  0  0  0  0  0
  152.0283  143.2214  158.7250 C   0  0  0  0  0  0  0  0  0  0  0  0
  154.1239  141.5170  159.7080 N   0  0  0  0  0  0  0  0  0  0  0  0
  154.7798  140.4766  160.2644 C   0  0  0  0  0  0  0  0  0  0  0  0
  153.6121  137.7456  165.5634 H   0  0  0  0  0  0  0  0  0  0  0  0
  155.2290  137.2851  165.0427 H   0  0  0  0  0  0  0  0  0  0  0  0
  154.0151  136.0480  165.3725 H   0  0  0  0  0  0  0  0  0  0  0  0
  152.6594  136.8552  163.3927 H   0  0  0  0  0  0  0  0  0  0  0  0
  153.8012  138.1538  163.1510 H   0  0  0  0  0  0  0  0  0  0  0  0
  153.4323  134.5767  163.3208 H   0  0  0  0  0  0  0  0  0  0  0  0
  154.4219  134.2588  161.9259 H   0  0  0  0  0  0  0  0  0  0  0  0
  155.4378  133.2474  163.9729 H   0  0  0  0  0  0  0  0  0  0  0  0
  155.5230  134.8279  164.7403 H   0  0  0  0  0  0  0  0  0  0  0  0
  156.5125  134.4790  163.3271 H   0  0  0  0  0  0  0  0  0  0  0  0
  156.8364  137.8482  161.0256 H   0  0  0  0  0  0  0  0  0  0  0  0
  155.0236  138.6469  163.0423 H   0  0  0  0  0  0  0  0  0  0  0  0
  156.5561  139.4062  162.6580 H   0  0  0  0  0  0  0  0  0  0  0  0
  154.3099  141.1142  163.5759 H   0  0  0  0  0  0  0  0  0  0  0  0
  153.1113  143.0411  162.5706 H   0  0  0  0  0  0  0  0  0  0  0  0
  151.3202  143.9419  161.2891 H   0  0  0  0  0  0  0  0  0  0  0  0
  152.8468  144.7162  161.6564 H   0  0  0  0  0  0  0  0  0  0  0  0
  151.1832  146.3558  160.7667 H   0  0  0  0  0  0  0  0  0  0  0  0
  152.6040  146.2696  159.7439 H   0  0  0  0  0  0  0  0  0  0  0  0
  150.9295  144.3249  157.2145 H   0  0  0  0  0  0  0  0  0  0  0  0
  152.4554  145.0697  157.6511 H   0  0  0  0  0  0  0  0  0  0  0  0
  152.6030  142.6261  158.0142 H   0  0  0  0  0  0  0  0  0  0  0  0
  151.1503  142.6377  159.0059 H   0  0  0  0  0  0  0  0  0  0  0  0
  155.2340  139.7787  159.5764 H   0  0  0  0  0  0  0  0  0  0  0  0
  1  2  1  0  0  0  0
  1 23  1  0  0  0  0
  1 24  1  0  0  0  0
  1 25  1  0  0  0  0
  2  3  1  0  0  0  0
  2 26  1  0  0  0  0
  2 27  1  0  0  0  0
  3  4  1  0  0  0  0
  3  6  1  0  0  0  0
  4  5  1  0  0  0  0
  4 28  1  0  0  0  0
  4 29  1  0  0  0  0
  5 30  1  0  0  0  0
  5 31  1  0  0  0  0
  5 32  1  0  0  0  0
  6  7  2  0  0  0  0
  6  8  2  0  0  0  0
  6  9  1  0  0  0  0
  9 10  1  0  0  0  0
  9 33  1  0  0  0  0
 10 11  1  0  0  0  0
 10 34  1  0  0  0  0
 10 35  1  0  0  0  0
 11 22  1  0  0  0  0
 11 12  2  0  0  0  0
 12 13  1  0  0  0  0
 12 36  1  0  0  0  0
 13 14  2  0  0  0  0
 13 37  1  0  0  0  0
 14 15  1  0  0  0  0
 14 21  1  0  0  0  0
 15 20  1  0  0  0  0
 15 16  1  0  0  0  0
 16 17  1  0  0  0  0
 16 38  1  0  0  0  0
 16 39  1  0  0  0  0
 17 18  1  0  0  0  0
 17 40  1  0  0  0  0
 17 41  1  0  0  0  0
 18 19  1  0  0  0  0
 19 20  1  0  0  0  0
 19 42  1  0  0  0  0
 19 43  1  0  0  0  0
 20 44  1  0  0  0  0
 20 45  1  0  0  0  0
 21 22  2  0  0  0  0
 22 46  1  0  0  0  0
M  END
> <s_m_source_file>
AV-unprocessed.smi

> <i_m_source_file_index>
2168

> <i_lp_mmshare_version>
43012

> <i_f3d_flags>
0

> <s_epik_input>
W0NIM11bQ0gyXU4oW0NIMl1bQ0gzXSlTKD1PKSg9TylbTkhdW0NIMl1jMVtjSF1bY0hdYyhuW2NIXTEpTjJbQ0gyXVtDSDJdT1tDSDJdW0NIMl0y

> <s_epik_cmdline>
J2VwaWtfcHl0aG9uJywgJy1waCcsICc3LjAnLCAnLXRuJywgJzgnLCAnLW1hJywgJzIwMCcsICctbWV0YWxfYmluZGluZycsICctaW1hZScsICc8aW5maWxlLm1hZT4nLCAnLW9tYWUnLCAnPG91dGZpbGUubWFlPic=

> <r_lp_tautomer_probability>
1

> <r_epik_Ionization_Penalty>
0.0173889

> <r_epik_Ionization_Penalty_Charging>
0

> <r_epik_Ionization_Penalty_Neutral>
0.0173889

> <r_epik_State_Penalty>
0.0135122

> <r_epik_Charging_Adjusted_Penalty>
0.0135122

> <i_epik_Tot_Q>
0

> <i_epik_Tot_abs_Q>
0

> <r_epik_Metal_State_Penalty>
0.283451

> <b_epik_Metal_Only>
0

> <s_lp_Force_Field>
OPLS_2005

> <r_lp_Energy>
21.8709

> <b_lp_Chiralities_Consistent>
1

> <s_lp_Variant>
AV-unprocessed.smi:2168-1

> <Gold.Version>
5.8.1

> <Gold.Id.Protein>
6NUR|6NUR_protein|mol2

> <Gold.PLP.Fitness>
44.7609

> <Gold.PLP.PLP>
-46.0606

> <Gold.PLP.part.hbond>
-0.2584

> <Gold.PLP.part.metal>
0.0000

> <Gold.PLP.part.buried>
-5.5032

> <Gold.PLP.part.nonpolar>
-41.2111

> <Gold.PLP.part.repulsive>
0.1667

> <Gold.PLP.ligand.clash>
0.0000

> <Gold.PLP.ligand.torsion>
2.6488

> <Gold.PLP.Chemscore.Hbond>
0.0000

> <Gold.PLP.Chemscore.CHOScore>
0.0000

> <Gold.PLP.Chemscore.Metal>
0.0000

> <Gold.PLP.Chemscore.Internal.Correction>
3.9979

> <Gold.Rescore>
     Score         DG    S(hbond)    S(metal)    S(lipo)     H(rot)  DE(clash)    DE(int)     intcor
     12.33     -14.97       0.00        0.00     118.66       1.72       0.08       2.55       ----

> <Gold.Chemscore.Fitness>
12.3285

> <Gold.Chemscore.DG>
-14.9657

> <Gold.Chemscore.ZeroCoef>
-5.4800

> <Gold.Chemscore.Hbond>
0.0000

> <Gold.Chemscore.Metal>
0.0000

> <Gold.Chemscore.Lipo>
118.6586

> <Gold.Chemscore.Internal_Hbond>
0.0000

> <Gold.Chemscore.DEClash>
0.0827

> <Gold.Chemscore.DEInternal>
2.5545

> <Gold.Chemscore.Rot>
1.7177

> <Gold.Chemscore.Internal.Correction>
   9.000000E+99

> <Gold.Chemscore.Hbond.Weighted>
-0.0000

> <Gold.Chemscore.Metal.Weighted>
-0.0000

> <Gold.Chemscore.Lipo.Weighted>
-13.8831

> <Gold.Chemscore.Internal_Hbond.Weighted>
0.0000

> <Gold.Chemscore.DEClash.Weighted>
0.0827

> <Gold.Chemscore.DEInternal.Weighted>
2.5545

> <Gold.Chemscore.Rot.Weighted>
4.3974

> <Gold.Chemscore.Internal.Correction.Weighted>
   9.000000E+99

> <Gold.Protein.RotatedTorsions>
[ 6907 6896 6895 6894 ] final -178.76 input  -60.11 | X-H torsion
[ 7974 7965 7964 7962 ] final  -89.85 input  175.53 | X-H torsion
[ 8008 7997 7996 7995 ] final   15.35 input   59.86 | X-H torsion
[ 10167 10162 10161 10158 ] final  -22.92 input  -65.29 | X-H torsion
[ 10718 10713 10712 10709 ] final -153.15 input   66.30 | X-H torsion
[ 10763 10752 10751 10750 ] final  -34.58 input  -60.55 | X-H torsion
[ 11005 11000 10999 10996 ] final   -2.78 input  -57.11 | X-H torsion

> <Gold.Protein.ActiveResidues>
 VAL166  LYS551  ARG553  GLY616  TRP617  ASP618  TYR619  PRO620  LYS621  CYS622 
 ASP623  PHE694  ASN695  SER759  ASP760  ASP761  ALA762  ILE779  LEU786  VAL792 
 PHE793  MET794  SER795  GLU796  ALA797  LYS798  CYS799  TRP800  GLU811  SER814 

> <Gold.Protein.RotatedAtoms>
  151.6425  133.3325  159.3133 H   0  0  0  0  0  0  0  0  0  0  0  0  # atno 6907 bound_to 6896
  150.8001  134.7092  159.6603 H   0  0  0  0  0  0  0  0  0  0  0  0  # atno 6908 bound_to 6896
  152.4092  134.6158  160.0089 H   0  0  0  0  0  0  0  0  0  0  0  0  # atno 6909 bound_to 6896
  145.4342  140.9557  143.2111 H   0  0  0  0  0  0  0  0  0  0  0  0  # atno 7974 bound_to 7965
  154.8614  140.2945  155.5537 H   0  0  0  0  0  0  0  0  0  0  0  0  # atno 8008 bound_to 7997
  156.3020  140.2477  156.3521 H   0  0  0  0  0  0  0  0  0  0  0  0  # atno 8009 bound_to 7997
  154.8915  140.0394  157.1830 H   0  0  0  0  0  0  0  0  0  0  0  0  # atno 8010 bound_to 7997
  140.7287  143.4490  151.0544 H   0  0  0  0  0  0  0  0  0  0  0  0  # atno 10167 bound_to 10162
  156.4819  130.8307  151.2534 H   0  0  0  0  0  0  0  0  0  0  0  0  # atno 10718 bound_to 10713
  153.8491  135.6850  153.4794 H   0  0  0  0  0  0  0  0  0  0  0  0  # atno 10763 bound_to 10752
  153.1408  135.4658  154.9490 H   0  0  0  0  0  0  0  0  0  0  0  0  # atno 10764 bound_to 10752
  154.7810  135.3269  154.7936 H   0  0  0  0  0  0  0  0  0  0  0  0  # atno 10765 bound_to 10752
  140.6621  133.9311  155.8443 H   0  0  0  0  0  0  0  0  0  0  0  0  # atno 11005 bound_to 11000
  144.8163  139.5871  143.7007 LP  0  0  0  0  0  0  0  0  0  0  0  0  # atno 17320 bound_to 7965
  146.2591  139.6368  142.9375 LP  0  0  0  0  0  0  0  0  0  0  0  0  # atno 17321 bound_to 7965
  139.8165  143.7879  152.3174 LP  0  0  0  0  0  0  0  0  0  0  0  0  # atno 17342 bound_to 10162
  139.7947  144.7397  150.9907 LP  0  0  0  0  0  0  0  0  0  0  0  0  # atno 17343 bound_to 10162
  157.7482  131.0042  150.3067 LP  0  0  0  0  0  0  0  0  0  0  0  0  # atno 17370 bound_to 10713
  156.3513  130.3831  149.7327 LP  0  0  0  0  0  0  0  0  0  0  0  0  # atno 17371 bound_to 10713
  141.0457  134.0557  157.3847 LP  0  0  0  0  0  0  0  0  0  0  0  0  # atno 17394 bound_to 11000
  139.9009  135.0164  156.7265 LP  0  0  0  0  0  0  0  0  0  0  0  0  # atno 17395 bound_to 11000

$$$$
