AV-unprocessed.smi:1198|AV-procd|sdf|5010|dock2
  -GOLD-   22720 4 23D 1   1.00000     0.00000
 Structure written by MMmdl.
 40 41  0  0  0  0  0  0  0  0  2 V2000
  151.7981  141.6117  158.0989 C   0  0  0  0  0  0  0  0  0  0  0  0
  151.5658  141.5387  156.6966 O   0  0  0  0  0  0  0  0  0  0  0  0
  151.1309  140.3416  156.1656 C   0  0  0  0  0  0  0  0  0  0  0  0
  151.2443  139.1762  156.9494 C   0  0  0  0  0  0  0  0  0  0  0  0
  150.8020  137.9503  156.4165 C   0  0  0  0  0  0  0  0  0  0  0  0
  150.2647  137.9277  155.1071 C   0  0  0  0  0  0  0  0  0  0  0  0
  149.7641  136.7624  154.4657 N   0  0  0  0  0  0  0  0  0  0  0  0
  149.5763  135.5360  154.9823 C   0  0  0  0  0  0  0  0  0  0  0  0
  149.8704  135.1909  156.1264 O   0  0  0  0  0  0  0  0  0  0  0  0
  149.0323  134.7080  154.0792 N   0  0  0  0  0  0  0  0  0  0  0  0
  148.7192  133.3012  154.3092 C   0  0  0  0  0  0  0  0  0  0  0  0
  148.2215  132.5910  153.0345 C   0  0  2  0  0  0  0  0  0  0  0  0
  146.9620  133.2096  152.4316 C   0  0  0  0  0  0  0  0  0  0  0  0
  146.3607  132.0867  151.5772 C   0  0  0  0  0  0  0  0  0  0  0  0
  146.9534  130.8181  152.0625 N   0  3  2  0  0  0  0  0  0  0  0  0
  145.9770  129.7338  152.2954 C   0  0  0  0  0  0  0  0  0  0  0  0
  147.8004  131.1336  153.2309 C   0  0  0  0  0  0  0  0  0  0  0  0
  150.1842  139.1514  154.4105 C   0  0  0  0  0  0  0  0  0  0  0  0
  150.6066  140.3296  154.9152 N   0  0  0  0  0  0  0  0  0  0  0  0
  152.1348  142.6157  158.3570 H   0  0  0  0  0  0  0  0  0  0  0  0
  152.5744  140.9122  158.4121 H   0  0  0  0  0  0  0  0  0  0  0  0
  150.8869  141.4129  158.6646 H   0  0  0  0  0  0  0  0  0  0  0  0
  151.6593  139.2225  157.9455 H   0  0  0  0  0  0  0  0  0  0  0  0
  150.8709  137.0630  157.0261 H   0  0  0  0  0  0  0  0  0  0  0  0
  149.5601  136.8660  153.4824 H   0  0  0  0  0  0  0  0  0  0  0  0
  148.8342  135.0738  153.1591 H   0  0  0  0  0  0  0  0  0  0  0  0
  149.6216  132.8145  154.6804 H   0  0  0  0  0  0  0  0  0  0  0  0
  147.9754  133.2172  155.1031 H   0  0  0  0  0  0  0  0  0  0  0  0
  149.0044  132.6212  152.2745 H   0  0  0  0  0  0  0  0  0  0  0  0
  146.2615  133.4776  153.2240 H   0  0  0  0  0  0  0  0  0  0  0  0
  147.1702  134.1111  151.8545 H   0  0  0  0  0  0  0  0  0  0  0  0
  145.2715  132.0899  151.6415 H   0  0  0  0  0  0  0  0  0  0  0  0
  146.6294  132.2114  150.5279 H   0  0  0  0  0  0  0  0  0  0  0  0
  145.2551  130.0137  153.0638 H   0  0  0  0  0  0  0  0  0  0  0  0
  146.4870  128.8253  152.6171 H   0  0  0  0  0  0  0  0  0  0  0  0
  145.4323  129.5086  151.3780 H   0  0  0  0  0  0  0  0  0  0  0  0
  148.6517  130.4555  153.2992 H   0  0  0  0  0  0  0  0  0  0  0  0
  147.2169  131.0366  154.1482 H   0  0  0  0  0  0  0  0  0  0  0  0
  149.7697  139.1880  153.4136 H   0  0  0  0  0  0  0  0  0  0  0  0
  147.5794  130.5068  151.3332 H   0  0  0  0  0  0  0  0  0  0  0  0
  1  2  1  0  0  0  0
  1 20  1  0  0  0  0
  1 21  1  0  0  0  0
  1 22  1  0  0  0  0
  2  3  1  0  0  0  0
  3 19  1  0  0  0  0
  3  4  2  0  0  0  0
  4  5  1  0  0  0  0
  4 23  1  0  0  0  0
  5  6  2  0  0  0  0
  5 24  1  0  0  0  0
  6  7  1  0  0  0  0
  6 18  1  0  0  0  0
  7  8  1  0  0  0  0
  7 25  1  0  0  0  0
  8  9  2  0  0  0  0
  8 10  1  0  0  0  0
 10 11  1  0  0  0  0
 10 26  1  0  0  0  0
 11 12  1  0  0  0  0
 11 27  1  0  0  0  0
 11 28  1  0  0  0  0
 12 17  1  0  0  0  0
 12 13  1  0  0  0  0
 12 29  1  0  0  0  0
 13 14  1  0  0  0  0
 13 30  1  0  0  0  0
 13 31  1  0  0  0  0
 14 15  1  0  0  0  0
 14 32  1  0  0  0  0
 14 33  1  0  0  0  0
 15 16  1  0  0  0  0
 15 17  1  0  0  0  0
 15 40  1  0  0  0  0
 16 34  1  0  0  0  0
 16 35  1  0  0  0  0
 16 36  1  0  0  0  0
 17 37  1  0  0  0  0
 17 38  1  0  0  0  0
 18 19  2  0  0  0  0
 18 39  1  0  0  0  0
M  CHG  1  15   1
M  END
> <s_m_source_file>
AV-unprocessed.smi

> <i_m_source_file_index>
1198

> <i_lp_mmshare_version>
43012

> <i_f3d_flags>
0

> <s_epik_input>
W0NIM11PYzFbY0hdW2NIXWMoW2NIXW4xKVtOSF1DKD1PKVtOSF1bQ0gyXVtDQEBIXTJbQ0gyXVtDSDJdTihbQ0gzXSlbQ0gyXTI=

> <s_epik_cmdline>
J2VwaWtfcHl0aG9uJywgJy1waCcsICc3LjAnLCAnLXRuJywgJzgnLCAnLW1hJywgJzIwMCcsICctbWV0YWxfYmluZGluZycsICctaW1hZScsICc8aW5maWxlLm1hZT4nLCAnLW9tYWUnLCAnPG91dGZpbGUubWFlPic=

> <r_lp_tautomer_probability>
1

> <r_epik_Ionization_Penalty>
0.00131396

> <r_epik_Ionization_Penalty_Charging>
0.0012301

> <r_epik_Ionization_Penalty_Neutral>
8.38549e-05

> <r_epik_State_Penalty>
0.00081314

> <r_epik_Charging_Adjusted_Penalty>
0.00204324

> <i_epik_Tot_Q>
1

> <i_epik_Tot_abs_Q>
1

> <r_epik_Metal_State_Penalty>
-0

> <b_epik_Metal_Only>
0

> <s_lp_Force_Field>
OPLS_2005

> <r_lp_Energy>
30.1161

> <b_lp_Chiralities_Consistent>
1

> <s_lp_Variant>
AV-unprocessed.smi:1198-1

> <Gold.Version>
5.8.1

> <Gold.Id.Protein>
6NUR|6NUR_protein|mol2

> <Gold.PLP.Fitness>
43.2130

> <Gold.PLP.PLP>
-28.8429

> <Gold.PLP.part.hbond>
-4.0000

> <Gold.PLP.part.metal>
0.0000

> <Gold.PLP.part.buried>
-1.2142

> <Gold.PLP.part.nonpolar>
-22.9885

> <Gold.PLP.part.repulsive>
0.1675

> <Gold.PLP.ligand.clash>
0.0193

> <Gold.PLP.ligand.torsion>
0.2260

> <Gold.PLP.Chemscore.Hbond>
3.9420

> <Gold.PLP.Chemscore.CHOScore>
1.0000

> <Gold.PLP.Chemscore.Metal>
0.0000

> <Gold.Chemscore.Hbonds>
donor molecule, donor type, donor heavy atom, donor atom, acceptor molecule, acceptor atom, score
      L1  H     7    25       P1  7948  1.00
      L1  H    10    26       P1  7948  1.00
      L1  H    15    40       P1 10747  0.99
      P1  H  7989  7998       L1    19  0.95
      L1  C    18    39       P1  7957  1.00

> <Gold.PLP.Chemscore.Internal.Correction>
0.0156

> <Gold.Rescore>
     Score         DG    S(hbond)    S(metal)    S(lipo)     H(rot)  DE(clash)    DE(int)     intcor
     17.44     -18.72       2.84        0.00      65.15       1.51       0.01       1.27       ----

> <Gold.Chemscore.Fitness>
17.4362

> <Gold.Chemscore.DG>
-18.7196

> <Gold.Chemscore.ZeroCoef>
-5.4800

> <Gold.Chemscore.Hbond>
2.8429

> <Gold.Chemscore.Metal>
0.0000

> <Gold.Chemscore.Lipo>
65.1487

> <Gold.Chemscore.Internal_Hbond>
0.0000

> <Gold.Chemscore.DEClash>
0.0144

> <Gold.Chemscore.DEInternal>
1.2689

> <Gold.Chemscore.Rot>
1.5149

> <Gold.Chemscore.Internal.Correction>
   9.000000E+99

> <Gold.Chemscore.Hbonds>
donor molecule, donor type, donor heavy atom, donor atom, acceptor molecule, acceptor atom, score
      L1  H     7    25       P1  7948  0.76
      L1  H    10    26       P1  7948  0.39
      L1  H    15    40       P1 10747  0.93
      P1  H  7989  7998       L1    19  0.21

> <Gold.Chemscore.Hbond.Weighted>
-9.4953

> <Gold.Chemscore.Metal.Weighted>
-0.0000

> <Gold.Chemscore.Lipo.Weighted>
-7.6224

> <Gold.Chemscore.Internal_Hbond.Weighted>
0.0000

> <Gold.Chemscore.DEClash.Weighted>
0.0144

> <Gold.Chemscore.DEInternal.Weighted>
1.2689

> <Gold.Chemscore.Rot.Weighted>
3.8781

> <Gold.Chemscore.Internal.Correction.Weighted>
   9.000000E+99

> <Gold.Protein.RotatedTorsions>
[ 6907 6896 6895 6894 ] final -172.86 input  -60.11 | X-H torsion
[ 7974 7965 7964 7962 ] final  137.72 input  175.53 | X-H torsion
[ 8008 7997 7996 7995 ] final  132.82 input   59.86 | X-H torsion
[ 10167 10162 10161 10158 ] final  125.79 input  -65.29 | X-H torsion
[ 10718 10713 10712 10709 ] final   17.67 input   66.30 | X-H torsion
[ 10763 10752 10751 10750 ] final   27.46 input  -60.55 | X-H torsion
[ 11005 11000 10999 10996 ] final   29.26 input  -57.11 | X-H torsion

> <Gold.Protein.ActiveResidues>
 VAL166  LYS551  ARG553  GLY616  TRP617  ASP618  TYR619  PRO620  LYS621  CYS622 
 ASP623  PHE694  ASN695  SER759  ASP760  ASP761  ALA762  ILE779  LEU786  VAL792 
 PHE793  MET794  SER795  GLU796  ALA797  LYS798  CYS799  TRP800  GLU811  SER814 

> <Gold.Protein.RotatedAtoms>
  151.5468  133.3424  159.2945 H   0  0  0  0  0  0  0  0  0  0  0  0  # atno 6907 bound_to 6896
  150.8502  134.7827  159.7014 H   0  0  0  0  0  0  0  0  0  0  0  0  # atno 6908 bound_to 6896
  152.4550  134.5319  159.9865 H   0  0  0  0  0  0  0  0  0  0  0  0  # atno 6909 bound_to 6896
  144.9441  139.4896  143.5558 H   0  0  0  0  0  0  0  0  0  0  0  0  # atno 7974 bound_to 7965
  156.2986  140.2537  156.3152 H   0  0  0  0  0  0  0  0  0  0  0  0  # atno 8008 bound_to 7997
  154.9288  140.0399  157.2056 H   0  0  0  0  0  0  0  0  0  0  0  0  # atno 8009 bound_to 7997
  154.8238  140.2864  155.5773 H   0  0  0  0  0  0  0  0  0  0  0  0  # atno 8010 bound_to 7997
  139.5666  144.6915  151.3893 H   0  0  0  0  0  0  0  0  0  0  0  0  # atno 10167 bound_to 10162
  157.0854  130.6405  149.5836 H   0  0  0  0  0  0  0  0  0  0  0  0  # atno 10718 bound_to 10713
  153.0554  135.6536  154.0589 H   0  0  0  0  0  0  0  0  0  0  0  0  # atno 10763 bound_to 10752
  154.0268  135.2915  155.3375 H   0  0  0  0  0  0  0  0  0  0  0  0  # atno 10764 bound_to 10752
  154.6867  135.5299  153.8403 H   0  0  0  0  0  0  0  0  0  0  0  0  # atno 10765 bound_to 10752
  140.3068  134.2694  155.7742 H   0  0  0  0  0  0  0  0  0  0  0  0  # atno 11005 bound_to 11000
  146.3297  139.8480  142.8878 LP  0  0  0  0  0  0  0  0  0  0  0  0  # atno 17320 bound_to 7965
  145.2946  141.0177  143.3643 LP  0  0  0  0  0  0  0  0  0  0  0  0  # atno 17321 bound_to 7965
  140.6950  143.7771  150.7312 LP  0  0  0  0  0  0  0  0  0  0  0  0  # atno 17342 bound_to 10162
  140.1265  143.4565  152.2281 LP  0  0  0  0  0  0  0  0  0  0  0  0  # atno 17343 bound_to 10162
  155.9912  130.4966  150.7290 LP  0  0  0  0  0  0  0  0  0  0  0  0  # atno 17370 bound_to 10713
  157.4766  131.0898  151.0584 LP  0  0  0  0  0  0  0  0  0  0  0  0  # atno 17371 bound_to 10713
  141.2116  133.7682  156.9849 LP  0  0  0  0  0  0  0  0  0  0  0  0  # atno 17394 bound_to 11000
  140.1060  134.9506  157.1994 LP  0  0  0  0  0  0  0  0  0  0  0  0  # atno 17395 bound_to 11000

$$$$
