AV-unprocessed.smi:290|AV-procd|sdf|2225|dock4
  -GOLD-   2262022 73D 1   1.00000     0.00000
 Structure written by MMmdl.
 59 62  0  0  0  0  0  0  0  0  2 V2000
  152.4206  143.5196  161.1811 C   0  0  0  0  0  0  0  0  0  0  0  0
  152.6641  143.3021  159.6787 C   0  0  2  0  0  0  0  0  0  0  0  0
  152.7299  144.5533  158.9951 O   0  0  0  0  0  0  0  0  0  0  0  0
  151.7310  144.6101  157.9873 C   0  0  0  0  0  0  0  0  0  0  0  0
  151.5184  143.1550  157.5919 C   0  0  0  0  0  0  0  0  0  0  0  0
  151.6275  142.4326  158.9280 C   0  0  2  0  0  0  0  0  0  0  0  0
  150.3612  142.4880  159.5660 O   0  0  0  0  0  0  0  0  0  0  0  0
  152.0538  140.9499  158.8094 C   0  0  0  0  0  0  0  0  0  0  0  0
  151.1536  140.1567  157.9877 N   0  0  0  0  0  0  0  0  0  0  0  0
  149.8479  139.8258  158.2759 C   0  0  0  0  0  0  0  0  0  0  0  0
  149.2479  139.0900  157.3796 N   0  0  0  0  0  0  0  0  0  0  0  0
  150.2117  138.9104  156.3961 C   0  0  0  0  0  0  0  0  0  0  0  0
  150.2355  138.2238  155.1554 C   0  0  0  0  0  0  0  0  0  0  0  0
  149.1564  137.5476  154.7035 N   0  0  0  0  0  0  0  0  0  0  0  0
  147.8860  138.2224  154.9173 C   0  0  0  0  0  0  0  0  0  0  0  0
  146.8076  137.1680  154.6438 C   0  0  0  0  0  0  0  0  0  0  0  0
  147.5309  135.8122  154.8043 C   0  0  1  0  0  0  0  0  0  0  0  0
  147.4386  134.9008  153.6208 N   0  3  2  0  0  0  0  0  0  0  0  0
  146.1818  134.9972  152.8344 C   0  0  0  0  0  0  0  0  0  0  0  0
  147.7973  133.4916  153.9233 C   0  0  0  0  0  0  0  0  0  0  0  0
  148.3626  132.7552  152.6965 C   0  0  0  0  0  0  0  0  0  0  0  0
  148.5771  131.3944  153.0069 O   0  0  0  0  0  0  0  0  0  0  0  0
  148.9732  136.1914  155.2016 C   0  0  1  0  0  0  0  0  0  0  0  0
  150.0942  135.2100  154.8037 C   0  0  0  0  0  0  0  0  0  0  0  0
  151.3804  138.2661  154.4241 N   0  0  0  0  0  0  0  0  0  0  0  0
  152.4398  138.9391  154.8847 C   0  0  0  0  0  0  0  0  0  0  0  0
  152.5634  139.6221  156.0253 N   0  0  0  0  0  0  0  0  0  0  0  0
  151.4130  139.5800  156.7569 C   0  0  0  0  0  0  0  0  0  0  0  0
  147.1054  135.2897  155.6606 H   0  0  0  0  0  0  0  0  0  0  0  0
  148.9839  136.2500  156.2915 H   0  0  0  0  0  0  0  0  0  0  0  0
  152.3481  142.5680  161.7082 H   0  0  0  0  0  0  0  0  0  0  0  0
  151.5020  144.0783  161.3628 H   0  0  0  0  0  0  0  0  0  0  0  0
  153.2394  144.0846  161.6266 H   0  0  0  0  0  0  0  0  0  0  0  0
  153.6518  142.8548  159.5589 H   0  0  0  0  0  0  0  0  0  0  0  0
  150.8185  145.0327  158.4102 H   0  0  0  0  0  0  0  0  0  0  0  0
  152.0411  145.2349  157.1496 H   0  0  0  0  0  0  0  0  0  0  0  0
  150.5737  142.9852  157.0734 H   0  0  0  0  0  0  0  0  0  0  0  0
  152.3260  142.8445  156.9275 H   0  0  0  0  0  0  0  0  0  0  0  0
  150.3636  141.8827  160.2916 H   0  0  0  0  0  0  0  0  0  0  0  0
  153.0529  140.8773  158.3775 H   0  0  0  0  0  0  0  0  0  0  0  0
  152.1153  140.4937  159.7985 H   0  0  0  0  0  0  0  0  0  0  0  0
  149.3537  140.1438  159.1826 H   0  0  0  0  0  0  0  0  0  0  0  0
  147.8107  138.5790  155.9459 H   0  0  0  0  0  0  0  0  0  0  0  0
  147.7819  139.0821  154.2546 H   0  0  0  0  0  0  0  0  0  0  0  0
  145.9836  137.2673  155.3510 H   0  0  0  0  0  0  0  0  0  0  0  0
  146.3818  137.3132  153.6529 H   0  0  0  0  0  0  0  0  0  0  0  0
  145.3618  134.4589  153.3093 H   0  0  0  0  0  0  0  0  0  0  0  0
  146.3315  134.5557  151.8485 H   0  0  0  0  0  0  0  0  0  0  0  0
  145.8674  136.0289  152.6822 H   0  0  0  0  0  0  0  0  0  0  0  0
  148.5120  133.4660  154.7471 H   0  0  0  0  0  0  0  0  0  0  0  0
  146.9167  132.9484  154.2712 H   0  0  0  0  0  0  0  0  0  0  0  0
  147.7088  132.8331  151.8284 H   0  0  0  0  0  0  0  0  0  0  0  0
  149.3186  133.1952  152.4114 H   0  0  0  0  0  0  0  0  0  0  0  0
  148.8493  130.9445  152.2210 H   0  0  0  0  0  0  0  0  0  0  0  0
  149.8725  134.2025  155.1563 H   0  0  0  0  0  0  0  0  0  0  0  0
  151.0460  135.5052  155.2462 H   0  0  0  0  0  0  0  0  0  0  0  0
  150.2423  135.1635  153.7255 H   0  0  0  0  0  0  0  0  0  0  0  0
  153.3144  138.9281  154.2509 H   0  0  0  0  0  0  0  0  0  0  0  0
  148.1619  135.2171  152.9903 H   0  0  0  0  0  0  0  0  0  0  0  0
  1  2  1  0  0  0  0
  1 31  1  0  0  0  0
  1 32  1  0  0  0  0
  1 33  1  0  0  0  0
  2  6  1  0  0  0  0
  2  3  1  0  0  0  0
  2 34  1  0  0  0  0
  3  4  1  0  0  0  0
  4  5  1  0  0  0  0
  4 35  1  0  0  0  0
  4 36  1  0  0  0  0
  5  6  1  0  0  0  0
  5 37  1  0  0  0  0
  5 38  1  0  0  0  0
  6  7  1  0  0  0  0
  6  8  1  0  0  0  0
  7 39  1  0  0  0  0
  8  9  1  0  0  0  0
  8 40  1  0  0  0  0
  8 41  1  0  0  0  0
  9 28  1  0  0  0  0
  9 10  1  0  0  0  0
 10 11  2  0  0  0  0
 10 42  1  0  0  0  0
 11 12  1  0  0  0  0
 12 28  2  0  0  0  0
 12 13  1  0  0  0  0
 13 14  1  0  0  0  0
 13 25  2  0  0  0  0
 14 23  1  0  0  0  0
 14 15  1  0  0  0  0
 15 16  1  0  0  0  0
 15 43  1  0  0  0  0
 15 44  1  0  0  0  0
 16 17  1  0  0  0  0
 16 45  1  0  0  0  0
 16 46  1  0  0  0  0
 17 29  1  0  0  0  0
 17 18  1  0  0  0  0
 17 23  1  0  0  0  0
 18 19  1  0  0  0  0
 18 20  1  0  0  0  0
 18 59  1  0  0  0  0
 19 47  1  0  0  0  0
 19 48  1  0  0  0  0
 19 49  1  0  0  0  0
 20 21  1  0  0  0  0
 20 50  1  0  0  0  0
 20 51  1  0  0  0  0
 21 22  1  0  0  0  0
 21 52  1  0  0  0  0
 21 53  1  0  0  0  0
 22 54  1  0  0  0  0
 23 30  1  0  0  0  0
 23 24  1  0  0  0  0
 24 55  1  0  0  0  0
 24 56  1  0  0  0  0
 24 57  1  0  0  0  0
 25 26  1  0  0  0  0
 26 27  2  0  0  0  0
 26 58  1  0  0  0  0
 27 28  1  0  0  0  0
M  CHG  1  18   1
M  END
> <s_m_source_file>
AV-unprocessed.smi

> <i_m_source_file_index>
290

> <i_lp_mmshare_version>
43012

> <i_f3d_flags>
0

> <s_epik_input>
W0NIMl0xW0NIMl1PW0NAQEhdKFtDSDNdKVtDQEBdMShbT0hdKVtDSDJdbihbY0hdbjIpYyhjMjMpbltjSF1uYzNONFtDSDJdW0NIMl1bQ0BIXShbQ0BIXTRbQ0gzXSlOKFtDSDNdKVtDSDJdW0NIMl1bT0hd

> <s_epik_cmdline>
J2VwaWtfcHl0aG9uJywgJy1waCcsICc3LjAnLCAnLXRuJywgJzgnLCAnLW1hJywgJzIwMCcsICctbWV0YWxfYmluZGluZycsICctaW1hZScsICc8aW5maWxlLm1hZT4nLCAnLW9tYWUnLCAnPG91dGZpbGUubWFlPic=

> <r_lp_tautomer_probability>
1

> <r_epik_Ionization_Penalty>
0.0036983

> <r_epik_Ionization_Penalty_Charging>
0.0032725

> <r_epik_Ionization_Penalty_Neutral>
0.000425798

> <r_epik_State_Penalty>
-0

> <r_epik_Charging_Adjusted_Penalty>
0.0032725

> <i_epik_Tot_Q>
1

> <i_epik_Tot_abs_Q>
1

> <r_epik_Metal_State_Penalty>
-0

> <b_epik_Metal_Only>
0

> <s_lp_Force_Field>
OPLS_2005

> <r_lp_Energy>
70.3682

> <b_lp_Chiralities_Consistent>
1

> <s_lp_Variant>
AV-unprocessed.smi:290-11

> <Gold.Version>
5.8.1

> <Gold.Id.Protein>
6NUR|6NUR_protein|mol2

> <Gold.PLP.Fitness>
51.1848

> <Gold.PLP.PLP>
-41.6487

> <Gold.PLP.part.hbond>
-4.0000

> <Gold.PLP.part.metal>
0.0000

> <Gold.PLP.part.buried>
-5.3413

> <Gold.PLP.part.nonpolar>
-32.3537

> <Gold.PLP.part.repulsive>
0.4633

> <Gold.PLP.ligand.clash>
0.0000

> <Gold.PLP.ligand.torsion>
1.3290

> <Gold.PLP.Chemscore.Hbond>
3.9920

> <Gold.PLP.Chemscore.CHOScore>
0.0000

> <Gold.PLP.Chemscore.Metal>
0.0000

> <Gold.Chemscore.Hbonds>
donor molecule, donor type, donor heavy atom, donor atom, acceptor molecule, acceptor atom, score
      L1  H    18    59       P1  7948  2.00
      L1  H    22    54       P1 10747  1.00
      P1  H  7997  8010       L1    27  1.00

> <Gold.PLP.Chemscore.Internal.Correction>
0.2182

> <Gold.Rescore>
     Score         DG    S(hbond)    S(metal)    S(lipo)     H(rot)  DE(clash)    DE(int)     intcor
     12.49     -16.49       2.84        0.00      93.27       3.67       0.02       3.97       ----

> <Gold.Chemscore.Fitness>
12.4926

> <Gold.Chemscore.DG>
-16.4862

> <Gold.Chemscore.ZeroCoef>
-5.4800

> <Gold.Chemscore.Hbond>
2.8379

> <Gold.Chemscore.Metal>
0.0000

> <Gold.Chemscore.Lipo>
93.2663

> <Gold.Chemscore.Internal_Hbond>
0.0000

> <Gold.Chemscore.DEClash>
0.0190

> <Gold.Chemscore.DEInternal>
3.9746

> <Gold.Chemscore.Rot>
3.6658

> <Gold.Chemscore.Internal.Correction>
   9.000000E+99

> <Gold.Chemscore.Hbonds>
donor molecule, donor type, donor heavy atom, donor atom, acceptor molecule, acceptor atom, score
      L1  H    18    59       P1  7948  0.98
      L1  H    22    54       P1 10747  0.63
      P1  H  7997  8010       L1    27  0.60

> <Gold.Chemscore.Hbond.Weighted>
-9.4785

> <Gold.Chemscore.Metal.Weighted>
-0.0000

> <Gold.Chemscore.Lipo.Weighted>
-10.9122

> <Gold.Chemscore.Internal_Hbond.Weighted>
0.0000

> <Gold.Chemscore.DEClash.Weighted>
0.0190

> <Gold.Chemscore.DEInternal.Weighted>
3.9746

> <Gold.Chemscore.Rot.Weighted>
9.3844

> <Gold.Chemscore.Internal.Correction.Weighted>
   9.000000E+99

> <Gold.Protein.RotatedTorsions>
[ 6907 6896 6895 6894 ] final   99.23 input  -60.11 | X-H torsion
[ 7974 7965 7964 7962 ] final -158.82 input  175.53 | X-H torsion
[ 8008 7997 7996 7995 ] final   88.80 input   59.86 | X-H torsion
[ 10167 10162 10161 10158 ] final   61.73 input  -65.29 | X-H torsion
[ 10718 10713 10712 10709 ] final  153.86 input   66.30 | X-H torsion
[ 10763 10752 10751 10750 ] final  -92.67 input  -60.55 | X-H torsion
[ 11005 11000 10999 10996 ] final  -28.86 input  -57.11 | X-H torsion

> <Gold.Protein.ActiveResidues>
 VAL166  LYS551  ARG553  GLY616  TRP617  ASP618  TYR619  PRO620  LYS621  CYS622 
 ASP623  PHE694  ASN695  SER759  ASP760  ASP761  ALA762  ILE779  LEU786  VAL792 
 PHE793  MET794  SER795  GLU796  ALA797  LYS798  CYS799  TRP800  GLU811  SER814 

> <Gold.Protein.RotatedAtoms>
  152.5396  134.0460  159.8088 H   0  0  0  0  0  0  0  0  0  0  0  0  # atno 6907 bound_to 6896
  151.0609  133.5538  159.2641 H   0  0  0  0  0  0  0  0  0  0  0  0  # atno 6908 bound_to 6896
  151.2437  135.0606  159.9089 H   0  0  0  0  0  0  0  0  0  0  0  0  # atno 6909 bound_to 6896
  144.7490  140.3773  143.6063 H   0  0  0  0  0  0  0  0  0  0  0  0  # atno 7974 bound_to 7965
  155.9922  140.3367  155.6764 H   0  0  0  0  0  0  0  0  0  0  0  0  # atno 8008 bound_to 7997
  155.6405  140.0694  157.2638 H   0  0  0  0  0  0  0  0  0  0  0  0  # atno 8009 bound_to 7997
  154.4223  140.1743  156.1555 H   0  0  0  0  0  0  0  0  0  0  0  0  # atno 8010 bound_to 7997
  140.1516  144.4457  150.6756 H   0  0  0  0  0  0  0  0  0  0  0  0  # atno 10167 bound_to 10162
  157.2392  131.0755  151.1803 H   0  0  0  0  0  0  0  0  0  0  0  0  # atno 10718 bound_to 10713
  154.6884  135.5222  153.8358 H   0  0  0  0  0  0  0  0  0  0  0  0  # atno 10763 bound_to 10752
  153.0614  135.6569  154.0463 H   0  0  0  0  0  0  0  0  0  0  0  0  # atno 10764 bound_to 10752
  154.0341  135.2983  155.3344 H   0  0  0  0  0  0  0  0  0  0  0  0  # atno 10765 bound_to 10752
  140.9245  133.7377  156.0848 H   0  0  0  0  0  0  0  0  0  0  0  0  # atno 11005 bound_to 11000
  145.7014  139.1662  143.2590 LP  0  0  0  0  0  0  0  0  0  0  0  0  # atno 17320 bound_to 7965
  146.1413  140.7054  142.9366 LP  0  0  0  0  0  0  0  0  0  0  0  0  # atno 17321 bound_to 7965
  140.6699  143.2281  151.5652 LP  0  0  0  0  0  0  0  0  0  0  0  0  # atno 17342 bound_to 10162
  139.5423  144.2614  152.1375 LP  0  0  0  0  0  0  0  0  0  0  0  0  # atno 17343 bound_to 10162
  157.3397  130.7027  149.6374 LP  0  0  0  0  0  0  0  0  0  0  0  0  # atno 17370 bound_to 10713
  155.9671  130.4283  150.4784 LP  0  0  0  0  0  0  0  0  0  0  0  0  # atno 17371 bound_to 10713
  140.7944  134.3581  157.5456 LP  0  0  0  0  0  0  0  0  0  0  0  0  # atno 17394 bound_to 11000
  139.8782  134.9160  156.3143 LP  0  0  0  0  0  0  0  0  0  0  0  0  # atno 17395 bound_to 11000

$$$$
