AV-unprocessed.smi:2295|AV-procd|sdf|9219|dock5
  -GOLD-   2272012433D 1   1.00000     0.00000
 Structure written by MMmdl.
 37 38  0  0  0  0  0  0  0  0  1 V2000
  142.0346  133.9037  152.6028 C   0  0  0  0  0  0  0  0  0  0  0  0
  143.4032  133.9102  151.9547 C   0  0  0  0  0  0  0  0  0  0  0  0
  143.8062  132.8630  151.1042 C   0  0  0  0  0  0  0  0  0  0  0  0
  145.0917  132.9291  150.5314 C   0  0  0  0  0  0  0  0  0  0  0  0
  145.5905  131.8375  149.6081 C   0  0  0  0  0  0  0  0  0  0  0  0
  145.9496  133.9460  150.7618 N   0  0  0  0  0  0  0  0  0  0  0  0
  145.5721  134.9604  151.5791 C   0  0  0  0  0  0  0  0  0  0  0  0
  146.3963  136.0761  151.8841 N   0  0  0  0  0  0  0  0  0  0  0  0
  146.0252  137.2837  152.3448 C   0  0  0  0  0  0  0  0  0  0  0  0
  144.8668  137.6361  152.5684 O   0  0  0  0  0  0  0  0  0  0  0  0
  147.0904  138.0762  152.5341 N   0  0  0  0  0  0  0  0  0  0  0  0
  147.0510  139.4458  153.0380 C   0  0  0  0  0  0  0  0  0  0  0  0
  147.9289  139.6264  154.2897 C   0  0  1  0  0  0  0  0  0  0  0  0
  149.3887  139.1822  154.1106 C   0  0  0  0  0  0  0  0  0  0  0  0
  150.2043  139.8968  155.1885 C   0  0  0  0  0  0  0  0  0  0  0  0
  149.7452  141.3552  155.1789 C   0  0  0  0  0  0  0  0  0  0  0  0
  147.9676  141.3580  154.8320 S   0  0  0  0  0  0  0  0  0  0  0  0
  144.3000  134.9707  152.1944 C   0  0  0  0  0  0  0  0  0  0  0  0
  141.4430  133.0495  152.2723 H   0  0  0  0  0  0  0  0  0  0  0  0
  141.4911  134.8135  152.3470 H   0  0  0  0  0  0  0  0  0  0  0  0
  142.1307  133.8536  153.6876 H   0  0  0  0  0  0  0  0  0  0  0  0
  143.1482  132.0315  150.8965 H   0  0  0  0  0  0  0  0  0  0  0  0
  144.8095  131.1048  149.4031 H   0  0  0  0  0  0  0  0  0  0  0  0
  146.4359  131.3178  150.0595 H   0  0  0  0  0  0  0  0  0  0  0  0
  145.9149  132.2621  148.6576 H   0  0  0  0  0  0  0  0  0  0  0  0
  147.3859  135.9337  151.7472 H   0  0  0  0  0  0  0  0  0  0  0  0
  148.0028  137.7007  152.3215 H   0  0  0  0  0  0  0  0  0  0  0  0
  147.3361  140.1592  152.2629 H   0  0  0  0  0  0  0  0  0  0  0  0
  146.0134  139.6695  153.2875 H   0  0  0  0  0  0  0  0  0  0  0  0
  147.4969  139.0601  155.1159 H   0  0  0  0  0  0  0  0  0  0  0  0
  149.4943  138.0989  154.1770 H   0  0  0  0  0  0  0  0  0  0  0  0
  149.7528  139.4832  153.1274 H   0  0  0  0  0  0  0  0  0  0  0  0
  149.9926  139.4511  156.1612 H   0  0  0  0  0  0  0  0  0  0  0  0
  151.2771  139.8084  155.0158 H   0  0  0  0  0  0  0  0  0  0  0  0
  149.9642  141.8633  156.1185 H   0  0  0  0  0  0  0  0  0  0  0  0
  150.2480  141.9007  154.3798 H   0  0  0  0  0  0  0  0  0  0  0  0
  144.0109  135.7845  152.8437 H   0  0  0  0  0  0  0  0  0  0  0  0
  1  2  1  0  0  0  0
  1 19  1  0  0  0  0
  1 20  1  0  0  0  0
  1 21  1  0  0  0  0
  2 18  1  0  0  0  0
  2  3  2  0  0  0  0
  3  4  1  0  0  0  0
  3 22  1  0  0  0  0
  4  5  1  0  0  0  0
  4  6  2  0  0  0  0
  5 23  1  0  0  0  0
  5 24  1  0  0  0  0
  5 25  1  0  0  0  0
  6  7  1  0  0  0  0
  7  8  1  0  0  0  0
  7 18  2  0  0  0  0
  8  9  1  0  0  0  0
  8 26  1  0  0  0  0
  9 10  2  0  0  0  0
  9 11  1  0  0  0  0
 11 12  1  0  0  0  0
 11 27  1  0  0  0  0
 12 13  1  0  0  0  0
 12 28  1  0  0  0  0
 12 29  1  0  0  0  0
 13 17  1  0  0  0  0
 13 14  1  0  0  0  0
 13 30  1  0  0  0  0
 14 15  1  0  0  0  0
 14 31  1  0  0  0  0
 14 32  1  0  0  0  0
 15 16  1  0  0  0  0
 15 33  1  0  0  0  0
 15 34  1  0  0  0  0
 16 17  1  0  0  0  0
 16 35  1  0  0  0  0
 16 36  1  0  0  0  0
 18 37  1  0  0  0  0
M  END
> <s_m_source_file>
AV-unprocessed.smi

> <i_m_source_file_index>
2295

> <i_lp_mmshare_version>
43012

> <i_f3d_flags>
0

> <s_epik_input>
W0NIM11jMVtjSF1jKFtDSDNdKW5jKFtjSF0xKVtOSF1DKD1PKVtOSF1bQ0gyXVtDQEBIXTJbQ0gyXVtDSDJdW0NIMl1TMg==

> <s_epik_cmdline>
J2VwaWtfcHl0aG9uJywgJy1waCcsICc3LjAnLCAnLXRuJywgJzgnLCAnLW1hJywgJzIwMCcsICctbWV0YWxfYmluZGluZycsICctaW1hZScsICc8aW5maWxlLm1hZT4nLCAnLW9tYWUnLCAnPG91dGZpbGUubWFlPic=

> <r_lp_tautomer_probability>
1

> <r_epik_Ionization_Penalty>
0.000247769

> <r_epik_Ionization_Penalty_Charging>
0

> <r_epik_Ionization_Penalty_Neutral>
0.000247769

> <r_epik_State_Penalty>
-0

> <r_epik_Charging_Adjusted_Penalty>
0

> <i_epik_Tot_Q>
0

> <i_epik_Tot_abs_Q>
0

> <r_epik_Metal_State_Penalty>
-0

> <b_epik_Metal_Only>
0

> <s_lp_Force_Field>
OPLS_2005

> <r_lp_Energy>
14.3156

> <b_lp_Chiralities_Consistent>
1

> <s_lp_Variant>
AV-unprocessed.smi:2295-2

> <Gold.Version>
5.8.1

> <Gold.Id.Protein>
6NUR|6NUR_protein|mol2

> <Gold.PLP.Fitness>
38.8607

> <Gold.PLP.PLP>
-33.2532

> <Gold.PLP.part.hbond>
-1.9975

> <Gold.PLP.part.metal>
0.0000

> <Gold.PLP.part.buried>
-2.6528

> <Gold.PLP.part.nonpolar>
-30.4303

> <Gold.PLP.part.repulsive>
1.3716

> <Gold.PLP.ligand.clash>
0.0000

> <Gold.PLP.ligand.torsion>
0.1128

> <Gold.PLP.Chemscore.Hbond>
1.9440

> <Gold.PLP.Chemscore.CHOScore>
0.0000

> <Gold.PLP.Chemscore.Metal>
0.0000

> <Gold.Chemscore.Hbonds>
donor molecule, donor type, donor heavy atom, donor atom, acceptor molecule, acceptor atom, score
      L1  H     8    26       P1  7948  1.00
      L1  H    11    27       P1  7948  0.94

> <Gold.PLP.Chemscore.Internal.Correction>
0.0012

> <Gold.Rescore>
     Score         DG    S(hbond)    S(metal)    S(lipo)     H(rot)  DE(clash)    DE(int)     intcor
     17.00     -18.83       1.95        0.00      83.92       1.17       0.27       1.56       ----

> <Gold.Chemscore.Fitness>
17.0020

> <Gold.Chemscore.DG>
-18.8288

> <Gold.Chemscore.ZeroCoef>
-5.4800

> <Gold.Chemscore.Hbond>
1.9543

> <Gold.Chemscore.Metal>
0.0000

> <Gold.Chemscore.Lipo>
83.9224

> <Gold.Chemscore.Internal_Hbond>
0.0000

> <Gold.Chemscore.DEClash>
0.2685

> <Gold.Chemscore.DEInternal>
1.5583

> <Gold.Chemscore.Rot>
1.1709

> <Gold.Chemscore.Internal.Correction>
   9.000000E+99

> <Gold.Chemscore.Hbonds>
donor molecule, donor type, donor heavy atom, donor atom, acceptor molecule, acceptor atom, score
      L1  H     8    26       P1  7948  0.96
      L1  H    11    27       P1  7948  0.91

> <Gold.Chemscore.Hbond.Weighted>
-6.5274

> <Gold.Chemscore.Metal.Weighted>
-0.0000

> <Gold.Chemscore.Lipo.Weighted>
-9.8189

> <Gold.Chemscore.Internal_Hbond.Weighted>
0.0000

> <Gold.Chemscore.DEClash.Weighted>
0.2685

> <Gold.Chemscore.DEInternal.Weighted>
1.5583

> <Gold.Chemscore.Rot.Weighted>
2.9975

> <Gold.Chemscore.Internal.Correction.Weighted>
   9.000000E+99

> <Gold.Protein.RotatedTorsions>
[ 6907 6896 6895 6894 ] final  112.32 input  -60.11 | X-H torsion
[ 7974 7965 7964 7962 ] final    2.46 input  175.53 | X-H torsion
[ 8008 7997 7996 7995 ] final   28.95 input   59.86 | X-H torsion
[ 10167 10162 10161 10158 ] final -137.04 input  -65.29 | X-H torsion
[ 10718 10713 10712 10709 ] final -174.57 input   66.30 | X-H torsion
[ 10763 10752 10751 10750 ] final  -35.76 input  -60.55 | X-H torsion
[ 11005 11000 10999 10996 ] final  -84.33 input  -57.11 | X-H torsion

> <Gold.Protein.ActiveResidues>
 VAL166  LYS551  ARG553  GLY616  TRP617  ASP618  TYR619  PRO620  LYS621  CYS622 
 ASP623  PHE694  ASN695  SER759  ASP760  ASP761  ALA762  ILE779  LEU786  VAL792 
 PHE793  MET794  SER795  GLU796  ALA797  LYS798  CYS799  TRP800  GLU811  SER814 

> <Gold.Protein.RotatedAtoms>
  152.4923  133.8533  159.7212 H   0  0  0  0  0  0  0  0  0  0  0  0  # atno 6907 bound_to 6896
  150.9064  133.7043  159.2872 H   0  0  0  0  0  0  0  0  0  0  0  0  # atno 6908 bound_to 6896
  151.4467  135.1030  159.9738 H   0  0  0  0  0  0  0  0  0  0  0  0  # atno 6909 bound_to 6896
  146.2444  140.0832  142.8356 H   0  0  0  0  0  0  0  0  0  0  0  0  # atno 7974 bound_to 7965
  155.0668  140.3196  155.4643 H   0  0  0  0  0  0  0  0  0  0  0  0  # atno 8008 bound_to 7997
  156.2800  140.2119  156.5740 H   0  0  0  0  0  0  0  0  0  0  0  0  # atno 8009 bound_to 7997
  154.7087  140.0500  157.0517 H   0  0  0  0  0  0  0  0  0  0  0  0  # atno 8010 bound_to 7997
  139.8617  143.7068  152.2649 H   0  0  0  0  0  0  0  0  0  0  0  0  # atno 10167 bound_to 10162
  156.7870  130.9504  151.3120 H   0  0  0  0  0  0  0  0  0  0  0  0  # atno 10718 bound_to 10713
  153.8686  135.6833  153.4776 H   0  0  0  0  0  0  0  0  0  0  0  0  # atno 10763 bound_to 10752
  153.1300  135.4702  154.9332 H   0  0  0  0  0  0  0  0  0  0  0  0  # atno 10764 bound_to 10752
  154.7725  135.3243  154.8111 H   0  0  0  0  0  0  0  0  0  0  0  0  # atno 10765 bound_to 10752
  141.1651  133.7340  156.8852 H   0  0  0  0  0  0  0  0  0  0  0  0  # atno 11005 bound_to 11000
  145.0715  140.9158  143.4879 LP  0  0  0  0  0  0  0  0  0  0  0  0  # atno 17320 bound_to 7965
  145.0967  139.2851  143.5707 LP  0  0  0  0  0  0  0  0  0  0  0  0  # atno 17321 bound_to 7965
  139.7367  144.7569  151.0716 LP  0  0  0  0  0  0  0  0  0  0  0  0  # atno 17342 bound_to 10162
  140.7774  143.5022  150.9757 LP  0  0  0  0  0  0  0  0  0  0  0  0  # atno 17343 bound_to 10162
  157.6619  130.8973  149.9848 LP  0  0  0  0  0  0  0  0  0  0  0  0  # atno 17370 bound_to 10713
  156.1182  130.3647  149.9931 LP  0  0  0  0  0  0  0  0  0  0  0  0  # atno 17371 bound_to 10713
  140.1687  134.9115  157.2806 LP  0  0  0  0  0  0  0  0  0  0  0  0  # atno 17394 bound_to 11000
  140.2527  134.3664  155.7436 LP  0  0  0  0  0  0  0  0  0  0  0  0  # atno 17395 bound_to 11000

$$$$
