AV-unprocessed.smi:2489|AV-procd|sdf|9800|dock1
  -GOLD-   2272013433D 1   1.00000     0.00000
 Structure written by MMmdl.
 33 34  0  0  0  0  0  0  0  0  1 V2000
  151.8581  145.0257  160.4113 C   0  0  0  0  0  0  0  0  0  0  0  0
  151.1813  143.7768  160.4031 O   0  0  0  0  0  0  0  0  0  0  0  0
  151.8869  142.6751  159.9772 C   0  0  0  0  0  0  0  0  0  0  0  0
  153.0059  142.1007  160.7203 C   0  0  0  0  0  0  0  0  0  0  0  0
  153.6233  141.0256  160.2085 C   0  0  0  0  0  0  0  0  0  0  0  0
  153.2348  140.4508  159.0073 N   0  0  0  0  0  0  0  0  0  0  0  0
  152.1668  140.9505  158.2409 C   0  0  0  0  0  0  0  0  0  0  0  0
  151.7543  140.4580  157.1091 N   0  0  0  0  0  0  0  0  0  0  0  0
  152.3492  139.3510  156.5092 C   0  0  0  0  0  0  0  0  0  0  0  0
  153.2110  138.5883  156.9557 O   0  0  0  0  0  0  0  0  0  0  0  0
  151.8081  139.1156  155.0925 C   0  0  1  0  0  0  0  0  0  0  0  0
  151.0322  137.7938  154.9537 C   0  0  0  0  0  0  0  0  0  0  0  0
  149.5956  138.2399  154.7679 C   0  0  0  0  0  0  0  0  0  0  0  0
  149.7720  139.5867  154.0767 C   0  0  1  0  0  0  0  0  0  0  0  0
  148.5508  140.5068  154.1769 C   0  0  0  0  0  0  0  0  0  0  0  0
  150.8791  140.1498  154.7635 O   0  0  0  0  0  0  0  0  0  0  0  0
  151.5019  142.1170  158.8054 C   0  0  0  0  0  0  0  0  0  0  0  0
  151.1774  145.7993  160.7664 H   0  0  0  0  0  0  0  0  0  0  0  0
  152.1844  145.3111  159.4102 H   0  0  0  0  0  0  0  0  0  0  0  0
  152.7173  145.0116  161.0834 H   0  0  0  0  0  0  0  0  0  0  0  0
  153.3488  142.5068  161.6597 H   0  0  0  0  0  0  0  0  0  0  0  0
  154.4568  140.5366  160.6906 H   0  0  0  0  0  0  0  0  0  0  0  0
  152.6299  139.1443  154.3749 H   0  0  0  0  0  0  0  0  0  0  0  0
  151.3756  137.2573  154.0682 H   0  0  0  0  0  0  0  0  0  0  0  0
  151.1413  137.1220  155.8066 H   0  0  0  0  0  0  0  0  0  0  0  0
  149.0011  137.5351  154.1864 H   0  0  0  0  0  0  0  0  0  0  0  0
  149.1194  138.3699  155.7408 H   0  0  0  0  0  0  0  0  0  0  0  0
  150.0481  139.4362  153.0315 H   0  0  0  0  0  0  0  0  0  0  0  0
  147.6872  140.0653  153.6791 H   0  0  0  0  0  0  0  0  0  0  0  0
  148.7506  141.4702  153.7074 H   0  0  0  0  0  0  0  0  0  0  0  0
  148.2803  140.6927  155.2167 H   0  0  0  0  0  0  0  0  0  0  0  0
  150.6695  142.5755  158.2907 H   0  0  0  0  0  0  0  0  0  0  0  0
  153.7601  139.6426  158.7046 H   0  0  0  0  0  0  0  0  0  0  0  0
  1  2  1  0  0  0  0
  1 18  1  0  0  0  0
  1 19  1  0  0  0  0
  1 20  1  0  0  0  0
  2  3  1  0  0  0  0
  3 17  2  0  0  0  0
  3  4  1  0  0  0  0
  4  5  2  0  0  0  0
  4 21  1  0  0  0  0
  5  6  1  0  0  0  0
  5 22  1  0  0  0  0
  6  7  1  0  0  0  0
  6 33  1  0  0  0  0
  7  8  2  0  0  0  0
  7 17  1  0  0  0  0
  8  9  1  0  0  0  0
  9 10  2  0  0  0  0
  9 11  1  0  0  0  0
 11 16  1  0  0  0  0
 11 12  1  0  0  0  0
 11 23  1  0  0  0  0
 12 13  1  0  0  0  0
 12 24  1  0  0  0  0
 12 25  1  0  0  0  0
 13 14  1  0  0  0  0
 13 26  1  0  0  0  0
 13 27  1  0  0  0  0
 14 15  1  0  0  0  0
 14 16  1  0  0  0  0
 14 28  1  0  0  0  0
 15 29  1  0  0  0  0
 15 30  1  0  0  0  0
 15 31  1  0  0  0  0
 17 32  1  0  0  0  0
M  END
> <s_m_source_file>
AV-unprocessed.smi

> <i_m_source_file_index>
2489

> <i_lp_mmshare_version>
43012

> <i_f3d_flags>
0

> <s_epik_input>
W0NIM11PYzFbY0hdW2NIXW5jKFtjSF0xKVtOSF1DKD1PKVtDQEBIXTJbQ0gyXVtDSDJdW0NASF0oTzIpW0NIM10=

> <s_epik_cmdline>
J2VwaWtfcHl0aG9uJywgJy1waCcsICc3LjAnLCAnLXRuJywgJzgnLCAnLW1hJywgJzIwMCcsICctbWV0YWxfYmluZGluZycsICctaW1hZScsICc8aW5maWxlLm1hZT4nLCAnLW9tYWUnLCAnPG91dGZpbGUubWFlPic=

> <r_epik_Ionization_Penalty>
0.410206

> <r_epik_Ionization_Penalty_Charging>
0.410206

> <r_epik_Ionization_Penalty_Neutral>
6.57528e-13

> <r_epik_State_Penalty>
1.30987

> <r_epik_Charging_Adjusted_Penalty>
1.72007

> <i_epik_Tot_Q>
0

> <i_epik_Tot_abs_Q>
0

> <r_epik_Metal_State_Penalty>
1.32171

> <b_epik_Metal_Only>
0

> <s_lp_Force_Field>
OPLS_2005

> <r_lp_Energy>
35.4329

> <b_lp_Chiralities_Consistent>
1

> <s_lp_Variant>
AV-unprocessed.smi:2489-6

> <Gold.Version>
5.8.1

> <Gold.Id.Protein>
6NUR|6NUR_protein|mol2

> <Gold.PLP.Fitness>
39.2881

> <Gold.PLP.PLP>
-34.8226

> <Gold.PLP.part.hbond>
-2.0000

> <Gold.PLP.part.metal>
0.0000

> <Gold.PLP.part.buried>
-1.4275

> <Gold.PLP.part.nonpolar>
-30.7272

> <Gold.PLP.part.repulsive>
0.2629

> <Gold.PLP.ligand.clash>
0.0000

> <Gold.PLP.ligand.torsion>
0.1149

> <Gold.PLP.Chemscore.Hbond>
1.5600

> <Gold.PLP.Chemscore.CHOScore>
0.0000

> <Gold.PLP.Chemscore.Metal>
0.0000

> <Gold.Chemscore.Hbonds>
donor molecule, donor type, donor heavy atom, donor atom, acceptor molecule, acceptor atom, score
      P1  H  7989  7998       L1    16  0.95
      P1  H  7997  8008       L1    10  0.43

> <Gold.PLP.Chemscore.Internal.Correction>
0.0152

> <Gold.Rescore>
     Score         DG    S(hbond)    S(metal)    S(lipo)     H(rot)  DE(clash)    DE(int)     intcor
     13.30     -14.91       0.80        0.00      84.71       1.23       0.12       1.49       ----

> <Gold.Chemscore.Fitness>
13.2974

> <Gold.Chemscore.DG>
-14.9075

> <Gold.Chemscore.ZeroCoef>
-5.4800

> <Gold.Chemscore.Hbond>
0.7952

> <Gold.Chemscore.Metal>
0.0000

> <Gold.Chemscore.Lipo>
84.7094

> <Gold.Chemscore.Internal_Hbond>
0.0000

> <Gold.Chemscore.DEClash>
0.1172

> <Gold.Chemscore.DEInternal>
1.4929

> <Gold.Chemscore.Rot>
1.2264

> <Gold.Chemscore.Internal.Correction>
   9.000000E+99

> <Gold.Chemscore.Hbonds>
donor molecule, donor type, donor heavy atom, donor atom, acceptor molecule, acceptor atom, score
      P1  H  7989  7998       L1    16  0.06
      P1  H  7997  8008       L1    10  0.09

> <Gold.Chemscore.Hbond.Weighted>
-2.6560

> <Gold.Chemscore.Metal.Weighted>
-0.0000

> <Gold.Chemscore.Lipo.Weighted>
-9.9110

> <Gold.Chemscore.Internal_Hbond.Weighted>
0.0000

> <Gold.Chemscore.DEClash.Weighted>
0.1172

> <Gold.Chemscore.DEInternal.Weighted>
1.4929

> <Gold.Chemscore.Rot.Weighted>
3.1396

> <Gold.Chemscore.Internal.Correction.Weighted>
   9.000000E+99

> <Gold.Protein.RotatedTorsions>
[ 6907 6896 6895 6894 ] final  -32.66 input  -60.11 | X-H torsion
[ 7974 7965 7964 7962 ] final  -33.22 input  175.53 | X-H torsion
[ 8008 7997 7996 7995 ] final  -99.40 input   59.86 | X-H torsion
[ 10167 10162 10161 10158 ] final -112.92 input  -65.29 | X-H torsion
[ 10718 10713 10712 10709 ] final  -66.14 input   66.30 | X-H torsion
[ 10763 10752 10751 10750 ] final  -28.66 input  -60.55 | X-H torsion
[ 11005 11000 10999 10996 ] final   68.57 input  -57.11 | X-H torsion

> <Gold.Protein.ActiveResidues>
 VAL166  LYS551  ARG553  GLY616  TRP617  ASP618  TYR619  PRO620  LYS621  CYS622 
 ASP623  PHE694  ASN695  SER759  ASP760  ASP761  ALA762  ILE779  LEU786  VAL792 
 PHE793  MET794  SER795  GLU796  ALA797  LYS798  CYS799  TRP800  GLU811  SER814 

> <Gold.Protein.RotatedAtoms>
  151.0758  134.9827  159.8330 H   0  0  0  0  0  0  0  0  0  0  0  0  # atno 6907 bound_to 6896
  152.5414  134.2243  159.8810 H   0  0  0  0  0  0  0  0  0  0  0  0  # atno 6908 bound_to 6896
  151.2270  133.4427  159.2636 H   0  0  0  0  0  0  0  0  0  0  0  0  # atno 6909 bound_to 6896
  146.0928  140.5889  142.8856 H   0  0  0  0  0  0  0  0  0  0  0  0  # atno 7974 bound_to 7965
  154.8144  140.0448  157.1365 H   0  0  0  0  0  0  0  0  0  0  0  0  # atno 8008 bound_to 7997
  154.9332  140.3042  155.5137 H   0  0  0  0  0  0  0  0  0  0  0  0  # atno 8009 bound_to 7997
  156.2974  140.2319  156.4394 H   0  0  0  0  0  0  0  0  0  0  0  0  # atno 8010 bound_to 7997
  140.1174  143.4473  152.1713 H   0  0  0  0  0  0  0  0  0  0  0  0  # atno 10167 bound_to 10162
  156.0629  130.4257  150.1665 H   0  0  0  0  0  0  0  0  0  0  0  0  # atno 10718 bound_to 10713
  153.7520  135.6925  153.4943 H   0  0  0  0  0  0  0  0  0  0  0  0  # atno 10763 bound_to 10752
  153.1997  135.4441  155.0250 H   0  0  0  0  0  0  0  0  0  0  0  0  # atno 10764 bound_to 10752
  154.8184  135.3410  154.7040 H   0  0  0  0  0  0  0  0  0  0  0  0  # atno 10765 bound_to 10752
  139.9703  134.6911  156.0460 H   0  0  0  0  0  0  0  0  0  0  0  0  # atno 11005 bound_to 11000
  144.7373  140.4843  143.6895 LP  0  0  0  0  0  0  0  0  0  0  0  0  # atno 17320 bound_to 7965
  145.6006  139.1503  143.3131 LP  0  0  0  0  0  0  0  0  0  0  0  0  # atno 17321 bound_to 7965
  139.5586  144.7390  151.4219 LP  0  0  0  0  0  0  0  0  0  0  0  0  # atno 17342 bound_to 10162
  140.6891  143.7903  150.7229 LP  0  0  0  0  0  0  0  0  0  0  0  0  # atno 17343 bound_to 10162
  156.9730  130.9840  151.3454 LP  0  0  0  0  0  0  0  0  0  0  0  0  # atno 17370 bound_to 10713
  157.5651  130.8272  149.8317 LP  0  0  0  0  0  0  0  0  0  0  0  0  # atno 17371 bound_to 10713
  141.1383  133.6570  156.3657 LP  0  0  0  0  0  0  0  0  0  0  0  0  # atno 17394 bound_to 11000
  140.5307  134.6215  157.5349 LP  0  0  0  0  0  0  0  0  0  0  0  0  # atno 17395 bound_to 11000

$$$$
