AV-unprocessed.smi:2895|AV-procd|sdf|11135|dock6
  -GOLD-   2272016 13D 1   1.00000     0.00000
 Structure written by MMmdl.
 54 57  0  0  0  0  0  0  0  0  3 V2000
  145.0289  136.0878  150.5774 O   0  0  0  0  0  0  0  0  0  0  0  0
  145.5662  135.7007  151.6156 C   0  0  0  0  0  0  0  0  0  0  0  0
  146.1547  136.5542  152.4711 N   0  0  0  0  0  0  0  0  0  0  0  0
  146.2331  138.0008  152.2994 C   0  0  0  0  0  0  0  0  0  0  0  0
  147.3858  138.6128  153.1135 C   0  0  0  0  0  0  0  0  0  0  0  0
  146.9553  139.8503  153.8778 C   0  0  0  0  0  0  0  0  0  0  0  0
  147.4373  141.1243  153.5040 C   0  0  0  0  0  0  0  0  0  0  0  0
  147.0202  142.2584  154.2307 C   0  0  0  0  0  0  0  0  0  0  0  0
  146.1708  142.1153  155.2718 N   0  3  0  0  0  0  0  0  0  0  0  0
  145.6870  140.9156  155.6620 C   0  0  0  0  0  0  0  0  0  0  0  0
  146.0670  139.7468  154.9712 C   0  0  0  0  0  0  0  0  0  0  0  0
  145.5880  134.3987  152.0009 N   0  0  0  0  0  0  0  0  0  0  0  0
  146.3195  133.8395  153.1494 C   0  0  0  0  0  0  0  0  0  0  0  0
  147.4539  132.9330  152.6324 C   0  0  0  0  0  0  0  0  0  0  0  0
  146.9448  131.8522  151.7398 N   0  3  0  0  0  0  0  0  0  0  0  0
  146.3097  130.7043  152.4564 C   0  0  1  0  0  0  0  0  0  0  0  0
  145.9303  129.5175  151.5362 C   0  0  0  0  0  0  0  0  0  0  0  0
  146.5356  128.3007  152.2608 C   0  0  1  0  0  0  0  0  0  0  0  0
  148.0585  128.3019  152.0436 C   0  0  0  0  0  0  0  0  0  0  0  0
  148.5174  129.4906  152.9066 C   0  0  0  0  0  0  0  0  0  0  0  0
  147.1964  130.0058  153.5189 C   0  0  2  0  0  0  0  0  0  0  0  0
  146.4307  128.7032  153.7265 C   0  0  0  0  0  0  0  0  0  0  0  0
  146.0989  132.4096  150.6454 C   0  0  0  0  0  0  0  0  0  0  0  0
  144.9895  133.3377  151.1819 C   0  0  0  0  0  0  0  0  0  0  0  0
  146.5631  136.1734  153.3124 H   0  0  0  0  0  0  0  0  0  0  0  0
  146.3387  138.2427  151.2403 H   0  0  0  0  0  0  0  0  0  0  0  0
  145.2835  138.4285  152.6224 H   0  0  0  0  0  0  0  0  0  0  0  0
  147.7805  137.8757  153.8140 H   0  0  0  0  0  0  0  0  0  0  0  0
  148.2130  138.8844  152.4564 H   0  0  0  0  0  0  0  0  0  0  0  0
  148.1163  141.2325  152.6705 H   0  0  0  0  0  0  0  0  0  0  0  0
  147.3383  143.2675  154.0127 H   0  0  0  0  0  0  0  0  0  0  0  0
  145.0158  140.9266  156.5085 H   0  0  0  0  0  0  0  0  0  0  0  0
  145.6808  138.7858  155.2794 H   0  0  0  0  0  0  0  0  0  0  0  0
  146.7414  134.5909  153.8164 H   0  0  0  0  0  0  0  0  0  0  0  0
  145.6264  133.2663  153.7664 H   0  0  0  0  0  0  0  0  0  0  0  0
  148.1528  133.5387  152.0540 H   0  0  0  0  0  0  0  0  0  0  0  0
  148.0375  132.5350  153.4608 H   0  0  0  0  0  0  0  0  0  0  0  0
  145.4079  131.0617  152.9555 H   0  0  0  0  0  0  0  0  0  0  0  0
  144.8460  129.4283  151.4576 H   0  0  0  0  0  0  0  0  0  0  0  0
  146.3292  129.6052  150.5250 H   0  0  0  0  0  0  0  0  0  0  0  0
  146.0586  127.3543  152.0041 H   0  0  0  0  0  0  0  0  0  0  0  0
  148.5025  127.3723  152.4030 H   0  0  0  0  0  0  0  0  0  0  0  0
  148.3309  128.4173  150.9937 H   0  0  0  0  0  0  0  0  0  0  0  0
  149.1965  129.1498  153.6893 H   0  0  0  0  0  0  0  0  0  0  0  0
  149.0419  130.2488  152.3251 H   0  0  0  0  0  0  0  0  0  0  0  0
  147.3304  130.5835  154.4338 H   0  0  0  0  0  0  0  0  0  0  0  0
  145.4028  128.8499  154.0633 H   0  0  0  0  0  0  0  0  0  0  0  0
  146.9321  128.0085  154.4031 H   0  0  0  0  0  0  0  0  0  0  0  0
  146.7472  132.9805  149.9793 H   0  0  0  0  0  0  0  0  0  0  0  0
  145.6652  131.6216  150.0313 H   0  0  0  0  0  0  0  0  0  0  0  0
  144.2789  132.7768  151.7895 H   0  0  0  0  0  0  0  0  0  0  0  0
  144.4081  133.7256  150.3447 H   0  0  0  0  0  0  0  0  0  0  0  0
  147.7598  131.4558  151.2933 H   0  0  0  0  0  0  0  0  0  0  0  0
  145.8831  142.9487  155.7857 H   0  0  0  0  0  0  0  0  0  0  0  0
  1  2  2  0  0  0  0
  2  3  1  0  0  0  0
  2 12  1  0  0  0  0
  3  4  1  0  0  0  0
  3 25  1  0  0  0  0
  4  5  1  0  0  0  0
  4 26  1  0  0  0  0
  4 27  1  0  0  0  0
  5  6  1  0  0  0  0
  5 28  1  0  0  0  0
  5 29  1  0  0  0  0
  6 11  1  0  0  0  0
  6  7  2  0  0  0  0
  7  8  1  0  0  0  0
  7 30  1  0  0  0  0
  8  9  2  0  0  0  0
  8 31  1  0  0  0  0
  9 10  1  0  0  0  0
  9 54  1  0  0  0  0
 10 11  2  0  0  0  0
 10 32  1  0  0  0  0
 11 33  1  0  0  0  0
 12 24  1  0  0  0  0
 12 13  1  0  0  0  0
 13 14  1  0  0  0  0
 13 34  1  0  0  0  0
 13 35  1  0  0  0  0
 14 15  1  0  0  0  0
 14 36  1  0  0  0  0
 14 37  1  0  0  0  0
 15 16  1  0  0  0  0
 15 23  1  0  0  0  0
 15 53  1  0  0  0  0
 16 21  1  0  0  0  0
 16 17  1  0  0  0  0
 16 38  1  0  0  0  0
 17 18  1  0  0  0  0
 17 39  1  0  0  0  0
 17 40  1  0  0  0  0
 18 22  1  0  0  0  0
 18 19  1  0  0  0  0
 18 41  1  0  0  0  0
 19 20  1  0  0  0  0
 19 42  1  0  0  0  0
 19 43  1  0  0  0  0
 20 21  1  0  0  0  0
 20 44  1  0  0  0  0
 20 45  1  0  0  0  0
 21 22  1  0  0  0  0
 21 46  1  0  0  0  0
 22 47  1  0  0  0  0
 22 48  1  0  0  0  0
 23 24  1  0  0  0  0
 23 49  1  0  0  0  0
 23 50  1  0  0  0  0
 24 51  1  0  0  0  0
 24 52  1  0  0  0  0
M  CHG  1   9   1
M  CHG  1  15   1
M  END
> <s_m_source_file>
AV-unprocessed.smi

> <i_m_source_file_index>
2895

> <i_lp_mmshare_version>
43012

> <i_f3d_flags>
0

> <s_epik_input>
W0NIMl0xW0NIMl1bQ0BASF0oW0NIMl0yKVtDQEBIXShbQ0gyXVtDQEhdMTIpTihbQ0gyXVtDSDJdMylbQ0gyXVtDSDJdTjNDKD1PKVtOSF1bQ0gyXVtDSDJdYzRbY0hdW2NIXW5bY0hdW2NIXTQ=

> <s_epik_cmdline>
J2VwaWtfcHl0aG9uJywgJy1waCcsICc3LjAnLCAnLXRuJywgJzgnLCAnLW1hJywgJzIwMCcsICctbWV0YWxfYmluZGluZycsICctaW1hZScsICc8aW5maWxlLm1hZT4nLCAnLW9tYWUnLCAnPG91dGZpbGUubWFlPic=

> <r_epik_Ionization_Penalty>
1.44916

> <r_epik_Ionization_Penalty_Charging>
1.44913

> <r_epik_Ionization_Penalty_Neutral>
2.64641e-05

> <r_epik_State_Penalty>
1.53218

> <r_epik_Charging_Adjusted_Penalty>
2.98131

> <i_epik_Tot_Q>
2

> <i_epik_Tot_abs_Q>
2

> <r_epik_Metal_State_Penalty>
1.58241

> <b_epik_Metal_Only>
0

> <s_lp_Force_Field>
OPLS_2005

> <r_lp_Energy>
107.439

> <b_lp_Chiralities_Consistent>
1

> <s_lp_Variant>
AV-unprocessed.smi:2895-8

> <Gold.Version>
5.8.1

> <Gold.Id.Protein>
6NUR|6NUR_protein|mol2

> <Gold.PLP.Fitness>
43.1653

> <Gold.PLP.PLP>
-41.2681

> <Gold.PLP.part.hbond>
-2.0000

> <Gold.PLP.part.metal>
0.0000

> <Gold.PLP.part.buried>
-5.8878

> <Gold.PLP.part.nonpolar>
-35.6160

> <Gold.PLP.part.repulsive>
1.7152

> <Gold.PLP.ligand.clash>
0.0000

> <Gold.PLP.ligand.torsion>
0.5990

> <Gold.PLP.Chemscore.Hbond>
1.0000

> <Gold.PLP.Chemscore.CHOScore>
0.0000

> <Gold.PLP.Chemscore.Metal>
0.0000

> <Gold.Chemscore.Hbonds>
donor molecule, donor type, donor heavy atom, donor atom, acceptor molecule, acceptor atom, score
      L1  H    15    53       P1 10747  1.00

> <Gold.PLP.Chemscore.Internal.Correction>
0.0952

> <Gold.Rescore>
     Score         DG    S(hbond)    S(metal)    S(lipo)     H(rot)  DE(clash)    DE(int)     intcor
     17.49     -18.31       1.00        0.00     113.06       1.46       0.23       0.58       ----

> <Gold.Chemscore.Fitness>
17.4933

> <Gold.Chemscore.DG>
-18.3062

> <Gold.Chemscore.ZeroCoef>
-5.4800

> <Gold.Chemscore.Hbond>
0.9965

> <Gold.Chemscore.Metal>
0.0000

> <Gold.Chemscore.Lipo>
113.0624

> <Gold.Chemscore.Internal_Hbond>
0.0000

> <Gold.Chemscore.DEClash>
0.2344

> <Gold.Chemscore.DEInternal>
0.5785

> <Gold.Chemscore.Rot>
1.4572

> <Gold.Chemscore.Internal.Correction>
   9.000000E+99

> <Gold.Chemscore.Hbonds>
donor molecule, donor type, donor heavy atom, donor atom, acceptor molecule, acceptor atom, score
      L1  H    15    53       P1 10747  1.00

> <Gold.Chemscore.Hbond.Weighted>
-3.3284

> <Gold.Chemscore.Metal.Weighted>
-0.0000

> <Gold.Chemscore.Lipo.Weighted>
-13.2283

> <Gold.Chemscore.Internal_Hbond.Weighted>
0.0000

> <Gold.Chemscore.DEClash.Weighted>
0.2344

> <Gold.Chemscore.DEInternal.Weighted>
0.5785

> <Gold.Chemscore.Rot.Weighted>
3.7305

> <Gold.Chemscore.Internal.Correction.Weighted>
   9.000000E+99

> <Gold.Protein.RotatedTorsions>
[ 6907 6896 6895 6894 ] final  -34.54 input  -60.11 | X-H torsion
[ 7974 7965 7964 7962 ] final   42.98 input  175.53 | X-H torsion
[ 8008 7997 7996 7995 ] final  -55.36 input   59.86 | X-H torsion
[ 10167 10162 10161 10158 ] final -171.62 input  -65.29 | X-H torsion
[ 10718 10713 10712 10709 ] final   70.06 input   66.30 | X-H torsion
[ 10763 10752 10751 10750 ] final   36.55 input  -60.55 | X-H torsion
[ 11005 11000 10999 10996 ] final   81.33 input  -57.11 | X-H torsion

> <Gold.Protein.ActiveResidues>
 VAL166  LYS551  ARG553  GLY616  TRP617  ASP618  TYR619  PRO620  LYS621  CYS622 
 ASP623  PHE694  ASN695  SER759  ASP760  ASP761  ALA762  ILE779  LEU786  VAL792 
 PHE793  MET794  SER795  GLU796  ALA797  LYS798  CYS799  TRP800  GLU811  SER814 

> <Gold.Protein.RotatedAtoms>
  151.0513  134.9675  159.8212 H   0  0  0  0  0  0  0  0  0  0  0  0  # atno 6907 bound_to 6896
  152.5381  134.2533  159.8917 H   0  0  0  0  0  0  0  0  0  0  0  0  # atno 6908 bound_to 6896
  151.2549  133.4288  159.2647 H   0  0  0  0  0  0  0  0  0  0  0  0  # atno 6909 bound_to 6896
  146.0694  139.5238  142.9607 H   0  0  0  0  0  0  0  0  0  0  0  0  # atno 7974 bound_to 7965
  154.4192  140.1155  156.5463 H   0  0  0  0  0  0  0  0  0  0  0  0  # atno 8008 bound_to 7997
  155.6456  140.3496  155.4711 H   0  0  0  0  0  0  0  0  0  0  0  0  # atno 8009 bound_to 7997
  155.9835  140.1165  157.0694 H   0  0  0  0  0  0  0  0  0  0  0  0  # atno 8010 bound_to 7997
  139.5792  144.1462  152.1492 H   0  0  0  0  0  0  0  0  0  0  0  0  # atno 10167 bound_to 10162
  157.6380  130.9458  150.0599 H   0  0  0  0  0  0  0  0  0  0  0  0  # atno 10718 bound_to 10713
  153.0072  135.6302  154.2003 H   0  0  0  0  0  0  0  0  0  0  0  0  # atno 10763 bound_to 10752
  154.1746  135.2816  155.3072 H   0  0  0  0  0  0  0  0  0  0  0  0  # atno 10764 bound_to 10752
  154.5882  135.5626  153.7312 H   0  0  0  0  0  0  0  0  0  0  0  0  # atno 10765 bound_to 10752
  139.9102  134.7988  156.2026 H   0  0  0  0  0  0  0  0  0  0  0  0  # atno 11005 bound_to 11000
  145.6418  141.0282  143.1807 LP  0  0  0  0  0  0  0  0  0  0  0  0  # atno 17320 bound_to 7965
  144.7222  139.7991  143.7377 LP  0  0  0  0  0  0  0  0  0  0  0  0  # atno 17321 bound_to 7965
  140.1012  144.5538  150.6988 LP  0  0  0  0  0  0  0  0  0  0  0  0  # atno 17342 bound_to 10162
  140.7072  143.2477  151.4691 LP  0  0  0  0  0  0  0  0  0  0  0  0  # atno 17343 bound_to 10162
  156.1635  130.3644  149.9266 LP  0  0  0  0  0  0  0  0  0  0  0  0  # atno 17370 bound_to 10713
  156.7258  130.9024  151.3622 LP  0  0  0  0  0  0  0  0  0  0  0  0  # atno 17371 bound_to 10713
  141.0515  133.6886  156.1781 LP  0  0  0  0  0  0  0  0  0  0  0  0  # atno 17394 bound_to 11000
  140.6803  134.4774  157.5589 LP  0  0  0  0  0  0  0  0  0  0  0  0  # atno 17395 bound_to 11000

$$$$
