AV-unprocessed.smi:1127|AV-procd|sdf|4841|dock10
  -GOLD-   22720 3403D 1   1.00000     0.00000
 Structure written by MMmdl.
 42 43  0  0  0  0  0  0  0  0  1 V2000
  145.7399  142.1490  154.9862 C   0  0  0  0  0  0  0  0  0  0  0  0
  145.8701  140.8252  156.2783 S   0  0  1  0  0  0  0  0  0  0  0  0
  144.5653  140.0276  156.2397 O   0  0  0  0  0  0  0  0  0  0  0  0
  147.0520  139.8073  155.3273 C   0  0  0  0  0  0  0  0  0  0  0  0
  146.8357  138.5313  154.9941 N   0  0  0  0  0  0  0  0  0  0  0  0
  147.9584  138.1545  154.2816 N   0  0  0  0  0  0  0  0  0  0  0  0
  148.7299  139.2434  154.2627 C   0  0  0  0  0  0  0  0  0  0  0  0
  148.2240  140.3124  154.8979 N   0  0  0  0  0  0  0  0  0  0  0  0
  148.8038  141.6356  155.0587 C   0  0  0  0  0  0  0  0  0  0  0  0
  150.1569  141.5793  155.7733 C   0  0  0  0  0  0  0  0  0  0  0  0
  150.9462  140.6639  155.5394 O   0  0  0  0  0  0  0  0  0  0  0  0
  150.4157  142.5800  156.6289 N   0  0  0  0  0  0  0  0  0  0  0  0
  151.6590  142.7655  157.3735 C   0  0  0  0  0  0  0  0  0  0  0  0
  151.7142  141.7467  158.5322 C   0  0  0  0  0  0  0  0  0  0  0  0
  152.8478  141.9643  159.5546 C   0  0  0  0  0  0  0  0  0  0  0  0
  152.3980  142.6047  160.8840 C   0  0  0  0  0  0  0  0  0  0  0  0
  151.9570  144.0822  160.8333 C   0  0  0  0  0  0  0  0  0  0  0  0
  150.6310  144.3355  160.0876 C   0  0  0  0  0  0  0  0  0  0  0  0
  150.7708  144.8921  158.6577 C   0  0  0  0  0  0  0  0  0  0  0  0
  151.8478  144.2507  157.7600 C   0  0  0  0  0  0  0  0  0  0  0  0
  146.7079  142.3338  154.5196 H   0  0  0  0  0  0  0  0  0  0  0  0
  145.3924  143.0786  155.4356 H   0  0  0  0  0  0  0  0  0  0  0  0
  145.0314  141.8535  154.2125 H   0  0  0  0  0  0  0  0  0  0  0  0
  149.6909  139.2606  153.7699 H   0  0  0  0  0  0  0  0  0  0  0  0
  148.9015  142.0958  154.0742 H   0  0  0  0  0  0  0  0  0  0  0  0
  148.1189  142.2554  155.6385 H   0  0  0  0  0  0  0  0  0  0  0  0
  149.7049  143.2859  156.7563 H   0  0  0  0  0  0  0  0  0  0  0  0
  152.4936  142.5137  156.7164 H   0  0  0  0  0  0  0  0  0  0  0  0
  150.7545  141.6752  159.0424 H   0  0  0  0  0  0  0  0  0  0  0  0
  151.8512  140.7614  158.0842 H   0  0  0  0  0  0  0  0  0  0  0  0
  153.2582  140.9842  159.8008 H   0  0  0  0  0  0  0  0  0  0  0  0
  153.6815  142.5128  159.1166 H   0  0  0  0  0  0  0  0  0  0  0  0
  151.6026  142.0035  161.3260 H   0  0  0  0  0  0  0  0  0  0  0  0
  153.2324  142.5341  161.5827 H   0  0  0  0  0  0  0  0  0  0  0  0
  151.8166  144.4038  161.8660 H   0  0  0  0  0  0  0  0  0  0  0  0
  152.7560  144.7171  160.4503 H   0  0  0  0  0  0  0  0  0  0  0  0
  150.0111  143.4405  160.0940 H   0  0  0  0  0  0  0  0  0  0  0  0
  150.0528  145.0637  160.6574 H   0  0  0  0  0  0  0  0  0  0  0  0
  149.8006  144.8484  158.1632 H   0  0  0  0  0  0  0  0  0  0  0  0
  151.0067  145.9540  158.7364 H   0  0  0  0  0  0  0  0  0  0  0  0
  152.8334  144.4008  158.1972 H   0  0  0  0  0  0  0  0  0  0  0  0
  151.8835  144.8290  156.8360 H   0  0  0  0  0  0  0  0  0  0  0  0
  1  2  1  0  0  0  0
  1 21  1  0  0  0  0
  1 22  1  0  0  0  0
  1 23  1  0  0  0  0
  2  3  2  0  0  0  0
  2  4  1  0  0  0  0
  4  8  1  0  0  0  0
  4  5  2  0  0  0  0
  5  6  1  0  0  0  0
  6  7  2  0  0  0  0
  7  8  1  0  0  0  0
  7 24  1  0  0  0  0
  8  9  1  0  0  0  0
  9 10  1  0  0  0  0
  9 25  1  0  0  0  0
  9 26  1  0  0  0  0
 10 11  2  0  0  0  0
 10 12  1  0  0  0  0
 12 13  1  0  0  0  0
 12 27  1  0  0  0  0
 13 20  1  0  0  0  0
 13 14  1  0  0  0  0
 13 28  1  0  0  0  0
 14 15  1  0  0  0  0
 14 29  1  0  0  0  0
 14 30  1  0  0  0  0
 15 16  1  0  0  0  0
 15 31  1  0  0  0  0
 15 32  1  0  0  0  0
 16 17  1  0  0  0  0
 16 33  1  0  0  0  0
 16 34  1  0  0  0  0
 17 18  1  0  0  0  0
 17 35  1  0  0  0  0
 17 36  1  0  0  0  0
 18 19  1  0  0  0  0
 18 37  1  0  0  0  0
 18 38  1  0  0  0  0
 19 20  1  0  0  0  0
 19 39  1  0  0  0  0
 19 40  1  0  0  0  0
 20 41  1  0  0  0  0
 20 42  1  0  0  0  0
M  END
> <s_m_source_file>
AV-unprocessed.smi

> <i_m_source_file_index>
1127

> <i_lp_mmshare_version>
43012

> <i_f3d_flags>
0

> <s_epik_input>
W0NIM11bU0BdKD1PKWMxbm5bY0hdbjFbQ0gyXUMoPU8pW05IXVtDSF0yW0NIMl1bQ0gyXVtDSDJdW0NIMl1bQ0gyXVtDSDJdW0NIMl0y

> <s_epik_cmdline>
J2VwaWtfcHl0aG9uJywgJy1waCcsICc3LjAnLCAnLXRuJywgJzgnLCAnLW1hJywgJzIwMCcsICctbWV0YWxfYmluZGluZycsICctaW1hZScsICc8aW5maWxlLm1hZT4nLCAnLW9tYWUnLCAnPG91dGZpbGUubWFlPic=

> <r_lp_tautomer_probability>
1

> <r_epik_Ionization_Penalty>
7.34999e-08

> <r_epik_Ionization_Penalty_Charging>
0

> <r_epik_Ionization_Penalty_Neutral>
7.34999e-08

> <r_epik_State_Penalty>
-0

> <r_epik_Charging_Adjusted_Penalty>
0

> <i_epik_Tot_Q>
0

> <i_epik_Tot_abs_Q>
0

> <r_epik_Metal_State_Penalty>
-0

> <b_epik_Metal_Only>
0

> <s_lp_Force_Field>
OPLS_2005

> <r_lp_Energy>
17.4242

> <b_lp_Chiralities_Consistent>
1

> <s_lp_Variant>
AV-unprocessed.smi:1127-2

> <Gold.Version>
5.8.1

> <Gold.Id.Protein>
6NUR|6NUR_protein|mol2

> <Gold.PLP.Fitness>
43.0675

> <Gold.PLP.PLP>
-38.1443

> <Gold.PLP.part.hbond>
-2.0000

> <Gold.PLP.part.metal>
0.0000

> <Gold.PLP.part.buried>
-2.8539

> <Gold.PLP.part.nonpolar>
-31.9702

> <Gold.PLP.part.repulsive>
0.4997

> <Gold.PLP.ligand.clash>
0.0000

> <Gold.PLP.ligand.torsion>
1.1514

> <Gold.PLP.Chemscore.Hbond>
1.7410

> <Gold.PLP.Chemscore.CHOScore>
0.3143

> <Gold.PLP.Chemscore.Metal>
0.0000

> <Gold.Chemscore.Hbonds>
donor molecule, donor type, donor heavy atom, donor atom, acceptor molecule, acceptor atom, score
      L1  H    12    27       P1  8028  0.74
      P1  H  7989  7998       L1    11  0.59
      L1  C     7    24       P1  7957  0.37

> <Gold.PLP.Chemscore.Internal.Correction>
1.0601

> <Gold.Rescore>
     Score         DG    S(hbond)    S(metal)    S(lipo)     H(rot)  DE(clash)    DE(int)     intcor
     13.44     -17.23       1.38        0.00      98.37       1.70       1.90       1.89       ----

> <Gold.Chemscore.Fitness>
13.4399

> <Gold.Chemscore.DG>
-17.2271

> <Gold.Chemscore.ZeroCoef>
-5.4800

> <Gold.Chemscore.Hbond>
1.3776

> <Gold.Chemscore.Metal>
0.0000

> <Gold.Chemscore.Lipo>
98.3676

> <Gold.Chemscore.Internal_Hbond>
0.0000

> <Gold.Chemscore.DEClash>
1.8964

> <Gold.Chemscore.DEInternal>
1.8908

> <Gold.Chemscore.Rot>
1.7044

> <Gold.Chemscore.Internal.Correction>
   9.000000E+99

> <Gold.Chemscore.Hbonds>
donor molecule, donor type, donor heavy atom, donor atom, acceptor molecule, acceptor atom, score
      L1  H    12    27       P1  8028  0.72
      P1  H  7989  7998       L1    11  0.38

> <Gold.Chemscore.Hbond.Weighted>
-4.6012

> <Gold.Chemscore.Metal.Weighted>
-0.0000

> <Gold.Chemscore.Lipo.Weighted>
-11.5090

> <Gold.Chemscore.Internal_Hbond.Weighted>
0.0000

> <Gold.Chemscore.DEClash.Weighted>
1.8964

> <Gold.Chemscore.DEInternal.Weighted>
1.8908

> <Gold.Chemscore.Rot.Weighted>
4.3631

> <Gold.Chemscore.Internal.Correction.Weighted>
   9.000000E+99

> <Gold.Protein.RotatedTorsions>
[ 6907 6896 6895 6894 ] final  -71.99 input  -60.11 | X-H torsion
[ 7974 7965 7964 7962 ] final -167.90 input  175.53 | X-H torsion
[ 8008 7997 7996 7995 ] final  -49.51 input   59.86 | X-H torsion
[ 10167 10162 10161 10158 ] final   -6.19 input  -65.29 | X-H torsion
[ 10718 10713 10712 10709 ] final  -46.60 input   66.30 | X-H torsion
[ 10763 10752 10751 10750 ] final   66.75 input  -60.55 | X-H torsion
[ 11005 11000 10999 10996 ] final  135.88 input  -57.11 | X-H torsion

> <Gold.Protein.ActiveResidues>
 VAL166  LYS551  ARG553  GLY616  TRP617  ASP618  TYR619  PRO620  LYS621  CYS622 
 ASP623  PHE694  ASN695  SER759  ASP760  ASP761  ALA762  ILE779  LEU786  VAL792 
 PHE793  MET794  SER795  GLU796  ALA797  LYS798  CYS799  TRP800  GLU811  SER814 

> <Gold.Protein.RotatedAtoms>
  150.7189  134.5229  159.5661 H   0  0  0  0  0  0  0  0  0  0  0  0  # atno 6907 bound_to 6896
  152.2780  134.7857  160.0411 H   0  0  0  0  0  0  0  0  0  0  0  0  # atno 6908 bound_to 6896
  151.8514  133.3405  159.3711 H   0  0  0  0  0  0  0  0  0  0  0  0  # atno 6909 bound_to 6896
  144.7213  140.2449  143.6286 H   0  0  0  0  0  0  0  0  0  0  0  0  # atno 7974 bound_to 7965
  154.4045  140.1295  156.4514 H   0  0  0  0  0  0  0  0  0  0  0  0  # atno 8008 bound_to 7997
  155.7363  140.3490  155.5063 H   0  0  0  0  0  0  0  0  0  0  0  0  # atno 8009 bound_to 7997
  155.9081  140.1031  157.1290 H   0  0  0  0  0  0  0  0  0  0  0  0  # atno 8010 bound_to 7997
  140.6988  143.6222  150.8601 H   0  0  0  0  0  0  0  0  0  0  0  0  # atno 10167 bound_to 10162
  156.2167  130.4164  149.9045 H   0  0  0  0  0  0  0  0  0  0  0  0  # atno 10718 bound_to 10713
  153.0154  135.5309  154.6872 H   0  0  0  0  0  0  0  0  0  0  0  0  # atno 10763 bound_to 10752
  154.6016  135.2869  155.0531 H   0  0  0  0  0  0  0  0  0  0  0  0  # atno 10764 bound_to 10752
  154.1586  135.6551  153.5033 H   0  0  0  0  0  0  0  0  0  0  0  0  # atno 10765 bound_to 10752
  140.0009  134.9479  157.0069 H   0  0  0  0  0  0  0  0  0  0  0  0  # atno 11005 bound_to 11000
  145.8283  139.2074  143.1897 LP  0  0  0  0  0  0  0  0  0  0  0  0  # atno 17320 bound_to 7965
  146.0453  140.8124  142.9808 LP  0  0  0  0  0  0  0  0  0  0  0  0  # atno 17321 bound_to 7965
  139.9943  143.5813  152.2899 LP  0  0  0  0  0  0  0  0  0  0  0  0  # atno 17342 bound_to 10162
  139.6480  144.7659  151.2205 LP  0  0  0  0  0  0  0  0  0  0  0  0  # atno 17343 bound_to 10162
  156.6705  130.8818  151.3561 LP  0  0  0  0  0  0  0  0  0  0  0  0  # atno 17370 bound_to 10713
  157.7067  130.9393  150.0953 LP  0  0  0  0  0  0  0  0  0  0  0  0  # atno 17371 bound_to 10713
  140.4731  134.1366  155.7206 LP  0  0  0  0  0  0  0  0  0  0  0  0  # atno 17394 bound_to 11000
  141.1641  133.8737  157.1766 LP  0  0  0  0  0  0  0  0  0  0  0  0  # atno 17395 bound_to 11000

$$$$
