AV-unprocessed.smi:25|AV-procd|sdf|179|dock8
  -GOLD-   2262015443D 1   1.00000     0.00000
 Structure written by MMmdl.
 47 50  0  0  0  0  0  0  0  0  1 V2000
  147.7415  136.3071  163.1072 C   0  0  0  0  0  0  0  0  0  0  0  0
  146.7813  135.6952  162.0675 C   0  0  2  0  0  0  0  0  0  0  0  0
  146.1409  134.3896  162.5902 C   0  0  0  0  0  0  0  0  0  0  0  0
  146.6850  133.3473  161.6631 C   0  0  0  0  0  0  0  0  0  0  0  0
  146.4805  131.9607  161.7685 C   0  0  0  0  0  0  0  0  0  0  0  0
  147.0961  131.1197  160.8199 C   0  0  0  0  0  0  0  0  0  0  0  0
  147.9032  131.6722  159.8015 C   0  0  0  0  0  0  0  0  0  0  0  0
  148.0979  133.0680  159.7118 C   0  0  0  0  0  0  0  0  0  0  0  0
  147.4627  133.9130  160.6541 C   0  0  0  0  0  0  0  0  0  0  0  0
  147.4795  135.3325  160.8123 N   0  0  0  0  0  0  0  0  0  0  0  0
  147.8827  136.2999  159.9425 C   0  0  0  0  0  0  0  0  0  0  0  0
  147.7058  137.4941  160.1963 O   0  0  0  0  0  0  0  0  0  0  0  0
  148.5476  135.9422  158.5991 C   0  0  0  0  0  0  0  0  0  0  0  0
  149.2956  137.0637  157.9839 N   0  0  0  0  0  0  0  0  0  0  0  0
  150.4307  137.5765  158.6611 C   0  0  0  0  0  0  0  0  0  0  0  0
  150.7914  137.1137  159.7445 O   0  0  0  0  0  0  0  0  0  0  0  0
  151.1311  138.6630  157.9852 C   0  0  0  0  0  0  0  0  0  0  0  0
  152.2230  139.2050  158.5506 F   0  0  0  0  0  0  0  0  0  0  0  0
  150.7020  139.1317  156.7956 C   0  0  0  0  0  0  0  0  0  0  0  0
  149.5902  138.6256  156.1487 N   0  0  0  0  0  0  0  0  0  0  0  0
  149.1534  139.1687  154.8073 C   0  0  2  0  0  0  0  0  0  0  0  0
  150.0984  140.2881  154.3540 C   0  0  0  0  0  0  0  0  0  0  0  0
  149.3334  141.5309  154.7562 C   0  0  0  0  0  0  0  0  0  0  0  0
  147.8921  141.0844  154.5446 C   0  0  0  0  0  0  0  0  0  0  0  0
  147.8723  139.7158  154.9358 O   0  0  0  0  0  0  0  0  0  0  0  0
  148.8698  137.5584  156.7272 C   0  0  0  0  0  0  0  0  0  0  0  0
  147.9026  137.0632  156.1446 O   0  0  0  0  0  0  0  0  0  0  0  0
  147.2208  136.5121  164.0429 H   0  0  0  0  0  0  0  0  0  0  0  0
  148.1689  137.2494  162.7651 H   0  0  0  0  0  0  0  0  0  0  0  0
  148.5666  135.6291  163.3286 H   0  0  0  0  0  0  0  0  0  0  0  0
  145.9840  136.4103  161.8553 H   0  0  0  0  0  0  0  0  0  0  0  0
  146.4107  134.1658  163.6230 H   0  0  0  0  0  0  0  0  0  0  0  0
  145.0535  134.4187  162.5142 H   0  0  0  0  0  0  0  0  0  0  0  0
  145.8712  131.5483  162.5594 H   0  0  0  0  0  0  0  0  0  0  0  0
  146.9582  130.0500  160.8774 H   0  0  0  0  0  0  0  0  0  0  0  0
  148.3810  131.0192  159.0860 H   0  0  0  0  0  0  0  0  0  0  0  0
  148.7393  133.4258  158.9272 H   0  0  0  0  0  0  0  0  0  0  0  0
  149.2196  135.1000  158.7624 H   0  0  0  0  0  0  0  0  0  0  0  0
  147.7836  135.5856  157.9078 H   0  0  0  0  0  0  0  0  0  0  0  0
  151.2625  139.9325  156.3367 H   0  0  0  0  0  0  0  0  0  0  0  0
  149.1165  138.3195  154.1234 H   0  0  0  0  0  0  0  0  0  0  0  0
  151.0874  140.2082  154.8073 H   0  0  0  0  0  0  0  0  0  0  0  0
  150.2016  140.2377  153.2694 H   0  0  0  0  0  0  0  0  0  0  0  0
  149.5087  141.7594  155.8080 H   0  0  0  0  0  0  0  0  0  0  0  0
  149.5997  142.4081  154.1662 H   0  0  0  0  0  0  0  0  0  0  0  0
  147.1781  141.6760  155.1177 H   0  0  0  0  0  0  0  0  0  0  0  0
  147.6239  141.1531  153.4897 H   0  0  0  0  0  0  0  0  0  0  0  0
  1  2  1  0  0  0  0
  1 28  1  0  0  0  0
  1 29  1  0  0  0  0
  1 30  1  0  0  0  0
  2 10  1  0  0  0  0
  2  3  1  0  0  0  0
  2 31  1  0  0  0  0
  3  4  1  0  0  0  0
  3 32  1  0  0  0  0
  3 33  1  0  0  0  0
  4  9  2  0  0  0  0
  4  5  1  0  0  0  0
  5  6  2  0  0  0  0
  5 34  1  0  0  0  0
  6  7  1  0  0  0  0
  6 35  1  0  0  0  0
  7  8  2  0  0  0  0
  7 36  1  0  0  0  0
  8  9  1  0  0  0  0
  8 37  1  0  0  0  0
  9 10  1  0  0  0  0
 10 11  1  0  0  0  0
 11 12  2  0  0  0  0
 11 13  1  0  0  0  0
 13 14  1  0  0  0  0
 13 38  1  0  0  0  0
 13 39  1  0  0  0  0
 14 26  1  0  0  0  0
 14 15  1  0  0  0  0
 15 16  2  0  0  0  0
 15 17  1  0  0  0  0
 17 18  1  0  0  0  0
 17 19  2  0  0  0  0
 19 20  1  0  0  0  0
 19 40  1  0  0  0  0
 20 21  1  0  0  0  0
 20 26  1  0  0  0  0
 21 25  1  0  0  0  0
 21 22  1  0  0  0  0
 21 41  1  0  0  0  0
 22 23  1  0  0  0  0
 22 42  1  0  0  0  0
 22 43  1  0  0  0  0
 23 24  1  0  0  0  0
 23 44  1  0  0  0  0
 23 45  1  0  0  0  0
 24 25  1  0  0  0  0
 24 46  1  0  0  0  0
 24 47  1  0  0  0  0
 26 27  2  0  0  0  0
M  END
> <s_m_source_file>
AV-unprocessed.smi

> <i_m_source_file_index>
25

> <i_lp_mmshare_version>
43012

> <i_f3d_flags>
0

> <s_epik_input>
W2NIXTFbY0hdW2NIXVtjSF1jKGMxMilOKFtDQEhdKFtDSDNdKVtDSDJdMilDKD1PKVtDSDJdbjNjKD1PKWMoRilbY0hdbihjMz1PKVtDQEBIXTRbQ0gyXVtDSDJdW0NIMl1PNA==

> <s_epik_cmdline>
J2VwaWtfcHl0aG9uJywgJy1waCcsICc3LjAnLCAnLXRuJywgJzgnLCAnLW1hJywgJzIwMCcsICctbWV0YWxfYmluZGluZycsICctaW1hZScsICc8aW5maWxlLm1hZT4nLCAnLW9tYWUnLCAnPG91dGZpbGUubWFlPic=

> <r_lp_tautomer_probability>
1

> <r_epik_Ionization_Penalty>
1.67943e-06

> <r_epik_Ionization_Penalty_Charging>
3.79603e-09

> <r_epik_Ionization_Penalty_Neutral>
1.67563e-06

> <r_epik_State_Penalty>
-0

> <r_epik_Charging_Adjusted_Penalty>
3.79603e-09

> <i_epik_Tot_Q>
0

> <i_epik_Tot_abs_Q>
0

> <r_epik_Metal_State_Penalty>
-0

> <b_epik_Metal_Only>
0

> <s_epik_Chemistry_Notes>
This compound contains an acetal/aminal-like group ( X-CH(R)-Y where X, Y are N, S, or O) that may be acid/base labile, releasing an aldehyde.

> <s_lp_Force_Field>
OPLS_2005

> <r_lp_Energy>
56.1974

> <b_lp_Chiralities_Consistent>
1

> <s_lp_Variant>
AV-unprocessed.smi:25-1

> <Gold.Version>
5.8.1

> <Gold.Id.Protein>
6NUR|6NUR_protein|mol2

> <Gold.PLP.Fitness>
45.0288

> <Gold.PLP.PLP>
-39.6929

> <Gold.PLP.part.hbond>
-3.0469

> <Gold.PLP.part.metal>
0.0000

> <Gold.PLP.part.buried>
-0.8956

> <Gold.PLP.part.nonpolar>
-35.7544

> <Gold.PLP.part.repulsive>
0.0802

> <Gold.PLP.ligand.clash>
0.0000

> <Gold.PLP.ligand.torsion>
0.2959

> <Gold.PLP.Chemscore.Hbond>
1.9649

> <Gold.PLP.Chemscore.CHOScore>
0.0000

> <Gold.PLP.Chemscore.Metal>
0.0000

> <Gold.Chemscore.Hbonds>
donor molecule, donor type, donor heavy atom, donor atom, acceptor molecule, acceptor atom, score
      P1  H  6896  6908       L1    16  0.98
      P1  H  6931  6943       L1    12  0.20
      P1  H  6934  6947       L1    12  0.82

> <Gold.PLP.Chemscore.Internal.Correction>
0.0329

> <Gold.Rescore>
     Score         DG    S(hbond)    S(metal)    S(lipo)     H(rot)  DE(clash)    DE(int)     intcor
     17.32     -19.81       2.30        0.00      90.55       1.55       0.37       2.11       ----

> <Gold.Chemscore.Fitness>
17.3177

> <Gold.Chemscore.DG>
-19.8052

> <Gold.Chemscore.ZeroCoef>
-5.4800

> <Gold.Chemscore.Hbond>
2.3043

> <Gold.Chemscore.Metal>
0.0000

> <Gold.Chemscore.Lipo>
90.5470

> <Gold.Chemscore.Internal_Hbond>
0.0000

> <Gold.Chemscore.DEClash>
0.3726

> <Gold.Chemscore.DEInternal>
2.1149

> <Gold.Chemscore.Rot>
1.5489

> <Gold.Chemscore.Internal.Correction>
   9.000000E+99

> <Gold.Chemscore.Hbonds>
donor molecule, donor type, donor heavy atom, donor atom, acceptor molecule, acceptor atom, score
      P1  H  6896  6908       L1    16  0.91
      P1  H  6931  6943       L1    12  0.18
      P1  H  6934  6947       L1    12  0.81

> <Gold.Chemscore.Hbond.Weighted>
-7.6964

> <Gold.Chemscore.Metal.Weighted>
-0.0000

> <Gold.Chemscore.Lipo.Weighted>
-10.5940

> <Gold.Chemscore.Internal_Hbond.Weighted>
0.0000

> <Gold.Chemscore.DEClash.Weighted>
0.3726

> <Gold.Chemscore.DEInternal.Weighted>
2.1149

> <Gold.Chemscore.Rot.Weighted>
3.9651

> <Gold.Chemscore.Internal.Correction.Weighted>
   9.000000E+99

> <Gold.Protein.RotatedTorsions>
[ 6907 6896 6895 6894 ] final -135.64 input  -60.11 | X-H torsion
[ 7974 7965 7964 7962 ] final  -36.00 input  175.53 | X-H torsion
[ 8008 7997 7996 7995 ] final   84.14 input   59.86 | X-H torsion
[ 10167 10162 10161 10158 ] final  154.30 input  -65.29 | X-H torsion
[ 10718 10713 10712 10709 ] final -151.37 input   66.30 | X-H torsion
[ 10763 10752 10751 10750 ] final   -5.92 input  -60.55 | X-H torsion
[ 11005 11000 10999 10996 ] final -149.28 input  -57.11 | X-H torsion

> <Gold.Protein.ActiveResidues>
 VAL166  LYS551  ARG553  GLY616  TRP617  ASP618  TYR619  PRO620  LYS621  CYS622 
 ASP623  PHE694  ASN695  SER759  ASP760  ASP761  ALA762  ILE779  LEU786  VAL792 
 PHE793  MET794  SER795  GLU796  ALA797  LYS798  CYS799  TRP800  GLU811  SER814 

> <Gold.Protein.RotatedAtoms>
  151.0003  133.6063  159.2695 H   0  0  0  0  0  0  0  0  0  0  0  0  # atno 6907 bound_to 6896
  151.3251  135.0827  159.9329 H   0  0  0  0  0  0  0  0  0  0  0  0  # atno 6908 bound_to 6896
  152.5272  133.9643  159.7786 H   0  0  0  0  0  0  0  0  0  0  0  0  # atno 6909 bound_to 6896
  146.0699  140.6226  142.8957 H   0  0  0  0  0  0  0  0  0  0  0  0  # atno 7974 bound_to 7965
  155.9331  140.3413  155.6265 H   0  0  0  0  0  0  0  0  0  0  0  0  # atno 8008 bound_to 7997
  155.7132  140.0774  157.2381 H   0  0  0  0  0  0  0  0  0  0  0  0  # atno 8009 bound_to 7997
  154.4089  140.1619  156.2307 H   0  0  0  0  0  0  0  0  0  0  0  0  # atno 8010 bound_to 7997
  139.4824  144.5198  151.7893 H   0  0  0  0  0  0  0  0  0  0  0  0  # atno 10167 bound_to 10162
  156.4583  130.8201  151.2432 H   0  0  0  0  0  0  0  0  0  0  0  0  # atno 10718 bound_to 10713
  153.4052  135.7006  153.6398 H   0  0  0  0  0  0  0  0  0  0  0  0  # atno 10763 bound_to 10752
  153.4915  135.3672  155.2494 H   0  0  0  0  0  0  0  0  0  0  0  0  # atno 10764 bound_to 10752
  154.8713  135.4090  154.3394 H   0  0  0  0  0  0  0  0  0  0  0  0  # atno 10765 bound_to 10752
  140.7524  134.3391  157.5122 H   0  0  0  0  0  0  0  0  0  0  0  0  # atno 11005 bound_to 11000
  144.7225  140.4420  143.6997 LP  0  0  0  0  0  0  0  0  0  0  0  0  # atno 17320 bound_to 7965
  145.6410  139.1550  143.2915 LP  0  0  0  0  0  0  0  0  0  0  0  0  # atno 17321 bound_to 7965
  140.4711  144.1585  150.5918 LP  0  0  0  0  0  0  0  0  0  0  0  0  # atno 17342 bound_to 10162
  140.4381  143.2538  151.9509 LP  0  0  0  0  0  0  0  0  0  0  0  0  # atno 17343 bound_to 10162
  157.7499  131.0115  150.3349 LP  0  0  0  0  0  0  0  0  0  0  0  0  # atno 17370 bound_to 10713
  156.3743  130.3869  149.7151 LP  0  0  0  0  0  0  0  0  0  0  0  0  # atno 17371 bound_to 10713
  139.8785  134.9150  156.3121 LP  0  0  0  0  0  0  0  0  0  0  0  0  # atno 17394 bound_to 11000
  140.9738  133.7310  156.0573 LP  0  0  0  0  0  0  0  0  0  0  0  0  # atno 17395 bound_to 11000

$$$$
