AV-unprocessed.smi:2402|AV-procd|sdf|9505|dock2
  -GOLD-   2272013133D 1   1.00000     0.00000
 Structure written by MMmdl.
 38 39  0  0  0  0  0  0  0  0  1 V2000
  152.5404  143.7908  161.7085 C   0  0  0  0  0  0  0  0  0  0  0  0
  152.5075  142.7487  160.6103 C   0  0  0  0  0  0  0  0  0  0  0  0
  153.3569  141.6265  160.6532 C   0  0  0  0  0  0  0  0  0  0  0  0
  153.2779  140.6924  159.6017 C   0  0  0  0  0  0  0  0  0  0  0  0
  154.1661  139.4662  159.5813 C   0  0  0  0  0  0  0  0  0  0  0  0
  152.4290  140.8257  158.5601 N   0  0  0  0  0  0  0  0  0  0  0  0
  151.6057  141.9022  158.5082 C   0  0  0  0  0  0  0  0  0  0  0  0
  150.6828  142.1384  157.4545 N   0  0  0  0  0  0  0  0  0  0  0  0
  150.4513  141.3819  156.3670 C   0  0  0  0  0  0  0  0  0  0  0  0
  150.9896  140.3019  156.1212 O   0  0  0  0  0  0  0  0  0  0  0  0
  149.5421  141.9525  155.5634 N   0  0  0  0  0  0  0  0  0  0  0  0
  149.0732  141.3863  154.3034 C   0  0  2  0  0  0  0  0  0  0  0  0
  147.7631  142.0048  153.8998 C   0  0  0  0  0  0  0  0  0  0  0  0
  146.8147  141.0983  153.6748 C   0  0  0  0  0  0  0  0  0  0  0  0
  147.2922  139.6861  153.8893 C   0  0  2  0  0  0  0  0  0  0  0  0
  146.3773  138.9050  154.8470 C   0  0  0  0  0  0  0  0  0  0  0  0
  145.0790  138.7977  154.3031 O   0  0  0  0  0  0  0  0  0  0  0  0
  148.7410  139.8748  154.4119 C   0  0  0  0  0  0  0  0  0  0  0  0
  151.6215  142.8858  159.5228 C   0  0  0  0  0  0  0  0  0  0  0  0
  149.7968  141.5711  153.5074 H   0  0  0  0  0  0  0  0  0  0  0  0
  147.3081  139.1984  152.9137 H   0  0  0  0  0  0  0  0  0  0  0  0
  153.3735  143.6210  162.3912 H   0  0  0  0  0  0  0  0  0  0  0  0
  151.6150  143.7612  162.2839 H   0  0  0  0  0  0  0  0  0  0  0  0
  152.6491  144.7882  161.2816 H   0  0  0  0  0  0  0  0  0  0  0  0
  154.0511  141.4858  161.4689 H   0  0  0  0  0  0  0  0  0  0  0  0
  154.6642  139.3234  160.5407 H   0  0  0  0  0  0  0  0  0  0  0  0
  154.9309  139.5683  158.8110 H   0  0  0  0  0  0  0  0  0  0  0  0
  153.5795  138.5722  159.3677 H   0  0  0  0  0  0  0  0  0  0  0  0
  150.1482  142.9908  157.5298 H   0  0  0  0  0  0  0  0  0  0  0  0
  149.1464  142.8387  155.8408 H   0  0  0  0  0  0  0  0  0  0  0  0
  147.6390  143.0725  153.7932 H   0  0  0  0  0  0  0  0  0  0  0  0
  145.8059  141.3220  153.3601 H   0  0  0  0  0  0  0  0  0  0  0  0
  146.7733  137.9072  155.0401 H   0  0  0  0  0  0  0  0  0  0  0  0
  146.3071  139.4162  155.8075 H   0  0  0  0  0  0  0  0  0  0  0  0
  144.9242  139.5430  153.7432 H   0  0  0  0  0  0  0  0  0  0  0  0
  149.4473  139.2761  153.8357 H   0  0  0  0  0  0  0  0  0  0  0  0
  148.8191  139.5369  155.4466 H   0  0  0  0  0  0  0  0  0  0  0  0
  150.9611  143.7397  159.4696 H   0  0  0  0  0  0  0  0  0  0  0  0
  1  2  1  0  0  0  0
  1 22  1  0  0  0  0
  1 23  1  0  0  0  0
  1 24  1  0  0  0  0
  2 19  1  0  0  0  0
  2  3  2  0  0  0  0
  3  4  1  0  0  0  0
  3 25  1  0  0  0  0
  4  5  1  0  0  0  0
  4  6  2  0  0  0  0
  5 26  1  0  0  0  0
  5 27  1  0  0  0  0
  5 28  1  0  0  0  0
  6  7  1  0  0  0  0
  7  8  1  0  0  0  0
  7 19  2  0  0  0  0
  8  9  1  0  0  0  0
  8 29  1  0  0  0  0
  9 10  2  0  0  0  0
  9 11  1  0  0  0  0
 11 12  1  0  0  0  0
 11 30  1  0  0  0  0
 12 20  1  0  0  0  0
 12 18  1  0  0  0  0
 12 13  1  0  0  0  0
 13 14  2  0  0  0  0
 13 31  1  0  0  0  0
 14 15  1  0  0  0  0
 14 32  1  0  0  0  0
 15 21  1  0  0  0  0
 15 16  1  0  0  0  0
 15 18  1  0  0  0  0
 16 17  1  0  0  0  0
 16 33  1  0  0  0  0
 16 34  1  0  0  0  0
 17 35  1  0  0  0  0
 18 36  1  0  0  0  0
 18 37  1  0  0  0  0
 19 38  1  0  0  0  0
M  END
> <s_m_source_file>
AV-unprocessed.smi

> <i_m_source_file_index>
2402

> <i_lp_mmshare_version>
43012

> <i_f3d_flags>
0

> <s_epik_input>
W0NIM11jMVtjSF1jKFtDSDNdKW5jKFtjSF0xKVtOSF1DKD1PKVtOSF1bQ0BASF0yW0NIXT1bQ0hdW0NAQEhdKFtDSDJdMilbQ0gyXVtPSF0=

> <s_epik_cmdline>
J2VwaWtfcHl0aG9uJywgJy1waCcsICc3LjAnLCAnLXRuJywgJzgnLCAnLW1hJywgJzIwMCcsICctbWV0YWxfYmluZGluZycsICctaW1hZScsICc8aW5maWxlLm1hZT4nLCAnLW9tYWUnLCAnPG91dGZpbGUubWFlPic=

> <r_lp_tautomer_probability>
1

> <r_epik_Ionization_Penalty>
0.000257495

> <r_epik_Ionization_Penalty_Charging>
0

> <r_epik_Ionization_Penalty_Neutral>
0.000257495

> <r_epik_State_Penalty>
-0

> <r_epik_Charging_Adjusted_Penalty>
0

> <i_epik_Tot_Q>
0

> <i_epik_Tot_abs_Q>
0

> <r_epik_Metal_State_Penalty>
-0

> <b_epik_Metal_Only>
0

> <s_lp_Force_Field>
OPLS_2005

> <r_lp_Energy>
18.4158

> <b_lp_Chiralities_Consistent>
1

> <s_lp_Variant>
AV-unprocessed.smi:2402-1

> <Gold.Version>
5.8.1

> <Gold.Id.Protein>
6NUR|6NUR_protein|mol2

> <Gold.PLP.Fitness>
42.8495

> <Gold.PLP.PLP>
-37.4088

> <Gold.PLP.part.hbond>
-2.0000

> <Gold.PLP.part.metal>
0.0000

> <Gold.PLP.part.buried>
-5.0933

> <Gold.PLP.part.nonpolar>
-30.4429

> <Gold.PLP.part.repulsive>
0.1800

> <Gold.PLP.ligand.clash>
0.0000

> <Gold.PLP.ligand.torsion>
0.2267

> <Gold.PLP.Chemscore.Hbond>
1.9600

> <Gold.PLP.Chemscore.CHOScore>
0.0000

> <Gold.PLP.Chemscore.Metal>
0.0000

> <Gold.Chemscore.Hbonds>
donor molecule, donor type, donor heavy atom, donor atom, acceptor molecule, acceptor atom, score
      L1  H    11    30       P1  8028  1.00
      L1  H    17    35       P1 10175  0.94

> <Gold.PLP.Chemscore.Internal.Correction>
0.0141

> <Gold.Rescore>
     Score         DG    S(hbond)    S(metal)    S(lipo)     H(rot)  DE(clash)    DE(int)     intcor
     15.76     -18.60       1.96        0.00      95.39       1.78       0.10       2.74       ----

> <Gold.Chemscore.Fitness>
15.7616

> <Gold.Chemscore.DG>
-18.6048

> <Gold.Chemscore.ZeroCoef>
-5.4800

> <Gold.Chemscore.Hbond>
1.9558

> <Gold.Chemscore.Metal>
0.0000

> <Gold.Chemscore.Lipo>
95.3891

> <Gold.Chemscore.Internal_Hbond>
0.0000

> <Gold.Chemscore.DEClash>
0.0989

> <Gold.Chemscore.DEInternal>
2.7443

> <Gold.Chemscore.Rot>
1.7844

> <Gold.Chemscore.Internal.Correction>
   9.000000E+99

> <Gold.Chemscore.Hbonds>
donor molecule, donor type, donor heavy atom, donor atom, acceptor molecule, acceptor atom, score
      L1  H    11    30       P1  8028  0.97
      L1  H    17    35       P1 10175  0.87

> <Gold.Chemscore.Hbond.Weighted>
-6.5324

> <Gold.Chemscore.Metal.Weighted>
-0.0000

> <Gold.Chemscore.Lipo.Weighted>
-11.1605

> <Gold.Chemscore.Internal_Hbond.Weighted>
0.0000

> <Gold.Chemscore.DEClash.Weighted>
0.0989

> <Gold.Chemscore.DEInternal.Weighted>
2.7443

> <Gold.Chemscore.Rot.Weighted>
4.5681

> <Gold.Chemscore.Internal.Correction.Weighted>
   9.000000E+99

> <Gold.Protein.RotatedTorsions>
[ 6907 6896 6895 6894 ] final  166.38 input  -60.11 | X-H torsion
[ 7974 7965 7964 7962 ] final    3.96 input  175.53 | X-H torsion
[ 8008 7997 7996 7995 ] final   69.73 input   59.86 | X-H torsion
[ 10167 10162 10161 10158 ] final  141.00 input  -65.29 | X-H torsion
[ 10718 10713 10712 10709 ] final   71.38 input   66.30 | X-H torsion
[ 10763 10752 10751 10750 ] final -127.86 input  -60.55 | X-H torsion
[ 11005 11000 10999 10996 ] final -159.73 input  -57.11 | X-H torsion

> <Gold.Protein.ActiveResidues>
 VAL166  LYS551  ARG553  GLY616  TRP617  ASP618  TYR619  PRO620  LYS621  CYS622 
 ASP623  PHE694  ASN695  SER759  ASP760  ASP761  ALA762  ILE779  LEU786  VAL792 
 PHE793  MET794  SER795  GLU796  ALA797  LYS798  CYS799  TRP800  GLU811  SER814 

> <Gold.Protein.RotatedAtoms>
  151.8798  133.3493  159.3762 H   0  0  0  0  0  0  0  0  0  0  0  0  # atno 6907 bound_to 6896
  150.7130  134.5030  159.5580 H   0  0  0  0  0  0  0  0  0  0  0  0  # atno 6908 bound_to 6896
  152.2579  134.8065  160.0486 H   0  0  0  0  0  0  0  0  0  0  0  0  # atno 6909 bound_to 6896
  146.2444  140.0606  142.8369 H   0  0  0  0  0  0  0  0  0  0  0  0  # atno 7974 bound_to 7965
  155.7281  140.3492  155.5047 H   0  0  0  0  0  0  0  0  0  0  0  0  # atno 8008 bound_to 7997
  155.9207  140.1067  157.1230 H   0  0  0  0  0  0  0  0  0  0  0  0  # atno 8009 bound_to 7997
  154.4069  140.1250  156.4663 H   0  0  0  0  0  0  0  0  0  0  0  0  # atno 8010 bound_to 7997
  139.5033  144.6199  151.6076 H   0  0  0  0  0  0  0  0  0  0  0  0  # atno 10167 bound_to 10162
  157.6449  130.9525  150.0782 H   0  0  0  0  0  0  0  0  0  0  0  0  # atno 10718 bound_to 10713
  154.8754  135.3948  154.3662 H   0  0  0  0  0  0  0  0  0  0  0  0  # atno 10763 bound_to 10752
  153.4428  135.7027  153.6163 H   0  0  0  0  0  0  0  0  0  0  0  0  # atno 10764 bound_to 10752
  153.4737  135.3784  155.2374 H   0  0  0  0  0  0  0  0  0  0  0  0  # atno 10765 bound_to 10752
  140.6394  134.4567  157.5233 H   0  0  0  0  0  0  0  0  0  0  0  0  # atno 11005 bound_to 11000
  145.0903  140.9280  143.4773 LP  0  0  0  0  0  0  0  0  0  0  0  0  # atno 17320 bound_to 7965
  145.0777  139.2983  143.5799 LP  0  0  0  0  0  0  0  0  0  0  0  0  # atno 17321 bound_to 7965
  140.5898  143.9800  150.6317 LP  0  0  0  0  0  0  0  0  0  0  0  0  # atno 17342 bound_to 10162
  140.2977  143.3282  152.1002 LP  0  0  0  0  0  0  0  0  0  0  0  0  # atno 17343 bound_to 10162
  156.1766  130.3648  149.9092 LP  0  0  0  0  0  0  0  0  0  0  0  0  # atno 17370 bound_to 10713
  156.7055  130.8950  151.3604 LP  0  0  0  0  0  0  0  0  0  0  0  0  # atno 17371 bound_to 10713
  139.9086  134.8394  156.1612 LP  0  0  0  0  0  0  0  0  0  0  0  0  # atno 17394 bound_to 11000
  141.0618  133.6838  156.1967 LP  0  0  0  0  0  0  0  0  0  0  0  0  # atno 17395 bound_to 11000

$$$$
