AV-unprocessed.smi:618|AV-procd|sdf|3081|dock8
  -GOLD-   22720 0 03D 1   1.00000     0.00000
 Structure written by MMmdl.
 41 43  0  0  0  0  0  0  0  0  2 V2000
  150.7134  135.0113  155.9809 O   0  0  0  0  0  0  0  0  0  0  0  0
  150.1100  135.3786  154.9730 C   0  0  0  0  0  0  0  0  0  0  0  0
  149.4026  134.5490  154.1929 N   0  0  0  0  0  0  0  0  0  0  0  0
  149.2464  133.1149  154.4157 C   0  0  0  0  0  0  0  0  0  0  0  0
  148.4371  132.4438  153.2915 C   0  0  1  0  0  0  0  0  0  0  0  0
  148.3030  130.9185  153.5164 C   0  0  0  0  0  0  0  0  0  0  0  0
  147.4279  130.3681  152.4650 N   0  3  1  0  0  0  0  0  0  0  0  0
  147.1650  128.9187  152.4597 C   0  0  0  0  0  0  0  0  0  0  0  0
  145.8291  128.7638  151.7048 C   0  0  0  0  0  0  0  0  0  0  0  0
  145.3115  130.1954  151.4717 C   0  0  0  0  0  0  0  0  0  0  0  0
  146.1163  131.0191  152.4716 C   0  0  2  0  0  0  0  0  0  0  0  0
  146.3012  132.5168  152.1991 C   0  0  0  0  0  0  0  0  0  0  0  0
  147.1350  133.0391  153.2344 O   0  0  0  0  0  0  0  0  0  0  0  0
  150.0480  136.6428  154.5213 N   0  0  0  0  0  0  0  0  0  0  0  0
  150.6607  137.8042  155.0645 C   0  0  0  0  0  0  0  0  0  0  0  0
  151.5043  137.8005  156.2019 C   0  0  0  0  0  0  0  0  0  0  0  0
  152.0672  139.0166  156.6342 C   0  0  0  0  0  0  0  0  0  0  0  0
  151.7740  140.1888  155.9110 C   0  0  0  0  0  0  0  0  0  0  0  0
  150.9840  140.2047  154.8167 N   0  0  0  0  0  0  0  0  0  0  0  0
  150.4484  139.0350  154.4074 C   0  0  0  0  0  0  0  0  0  0  0  0
  148.9402  134.9373  153.3836 H   0  0  0  0  0  0  0  0  0  0  0  0
  150.2463  132.6823  154.4548 H   0  0  0  0  0  0  0  0  0  0  0  0
  148.7902  132.9194  155.3880 H   0  0  0  0  0  0  0  0  0  0  0  0
  148.9429  132.6191  152.3401 H   0  0  0  0  0  0  0  0  0  0  0  0
  149.2793  130.4346  153.4716 H   0  0  0  0  0  0  0  0  0  0  0  0
  147.8794  130.7090  154.5001 H   0  0  0  0  0  0  0  0  0  0  0  0
  147.9810  128.3742  151.9838 H   0  0  0  0  0  0  0  0  0  0  0  0
  147.0625  128.5535  153.4827 H   0  0  0  0  0  0  0  0  0  0  0  0
  145.9592  128.2385  150.7578 H   0  0  0  0  0  0  0  0  0  0  0  0
  145.1230  128.1880  152.3050 H   0  0  0  0  0  0  0  0  0  0  0  0
  145.5392  130.5117  150.4527 H   0  0  0  0  0  0  0  0  0  0  0  0
  144.2350  130.2864  151.6207 H   0  0  0  0  0  0  0  0  0  0  0  0
  145.6676  130.8914  153.4595 H   0  0  0  0  0  0  0  0  0  0  0  0
  146.7511  132.6957  151.2213 H   0  0  0  0  0  0  0  0  0  0  0  0
  145.3406  133.0319  152.2173 H   0  0  0  0  0  0  0  0  0  0  0  0
  149.4430  136.8039  153.7294 H   0  0  0  0  0  0  0  0  0  0  0  0
  151.7405  136.8951  156.7389 H   0  0  0  0  0  0  0  0  0  0  0  0
  152.7139  139.0487  157.4984 H   0  0  0  0  0  0  0  0  0  0  0  0
  152.1902  141.1374  156.2161 H   0  0  0  0  0  0  0  0  0  0  0  0
  149.8237  139.0857  153.5275 H   0  0  0  0  0  0  0  0  0  0  0  0
  147.8513  130.5852  151.5740 H   0  0  0  0  0  0  0  0  0  0  0  0
  1  2  2  0  0  0  0
  2  3  1  0  0  0  0
  2 14  1  0  0  0  0
  3  4  1  0  0  0  0
  3 21  1  0  0  0  0
  4  5  1  0  0  0  0
  4 22  1  0  0  0  0
  4 23  1  0  0  0  0
  5 13  1  0  0  0  0
  5  6  1  0  0  0  0
  5 24  1  0  0  0  0
  6  7  1  0  0  0  0
  6 25  1  0  0  0  0
  6 26  1  0  0  0  0
  7 11  1  0  0  0  0
  7  8  1  0  0  0  0
  7 41  1  0  0  0  0
  8  9  1  0  0  0  0
  8 27  1  0  0  0  0
  8 28  1  0  0  0  0
  9 10  1  0  0  0  0
  9 29  1  0  0  0  0
  9 30  1  0  0  0  0
 10 11  1  0  0  0  0
 10 31  1  0  0  0  0
 10 32  1  0  0  0  0
 11 12  1  0  0  0  0
 11 33  1  0  0  0  0
 12 13  1  0  0  0  0
 12 34  1  0  0  0  0
 12 35  1  0  0  0  0
 14 15  1  0  0  0  0
 14 36  1  0  0  0  0
 15 20  1  0  0  0  0
 15 16  2  0  0  0  0
 16 17  1  0  0  0  0
 16 37  1  0  0  0  0
 17 18  2  0  0  0  0
 17 38  1  0  0  0  0
 18 19  1  0  0  0  0
 18 39  1  0  0  0  0
 19 20  2  0  0  0  0
 20 40  1  0  0  0  0
M  CHG  1   7   1
M  END
> <s_m_source_file>
AV-unprocessed.smi

> <i_m_source_file_index>
618

> <i_lp_mmshare_version>
43012

> <i_f3d_flags>
0

> <s_epik_input>
W2NIXTFuW2NIXVtjSF1bY0hdYzFbTkhdQyg9TylbTkhdW0NIMl1bQ0BIXShbQ0gyXTIpT1tDSDJdW0NAQEhdKE4yMylbQ0gyXVtDSDJdW0NIMl0z

> <s_epik_cmdline>
J2VwaWtfcHl0aG9uJywgJy1waCcsICc3LjAnLCAnLXRuJywgJzgnLCAnLW1hJywgJzIwMCcsICctbWV0YWxfYmluZGluZycsICctaW1hZScsICc8aW5maWxlLm1hZT4nLCAnLW9tYWUnLCAnPG91dGZpbGUubWFlPic=

> <r_epik_Ionization_Penalty>
0.111044

> <r_epik_Ionization_Penalty_Charging>
0.10673

> <r_epik_Ionization_Penalty_Neutral>
0.00431361

> <r_epik_State_Penalty>
0.0978747

> <r_epik_Charging_Adjusted_Penalty>
0.204605

> <i_epik_Tot_Q>
1

> <i_epik_Tot_abs_Q>
1

> <r_epik_Metal_State_Penalty>
0.0947591

> <b_epik_Metal_Only>
0

> <s_lp_Force_Field>
OPLS_2005

> <r_lp_Energy>
39.3215

> <b_lp_Chiralities_Consistent>
1

> <s_lp_Variant>
AV-unprocessed.smi:618-8

> <Gold.Version>
5.8.1

> <Gold.Id.Protein>
6NUR|6NUR_protein|mol2

> <Gold.PLP.Fitness>
52.1160

> <Gold.PLP.PLP>
-37.3675

> <Gold.PLP.part.hbond>
-4.3059

> <Gold.PLP.part.metal>
0.0000

> <Gold.PLP.part.buried>
-5.2962

> <Gold.PLP.part.nonpolar>
-27.8019

> <Gold.PLP.part.repulsive>
0.3133

> <Gold.PLP.ligand.clash>
0.0000

> <Gold.PLP.ligand.torsion>
0.0062

> <Gold.PLP.Chemscore.Hbond>
3.9200

> <Gold.PLP.Chemscore.CHOScore>
1.0000

> <Gold.PLP.Chemscore.Metal>
0.0000

> <Gold.Chemscore.Hbonds>
donor molecule, donor type, donor heavy atom, donor atom, acceptor molecule, acceptor atom, score
      L1  H     3    21       P1  7948  0.96
      L1  H     7    41       P1 10747  1.00
      L1  H    14    36       P1  7948  0.90
      P1  H  7989  7998       L1    19  1.00
      L1  C    20    40       P1  7957  0.94

> <Gold.PLP.Chemscore.Internal.Correction>
0.0010

> <Gold.Rescore>
     Score         DG    S(hbond)    S(metal)    S(lipo)     H(rot)  DE(clash)    DE(int)     intcor
     21.01     -22.33       2.87        0.00      89.92       1.27       0.06       1.27       ----

> <Gold.Chemscore.Fitness>
21.0073

> <Gold.Chemscore.DG>
-22.3346

> <Gold.Chemscore.ZeroCoef>
-5.4800

> <Gold.Chemscore.Hbond>
2.8664

> <Gold.Chemscore.Metal>
0.0000

> <Gold.Chemscore.Lipo>
89.9195

> <Gold.Chemscore.Internal_Hbond>
0.0000

> <Gold.Chemscore.DEClash>
0.0609

> <Gold.Chemscore.DEInternal>
1.2665

> <Gold.Chemscore.Rot>
1.2656

> <Gold.Chemscore.Internal.Correction>
   9.000000E+99

> <Gold.Chemscore.Hbonds>
donor molecule, donor type, donor heavy atom, donor atom, acceptor molecule, acceptor atom, score
      L1  H     3    21       P1  7948  0.27
      L1  H     7    41       P1 10747  1.00
      L1  H    14    36       P1  7948  0.78
      P1  H  7989  7998       L1    19  0.49

> <Gold.Chemscore.Hbond.Weighted>
-9.5739

> <Gold.Chemscore.Metal.Weighted>
-0.0000

> <Gold.Chemscore.Lipo.Weighted>
-10.5206

> <Gold.Chemscore.Internal_Hbond.Weighted>
0.0000

> <Gold.Chemscore.DEClash.Weighted>
0.0609

> <Gold.Chemscore.DEInternal.Weighted>
1.2665

> <Gold.Chemscore.Rot.Weighted>
3.2399

> <Gold.Chemscore.Internal.Correction.Weighted>
   9.000000E+99

> <Gold.Protein.RotatedTorsions>
[ 6907 6896 6895 6894 ] final -129.88 input  -60.11 | X-H torsion
[ 7974 7965 7964 7962 ] final -102.17 input  175.53 | X-H torsion
[ 8008 7997 7996 7995 ] final -155.06 input   59.86 | X-H torsion
[ 10167 10162 10161 10158 ] final   62.95 input  -65.29 | X-H torsion
[ 10718 10713 10712 10709 ] final   11.22 input   66.30 | X-H torsion
[ 10763 10752 10751 10750 ] final -174.71 input  -60.55 | X-H torsion
[ 11005 11000 10999 10996 ] final  123.80 input  -57.11 | X-H torsion

> <Gold.Protein.ActiveResidues>
 VAL166  LYS551  ARG553  GLY616  TRP617  ASP618  TYR619  PRO620  LYS621  CYS622 
 ASP623  PHE694  ASN695  SER759  ASP760  ASP761  ALA762  ILE779  LEU786  VAL792 
 PHE793  MET794  SER795  GLU796  ALA797  LYS798  CYS799  TRP800  GLU811  SER814 

> <Gold.Protein.RotatedAtoms>
  150.9335  133.6738  159.2805 H   0  0  0  0  0  0  0  0  0  0  0  0  # atno 6907 bound_to 6896
  151.4152  135.0989  159.9607 H   0  0  0  0  0  0  0  0  0  0  0  0  # atno 6908 bound_to 6896
  152.5037  133.8799  159.7396 H   0  0  0  0  0  0  0  0  0  0  0  0  # atno 6909 bound_to 6896
  145.2722  140.9302  143.2980 H   0  0  0  0  0  0  0  0  0  0  0  0  # atno 7974 bound_to 7965
  155.6960  140.0761  157.2429 H   0  0  0  0  0  0  0  0  0  0  0  0  # atno 8008 bound_to 7997
  154.4080  140.1656  156.2192 H   0  0  0  0  0  0  0  0  0  0  0  0  # atno 8009 bound_to 7997
  155.9409  140.3384  155.6330 H   0  0  0  0  0  0  0  0  0  0  0  0  # atno 8010 bound_to 7997
  140.1383  144.4578  150.6825 H   0  0  0  0  0  0  0  0  0  0  0  0  # atno 10167 bound_to 10162
  156.9924  130.6047  149.5687 H   0  0  0  0  0  0  0  0  0  0  0  0  # atno 10718 bound_to 10713
  154.5931  135.2847  155.0615 H   0  0  0  0  0  0  0  0  0  0  0  0  # atno 10763 bound_to 10752
  154.1908  135.6441  153.5063 H   0  0  0  0  0  0  0  0  0  0  0  0  # atno 10764 bound_to 10752
  153.0128  135.5446  154.6623 H   0  0  0  0  0  0  0  0  0  0  0  0  # atno 10765 bound_to 10752
  139.9329  134.9641  156.8314 H   0  0  0  0  0  0  0  0  0  0  0  0  # atno 11005 bound_to 11000
  144.9325  139.4282  143.6488 LP  0  0  0  0  0  0  0  0  0  0  0  0  # atno 17320 bound_to 7965
  146.3243  139.8243  142.8920 LP  0  0  0  0  0  0  0  0  0  0  0  0  # atno 17321 bound_to 7965
  140.6776  143.2312  151.5468 LP  0  0  0  0  0  0  0  0  0  0  0  0  # atno 17342 bound_to 10162
  139.5485  144.2458  152.1486 LP  0  0  0  0  0  0  0  0  0  0  0  0  # atno 17343 bound_to 10162
  156.0202  130.5297  150.8253 LP  0  0  0  0  0  0  0  0  0  0  0  0  # atno 17370 bound_to 10713
  157.5449  131.0942  150.9776 LP  0  0  0  0  0  0  0  0  0  0  0  0  # atno 17371 bound_to 10713
  140.6153  134.0045  155.7594 LP  0  0  0  0  0  0  0  0  0  0  0  0  # atno 17394 bound_to 11000
  141.0928  133.9890  157.3209 LP  0  0  0  0  0  0  0  0  0  0  0  0  # atno 17395 bound_to 11000

$$$$
