AV-unprocessed.smi:1053|AV-procd|sdf|4622|dock2
  -GOLD-   22720 3123D 1   1.00000     0.00000
 Structure written by MMmdl.
 37 38  0  0  0  0  0  0  0  0  1 V2000
  148.0517  141.2654  153.7342 C   0  0  0  0  0  0  0  0  0  0  0  0
  149.0608  140.1089  153.6924 C   0  0  0  0  0  0  0  0  0  0  0  0
  150.2784  140.3243  154.4721 N   0  0  0  0  0  0  0  0  0  0  0  0
  150.9354  139.0728  154.8415 C   0  0  0  0  0  0  0  0  0  0  0  0
  152.1936  139.3162  155.6913 C   0  0  0  0  0  0  0  0  0  0  0  0
  151.8487  140.0763  156.8441 O   0  0  0  0  0  0  0  0  0  0  0  0
  151.2624  141.3362  156.5247 C   0  0  2  0  0  0  0  0  0  0  0  0
  150.9412  142.0659  157.8353 C   0  0  0  0  0  0  0  0  0  0  0  0
  152.1038  142.7699  158.3545 N   0  0  0  0  0  0  0  0  0  0  0  0
  152.6453  142.5538  159.6070 C   0  0  0  0  0  0  0  0  0  0  0  0
  152.3124  143.4487  160.5400 N   0  0  0  0  0  0  0  0  0  0  0  0
  152.8256  143.2665  161.7758 C   0  0  0  0  0  0  0  0  0  0  0  0
  153.6745  142.1830  162.0758 C   0  0  0  0  0  0  0  0  0  0  0  0
  153.9591  141.2978  161.0119 C   0  0  0  0  0  0  0  0  0  0  0  0
  154.8584  140.0836  161.1869 C   0  0  0  0  0  0  0  0  0  0  0  0
  155.3325  140.0009  162.4306 F   0  0  0  0  0  0  0  0  0  0  0  0
  154.1708  138.9723  160.9222 F   0  0  0  0  0  0  0  0  0  0  0  0
  155.8901  140.1626  160.3461 F   0  0  0  0  0  0  0  0  0  0  0  0
  153.4393  141.4909  159.7777 N   0  0  0  0  0  0  0  0  0  0  0  0
  149.9945  141.0852  155.6846 C   0  0  0  0  0  0  0  0  0  0  0  0
  147.1327  140.9899  153.2170 H   0  0  0  0  0  0  0  0  0  0  0  0
  148.4379  142.1615  153.2493 H   0  0  0  0  0  0  0  0  0  0  0  0
  147.7890  141.5213  154.7610 H   0  0  0  0  0  0  0  0  0  0  0  0
  148.5543  139.2200  154.0705 H   0  0  0  0  0  0  0  0  0  0  0  0
  149.3180  139.8882  152.6555 H   0  0  0  0  0  0  0  0  0  0  0  0
  150.2420  138.4404  155.3980 H   0  0  0  0  0  0  0  0  0  0  0  0
  151.2205  138.5161  153.9494 H   0  0  0  0  0  0  0  0  0  0  0  0
  152.6285  138.3676  156.0068 H   0  0  0  0  0  0  0  0  0  0  0  0
  152.9552  139.8427  155.1139 H   0  0  0  0  0  0  0  0  0  0  0  0
  151.9694  141.9308  155.9427 H   0  0  0  0  0  0  0  0  0  0  0  0
  150.1465  142.7929  157.6644 H   0  0  0  0  0  0  0  0  0  0  0  0
  150.5768  141.3603  158.5831 H   0  0  0  0  0  0  0  0  0  0  0  0
  152.6027  143.3907  157.7339 H   0  0  0  0  0  0  0  0  0  0  0  0
  152.5568  143.9903  162.5308 H   0  0  0  0  0  0  0  0  0  0  0  0
  154.0798  142.0456  163.0672 H   0  0  0  0  0  0  0  0  0  0  0  0
  149.5443  142.0427  155.4195 H   0  0  0  0  0  0  0  0  0  0  0  0
  149.2584  140.5528  156.2895 H   0  0  0  0  0  0  0  0  0  0  0  0
  1  2  1  0  0  0  0
  1 21  1  0  0  0  0
  1 22  1  0  0  0  0
  1 23  1  0  0  0  0
  2  3  1  0  0  0  0
  2 24  1  0  0  0  0
  2 25  1  0  0  0  0
  3 20  1  0  0  0  0
  3  4  1  0  0  0  0
  4  5  1  0  0  0  0
  4 26  1  0  0  0  0
  4 27  1  0  0  0  0
  5  6  1  0  0  0  0
  5 28  1  0  0  0  0
  5 29  1  0  0  0  0
  6  7  1  0  0  0  0
  7  8  1  0  0  0  0
  7 20  1  0  0  0  0
  7 30  1  0  0  0  0
  8  9  1  0  0  0  0
  8 31  1  0  0  0  0
  8 32  1  0  0  0  0
  9 10  1  0  0  0  0
  9 33  1  0  0  0  0
 10 19  1  0  0  0  0
 10 11  2  0  0  0  0
 11 12  1  0  0  0  0
 12 13  2  0  0  0  0
 12 34  1  0  0  0  0
 13 14  1  0  0  0  0
 13 35  1  0  0  0  0
 14 15  1  0  0  0  0
 14 19  2  0  0  0  0
 15 16  1  0  0  0  0
 15 17  1  0  0  0  0
 15 18  1  0  0  0  0
 20 36  1  0  0  0  0
 20 37  1  0  0  0  0
M  END
> <s_m_source_file>
AV-unprocessed.smi

> <i_m_source_file_index>
1053

> <i_lp_mmshare_version>
43012

> <i_f3d_flags>
0

> <s_epik_input>
W0NIM11bQ0gyXU4xW0NIMl1bQ0gyXU9bQ0BIXShbQ0gyXTEpW0NIMl1bTkhdYzJuW2NIXVtjSF1jKG4yKUMoRikoRilG

> <s_epik_cmdline>
J2VwaWtfcHl0aG9uJywgJy1waCcsICc3LjAnLCAnLXRuJywgJzgnLCAnLW1hJywgJzIwMCcsICctbWV0YWxfYmluZGluZycsICctaW1hZScsICc8aW5maWxlLm1hZT4nLCAnLW9tYWUnLCAnPG91dGZpbGUubWFlPic=

> <r_lp_tautomer_probability>
1

> <r_epik_Ionization_Penalty>
0.797829

> <r_epik_Ionization_Penalty_Charging>
0

> <r_epik_Ionization_Penalty_Neutral>
0.797829

> <r_epik_State_Penalty>
0.828842

> <r_epik_Charging_Adjusted_Penalty>
0.828842

> <i_epik_Tot_Q>
0

> <i_epik_Tot_abs_Q>
0

> <r_epik_Metal_State_Penalty>
0.828842

> <b_epik_Metal_Only>
0

> <s_lp_Force_Field>
OPLS_2005

> <r_lp_Energy>
15.9196

> <b_lp_Chiralities_Consistent>
1

> <s_lp_Variant>
AV-unprocessed.smi:1053-6

> <Gold.Version>
5.8.1

> <Gold.Id.Protein>
6NUR|6NUR_protein|mol2

> <Gold.PLP.Fitness>
42.6163

> <Gold.PLP.PLP>
-43.1081

> <Gold.PLP.part.hbond>
-1.0000

> <Gold.PLP.part.metal>
0.0000

> <Gold.PLP.part.buried>
-2.7890

> <Gold.PLP.part.nonpolar>
-39.8796

> <Gold.PLP.part.repulsive>
0.2233

> <Gold.PLP.ligand.clash>
0.0000

> <Gold.PLP.ligand.torsion>
1.2366

> <Gold.PLP.Chemscore.Hbond>
0.6500

> <Gold.PLP.Chemscore.CHOScore>
0.0000

> <Gold.PLP.Chemscore.Metal>
0.0000

> <Gold.Chemscore.Hbonds>
donor molecule, donor type, donor heavy atom, donor atom, acceptor molecule, acceptor atom, score
      P1  H  7989  7998       L1     3  0.70

> <Gold.PLP.Chemscore.Internal.Correction>
0.0316

> <Gold.Rescore>
     Score         DG    S(hbond)    S(metal)    S(lipo)     H(rot)  DE(clash)    DE(int)     intcor
     10.49     -11.72       0.05        0.00      85.26       1.52       0.23       1.00       ----

> <Gold.Chemscore.Fitness>
10.4855

> <Gold.Chemscore.DG>
-11.7247

> <Gold.Chemscore.ZeroCoef>
-5.4800

> <Gold.Chemscore.Hbond>
0.0485

> <Gold.Chemscore.Metal>
0.0000

> <Gold.Chemscore.Lipo>
85.2646

> <Gold.Chemscore.Internal_Hbond>
0.0000

> <Gold.Chemscore.DEClash>
0.2346

> <Gold.Chemscore.DEInternal>
1.0046

> <Gold.Chemscore.Rot>
1.5208

> <Gold.Chemscore.Internal.Correction>
   9.000000E+99

> <Gold.Chemscore.Hbonds>
donor molecule, donor type, donor heavy atom, donor atom, acceptor molecule, acceptor atom, score
      P1  H  7989  7998       L1     3  0.05

> <Gold.Chemscore.Hbond.Weighted>
-0.1619

> <Gold.Chemscore.Metal.Weighted>
-0.0000

> <Gold.Chemscore.Lipo.Weighted>
-9.9760

> <Gold.Chemscore.Internal_Hbond.Weighted>
0.0000

> <Gold.Chemscore.DEClash.Weighted>
0.2346

> <Gold.Chemscore.DEInternal.Weighted>
1.0046

> <Gold.Chemscore.Rot.Weighted>
3.8932

> <Gold.Chemscore.Internal.Correction.Weighted>
   9.000000E+99

> <Gold.Protein.RotatedTorsions>
[ 6907 6896 6895 6894 ] final -175.98 input  -60.11 | X-H torsion
[ 7974 7965 7964 7962 ] final -169.98 input  175.53 | X-H torsion
[ 8008 7997 7996 7995 ] final  -37.69 input   59.86 | X-H torsion
[ 10167 10162 10161 10158 ] final  -48.25 input  -65.29 | X-H torsion
[ 10718 10713 10712 10709 ] final  -18.42 input   66.30 | X-H torsion
[ 10763 10752 10751 10750 ] final   52.57 input  -60.55 | X-H torsion
[ 11005 11000 10999 10996 ] final   -7.74 input  -57.11 | X-H torsion

> <Gold.Protein.ActiveResidues>
 VAL166  LYS551  ARG553  GLY616  TRP617  ASP618  TYR619  PRO620  LYS621  CYS622 
 ASP623  PHE694  ASN695  SER759  ASP760  ASP761  ALA762  ILE779  LEU786  VAL792 
 PHE793  MET794  SER795  GLU796  ALA797  LYS798  CYS799  TRP800  GLU811  SER814 

> <Gold.Protein.RotatedAtoms>
  151.5973  133.3360  159.3039 H   0  0  0  0  0  0  0  0  0  0  0  0  # atno 6907 bound_to 6896
  150.8227  134.7446  159.6797 H   0  0  0  0  0  0  0  0  0  0  0  0  # atno 6908 bound_to 6896
  152.4319  134.5767  159.9988 H   0  0  0  0  0  0  0  0  0  0  0  0  # atno 6909 bound_to 6896
  144.7177  140.2141  143.6324 H   0  0  0  0  0  0  0  0  0  0  0  0  # atno 7974 bound_to 7965
  154.4049  140.1597  156.2577 H   0  0  0  0  0  0  0  0  0  0  0  0  # atno 8008 bound_to 7997
  155.9063  140.3430  155.6042 H   0  0  0  0  0  0  0  0  0  0  0  0  # atno 8009 bound_to 7997
  155.7388  140.0790  157.2246 H   0  0  0  0  0  0  0  0  0  0  0  0  # atno 8010 bound_to 7997
  140.6739  143.2748  151.4044 H   0  0  0  0  0  0  0  0  0  0  0  0  # atno 10167 bound_to 10162
  156.5597  130.4722  149.6412 H   0  0  0  0  0  0  0  0  0  0  0  0  # atno 10718 bound_to 10713
  152.9789  135.5808  154.4599 H   0  0  0  0  0  0  0  0  0  0  0  0  # atno 10763 bound_to 10752
  154.4177  135.2771  155.1998 H   0  0  0  0  0  0  0  0  0  0  0  0  # atno 10764 bound_to 10752
  154.3760  135.6157  153.5819 H   0  0  0  0  0  0  0  0  0  0  0  0  # atno 10765 bound_to 10752
  140.7160  133.8868  155.8785 H   0  0  0  0  0  0  0  0  0  0  0  0  # atno 11005 bound_to 11000
  145.8563  139.2200  143.1742 LP  0  0  0  0  0  0  0  0  0  0  0  0  # atno 17320 bound_to 7965
  146.0214  140.8344  142.9921 LP  0  0  0  0  0  0  0  0  0  0  0  0  # atno 17321 bound_to 7965
  139.6021  144.1273  152.2210 LP  0  0  0  0  0  0  0  0  0  0  0  0  # atno 17342 bound_to 10162
  140.0660  144.5818  150.7227 LP  0  0  0  0  0  0  0  0  0  0  0  0  # atno 17343 bound_to 10162
  156.2810  130.7070  151.1894 LP  0  0  0  0  0  0  0  0  0  0  0  0  # atno 17370 bound_to 10713
  157.7371  131.0555  150.5376 LP  0  0  0  0  0  0  0  0  0  0  0  0  # atno 17371 bound_to 10713
  141.0044  134.1106  157.4285 LP  0  0  0  0  0  0  0  0  0  0  0  0  # atno 17394 bound_to 11000
  139.8860  135.0077  156.6469 LP  0  0  0  0  0  0  0  0  0  0  0  0  # atno 17395 bound_to 11000

$$$$
