AV-unprocessed.smi:2344|AV-procd|sdf|9358|dock6
  -GOLD-   2272012583D 1   1.00000     0.00000
 Structure written by MMmdl.
 35 36  0  0  0  0  0  0  0  0  1 V2000
  152.9266  143.5684  162.2054 C   0  0  0  0  0  0  0  0  0  0  0  0
  152.1988  143.3576  160.8945 C   0  0  0  0  0  0  0  0  0  0  0  0
  151.2822  144.3101  160.4108 C   0  0  0  0  0  0  0  0  0  0  0  0
  150.6326  144.0654  159.1856 C   0  0  0  0  0  0  0  0  0  0  0  0
  150.9145  142.8779  158.4731 C   0  0  0  0  0  0  0  0  0  0  0  0
  150.2048  142.7272  157.2522 N   0  0  0  0  0  0  0  0  0  0  0  0
  150.2962  141.7310  156.3538 C   0  0  0  0  0  0  0  0  0  0  0  0
  151.0385  140.7527  156.4454 O   0  0  0  0  0  0  0  0  0  0  0  0
  149.4671  141.9341  155.3200 N   0  0  0  0  0  0  0  0  0  0  0  0
  149.3362  141.0476  154.1694 C   0  0  1  0  0  0  0  0  0  0  0  0
  149.3339  139.6097  154.6097 C   0  0  0  0  0  0  0  0  0  0  0  0
  148.2203  138.9678  154.2644 C   0  0  0  0  0  0  0  0  0  0  0  0
  147.2346  139.8490  153.5430 C   0  0  2  0  0  0  0  0  0  0  0  0
  146.8194  139.2591  152.1854 C   0  0  0  0  0  0  0  0  0  0  0  0
  146.5486  137.8795  152.3141 O   0  0  0  0  0  0  0  0  0  0  0  0
  147.9767  141.2075  153.4396 C   0  0  0  0  0  0  0  0  0  0  0  0
  151.8017  141.9676  158.9463 N   0  0  0  0  0  0  0  0  0  0  0  0
  152.4239  142.2028  160.1205 C   0  0  0  0  0  0  0  0  0  0  0  0
  150.1683  141.1986  153.4795 H   0  0  0  0  0  0  0  0  0  0  0  0
  146.3582  139.9510  154.1843 H   0  0  0  0  0  0  0  0  0  0  0  0
  152.3731  144.2470  162.8552 H   0  0  0  0  0  0  0  0  0  0  0  0
  153.9135  143.9944  162.0233 H   0  0  0  0  0  0  0  0  0  0  0  0
  153.0517  142.6221  162.7326 H   0  0  0  0  0  0  0  0  0  0  0  0
  151.0775  145.2137  160.9661 H   0  0  0  0  0  0  0  0  0  0  0  0
  149.9251  144.7855  158.8010 H   0  0  0  0  0  0  0  0  0  0  0  0
  149.5510  143.4650  157.0372 H   0  0  0  0  0  0  0  0  0  0  0  0
  148.8929  142.7641  155.3230 H   0  0  0  0  0  0  0  0  0  0  0  0
  150.1662  139.1686  155.1383 H   0  0  0  0  0  0  0  0  0  0  0  0
  148.0106  137.9306  154.4807 H   0  0  0  0  0  0  0  0  0  0  0  0
  145.9380  139.7664  151.7916 H   0  0  0  0  0  0  0  0  0  0  0  0
  147.6193  139.3860  151.4551 H   0  0  0  0  0  0  0  0  0  0  0  0
  147.3129  137.3962  152.0395 H   0  0  0  0  0  0  0  0  0  0  0  0
  147.3697  142.0049  153.8705 H   0  0  0  0  0  0  0  0  0  0  0  0
  148.1519  141.4817  152.3987 H   0  0  0  0  0  0  0  0  0  0  0  0
  153.1209  141.4463  160.4497 H   0  0  0  0  0  0  0  0  0  0  0  0
  1  2  1  0  0  0  0
  1 21  1  0  0  0  0
  1 22  1  0  0  0  0
  1 23  1  0  0  0  0
  2 18  1  0  0  0  0
  2  3  2  0  0  0  0
  3  4  1  0  0  0  0
  3 24  1  0  0  0  0
  4  5  2  0  0  0  0
  4 25  1  0  0  0  0
  5  6  1  0  0  0  0
  5 17  1  0  0  0  0
  6  7  1  0  0  0  0
  6 26  1  0  0  0  0
  7  8  2  0  0  0  0
  7  9  1  0  0  0  0
  9 10  1  0  0  0  0
  9 27  1  0  0  0  0
 10 19  1  0  0  0  0
 10 16  1  0  0  0  0
 10 11  1  0  0  0  0
 11 12  2  0  0  0  0
 11 28  1  0  0  0  0
 12 13  1  0  0  0  0
 12 29  1  0  0  0  0
 13 20  1  0  0  0  0
 13 14  1  0  0  0  0
 13 16  1  0  0  0  0
 14 15  1  0  0  0  0
 14 30  1  0  0  0  0
 14 31  1  0  0  0  0
 15 32  1  0  0  0  0
 16 33  1  0  0  0  0
 16 34  1  0  0  0  0
 17 18  2  0  0  0  0
 18 35  1  0  0  0  0
M  END
> <s_m_source_file>
AV-unprocessed.smi

> <i_m_source_file_index>
2344

> <i_lp_mmshare_version>
43012

> <i_f3d_flags>
0

> <s_epik_input>
W0NIM11jMVtjSF1bY0hdYyhuW2NIXTEpW05IXUMoPU8pW05IXVtDQEBIXTJbQ0hdPVtDSF1bQ0BASF0oW0NIMl0yKVtDSDJdW09IXQ==

> <s_epik_cmdline>
J2VwaWtfcHl0aG9uJywgJy1waCcsICc3LjAnLCAnLXRuJywgJzgnLCAnLW1hJywgJzIwMCcsICctbWV0YWxfYmluZGluZycsICctaW1hZScsICc8aW5maWxlLm1hZT4nLCAnLW9tYWUnLCAnPG91dGZpbGUubWFlPic=

> <r_lp_tautomer_probability>
1

> <r_epik_Ionization_Penalty>
5.7643e-05

> <r_epik_Ionization_Penalty_Charging>
0

> <r_epik_Ionization_Penalty_Neutral>
5.7643e-05

> <r_epik_State_Penalty>
-0

> <r_epik_Charging_Adjusted_Penalty>
0

> <i_epik_Tot_Q>
0

> <i_epik_Tot_abs_Q>
0

> <r_epik_Metal_State_Penalty>
-0

> <b_epik_Metal_Only>
0

> <s_lp_Force_Field>
OPLS_2005

> <r_lp_Energy>
17.6743

> <b_lp_Chiralities_Consistent>
1

> <s_lp_Variant>
AV-unprocessed.smi:2344-2

> <Gold.Version>
5.8.1

> <Gold.Id.Protein>
6NUR|6NUR_protein|mol2

> <Gold.PLP.Fitness>
44.8413

> <Gold.PLP.PLP>
-36.9587

> <Gold.PLP.part.hbond>
-3.0000

> <Gold.PLP.part.metal>
0.0000

> <Gold.PLP.part.buried>
-2.4090

> <Gold.PLP.part.nonpolar>
-30.8871

> <Gold.PLP.part.repulsive>
0.2030

> <Gold.PLP.ligand.clash>
0.0000

> <Gold.PLP.ligand.torsion>
0.4228

> <Gold.PLP.Chemscore.Hbond>
2.9040

> <Gold.PLP.Chemscore.CHOScore>
0.0000

> <Gold.PLP.Chemscore.Metal>
0.0000

> <Gold.Chemscore.Hbonds>
donor molecule, donor type, donor heavy atom, donor atom, acceptor molecule, acceptor atom, score
      L1  H     6    26       P1  8028  0.94
      L1  H     9    27       P1  8028  0.90
      L1  H    15    32       P1  7948  1.00

> <Gold.PLP.Chemscore.Internal.Correction>
0.0162

> <Gold.Rescore>
     Score         DG    S(hbond)    S(metal)    S(lipo)     H(rot)  DE(clash)    DE(int)     intcor
     16.51     -21.46       2.72        0.00      98.61       1.82       1.68       3.26       ----

> <Gold.Chemscore.Fitness>
16.5133

> <Gold.Chemscore.DG>
-21.4560

> <Gold.Chemscore.ZeroCoef>
-5.4800

> <Gold.Chemscore.Hbond>
2.7226

> <Gold.Chemscore.Metal>
0.0000

> <Gold.Chemscore.Lipo>
98.6128

> <Gold.Chemscore.Internal_Hbond>
0.0000

> <Gold.Chemscore.DEClash>
1.6828

> <Gold.Chemscore.DEInternal>
3.2599

> <Gold.Chemscore.Rot>
1.8184

> <Gold.Chemscore.Internal.Correction>
   9.000000E+99

> <Gold.Chemscore.Hbonds>
donor molecule, donor type, donor heavy atom, donor atom, acceptor molecule, acceptor atom, score
      L1  H     6    26       P1  8028  0.84
      L1  H     9    27       P1  8028  0.86
      L1  H    15    32       P1  7948  0.96

> <Gold.Chemscore.Hbond.Weighted>
-9.0934

> <Gold.Chemscore.Metal.Weighted>
-0.0000

> <Gold.Chemscore.Lipo.Weighted>
-11.5377

> <Gold.Chemscore.Internal_Hbond.Weighted>
0.0000

> <Gold.Chemscore.DEClash.Weighted>
1.6828

> <Gold.Chemscore.DEInternal.Weighted>
3.2599

> <Gold.Chemscore.Rot.Weighted>
4.6551

> <Gold.Chemscore.Internal.Correction.Weighted>
   9.000000E+99

> <Gold.Protein.RotatedTorsions>
[ 6907 6896 6895 6894 ] final   83.26 input  -60.11 | X-H torsion
[ 7974 7965 7964 7962 ] final  170.02 input  175.53 | X-H torsion
[ 8008 7997 7996 7995 ] final   95.22 input   59.86 | X-H torsion
[ 10167 10162 10161 10158 ] final  -90.39 input  -65.29 | X-H torsion
[ 10718 10713 10712 10709 ] final   -2.50 input   66.30 | X-H torsion
[ 10763 10752 10751 10750 ] final  -68.57 input  -60.55 | X-H torsion
[ 11005 11000 10999 10996 ] final   77.37 input  -57.11 | X-H torsion

> <Gold.Protein.ActiveResidues>
 VAL166  LYS551  ARG553  GLY616  TRP617  ASP618  TYR619  PRO620  LYS621  CYS622 
 ASP623  PHE694  ASN695  SER759  ASP760  ASP761  ALA762  ILE779  LEU786  VAL792 
 PHE793  MET794  SER795  GLU796  ALA797  LYS798  CYS799  TRP800  GLU811  SER814 

> <Gold.Protein.RotatedAtoms>
  152.5322  134.2923  159.9047 H   0  0  0  0  0  0  0  0  0  0  0  0  # atno 6907 bound_to 6896
  151.2875  133.4174  159.2638 H   0  0  0  0  0  0  0  0  0  0  0  0  # atno 6908 bound_to 6896
  151.0230  134.9498  159.8126 H   0  0  0  0  0  0  0  0  0  0  0  0  # atno 6909 bound_to 6896
  144.7337  139.9140  143.6416 H   0  0  0  0  0  0  0  0  0  0  0  0  # atno 7974 bound_to 7965
  156.0665  140.3289  155.7524 H   0  0  0  0  0  0  0  0  0  0  0  0  # atno 8008 bound_to 7997
  155.5373  140.0598  157.2894 H   0  0  0  0  0  0  0  0  0  0  0  0  # atno 8009 bound_to 7997
  154.4507  140.1917  156.0544 H   0  0  0  0  0  0  0  0  0  0  0  0  # atno 8010 bound_to 7997
  140.3554  143.2869  151.9677 H   0  0  0  0  0  0  0  0  0  0  0  0  # atno 10167 bound_to 10162
  156.7899  130.5358  149.5737 H   0  0  0  0  0  0  0  0  0  0  0  0  # atno 10718 bound_to 10713
  154.3910  135.6053  153.5843 H   0  0  0  0  0  0  0  0  0  0  0  0  # atno 10763 bound_to 10752
  152.9787  135.5883  154.4298 H   0  0  0  0  0  0  0  0  0  0  0  0  # atno 10764 bound_to 10752
  154.4082  135.2844  155.2032 H   0  0  0  0  0  0  0  0  0  0  0  0  # atno 10765 bound_to 10752
  139.9257  134.7677  156.1513 H   0  0  0  0  0  0  0  0  0  0  0  0  # atno 11005 bound_to 11000
  146.0980  139.3973  143.0365 LP  0  0  0  0  0  0  0  0  0  0  0  0  # atno 17320 bound_to 7965
  145.7619  140.9932  143.1195 LP  0  0  0  0  0  0  0  0  0  0  0  0  # atno 17321 bound_to 7965
  139.4821  144.6040  151.7555 LP  0  0  0  0  0  0  0  0  0  0  0  0  # atno 17342 bound_to 10162
  140.5179  144.0925  150.6014 LP  0  0  0  0  0  0  0  0  0  0  0  0  # atno 17343 bound_to 10162
  156.1166  130.6079  151.0129 LP  0  0  0  0  0  0  0  0  0  0  0  0  # atno 17370 bound_to 10713
  157.6606  131.0881  150.7848 LP  0  0  0  0  0  0  0  0  0  0  0  0  # atno 17371 bound_to 10713
  141.0813  133.6753  156.2342 LP  0  0  0  0  0  0  0  0  0  0  0  0  # atno 17394 bound_to 11000
  140.6342  134.5232  157.5563 LP  0  0  0  0  0  0  0  0  0  0  0  0  # atno 17395 bound_to 11000

$$$$
