AV-unprocessed.smi:212|AV-procd|sdf|1617|dock2
  -GOLD-   2262019543D 1   1.00000     0.00000
 Structure written by MMmdl.
 65 68  0  0  0  0  0  0  0  0  2 V2000
  150.2189  140.4028  154.2794 C   0  0  0  0  0  0  0  0  0  0  0  0
  149.4551  141.4149  155.1551 C   0  0  2  0  0  0  0  0  0  0  0  0
  150.0479  141.5303  156.5744 C   0  0  0  0  0  0  0  0  0  0  0  0
  149.3305  142.5625  157.3654 N   0  3  2  0  0  0  0  0  0  0  0  0
  149.9382  142.8065  158.7006 C   0  0  0  0  0  0  0  0  0  0  0  0
  151.0756  143.8534  158.6527 C   0  0  0  0  0  0  0  0  0  0  0  0
  151.9885  143.6993  159.8806 C   0  0  0  0  0  0  0  0  0  0  0  0
  151.9041  143.7585  157.3580 C   0  0  0  0  0  0  0  0  0  0  0  0
  150.5148  145.1491  158.7285 O   0  0  0  0  0  0  0  0  0  0  0  0
  147.8668  142.3136  157.4230 C   0  0  0  0  0  0  0  0  0  0  0  0
  147.2664  142.1517  156.0115 C   0  0  0  0  0  0  0  0  0  0  0  0
  148.0074  141.1852  155.2046 N   0  0  0  0  0  0  0  0  0  0  0  0
  147.5724  139.9063  155.2977 C   0  0  0  0  0  0  0  0  0  0  0  0
  147.7786  139.1921  156.4344 N   0  0  0  0  0  0  0  0  0  0  0  0
  147.3568  137.9261  156.5133 C   0  0  0  0  0  0  0  0  0  0  0  0
  146.7228  137.1983  155.5909 N   0  0  0  0  0  0  0  0  0  0  0  0
  146.5171  137.9151  154.4487 C   0  0  0  0  0  0  0  0  0  0  0  0
  146.9060  139.2644  154.2216 C   0  0  0  0  0  0  0  0  0  0  0  0
  146.5333  139.6618  152.9444 N   0  0  0  0  0  0  0  0  0  0  0  0
  145.9547  138.6049  152.4420 C   0  0  0  0  0  0  0  0  0  0  0  0
  145.8971  137.5128  153.2787 N   0  0  0  0  0  0  0  0  0  0  0  0
  145.3186  136.2163  152.9695 C   0  0  0  0  0  0  0  0  0  0  0  0
  144.4916  136.2088  151.6591 C   0  0  2  0  0  0  0  0  0  0  0  0
  143.0426  136.6989  151.9142 C   0  0  0  0  0  0  0  0  0  0  0  0
  143.0046  138.0634  152.2754 O   0  0  0  0  0  0  0  0  0  0  0  0
  144.5277  134.8007  151.0024 C   0  0  2  0  0  0  0  0  0  0  0  0
  143.7062  134.6646  149.7302 C   0  0  0  0  0  0  0  0  0  0  0  0
  143.5641  133.1535  149.5895 C   0  0  0  0  0  0  0  0  0  0  0  0
  143.5457  132.6442  150.9171 O   0  0  0  0  0  0  0  0  0  0  0  0
  143.9166  133.6675  151.8352 C   0  0  0  0  0  0  0  0  0  0  0  0
  151.2669  140.6872  154.1833 H   0  0  0  0  0  0  0  0  0  0  0  0
  149.7999  140.3578  153.2736 H   0  0  0  0  0  0  0  0  0  0  0  0
  150.1923  139.3969  154.7002 H   0  0  0  0  0  0  0  0  0  0  0  0
  149.5775  142.3869  154.6751 H   0  0  0  0  0  0  0  0  0  0  0  0
  150.0021  140.5720  157.0937 H   0  0  0  0  0  0  0  0  0  0  0  0
  151.1021  141.8020  156.5041 H   0  0  0  0  0  0  0  0  0  0  0  0
  149.1701  143.1080  159.4149 H   0  0  0  0  0  0  0  0  0  0  0  0
  150.3467  141.8746  159.0951 H   0  0  0  0  0  0  0  0  0  0  0  0
  152.4653  142.7188  159.8966 H   0  0  0  0  0  0  0  0  0  0  0  0
  151.4286  143.8069  160.8104 H   0  0  0  0  0  0  0  0  0  0  0  0
  152.7811  144.4486  159.8866 H   0  0  0  0  0  0  0  0  0  0  0  0
  152.3522  142.7701  157.2501 H   0  0  0  0  0  0  0  0  0  0  0  0
  152.7147  144.4884  157.3517 H   0  0  0  0  0  0  0  0  0  0  0  0
  151.2968  143.9432  156.4716 H   0  0  0  0  0  0  0  0  0  0  0  0
  149.6611  145.1326  158.3218 H   0  0  0  0  0  0  0  0  0  0  0  0
  147.6768  141.4217  158.0208 H   0  0  0  0  0  0  0  0  0  0  0  0
  147.3696  143.1379  157.9344 H   0  0  0  0  0  0  0  0  0  0  0  0
  146.2160  141.8646  156.0788 H   0  0  0  0  0  0  0  0  0  0  0  0
  147.2894  143.1105  155.4922 H   0  0  0  0  0  0  0  0  0  0  0  0
  147.5572  137.4237  157.4481 H   0  0  0  0  0  0  0  0  0  0  0  0
  145.5493  138.5922  151.4405 H   0  0  0  0  0  0  0  0  0  0  0  0
  146.1451  135.5088  152.9120 H   0  0  0  0  0  0  0  0  0  0  0  0
  144.6973  135.8972  153.8072 H   0  0  0  0  0  0  0  0  0  0  0  0
  144.9690  136.9140  150.9764 H   0  0  0  0  0  0  0  0  0  0  0  0
  142.4183  136.5352  151.0353 H   0  0  0  0  0  0  0  0  0  0  0  0
  142.5736  136.1575  152.7344 H   0  0  0  0  0  0  0  0  0  0  0  0
  143.4341  138.5657  151.5997 H   0  0  0  0  0  0  0  0  0  0  0  0
  145.5612  134.5389  150.7693 H   0  0  0  0  0  0  0  0  0  0  0  0
  142.7242  135.1224  149.8600 H   0  0  0  0  0  0  0  0  0  0  0  0
  144.1808  135.1132  148.8571 H   0  0  0  0  0  0  0  0  0  0  0  0
  142.6674  132.8682  149.0393 H   0  0  0  0  0  0  0  0  0  0  0  0
  144.4280  132.7368  149.0704 H   0  0  0  0  0  0  0  0  0  0  0  0
  144.6071  133.2803  152.5849 H   0  0  0  0  0  0  0  0  0  0  0  0
  143.0151  134.0066  152.3476 H   0  0  0  0  0  0  0  0  0  0  0  0
  149.4467  143.4250  156.8528 H   0  0  0  0  0  0  0  0  0  0  0  0
  1  2  1  0  0  0  0
  1 31  1  0  0  0  0
  1 32  1  0  0  0  0
  1 33  1  0  0  0  0
  2 12  1  0  0  0  0
  2  3  1  0  0  0  0
  2 34  1  0  0  0  0
  3  4  1  0  0  0  0
  3 35  1  0  0  0  0
  3 36  1  0  0  0  0
  4  5  1  0  0  0  0
  4 10  1  0  0  0  0
  4 65  1  0  0  0  0
  5  6  1  0  0  0  0
  5 37  1  0  0  0  0
  5 38  1  0  0  0  0
  6  7  1  0  0  0  0
  6  8  1  0  0  0  0
  6  9  1  0  0  0  0
  7 39  1  0  0  0  0
  7 40  1  0  0  0  0
  7 41  1  0  0  0  0
  8 42  1  0  0  0  0
  8 43  1  0  0  0  0
  8 44  1  0  0  0  0
  9 45  1  0  0  0  0
 10 11  1  0  0  0  0
 10 46  1  0  0  0  0
 10 47  1  0  0  0  0
 11 12  1  0  0  0  0
 11 48  1  0  0  0  0
 11 49  1  0  0  0  0
 12 13  1  0  0  0  0
 13 18  1  0  0  0  0
 13 14  2  0  0  0  0
 14 15  1  0  0  0  0
 15 16  2  0  0  0  0
 15 50  1  0  0  0  0
 16 17  1  0  0  0  0
 17 21  1  0  0  0  0
 17 18  2  0  0  0  0
 18 19  1  0  0  0  0
 19 20  2  0  0  0  0
 20 21  1  0  0  0  0
 20 51  1  0  0  0  0
 21 22  1  0  0  0  0
 22 23  1  0  0  0  0
 22 52  1  0  0  0  0
 22 53  1  0  0  0  0
 23 24  1  0  0  0  0
 23 26  1  0  0  0  0
 23 54  1  0  0  0  0
 24 25  1  0  0  0  0
 24 55  1  0  0  0  0
 24 56  1  0  0  0  0
 25 57  1  0  0  0  0
 26 30  1  0  0  0  0
 26 27  1  0  0  0  0
 26 58  1  0  0  0  0
 27 28  1  0  0  0  0
 27 59  1  0  0  0  0
 27 60  1  0  0  0  0
 28 29  1  0  0  0  0
 28 61  1  0  0  0  0
 28 62  1  0  0  0  0
 29 30  1  0  0  0  0
 30 63  1  0  0  0  0
 30 64  1  0  0  0  0
M  CHG  1   4   1
M  END
> <s_m_source_file>
AV-unprocessed.smi

> <i_m_source_file_index>
212

> <i_lp_mmshare_version>
43012

> <i_f3d_flags>
0

> <s_epik_input>
W0NIM11bQ0BASF0xW0NIMl1OKFtDSDJdQyhbQ0gzXSkoW0NIM10pW09IXSlbQ0gyXVtDSDJdTjFjKG5bY0hdbjIpYyhjMjMpbltjSF1uM1tDSDJdW0NASF0oW0NIMl1bT0hdKVtDQEBIXTRbQ0gyXVtDSDJdT1tDSDJdNA==

> <s_epik_cmdline>
J2VwaWtfcHl0aG9uJywgJy1waCcsICc3LjAnLCAnLXRuJywgJzgnLCAnLW1hJywgJzIwMCcsICctbWV0YWxfYmluZGluZycsICctaW1hZScsICc8aW5maWxlLm1hZT4nLCAnLW9tYWUnLCAnPG91dGZpbGUubWFlPic=

> <r_lp_tautomer_probability>
1

> <r_epik_Ionization_Penalty>
0.00182193

> <r_epik_Ionization_Penalty_Charging>
0.00173996

> <r_epik_Ionization_Penalty_Neutral>
8.19718e-05

> <r_epik_State_Penalty>
-0

> <r_epik_Charging_Adjusted_Penalty>
0.00173996

> <i_epik_Tot_Q>
1

> <i_epik_Tot_abs_Q>
1

> <r_epik_Metal_State_Penalty>
-0

> <b_epik_Metal_Only>
0

> <s_lp_Force_Field>
OPLS_2005

> <r_lp_Energy>
60.482

> <b_lp_Chiralities_Consistent>
1

> <s_lp_Variant>
AV-unprocessed.smi:212-1

> <Gold.Version>
5.8.1

> <Gold.Id.Protein>
6NUR|6NUR_protein|mol2

> <Gold.PLP.Fitness>
51.6816

> <Gold.PLP.PLP>
-38.9490

> <Gold.PLP.part.hbond>
-4.1735

> <Gold.PLP.part.metal>
0.0000

> <Gold.PLP.part.buried>
-0.9035

> <Gold.PLP.part.nonpolar>
-34.4808

> <Gold.PLP.part.repulsive>
0.5738

> <Gold.PLP.ligand.clash>
0.0000

> <Gold.PLP.ligand.torsion>
1.4182

> <Gold.PLP.Chemscore.Hbond>
4.0000

> <Gold.PLP.Chemscore.CHOScore>
0.6786

> <Gold.PLP.Chemscore.Metal>
0.0000

> <Gold.Chemscore.Hbonds>
donor molecule, donor type, donor heavy atom, donor atom, acceptor molecule, acceptor atom, score
      L1  H     4    65       P1  8028  2.00
      L1  H     9    45       P1  8029  0.59
      L1  H    25    57       P1 10171  0.88
      L1  C    20    51       P1 10171  1.00
      L1  C    20    51       P1 10175  0.03

> <Gold.PLP.Chemscore.Internal.Correction>
1.5332

> <Gold.Rescore>
     Score         DG    S(hbond)    S(metal)    S(lipo)     H(rot)  DE(clash)    DE(int)     intcor
     13.71     -17.15       2.44        0.00     110.60       3.68       1.82       1.62       ----

> <Gold.Chemscore.Fitness>
13.7112

> <Gold.Chemscore.DG>
-17.1513

> <Gold.Chemscore.ZeroCoef>
-5.4800

> <Gold.Chemscore.Hbond>
2.4416

> <Gold.Chemscore.Metal>
0.0000

> <Gold.Chemscore.Lipo>
110.5998

> <Gold.Chemscore.Internal_Hbond>
0.0000

> <Gold.Chemscore.DEClash>
1.8192

> <Gold.Chemscore.DEInternal>
1.6209

> <Gold.Chemscore.Rot>
3.6812

> <Gold.Chemscore.Internal.Correction>
   9.000000E+99

> <Gold.Chemscore.Hbonds>
donor molecule, donor type, donor heavy atom, donor atom, acceptor molecule, acceptor atom, score
      L1  H     4    65       P1  8028  0.95
      L1  H     9    45       P1  8029  0.26
      L1  H    25    57       P1 10171  0.43

> <Gold.Chemscore.Hbond.Weighted>
-8.1551

> <Gold.Chemscore.Metal.Weighted>
-0.0000

> <Gold.Chemscore.Lipo.Weighted>
-12.9402

> <Gold.Chemscore.Internal_Hbond.Weighted>
0.0000

> <Gold.Chemscore.DEClash.Weighted>
1.8192

> <Gold.Chemscore.DEInternal.Weighted>
1.6209

> <Gold.Chemscore.Rot.Weighted>
9.4239

> <Gold.Chemscore.Internal.Correction.Weighted>
   9.000000E+99

> <Gold.Protein.RotatedTorsions>
[ 6907 6896 6895 6894 ] final   93.13 input  -60.11 | X-H torsion
[ 7974 7965 7964 7962 ] final  171.87 input  175.53 | X-H torsion
[ 8008 7997 7996 7995 ] final  -41.26 input   59.86 | X-H torsion
[ 10167 10162 10161 10158 ] final   -1.85 input  -65.29 | X-H torsion
[ 10718 10713 10712 10709 ] final  -69.46 input   66.30 | X-H torsion
[ 10763 10752 10751 10750 ] final   94.89 input  -60.55 | X-H torsion
[ 11005 11000 10999 10996 ] final  -36.22 input  -57.11 | X-H torsion

> <Gold.Protein.ActiveResidues>
 VAL166  LYS551  ARG553  GLY616  TRP617  ASP618  TYR619  PRO620  LYS621  CYS622 
 ASP623  PHE694  ASN695  SER759  ASP760  ASP761  ALA762  ILE779  LEU786  VAL792 
 PHE793  MET794  SER795  GLU796  ALA797  LYS798  CYS799  TRP800  GLU811  SER814 

> <Gold.Protein.RotatedAtoms>
  152.5453  134.1395  159.8472 H   0  0  0  0  0  0  0  0  0  0  0  0  # atno 6907 bound_to 6896
  151.1433  133.4950  159.2604 H   0  0  0  0  0  0  0  0  0  0  0  0  # atno 6908 bound_to 6896
  151.1550  135.0256  159.8740 H   0  0  0  0  0  0  0  0  0  0  0  0  # atno 6909 bound_to 6896
  144.7283  139.9415  143.6429 H   0  0  0  0  0  0  0  0  0  0  0  0  # atno 7974 bound_to 7965
  154.4005  140.1504  156.3162 H   0  0  0  0  0  0  0  0  0  0  0  0  # atno 8008 bound_to 7997
  155.8571  140.3455  155.5710 H   0  0  0  0  0  0  0  0  0  0  0  0  # atno 8009 bound_to 7997
  155.7921  140.0858  157.1994 H   0  0  0  0  0  0  0  0  0  0  0  0  # atno 8010 bound_to 7997
  140.6827  143.6727  150.8172 H   0  0  0  0  0  0  0  0  0  0  0  0  # atno 10167 bound_to 10162
  156.0454  130.4313  150.2151 H   0  0  0  0  0  0  0  0  0  0  0  0  # atno 10718 bound_to 10713
  153.2468  135.4273  155.0756 H   0  0  0  0  0  0  0  0  0  0  0  0  # atno 10763 bound_to 10752
  154.8364  135.3416  154.6570 H   0  0  0  0  0  0  0  0  0  0  0  0  # atno 10764 bound_to 10752
  153.6992  135.7029  153.5124 H   0  0  0  0  0  0  0  0  0  0  0  0  # atno 10765 bound_to 10752
  140.9858  133.7031  156.1762 H   0  0  0  0  0  0  0  0  0  0  0  0  # atno 11005 bound_to 11000
  146.0781  139.3769  143.0481 LP  0  0  0  0  0  0  0  0  0  0  0  0  # atno 17320 bound_to 7965
  145.7878  140.9828  143.1065 LP  0  0  0  0  0  0  0  0  0  0  0  0  # atno 17321 bound_to 7965
  140.0429  143.5327  152.2709 LP  0  0  0  0  0  0  0  0  0  0  0  0  # atno 17342 bound_to 10162
  139.6161  144.7619  151.2843 LP  0  0  0  0  0  0  0  0  0  0  0  0  # atno 17343 bound_to 10162
  157.0242  130.9988  151.3331 LP  0  0  0  0  0  0  0  0  0  0  0  0  # atno 17370 bound_to 10713
  157.5323  130.8066  149.7931 LP  0  0  0  0  0  0  0  0  0  0  0  0  # atno 17371 bound_to 10713
  140.7117  134.4454  157.5581 LP  0  0  0  0  0  0  0  0  0  0  0  0  # atno 17394 bound_to 11000
  139.8970  134.8647  156.2064 LP  0  0  0  0  0  0  0  0  0  0  0  0  # atno 17395 bound_to 11000

$$$$
