AV-unprocessed.smi:1702|AV-procd|sdf|6846|dock1
  -GOLD-   22720 8 23D 1   1.00000     0.00000
 Structure written by MMmdl.
 44 46  0  0  0  0  0  0  0  0  2 V2000
  145.2752  136.0683  151.3754 C   0  0  0  0  0  0  0  0  0  0  0  0
  145.5333  137.2326  152.3417 C   0  0  2  0  0  0  0  0  0  0  0  0
  146.4032  138.3247  151.6977 C   0  0  0  0  0  0  0  0  0  0  0  0
  146.6829  139.4707  152.6844 C   0  0  0  0  0  0  0  0  0  0  0  0
  147.3231  138.9667  153.9268 N   0  3  1  0  0  0  0  0  0  0  0  0
  147.7248  140.0696  154.8371 C   0  0  0  0  0  0  0  0  0  0  0  0
  149.1589  140.5818  154.5696 C   0  0  1  0  0  0  0  0  0  0  0  0
  149.2034  141.1873  153.2931 O   0  0  0  0  0  0  0  0  0  0  0  0
  149.6306  141.6329  155.5936 C   0  0  0  0  0  0  0  0  0  0  0  0
  150.7457  141.1667  156.3976 N   0  0  0  0  0  0  0  0  0  0  0  0
  151.5335  140.1032  156.1468 C   0  0  0  0  0  0  0  0  0  0  0  0
  152.5015  139.8430  157.0206 N   0  0  0  0  0  0  0  0  0  0  0  0
  152.3278  140.8600  157.9431 C   0  0  0  0  0  0  0  0  0  0  0  0
  153.0385  141.1546  159.1283 C   0  0  0  0  0  0  0  0  0  0  0  0
  152.6715  142.2580  159.9267 C   0  0  0  0  0  0  0  0  0  0  0  0
  153.3616  142.5247  161.0607 F   0  0  0  0  0  0  0  0  0  0  0  0
  151.5897  143.0825  159.5516 C   0  0  0  0  0  0  0  0  0  0  0  0
  151.2413  144.1378  160.3250 F   0  0  0  0  0  0  0  0  0  0  0  0
  150.8677  142.8096  158.3741 C   0  0  0  0  0  0  0  0  0  0  0  0
  151.2374  141.7075  157.5813 C   0  0  0  0  0  0  0  0  0  0  0  0
  146.4824  137.9343  154.5899 C   0  0  0  0  0  0  0  0  0  0  0  0
  146.2006  136.7562  153.6427 C   0  0  0  0  0  0  0  0  0  0  0  0
  146.2065  135.5863  151.0765 H   0  0  0  0  0  0  0  0  0  0  0  0
  144.7735  136.4130  150.4706 H   0  0  0  0  0  0  0  0  0  0  0  0
  144.6406  135.3100  151.8349 H   0  0  0  0  0  0  0  0  0  0  0  0
  144.5677  137.6725  152.5959 H   0  0  0  0  0  0  0  0  0  0  0  0
  147.3482  137.8958  151.3608 H   0  0  0  0  0  0  0  0  0  0  0  0
  145.9096  138.7194  150.8088 H   0  0  0  0  0  0  0  0  0  0  0  0
  147.3342  140.2017  152.2038 H   0  0  0  0  0  0  0  0  0  0  0  0
  145.7554  139.9881  152.9353 H   0  0  0  0  0  0  0  0  0  0  0  0
  147.0366  140.9095  154.7293 H   0  0  0  0  0  0  0  0  0  0  0  0
  147.6157  139.7222  155.8649 H   0  0  0  0  0  0  0  0  0  0  0  0
  149.8713  139.7577  154.5753 H   0  0  0  0  0  0  0  0  0  0  0  0
  149.2840  140.5144  152.6346 H   0  0  0  0  0  0  0  0  0  0  0  0
  149.9412  142.5457  155.0826 H   0  0  0  0  0  0  0  0  0  0  0  0
  148.8134  141.9139  156.2592 H   0  0  0  0  0  0  0  0  0  0  0  0
  151.3840  139.4819  155.2756 H   0  0  0  0  0  0  0  0  0  0  0  0
  153.8679  140.5301  159.4256 H   0  0  0  0  0  0  0  0  0  0  0  0
  150.0396  143.4400  158.0865 H   0  0  0  0  0  0  0  0  0  0  0  0
  146.9760  137.5553  155.4837 H   0  0  0  0  0  0  0  0  0  0  0  0
  145.5429  138.3829  154.9171 H   0  0  0  0  0  0  0  0  0  0  0  0
  145.5621  136.0281  154.1442 H   0  0  0  0  0  0  0  0  0  0  0  0
  147.1352  136.2415  153.4142 H   0  0  0  0  0  0  0  0  0  0  0  0
  148.1767  138.5126  153.6349 H   0  0  0  0  0  0  0  0  0  0  0  0
  1  2  1  0  0  0  0
  1 23  1  0  0  0  0
  1 24  1  0  0  0  0
  1 25  1  0  0  0  0
  2 22  1  0  0  0  0
  2  3  1  0  0  0  0
  2 26  1  0  0  0  0
  3  4  1  0  0  0  0
  3 27  1  0  0  0  0
  3 28  1  0  0  0  0
  4  5  1  0  0  0  0
  4 29  1  0  0  0  0
  4 30  1  0  0  0  0
  5  6  1  0  0  0  0
  5 21  1  0  0  0  0
  5 44  1  0  0  0  0
  6  7  1  0  0  0  0
  6 31  1  0  0  0  0
  6 32  1  0  0  0  0
  7  8  1  0  0  0  0
  7  9  1  0  0  0  0
  7 33  1  0  0  0  0
  8 34  1  0  0  0  0
  9 10  1  0  0  0  0
  9 35  1  0  0  0  0
  9 36  1  0  0  0  0
 10 20  1  0  0  0  0
 10 11  1  0  0  0  0
 11 12  2  0  0  0  0
 11 37  1  0  0  0  0
 12 13  1  0  0  0  0
 13 20  2  0  0  0  0
 13 14  1  0  0  0  0
 14 15  2  0  0  0  0
 14 38  1  0  0  0  0
 15 16  1  0  0  0  0
 15 17  1  0  0  0  0
 17 18  1  0  0  0  0
 17 19  2  0  0  0  0
 19 20  1  0  0  0  0
 19 39  1  0  0  0  0
 21 22  1  0  0  0  0
 21 40  1  0  0  0  0
 21 41  1  0  0  0  0
 22 42  1  0  0  0  0
 22 43  1  0  0  0  0
M  CHG  1   5   1
M  END
> <s_m_source_file>
AV-unprocessed.smi

> <i_m_source_file_index>
1702

> <i_lp_mmshare_version>
43012

> <i_f3d_flags>
0

> <s_epik_input>
W0NIM11bQ0hdMVtDSDJdW0NIMl1OKFtDSDJdW0NIMl0xKVtDSDJdW0NASF0oW09IXSlbQ0gyXW4oW2NIXW4yKWMoYzIzKVtjSF1jKEYpYyhGKVtjSF0z

> <s_epik_cmdline>
J2VwaWtfcHl0aG9uJywgJy1waCcsICc3LjAnLCAnLXRuJywgJzgnLCAnLW1hJywgJzIwMCcsICctbWV0YWxfYmluZGluZycsICctaW1hZScsICc8aW5maWxlLm1hZT4nLCAnLW9tYWUnLCAnPG91dGZpbGUubWFlPic=

> <r_epik_Ionization_Penalty>
0.0135195

> <r_epik_Ionization_Penalty_Charging>
0.00181365

> <r_epik_Ionization_Penalty_Neutral>
0.0117059

> <r_epik_State_Penalty>
0.00902283

> <r_epik_Charging_Adjusted_Penalty>
0.0108365

> <i_epik_Tot_Q>
1

> <i_epik_Tot_abs_Q>
1

> <r_epik_Metal_State_Penalty>
9.09181e-06

> <b_epik_Metal_Only>
0

> <s_lp_Force_Field>
OPLS_2005

> <r_lp_Energy>
23.1307

> <b_lp_Chiralities_Consistent>
1

> <s_lp_Variant>
AV-unprocessed.smi:1702-2

> <Gold.Version>
5.8.1

> <Gold.Id.Protein>
6NUR|6NUR_protein|mol2

> <Gold.PLP.Fitness>
52.7400

> <Gold.PLP.PLP>
-46.4920

> <Gold.PLP.part.hbond>
-3.4689

> <Gold.PLP.part.metal>
0.0000

> <Gold.PLP.part.buried>
-3.3068

> <Gold.PLP.part.nonpolar>
-40.5318

> <Gold.PLP.part.repulsive>
0.0000

> <Gold.PLP.ligand.clash>
0.0000

> <Gold.PLP.ligand.torsion>
1.3778

> <Gold.PLP.Chemscore.Hbond>
2.9406

> <Gold.PLP.Chemscore.CHOScore>
0.0000

> <Gold.PLP.Chemscore.Metal>
0.0000

> <Gold.Chemscore.Hbonds>
donor molecule, donor type, donor heavy atom, donor atom, acceptor molecule, acceptor atom, score
      L1  H     8    34       P1  7957  1.00
      P1  H  7997  8008       L1    12  1.00
      P1  H  8011  8017       L1     8  0.75

> <Gold.PLP.Chemscore.Internal.Correction>
0.1818

> <Gold.Rescore>
     Score         DG    S(hbond)    S(metal)    S(lipo)     H(rot)  DE(clash)    DE(int)     intcor
     16.92     -18.48       2.09        0.00     100.79       2.26       0.02       1.54       ----

> <Gold.Chemscore.Fitness>
16.9207

> <Gold.Chemscore.DG>
-18.4776

> <Gold.Chemscore.ZeroCoef>
-5.4800

> <Gold.Chemscore.Hbond>
2.0946

> <Gold.Chemscore.Metal>
0.0000

> <Gold.Chemscore.Lipo>
100.7855

> <Gold.Chemscore.Internal_Hbond>
0.0000

> <Gold.Chemscore.DEClash>
0.0175

> <Gold.Chemscore.DEInternal>
1.5394

> <Gold.Chemscore.Rot>
2.2619

> <Gold.Chemscore.Internal.Correction>
   9.000000E+99

> <Gold.Chemscore.Hbonds>
donor molecule, donor type, donor heavy atom, donor atom, acceptor molecule, acceptor atom, score
      L1  H     8    34       P1  7957  0.93
      P1  H  7997  8008       L1    12  0.25
      P1  H  8011  8017       L1     8  0.09

> <Gold.Chemscore.Hbond.Weighted>
-6.9961

> <Gold.Chemscore.Metal.Weighted>
-0.0000

> <Gold.Chemscore.Lipo.Weighted>
-11.7919

> <Gold.Chemscore.Internal_Hbond.Weighted>
0.0000

> <Gold.Chemscore.DEClash.Weighted>
0.0175

> <Gold.Chemscore.DEInternal.Weighted>
1.5394

> <Gold.Chemscore.Rot.Weighted>
5.7904

> <Gold.Chemscore.Internal.Correction.Weighted>
   9.000000E+99

> <Gold.Protein.RotatedTorsions>
[ 6907 6896 6895 6894 ] final  108.82 input  -60.11 | X-H torsion
[ 7974 7965 7964 7962 ] final -108.70 input  175.53 | X-H torsion
[ 8008 7997 7996 7995 ] final  -57.97 input   59.86 | X-H torsion
[ 10167 10162 10161 10158 ] final -179.93 input  -65.29 | X-H torsion
[ 10718 10713 10712 10709 ] final   78.79 input   66.30 | X-H torsion
[ 10763 10752 10751 10750 ] final -108.94 input  -60.55 | X-H torsion
[ 11005 11000 10999 10996 ] final   46.58 input  -57.11 | X-H torsion

> <Gold.Protein.ActiveResidues>
 VAL166  LYS551  ARG553  GLY616  TRP617  ASP618  TYR619  PRO620  LYS621  CYS622 
 ASP623  PHE694  ASN695  SER759  ASP760  ASP761  ALA762  ILE779  LEU786  VAL792 
 PHE793  MET794  SER795  GLU796  ALA797  LYS798  CYS799  TRP800  GLU811  SER814 

> <Gold.Protein.RotatedAtoms>
  152.5095  133.9034  159.7451 H   0  0  0  0  0  0  0  0  0  0  0  0  # atno 6907 bound_to 6896
  150.9444  133.6611  159.2791 H   0  0  0  0  0  0  0  0  0  0  0  0  # atno 6908 bound_to 6896
  151.3911  135.0961  159.9579 H   0  0  0  0  0  0  0  0  0  0  0  0  # atno 6909 bound_to 6896
  145.1896  140.9008  143.3432 H   0  0  0  0  0  0  0  0  0  0  0  0  # atno 7974 bound_to 7965
  154.4289  140.1095  156.5882 H   0  0  0  0  0  0  0  0  0  0  0  0  # atno 8008 bound_to 7997
  155.6040  140.3493  155.4583 H   0  0  0  0  0  0  0  0  0  0  0  0  # atno 8009 bound_to 7997
  156.0151  140.1227  157.0404 H   0  0  0  0  0  0  0  0  0  0  0  0  # atno 8010 bound_to 7997
  139.5364  144.2485  152.0803 H   0  0  0  0  0  0  0  0  0  0  0  0  # atno 10167 bound_to 10162
  157.6756  130.9884  150.1837 H   0  0  0  0  0  0  0  0  0  0  0  0  # atno 10718 bound_to 10713
  154.8165  135.4619  154.0657 H   0  0  0  0  0  0  0  0  0  0  0  0  # atno 10763 bound_to 10752
  153.2046  135.6873  153.8195 H   0  0  0  0  0  0  0  0  0  0  0  0  # atno 10764 bound_to 10752
  153.7668  135.3276  155.3323 H   0  0  0  0  0  0  0  0  0  0  0  0  # atno 10765 bound_to 10752
  140.1356  134.4649  155.8488 H   0  0  0  0  0  0  0  0  0  0  0  0  # atno 11005 bound_to 11000
  145.0055  139.3559  143.6146 LP  0  0  0  0  0  0  0  0  0  0  0  0  # atno 17320 bound_to 7965
  146.3438  139.9295  142.8755 LP  0  0  0  0  0  0  0  0  0  0  0  0  # atno 17321 bound_to 7965
  140.1957  144.4708  150.6456 LP  0  0  0  0  0  0  0  0  0  0  0  0  # atno 17342 bound_to 10162
  140.6573  143.2241  151.5940 LP  0  0  0  0  0  0  0  0  0  0  0  0  # atno 17343 bound_to 10162
  156.2564  130.3706  149.8177 LP  0  0  0  0  0  0  0  0  0  0  0  0  # atno 17370 bound_to 10713
  156.5935  130.8516  151.3414 LP  0  0  0  0  0  0  0  0  0  0  0  0  # atno 17371 bound_to 10713
  141.2178  133.6813  156.7151 LP  0  0  0  0  0  0  0  0  0  0  0  0  # atno 17394 bound_to 11000
  140.2787  134.8334  157.3913 LP  0  0  0  0  0  0  0  0  0  0  0  0  # atno 17395 bound_to 11000

$$$$
