AV-unprocessed.smi:1543|AV-procd|sdf|6210|dock9
  -GOLD-   22720 6383D 1   1.00000     0.00000
 Structure written by MMmdl.
 49 50  0  0  0  0  0  0  0  0  2 V2000
  150.7458  133.6584  155.5299 C   0  0  0  0  0  0  0  0  0  0  0  0
  149.7368  134.5258  154.7690 C   0  0  2  0  0  0  0  0  0  0  0  0
  149.7796  135.9983  155.2189 C   0  0  0  0  0  0  0  0  0  0  0  0
  148.7431  136.7957  154.5045 N   0  3  2  0  0  0  0  0  0  0  0  0
  148.8018  138.2881  154.7120 C   0  0  0  0  0  0  0  0  0  0  0  0
  147.8079  138.9920  153.7541 C   0  0  0  0  0  0  0  0  0  0  0  0
  148.3251  138.6257  156.1474 C   0  0  0  0  0  0  0  0  0  0  0  0
  150.2405  138.8372  154.4704 C   0  0  0  0  0  0  0  0  0  0  0  0
  150.4694  140.1544  155.0633 N   0  0  0  0  0  0  0  0  0  0  0  0
  151.0534  140.3858  156.2478 C   0  0  0  0  0  0  0  0  0  0  0  0
  151.4648  139.4922  156.9872 O   0  0  0  0  0  0  0  0  0  0  0  0
  151.1343  141.7033  156.4999 N   0  0  0  0  0  0  0  0  0  0  0  0
  151.6612  142.3534  157.6485 C   0  0  0  0  0  0  0  0  0  0  0  0
  152.1771  141.6782  158.7815 C   0  0  0  0  0  0  0  0  0  0  0  0
  152.6547  142.4382  159.8663 C   0  0  0  0  0  0  0  0  0  0  0  0
  152.5932  143.8426  159.7830 C   0  0  0  0  0  0  0  0  0  0  0  0
  152.0917  144.4992  158.7158 N   0  0  0  0  0  0  0  0  0  0  0  0
  151.6344  143.7640  157.6800 C   0  0  0  0  0  0  0  0  0  0  0  0
  147.4077  136.1642  154.7042 C   0  0  0  0  0  0  0  0  0  0  0  0
  147.4344  134.6876  154.2671 C   0  0  2  0  0  0  0  0  0  0  0  0
  146.0948  133.9854  154.5164 C   0  0  0  0  0  0  0  0  0  0  0  0
  148.4364  134.0029  155.0075 O   0  0  0  0  0  0  0  0  0  0  0  0
  151.7657  134.0088  155.3689 H   0  0  0  0  0  0  0  0  0  0  0  0
  150.6957  132.6212  155.1976 H   0  0  0  0  0  0  0  0  0  0  0  0
  150.5513  133.6739  156.6025 H   0  0  0  0  0  0  0  0  0  0  0  0
  149.9612  134.4608  153.7029 H   0  0  0  0  0  0  0  0  0  0  0  0
  149.6210  136.0560  156.2960 H   0  0  0  0  0  0  0  0  0  0  0  0
  150.7803  136.3773  155.0203 H   0  0  0  0  0  0  0  0  0  0  0  0
  147.6675  140.0409  154.0174 H   0  0  0  0  0  0  0  0  0  0  0  0
  146.8244  138.5218  153.7845 H   0  0  0  0  0  0  0  0  0  0  0  0
  148.1530  138.9854  152.7204 H   0  0  0  0  0  0  0  0  0  0  0  0
  148.1460  139.6938  156.2747 H   0  0  0  0  0  0  0  0  0  0  0  0
  149.0597  138.3512  156.9040 H   0  0  0  0  0  0  0  0  0  0  0  0
  147.3900  138.1178  156.3864 H   0  0  0  0  0  0  0  0  0  0  0  0
  150.9938  138.1377  154.8338 H   0  0  0  0  0  0  0  0  0  0  0  0
  150.4307  138.9480  153.4035 H   0  0  0  0  0  0  0  0  0  0  0  0
  150.1667  140.9518  154.5232 H   0  0  0  0  0  0  0  0  0  0  0  0
  150.8305  142.3179  155.7587 H   0  0  0  0  0  0  0  0  0  0  0  0
  152.2030  140.6019  158.8476 H   0  0  0  0  0  0  0  0  0  0  0  0
  153.0553  141.9544  160.7448 H   0  0  0  0  0  0  0  0  0  0  0  0
  152.9506  144.4546  160.5978 H   0  0  0  0  0  0  0  0  0  0  0  0
  151.2367  144.3231  156.8455 H   0  0  0  0  0  0  0  0  0  0  0  0
  147.1152  136.2262  155.7527 H   0  0  0  0  0  0  0  0  0  0  0  0
  146.6371  136.6692  154.1251 H   0  0  0  0  0  0  0  0  0  0  0  0
  147.6652  134.6231  153.2021 H   0  0  0  0  0  0  0  0  0  0  0  0
  145.2894  134.4660  153.9605 H   0  0  0  0  0  0  0  0  0  0  0  0
  145.8284  134.0033  155.5736 H   0  0  0  0  0  0  0  0  0  0  0  0
  146.1376  132.9423  154.2019 H   0  0  0  0  0  0  0  0  0  0  0  0
  148.9476  136.6702  153.5233 H   0  0  0  0  0  0  0  0  0  0  0  0
  1  2  1  0  0  0  0
  1 23  1  0  0  0  0
  1 24  1  0  0  0  0
  1 25  1  0  0  0  0
  2 22  1  0  0  0  0
  2  3  1  0  0  0  0
  2 26  1  0  0  0  0
  3  4  1  0  0  0  0
  3 27  1  0  0  0  0
  3 28  1  0  0  0  0
  4  5  1  0  0  0  0
  4 19  1  0  0  0  0
  4 49  1  0  0  0  0
  5  6  1  0  0  0  0
  5  7  1  0  0  0  0
  5  8  1  0  0  0  0
  6 29  1  0  0  0  0
  6 30  1  0  0  0  0
  6 31  1  0  0  0  0
  7 32  1  0  0  0  0
  7 33  1  0  0  0  0
  7 34  1  0  0  0  0
  8  9  1  0  0  0  0
  8 35  1  0  0  0  0
  8 36  1  0  0  0  0
  9 10  1  0  0  0  0
  9 37  1  0  0  0  0
 10 11  2  0  0  0  0
 10 12  1  0  0  0  0
 12 13  1  0  0  0  0
 12 38  1  0  0  0  0
 13 18  1  0  0  0  0
 13 14  2  0  0  0  0
 14 15  1  0  0  0  0
 14 39  1  0  0  0  0
 15 16  2  0  0  0  0
 15 40  1  0  0  0  0
 16 17  1  0  0  0  0
 16 41  1  0  0  0  0
 17 18  2  0  0  0  0
 18 42  1  0  0  0  0
 19 20  1  0  0  0  0
 19 43  1  0  0  0  0
 19 44  1  0  0  0  0
 20 21  1  0  0  0  0
 20 22  1  0  0  0  0
 20 45  1  0  0  0  0
 21 46  1  0  0  0  0
 21 47  1  0  0  0  0
 21 48  1  0  0  0  0
M  CHG  1   4   1
M  END
> <s_m_source_file>
AV-unprocessed.smi

> <i_m_source_file_index>
1543

> <i_lp_mmshare_version>
43012

> <i_f3d_flags>
0

> <s_epik_input>
W0NIM11bQ0BASF0xW0NIMl1OKFtDSDJdW0NASF0oTzEpW0NIM10pQyhbQ0gzXSkoW0NIM10pW0NIMl1bTkhdQyg9TylbTkhdYzJbY0hdW2NIXVtjSF1uW2NIXTI=

> <s_epik_cmdline>
J2VwaWtfcHl0aG9uJywgJy1waCcsICc3LjAnLCAnLXRuJywgJzgnLCAnLW1hJywgJzIwMCcsICctbWV0YWxfYmluZGluZycsICctaW1hZScsICc8aW5maWxlLm1hZT4nLCAnLW9tYWUnLCAnPG91dGZpbGUubWFlPic=

> <r_epik_Ionization_Penalty>
0.60676

> <r_epik_Ionization_Penalty_Charging>
0.602531

> <r_epik_Ionization_Penalty_Neutral>
0.00422967

> <r_epik_State_Penalty>
0.607492

> <r_epik_Charging_Adjusted_Penalty>
1.21002

> <i_epik_Tot_Q>
1

> <i_epik_Tot_abs_Q>
1

> <r_epik_Metal_State_Penalty>
0.604589

> <b_epik_Metal_Only>
0

> <s_lp_Force_Field>
OPLS_2005

> <r_lp_Energy>
27.1707

> <b_lp_Chiralities_Consistent>
1

> <s_lp_Variant>
AV-unprocessed.smi:1543-6

> <Gold.Version>
5.8.1

> <Gold.Id.Protein>
6NUR|6NUR_protein|mol2

> <Gold.PLP.Fitness>
40.9783

> <Gold.PLP.PLP>
-32.8635

> <Gold.PLP.part.hbond>
-1.0000

> <Gold.PLP.part.metal>
0.0000

> <Gold.PLP.part.buried>
-5.8741

> <Gold.PLP.part.nonpolar>
-26.5898

> <Gold.PLP.part.repulsive>
1.0457

> <Gold.PLP.ligand.clash>
0.0000

> <Gold.PLP.ligand.torsion>
0.4958

> <Gold.PLP.Chemscore.Hbond>
2.0000

> <Gold.PLP.Chemscore.CHOScore>
1.0000

> <Gold.PLP.Chemscore.Metal>
0.0000

> <Gold.Chemscore.Hbonds>
donor molecule, donor type, donor heavy atom, donor atom, acceptor molecule, acceptor atom, score
      L1  H     4    49       P1  7948  2.00
      L1  C    18    42       P1  8028  0.75

> <Gold.PLP.Chemscore.Internal.Correction>
0.1065

> <Gold.Rescore>
     Score         DG    S(hbond)    S(metal)    S(lipo)     H(rot)  DE(clash)    DE(int)     intcor
     14.00     -15.88       1.00        0.00      92.40       1.46       0.09       1.79       ----

> <Gold.Chemscore.Fitness>
14.0020

> <Gold.Chemscore.DG>
-15.8778

> <Gold.Chemscore.ZeroCoef>
-5.4800

> <Gold.Chemscore.Hbond>
0.9978

> <Gold.Chemscore.Metal>
0.0000

> <Gold.Chemscore.Lipo>
92.4027

> <Gold.Chemscore.Internal_Hbond>
0.0000

> <Gold.Chemscore.DEClash>
0.0862

> <Gold.Chemscore.DEInternal>
1.7896

> <Gold.Chemscore.Rot>
1.4632

> <Gold.Chemscore.Internal.Correction>
   9.000000E+99

> <Gold.Chemscore.Hbonds>
donor molecule, donor type, donor heavy atom, donor atom, acceptor molecule, acceptor atom, score
      L1  H     4    49       P1  7948  1.00

> <Gold.Chemscore.Hbond.Weighted>
-3.3326

> <Gold.Chemscore.Metal.Weighted>
-0.0000

> <Gold.Chemscore.Lipo.Weighted>
-10.8111

> <Gold.Chemscore.Internal_Hbond.Weighted>
0.0000

> <Gold.Chemscore.DEClash.Weighted>
0.0862

> <Gold.Chemscore.DEInternal.Weighted>
1.7896

> <Gold.Chemscore.Rot.Weighted>
3.7459

> <Gold.Chemscore.Internal.Correction.Weighted>
   9.000000E+99

> <Gold.Protein.RotatedTorsions>
[ 6907 6896 6895 6894 ] final -141.96 input  -60.11 | X-H torsion
[ 7974 7965 7964 7962 ] final -176.26 input  175.53 | X-H torsion
[ 8008 7997 7996 7995 ] final  128.38 input   59.86 | X-H torsion
[ 10167 10162 10161 10158 ] final -178.42 input  -65.29 | X-H torsion
[ 10718 10713 10712 10709 ] final  100.20 input   66.30 | X-H torsion
[ 10763 10752 10751 10750 ] final   73.80 input  -60.55 | X-H torsion
[ 11005 11000 10999 10996 ] final  150.59 input  -57.11 | X-H torsion

> <Gold.Protein.ActiveResidues>
 VAL166  LYS551  ARG553  GLY616  TRP617  ASP618  TYR619  PRO620  LYS621  CYS622 
 ASP623  PHE694  ASN695  SER759  ASP760  ASP761  ALA762  ILE779  LEU786  VAL792 
 PHE793  MET794  SER795  GLU796  ALA797  LYS798  CYS799  TRP800  GLU811  SER814 

> <Gold.Protein.RotatedAtoms>
  151.0807  133.5392  159.2620 H   0  0  0  0  0  0  0  0  0  0  0  0  # atno 6907 bound_to 6896
  151.2296  135.0549  159.8992 H   0  0  0  0  0  0  0  0  0  0  0  0  # atno 6908 bound_to 6896
  152.5423  134.0598  159.8201 H   0  0  0  0  0  0  0  0  0  0  0  0  # atno 6909 bound_to 6896
  144.7127  140.1197  143.6406 H   0  0  0  0  0  0  0  0  0  0  0  0  # atno 7974 bound_to 7965
  156.2913  140.2646  156.2427 H   0  0  0  0  0  0  0  0  0  0  0  0  # atno 8008 bound_to 7997
  154.9961  140.0388  157.2358 H   0  0  0  0  0  0  0  0  0  0  0  0  # atno 8009 bound_to 7997
  154.7643  140.2766  155.6194 H   0  0  0  0  0  0  0  0  0  0  0  0  # atno 8010 bound_to 7997
  139.5433  144.2304  152.0938 H   0  0  0  0  0  0  0  0  0  0  0  0  # atno 10167 bound_to 10162
  157.6859  131.0691  150.5064 H   0  0  0  0  0  0  0  0  0  0  0  0  # atno 10718 bound_to 10713
  153.0545  135.5049  154.7947 H   0  0  0  0  0  0  0  0  0  0  0  0  # atno 10763 bound_to 10752
  154.6784  135.2964  154.9649 H   0  0  0  0  0  0  0  0  0  0  0  0  # atno 10764 bound_to 10752
  154.0444  135.6712  153.4846 H   0  0  0  0  0  0  0  0  0  0  0  0  # atno 10765 bound_to 10752
  140.1144  134.8903  157.1983 H   0  0  0  0  0  0  0  0  0  0  0  0  # atno 11005 bound_to 11000
  145.9382  139.2651  143.1284 LP  0  0  0  0  0  0  0  0  0  0  0  0  # atno 17320 bound_to 7965
  145.9452  140.8950  143.0287 LP  0  0  0  0  0  0  0  0  0  0  0  0  # atno 17321 bound_to 7965
  140.1786  144.4866  150.6540 LP  0  0  0  0  0  0  0  0  0  0  0  0  # atno 17342 bound_to 10162
  140.6672  143.2272  151.5715 LP  0  0  0  0  0  0  0  0  0  0  0  0  # atno 17343 bound_to 10162
  156.5383  130.4202  149.6166 LP  0  0  0  0  0  0  0  0  0  0  0  0  # atno 17370 bound_to 10713
  156.3007  130.7175  151.2046 LP  0  0  0  0  0  0  0  0  0  0  0  0  # atno 17371 bound_to 10713
  140.3048  134.3091  155.7281 LP  0  0  0  0  0  0  0  0  0  0  0  0  # atno 17394 bound_to 11000
  141.2138  133.7614  156.9692 LP  0  0  0  0  0  0  0  0  0  0  0  0  # atno 17395 bound_to 11000

$$$$
