AV-unprocessed.smi:1826|AV-procd|sdf|7417|dock1
  -GOLD-   22720 9 93D 1   1.00000     0.00000
 Structure written by MMmdl.
 40 42  0  0  0  0  0  0  0  0  2 V2000
  147.2415  138.0200  151.4786 O   0  0  0  0  0  0  0  0  0  0  0  0
  147.1108  139.2324  152.1872 C   0  0  0  0  0  0  0  0  0  0  0  0
  148.3487  139.5836  152.9444 C   0  0  0  0  0  0  0  0  0  0  0  0
  149.4376  138.7808  153.1106 N   0  3  0  0  0  0  0  0  0  0  0  0
  150.4024  139.4444  153.8699 C   0  0  0  0  0  0  0  0  0  0  0  0
  151.6633  139.0401  154.2978 C   0  0  0  0  0  0  0  0  0  0  0  0
  152.3991  139.9681  155.0640 C   0  0  0  0  0  0  0  0  0  0  0  0
  151.8774  141.2405  155.3763 C   0  0  0  0  0  0  0  0  0  0  0  0
  150.5979  141.6395  154.9364 C   0  0  0  0  0  0  0  0  0  0  0  0
  149.8775  140.7154  154.1804 C   0  0  0  0  0  0  0  0  0  0  0  0
  148.6101  140.7567  153.5903 N   0  0  0  0  0  0  0  0  0  0  0  0
  147.7915  141.9706  153.7327 C   0  0  0  0  0  0  0  0  0  0  0  0
  146.7489  141.8660  154.8638 C   0  0  2  0  0  0  0  0  0  0  0  0
  145.9247  140.7351  154.6546 O   0  0  0  0  0  0  0  0  0  0  0  0
  145.9447  143.1500  154.9907 C   0  0  0  0  0  0  0  0  0  0  0  0
  145.3135  143.7022  153.8565 C   0  0  0  0  0  0  0  0  0  0  0  0
  144.5593  144.8863  153.9687 C   0  0  0  0  0  0  0  0  0  0  0  0
  144.4218  145.5302  155.2173 C   0  0  0  0  0  0  0  0  0  0  0  0
  143.6156  146.8155  155.3349 C   0  0  0  0  0  0  0  0  0  0  0  0
  143.0007  147.0998  154.1862 F   0  0  0  0  0  0  0  0  0  0  0  0
  142.6967  146.6702  156.2888 F   0  0  0  0  0  0  0  0  0  0  0  0
  144.4034  147.8439  155.6509 F   0  0  0  0  0  0  0  0  0  0  0  0
  145.0563  144.9782  156.3510 C   0  0  0  0  0  0  0  0  0  0  0  0
  145.8099  143.7938  156.2397 C   0  0  0  0  0  0  0  0  0  0  0  0
  147.7305  137.4112  152.0112 H   0  0  0  0  0  0  0  0  0  0  0  0
  146.8719  140.0331  151.4871 H   0  0  0  0  0  0  0  0  0  0  0  0
  146.2720  139.1516  152.8791 H   0  0  0  0  0  0  0  0  0  0  0  0
  152.0653  138.0661  154.0595 H   0  0  0  0  0  0  0  0  0  0  0  0
  153.3833  139.6986  155.4192 H   0  0  0  0  0  0  0  0  0  0  0  0
  152.4706  141.9248  155.9653 H   0  0  0  0  0  0  0  0  0  0  0  0
  150.2065  142.6160  155.1806 H   0  0  0  0  0  0  0  0  0  0  0  0
  148.4592  142.8176  153.8958 H   0  0  0  0  0  0  0  0  0  0  0  0
  147.2987  142.1521  152.7768 H   0  0  0  0  0  0  0  0  0  0  0  0
  147.2671  141.6964  155.8083 H   0  0  0  0  0  0  0  0  0  0  0  0
  145.2739  140.9556  154.0056 H   0  0  0  0  0  0  0  0  0  0  0  0
  145.4047  143.2204  152.8940 H   0  0  0  0  0  0  0  0  0  0  0  0
  144.0873  145.2993  153.0893 H   0  0  0  0  0  0  0  0  0  0  0  0
  144.9687  145.4613  157.3131 H   0  0  0  0  0  0  0  0  0  0  0  0
  146.2837  143.3804  157.1182 H   0  0  0  0  0  0  0  0  0  0  0  0
  149.5126  137.8471  152.7281 H   0  0  0  0  0  0  0  0  0  0  0  0
  1  2  1  0  0  0  0
  1 25  1  0  0  0  0
  2  3  1  0  0  0  0
  2 26  1  0  0  0  0
  2 27  1  0  0  0  0
  3 11  1  0  0  0  0
  3  4  2  0  0  0  0
  4  5  1  0  0  0  0
  4 40  1  0  0  0  0
  5 10  2  0  0  0  0
  5  6  1  0  0  0  0
  6  7  2  0  0  0  0
  6 28  1  0  0  0  0
  7  8  1  0  0  0  0
  7 29  1  0  0  0  0
  8  9  2  0  0  0  0
  8 30  1  0  0  0  0
  9 10  1  0  0  0  0
  9 31  1  0  0  0  0
 10 11  1  0  0  0  0
 11 12  1  0  0  0  0
 12 13  1  0  0  0  0
 12 32  1  0  0  0  0
 12 33  1  0  0  0  0
 13 14  1  0  0  0  0
 13 15  1  0  0  0  0
 13 34  1  0  0  0  0
 14 35  1  0  0  0  0
 15 24  1  0  0  0  0
 15 16  2  0  0  0  0
 16 17  1  0  0  0  0
 16 36  1  0  0  0  0
 17 18  2  0  0  0  0
 17 37  1  0  0  0  0
 18 19  1  0  0  0  0
 18 23  1  0  0  0  0
 19 20  1  0  0  0  0
 19 21  1  0  0  0  0
 19 22  1  0  0  0  0
 23 24  2  0  0  0  0
 23 38  1  0  0  0  0
 24 39  1  0  0  0  0
M  CHG  1   4   1
M  END
> <s_m_source_file>
AV-unprocessed.smi

> <i_m_source_file_index>
1826

> <i_lp_mmshare_version>
43012

> <i_f3d_flags>
0

> <s_epik_input>
W2NIXTFbY0hdW2NIXVtjSF1jKGMxMiluKGMobjIpW0NIMl1bT0hdKVtDSDJdW0NASF0oW09IXSljM1tjSF1bY0hdYyhDKEYpKEYpRilbY0hdW2NIXTM=

> <s_epik_cmdline>
J2VwaWtfcHl0aG9uJywgJy1waCcsICc3LjAnLCAnLXRuJywgJzgnLCAnLW1hJywgJzIwMCcsICctbWV0YWxfYmluZGluZycsICctaW1hZScsICc8aW5maWxlLm1hZT4nLCAnLW9tYWUnLCAnPG91dGZpbGUubWFlPic=

> <r_epik_Ionization_Penalty>
1.35643

> <r_epik_Ionization_Penalty_Charging>
1.35557

> <r_epik_Ionization_Penalty_Neutral>
0.000856405

> <r_epik_State_Penalty>
1.43401

> <r_epik_Charging_Adjusted_Penalty>
2.78958

> <i_epik_Tot_Q>
1

> <i_epik_Tot_abs_Q>
1

> <r_epik_Metal_State_Penalty>
5.47166

> <b_epik_Metal_Only>
0

> <s_lp_Force_Field>
OPLS_2005

> <r_lp_Energy>
15.9337

> <b_lp_Chiralities_Consistent>
1

> <s_lp_Variant>
AV-unprocessed.smi:1826-3

> <Gold.Version>
5.8.1

> <Gold.Id.Protein>
6NUR|6NUR_protein|mol2

> <Gold.PLP.Fitness>
64.7783

> <Gold.PLP.PLP>
-51.4743

> <Gold.PLP.part.hbond>
-5.8597

> <Gold.PLP.part.metal>
0.0000

> <Gold.PLP.part.buried>
2.0258

> <Gold.PLP.part.nonpolar>
-48.7185

> <Gold.PLP.part.repulsive>
0.0837

> <Gold.PLP.ligand.clash>
1.2344

> <Gold.PLP.ligand.torsion>
0.6827

> <Gold.PLP.Chemscore.Hbond>
4.8160

> <Gold.PLP.Chemscore.CHOScore>
0.0000

> <Gold.PLP.Chemscore.Metal>
0.0000

> <Gold.Chemscore.Hbonds>
donor molecule, donor type, donor heavy atom, donor atom, acceptor molecule, acceptor atom, score
      L1  H     1    25       P1  7948  0.77
      L1  H     4    40       P1  7948  2.00
      L1  H    14    35       P1 10175  0.46
      P1  H  7954  7966       L1     1  1.00

> <Gold.PLP.Chemscore.Internal.Correction>
1.4557

> <Gold.Rescore>
     Score         DG    S(hbond)    S(metal)    S(lipo)     H(rot)  DE(clash)    DE(int)     intcor
     16.68     -19.00       2.86        0.00      99.05       2.98       1.92       0.40       ----

> <Gold.Chemscore.Fitness>
16.6792

> <Gold.Chemscore.DG>
-18.9979

> <Gold.Chemscore.ZeroCoef>
-5.4800

> <Gold.Chemscore.Hbond>
2.8633

> <Gold.Chemscore.Metal>
0.0000

> <Gold.Chemscore.Lipo>
99.0507

> <Gold.Chemscore.Internal_Hbond>
0.0000

> <Gold.Chemscore.DEClash>
1.9167

> <Gold.Chemscore.DEInternal>
0.4020

> <Gold.Chemscore.Rot>
2.9822

> <Gold.Chemscore.Internal.Correction>
   9.000000E+99

> <Gold.Chemscore.Hbonds>
donor molecule, donor type, donor heavy atom, donor atom, acceptor molecule, acceptor atom, score
      L1  H     1    25       P1  7948  0.76
      L1  H     4    40       P1  7948  0.74
      L1  H    14    35       P1 10175  0.39
      P1  H  7954  7966       L1     1  0.25

> <Gold.Chemscore.Hbond.Weighted>
-9.5633

> <Gold.Chemscore.Metal.Weighted>
-0.0000

> <Gold.Chemscore.Lipo.Weighted>
-11.5889

> <Gold.Chemscore.Internal_Hbond.Weighted>
0.0000

> <Gold.Chemscore.DEClash.Weighted>
1.9167

> <Gold.Chemscore.DEInternal.Weighted>
0.4020

> <Gold.Chemscore.Rot.Weighted>
7.6343

> <Gold.Chemscore.Internal.Correction.Weighted>
   9.000000E+99

> <Gold.Protein.RotatedTorsions>
[ 6907 6896 6895 6894 ] final  153.88 input  -60.11 | X-H torsion
[ 7974 7965 7964 7962 ] final  -69.72 input  175.53 | X-H torsion
[ 8008 7997 7996 7995 ] final -124.30 input   59.86 | X-H torsion
[ 10167 10162 10161 10158 ] final -129.50 input  -65.29 | X-H torsion
[ 10718 10713 10712 10709 ] final  116.30 input   66.30 | X-H torsion
[ 10763 10752 10751 10750 ] final   38.74 input  -60.55 | X-H torsion
[ 11005 11000 10999 10996 ] final  -51.77 input  -57.11 | X-H torsion

> <Gold.Protein.ActiveResidues>
 VAL166  LYS551  ARG553  GLY616  TRP617  ASP618  TYR619  PRO620  LYS621  CYS622 
 ASP623  PHE694  ASN695  SER759  ASP760  ASP761  ALA762  ILE779  LEU786  VAL792 
 PHE793  MET794  SER795  GLU796  ALA797  LYS798  CYS799  TRP800  GLU811  SER814 

> <Gold.Protein.RotatedAtoms>
  152.0665  133.4086  159.4440 H   0  0  0  0  0  0  0  0  0  0  0  0  # atno 6907 bound_to 6896
  150.6864  134.3141  159.4768 H   0  0  0  0  0  0  0  0  0  0  0  0  # atno 6908 bound_to 6896
  152.0968  134.9369  160.0621 H   0  0  0  0  0  0  0  0  0  0  0  0  # atno 6909 bound_to 6896
  145.7002  140.9119  143.0735 H   0  0  0  0  0  0  0  0  0  0  0  0  # atno 7974 bound_to 7965
  155.1946  140.0414  157.2906 H   0  0  0  0  0  0  0  0  0  0  0  0  # atno 8008 bound_to 7997
  154.6116  140.2478  155.7634 H   0  0  0  0  0  0  0  0  0  0  0  0  # atno 8009 bound_to 7997
  156.2382  140.2913  156.0381 H   0  0  0  0  0  0  0  0  0  0  0  0  # atno 8010 bound_to 7997
  139.9391  143.6183  152.2508 H   0  0  0  0  0  0  0  0  0  0  0  0  # atno 10167 bound_to 10162
  157.6169  131.1023  150.7453 H   0  0  0  0  0  0  0  0  0  0  0  0  # atno 10718 bound_to 10713
  152.9990  135.6240  154.2354 H   0  0  0  0  0  0  0  0  0  0  0  0  # atno 10763 bound_to 10752
  154.2095  135.2800  155.2965 H   0  0  0  0  0  0  0  0  0  0  0  0  # atno 10764 bound_to 10752
  154.5618  135.5703  153.7073 H   0  0  0  0  0  0  0  0  0  0  0  0  # atno 10765 bound_to 10752
  141.0889  133.6637  156.3925 H   0  0  0  0  0  0  0  0  0  0  0  0  # atno 11005 bound_to 11000
  144.6971  139.8937  143.7454 LP  0  0  0  0  0  0  0  0  0  0  0  0  # atno 17320 bound_to 7965
  146.0804  139.3792  143.0468 LP  0  0  0  0  0  0  0  0  0  0  0  0  # atno 17321 bound_to 7965
  139.6719  144.7660  151.1768 LP  0  0  0  0  0  0  0  0  0  0  0  0  # atno 17342 bound_to 10162
  140.7616  143.5853  150.8852 LP  0  0  0  0  0  0  0  0  0  0  0  0  # atno 17343 bound_to 10162
  156.7818  130.4862  149.5400 LP  0  0  0  0  0  0  0  0  0  0  0  0  # atno 17370 bound_to 10713
  156.1295  130.6168  151.0313 LP  0  0  0  0  0  0  0  0  0  0  0  0  # atno 17371 bound_to 10713
  140.5299  134.6222  157.5346 LP  0  0  0  0  0  0  0  0  0  0  0  0  # atno 17394 bound_to 11000
  139.9711  134.7291  156.0040 LP  0  0  0  0  0  0  0  0  0  0  0  0  # atno 17395 bound_to 11000

$$$$
