AV-unprocessed.smi:1200|AV-procd|sdf|5026|dock10
  -GOLD-   22720 4 53D 1   1.00000     0.00000
 Structure written by MMmdl.
 42 43  0  0  0  0  0  0  0  0  3 V2000
  144.8376  145.4291  152.6237 C   0  0  0  0  0  0  0  0  0  0  0  0
  144.7644  145.6675  154.0605 N   0  5  0  0  0  0  0  0  0  0  0  0
  144.7214  144.6709  154.9848 C   0  0  0  0  0  0  0  0  0  0  0  0
  145.0621  144.6577  156.1725 O   0  0  0  0  0  0  0  0  0  0  0  0
  144.1207  143.3914  154.3911 C   0  0  0  0  0  0  0  0  0  0  0  0
  145.1761  142.3612  154.2265 N   0  3  2  0  0  0  0  0  0  0  0  0
  145.6479  141.8240  155.5275 C   0  0  0  0  0  0  0  0  0  0  0  0
  146.6279  140.6538  155.3260 C   0  0  0  0  0  0  0  0  0  0  0  0
  147.8183  141.0414  154.4317 C   0  0  2  0  0  0  0  0  0  0  0  0
  148.7236  141.9429  155.1439 N   0  0  0  0  0  0  0  0  0  0  0  0
  149.4791  141.6076  156.1997 C   0  0  0  0  0  0  0  0  0  0  0  0
  149.5045  140.4761  156.6827 O   0  0  0  0  0  0  0  0  0  0  0  0
  150.2018  142.6556  156.6312 N   0  0  0  0  0  0  0  0  0  0  0  0
  151.1113  142.7181  157.7217 C   0  0  0  0  0  0  0  0  0  0  0  0
  151.9292  143.8354  158.0184 C   0  0  0  0  0  0  0  0  0  0  0  0
  152.8024  143.7652  159.1210 C   0  0  0  0  0  0  0  0  0  0  0  0
  152.8325  142.5803  159.8817 C   0  0  0  0  0  0  0  0  0  0  0  0
  152.0691  141.5031  159.6027 N   0  0  0  0  0  0  0  0  0  0  0  0
  151.2346  141.5777  158.5440 C   0  0  0  0  0  0  0  0  0  0  0  0
  147.3032  141.6662  153.1201 C   0  0  0  0  0  0  0  0  0  0  0  0
  146.3105  142.8136  153.3769 C   0  0  0  0  0  0  0  0  0  0  0  0
  144.8345  146.3603  152.0576 H   0  0  0  0  0  0  0  0  0  0  0  0
  143.9971  144.8403  152.2549 H   0  0  0  0  0  0  0  0  0  0  0  0
  145.7455  144.8974  152.3376 H   0  0  0  0  0  0  0  0  0  0  0  0
  143.2890  142.9967  154.9794 H   0  0  0  0  0  0  0  0  0  0  0  0
  143.7076  143.6615  153.4183 H   0  0  0  0  0  0  0  0  0  0  0  0
  146.1189  142.6225  156.1028 H   0  0  0  0  0  0  0  0  0  0  0  0
  144.7953  141.4750  156.1111 H   0  0  0  0  0  0  0  0  0  0  0  0
  146.9814  140.2899  156.2916 H   0  0  0  0  0  0  0  0  0  0  0  0
  146.0938  139.8210  154.8665 H   0  0  0  0  0  0  0  0  0  0  0  0
  148.3693  140.1297  154.1932 H   0  0  0  0  0  0  0  0  0  0  0  0
  148.7699  142.8958  154.8141 H   0  0  0  0  0  0  0  0  0  0  0  0
  150.1307  143.4994  156.0818 H   0  0  0  0  0  0  0  0  0  0  0  0
  151.9169  144.7337  157.4215 H   0  0  0  0  0  0  0  0  0  0  0  0
  153.4382  144.6002  159.3750 H   0  0  0  0  0  0  0  0  0  0  0  0
  153.4912  142.4937  160.7330 H   0  0  0  0  0  0  0  0  0  0  0  0
  150.6405  140.6964  158.3503 H   0  0  0  0  0  0  0  0  0  0  0  0
  148.1350  142.0202  152.5101 H   0  0  0  0  0  0  0  0  0  0  0  0
  146.8062  140.8952  152.5298 H   0  0  0  0  0  0  0  0  0  0  0  0
  145.9413  143.1806  152.4189 H   0  0  0  0  0  0  0  0  0  0  0  0
  146.8166  143.6522  153.8577 H   0  0  0  0  0  0  0  0  0  0  0  0
  144.7336  141.5925  153.7429 H   0  0  0  0  0  0  0  0  0  0  0  0
  1  2  1  0  0  0  0
  1 22  1  0  0  0  0
  1 23  1  0  0  0  0
  1 24  1  0  0  0  0
  2  3  1  0  0  0  0
  3  4  2  0  0  0  0
  3  5  1  0  0  0  0
  5  6  1  0  0  0  0
  5 25  1  0  0  0  0
  5 26  1  0  0  0  0
  6 21  1  0  0  0  0
  6  7  1  0  0  0  0
  6 42  1  0  0  0  0
  7  8  1  0  0  0  0
  7 27  1  0  0  0  0
  7 28  1  0  0  0  0
  8  9  1  0  0  0  0
  8 29  1  0  0  0  0
  8 30  1  0  0  0  0
  9 10  1  0  0  0  0
  9 20  1  0  0  0  0
  9 31  1  0  0  0  0
 10 11  1  0  0  0  0
 10 32  1  0  0  0  0
 11 12  2  0  0  0  0
 11 13  1  0  0  0  0
 13 14  1  0  0  0  0
 13 33  1  0  0  0  0
 14 19  1  0  0  0  0
 14 15  2  0  0  0  0
 15 16  1  0  0  0  0
 15 34  1  0  0  0  0
 16 17  2  0  0  0  0
 16 35  1  0  0  0  0
 17 18  1  0  0  0  0
 17 36  1  0  0  0  0
 18 19  2  0  0  0  0
 19 37  1  0  0  0  0
 20 21  1  0  0  0  0
 20 38  1  0  0  0  0
 20 39  1  0  0  0  0
 21 40  1  0  0  0  0
 21 41  1  0  0  0  0
M  CHG  1   2  -1
M  CHG  1   6   1
M  END
> <s_m_source_file>
AV-unprocessed.smi

> <i_m_source_file_index>
1200

> <i_lp_mmshare_version>
43012

> <i_f3d_flags>
0

> <s_epik_input>
W0NIM11bTkhdQyg9TylbQ0gyXU4xW0NIMl1bQ0gyXVtDSF0oW0NIMl1bQ0gyXTEpW05IXUMoPU8pW05IXWMyW2NIXVtjSF1bY0hdbltjSF0y

> <s_epik_cmdline>
J2VwaWtfcHl0aG9uJywgJy1waCcsICc3LjAnLCAnLXRuJywgJzgnLCAnLW1hJywgJzIwMCcsICctbWV0YWxfYmluZGluZycsICctaW1hZScsICc8aW5maWxlLm1hZT4nLCAnLW9tYWUnLCAnPG91dGZpbGUubWFlPic=

> <r_epik_Ionization_Penalty>
6.14345

> <r_epik_Ionization_Penalty_Charging>
6.13946

> <r_epik_Ionization_Penalty_Neutral>
0.00398477

> <r_epik_State_Penalty>
6.94483

> <r_epik_Charging_Adjusted_Penalty>
13.0843

> <i_epik_Tot_Q>
0

> <i_epik_Tot_abs_Q>
2

> <r_epik_Metal_State_Penalty>
2.87819

> <b_epik_Metal_Only>
1

> <s_lp_Force_Field>
OPLS_2005

> <r_lp_Energy>
15.1129

> <b_lp_Chiralities_Consistent>
1

> <s_lp_Variant>
AV-unprocessed.smi:1200-5

> <Gold.Version>
5.8.1

> <Gold.Id.Protein>
6NUR|6NUR_protein|mol2

> <Gold.PLP.Fitness>
47.6283

> <Gold.PLP.PLP>
-36.4632

> <Gold.PLP.part.hbond>
-3.0000

> <Gold.PLP.part.metal>
0.0000

> <Gold.PLP.part.buried>
-5.9629

> <Gold.PLP.part.nonpolar>
-28.7061

> <Gold.PLP.part.repulsive>
0.4484

> <Gold.PLP.ligand.clash>
0.0000

> <Gold.PLP.ligand.torsion>
0.3744

> <Gold.PLP.Chemscore.Hbond>
3.9600

> <Gold.PLP.Chemscore.CHOScore>
0.0000

> <Gold.PLP.Chemscore.Metal>
0.0000

> <Gold.Chemscore.Hbonds>
donor molecule, donor type, donor heavy atom, donor atom, acceptor molecule, acceptor atom, score
      L1  H     6    42       P1 10175  1.50
      L1  H    10    32       P1  8028  0.75
      L1  H    13    33       P1  8028  0.78

> <Gold.PLP.Chemscore.Internal.Correction>
0.0338

> <Gold.Rescore>
     Score         DG    S(hbond)    S(metal)    S(lipo)     H(rot)  DE(clash)    DE(int)     intcor
     17.10     -20.77       2.56        0.00      93.44       1.63       0.74       2.93       ----

> <Gold.Chemscore.Fitness>
17.0951

> <Gold.Chemscore.DG>
-20.7703

> <Gold.Chemscore.ZeroCoef>
-5.4800

> <Gold.Chemscore.Hbond>
2.5558

> <Gold.Chemscore.Metal>
0.0000

> <Gold.Chemscore.Lipo>
93.4393

> <Gold.Chemscore.Internal_Hbond>
0.0000

> <Gold.Chemscore.DEClash>
0.7433

> <Gold.Chemscore.DEInternal>
2.9319

> <Gold.Chemscore.Rot>
1.6323

> <Gold.Chemscore.Internal.Correction>
   9.000000E+99

> <Gold.Chemscore.Hbonds>
donor molecule, donor type, donor heavy atom, donor atom, acceptor molecule, acceptor atom, score
      L1  H     6    42       P1 10175  0.09
      L1  H    10    32       P1  8028  0.71
      L1  H    13    33       P1  8028  0.78

> <Gold.Chemscore.Hbond.Weighted>
-8.5365

> <Gold.Chemscore.Metal.Weighted>
-0.0000

> <Gold.Chemscore.Lipo.Weighted>
-10.9324

> <Gold.Chemscore.Internal_Hbond.Weighted>
0.0000

> <Gold.Chemscore.DEClash.Weighted>
0.7433

> <Gold.Chemscore.DEInternal.Weighted>
2.9319

> <Gold.Chemscore.Rot.Weighted>
4.1786

> <Gold.Chemscore.Internal.Correction.Weighted>
   9.000000E+99

> <Gold.Protein.RotatedTorsions>
[ 6907 6896 6895 6894 ] final    8.47 input  -60.11 | X-H torsion
[ 7974 7965 7964 7962 ] final   16.18 input  175.53 | X-H torsion
[ 8008 7997 7996 7995 ] final   -6.36 input   59.86 | X-H torsion
[ 10167 10162 10161 10158 ] final  -22.88 input  -65.29 | X-H torsion
[ 10718 10713 10712 10709 ] final    5.11 input   66.30 | X-H torsion
[ 10763 10752 10751 10750 ] final -176.69 input  -60.55 | X-H torsion
[ 11005 11000 10999 10996 ] final -149.05 input  -57.11 | X-H torsion

> <Gold.Protein.ActiveResidues>
 VAL166  LYS551  ARG553  GLY616  TRP617  ASP618  TYR619  PRO620  LYS621  CYS622 
 ASP623  PHE694  ASN695  SER759  ASP760  ASP761  ALA762  ILE779  LEU786  VAL792 
 PHE793  MET794  SER795  GLU796  ALA797  LYS798  CYS799  TRP800  GLU811  SER814 

> <Gold.Protein.RotatedAtoms>
  151.7065  135.0920  160.0259 H   0  0  0  0  0  0  0  0  0  0  0  0  # atno 6907 bound_to 6896
  152.3688  133.6387  159.6079 H   0  0  0  0  0  0  0  0  0  0  0  0  # atno 6908 bound_to 6896
  150.7658  133.9221  159.3442 H   0  0  0  0  0  0  0  0  0  0  0  0  # atno 6909 bound_to 6896
  146.2257  139.8786  142.8575 H   0  0  0  0  0  0  0  0  0  0  0  0  # atno 7974 bound_to 7965
  154.5945  140.2434  155.7876 H   0  0  0  0  0  0  0  0  0  0  0  0  # atno 8008 bound_to 7997
  156.2270  140.2979  156.0045 H   0  0  0  0  0  0  0  0  0  0  0  0  # atno 8009 bound_to 7997
  155.2317  140.0404  157.2953 H   0  0  0  0  0  0  0  0  0  0  0  0  # atno 8010 bound_to 7997
  140.7287  143.4494  151.0539 H   0  0  0  0  0  0  0  0  0  0  0  0  # atno 10167 bound_to 10162
  156.9026  130.5727  149.5648 H   0  0  0  0  0  0  0  0  0  0  0  0  # atno 10718 bound_to 10713
  154.5692  135.2826  155.0844 H   0  0  0  0  0  0  0  0  0  0  0  0  # atno 10763 bound_to 10752
  154.2223  135.6389  153.5152 H   0  0  0  0  0  0  0  0  0  0  0  0  # atno 10764 bound_to 10752
  153.0052  135.5517  154.6310 H   0  0  0  0  0  0  0  0  0  0  0  0  # atno 10765 bound_to 10752
  140.7548  134.3365  157.5117 H   0  0  0  0  0  0  0  0  0  0  0  0  # atno 11005 bound_to 11000
  145.2535  141.0052  143.3867 LP  0  0  0  0  0  0  0  0  0  0  0  0  # atno 17320 bound_to 7965
  144.9355  139.4249  143.6474 LP  0  0  0  0  0  0  0  0  0  0  0  0  # atno 17321 bound_to 7965
  139.8168  143.7874  152.3175 LP  0  0  0  0  0  0  0  0  0  0  0  0  # atno 17342 bound_to 10162
  139.7943  144.7398  150.9911 LP  0  0  0  0  0  0  0  0  0  0  0  0  # atno 17343 bound_to 10162
  156.0574  130.5633  150.9122 LP  0  0  0  0  0  0  0  0  0  0  0  0  # atno 17370 bound_to 10713
  157.6017  131.0941  150.8949 LP  0  0  0  0  0  0  0  0  0  0  0  0  # atno 17371 bound_to 10713
  139.8781  134.9165  156.3155 LP  0  0  0  0  0  0  0  0  0  0  0  0  # atno 17394 bound_to 11000
  140.9718  133.7323  156.0545 LP  0  0  0  0  0  0  0  0  0  0  0  0  # atno 17395 bound_to 11000

$$$$
