AV-unprocessed.smi:40|AV-procd|sdf|379|dock8
  -GOLD-   2262016233D 1   1.00000     0.00000
 Structure written by MMmdl.
 47 48  0  0  0  0  0  0  0  0  1 V2000
  146.2947  128.8434  151.4545 C   0  0  0  0  0  0  0  0  0  0  0  0
  146.6503  128.5207  152.9101 C   0  0  0  0  0  0  0  0  0  0  0  0
  148.0090  129.1018  153.3249 C   0  0  0  0  0  0  0  0  0  0  0  0
  148.0377  130.6390  153.2788 C   0  0  0  0  0  0  0  0  0  0  0  0
  149.3883  131.2305  153.7073 C   0  0  0  0  0  0  0  0  0  0  0  0
  149.3069  132.6441  153.6459 O   0  0  0  0  0  0  0  0  0  0  0  0
  149.8627  133.4153  154.5936 C   0  0  0  0  0  0  0  0  0  0  0  0
  150.4649  132.9719  155.5712 O   0  0  0  0  0  0  0  0  0  0  0  0
  149.6630  134.8342  154.3263 N   0  0  0  0  0  0  0  0  0  0  0  0
  150.0605  135.9286  155.0274 C   0  0  0  0  0  0  0  0  0  0  0  0
  151.3287  136.2366  155.2488 N   0  0  0  0  0  0  0  0  0  0  0  0
  151.7493  137.3397  155.9390 C   0  0  0  0  0  0  0  0  0  0  0  0
  152.9489  137.5695  156.0722 O   0  0  0  0  0  0  0  0  0  0  0  0
  150.7510  138.1909  156.4724 N   0  0  0  0  0  0  0  0  0  0  0  0
  151.1225  139.4636  157.2068 C   0  0  2  0  0  0  0  0  0  0  0  0
  150.0069  139.9262  157.9026 O   0  0  0  0  0  0  0  0  0  0  0  0
  150.0726  141.3443  157.9755 C   0  0  2  0  0  0  0  0  0  0  0  0
  148.7027  141.9459  158.3222 C   0  0  0  0  0  0  0  0  0  0  0  0
  150.6920  141.7730  156.6353 C   0  0  2  0  0  0  0  0  0  0  0  0
  149.7027  141.9603  155.6390 O   0  0  0  0  0  0  0  0  0  0  0  0
  151.6482  140.6204  156.3228 C   0  0  2  0  0  0  0  0  0  0  0  0
  151.7947  140.3386  154.9408 O   0  0  0  0  0  0  0  0  0  0  0  0
  149.4159  137.8980  156.2416 C   0  0  0  0  0  0  0  0  0  0  0  0
  149.0318  136.8037  155.5489 C   0  0  0  0  0  0  0  0  0  0  0  0
  147.7282  136.5429  155.3477 F   0  0  0  0  0  0  0  0  0  0  0  0
  151.8699  139.1642  157.9426 H   0  0  0  0  0  0  0  0  0  0  0  0
  150.7762  141.5913  158.7725 H   0  0  0  0  0  0  0  0  0  0  0  0
  151.2328  142.7147  156.7352 H   0  0  0  0  0  0  0  0  0  0  0  0
  152.6369  140.8752  156.7062 H   0  0  0  0  0  0  0  0  0  0  0  0
  145.3270  128.4186  151.1876 H   0  0  0  0  0  0  0  0  0  0  0  0
  147.0375  128.4339  150.7686 H   0  0  0  0  0  0  0  0  0  0  0  0
  146.2431  129.9200  151.2906 H   0  0  0  0  0  0  0  0  0  0  0  0
  145.8701  128.9044  153.5681 H   0  0  0  0  0  0  0  0  0  0  0  0
  146.6609  127.4378  153.0407 H   0  0  0  0  0  0  0  0  0  0  0  0
  148.2418  128.7612  154.3343 H   0  0  0  0  0  0  0  0  0  0  0  0
  148.7915  128.7027  152.6784 H   0  0  0  0  0  0  0  0  0  0  0  0
  147.8090  130.9737  152.2666 H   0  0  0  0  0  0  0  0  0  0  0  0
  147.2514  131.0403  153.9195 H   0  0  0  0  0  0  0  0  0  0  0  0
  149.6415  130.9167  154.7208 H   0  0  0  0  0  0  0  0  0  0  0  0
  150.1764  130.8729  153.0432 H   0  0  0  0  0  0  0  0  0  0  0  0
  149.1694  135.0165  153.4645 H   0  0  0  0  0  0  0  0  0  0  0  0
  148.7457  143.0351  158.3385 H   0  0  0  0  0  0  0  0  0  0  0  0
  148.3714  141.6106  159.3051 H   0  0  0  0  0  0  0  0  0  0  0  0
  147.9398  141.6484  157.6021 H   0  0  0  0  0  0  0  0  0  0  0  0
  149.6665  142.8798  155.4238 H   0  0  0  0  0  0  0  0  0  0  0  0
  151.5763  139.4310  154.7950 H   0  0  0  0  0  0  0  0  0  0  0  0
  148.6467  138.5528  156.6254 H   0  0  0  0  0  0  0  0  0  0  0  0
  1  2  1  0  0  0  0
  1 30  1  0  0  0  0
  1 31  1  0  0  0  0
  1 32  1  0  0  0  0
  2  3  1  0  0  0  0
  2 33  1  0  0  0  0
  2 34  1  0  0  0  0
  3  4  1  0  0  0  0
  3 35  1  0  0  0  0
  3 36  1  0  0  0  0
  4  5  1  0  0  0  0
  4 37  1  0  0  0  0
  4 38  1  0  0  0  0
  5  6  1  0  0  0  0
  5 39  1  0  0  0  0
  5 40  1  0  0  0  0
  6  7  1  0  0  0  0
  7  8  2  0  0  0  0
  7  9  1  0  0  0  0
  9 10  1  0  0  0  0
  9 41  1  0  0  0  0
 10 24  1  0  0  0  0
 10 11  2  0  0  0  0
 11 12  1  0  0  0  0
 12 13  2  0  0  0  0
 12 14  1  0  0  0  0
 14 15  1  0  0  0  0
 14 23  1  0  0  0  0
 15 26  1  0  0  0  0
 15 21  1  0  0  0  0
 15 16  1  0  0  0  0
 16 17  1  0  0  0  0
 17 27  1  0  0  0  0
 17 18  1  0  0  0  0
 17 19  1  0  0  0  0
 18 42  1  0  0  0  0
 18 43  1  0  0  0  0
 18 44  1  0  0  0  0
 19 28  1  0  0  0  0
 19 20  1  0  0  0  0
 19 21  1  0  0  0  0
 20 45  1  0  0  0  0
 21 29  1  0  0  0  0
 21 22  1  0  0  0  0
 22 46  1  0  0  0  0
 23 24  2  0  0  0  0
 23 47  1  0  0  0  0
 24 25  1  0  0  0  0
M  END
> <s_m_source_file>
AV-unprocessed.smi

> <i_m_source_file_index>
40

> <i_lp_mmshare_version>
43012

> <i_f3d_flags>
0

> <s_epik_input>
W0NIM11bQ0gyXVtDSDJdW0NIMl1bQ0gyXU9DKD1PKVtOSF1jMW5jKD1PKW4oW2NIXWMxRilbQ0BASF0yT1tDQEhdKFtDSDNdKVtDQEBIXShbT0hdKVtDQEhdMltPSF0=

> <s_epik_cmdline>
J2VwaWtfcHl0aG9uJywgJy1waCcsICc3LjAnLCAnLXRuJywgJzgnLCAnLW1hJywgJzIwMCcsICctbWV0YWxfYmluZGluZycsICctaW1hZScsICc8aW5maWxlLm1hZT4nLCAnLW9tYWUnLCAnPG91dGZpbGUubWFlPic=

> <r_lp_tautomer_probability>
1

> <r_epik_Ionization_Penalty>
2.29506e-06

> <r_epik_Ionization_Penalty_Charging>
8.26867e-09

> <r_epik_Ionization_Penalty_Neutral>
2.2868e-06

> <r_epik_State_Penalty>
-0

> <r_epik_Charging_Adjusted_Penalty>
8.26867e-09

> <i_epik_Tot_Q>
0

> <i_epik_Tot_abs_Q>
0

> <r_epik_Metal_State_Penalty>
-0

> <b_epik_Metal_Only>
0

> <s_epik_Chemistry_Notes>
This compound has an ester and may undergo hydrolysis at high or low pH. This compound contains an acetal/aminal-like group ( X-CH(R)-Y where X, Y are N, S, or O) that may be acid/base labile, releasing an aldehyde.

> <s_lp_Force_Field>
OPLS_2005

> <r_lp_Energy>
38.6632

> <b_lp_Chiralities_Consistent>
1

> <s_lp_Variant>
AV-unprocessed.smi:40-13

> <Gold.Version>
5.8.1

> <Gold.Id.Protein>
6NUR|6NUR_protein|mol2

> <Gold.PLP.Fitness>
40.3722

> <Gold.PLP.PLP>
-31.7662

> <Gold.PLP.part.hbond>
-4.5315

> <Gold.PLP.part.metal>
0.0000

> <Gold.PLP.part.buried>
-6.5708

> <Gold.PLP.part.nonpolar>
-20.3758

> <Gold.PLP.part.repulsive>
0.2835

> <Gold.PLP.ligand.clash>
0.0000

> <Gold.PLP.ligand.torsion>
1.2788

> <Gold.PLP.Chemscore.Hbond>
3.6860

> <Gold.PLP.Chemscore.CHOScore>
0.0000

> <Gold.PLP.Chemscore.Metal>
0.0000

> <Gold.Chemscore.Hbonds>
donor molecule, donor type, donor heavy atom, donor atom, acceptor molecule, acceptor atom, score
      L1  H     9    41       P1  7948  0.84
      L1  H    20    45       P1  8028  1.00
      P1  H  7989  7998       L1    22  0.85
      P1  H 10752 10765       L1    11  0.95

> <Gold.PLP.Chemscore.Internal.Correction>
0.1056

> <Gold.Rescore>
     Score         DG    S(hbond)    S(metal)    S(lipo)     H(rot)  DE(clash)    DE(int)     intcor
      7.50      -8.81       1.89        0.00      55.36       3.70       0.09       1.22       ----

> <Gold.Chemscore.Fitness>
7.5006

> <Gold.Chemscore.DG>
-8.8104

> <Gold.Chemscore.ZeroCoef>
-5.4800

> <Gold.Chemscore.Hbond>
1.8905

> <Gold.Chemscore.Metal>
0.0000

> <Gold.Chemscore.Lipo>
55.3591

> <Gold.Chemscore.Internal_Hbond>
0.0000

> <Gold.Chemscore.DEClash>
0.0875

> <Gold.Chemscore.DEInternal>
1.2224

> <Gold.Chemscore.Rot>
3.6957

> <Gold.Chemscore.Internal.Correction>
   9.000000E+99

> <Gold.Chemscore.Hbonds>
donor molecule, donor type, donor heavy atom, donor atom, acceptor molecule, acceptor atom, score
      L1  H     9    41       P1  7948  0.16
      L1  H    20    45       P1  8028  0.92
      P1  H  7989  7998       L1    22  0.20
      P1  H 10752 10765       L1    11  0.22

> <Gold.Chemscore.Hbond.Weighted>
-6.3144

> <Gold.Chemscore.Metal.Weighted>
-0.0000

> <Gold.Chemscore.Lipo.Weighted>
-6.4770

> <Gold.Chemscore.Internal_Hbond.Weighted>
0.0000

> <Gold.Chemscore.DEClash.Weighted>
0.0875

> <Gold.Chemscore.DEInternal.Weighted>
1.2224

> <Gold.Chemscore.Rot.Weighted>
9.4610

> <Gold.Chemscore.Internal.Correction.Weighted>
   9.000000E+99

> <Gold.Protein.RotatedTorsions>
[ 6907 6896 6895 6894 ] final   16.41 input  -60.11 | X-H torsion
[ 7974 7965 7964 7962 ] final   88.55 input  175.53 | X-H torsion
[ 8008 7997 7996 7995 ] final  -46.80 input   59.86 | X-H torsion
[ 10167 10162 10161 10158 ] final  113.20 input  -65.29 | X-H torsion
[ 10718 10713 10712 10709 ] final   14.90 input   66.30 | X-H torsion
[ 10763 10752 10751 10750 ] final -170.60 input  -60.55 | X-H torsion
[ 11005 11000 10999 10996 ] final  -74.78 input  -57.11 | X-H torsion

> <Gold.Protein.ActiveResidues>
 VAL166  LYS551  ARG553  GLY616  TRP617  ASP618  TYR619  PRO620  LYS621  CYS622 
 ASP623  PHE694  ASN695  SER759  ASP760  ASP761  ALA762  ILE779  LEU786  VAL792 
 PHE793  MET794  SER795  GLU796  ALA797  LYS798  CYS799  TRP800  GLU811  SER814 

> <Gold.Protein.RotatedAtoms>
  151.8335  135.0614  160.0439 H   0  0  0  0  0  0  0  0  0  0  0  0  # atno 6907 bound_to 6896
  152.2863  133.5513  159.5537 H   0  0  0  0  0  0  0  0  0  0  0  0  # atno 6908 bound_to 6896
  150.7210  134.0409  159.3807 H   0  0  0  0  0  0  0  0  0  0  0  0  # atno 6909 bound_to 6896
  145.5442  139.2291  143.2548 H   0  0  0  0  0  0  0  0  0  0  0  0  # atno 7974 bound_to 7965
  154.4010  140.1362  156.4071 H   0  0  0  0  0  0  0  0  0  0  0  0  # atno 8008 bound_to 7997
  155.7769  140.3482  155.5256 H   0  0  0  0  0  0  0  0  0  0  0  0  # atno 8009 bound_to 7997
  155.8712  140.0972  157.1539 H   0  0  0  0  0  0  0  0  0  0  0  0  # atno 8010 bound_to 7997
  139.6479  144.7127  151.2106 H   0  0  0  0  0  0  0  0  0  0  0  0  # atno 10167 bound_to 10162
  157.0458  130.6250  149.5759 H   0  0  0  0  0  0  0  0  0  0  0  0  # atno 10718 bound_to 10713
  154.6397  135.2897  155.0118 H   0  0  0  0  0  0  0  0  0  0  0  0  # atno 10763 bound_to 10752
  154.1249  135.6542  153.4914 H   0  0  0  0  0  0  0  0  0  0  0  0  # atno 10764 bound_to 10752
  153.0320  135.5296  154.7259 H   0  0  0  0  0  0  0  0  0  0  0  0  # atno 10765 bound_to 10752
  141.1639  133.6923  156.7417 H   0  0  0  0  0  0  0  0  0  0  0  0  # atno 11005 bound_to 11000
  146.1960  140.6263  142.9124 LP  0  0  0  0  0  0  0  0  0  0  0  0  # atno 17320 bound_to 7965
  144.7561  140.5311  143.6768 LP  0  0  0  0  0  0  0  0  0  0  0  0  # atno 17321 bound_to 7965
  140.7523  143.6199  150.8523 LP  0  0  0  0  0  0  0  0  0  0  0  0  # atno 17342 bound_to 10162
  139.9844  143.5915  152.2932 LP  0  0  0  0  0  0  0  0  0  0  0  0  # atno 17343 bound_to 10162
  156.0023  130.5104  150.7708 LP  0  0  0  0  0  0  0  0  0  0  0  0  # atno 17370 bound_to 10713
  157.5068  131.0922  151.0247 LP  0  0  0  0  0  0  0  0  0  0  0  0  # atno 17371 bound_to 10713
  140.2670  134.8422  157.3811 LP  0  0  0  0  0  0  0  0  0  0  0  0  # atno 17394 bound_to 11000
  140.1557  134.4792  155.7929 LP  0  0  0  0  0  0  0  0  0  0  0  0  # atno 17395 bound_to 11000

$$$$
