AV-unprocessed.smi:1683|AV-procd|sdf|6750|dock9
  -GOLD-   22720 7503D 1   1.00000     0.00000
 Structure written by MMmdl.
 37 38  0  0  0  0  0  0  0  0  2 V2000
  145.1103  142.3477  156.4165 O   0  0  0  0  0  0  0  0  0  0  0  0
  145.8566  142.4937  155.4480 C   0  0  0  0  0  0  0  0  0  0  0  0
  146.9511  141.7479  155.2403 N   0  0  0  0  0  0  0  0  0  0  0  0
  147.4144  140.6840  156.1250 C   0  0  0  0  0  0  0  0  0  0  0  0
  148.7768  141.0143  156.7641 C   0  0  1  0  0  0  0  0  0  0  0  0
  149.8972  141.3094  155.7703 C   0  0  0  0  0  0  0  0  0  0  0  0
  150.9115  142.0593  156.6294 C   0  0  0  0  0  0  0  0  0  0  0  0
  150.1113  142.8693  157.5761 N   0  3  2  0  0  0  0  0  0  0  0  0
  150.7470  143.1083  158.8959 C   0  0  0  0  0  0  0  0  0  0  0  0
  151.9395  144.0788  158.8203 C   0  0  0  0  0  0  0  0  0  0  0  0
  151.8073  145.0028  159.7707 F   0  0  0  0  0  0  0  0  0  0  0  0
  153.0950  143.4428  159.0099 F   0  0  0  0  0  0  0  0  0  0  0  0
  151.9606  144.6861  157.6338 F   0  0  0  0  0  0  0  0  0  0  0  0
  148.7589  142.2645  157.6534 C   0  0  0  0  0  0  0  0  0  0  0  0
  145.6866  143.3990  154.4704 N   0  0  0  0  0  0  0  0  0  0  0  0
  144.6598  144.3718  154.3688 C   0  0  0  0  0  0  0  0  0  0  0  0
  144.5820  145.3639  153.3539 C   0  0  0  0  0  0  0  0  0  0  0  0
  143.5182  146.1379  153.5145 N   0  0  0  0  0  0  0  0  0  0  0  0
  142.9173  145.6507  154.6234 N   0  0  0  0  0  0  0  0  0  0  0  0
  143.5773  144.5763  155.1776 C   0  0  0  0  0  0  0  0  0  0  0  0
  142.0674  146.0584  154.9869 H   0  0  0  0  0  0  0  0  0  0  0  0
  147.5081  141.9358  154.4193 H   0  0  0  0  0  0  0  0  0  0  0  0
  146.6618  140.5367  156.9001 H   0  0  0  0  0  0  0  0  0  0  0  0
  147.4740  139.7442  155.5733 H   0  0  0  0  0  0  0  0  0  0  0  0
  149.0935  140.1739  157.3846 H   0  0  0  0  0  0  0  0  0  0  0  0
  150.3126  140.4086  155.3177 H   0  0  0  0  0  0  0  0  0  0  0  0
  149.5353  141.9558  154.9692 H   0  0  0  0  0  0  0  0  0  0  0  0
  151.5215  141.3385  157.1766 H   0  0  0  0  0  0  0  0  0  0  0  0
  151.5792  142.6813  156.0327 H   0  0  0  0  0  0  0  0  0  0  0  0
  149.9985  143.5450  159.5589 H   0  0  0  0  0  0  0  0  0  0  0  0
  151.0456  142.1609  159.3478 H   0  0  0  0  0  0  0  0  0  0  0  0
  148.0446  142.9985  157.2784 H   0  0  0  0  0  0  0  0  0  0  0  0
  148.4632  142.0131  158.6733 H   0  0  0  0  0  0  0  0  0  0  0  0
  146.3656  143.3983  153.7235 H   0  0  0  0  0  0  0  0  0  0  0  0
  145.2480  145.5445  152.5229 H   0  0  0  0  0  0  0  0  0  0  0  0
  143.2239  144.0776  156.0680 H   0  0  0  0  0  0  0  0  0  0  0  0
  149.9811  143.7743  157.1469 H   0  0  0  0  0  0  0  0  0  0  0  0
  1  2  2  0  0  0  0
  2  3  1  0  0  0  0
  2 15  1  0  0  0  0
  3  4  1  0  0  0  0
  3 22  1  0  0  0  0
  4  5  1  0  0  0  0
  4 23  1  0  0  0  0
  4 24  1  0  0  0  0
  5 14  1  0  0  0  0
  5  6  1  0  0  0  0
  5 25  1  0  0  0  0
  6  7  1  0  0  0  0
  6 26  1  0  0  0  0
  6 27  1  0  0  0  0
  7  8  1  0  0  0  0
  7 28  1  0  0  0  0
  7 29  1  0  0  0  0
  8  9  1  0  0  0  0
  8 14  1  0  0  0  0
  8 37  1  0  0  0  0
  9 10  1  0  0  0  0
  9 30  1  0  0  0  0
  9 31  1  0  0  0  0
 10 11  1  0  0  0  0
 10 12  1  0  0  0  0
 10 13  1  0  0  0  0
 14 32  1  0  0  0  0
 14 33  1  0  0  0  0
 15 16  1  0  0  0  0
 15 34  1  0  0  0  0
 16 20  2  0  0  0  0
 16 17  1  0  0  0  0
 17 18  2  0  0  0  0
 17 35  1  0  0  0  0
 18 19  1  0  0  0  0
 19 21  1  0  0  0  0
 19 20  1  0  0  0  0
 20 36  1  0  0  0  0
M  CHG  1   8   1
M  END
> <s_m_source_file>
AV-unprocessed.smi

> <i_m_source_file_index>
1683

> <i_lp_mmshare_version>
43012

> <i_f3d_flags>
0

> <s_epik_input>
W2NIXTFbbkhdbltjSF1jMVtOSF1DKD1PKVtOSF1bQ0gyXVtDQEBIXTJbQ0gyXVtDSDJdTihbQ0gyXTIpW0NIMl1DKEYpKEYpRg==

> <s_epik_cmdline>
J2VwaWtfcHl0aG9uJywgJy1waCcsICc3LjAnLCAnLXRuJywgJzgnLCAnLW1hJywgJzIwMCcsICctbWV0YWxfYmluZGluZycsICctaW1hZScsICc8aW5maWxlLm1hZT4nLCAnLW9tYWUnLCAnPG91dGZpbGUubWFlPic=

> <r_lp_tautomer_probability>
0.5

> <r_epik_Ionization_Penalty>
0.641865

> <r_epik_Ionization_Penalty_Charging>
0.64182

> <r_epik_Ionization_Penalty_Neutral>
4.50685e-05

> <r_epik_State_Penalty>
0.65957

> <r_epik_Charging_Adjusted_Penalty>
1.30139

> <i_epik_Tot_Q>
1

> <i_epik_Tot_abs_Q>
1

> <r_epik_Metal_State_Penalty>
0.659571

> <b_epik_Metal_Only>
0

> <s_lp_Force_Field>
OPLS_2005

> <r_lp_Energy>
31.4735

> <b_lp_Chiralities_Consistent>
1

> <s_lp_Variant>
AV-unprocessed.smi:1683-4

> <Gold.Version>
5.8.1

> <Gold.Id.Protein>
6NUR|6NUR_protein|mol2

> <Gold.PLP.Fitness>
43.3316

> <Gold.PLP.PLP>
-39.9714

> <Gold.PLP.part.hbond>
-2.9719

> <Gold.PLP.part.metal>
0.0000

> <Gold.PLP.part.buried>
-7.2202

> <Gold.PLP.part.nonpolar>
-30.5837

> <Gold.PLP.part.repulsive>
0.3803

> <Gold.PLP.ligand.clash>
0.0000

> <Gold.PLP.ligand.torsion>
1.1378

> <Gold.PLP.Chemscore.Hbond>
1.7280

> <Gold.PLP.Chemscore.CHOScore>
0.0000

> <Gold.PLP.Chemscore.Metal>
0.0000

> <Gold.Chemscore.Hbonds>
donor molecule, donor type, donor heavy atom, donor atom, acceptor molecule, acceptor atom, score
      L1  H     8    37       P1  8028  1.57

> <Gold.PLP.Chemscore.Internal.Correction>
0.4517

> <Gold.Rescore>
     Score         DG    S(hbond)    S(metal)    S(lipo)     H(rot)  DE(clash)    DE(int)     intcor
      8.12     -10.98       0.81        0.00      63.57       1.81       0.74       2.12       ----

> <Gold.Chemscore.Fitness>
8.1215

> <Gold.Chemscore.DG>
-10.9813

> <Gold.Chemscore.ZeroCoef>
-5.4800

> <Gold.Chemscore.Hbond>
0.8088

> <Gold.Chemscore.Metal>
0.0000

> <Gold.Chemscore.Lipo>
63.5686

> <Gold.Chemscore.Internal_Hbond>
0.0000

> <Gold.Chemscore.DEClash>
0.7441

> <Gold.Chemscore.DEInternal>
2.1157

> <Gold.Chemscore.Rot>
1.8116

> <Gold.Chemscore.Internal.Correction>
   9.000000E+99

> <Gold.Chemscore.Hbonds>
donor molecule, donor type, donor heavy atom, donor atom, acceptor molecule, acceptor atom, score
      L1  H     8    37       P1  8028  0.70

> <Gold.Chemscore.Hbond.Weighted>
-2.7015

> <Gold.Chemscore.Metal.Weighted>
-0.0000

> <Gold.Chemscore.Lipo.Weighted>
-7.4375

> <Gold.Chemscore.Internal_Hbond.Weighted>
0.0000

> <Gold.Chemscore.DEClash.Weighted>
0.7441

> <Gold.Chemscore.DEInternal.Weighted>
2.1157

> <Gold.Chemscore.Rot.Weighted>
4.6378

> <Gold.Chemscore.Internal.Correction.Weighted>
   9.000000E+99

> <Gold.Protein.RotatedTorsions>
[ 6907 6896 6895 6894 ] final  -96.45 input  -60.11 | X-H torsion
[ 7974 7965 7964 7962 ] final   83.98 input  175.53 | X-H torsion
[ 8008 7997 7996 7995 ] final   66.96 input   59.86 | X-H torsion
[ 10167 10162 10161 10158 ] final -100.34 input  -65.29 | X-H torsion
[ 10718 10713 10712 10709 ] final   80.16 input   66.30 | X-H torsion
[ 10763 10752 10751 10750 ] final  -26.18 input  -60.55 | X-H torsion
[ 11005 11000 10999 10996 ] final   29.15 input  -57.11 | X-H torsion

> <Gold.Protein.ActiveResidues>
 VAL166  LYS551  ARG553  GLY616  TRP617  ASP618  TYR619  PRO620  LYS621  CYS622 
 ASP623  PHE694  ASN695  SER759  ASP760  ASP761  ALA762  ILE779  LEU786  VAL792 
 PHE793  MET794  SER795  GLU796  ALA797  LYS798  CYS799  TRP800  GLU811  SER814 

> <Gold.Protein.RotatedAtoms>
  150.6989  134.1501  159.4136 H   0  0  0  0  0  0  0  0  0  0  0  0  # atno 6907 bound_to 6896
  151.9484  135.0178  160.0549 H   0  0  0  0  0  0  0  0  0  0  0  0  # atno 6908 bound_to 6896
  152.2033  133.4822  159.5107 H   0  0  0  0  0  0  0  0  0  0  0  0  # atno 6909 bound_to 6896
  145.6048  139.2358  143.2225 H   0  0  0  0  0  0  0  0  0  0  0  0  # atno 7974 bound_to 7965
  155.6855  140.3496  155.4872 H   0  0  0  0  0  0  0  0  0  0  0  0  # atno 8008 bound_to 7997
  155.9570  140.1130  157.0951 H   0  0  0  0  0  0  0  0  0  0  0  0  # atno 8009 bound_to 7997
  154.4134  140.1183  156.5114 H   0  0  0  0  0  0  0  0  0  0  0  0  # atno 8010 bound_to 7997
  140.2529  143.3460  152.0698 H   0  0  0  0  0  0  0  0  0  0  0  0  # atno 10167 bound_to 10162
  157.6798  130.9947  150.2039 H   0  0  0  0  0  0  0  0  0  0  0  0  # atno 10718 bound_to 10713
  153.7117  135.6950  153.5035 H   0  0  0  0  0  0  0  0  0  0  0  0  # atno 10763 bound_to 10752
  153.2267  135.4351  155.0549 H   0  0  0  0  0  0  0  0  0  0  0  0  # atno 10764 bound_to 10752
  154.8312  135.3474  154.6654 H   0  0  0  0  0  0  0  0  0  0  0  0  # atno 10765 bound_to 10752
  140.3079  134.2682  155.7740 H   0  0  0  0  0  0  0  0  0  0  0  0  # atno 11005 bound_to 11000
  146.1549  140.6873  142.9305 LP  0  0  0  0  0  0  0  0  0  0  0  0  # atno 17320 bound_to 7965
  144.7294  140.4626  143.6949 LP  0  0  0  0  0  0  0  0  0  0  0  0  # atno 17321 bound_to 7965
  139.5040  144.6768  151.6109 LP  0  0  0  0  0  0  0  0  0  0  0  0  # atno 17342 bound_to 10162
  140.6026  143.9581  150.6397 LP  0  0  0  0  0  0  0  0  0  0  0  0  # atno 17343 bound_to 10162
  156.2724  130.3723  149.8018 LP  0  0  0  0  0  0  0  0  0  0  0  0  # atno 17370 bound_to 10713
  156.5731  130.8433  151.3362 LP  0  0  0  0  0  0  0  0  0  0  0  0  # atno 17371 bound_to 10713
  141.2114  133.7689  156.9865 LP  0  0  0  0  0  0  0  0  0  0  0  0  # atno 17394 bound_to 11000
  140.1050  134.9512  157.1981 LP  0  0  0  0  0  0  0  0  0  0  0  0  # atno 17395 bound_to 11000

$$$$
