AV-unprocessed.smi:2963|AV-procd|sdf|11319|dock3
  -GOLD-   2272016223D 1   1.00000     0.00000
 Structure written by MMmdl.
 41 43  0  0  0  0  0  0  0  0  1 V2000
  153.7408  137.2466  161.7818 C   0  0  0  0  0  0  0  0  0  0  0  0
  154.0077  137.3962  160.3963 O   0  0  0  0  0  0  0  0  0  0  0  0
  153.6851  138.6845  159.8908 C   0  0  0  0  0  0  0  0  0  0  0  0
  152.2364  138.7581  159.3759 C   0  0  0  0  0  0  0  0  0  0  0  0
  151.9613  140.0193  158.7018 N   0  0  0  0  0  0  0  0  0  0  0  0
  151.3860  140.2220  157.4908 C   0  0  0  0  0  0  0  0  0  0  0  0
  150.8508  138.8913  156.4699 S   0  0  0  0  0  0  0  0  0  0  0  0
  150.5043  139.8621  154.9720 C   0  0  0  0  0  0  0  0  0  0  0  0
  149.1985  140.6711  155.0254 C   0  0  0  0  0  0  0  0  0  0  0  0
  149.1487  141.6671  155.7519 O   0  0  0  0  0  0  0  0  0  0  0  0
  148.1624  140.2453  154.2545 N   0  0  0  0  0  0  0  0  0  0  0  0
  148.2262  139.0568  153.4018 C   0  0  0  0  0  0  0  0  0  0  0  0
  146.8468  138.9805  152.7570 C   0  0  0  0  0  0  0  0  0  0  0  0
  146.1900  140.1369  153.3138 N   0  0  0  0  0  0  0  0  0  0  0  0
  146.9488  140.8390  154.1586 C   0  0  0  0  0  0  0  0  0  0  0  0
  146.5617  141.8574  154.7330 O   0  0  0  0  0  0  0  0  0  0  0  0
  151.2432  141.4957  157.1234 N   0  0  0  0  0  0  0  0  0  0  0  0
  151.7784  142.1839  158.1940 C   0  0  0  0  0  0  0  0  0  0  0  0
  151.9227  143.5723  158.4147 C   0  0  0  0  0  0  0  0  0  0  0  0
  152.5078  144.0486  159.6064 C   0  0  0  0  0  0  0  0  0  0  0  0
  152.9549  143.1454  160.5925 C   0  0  0  0  0  0  0  0  0  0  0  0
  152.8211  141.7579  160.3921 C   0  0  0  0  0  0  0  0  0  0  0  0
  152.2375  141.2882  159.2003 C   0  0  0  0  0  0  0  0  0  0  0  0
  154.0288  136.2454  162.1022 H   0  0  0  0  0  0  0  0  0  0  0  0
  152.6780  137.3714  161.9921 H   0  0  0  0  0  0  0  0  0  0  0  0
  154.3001  137.9635  162.3829 H   0  0  0  0  0  0  0  0  0  0  0  0
  153.8071  139.3964  160.7076 H   0  0  0  0  0  0  0  0  0  0  0  0
  154.3901  138.9906  159.1163 H   0  0  0  0  0  0  0  0  0  0  0  0
  152.0588  137.9490  158.6665 H   0  0  0  0  0  0  0  0  0  0  0  0
  151.5235  138.6051  160.1851 H   0  0  0  0  0  0  0  0  0  0  0  0
  151.3362  140.5511  154.8226 H   0  0  0  0  0  0  0  0  0  0  0  0
  150.4834  139.1821  154.1201 H   0  0  0  0  0  0  0  0  0  0  0  0
  149.0015  139.1603  152.6409 H   0  0  0  0  0  0  0  0  0  0  0  0
  148.4298  138.1597  153.9884 H   0  0  0  0  0  0  0  0  0  0  0  0
  146.8954  139.0516  151.6697 H   0  0  0  0  0  0  0  0  0  0  0  0
  146.3150  138.0688  153.0318 H   0  0  0  0  0  0  0  0  0  0  0  0
  145.2394  140.3832  153.0784 H   0  0  0  0  0  0  0  0  0  0  0  0
  151.5829  144.2723  157.6661 H   0  0  0  0  0  0  0  0  0  0  0  0
  152.6131  145.1118  159.7648 H   0  0  0  0  0  0  0  0  0  0  0  0
  153.4005  143.5185  161.5030 H   0  0  0  0  0  0  0  0  0  0  0  0
  153.1611  141.0633  161.1458 H   0  0  0  0  0  0  0  0  0  0  0  0
  1  2  1  0  0  0  0
  1 24  1  0  0  0  0
  1 25  1  0  0  0  0
  1 26  1  0  0  0  0
  2  3  1  0  0  0  0
  3  4  1  0  0  0  0
  3 27  1  0  0  0  0
  3 28  1  0  0  0  0
  4  5  1  0  0  0  0
  4 29  1  0  0  0  0
  4 30  1  0  0  0  0
  5 23  1  0  0  0  0
  5  6  1  0  0  0  0
  6  7  1  0  0  0  0
  6 17  2  0  0  0  0
  7  8  1  0  0  0  0
  8  9  1  0  0  0  0
  8 31  1  0  0  0  0
  8 32  1  0  0  0  0
  9 10  2  0  0  0  0
  9 11  1  0  0  0  0
 11 15  1  0  0  0  0
 11 12  1  0  0  0  0
 12 13  1  0  0  0  0
 12 33  1  0  0  0  0
 12 34  1  0  0  0  0
 13 14  1  0  0  0  0
 13 35  1  0  0  0  0
 13 36  1  0  0  0  0
 14 15  1  0  0  0  0
 14 37  1  0  0  0  0
 15 16  2  0  0  0  0
 17 18  1  0  0  0  0
 18 23  2  0  0  0  0
 18 19  1  0  0  0  0
 19 20  2  0  0  0  0
 19 38  1  0  0  0  0
 20 21  1  0  0  0  0
 20 39  1  0  0  0  0
 21 22  2  0  0  0  0
 21 40  1  0  0  0  0
 22 23  1  0  0  0  0
 22 41  1  0  0  0  0
M  END
> <s_m_source_file>
AV-unprocessed.smi

> <i_m_source_file_index>
2963

> <i_lp_mmshare_version>
43012

> <i_f3d_flags>
0

> <s_epik_input>
W2NIXTFbY0hdW2NIXVtjSF1jKGMxMiluKFtDSDJdW0NIMl1PW0NIM10pYyhuMilTW0NIMl1DKD1PKU4zW0NIMl1bQ0gyXVtOSF1DMz1P

> <s_epik_cmdline>
J2VwaWtfcHl0aG9uJywgJy1waCcsICc3LjAnLCAnLXRuJywgJzgnLCAnLW1hJywgJzIwMCcsICctbWV0YWxfYmluZGluZycsICctaW1hZScsICc8aW5maWxlLm1hZT4nLCAnLW9tYWUnLCAnPG91dGZpbGUubWFlPic=

> <r_lp_tautomer_probability>
0.9999

> <r_epik_Ionization_Penalty>
0.0341365

> <r_epik_Ionization_Penalty_Charging>
0

> <r_epik_Ionization_Penalty_Neutral>
0.0341365

> <r_epik_State_Penalty>
0.0283589

> <r_epik_Charging_Adjusted_Penalty>
0.0283589

> <i_epik_Tot_Q>
0

> <i_epik_Tot_abs_Q>
0

> <r_epik_Metal_State_Penalty>
0.0267964

> <b_epik_Metal_Only>
0

> <s_lp_Force_Field>
OPLS_2005

> <r_lp_Energy>
40.6732

> <b_lp_Chiralities_Consistent>
1

> <s_lp_Variant>
AV-unprocessed.smi:2963-1

> <Gold.Version>
5.8.1

> <Gold.Id.Protein>
6NUR|6NUR_protein|mol2

> <Gold.PLP.Fitness>
43.1898

> <Gold.PLP.PLP>
-41.2233

> <Gold.PLP.part.hbond>
-1.0000

> <Gold.PLP.part.metal>
0.0000

> <Gold.PLP.part.buried>
-2.6172

> <Gold.PLP.part.nonpolar>
-39.0849

> <Gold.PLP.part.repulsive>
0.9461

> <Gold.PLP.ligand.clash>
0.0000

> <Gold.PLP.ligand.torsion>
0.5887

> <Gold.PLP.Chemscore.Hbond>
1.0000

> <Gold.PLP.Chemscore.CHOScore>
0.0000

> <Gold.PLP.Chemscore.Metal>
0.0000

> <Gold.Chemscore.Hbonds>
donor molecule, donor type, donor heavy atom, donor atom, acceptor molecule, acceptor atom, score
      L1  H    14    37       P1 10175  1.00

> <Gold.PLP.Chemscore.Internal.Correction>
0.1439

> <Gold.Rescore>
     Score         DG    S(hbond)    S(metal)    S(lipo)     H(rot)  DE(clash)    DE(int)     intcor
     11.15     -15.64       0.99        0.00     109.55       2.33       0.12       4.37       ----

> <Gold.Chemscore.Fitness>
11.1468

> <Gold.Chemscore.DG>
-15.6388

> <Gold.Chemscore.ZeroCoef>
-5.4800

> <Gold.Chemscore.Hbond>
0.9885

> <Gold.Chemscore.Metal>
0.0000

> <Gold.Chemscore.Lipo>
109.5460

> <Gold.Chemscore.Internal_Hbond>
0.0000

> <Gold.Chemscore.DEClash>
0.1181

> <Gold.Chemscore.DEInternal>
4.3739

> <Gold.Chemscore.Rot>
2.3280

> <Gold.Chemscore.Internal.Correction>
   9.000000E+99

> <Gold.Chemscore.Hbonds>
donor molecule, donor type, donor heavy atom, donor atom, acceptor molecule, acceptor atom, score
      L1  H    14    37       P1 10175  0.97

> <Gold.Chemscore.Hbond.Weighted>
-3.3017

> <Gold.Chemscore.Metal.Weighted>
-0.0000

> <Gold.Chemscore.Lipo.Weighted>
-12.8169

> <Gold.Chemscore.Internal_Hbond.Weighted>
0.0000

> <Gold.Chemscore.DEClash.Weighted>
0.1181

> <Gold.Chemscore.DEInternal.Weighted>
4.3739

> <Gold.Chemscore.Rot.Weighted>
5.9598

> <Gold.Chemscore.Internal.Correction.Weighted>
   9.000000E+99

> <Gold.Protein.RotatedTorsions>
[ 6907 6896 6895 6894 ] final   97.77 input  -60.11 | X-H torsion
[ 7974 7965 7964 7962 ] final   73.98 input  175.53 | X-H torsion
[ 8008 7997 7996 7995 ] final  116.56 input   59.86 | X-H torsion
[ 10167 10162 10161 10158 ] final -104.53 input  -65.29 | X-H torsion
[ 10718 10713 10712 10709 ] final   63.70 input   66.30 | X-H torsion
[ 10763 10752 10751 10750 ] final  111.42 input  -60.55 | X-H torsion
[ 11005 11000 10999 10996 ] final -168.36 input  -57.11 | X-H torsion

> <Gold.Protein.ActiveResidues>
 VAL166  LYS551  ARG553  GLY616  TRP617  ASP618  TYR619  PRO620  LYS621  CYS622 
 ASP623  PHE694  ASN695  SER759  ASP760  ASP761  ALA762  ILE779  LEU786  VAL792 
 PHE793  MET794  SER795  GLU796  ALA797  LYS798  CYS799  TRP800  GLU811  SER814 

> <Gold.Protein.RotatedAtoms>
  152.5419  134.0683  159.8182 H   0  0  0  0  0  0  0  0  0  0  0  0  # atno 6907 bound_to 6896
  151.0801  133.5390  159.2628 H   0  0  0  0  0  0  0  0  0  0  0  0  # atno 6908 bound_to 6896
  151.2220  135.0530  159.9007 H   0  0  0  0  0  0  0  0  0  0  0  0  # atno 6909 bound_to 6896
  145.7340  139.2695  143.1525 H   0  0  0  0  0  0  0  0  0  0  0  0  # atno 7974 bound_to 7965
  156.2446  140.2915  156.0542 H   0  0  0  0  0  0  0  0  0  0  0  0  # atno 8008 bound_to 7997
  155.1848  140.0405  157.2906 H   0  0  0  0  0  0  0  0  0  0  0  0  # atno 8009 bound_to 7997
  154.6235  140.2482  155.7527 H   0  0  0  0  0  0  0  0  0  0  0  0  # atno 8010 bound_to 7997
  140.2082  143.3766  152.1072 H   0  0  0  0  0  0  0  0  0  0  0  0  # atno 10167 bound_to 10162
  157.5989  130.9119  149.9749 H   0  0  0  0  0  0  0  0  0  0  0  0  # atno 10718 bound_to 10713
  153.4630  135.3718  155.2349 H   0  0  0  0  0  0  0  0  0  0  0  0  # atno 10763 bound_to 10752
  154.8757  135.3913  154.3902 H   0  0  0  0  0  0  0  0  0  0  0  0  # atno 10764 bound_to 10752
  153.4478  135.7085  153.6192 H   0  0  0  0  0  0  0  0  0  0  0  0  # atno 10765 bound_to 10752
  140.5429  134.5504  157.5104 H   0  0  0  0  0  0  0  0  0  0  0  0  # atno 11005 bound_to 11000
  146.0511  140.8068  142.9781 LP  0  0  0  0  0  0  0  0  0  0  0  0  # atno 17320 bound_to 7965
  144.6886  140.3054  143.7256 LP  0  0  0  0  0  0  0  0  0  0  0  0  # atno 17321 bound_to 7965
  139.5190  144.7013  151.5483 LP  0  0  0  0  0  0  0  0  0  0  0  0  # atno 17342 bound_to 10162
  140.6342  143.9017  150.6632 LP  0  0  0  0  0  0  0  0  0  0  0  0  # atno 17343 bound_to 10162
  156.1058  130.3653  150.0137 LP  0  0  0  0  0  0  0  0  0  0  0  0  # atno 17370 bound_to 10713
  156.8244  130.9370  151.3640 LP  0  0  0  0  0  0  0  0  0  0  0  0  # atno 17371 bound_to 10713
  139.9494  134.7643  156.0483 LP  0  0  0  0  0  0  0  0  0  0  0  0  # atno 17394 bound_to 11000
  141.1217  133.6611  156.3231 LP  0  0  0  0  0  0  0  0  0  0  0  0  # atno 17395 bound_to 11000

$$$$
