AV-unprocessed.smi:1360|AV-procd|sdf|5551|dock2
  -GOLD-   22720 5143D 1   1.00000     0.00000
 Structure written by MMmdl.
 36 37  0  0  0  0  0  0  0  0  1 V2000
  151.6501  138.3174  156.0795 C   0  0  0  0  0  0  0  0  0  0  0  0
  150.6186  139.4442  155.9158 C   0  0  2  0  0  0  0  0  0  0  0  0
  150.2743  139.6838  154.4331 C   0  0  0  0  0  0  0  0  0  0  0  0
  149.0145  140.3875  154.2666 N   0  0  0  0  0  0  0  0  0  0  0  0
  148.7240  141.7019  154.5657 C   0  0  0  0  0  0  0  0  0  0  0  0
  147.4174  141.9151  154.2316 C   0  0  0  0  0  0  0  0  0  0  0  0
  146.9869  140.6550  153.7299 C   0  0  0  0  0  0  0  0  0  0  0  0
  147.9446  139.7421  153.7531 N   0  0  0  0  0  0  0  0  0  0  0  0
  151.1277  140.6745  156.5174 N   0  0  0  0  0  0  0  0  0  0  0  0
  151.4985  140.8219  157.7985 C   0  0  0  0  0  0  0  0  0  0  0  0
  151.4663  139.9062  158.6212 O   0  0  0  0  0  0  0  0  0  0  0  0
  151.9754  142.2197  158.2140 C   0  0  2  0  0  0  0  0  0  0  0  0
  152.4224  142.2407  159.6941 C   0  0  0  0  0  0  0  0  0  0  0  0
  152.6493  143.6528  160.2049 C   0  0  0  0  0  0  0  0  0  0  0  0
  152.1982  144.7494  159.5722 C   0  0  0  0  0  0  0  0  0  0  0  0
  151.4055  144.7009  158.2776 C   0  0  0  0  0  0  0  0  0  0  0  0
  150.8885  143.2842  157.9629 C   0  0  0  0  0  0  0  0  0  0  0  0
  151.2797  137.3832  155.6565 H   0  0  0  0  0  0  0  0  0  0  0  0
  151.8721  138.1343  157.1314 H   0  0  0  0  0  0  0  0  0  0  0  0
  152.5872  138.5614  155.5781 H   0  0  0  0  0  0  0  0  0  0  0  0
  149.7032  139.1423  156.4285 H   0  0  0  0  0  0  0  0  0  0  0  0
  151.0682  140.2442  153.9365 H   0  0  0  0  0  0  0  0  0  0  0  0
  150.1936  138.7304  153.9094 H   0  0  0  0  0  0  0  0  0  0  0  0
  149.4640  142.3681  154.9840 H   0  0  0  0  0  0  0  0  0  0  0  0
  146.8550  142.8317  154.3294 H   0  0  0  0  0  0  0  0  0  0  0  0
  146.0133  140.3787  153.3526 H   0  0  0  0  0  0  0  0  0  0  0  0
  151.1808  141.4842  155.9162 H   0  0  0  0  0  0  0  0  0  0  0  0
  152.8381  142.4807  157.5977 H   0  0  0  0  0  0  0  0  0  0  0  0
  151.6837  141.7649  160.3408 H   0  0  0  0  0  0  0  0  0  0  0  0
  153.3502  141.6784  159.8058 H   0  0  0  0  0  0  0  0  0  0  0  0
  153.1935  143.7537  161.1327 H   0  0  0  0  0  0  0  0  0  0  0  0
  152.4049  145.7278  159.9804 H   0  0  0  0  0  0  0  0  0  0  0  0
  150.5679  145.3958  158.3417 H   0  0  0  0  0  0  0  0  0  0  0  0
  152.0511  145.0540  157.4731 H   0  0  0  0  0  0  0  0  0  0  0  0
  150.5371  143.2436  156.9308 H   0  0  0  0  0  0  0  0  0  0  0  0
  150.0214  143.0745  158.5913 H   0  0  0  0  0  0  0  0  0  0  0  0
  1  2  1  0  0  0  0
  1 18  1  0  0  0  0
  1 19  1  0  0  0  0
  1 20  1  0  0  0  0
  2  3  1  0  0  0  0
  2  9  1  0  0  0  0
  2 21  1  0  0  0  0
  3  4  1  0  0  0  0
  3 22  1  0  0  0  0
  3 23  1  0  0  0  0
  4  8  1  0  0  0  0
  4  5  1  0  0  0  0
  5  6  2  0  0  0  0
  5 24  1  0  0  0  0
  6  7  1  0  0  0  0
  6 25  1  0  0  0  0
  7  8  2  0  0  0  0
  7 26  1  0  0  0  0
  9 10  1  0  0  0  0
  9 27  1  0  0  0  0
 10 11  2  0  0  0  0
 10 12  1  0  0  0  0
 12 17  1  0  0  0  0
 12 13  1  0  0  0  0
 12 28  1  0  0  0  0
 13 14  1  0  0  0  0
 13 29  1  0  0  0  0
 13 30  1  0  0  0  0
 14 15  2  0  0  0  0
 14 31  1  0  0  0  0
 15 16  1  0  0  0  0
 15 32  1  0  0  0  0
 16 17  1  0  0  0  0
 16 33  1  0  0  0  0
 16 34  1  0  0  0  0
 17 35  1  0  0  0  0
 17 36  1  0  0  0  0
M  END
> <s_m_source_file>
AV-unprocessed.smi

> <i_m_source_file_index>
1360

> <i_lp_mmshare_version>
43012

> <i_f3d_flags>
0

> <s_epik_input>
bjFbY0hdW2NIXVtjSF1uMVtDSDJdW0NAQEhdKFtDSDNdKVtOSF1DKD1PKVtDQEBIXTJbQ0gyXVtDSF09W0NIXVtDSDJdW0NIMl0y

> <s_epik_cmdline>
J2VwaWtfcHl0aG9uJywgJy1waCcsICc3LjAnLCAnLXRuJywgJzgnLCAnLW1hJywgJzIwMCcsICctbWV0YWxfYmluZGluZycsICctaW1hZScsICc8aW5maWxlLm1hZT4nLCAnLW9tYWUnLCAnPG91dGZpbGUubWFlPic=

> <r_lp_tautomer_probability>
1

> <r_epik_Ionization_Penalty>
0.000315076

> <r_epik_Ionization_Penalty_Charging>
0

> <r_epik_Ionization_Penalty_Neutral>
0.000315076

> <r_epik_State_Penalty>
-0

> <r_epik_Charging_Adjusted_Penalty>
0

> <i_epik_Tot_Q>
0

> <i_epik_Tot_abs_Q>
0

> <r_epik_Metal_State_Penalty>
-0

> <b_epik_Metal_Only>
0

> <s_lp_Force_Field>
OPLS_2005

> <r_lp_Energy>
8.39031

> <b_lp_Chiralities_Consistent>
1

> <s_lp_Variant>
AV-unprocessed.smi:1360-1

> <Gold.Version>
5.8.1

> <Gold.Id.Protein>
6NUR|6NUR_protein|mol2

> <Gold.PLP.Fitness>
41.8595

> <Gold.PLP.PLP>
-36.8813

> <Gold.PLP.part.hbond>
0.0000

> <Gold.PLP.part.metal>
0.0000

> <Gold.PLP.part.buried>
-2.5773

> <Gold.PLP.part.nonpolar>
-34.7374

> <Gold.PLP.part.repulsive>
0.4230

> <Gold.PLP.ligand.clash>
0.0000

> <Gold.PLP.ligand.torsion>
0.2648

> <Gold.PLP.Chemscore.Hbond>
0.0000

> <Gold.PLP.Chemscore.CHOScore>
1.8255

> <Gold.PLP.Chemscore.Metal>
0.0000

> <Gold.Chemscore.Hbonds>
donor molecule, donor type, donor heavy atom, donor atom, acceptor molecule, acceptor atom, score
      L1  C     5    24       P1  8028  0.82
      L1  C     7    26       P1 10175  1.00

> <Gold.PLP.Chemscore.Internal.Correction>
0.0313

> <Gold.Rescore>
     Score         DG    S(hbond)    S(metal)    S(lipo)     H(rot)  DE(clash)    DE(int)     intcor
     13.85     -14.04       0.00        0.00     106.08       1.51       0.01       0.17       ----

> <Gold.Chemscore.Fitness>
13.8525

> <Gold.Chemscore.DG>
-14.0364

> <Gold.Chemscore.ZeroCoef>
-5.4800

> <Gold.Chemscore.Hbond>
0.0000

> <Gold.Chemscore.Metal>
0.0000

> <Gold.Chemscore.Lipo>
106.0767

> <Gold.Chemscore.Internal_Hbond>
0.0000

> <Gold.Chemscore.DEClash>
0.0110

> <Gold.Chemscore.DEInternal>
0.1728

> <Gold.Chemscore.Rot>
1.5057

> <Gold.Chemscore.Internal.Correction>
   9.000000E+99

> <Gold.Chemscore.Hbond.Weighted>
-0.0000

> <Gold.Chemscore.Metal.Weighted>
-0.0000

> <Gold.Chemscore.Lipo.Weighted>
-12.4110

> <Gold.Chemscore.Internal_Hbond.Weighted>
0.0000

> <Gold.Chemscore.DEClash.Weighted>
0.0110

> <Gold.Chemscore.DEInternal.Weighted>
0.1728

> <Gold.Chemscore.Rot.Weighted>
3.8546

> <Gold.Chemscore.Internal.Correction.Weighted>
   9.000000E+99

> <Gold.Protein.RotatedTorsions>
[ 6907 6896 6895 6894 ] final  -54.69 input  -60.11 | X-H torsion
[ 7974 7965 7964 7962 ] final -150.84 input  175.53 | X-H torsion
[ 8008 7997 7996 7995 ] final   38.52 input   59.86 | X-H torsion
[ 10167 10162 10161 10158 ] final   46.82 input  -65.29 | X-H torsion
[ 10718 10713 10712 10709 ] final   15.14 input   66.30 | X-H torsion
[ 10763 10752 10751 10750 ] final  -93.13 input  -60.55 | X-H torsion
[ 11005 11000 10999 10996 ] final  -33.06 input  -57.11 | X-H torsion

> <Gold.Protein.ActiveResidues>
 VAL166  LYS551  ARG553  GLY616  TRP617  ASP618  TYR619  PRO620  LYS621  CYS622 
 ASP623  PHE694  ASN695  SER759  ASP760  ASP761  ALA762  ILE779  LEU786  VAL792 
 PHE793  MET794  SER795  GLU796  ALA797  LYS798  CYS799  TRP800  GLU811  SER814 

> <Gold.Protein.RotatedAtoms>
  150.8316  134.7572  159.6858 H   0  0  0  0  0  0  0  0  0  0  0  0  # atno 6907 bound_to 6896
  152.4420  134.5569  159.9893 H   0  0  0  0  0  0  0  0  0  0  0  0  # atno 6908 bound_to 6896
  151.5729  133.3350  159.3029 H   0  0  0  0  0  0  0  0  0  0  0  0  # atno 6909 bound_to 6896
  144.7884  140.4878  143.5790 H   0  0  0  0  0  0  0  0  0  0  0  0  # atno 7974 bound_to 7965
  155.2216  140.3331  155.4315 H   0  0  0  0  0  0  0  0  0  0  0  0  # atno 8008 bound_to 7997
  156.2331  140.1859  156.7238 H   0  0  0  0  0  0  0  0  0  0  0  0  # atno 8009 bound_to 7997
  154.6012  140.0623  156.9356 H   0  0  0  0  0  0  0  0  0  0  0  0  # atno 8010 bound_to 7997
  140.3099  144.2832  150.6202 H   0  0  0  0  0  0  0  0  0  0  0  0  # atno 10167 bound_to 10162
  157.0492  130.6263  149.5764 H   0  0  0  0  0  0  0  0  0  0  0  0  # atno 10718 bound_to 10713
  154.6929  135.5206  153.8417 H   0  0  0  0  0  0  0  0  0  0  0  0  # atno 10763 bound_to 10752
  153.0645  135.6580  154.0395 H   0  0  0  0  0  0  0  0  0  0  0  0  # atno 10764 bound_to 10752
  154.0266  135.2989  155.3354 H   0  0  0  0  0  0  0  0  0  0  0  0  # atno 10765 bound_to 10752
  140.9604  133.7168  156.1360 H   0  0  0  0  0  0  0  0  0  0  0  0  # atno 11005 bound_to 11000
  145.5860  139.1492  143.3209 LP  0  0  0  0  0  0  0  0  0  0  0  0  # atno 17320 bound_to 7965
  146.2126  140.5988  142.9053 LP  0  0  0  0  0  0  0  0  0  0  0  0  # atno 17321 bound_to 7965
  140.5577  143.2196  151.7819 LP  0  0  0  0  0  0  0  0  0  0  0  0  # atno 17342 bound_to 10162
  139.4896  144.4391  151.9785 LP  0  0  0  0  0  0  0  0  0  0  0  0  # atno 17343 bound_to 10162
  156.0013  130.5093  150.7673 LP  0  0  0  0  0  0  0  0  0  0  0  0  # atno 17370 bound_to 10713
  157.5044  131.0921  151.0275 LP  0  0  0  0  0  0  0  0  0  0  0  0  # atno 17371 bound_to 10713
  140.7476  134.4081  157.5546 LP  0  0  0  0  0  0  0  0  0  0  0  0  # atno 17394 bound_to 11000
  139.8876  134.8878  156.2519 LP  0  0  0  0  0  0  0  0  0  0  0  0  # atno 17395 bound_to 11000

$$$$
