AV-unprocessed.smi:2355|AV-procd|sdf|9389|dock1
  -GOLD-   2272013 23D 1   1.00000     0.00000
 Structure written by MMmdl.
 49 50  0  0  0  0  0  0  0  0  2 V2000
  154.1390  141.1363  160.3492 C   0  0  0  0  0  0  0  0  0  0  0  0
  153.1606  142.0718  159.6711 C   0  0  0  0  0  0  0  0  0  0  0  0
  152.9004  143.3503  160.2004 C   0  0  0  0  0  0  0  0  0  0  0  0
  151.9840  144.1769  159.5217 C   0  0  0  0  0  0  0  0  0  0  0  0
  151.6574  145.5636  160.0348 C   0  0  0  0  0  0  0  0  0  0  0  0
  151.3502  143.8002  158.3905 N   0  0  0  0  0  0  0  0  0  0  0  0
  151.5914  142.5702  157.8728 C   0  0  0  0  0  0  0  0  0  0  0  0
  150.9780  142.0816  156.6885 N   0  0  0  0  0  0  0  0  0  0  0  0
  150.5219  140.8406  156.4457 C   0  0  0  0  0  0  0  0  0  0  0  0
  150.6040  139.8876  157.2215 O   0  0  0  0  0  0  0  0  0  0  0  0
  149.9368  140.7604  155.2407 N   0  0  0  0  0  0  0  0  0  0  0  0
  149.3164  139.5634  154.6678 C   0  0  2  0  0  0  0  0  0  0  0  0
  150.4009  138.5053  154.4053 C   0  0  0  0  0  0  0  0  0  0  0  0
  148.4553  139.8964  153.4112 C   0  0  2  0  0  0  0  0  0  0  0  0
  147.6189  141.1836  153.6203 C   0  0  0  0  0  0  0  0  0  0  0  0
  147.6403  138.7029  153.0078 N   0  3  0  0  0  0  0  0  0  0  0  0
  146.8686  138.0172  154.0785 C   0  0  0  0  0  0  0  0  0  0  0  0
  146.1784  136.7590  153.5235 C   0  0  0  0  0  0  0  0  0  0  0  0
  145.3402  137.1084  152.4307 O   0  0  0  0  0  0  0  0  0  0  0  0
  146.0814  137.6818  151.3629 C   0  0  0  0  0  0  0  0  0  0  0  0
  146.7534  138.9765  151.8471 C   0  0  0  0  0  0  0  0  0  0  0  0
  152.4963  141.6790  158.4916 C   0  0  0  0  0  0  0  0  0  0  0  0
  154.3376  141.4503  161.3744 H   0  0  0  0  0  0  0  0  0  0  0  0
  155.0837  141.1223  159.8055 H   0  0  0  0  0  0  0  0  0  0  0  0
  153.7419  140.1210  160.3765 H   0  0  0  0  0  0  0  0  0  0  0  0
  153.3905  143.6881  161.1021 H   0  0  0  0  0  0  0  0  0  0  0  0
  152.0943  145.7333  161.0193 H   0  0  0  0  0  0  0  0  0  0  0  0
  150.5782  145.6959  160.1157 H   0  0  0  0  0  0  0  0  0  0  0  0
  152.0468  146.3200  159.3527 H   0  0  0  0  0  0  0  0  0  0  0  0
  150.8547  142.7607  155.9521 H   0  0  0  0  0  0  0  0  0  0  0  0
  149.9167  141.5938  154.6708 H   0  0  0  0  0  0  0  0  0  0  0  0
  148.6714  139.1211  155.4272 H   0  0  0  0  0  0  0  0  0  0  0  0
  149.9749  137.6090  153.9537 H   0  0  0  0  0  0  0  0  0  0  0  0
  150.8800  138.2036  155.3375 H   0  0  0  0  0  0  0  0  0  0  0  0
  151.1864  138.8736  153.7458 H   0  0  0  0  0  0  0  0  0  0  0  0
  149.1343  140.1125  152.5847 H   0  0  0  0  0  0  0  0  0  0  0  0
  148.2476  142.0302  153.8923 H   0  0  0  0  0  0  0  0  0  0  0  0
  146.8749  141.0635  154.4082 H   0  0  0  0  0  0  0  0  0  0  0  0
  147.1021  141.4838  152.7089 H   0  0  0  0  0  0  0  0  0  0  0  0
  147.5237  137.7017  154.8899 H   0  0  0  0  0  0  0  0  0  0  0  0
  146.1278  138.7005  154.4965 H   0  0  0  0  0  0  0  0  0  0  0  0
  146.9165  136.0193  153.2081 H   0  0  0  0  0  0  0  0  0  0  0  0
  145.5714  136.2910  154.2987 H   0  0  0  0  0  0  0  0  0  0  0  0
  146.8218  136.9720  150.9900 H   0  0  0  0  0  0  0  0  0  0  0  0
  145.4023  137.8971  150.5377 H   0  0  0  0  0  0  0  0  0  0  0  0
  145.9931  139.7056  152.1316 H   0  0  0  0  0  0  0  0  0  0  0  0
  147.3157  139.4124  151.0226 H   0  0  0  0  0  0  0  0  0  0  0  0
  152.6824  140.7027  158.0670 H   0  0  0  0  0  0  0  0  0  0  0  0
  148.3135  138.0188  152.6905 H   0  0  0  0  0  0  0  0  0  0  0  0
  1  2  1  0  0  0  0
  1 23  1  0  0  0  0
  1 24  1  0  0  0  0
  1 25  1  0  0  0  0
  2 22  1  0  0  0  0
  2  3  2  0  0  0  0
  3  4  1  0  0  0  0
  3 26  1  0  0  0  0
  4  5  1  0  0  0  0
  4  6  2  0  0  0  0
  5 27  1  0  0  0  0
  5 28  1  0  0  0  0
  5 29  1  0  0  0  0
  6  7  1  0  0  0  0
  7  8  1  0  0  0  0
  7 22  2  0  0  0  0
  8  9  1  0  0  0  0
  8 30  1  0  0  0  0
  9 10  2  0  0  0  0
  9 11  1  0  0  0  0
 11 12  1  0  0  0  0
 11 31  1  0  0  0  0
 12 13  1  0  0  0  0
 12 14  1  0  0  0  0
 12 32  1  0  0  0  0
 13 33  1  0  0  0  0
 13 34  1  0  0  0  0
 13 35  1  0  0  0  0
 14 15  1  0  0  0  0
 14 16  1  0  0  0  0
 14 36  1  0  0  0  0
 15 37  1  0  0  0  0
 15 38  1  0  0  0  0
 15 39  1  0  0  0  0
 16 21  1  0  0  0  0
 16 17  1  0  0  0  0
 16 49  1  0  0  0  0
 17 18  1  0  0  0  0
 17 40  1  0  0  0  0
 17 41  1  0  0  0  0
 18 19  1  0  0  0  0
 18 42  1  0  0  0  0
 18 43  1  0  0  0  0
 19 20  1  0  0  0  0
 20 21  1  0  0  0  0
 20 44  1  0  0  0  0
 20 45  1  0  0  0  0
 21 46  1  0  0  0  0
 21 47  1  0  0  0  0
 22 48  1  0  0  0  0
M  CHG  1  16   1
M  END
> <s_m_source_file>
AV-unprocessed.smi

> <i_m_source_file_index>
2355

> <i_lp_mmshare_version>
43012

> <i_f3d_flags>
0

> <s_epik_input>
W0NIM11jMVtjSF1jKFtDSDNdKW5jKFtjSF0xKVtOSF1DKD1PKVtOSF1bQ0BIXShbQ0gzXSlbQ0BIXShbQ0gzXSlOMltDSDJdW0NIMl1PW0NIMl1bQ0gyXTI=

> <s_epik_cmdline>
J2VwaWtfcHl0aG9uJywgJy1waCcsICc3LjAnLCAnLXRuJywgJzgnLCAnLW1hJywgJzIwMCcsICctbWV0YWxfYmluZGluZycsICctaW1hZScsICc8aW5maWxlLm1hZT4nLCAnLW9tYWUnLCAnPG91dGZpbGUubWFlPic=

> <r_epik_Ionization_Penalty>
0.602711

> <r_epik_Ionization_Penalty_Charging>
0.602531

> <r_epik_Ionization_Penalty_Neutral>
0.000180055

> <r_epik_State_Penalty>
0.617039

> <r_epik_Charging_Adjusted_Penalty>
1.21957

> <i_epik_Tot_Q>
1

> <i_epik_Tot_abs_Q>
1

> <r_epik_Metal_State_Penalty>
0.617075

> <b_epik_Metal_Only>
0

> <s_lp_Force_Field>
OPLS_2005

> <r_lp_Energy>
30.3544

> <b_lp_Chiralities_Consistent>
1

> <s_lp_Variant>
AV-unprocessed.smi:2355-5

> <Gold.Version>
5.8.1

> <Gold.Id.Protein>
6NUR|6NUR_protein|mol2

> <Gold.PLP.Fitness>
47.7534

> <Gold.PLP.PLP>
-42.9465

> <Gold.PLP.part.hbond>
-2.0000

> <Gold.PLP.part.metal>
0.0000

> <Gold.PLP.part.buried>
2.8810

> <Gold.PLP.part.nonpolar>
-44.1995

> <Gold.PLP.part.repulsive>
0.6085

> <Gold.PLP.ligand.clash>
0.0000

> <Gold.PLP.ligand.torsion>
0.6866

> <Gold.PLP.Chemscore.Hbond>
2.0000

> <Gold.PLP.Chemscore.CHOScore>
0.0000

> <Gold.PLP.Chemscore.Metal>
0.0000

> <Gold.Chemscore.Hbonds>
donor molecule, donor type, donor heavy atom, donor atom, acceptor molecule, acceptor atom, score
      L1  H    16    49       P1  7948  1.92

> <Gold.PLP.Chemscore.Internal.Correction>
0.1801

> <Gold.Rescore>
     Score         DG    S(hbond)    S(metal)    S(lipo)     H(rot)  DE(clash)    DE(int)     intcor
     14.76     -18.34       0.96        0.00     114.20       1.45       1.69       1.88       ----

> <Gold.Chemscore.Fitness>
14.7605

> <Gold.Chemscore.DG>
-18.3379

> <Gold.Chemscore.ZeroCoef>
-5.4800

> <Gold.Chemscore.Hbond>
0.9576

> <Gold.Chemscore.Metal>
0.0000

> <Gold.Chemscore.Lipo>
114.2048

> <Gold.Chemscore.Internal_Hbond>
0.0000

> <Gold.Chemscore.DEClash>
1.6925

> <Gold.Chemscore.DEInternal>
1.8849

> <Gold.Chemscore.Rot>
1.4462

> <Gold.Chemscore.Internal.Correction>
   9.000000E+99

> <Gold.Chemscore.Hbonds>
donor molecule, donor type, donor heavy atom, donor atom, acceptor molecule, acceptor atom, score
      L1  H    16    49       P1  7948  0.89

> <Gold.Chemscore.Hbond.Weighted>
-3.1983

> <Gold.Chemscore.Metal.Weighted>
-0.0000

> <Gold.Chemscore.Lipo.Weighted>
-13.3620

> <Gold.Chemscore.Internal_Hbond.Weighted>
0.0000

> <Gold.Chemscore.DEClash.Weighted>
1.6925

> <Gold.Chemscore.DEInternal.Weighted>
1.8849

> <Gold.Chemscore.Rot.Weighted>
3.7023

> <Gold.Chemscore.Internal.Correction.Weighted>
   9.000000E+99

> <Gold.Protein.RotatedTorsions>
[ 6907 6896 6895 6894 ] final   60.57 input  -60.11 | X-H torsion
[ 7974 7965 7964 7962 ] final   81.38 input  175.53 | X-H torsion
[ 8008 7997 7996 7995 ] final  -74.56 input   59.86 | X-H torsion
[ 10167 10162 10161 10158 ] final   88.30 input  -65.29 | X-H torsion
[ 10718 10713 10712 10709 ] final  106.80 input   66.30 | X-H torsion
[ 10763 10752 10751 10750 ] final  102.69 input  -60.55 | X-H torsion
[ 11005 11000 10999 10996 ] final -135.09 input  -57.11 | X-H torsion

> <Gold.Protein.ActiveResidues>
 VAL166  LYS551  ARG553  GLY616  TRP617  ASP618  TYR619  PRO620  LYS621  CYS622 
 ASP623  PHE694  ASN695  SER759  ASP760  ASP761  ALA762  ILE779  LEU786  VAL792 
 PHE793  MET794  SER795  GLU796  ALA797  LYS798  CYS799  TRP800  GLU811  SER814 

> <Gold.Protein.RotatedAtoms>
  152.4014  134.6279  160.0067 H   0  0  0  0  0  0  0  0  0  0  0  0  # atno 6907 bound_to 6896
  151.6483  133.3316  159.3154 H   0  0  0  0  0  0  0  0  0  0  0  0  # atno 6908 bound_to 6896
  150.7914  134.6984  159.6581 H   0  0  0  0  0  0  0  0  0  0  0  0  # atno 6909 bound_to 6896
  145.6389  139.2421  143.2042 H   0  0  0  0  0  0  0  0  0  0  0  0  # atno 7974 bound_to 7965
  154.5341  140.0759  156.8397 H   0  0  0  0  0  0  0  0  0  0  0  0  # atno 8008 bound_to 7997
  155.3314  140.3402  155.4221 H   0  0  0  0  0  0  0  0  0  0  0  0  # atno 8009 bound_to 7997
  156.1811  140.1652  156.8260 H   0  0  0  0  0  0  0  0  0  0  0  0  # atno 8010 bound_to 7997
  139.8687  144.6505  150.8974 H   0  0  0  0  0  0  0  0  0  0  0  0  # atno 10167 bound_to 10162
  157.6654  131.0858  150.6060 H   0  0  0  0  0  0  0  0  0  0  0  0  # atno 10718 bound_to 10713
  153.3429  135.4002  155.1586 H   0  0  0  0  0  0  0  0  0  0  0  0  # atno 10763 bound_to 10752
  154.8647  135.3638  154.5322 H   0  0  0  0  0  0  0  0  0  0  0  0  # atno 10764 bound_to 10752
  153.5768  135.7077  153.5540 H   0  0  0  0  0  0  0  0  0  0  0  0  # atno 10765 bound_to 10752
  140.8930  134.1787  157.4514 H   0  0  0  0  0  0  0  0  0  0  0  0  # atno 11005 bound_to 11000
  146.1296  140.7202  142.9418 LP  0  0  0  0  0  0  0  0  0  0  0  0  # atno 17320 bound_to 7965
  144.7165  140.4226  143.7041 LP  0  0  0  0  0  0  0  0  0  0  0  0  # atno 17321 bound_to 7965
  140.7764  143.3682  151.1699 LP  0  0  0  0  0  0  0  0  0  0  0  0  # atno 17342 bound_to 10162
  139.7304  143.9081  152.3017 LP  0  0  0  0  0  0  0  0  0  0  0  0  # atno 17343 bound_to 10162
  156.6361  130.4445  149.5769 LP  0  0  0  0  0  0  0  0  0  0  0  0  # atno 17370 bound_to 10713
  156.2245  130.6757  151.1401 LP  0  0  0  0  0  0  0  0  0  0  0  0  # atno 17371 bound_to 10713
  139.8732  134.9866  156.5334 LP  0  0  0  0  0  0  0  0  0  0  0  0  # atno 17394 bound_to 11000
  140.8323  133.8269  155.8996 LP  0  0  0  0  0  0  0  0  0  0  0  0  # atno 17395 bound_to 11000

$$$$
