AV-unprocessed.smi:1047|AV-procd|sdf|4586|dock2
  -GOLD-   22720 3 63D 1   1.00000     0.00000
 Structure written by MMmdl.
 58 60  0  0  0  0  0  0  0  0  4 V2000
  143.2316  136.1217  152.4372 C   0  0  0  0  0  0  0  0  0  0  0  0
  144.5990  136.7927  152.2468 C   0  0  0  0  0  0  0  0  0  0  0  0
  144.7864  137.9577  153.1517 N   0  3  1  0  0  0  0  0  0  0  0  0
  144.0009  137.8989  154.4103 C   0  0  0  0  0  0  0  0  0  0  0  0
  144.6529  136.9535  155.4362 C   0  0  0  0  0  0  0  0  0  0  0  0
  145.9990  137.3528  155.6658 O   0  0  0  0  0  0  0  0  0  0  0  0
  146.7993  137.2923  154.4889 C   0  0  2  0  0  0  0  0  0  0  0  0
  148.2346  137.6808  154.8768 C   0  0  0  0  0  0  0  0  0  0  0  0
  148.9764  138.2330  153.7247 N   0  3  0  0  0  0  0  0  0  0  0  0
  150.1644  139.0275  154.0988 C   0  0  0  0  0  0  0  0  0  0  0  0
  150.8593  138.4470  155.3423 C   0  0  1  0  0  0  0  0  0  0  0  0
  151.4056  137.1864  155.0073 O   0  0  0  0  0  0  0  0  0  0  0  0
  151.9765  139.3733  155.8614 C   0  0  0  0  0  0  0  0  0  0  0  0
  151.4704  140.6678  156.3425 N   0  0  0  0  0  0  0  0  0  0  0  0
  150.6142  141.5404  155.7436 C   0  0  0  0  0  0  0  0  0  0  0  0
  150.4635  142.6069  156.5762 N   0  3  0  0  0  0  0  0  0  0  0  0
  151.2374  142.4164  157.7225 C   0  0  0  0  0  0  0  0  0  0  0  0
  151.4153  143.2196  158.8425 C   0  0  0  0  0  0  0  0  0  0  0  0
  152.2821  142.7396  159.8499 C   0  0  0  0  0  0  0  0  0  0  0  0
  152.5035  143.5969  161.0845 C   0  0  0  0  0  0  0  0  0  0  0  0
  152.9353  141.4871  159.7141 C   0  0  0  0  0  0  0  0  0  0  0  0
  153.8665  140.9802  160.8024 C   0  0  0  0  0  0  0  0  0  0  0  0
  152.7374  140.6827  158.5689 C   0  0  0  0  0  0  0  0  0  0  0  0
  151.8849  141.1730  157.5818 C   0  0  0  0  0  0  0  0  0  0  0  0
  146.2090  138.2643  153.4431 C   0  0  0  0  0  0  0  0  0  0  0  0
  143.0857  135.3334  151.6983 H   0  0  0  0  0  0  0  0  0  0  0  0
  142.4195  136.8394  152.3166 H   0  0  0  0  0  0  0  0  0  0  0  0
  143.1321  135.6630  153.4206 H   0  0  0  0  0  0  0  0  0  0  0  0
  145.4006  136.0656  152.3747 H   0  0  0  0  0  0  0  0  0  0  0  0
  144.6573  137.1325  151.2119 H   0  0  0  0  0  0  0  0  0  0  0  0
  143.9593  138.9049  154.8303 H   0  0  0  0  0  0  0  0  0  0  0  0
  142.9683  137.6089  154.2209 H   0  0  0  0  0  0  0  0  0  0  0  0
  144.1097  136.9979  156.3803 H   0  0  0  0  0  0  0  0  0  0  0  0
  144.6183  135.9153  155.1042 H   0  0  0  0  0  0  0  0  0  0  0  0
  146.7988  136.2750  154.0931 H   0  0  0  0  0  0  0  0  0  0  0  0
  148.2152  138.4324  155.6672 H   0  0  0  0  0  0  0  0  0  0  0  0
  148.7632  136.8124  155.2727 H   0  0  0  0  0  0  0  0  0  0  0  0
  149.2788  137.4665  153.1402 H   0  0  0  0  0  0  0  0  0  0  0  0
  150.8589  139.0758  153.2584 H   0  0  0  0  0  0  0  0  0  0  0  0
  149.8413  140.0492  154.3034 H   0  0  0  0  0  0  0  0  0  0  0  0
  150.1245  138.3024  156.1358 H   0  0  0  0  0  0  0  0  0  0  0  0
  150.7110  136.6361  154.6776 H   0  0  0  0  0  0  0  0  0  0  0  0
  152.5565  138.8932  156.6497 H   0  0  0  0  0  0  0  0  0  0  0  0
  152.6811  139.5884  155.0568 H   0  0  0  0  0  0  0  0  0  0  0  0
  150.1424  141.4138  154.7797 H   0  0  0  0  0  0  0  0  0  0  0  0
  150.9154  144.1725  158.9386 H   0  0  0  0  0  0  0  0  0  0  0  0
  153.5374  143.9405  161.1283 H   0  0  0  0  0  0  0  0  0  0  0  0
  152.2873  143.0320  161.9913 H   0  0  0  0  0  0  0  0  0  0  0  0
  151.8589  144.4765  161.0805 H   0  0  0  0  0  0  0  0  0  0  0  0
  154.3538  140.0499  160.5090 H   0  0  0  0  0  0  0  0  0  0  0  0
  153.3113  140.7919  161.7217 H   0  0  0  0  0  0  0  0  0  0  0  0
  154.6484  141.7107  161.0122 H   0  0  0  0  0  0  0  0  0  0  0  0
  153.2325  139.7280  158.4725 H   0  0  0  0  0  0  0  0  0  0  0  0
  146.7969  138.2534  152.5245 H   0  0  0  0  0  0  0  0  0  0  0  0
  146.2624  139.2849  153.8254 H   0  0  0  0  0  0  0  0  0  0  0  0
  148.3565  138.8232  153.1876 H   0  0  0  0  0  0  0  0  0  0  0  0
  144.4359  138.7495  152.6311 H   0  0  0  0  0  0  0  0  0  0  0  0
  149.8786  143.4075  156.3727 H   0  0  0  0  0  0  0  0  0  0  0  0
  1  2  1  0  0  0  0
  1 26  1  0  0  0  0
  1 27  1  0  0  0  0
  1 28  1  0  0  0  0
  2  3  1  0  0  0  0
  2 29  1  0  0  0  0
  2 30  1  0  0  0  0
  3 25  1  0  0  0  0
  3  4  1  0  0  0  0
  3 57  1  0  0  0  0
  4  5  1  0  0  0  0
  4 31  1  0  0  0  0
  4 32  1  0  0  0  0
  5  6  1  0  0  0  0
  5 33  1  0  0  0  0
  5 34  1  0  0  0  0
  6  7  1  0  0  0  0
  7  8  1  0  0  0  0
  7 25  1  0  0  0  0
  7 35  1  0  0  0  0
  8  9  1  0  0  0  0
  8 36  1  0  0  0  0
  8 37  1  0  0  0  0
  9 10  1  0  0  0  0
  9 38  1  0  0  0  0
  9 56  1  0  0  0  0
 10 11  1  0  0  0  0
 10 39  1  0  0  0  0
 10 40  1  0  0  0  0
 11 12  1  0  0  0  0
 11 13  1  0  0  0  0
 11 41  1  0  0  0  0
 12 42  1  0  0  0  0
 13 14  1  0  0  0  0
 13 43  1  0  0  0  0
 13 44  1  0  0  0  0
 14 24  1  0  0  0  0
 14 15  1  0  0  0  0
 15 16  2  0  0  0  0
 15 45  1  0  0  0  0
 16 17  1  0  0  0  0
 16 58  1  0  0  0  0
 17 24  2  0  0  0  0
 17 18  1  0  0  0  0
 18 19  2  0  0  0  0
 18 46  1  0  0  0  0
 19 20  1  0  0  0  0
 19 21  1  0  0  0  0
 20 47  1  0  0  0  0
 20 48  1  0  0  0  0
 20 49  1  0  0  0  0
 21 22  1  0  0  0  0
 21 23  2  0  0  0  0
 22 50  1  0  0  0  0
 22 51  1  0  0  0  0
 22 52  1  0  0  0  0
 23 24  1  0  0  0  0
 23 53  1  0  0  0  0
 25 54  1  0  0  0  0
 25 55  1  0  0  0  0
M  CHG  1   3   1
M  CHG  1   9   1
M  CHG  1  16   1
M  END
> <s_m_source_file>
AV-unprocessed.smi

> <i_m_source_file_index>
1047

> <i_lp_mmshare_version>
43012

> <i_f3d_flags>
0

> <s_epik_input>
W0NIM11bQ0gyXU4xW0NIMl1bQ0gyXU9bQ0BIXShbQ0gyXTEpW0NIMl1bTkhdW0NIMl1bQ0BIXShbT0hdKVtDSDJdbihbY0hdbjIpYyhjMjMpW2NIXWMoW0NIM10pYyhbY0hdMylbQ0gzXQ==

> <s_epik_cmdline>
J2VwaWtfcHl0aG9uJywgJy1waCcsICc3LjAnLCAnLXRuJywgJzgnLCAnLW1hJywgJzIwMCcsICctbWV0YWxfYmluZGluZycsICctaW1hZScsICc8aW5maWxlLm1hZT4nLCAnLW9tYWUnLCAnPG91dGZpbGUubWFlPic=

> <r_epik_Ionization_Penalty>
1.6114

> <r_epik_Ionization_Penalty_Charging>
1.61139

> <r_epik_Ionization_Penalty_Neutral>
5.04732e-06

> <r_epik_State_Penalty>
1.63724

> <r_epik_Charging_Adjusted_Penalty>
3.24864

> <i_epik_Tot_Q>
3

> <i_epik_Tot_abs_Q>
3

> <r_epik_Metal_State_Penalty>
5.64594

> <b_epik_Metal_Only>
0

> <s_lp_Force_Field>
OPLS_2005

> <r_lp_Energy>
39.9268

> <b_lp_Chiralities_Consistent>
1

> <s_lp_Variant>
AV-unprocessed.smi:1047-27

> <Gold.Version>
5.8.1

> <Gold.Id.Protein>
6NUR|6NUR_protein|mol2

> <Gold.PLP.Fitness>
61.3476

> <Gold.PLP.PLP>
-44.2497

> <Gold.PLP.part.hbond>
-3.9800

> <Gold.PLP.part.metal>
0.0000

> <Gold.PLP.part.buried>
-6.2778

> <Gold.PLP.part.nonpolar>
-34.6255

> <Gold.PLP.part.repulsive>
0.0872

> <Gold.PLP.ligand.clash>
0.0000

> <Gold.PLP.ligand.torsion>
1.0274

> <Gold.PLP.Chemscore.Hbond>
6.3575

> <Gold.PLP.Chemscore.CHOScore>
0.0000

> <Gold.PLP.Chemscore.Metal>
0.0000

> <Gold.Chemscore.Hbonds>
donor molecule, donor type, donor heavy atom, donor atom, acceptor molecule, acceptor atom, score
      L1  H     3    57       P1 10175  2.00
      L1  H     9    38       P1  7948  2.00
      L1  H    16    58       P1  8028  2.00
      P1  H 10752 10764       L1    12  0.27

> <Gold.PLP.Chemscore.Internal.Correction>
0.0803

> <Gold.Rescore>
     Score         DG    S(hbond)    S(metal)    S(lipo)     H(rot)  DE(clash)    DE(int)     intcor
     19.50     -21.43       3.00        0.00     111.73       2.78       0.01       1.92       ----

> <Gold.Chemscore.Fitness>
19.5004

> <Gold.Chemscore.DG>
-21.4279

> <Gold.Chemscore.ZeroCoef>
-5.4800

> <Gold.Chemscore.Hbond>
2.9955

> <Gold.Chemscore.Metal>
0.0000

> <Gold.Chemscore.Lipo>
111.7259

> <Gold.Chemscore.Internal_Hbond>
0.0000

> <Gold.Chemscore.DEClash>
0.0106

> <Gold.Chemscore.DEInternal>
1.9169

> <Gold.Chemscore.Rot>
2.7848

> <Gold.Chemscore.Internal.Correction>
   9.000000E+99

> <Gold.Chemscore.Hbonds>
donor molecule, donor type, donor heavy atom, donor atom, acceptor molecule, acceptor atom, score
      L1  H     3    57       P1 10175  0.98
      L1  H     9    38       P1  7948  0.94
      L1  H    16    58       P1  8028  1.00
      P1  H 10752 10764       L1    12  0.02

> <Gold.Chemscore.Hbond.Weighted>
-10.0051

> <Gold.Chemscore.Metal.Weighted>
-0.0000

> <Gold.Chemscore.Lipo.Weighted>
-13.0719

> <Gold.Chemscore.Internal_Hbond.Weighted>
0.0000

> <Gold.Chemscore.DEClash.Weighted>
0.0106

> <Gold.Chemscore.DEInternal.Weighted>
1.9169

> <Gold.Chemscore.Rot.Weighted>
7.1291

> <Gold.Chemscore.Internal.Correction.Weighted>
   9.000000E+99

> <Gold.Protein.RotatedTorsions>
[ 6907 6896 6895 6894 ] final -144.69 input  -60.11 | X-H torsion
[ 7974 7965 7964 7962 ] final -117.04 input  175.53 | X-H torsion
[ 8008 7997 7996 7995 ] final -156.49 input   59.86 | X-H torsion
[ 10167 10162 10161 10158 ] final -150.12 input  -65.29 | X-H torsion
[ 10718 10713 10712 10709 ] final   75.43 input   66.30 | X-H torsion
[ 10763 10752 10751 10750 ] final  -55.87 input  -60.55 | X-H torsion
[ 11005 11000 10999 10996 ] final  -53.16 input  -57.11 | X-H torsion

> <Gold.Protein.ActiveResidues>
 VAL166  LYS551  ARG553  GLY616  TRP617  ASP618  TYR619  PRO620  LYS621  CYS622 
 ASP623  PHE694  ASN695  SER759  ASP760  ASP761  ALA762  ILE779  LEU786  VAL792 
 PHE793  MET794  SER795  GLU796  ALA797  LYS798  CYS799  TRP800  GLU811  SER814 

> <Gold.Protein.RotatedAtoms>
  151.1176  133.5127  159.2603 H   0  0  0  0  0  0  0  0  0  0  0  0  # atno 6907 bound_to 6896
  151.1898  135.0397  159.8837 H   0  0  0  0  0  0  0  0  0  0  0  0  # atno 6908 bound_to 6896
  152.5454  134.1017  159.8374 H   0  0  0  0  0  0  0  0  0  0  0  0  # atno 6909 bound_to 6896
  145.0898  140.8482  143.3989 H   0  0  0  0  0  0  0  0  0  0  0  0  # atno 7974 bound_to 7965
  155.7179  140.0786  157.2343 H   0  0  0  0  0  0  0  0  0  0  0  0  # atno 8008 bound_to 7997
  154.4049  140.1618  156.2423 H   0  0  0  0  0  0  0  0  0  0  0  0  # atno 8009 bound_to 7997
  155.9223  140.3397  155.6185 H   0  0  0  0  0  0  0  0  0  0  0  0  # atno 8010 bound_to 7997
  139.7382  143.8703  152.2555 H   0  0  0  0  0  0  0  0  0  0  0  0  # atno 10167 bound_to 10162
  157.6634  130.9726  150.1353 H   0  0  0  0  0  0  0  0  0  0  0  0  # atno 10718 bound_to 10713
  154.1977  135.6416  153.5078 H   0  0  0  0  0  0  0  0  0  0  0  0  # atno 10763 bound_to 10752
  153.0019  135.5444  154.6348 H   0  0  0  0  0  0  0  0  0  0  0  0  # atno 10764 bound_to 10752
  154.5753  135.2920  155.0760 H   0  0  0  0  0  0  0  0  0  0  0  0  # atno 10765 bound_to 10752
  141.0962  133.6624  156.4131 H   0  0  0  0  0  0  0  0  0  0  0  0  # atno 11005 bound_to 11000
  145.1080  139.2777  143.5652 LP  0  0  0  0  0  0  0  0  0  0  0  0  # atno 17320 bound_to 7965
  146.3531  140.0667  142.8626 LP  0  0  0  0  0  0  0  0  0  0  0  0  # atno 17321 bound_to 7965
  139.8646  144.7100  150.9059 LP  0  0  0  0  0  0  0  0  0  0  0  0  # atno 17342 bound_to 10162
  140.7782  143.3789  151.1513 LP  0  0  0  0  0  0  0  0  0  0  0  0  # atno 17343 bound_to 10162
  156.2189  130.3672  149.8579 LP  0  0  0  0  0  0  0  0  0  0  0  0  # atno 17370 bound_to 10713
  156.6438  130.8715  151.3519 LP  0  0  0  0  0  0  0  0  0  0  0  0  # atno 17371 bound_to 10713
  140.5135  134.6373  157.5293 LP  0  0  0  0  0  0  0  0  0  0  0  0  # atno 17394 bound_to 11000
  139.9799  134.7154  155.9879 LP  0  0  0  0  0  0  0  0  0  0  0  0  # atno 17395 bound_to 11000

$$$$
