AV-unprocessed.smi:772|AV-procd|sdf|3688|dock9
  -GOLD-   22720 1103D 1   1.00000     0.00000
 Structure written by MMmdl.
 47 48  0  0  0  0  0  0  0  0  2 V2000
  144.0437  132.1747  149.8683 C   0  0  0  0  0  0  0  0  0  0  0  0
  144.5998  133.3666  150.6181 C   0  0  0  0  0  0  0  0  0  0  0  0
  145.8714  133.3472  151.2298 C   0  0  0  0  0  0  0  0  0  0  0  0
  146.3224  134.4934  151.9164 C   0  0  0  0  0  0  0  0  0  0  0  0
  145.4929  135.6349  151.9793 C   0  0  0  0  0  0  0  0  0  0  0  0
  145.9333  136.8750  152.7376 C   0  0  0  0  0  0  0  0  0  0  0  0
  145.9467  138.1523  151.8760 C   0  0  0  0  0  0  0  0  0  0  0  0
  146.3674  139.3292  152.6329 N   0  0  0  0  0  0  0  0  0  0  0  0
  147.4976  139.4410  153.3536 C   0  0  0  0  0  0  0  0  0  0  0  0
  148.3144  138.5222  153.4378 O   0  0  0  0  0  0  0  0  0  0  0  0
  147.6718  140.6457  153.9543 N   0  0  0  0  0  0  0  0  0  0  0  0
  146.6026  141.5409  154.4246 C   0  0  0  0  0  0  0  0  0  0  0  0
  146.3917  141.3181  155.9298 C   0  0  0  0  0  0  0  0  0  0  0  0
  147.8914  141.7476  156.8657 S   0  0  0  0  0  0  0  0  0  0  0  0
  149.1434  140.8099  155.9187 C   0  0  2  0  0  0  0  0  0  0  0  0
  150.5818  141.0530  156.4416 C   0  0  0  0  0  0  0  0  0  0  0  0
  150.9284  142.5507  156.4951 C   0  0  0  0  0  0  0  0  0  0  0  0
  151.6655  140.2660  155.6810 C   0  0  0  0  0  0  0  0  0  0  0  0
  148.9936  141.0956  154.4073 C   0  0  0  0  0  0  0  0  0  0  0  0
  144.2334  135.5977  151.3437 C   0  0  0  0  0  0  0  0  0  0  0  0
  143.8377  134.4804  150.6963 N   0  3  0  0  0  0  0  0  0  0  0  0
  144.7255  131.3254  149.9197 H   0  0  0  0  0  0  0  0  0  0  0  0
  143.8893  132.4248  148.8185 H   0  0  0  0  0  0  0  0  0  0  0  0
  143.0875  131.8694  150.2944 H   0  0  0  0  0  0  0  0  0  0  0  0
  146.4940  132.4658  151.1791 H   0  0  0  0  0  0  0  0  0  0  0  0
  147.2896  134.4895  152.3976 H   0  0  0  0  0  0  0  0  0  0  0  0
  145.2800  137.0212  153.5989 H   0  0  0  0  0  0  0  0  0  0  0  0
  146.9304  136.6982  153.1420 H   0  0  0  0  0  0  0  0  0  0  0  0
  146.6409  138.0221  151.0456 H   0  0  0  0  0  0  0  0  0  0  0  0
  144.9661  138.3145  151.4253 H   0  0  0  0  0  0  0  0  0  0  0  0
  145.7472  140.1259  152.6113 H   0  0  0  0  0  0  0  0  0  0  0  0
  146.8782  142.5800  154.2388 H   0  0  0  0  0  0  0  0  0  0  0  0
  145.6620  141.4034  153.8910 H   0  0  0  0  0  0  0  0  0  0  0  0
  145.5664  141.9305  156.2931 H   0  0  0  0  0  0  0  0  0  0  0  0
  146.1315  140.2782  156.1298 H   0  0  0  0  0  0  0  0  0  0  0  0
  148.9180  139.7536  156.0739 H   0  0  0  0  0  0  0  0  0  0  0  0
  150.6048  140.7007  157.4737 H   0  0  0  0  0  0  0  0  0  0  0  0
  150.9732  142.9909  155.4988 H   0  0  0  0  0  0  0  0  0  0  0  0
  151.8980  142.7102  156.9676 H   0  0  0  0  0  0  0  0  0  0  0  0
  150.1891  143.1066  157.0722 H   0  0  0  0  0  0  0  0  0  0  0  0
  151.7281  140.5692  154.6359 H   0  0  0  0  0  0  0  0  0  0  0  0
  151.4798  139.1928  155.7082 H   0  0  0  0  0  0  0  0  0  0  0  0
  152.6471  140.4310  156.1261 H   0  0  0  0  0  0  0  0  0  0  0  0
  149.7958  140.6091  153.8502 H   0  0  0  0  0  0  0  0  0  0  0  0
  149.1073  142.1604  154.2023 H   0  0  0  0  0  0  0  0  0  0  0  0
  143.5302  136.4178  151.3445 H   0  0  0  0  0  0  0  0  0  0  0  0
  142.9204  134.4757  150.2496 H   0  0  0  0  0  0  0  0  0  0  0  0
  1  2  1  0  0  0  0
  1 22  1  0  0  0  0
  1 23  1  0  0  0  0
  1 24  1  0  0  0  0
  2 21  1  0  0  0  0
  2  3  2  0  0  0  0
  3  4  1  0  0  0  0
  3 25  1  0  0  0  0
  4  5  2  0  0  0  0
  4 26  1  0  0  0  0
  5  6  1  0  0  0  0
  5 20  1  0  0  0  0
  6  7  1  0  0  0  0
  6 27  1  0  0  0  0
  6 28  1  0  0  0  0
  7  8  1  0  0  0  0
  7 29  1  0  0  0  0
  7 30  1  0  0  0  0
  8  9  1  0  0  0  0
  8 31  1  0  0  0  0
  9 10  2  0  0  0  0
  9 11  1  0  0  0  0
 11 19  1  0  0  0  0
 11 12  1  0  0  0  0
 12 13  1  0  0  0  0
 12 32  1  0  0  0  0
 12 33  1  0  0  0  0
 13 14  1  0  0  0  0
 13 34  1  0  0  0  0
 13 35  1  0  0  0  0
 14 15  1  0  0  0  0
 15 16  1  0  0  0  0
 15 19  1  0  0  0  0
 15 36  1  0  0  0  0
 16 17  1  0  0  0  0
 16 18  1  0  0  0  0
 16 37  1  0  0  0  0
 17 38  1  0  0  0  0
 17 39  1  0  0  0  0
 17 40  1  0  0  0  0
 18 41  1  0  0  0  0
 18 42  1  0  0  0  0
 18 43  1  0  0  0  0
 19 44  1  0  0  0  0
 19 45  1  0  0  0  0
 20 21  2  0  0  0  0
 20 46  1  0  0  0  0
 21 47  1  0  0  0  0
M  CHG  1  21   1
M  END
> <s_m_source_file>
AV-unprocessed.smi

> <i_m_source_file_index>
772

> <i_lp_mmshare_version>
43012

> <i_f3d_flags>
0

> <s_epik_input>
W0NIM11jMVtjSF1bY0hdYyhbY0hdbjEpW0NIMl1bQ0gyXVtOSF1DKD1PKU4yW0NIMl1bQ0gyXVNbQ0BIXShbQ0gyXTIpW0NIXShbQ0gzXSlbQ0gzXQ==

> <s_epik_cmdline>
J2VwaWtfcHl0aG9uJywgJy1waCcsICc3LjAnLCAnLXRuJywgJzgnLCAnLW1hJywgJzIwMCcsICctbWV0YWxfYmluZGluZycsICctaW1hZScsICc8aW5maWxlLm1hZT4nLCAnLW9tYWUnLCAnPG91dGZpbGUubWFlPic=

> <r_epik_Ionization_Penalty>
1.41908

> <r_epik_Ionization_Penalty_Charging>
1.41903

> <r_epik_Ionization_Penalty_Neutral>
4.72921e-05

> <r_epik_State_Penalty>
1.50265

> <r_epik_Charging_Adjusted_Penalty>
2.92168

> <i_epik_Tot_Q>
1

> <i_epik_Tot_abs_Q>
1

> <r_epik_Metal_State_Penalty>
1.55496

> <b_epik_Metal_Only>
0

> <s_lp_Force_Field>
OPLS_2005

> <r_lp_Energy>
32.4452

> <b_lp_Chiralities_Consistent>
1

> <s_lp_Variant>
AV-unprocessed.smi:772-4

> <Gold.Version>
5.8.1

> <Gold.Id.Protein>
6NUR|6NUR_protein|mol2

> <Gold.PLP.Fitness>
43.5431

> <Gold.PLP.PLP>
-37.3041

> <Gold.PLP.part.hbond>
-2.0000

> <Gold.PLP.part.metal>
0.0000

> <Gold.PLP.part.buried>
-1.0476

> <Gold.PLP.part.nonpolar>
-36.9827

> <Gold.PLP.part.repulsive>
2.6743

> <Gold.PLP.ligand.clash>
0.0000

> <Gold.PLP.ligand.torsion>
0.3424

> <Gold.PLP.Chemscore.Hbond>
2.2808

> <Gold.PLP.Chemscore.CHOScore>
0.0000

> <Gold.PLP.Chemscore.Metal>
0.0000

> <Gold.Chemscore.Hbonds>
donor molecule, donor type, donor heavy atom, donor atom, acceptor molecule, acceptor atom, score
      L1  H     8    31       P1 10175  0.64
      L1  H    21    47       P1 10186  2.00

> <Gold.PLP.Chemscore.Internal.Correction>
0.0814

> <Gold.Rescore>
     Score         DG    S(hbond)    S(metal)    S(lipo)     H(rot)  DE(clash)    DE(int)     intcor
     16.38     -17.09       1.51        0.00      86.66       1.39       0.36       0.35       ----

> <Gold.Chemscore.Fitness>
16.3805

> <Gold.Chemscore.DG>
-17.0902

> <Gold.Chemscore.ZeroCoef>
-5.4800

> <Gold.Chemscore.Hbond>
1.5096

> <Gold.Chemscore.Metal>
0.0000

> <Gold.Chemscore.Lipo>
86.6593

> <Gold.Chemscore.Internal_Hbond>
0.0000

> <Gold.Chemscore.DEClash>
0.3567

> <Gold.Chemscore.DEInternal>
0.3530

> <Gold.Chemscore.Rot>
1.3949

> <Gold.Chemscore.Internal.Correction>
   9.000000E+99

> <Gold.Chemscore.Hbonds>
donor molecule, donor type, donor heavy atom, donor atom, acceptor molecule, acceptor atom, score
      L1  H     8    31       P1 10175  0.56
      L1  H    21    47       P1 10186  0.70

> <Gold.Chemscore.Hbond.Weighted>
-5.0420

> <Gold.Chemscore.Metal.Weighted>
-0.0000

> <Gold.Chemscore.Lipo.Weighted>
-10.1391

> <Gold.Chemscore.Internal_Hbond.Weighted>
0.0000

> <Gold.Chemscore.DEClash.Weighted>
0.3567

> <Gold.Chemscore.DEInternal.Weighted>
0.3530

> <Gold.Chemscore.Rot.Weighted>
3.5709

> <Gold.Chemscore.Internal.Correction.Weighted>
   9.000000E+99

> <Gold.Protein.RotatedTorsions>
[ 6907 6896 6895 6894 ] final   87.95 input  -60.11 | X-H torsion
[ 7974 7965 7964 7962 ] final   43.88 input  175.53 | X-H torsion
[ 8008 7997 7996 7995 ] final   21.15 input   59.86 | X-H torsion
[ 10167 10162 10161 10158 ] final  -74.54 input  -65.29 | X-H torsion
[ 10718 10713 10712 10709 ] final  178.45 input   66.30 | X-H torsion
[ 10763 10752 10751 10750 ] final  160.38 input  -60.55 | X-H torsion
[ 11005 11000 10999 10996 ] final  -36.22 input  -57.11 | X-H torsion

> <Gold.Protein.ActiveResidues>
 VAL166  LYS551  ARG553  GLY616  TRP617  ASP618  TYR619  PRO620  LYS621  CYS622 
 ASP623  PHE694  ASN695  SER759  ASP760  ASP761  ALA762  ILE779  LEU786  VAL792 
 PHE793  MET794  SER795  GLU796  ALA797  LYS798  CYS799  TRP800  GLU811  SER814 

> <Gold.Protein.RotatedAtoms>
  152.5418  134.2197  159.8782 H   0  0  0  0  0  0  0  0  0  0  0  0  # atno 6907 bound_to 6896
  151.2175  133.4514  159.2607 H   0  0  0  0  0  0  0  0  0  0  0  0  # atno 6908 bound_to 6896
  151.0837  134.9887  159.8424 H   0  0  0  0  0  0  0  0  0  0  0  0  # atno 6909 bound_to 6896
  146.0617  139.5137  142.9654 H   0  0  0  0  0  0  0  0  0  0  0  0  # atno 7974 bound_to 7965
  154.9462  140.3059  155.5097 H   0  0  0  0  0  0  0  0  0  0  0  0  # atno 8008 bound_to 7997
  156.2991  140.2327  156.4473 H   0  0  0  0  0  0  0  0  0  0  0  0  # atno 8009 bound_to 7997
  154.8098  140.0429  157.1323 H   0  0  0  0  0  0  0  0  0  0  0  0  # atno 8010 bound_to 7997
  140.5019  143.2360  151.7739 H   0  0  0  0  0  0  0  0  0  0  0  0  # atno 10167 bound_to 10162
  156.8903  130.9845  151.3050 H   0  0  0  0  0  0  0  0  0  0  0  0  # atno 10718 bound_to 10713
  154.2466  135.2773  155.2833 H   0  0  0  0  0  0  0  0  0  0  0  0  # atno 10763 bound_to 10752
  154.5500  135.5678  153.6917 H   0  0  0  0  0  0  0  0  0  0  0  0  # atno 10764 bound_to 10752
  152.9989  135.6272  154.2611 H   0  0  0  0  0  0  0  0  0  0  0  0  # atno 10765 bound_to 10752
  140.9857  133.7032  156.1762 H   0  0  0  0  0  0  0  0  0  0  0  0  # atno 11005 bound_to 11000
  145.6548  141.0255  143.1741 LP  0  0  0  0  0  0  0  0  0  0  0  0  # atno 17320 bound_to 7965
  144.7179  139.8132  143.7392 LP  0  0  0  0  0  0  0  0  0  0  0  0  # atno 17321 bound_to 7965
  139.4874  144.4511  151.9653 LP  0  0  0  0  0  0  0  0  0  0  0  0  # atno 17342 bound_to 10162
  140.3600  144.2984  150.5935 LP  0  0  0  0  0  0  0  0  0  0  0  0  # atno 17343 bound_to 10162
  157.6087  130.8567  149.8917 LP  0  0  0  0  0  0  0  0  0  0  0  0  # atno 17370 bound_to 10713
  156.0632  130.3696  150.0935 LP  0  0  0  0  0  0  0  0  0  0  0  0  # atno 17371 bound_to 10713
  140.7118  134.4454  157.5581 LP  0  0  0  0  0  0  0  0  0  0  0  0  # atno 17394 bound_to 11000
  139.8969  134.8647  156.2065 LP  0  0  0  0  0  0  0  0  0  0  0  0  # atno 17395 bound_to 11000

$$$$
