AV-unprocessed.smi:3240|AV-procd|sdf|12381|dock7
  -GOLD-   2272018243D 1   1.00000     0.00000
 Structure written by MMmdl.
 44 45  0  0  0  0  0  0  0  0  2 V2000
  143.3056  132.0438  150.1012 C   0  0  0  0  0  0  0  0  0  0  0  0
  144.1982  133.1588  150.5640 C   0  0  0  0  0  0  0  0  0  0  0  0
  145.5674  133.0833  150.9480 C   0  0  0  0  0  0  0  0  0  0  0  0
  146.0647  134.2551  151.3082 N   0  0  0  0  0  0  0  0  0  0  0  0
  145.0375  135.1186  151.1616 N   0  0  0  0  0  0  0  0  0  0  0  0
  145.2186  136.5232  151.4858 C   0  0  0  0  0  0  0  0  0  0  0  0
  145.6445  136.7523  152.9506 C   0  0  2  0  0  0  0  0  0  0  0  0
  144.4433  137.1996  153.8002 C   0  0  0  0  0  0  0  0  0  0  0  0
  146.7422  137.7445  153.0109 N   0  3  0  0  0  0  0  0  0  0  0  0
  147.3008  137.9961  154.3579 C   0  0  0  0  0  0  0  0  0  0  0  0
  148.5229  138.9401  154.3165 C   0  0  0  0  0  0  0  0  0  0  0  0
  149.3303  138.5315  153.2261 O   0  0  0  0  0  0  0  0  0  0  0  0
  148.1077  140.4203  154.1242 C   0  0  0  0  0  0  0  0  0  0  0  0
  149.2949  141.3952  154.2235 C   0  0  0  0  0  0  0  0  0  0  0  0
  150.0604  141.2136  155.5414 C   0  0  0  0  0  0  0  0  0  0  0  0
  150.5317  139.7622  155.7042 C   0  0  0  0  0  0  0  0  0  0  0  0
  149.3515  138.7784  155.6135 C   0  0  0  0  0  0  0  0  0  0  0  0
  143.8961  134.4816  150.7227 C   0  0  0  0  0  0  0  0  0  0  0  0
  143.8277  131.0867  150.0829 H   0  0  0  0  0  0  0  0  0  0  0  0
  142.9282  132.2229  149.0943 H   0  0  0  0  0  0  0  0  0  0  0  0
  142.4398  131.9246  150.7528 H   0  0  0  0  0  0  0  0  0  0  0  0
  146.2100  132.2156  150.9770 H   0  0  0  0  0  0  0  0  0  0  0  0
  145.9591  136.9446  150.8043 H   0  0  0  0  0  0  0  0  0  0  0  0
  144.2787  137.0375  151.2804 H   0  0  0  0  0  0  0  0  0  0  0  0
  146.0134  135.8068  153.3513 H   0  0  0  0  0  0  0  0  0  0  0  0
  143.6275  136.4795  153.7292 H   0  0  0  0  0  0  0  0  0  0  0  0
  144.0605  138.1660  153.4700 H   0  0  0  0  0  0  0  0  0  0  0  0
  144.7008  137.2849  154.8557 H   0  0  0  0  0  0  0  0  0  0  0  0
  147.5010  137.3918  152.4443 H   0  0  0  0  0  0  0  0  0  0  0  0
  146.5280  138.4278  154.9939 H   0  0  0  0  0  0  0  0  0  0  0  0
  147.5840  137.0430  154.8078 H   0  0  0  0  0  0  0  0  0  0  0  0
  149.2152  139.1491  152.5193 H   0  0  0  0  0  0  0  0  0  0  0  0
  147.6121  140.5591  153.1626 H   0  0  0  0  0  0  0  0  0  0  0  0
  147.3725  140.6882  154.8844 H   0  0  0  0  0  0  0  0  0  0  0  0
  149.9729  141.2410  153.3831 H   0  0  0  0  0  0  0  0  0  0  0  0
  148.9373  142.4221  154.1430 H   0  0  0  0  0  0  0  0  0  0  0  0
  150.9163  141.8886  155.5717 H   0  0  0  0  0  0  0  0  0  0  0  0
  149.4193  141.4885  156.3800 H   0  0  0  0  0  0  0  0  0  0  0  0
  151.2708  139.5280  154.9372 H   0  0  0  0  0  0  0  0  0  0  0  0
  151.0379  139.6436  156.6627 H   0  0  0  0  0  0  0  0  0  0  0  0
  148.7024  138.9393  156.4756 H   0  0  0  0  0  0  0  0  0  0  0  0
  149.7200  137.7555  155.7028 H   0  0  0  0  0  0  0  0  0  0  0  0
  142.9717  135.0159  150.5592 H   0  0  0  0  0  0  0  0  0  0  0  0
  146.4248  138.6162  152.6127 H   0  0  0  0  0  0  0  0  0  0  0  0
  1  2  1  0  0  0  0
  1 19  1  0  0  0  0
  1 20  1  0  0  0  0
  1 21  1  0  0  0  0
  2 18  2  0  0  0  0
  2  3  1  0  0  0  0
  3  4  2  0  0  0  0
  3 22  1  0  0  0  0
  4  5  1  0  0  0  0
  5  6  1  0  0  0  0
  5 18  1  0  0  0  0
  6  7  1  0  0  0  0
  6 23  1  0  0  0  0
  6 24  1  0  0  0  0
  7  8  1  0  0  0  0
  7  9  1  0  0  0  0
  7 25  1  0  0  0  0
  8 26  1  0  0  0  0
  8 27  1  0  0  0  0
  8 28  1  0  0  0  0
  9 10  1  0  0  0  0
  9 29  1  0  0  0  0
  9 44  1  0  0  0  0
 10 11  1  0  0  0  0
 10 30  1  0  0  0  0
 10 31  1  0  0  0  0
 11 17  1  0  0  0  0
 11 12  1  0  0  0  0
 11 13  1  0  0  0  0
 12 32  1  0  0  0  0
 13 14  1  0  0  0  0
 13 33  1  0  0  0  0
 13 34  1  0  0  0  0
 14 15  1  0  0  0  0
 14 35  1  0  0  0  0
 14 36  1  0  0  0  0
 15 16  1  0  0  0  0
 15 37  1  0  0  0  0
 15 38  1  0  0  0  0
 16 17  1  0  0  0  0
 16 39  1  0  0  0  0
 16 40  1  0  0  0  0
 17 41  1  0  0  0  0
 17 42  1  0  0  0  0
 18 43  1  0  0  0  0
M  CHG  1   9   1
M  END
> <s_m_source_file>
AV-unprocessed.smi

> <i_m_source_file_index>
3240

> <i_lp_mmshare_version>
43012

> <i_f3d_flags>
0

> <s_epik_input>
W0NIM11jMVtjSF1ubihbY0hdMSlbQ0gyXVtDQEhdKFtDSDNdKVtOSF1bQ0gyXUMyKFtPSF0pW0NIMl1bQ0gyXVtDSDJdW0NIMl1bQ0gyXTI=

> <s_epik_cmdline>
J2VwaWtfcHl0aG9uJywgJy1waCcsICc3LjAnLCAnLXRuJywgJzgnLCAnLW1hJywgJzIwMCcsICctbWV0YWxfYmluZGluZycsICctaW1hZScsICc8aW5maWxlLm1hZT4nLCAnLW9tYWUnLCAnPG91dGZpbGUubWFlPic=

> <r_lp_tautomer_probability>
1

> <r_epik_Ionization_Penalty>
0.0111573

> <r_epik_Ionization_Penalty_Charging>
0.0111472

> <r_epik_Ionization_Penalty_Neutral>
1.01652e-05

> <r_epik_State_Penalty>
0.00856328

> <r_epik_Charging_Adjusted_Penalty>
0.0197104

> <i_epik_Tot_Q>
1

> <i_epik_Tot_abs_Q>
1

> <r_epik_Metal_State_Penalty>
0.00856448

> <b_epik_Metal_Only>
0

> <s_lp_Force_Field>
OPLS_2005

> <r_lp_Energy>
16.744

> <b_lp_Chiralities_Consistent>
1

> <s_lp_Variant>
AV-unprocessed.smi:3240-1

> <Gold.Version>
5.8.1

> <Gold.Id.Protein>
6NUR|6NUR_protein|mol2

> <Gold.PLP.Fitness>
43.9825

> <Gold.PLP.PLP>
-30.8365

> <Gold.PLP.part.hbond>
-2.8463

> <Gold.PLP.part.metal>
0.0000

> <Gold.PLP.part.buried>
-0.4491

> <Gold.PLP.part.nonpolar>
-27.3664

> <Gold.PLP.part.repulsive>
0.2473

> <Gold.PLP.ligand.clash>
0.0000

> <Gold.PLP.ligand.torsion>
0.8503

> <Gold.PLP.Chemscore.Hbond>
3.0000

> <Gold.PLP.Chemscore.CHOScore>
1.9307

> <Gold.PLP.Chemscore.Metal>
0.0000

> <Gold.Chemscore.Hbonds>
donor molecule, donor type, donor heavy atom, donor atom, acceptor molecule, acceptor atom, score
      L1  H     9    29       P1  7948  2.00
      L1  H    12    32       P1  7957  1.00
      L1  C    18    43       P1 10186  0.76

> <Gold.PLP.Chemscore.Internal.Correction>
0.0545

> <Gold.Rescore>
     Score         DG    S(hbond)    S(metal)    S(lipo)     H(rot)  DE(clash)    DE(int)     intcor
     15.43     -16.12       1.97        0.00      81.10       2.12       0.16       0.53       ----

> <Gold.Chemscore.Fitness>
15.4333

> <Gold.Chemscore.DG>
-16.1249

> <Gold.Chemscore.ZeroCoef>
-5.4800

> <Gold.Chemscore.Hbond>
1.9706

> <Gold.Chemscore.Metal>
0.0000

> <Gold.Chemscore.Lipo>
81.0980

> <Gold.Chemscore.Internal_Hbond>
0.0000

> <Gold.Chemscore.DEClash>
0.1579

> <Gold.Chemscore.DEInternal>
0.5336

> <Gold.Chemscore.Rot>
2.1193

> <Gold.Chemscore.Internal.Correction>
   9.000000E+99

> <Gold.Chemscore.Hbonds>
donor molecule, donor type, donor heavy atom, donor atom, acceptor molecule, acceptor atom, score
      L1  H     9    29       P1  7948  0.99
      L1  H    12    32       P1  7957  0.98

> <Gold.Chemscore.Hbond.Weighted>
-6.5818

> <Gold.Chemscore.Metal.Weighted>
-0.0000

> <Gold.Chemscore.Lipo.Weighted>
-9.4885

> <Gold.Chemscore.Internal_Hbond.Weighted>
0.0000

> <Gold.Chemscore.DEClash.Weighted>
0.1579

> <Gold.Chemscore.DEInternal.Weighted>
0.5336

> <Gold.Chemscore.Rot.Weighted>
5.4254

> <Gold.Chemscore.Internal.Correction.Weighted>
   9.000000E+99

> <Gold.Protein.RotatedTorsions>
[ 6907 6896 6895 6894 ] final  -57.34 input  -60.11 | X-H torsion
[ 7974 7965 7964 7962 ] final  -38.35 input  175.53 | X-H torsion
[ 8008 7997 7996 7995 ] final    2.20 input   59.86 | X-H torsion
[ 10167 10162 10161 10158 ] final   40.24 input  -65.29 | X-H torsion
[ 10718 10713 10712 10709 ] final  129.13 input   66.30 | X-H torsion
[ 10763 10752 10751 10750 ] final  -96.46 input  -60.55 | X-H torsion
[ 11005 11000 10999 10996 ] final  -32.03 input  -57.11 | X-H torsion

> <Gold.Protein.ActiveResidues>
 VAL166  LYS551  ARG553  GLY616  TRP617  ASP618  TYR619  PRO620  LYS621  CYS622 
 ASP623  PHE694  ASN695  SER759  ASP760  ASP761  ALA762  ILE779  LEU786  VAL792 
 PHE793  MET794  SER795  GLU796  ALA797  LYS798  CYS799  TRP800  GLU811  SER814 

> <Gold.Protein.RotatedAtoms>
  150.8094  134.7239  159.6673 H   0  0  0  0  0  0  0  0  0  0  0  0  # atno 6907 bound_to 6896
  152.4213  134.5946  159.9993 H   0  0  0  0  0  0  0  0  0  0  0  0  # atno 6908 bound_to 6896
  151.6160  133.3306  159.3113 H   0  0  0  0  0  0  0  0  0  0  0  0  # atno 6909 bound_to 6896
  146.0494  140.6501  142.9049 H   0  0  0  0  0  0  0  0  0  0  0  0  # atno 7974 bound_to 7965
  154.6887  140.2648  155.6834 H   0  0  0  0  0  0  0  0  0  0  0  0  # atno 8008 bound_to 7997
  156.2724  140.2795  156.1381 H   0  0  0  0  0  0  0  0  0  0  0  0  # atno 8009 bound_to 7997
  155.0927  140.0373  157.2663 H   0  0  0  0  0  0  0  0  0  0  0  0  # atno 8010 bound_to 7997
  140.3761  144.2041  150.6131 H   0  0  0  0  0  0  0  0  0  0  0  0  # atno 10167 bound_to 10162
  157.5182  131.1098  150.9193 H   0  0  0  0  0  0  0  0  0  0  0  0  # atno 10718 bound_to 10713
  154.7241  135.5083  153.8858 H   0  0  0  0  0  0  0  0  0  0  0  0  # atno 10763 bound_to 10752
  153.0889  135.6653  153.9903 H   0  0  0  0  0  0  0  0  0  0  0  0  # atno 10764 bound_to 10752
  153.9719  135.3037  155.3406 H   0  0  0  0  0  0  0  0  0  0  0  0  # atno 10765 bound_to 10752
  140.9518  133.7216  156.1232 H   0  0  0  0  0  0  0  0  0  0  0  0  # atno 11005 bound_to 11000
  144.7115  140.4054  143.7077 LP  0  0  0  0  0  0  0  0  0  0  0  0  # atno 17320 bound_to 7965
  145.6750  139.1607  143.2733 LP  0  0  0  0  0  0  0  0  0  0  0  0  # atno 17321 bound_to 7965
  140.4985  143.2325  151.8714 LP  0  0  0  0  0  0  0  0  0  0  0  0  # atno 17342 bound_to 10162
  139.4799  144.5087  151.8963 LP  0  0  0  0  0  0  0  0  0  0  0  0  # atno 17343 bound_to 10162
  156.9812  130.5527  149.5296 LP  0  0  0  0  0  0  0  0  0  0  0  0  # atno 17370 bound_to 10713
  156.0335  130.5424  150.8595 LP  0  0  0  0  0  0  0  0  0  0  0  0  # atno 17371 bound_to 10713
  140.7592  134.3959  157.5528 LP  0  0  0  0  0  0  0  0  0  0  0  0  # atno 17394 bound_to 11000
  139.8850  134.8950  156.2670 LP  0  0  0  0  0  0  0  0  0  0  0  0  # atno 17395 bound_to 11000

$$$$
