AV-unprocessed.smi:281|AV-procd|sdf|2106|dock5
  -GOLD-   2262021393D 1   1.00000     0.00000
 Structure written by MMmdl.
 55 59  0  0  0  0  0  0  0  0  1 V2000
  147.8743  133.2419  157.3602 C   0  0  0  0  0  0  0  0  0  0  0  0
  148.2349  134.1107  158.5694 C   0  0  1  0  0  0  0  0  0  0  0  0
  149.0290  135.3643  158.1621 C   0  0  0  0  0  0  0  0  0  0  0  0
  149.2525  136.2076  159.3275 N   0  0  0  0  0  0  0  0  0  0  0  0
  150.0865  137.2442  159.1055 C   0  0  0  0  0  0  0  0  0  0  0  0
  151.2377  137.2727  159.8197 N   0  0  0  0  0  0  0  0  0  0  0  0
  152.1043  138.2756  159.6473 C   0  0  0  0  0  0  0  0  0  0  0  0
  152.0135  139.3272  158.8301 N   0  0  0  0  0  0  0  0  0  0  0  0
  150.8523  139.3023  158.1142 C   0  0  0  0  0  0  0  0  0  0  0  0
  149.8415  138.3032  158.1863 C   0  0  0  0  0  0  0  0  0  0  0  0
  148.8101  138.6071  157.3060 N   0  0  0  0  0  0  0  0  0  0  0  0
  149.1904  139.7222  156.7446 C   0  0  0  0  0  0  0  0  0  0  0  0
  150.4002  140.2169  157.1786 N   0  0  0  0  0  0  0  0  0  0  0  0
  151.0602  141.4329  156.7267 C   0  0  0  0  0  0  0  0  0  0  0  0
  151.0205  142.5867  157.7584 C   0  0  1  0  0  0  0  0  0  0  0  0
  149.6895  143.0545  157.8781 O   0  0  0  0  0  0  0  0  0  0  0  0
  151.5211  142.1509  159.1376 C   0  0  0  0  0  0  0  0  0  0  0  0
  152.8654  142.8558  159.2717 C   0  0  0  0  0  0  0  0  0  0  0  0
  152.6421  144.0797  158.5952 O   0  0  0  0  0  0  0  0  0  0  0  0
  151.9409  143.7708  157.3995 C   0  0  0  0  0  0  0  0  0  0  0  0
  148.0118  136.5867  159.9890 C   0  0  0  0  0  0  0  0  0  0  0  0
  147.1920  135.3275  160.3671 C   0  0  1  0  0  0  0  0  0  0  0  0
  147.8078  134.5448  161.5228 C   0  0  0  0  0  0  0  0  0  0  0  0
  147.2735  135.2685  162.7536 C   0  0  0  0  0  0  0  0  0  0  0  0
  145.9999  135.7784  162.3766 O   0  0  0  0  0  0  0  0  0  0  0  0
  145.8082  135.6350  160.9717 C   0  0  1  0  0  0  0  0  0  0  0  0
  145.0507  136.8404  160.3955 C   0  0  0  0  0  0  0  0  0  0  0  0
  147.0199  134.5029  159.2098 O   0  0  0  0  0  0  0  0  0  0  0  0
  148.7699  132.9029  156.8391 H   0  0  0  0  0  0  0  0  0  0  0  0
  147.2601  133.7931  156.6476 H   0  0  0  0  0  0  0  0  0  0  0  0
  147.3148  132.3585  157.6686 H   0  0  0  0  0  0  0  0  0  0  0  0
  148.8313  133.5089  159.2566 H   0  0  0  0  0  0  0  0  0  0  0  0
  149.9860  135.0769  157.7243 H   0  0  0  0  0  0  0  0  0  0  0  0
  148.4793  135.9211  157.4023 H   0  0  0  0  0  0  0  0  0  0  0  0
  152.9979  138.2304  160.2521 H   0  0  0  0  0  0  0  0  0  0  0  0
  148.5915  140.2172  155.9942 H   0  0  0  0  0  0  0  0  0  0  0  0
  152.0929  141.1875  156.4744 H   0  0  0  0  0  0  0  0  0  0  0  0
  150.5870  141.7482  155.7959 H   0  0  0  0  0  0  0  0  0  0  0  0
  149.4823  143.5669  157.1114 H   0  0  0  0  0  0  0  0  0  0  0  0
  150.8554  142.5051  159.9268 H   0  0  0  0  0  0  0  0  0  0  0  0
  151.6090  141.0694  159.2469 H   0  0  0  0  0  0  0  0  0  0  0  0
  153.1580  143.0135  160.3100 H   0  0  0  0  0  0  0  0  0  0  0  0
  153.6548  142.2947  158.7692 H   0  0  0  0  0  0  0  0  0  0  0  0
  152.6817  143.4813  156.6537 H   0  0  0  0  0  0  0  0  0  0  0  0
  151.4068  144.6401  157.0132 H   0  0  0  0  0  0  0  0  0  0  0  0
  148.2259  137.1909  160.8715 H   0  0  0  0  0  0  0  0  0  0  0  0
  147.4380  137.2131  159.3060 H   0  0  0  0  0  0  0  0  0  0  0  0
  147.4338  133.5199  161.5172 H   0  0  0  0  0  0  0  0  0  0  0  0
  148.8972  134.5007  161.5003 H   0  0  0  0  0  0  0  0  0  0  0  0
  147.1987  134.6120  163.6208 H   0  0  0  0  0  0  0  0  0  0  0  0
  147.9208  136.1053  163.0182 H   0  0  0  0  0  0  0  0  0  0  0  0
  145.1828  134.7494  160.8470 H   0  0  0  0  0  0  0  0  0  0  0  0
  144.9304  136.7479  159.3159 H   0  0  0  0  0  0  0  0  0  0  0  0
  145.5675  137.7779  160.6016 H   0  0  0  0  0  0  0  0  0  0  0  0
  144.0556  136.9147  160.8344 H   0  0  0  0  0  0  0  0  0  0  0  0
  1  2  1  0  0  0  0
  1 29  1  0  0  0  0
  1 30  1  0  0  0  0
  1 31  1  0  0  0  0
  2 28  1  0  0  0  0
  2  3  1  0  0  0  0
  2 32  1  0  0  0  0
  3  4  1  0  0  0  0
  3 33  1  0  0  0  0
  3 34  1  0  0  0  0
  4  5  1  0  0  0  0
  4 21  1  0  0  0  0
  5 10  1  0  0  0  0
  5  6  2  0  0  0  0
  6  7  1  0  0  0  0
  7  8  2  0  0  0  0
  7 35  1  0  0  0  0
  8  9  1  0  0  0  0
  9 13  1  0  0  0  0
  9 10  2  0  0  0  0
 10 11  1  0  0  0  0
 11 12  2  0  0  0  0
 12 13  1  0  0  0  0
 12 36  1  0  0  0  0
 13 14  1  0  0  0  0
 14 15  1  0  0  0  0
 14 37  1  0  0  0  0
 14 38  1  0  0  0  0
 15 20  1  0  0  0  0
 15 16  1  0  0  0  0
 15 17  1  0  0  0  0
 16 39  1  0  0  0  0
 17 18  1  0  0  0  0
 17 40  1  0  0  0  0
 17 41  1  0  0  0  0
 18 19  1  0  0  0  0
 18 42  1  0  0  0  0
 18 43  1  0  0  0  0
 19 20  1  0  0  0  0
 20 44  1  0  0  0  0
 20 45  1  0  0  0  0
 21 22  1  0  0  0  0
 21 46  1  0  0  0  0
 21 47  1  0  0  0  0
 22 26  1  0  0  0  0
 22 23  1  0  0  0  0
 22 28  1  0  0  0  0
 23 24  1  0  0  0  0
 23 48  1  0  0  0  0
 23 49  1  0  0  0  0
 24 25  1  0  0  0  0
 24 50  1  0  0  0  0
 24 51  1  0  0  0  0
 25 26  1  0  0  0  0
 26 27  1  0  0  0  0
 26 52  1  0  0  0  0
 27 53  1  0  0  0  0
 27 54  1  0  0  0  0
 27 55  1  0  0  0  0
M  END
> <s_m_source_file>
AV-unprocessed.smi

> <i_m_source_file_index>
281

> <i_lp_mmshare_version>
43012

> <i_f3d_flags>
0

> <s_epik_input>
W0NIM11bQ0BASF0xT1tDSDJdW0NIMl1bQ0BAXTEyW0NIMl1OKFtDSDJdW0NASF0oTzIpW0NIM10pYyhuW2NIXW4zKWMoYzM0KW5bY0hdbjRbQ0gyXVtDQEBdNShbT0hdKVtDSDJdW0NIMl1PW0NIMl01

> <s_epik_cmdline>
J2VwaWtfcHl0aG9uJywgJy1waCcsICc3LjAnLCAnLXRuJywgJzgnLCAnLW1hJywgJzIwMCcsICctbWV0YWxfYmluZGluZycsICctaW1hZScsICc8aW5maWxlLm1hZT4nLCAnLW9tYWUnLCAnPG91dGZpbGUubWFlPic=

> <r_lp_tautomer_probability>
1

> <r_epik_Ionization_Penalty>
0.00571331

> <r_epik_Ionization_Penalty_Charging>
0

> <r_epik_Ionization_Penalty_Neutral>
0.00571331

> <r_epik_State_Penalty>
0.00399586

> <r_epik_Charging_Adjusted_Penalty>
0.00399586

> <i_epik_Tot_Q>
0

> <i_epik_Tot_abs_Q>
0

> <r_epik_Metal_State_Penalty>
-0

> <b_epik_Metal_Only>
0

> <s_lp_Force_Field>
OPLS_2005

> <r_lp_Energy>
56.3854

> <b_lp_Chiralities_Consistent>
1

> <s_lp_Variant>
AV-unprocessed.smi:281-6

> <Gold.Version>
5.8.1

> <Gold.Id.Protein>
6NUR|6NUR_protein|mol2

> <Gold.PLP.Fitness>
43.3041

> <Gold.PLP.PLP>
-38.0110

> <Gold.PLP.part.hbond>
-2.5211

> <Gold.PLP.part.metal>
0.0000

> <Gold.PLP.part.buried>
-8.5873

> <Gold.PLP.part.nonpolar>
-27.7670

> <Gold.PLP.part.repulsive>
0.0065

> <Gold.PLP.ligand.clash>
0.0000

> <Gold.PLP.ligand.torsion>
0.3042

> <Gold.PLP.Chemscore.Hbond>
1.9263

> <Gold.PLP.Chemscore.CHOScore>
0.0000

> <Gold.PLP.Chemscore.Metal>
0.0000

> <Gold.Chemscore.Hbonds>
donor molecule, donor type, donor heavy atom, donor atom, acceptor molecule, acceptor atom, score
      L1  H    16    39       P1  8028  1.00
      P1  H  6896  6909       L1     6  0.66

> <Gold.PLP.Chemscore.Internal.Correction>
0.1228

> <Gold.Rescore>
     Score         DG    S(hbond)    S(metal)    S(lipo)     H(rot)  DE(clash)    DE(int)     intcor
     14.14     -14.83       1.67        0.00      78.02       2.09       0.31       0.38       ----

> <Gold.Chemscore.Fitness>
14.1395

> <Gold.Chemscore.DG>
-14.8280

> <Gold.Chemscore.ZeroCoef>
-5.4800

> <Gold.Chemscore.Hbond>
1.6698

> <Gold.Chemscore.Metal>
0.0000

> <Gold.Chemscore.Lipo>
78.0183

> <Gold.Chemscore.Internal_Hbond>
0.0000

> <Gold.Chemscore.DEClash>
0.3114

> <Gold.Chemscore.DEInternal>
0.3771

> <Gold.Chemscore.Rot>
2.0927

> <Gold.Chemscore.Internal.Correction>
   9.000000E+99

> <Gold.Chemscore.Hbonds>
donor molecule, donor type, donor heavy atom, donor atom, acceptor molecule, acceptor atom, score
      L1  H    16    39       P1  8028  0.85
      P1  H  6896  6909       L1     6  0.11

> <Gold.Chemscore.Hbond.Weighted>
-5.5772

> <Gold.Chemscore.Metal.Weighted>
-0.0000

> <Gold.Chemscore.Lipo.Weighted>
-9.1281

> <Gold.Chemscore.Internal_Hbond.Weighted>
0.0000

> <Gold.Chemscore.DEClash.Weighted>
0.3114

> <Gold.Chemscore.DEInternal.Weighted>
0.3771

> <Gold.Chemscore.Rot.Weighted>
5.3573

> <Gold.Chemscore.Internal.Correction.Weighted>
   9.000000E+99

> <Gold.Protein.RotatedTorsions>
[ 6907 6896 6895 6894 ] final  115.22 input  -60.11 | X-H torsion
[ 7974 7965 7964 7962 ] final -144.09 input  175.53 | X-H torsion
[ 8008 7997 7996 7995 ] final  104.21 input   59.86 | X-H torsion
[ 10167 10162 10161 10158 ] final -102.48 input  -65.29 | X-H torsion
[ 10718 10713 10712 10709 ] final -115.77 input   66.30 | X-H torsion
[ 10763 10752 10751 10750 ] final   -7.40 input  -60.55 | X-H torsion
[ 11005 11000 10999 10996 ] final -115.35 input  -57.11 | X-H torsion

> <Gold.Protein.ActiveResidues>
 VAL166  LYS551  ARG553  GLY616  TRP617  ASP618  TYR619  PRO620  LYS621  CYS622 
 ASP623  PHE694  ASN695  SER759  ASP760  ASP761  ALA762  ILE779  LEU786  VAL792 
 PHE793  MET794  SER795  GLU796  ALA797  LYS798  CYS799  TRP800  GLU811  SER814 

> <Gold.Protein.RotatedAtoms>
  152.4755  133.8128  159.7012 H   0  0  0  0  0  0  0  0  0  0  0  0  # atno 6907 bound_to 6896
  150.8769  133.7417  159.2950 H   0  0  0  0  0  0  0  0  0  0  0  0  # atno 6908 bound_to 6896
  151.4933  135.1062  159.9861 H   0  0  0  0  0  0  0  0  0  0  0  0  # atno 6909 bound_to 6896
  144.8322  140.5753  143.5507 H   0  0  0  0  0  0  0  0  0  0  0  0  # atno 7974 bound_to 7965
  156.1553  140.3151  155.8715 H   0  0  0  0  0  0  0  0  0  0  0  0  # atno 8008 bound_to 7997
  155.3891  140.0492  157.3058 H   0  0  0  0  0  0  0  0  0  0  0  0  # atno 8009 bound_to 7997
  154.5095  140.2159  155.9195 H   0  0  0  0  0  0  0  0  0  0  0  0  # atno 8010 bound_to 7997
  140.2302  143.3612  152.0893 H   0  0  0  0  0  0  0  0  0  0  0  0  # atno 10167 bound_to 10162
  156.0918  130.6099  150.8949 H   0  0  0  0  0  0  0  0  0  0  0  0  # atno 10718 bound_to 10713
  153.4258  135.7011  153.6263 H   0  0  0  0  0  0  0  0  0  0  0  0  # atno 10763 bound_to 10752
  153.4698  135.3717  155.2385 H   0  0  0  0  0  0  0  0  0  0  0  0  # atno 10764 bound_to 10752
  154.8724  135.4040  154.3634 H   0  0  0  0  0  0  0  0  0  0  0  0  # atno 10765 bound_to 10752
  141.0493  133.9712  157.2863 H   0  0  0  0  0  0  0  0  0  0  0  0  # atno 11005 bound_to 11000
  145.4870  139.1491  143.3730 LP  0  0  0  0  0  0  0  0  0  0  0  0  # atno 17320 bound_to 7965
  146.2624  140.5008  142.8848 LP  0  0  0  0  0  0  0  0  0  0  0  0  # atno 17321 bound_to 7965
  139.5113  144.6898  151.5791 LP  0  0  0  0  0  0  0  0  0  0  0  0  # atno 17342 bound_to 10162
  140.6191  143.9293  150.6511 LP  0  0  0  0  0  0  0  0  0  0  0  0  # atno 17343 bound_to 10162
  157.6069  131.0938  150.8863 LP  0  0  0  0  0  0  0  0  0  0  0  0  # atno 17370 bound_to 10713
  156.9010  130.5246  149.5283 LP  0  0  0  0  0  0  0  0  0  0  0  0  # atno 17371 bound_to 10713
  139.9337  135.0198  156.8486 LP  0  0  0  0  0  0  0  0  0  0  0  0  # atno 17394 bound_to 11000
  140.6086  134.0104  155.7567 LP  0  0  0  0  0  0  0  0  0  0  0  0  # atno 17395 bound_to 11000

$$$$
