AV-unprocessed.smi:697|AV-procd|sdf|3391|dock8
  -GOLD-   22720 0373D 1   1.00000     0.00000
 Structure written by MMmdl.
 44 45  0  0  0  0  0  0  0  0  1 V2000
  149.0707  141.3848  157.7533 C   0  0  0  0  0  0  0  0  0  0  0  0
  148.0348  141.7895  156.8668 O   0  0  0  0  0  0  0  0  0  0  0  0
  148.0168  141.1962  155.5611 C   0  0  1  0  0  0  0  0  0  0  0  0
  149.3666  141.3956  154.8599 C   0  0  0  0  0  0  0  0  0  0  0  0
  147.4000  139.7858  155.6271 C   0  0  0  0  0  0  0  0  0  0  0  0
  146.0318  140.4612  155.5581 C   0  0  2  0  0  0  0  0  0  0  0  0
  145.0741  139.7101  154.7534 N   0  0  0  0  0  0  0  0  0  0  0  0
  144.9650  138.3749  154.7564 C   0  0  0  0  0  0  0  0  0  0  0  0
  145.6856  137.6429  155.4341 O   0  0  0  0  0  0  0  0  0  0  0  0
  143.9835  137.9729  153.9279 N   0  0  0  0  0  0  0  0  0  0  0  0
  143.5103  136.6763  153.6636 C   0  0  0  0  0  0  0  0  0  0  0  0
  144.0009  135.8461  152.7059 C   0  0  0  0  0  0  0  0  0  0  0  0
  143.4677  134.5104  152.4954 C   0  0  0  0  0  0  0  0  0  0  0  0
  143.9684  133.6234  151.3662 C   0  0  0  0  0  0  0  0  0  0  0  0
  143.0977  132.6518  151.0903 F   0  0  0  0  0  0  0  0  0  0  0  0
  144.1701  134.3323  150.2552 F   0  0  0  0  0  0  0  0  0  0  0  0
  145.1243  133.0589  151.7128 F   0  0  0  0  0  0  0  0  0  0  0  0
  142.4529  134.1359  153.2959 C   0  0  0  0  0  0  0  0  0  0  0  0
  141.9585  134.9737  154.2976 N   0  0  0  0  0  0  0  0  0  0  0  0
  142.4179  136.2218  154.5402 C   0  0  0  0  0  0  0  0  0  0  0  0
  141.9281  136.8983  155.4439 O   0  0  0  0  0  0  0  0  0  0  0  0
  146.7108  141.6502  154.8299 C   0  0  0  0  0  0  0  0  0  0  0  0
  146.1783  143.0440  155.1805 C   0  0  0  0  0  0  0  0  0  0  0  0
  146.7453  141.5919  153.2906 C   0  0  0  0  0  0  0  0  0  0  0  0
  141.2082  134.6128  154.8693 H   0  0  0  0  0  0  0  0  0  0  0  0
  148.8658  141.7861  158.7455 H   0  0  0  0  0  0  0  0  0  0  0  0
  150.0395  141.7755  157.4429 H   0  0  0  0  0  0  0  0  0  0  0  0
  149.1423  140.3015  157.8432 H   0  0  0  0  0  0  0  0  0  0  0  0
  149.3444  141.0430  153.8294 H   0  0  0  0  0  0  0  0  0  0  0  0
  150.1674  140.8423  155.3500 H   0  0  0  0  0  0  0  0  0  0  0  0
  149.6493  142.4481  154.8390 H   0  0  0  0  0  0  0  0  0  0  0  0
  147.6332  139.1800  154.7496 H   0  0  0  0  0  0  0  0  0  0  0  0
  147.5763  139.2260  156.5450 H   0  0  0  0  0  0  0  0  0  0  0  0
  145.6628  140.7250  156.5522 H   0  0  0  0  0  0  0  0  0  0  0  0
  144.4507  140.2427  154.1647 H   0  0  0  0  0  0  0  0  0  0  0  0
  143.5244  138.6991  153.3972 H   0  0  0  0  0  0  0  0  0  0  0  0
  144.8221  136.1443  152.0756 H   0  0  0  0  0  0  0  0  0  0  0  0
  141.9446  133.1852  153.2299 H   0  0  0  0  0  0  0  0  0  0  0  0
  145.2313  143.2499  154.6806 H   0  0  0  0  0  0  0  0  0  0  0  0
  146.8821  143.8241  154.8892 H   0  0  0  0  0  0  0  0  0  0  0  0
  145.9953  143.1544  156.2495 H   0  0  0  0  0  0  0  0  0  0  0  0
  145.7568  141.7522  152.8586 H   0  0  0  0  0  0  0  0  0  0  0  0
  147.1002  140.6294  152.9223 H   0  0  0  0  0  0  0  0  0  0  0  0
  147.4034  142.3566  152.8770 H   0  0  0  0  0  0  0  0  0  0  0  0
  1  2  1  0  0  0  0
  1 26  1  0  0  0  0
  1 27  1  0  0  0  0
  1 28  1  0  0  0  0
  2  3  1  0  0  0  0
  3 22  1  0  0  0  0
  3  4  1  0  0  0  0
  3  5  1  0  0  0  0
  4 29  1  0  0  0  0
  4 30  1  0  0  0  0
  4 31  1  0  0  0  0
  5  6  1  0  0  0  0
  5 32  1  0  0  0  0
  5 33  1  0  0  0  0
  6  7  1  0  0  0  0
  6 22  1  0  0  0  0
  6 34  1  0  0  0  0
  7  8  1  0  0  0  0
  7 35  1  0  0  0  0
  8  9  2  0  0  0  0
  8 10  1  0  0  0  0
 10 11  1  0  0  0  0
 10 36  1  0  0  0  0
 11 20  1  0  0  0  0
 11 12  2  0  0  0  0
 12 13  1  0  0  0  0
 12 37  1  0  0  0  0
 13 14  1  0  0  0  0
 13 18  2  0  0  0  0
 14 15  1  0  0  0  0
 14 16  1  0  0  0  0
 14 17  1  0  0  0  0
 18 19  1  0  0  0  0
 18 38  1  0  0  0  0
 19 25  1  0  0  0  0
 19 20  1  0  0  0  0
 20 21  2  0  0  0  0
 22 23  1  0  0  0  0
 22 24  1  0  0  0  0
 23 39  1  0  0  0  0
 23 40  1  0  0  0  0
 23 41  1  0  0  0  0
 24 42  1  0  0  0  0
 24 43  1  0  0  0  0
 24 44  1  0  0  0  0
M  END
> <s_m_source_file>
AV-unprocessed.smi

> <i_m_source_file_index>
697

> <i_lp_mmshare_version>
43012

> <i_f3d_flags>
0

> <s_epik_input>
W0NIM11PW0NAQF0xKFtDSDNdKVtDSDJdW0NASF0oQzEoW0NIM10pW0NIM10pW05IXUMoPU8pW05IXWMyW2NIXWMoQyhGKShGKUYpW2NIXVtuSF1jMj1P

> <s_epik_cmdline>
J2VwaWtfcHl0aG9uJywgJy1waCcsICc3LjAnLCAnLXRuJywgJzgnLCAnLW1hJywgJzIwMCcsICctbWV0YWxfYmluZGluZycsICctaW1hZScsICc8aW5maWxlLm1hZT4nLCAnLW9tYWUnLCAnPG91dGZpbGUubWFlPic=

> <r_lp_tautomer_probability>
1

> <r_epik_Ionization_Penalty>
0.0036482

> <r_epik_Ionization_Penalty_Charging>
0.00362828

> <r_epik_Ionization_Penalty_Neutral>
1.99208e-05

> <r_epik_State_Penalty>
-0

> <r_epik_Charging_Adjusted_Penalty>
0.00362828

> <i_epik_Tot_Q>
0

> <i_epik_Tot_abs_Q>
0

> <r_epik_Metal_State_Penalty>
0.369362

> <b_epik_Metal_Only>
0

> <s_lp_Force_Field>
OPLS_2005

> <r_lp_Energy>
34.6264

> <b_lp_Chiralities_Consistent>
1

> <s_lp_Variant>
AV-unprocessed.smi:697-3

> <Gold.Version>
5.8.1

> <Gold.Id.Protein>
6NUR|6NUR_protein|mol2

> <Gold.PLP.Fitness>
36.4562

> <Gold.PLP.PLP>
-30.7246

> <Gold.PLP.part.hbond>
-2.7443

> <Gold.PLP.part.metal>
0.0000

> <Gold.PLP.part.buried>
-2.9821

> <Gold.PLP.part.nonpolar>
-25.4573

> <Gold.PLP.part.repulsive>
0.2229

> <Gold.PLP.ligand.clash>
0.5257

> <Gold.PLP.ligand.torsion>
1.8354

> <Gold.PLP.Chemscore.Hbond>
2.5240

> <Gold.PLP.Chemscore.CHOScore>
0.6463

> <Gold.PLP.Chemscore.Metal>
0.0000

> <Gold.Chemscore.Hbonds>
donor molecule, donor type, donor heavy atom, donor atom, acceptor molecule, acceptor atom, score
      L1  H     7    35       P1 10175  0.98
      L1  H    10    36       P1 10175  0.98
      L1  H    19    25       P1 11000  0.99
      L1  C    18    38       P1 10957  0.66

> <Gold.PLP.Chemscore.Internal.Correction>
0.4174

> <Gold.Rescore>
     Score         DG    S(hbond)    S(metal)    S(lipo)     H(rot)  DE(clash)    DE(int)     intcor
     14.41     -18.60       2.88        0.00      58.44       1.31       1.38       2.81       ----

> <Gold.Chemscore.Fitness>
14.4095

> <Gold.Chemscore.DG>
-18.5999

> <Gold.Chemscore.ZeroCoef>
-5.4800

> <Gold.Chemscore.Hbond>
2.8822

> <Gold.Chemscore.Metal>
0.0000

> <Gold.Chemscore.Lipo>
58.4401

> <Gold.Chemscore.Internal_Hbond>
0.0000

> <Gold.Chemscore.DEClash>
1.3840

> <Gold.Chemscore.DEInternal>
2.8064

> <Gold.Chemscore.Rot>
1.3062

> <Gold.Chemscore.Internal.Correction>
   9.000000E+99

> <Gold.Chemscore.Hbonds>
donor molecule, donor type, donor heavy atom, donor atom, acceptor molecule, acceptor atom, score
      L1  H     7    35       P1 10175  0.93
      L1  H    10    36       P1 10175  0.91
      L1  H    19    25       P1 11000  0.87

> <Gold.Chemscore.Hbond.Weighted>
-9.6264

> <Gold.Chemscore.Metal.Weighted>
-0.0000

> <Gold.Chemscore.Lipo.Weighted>
-6.8375

> <Gold.Chemscore.Internal_Hbond.Weighted>
0.0000

> <Gold.Chemscore.DEClash.Weighted>
1.3840

> <Gold.Chemscore.DEInternal.Weighted>
2.8064

> <Gold.Chemscore.Rot.Weighted>
3.3440

> <Gold.Chemscore.Internal.Correction.Weighted>
   9.000000E+99

> <Gold.Protein.RotatedTorsions>
[ 6907 6896 6895 6894 ] final   23.95 input  -60.11 | X-H torsion
[ 7974 7965 7964 7962 ] final   95.00 input  175.53 | X-H torsion
[ 8008 7997 7996 7995 ] final  174.46 input   59.86 | X-H torsion
[ 10167 10162 10161 10158 ] final    6.78 input  -65.29 | X-H torsion
[ 10718 10713 10712 10709 ] final -114.03 input   66.30 | X-H torsion
[ 10763 10752 10751 10750 ] final   49.72 input  -60.55 | X-H torsion
[ 11005 11000 10999 10996 ] final -150.28 input  -57.11 | X-H torsion

> <Gold.Protein.ActiveResidues>
 VAL166  LYS551  ARG553  GLY616  TRP617  ASP618  TYR619  PRO620  LYS621  CYS622 
 ASP623  PHE694  ASN695  SER759  ASP760  ASP761  ALA762  ILE779  LEU786  VAL792 
 PHE793  MET794  SER795  GLU796  ALA797  LYS798  CYS799  TRP800  GLU811  SER814 

> <Gold.Protein.RotatedAtoms>
  151.9501  135.0173  160.0541 H   0  0  0  0  0  0  0  0  0  0  0  0  # atno 6907 bound_to 6896
  152.1961  133.4802  159.5042 H   0  0  0  0  0  0  0  0  0  0  0  0  # atno 6908 bound_to 6896
  150.6945  134.1568  159.4204 H   0  0  0  0  0  0  0  0  0  0  0  0  # atno 6909 bound_to 6896
  145.4581  139.2288  143.3003 H   0  0  0  0  0  0  0  0  0  0  0  0  # atno 7974 bound_to 7965
  156.0972  140.1434  156.9515 H   0  0  0  0  0  0  0  0  0  0  0  0  # atno 8008 bound_to 7997
  154.4679  140.0920  156.7114 H   0  0  0  0  0  0  0  0  0  0  0  0  # atno 8009 bound_to 7997
  155.4821  140.3445  155.4343 H   0  0  0  0  0  0  0  0  0  0  0  0  # atno 8010 bound_to 7997
  140.6409  143.7777  150.7426 H   0  0  0  0  0  0  0  0  0  0  0  0  # atno 10167 bound_to 10162
  156.0804  130.6005  150.8721 H   0  0  0  0  0  0  0  0  0  0  0  0  # atno 10718 bound_to 10713
  152.9786  135.5902  154.4135 H   0  0  0  0  0  0  0  0  0  0  0  0  # atno 10763 bound_to 10752
  154.3768  135.2767  155.2237 H   0  0  0  0  0  0  0  0  0  0  0  0  # atno 10764 bound_to 10752
  154.4168  135.6068  153.6040 H   0  0  0  0  0  0  0  0  0  0  0  0  # atno 10765 bound_to 10752
  140.7418  134.3505  157.5146 H   0  0  0  0  0  0  0  0  0  0  0  0  # atno 11005 bound_to 11000
  146.2467  140.5347  142.8911 LP  0  0  0  0  0  0  0  0  0  0  0  0  # atno 17320 bound_to 7965
  144.8020  140.6230  143.6472 LP  0  0  0  0  0  0  0  0  0  0  0  0  # atno 17321 bound_to 7965
  140.1408  143.4443  152.2195 LP  0  0  0  0  0  0  0  0  0  0  0  0  # atno 17342 bound_to 10162
  139.5618  144.7410  151.4134 LP  0  0  0  0  0  0  0  0  0  0  0  0  # atno 17343 bound_to 10162
  157.5918  131.0944  150.9106 LP  0  0  0  0  0  0  0  0  0  0  0  0  # atno 17370 bound_to 10713
  156.9280  130.5339  149.5279 LP  0  0  0  0  0  0  0  0  0  0  0  0  # atno 17371 bound_to 10713
  139.8804  134.9086  156.2971 LP  0  0  0  0  0  0  0  0  0  0  0  0  # atno 17394 bound_to 11000
  140.9830  133.7256  156.0699 LP  0  0  0  0  0  0  0  0  0  0  0  0  # atno 17395 bound_to 11000

$$$$
