AV-unprocessed.smi:2467|AV-procd|sdf|9728|dock9
  -GOLD-   2272013373D 1   1.00000     0.00000
 Structure written by MMmdl.
 46 47  0  0  0  0  0  0  0  0  1 V2000
  147.2930  141.7030  155.1705 C   0  0  0  0  0  0  0  0  0  0  0  0
  147.6956  141.3429  153.7320 C   0  0  0  0  0  0  0  0  0  0  0  0
  148.3835  139.9617  153.5669 C   0  0  0  0  0  0  0  0  0  0  0  0
  147.3223  138.8652  153.2772 C   0  0  0  0  0  0  0  0  0  0  0  0
  146.7332  138.8550  151.8604 C   0  0  0  0  0  0  0  0  0  0  0  0
  149.2661  139.5974  154.7984 C   0  0  1  0  0  0  0  0  0  0  0  0
  149.6127  138.0887  154.8725 C   0  0  0  0  0  0  0  0  0  0  0  0
  150.4471  137.7625  156.1209 C   0  0  2  0  0  0  0  0  0  0  0  0
  149.6159  137.9006  157.3132 N   0  0  0  0  0  0  0  0  0  0  0  0
  149.4219  136.9776  158.2672 C   0  0  0  0  0  0  0  0  0  0  0  0
  149.9572  135.8707  158.2409 O   0  0  0  0  0  0  0  0  0  0  0  0
  148.5973  137.3337  159.2762 N   0  0  0  0  0  0  0  0  0  0  0  0
  148.1667  136.6260  160.4393 C   0  0  0  0  0  0  0  0  0  0  0  0
  148.2356  135.2185  160.3283 C   0  0  0  0  0  0  0  0  0  0  0  0
  147.8343  134.4135  161.4121 C   0  0  0  0  0  0  0  0  0  0  0  0
  147.3719  135.0361  162.5850 C   0  0  0  0  0  0  0  0  0  0  0  0
  147.3333  136.4415  162.6170 C   0  0  0  0  0  0  0  0  0  0  0  0
  147.7179  137.2132  161.5788 N   0  0  0  0  0  0  0  0  0  0  0  0
  151.6729  138.6904  156.1712 C   0  0  0  0  0  0  0  0  0  0  0  0
  151.2668  140.1602  155.9761 C   0  0  0  0  0  0  0  0  0  0  0  0
  150.5099  140.2996  154.7773 O   0  0  0  0  0  0  0  0  0  0  0  0
  146.6881  142.6099  155.1814 H   0  0  0  0  0  0  0  0  0  0  0  0
  148.1591  141.8914  155.8039 H   0  0  0  0  0  0  0  0  0  0  0  0
  146.7025  140.9083  155.6268 H   0  0  0  0  0  0  0  0  0  0  0  0
  146.7766  141.3633  153.1460 H   0  0  0  0  0  0  0  0  0  0  0  0
  148.3336  142.1281  153.3242 H   0  0  0  0  0  0  0  0  0  0  0  0
  149.0362  140.0435  152.6965 H   0  0  0  0  0  0  0  0  0  0  0  0
  147.7447  137.8824  153.4903 H   0  0  0  0  0  0  0  0  0  0  0  0
  146.4828  138.9839  153.9603 H   0  0  0  0  0  0  0  0  0  0  0  0
  145.9183  138.1343  151.7911 H   0  0  0  0  0  0  0  0  0  0  0  0
  147.4759  138.5666  151.1170 H   0  0  0  0  0  0  0  0  0  0  0  0
  146.3323  139.8320  151.5903 H   0  0  0  0  0  0  0  0  0  0  0  0
  148.7313  139.9087  155.6975 H   0  0  0  0  0  0  0  0  0  0  0  0
  148.7209  137.4655  154.8599 H   0  0  0  0  0  0  0  0  0  0  0  0
  150.1798  137.8101  153.9832 H   0  0  0  0  0  0  0  0  0  0  0  0
  150.7830  136.7262  156.0553 H   0  0  0  0  0  0  0  0  0  0  0  0
  149.1345  138.7823  157.4233 H   0  0  0  0  0  0  0  0  0  0  0  0
  148.2242  138.2687  159.1971 H   0  0  0  0  0  0  0  0  0  0  0  0
  148.5931  134.7541  159.4204 H   0  0  0  0  0  0  0  0  0  0  0  0
  147.8809  133.3367  161.3439 H   0  0  0  0  0  0  0  0  0  0  0  0
  147.0558  134.4528  163.4370 H   0  0  0  0  0  0  0  0  0  0  0  0
  146.9850  136.9614  163.4972 H   0  0  0  0  0  0  0  0  0  0  0  0
  152.2197  138.5668  157.1067 H   0  0  0  0  0  0  0  0  0  0  0  0
  152.3634  138.4086  155.3755 H   0  0  0  0  0  0  0  0  0  0  0  0
  150.6935  140.5260  156.8293 H   0  0  0  0  0  0  0  0  0  0  0  0
  152.1568  140.7852  155.9037 H   0  0  0  0  0  0  0  0  0  0  0  0
  1  2  1  0  0  0  0
  1 22  1  0  0  0  0
  1 23  1  0  0  0  0
  1 24  1  0  0  0  0
  2  3  1  0  0  0  0
  2 25  1  0  0  0  0
  2 26  1  0  0  0  0
  3  4  1  0  0  0  0
  3  6  1  0  0  0  0
  3 27  1  0  0  0  0
  4  5  1  0  0  0  0
  4 28  1  0  0  0  0
  4 29  1  0  0  0  0
  5 30  1  0  0  0  0
  5 31  1  0  0  0  0
  5 32  1  0  0  0  0
  6 21  1  0  0  0  0
  6  7  1  0  0  0  0
  6 33  1  0  0  0  0
  7  8  1  0  0  0  0
  7 34  1  0  0  0  0
  7 35  1  0  0  0  0
  8  9  1  0  0  0  0
  8 19  1  0  0  0  0
  8 36  1  0  0  0  0
  9 10  1  0  0  0  0
  9 37  1  0  0  0  0
 10 11  2  0  0  0  0
 10 12  1  0  0  0  0
 12 13  1  0  0  0  0
 12 38  1  0  0  0  0
 13 18  1  0  0  0  0
 13 14  2  0  0  0  0
 14 15  1  0  0  0  0
 14 39  1  0  0  0  0
 15 16  2  0  0  0  0
 15 40  1  0  0  0  0
 16 17  1  0  0  0  0
 16 41  1  0  0  0  0
 17 18  2  0  0  0  0
 17 42  1  0  0  0  0
 19 20  1  0  0  0  0
 19 43  1  0  0  0  0
 19 44  1  0  0  0  0
 20 21  1  0  0  0  0
 20 45  1  0  0  0  0
 20 46  1  0  0  0  0
M  END
> <s_m_source_file>
AV-unprocessed.smi

> <i_m_source_file_index>
2467

> <i_lp_mmshare_version>
43012

> <i_f3d_flags>
0

> <s_epik_input>
W0NIM11bQ0gyXVtDSF0oW0NIMl1bQ0gzXSlbQ0BASF0xW0NIMl1bQ0BIXShbQ0gyXVtDSDJdTzEpW05IXUMoPU8pW05IXWMyW2NIXVtjSF1bY0hdW2NIXW4y

> <s_epik_cmdline>
J2VwaWtfcHl0aG9uJywgJy1waCcsICc3LjAnLCAnLXRuJywgJzgnLCAnLW1hJywgJzIwMCcsICctbWV0YWxfYmluZGluZycsICctaW1hZScsICc8aW5maWxlLm1hZT4nLCAnLW9tYWUnLCAnPG91dGZpbGUubWFlPic=

> <r_lp_tautomer_probability>
1

> <r_epik_Ionization_Penalty>
4.80427e-05

> <r_epik_Ionization_Penalty_Charging>
0

> <r_epik_Ionization_Penalty_Neutral>
4.80427e-05

> <r_epik_State_Penalty>
-0

> <r_epik_Charging_Adjusted_Penalty>
0

> <i_epik_Tot_Q>
0

> <i_epik_Tot_abs_Q>
0

> <r_epik_Metal_State_Penalty>
-0

> <b_epik_Metal_Only>
0

> <s_lp_Force_Field>
OPLS_2005

> <r_lp_Energy>
20.8854

> <b_lp_Chiralities_Consistent>
1

> <s_lp_Variant>
AV-unprocessed.smi:2467-4

> <Gold.Version>
5.8.1

> <Gold.Id.Protein>
6NUR|6NUR_protein|mol2

> <Gold.PLP.Fitness>
48.4644

> <Gold.PLP.PLP>
-39.1094

> <Gold.PLP.part.hbond>
-4.0000

> <Gold.PLP.part.metal>
0.0000

> <Gold.PLP.part.buried>
-0.0663

> <Gold.PLP.part.nonpolar>
-35.1234

> <Gold.PLP.part.repulsive>
0.2879

> <Gold.PLP.ligand.clash>
0.0000

> <Gold.PLP.ligand.torsion>
1.0203

> <Gold.PLP.Chemscore.Hbond>
3.7840

> <Gold.PLP.Chemscore.CHOScore>
0.0000

> <Gold.PLP.Chemscore.Metal>
0.0000

> <Gold.Chemscore.Hbonds>
donor molecule, donor type, donor heavy atom, donor atom, acceptor molecule, acceptor atom, score
      P1  H  6896  6907       L1    11  0.99
      P1  H  6931  6943       L1    18  1.00
      P1  H  6934  6947       L1    18  0.74
      P1  H  7989  7998       L1    21  1.00

> <Gold.PLP.Chemscore.Internal.Correction>
0.0435

> <Gold.Rescore>
     Score         DG    S(hbond)    S(metal)    S(lipo)     H(rot)  DE(clash)    DE(int)     intcor
     17.99     -22.22       2.75        0.00      97.01       1.49       1.57       2.65       ----

> <Gold.Chemscore.Fitness>
17.9946

> <Gold.Chemscore.DG>
-22.2177

> <Gold.Chemscore.ZeroCoef>
-5.4800

> <Gold.Chemscore.Hbond>
2.7516

> <Gold.Chemscore.Metal>
0.0000

> <Gold.Chemscore.Lipo>
97.0126

> <Gold.Chemscore.Internal_Hbond>
0.0000

> <Gold.Chemscore.DEClash>
1.5725

> <Gold.Chemscore.DEInternal>
2.6506

> <Gold.Chemscore.Rot>
1.4856

> <Gold.Chemscore.Internal.Correction>
   9.000000E+99

> <Gold.Chemscore.Hbonds>
donor molecule, donor type, donor heavy atom, donor atom, acceptor molecule, acceptor atom, score
      P1  H  6896  6907       L1    11  0.93
      P1  H  6931  6943       L1    18  0.22
      P1  H  6934  6947       L1    18  0.29
      P1  H  7989  7998       L1    21  0.65

> <Gold.Chemscore.Hbond.Weighted>
-9.1904

> <Gold.Chemscore.Metal.Weighted>
-0.0000

> <Gold.Chemscore.Lipo.Weighted>
-11.3505

> <Gold.Chemscore.Internal_Hbond.Weighted>
0.0000

> <Gold.Chemscore.DEClash.Weighted>
1.5725

> <Gold.Chemscore.DEInternal.Weighted>
2.6506

> <Gold.Chemscore.Rot.Weighted>
3.8031

> <Gold.Chemscore.Internal.Correction.Weighted>
   9.000000E+99

> <Gold.Protein.RotatedTorsions>
[ 6907 6896 6895 6894 ] final  -55.33 input  -60.11 | X-H torsion
[ 7974 7965 7964 7962 ] final -161.13 input  175.53 | X-H torsion
[ 8008 7997 7996 7995 ] final  -46.58 input   59.86 | X-H torsion
[ 10167 10162 10161 10158 ] final -128.89 input  -65.29 | X-H torsion
[ 10718 10713 10712 10709 ] final -175.48 input   66.30 | X-H torsion
[ 10763 10752 10751 10750 ] final  133.99 input  -60.55 | X-H torsion
[ 11005 11000 10999 10996 ] final -110.36 input  -57.11 | X-H torsion

> <Gold.Protein.ActiveResidues>
 VAL166  LYS551  ARG553  GLY616  TRP617  ASP618  TYR619  PRO620  LYS621  CYS622 
 ASP623  PHE694  ASN695  SER759  ASP760  ASP761  ALA762  ILE779  LEU786  VAL792 
 PHE793  MET794  SER795  GLU796  ALA797  LYS798  CYS799  TRP800  GLU811  SER814 

> <Gold.Protein.RotatedAtoms>
  150.8261  134.7493  159.6813 H   0  0  0  0  0  0  0  0  0  0  0  0  # atno 6907 bound_to 6896
  152.4372  134.5660  159.9917 H   0  0  0  0  0  0  0  0  0  0  0  0  # atno 6908 bound_to 6896
  151.5832  133.3337  159.3048 H   0  0  0  0  0  0  0  0  0  0  0  0  # atno 6909 bound_to 6896
  144.7402  140.3441  143.6129 H   0  0  0  0  0  0  0  0  0  0  0  0  # atno 7974 bound_to 7965
  154.4008  140.1368  156.4034 H   0  0  0  0  0  0  0  0  0  0  0  0  # atno 8008 bound_to 7997
  155.7802  140.3481  155.5273 H   0  0  0  0  0  0  0  0  0  0  0  0  # atno 8009 bound_to 7997
  155.8681  140.0967  157.1559 H   0  0  0  0  0  0  0  0  0  0  0  0  # atno 8010 bound_to 7997
  139.9455  143.6114  152.2491 H   0  0  0  0  0  0  0  0  0  0  0  0  # atno 10167 bound_to 10162
  156.8005  130.9550  151.3119 H   0  0  0  0  0  0  0  0  0  0  0  0  # atno 10718 bound_to 10713
  153.8162  135.3122  155.3406 H   0  0  0  0  0  0  0  0  0  0  0  0  # atno 10763 bound_to 10752
  154.8031  135.4714  154.0328 H   0  0  0  0  0  0  0  0  0  0  0  0  # atno 10764 bound_to 10752
  153.1722  135.6879  153.8681 H   0  0  0  0  0  0  0  0  0  0  0  0  # atno 10765 bound_to 10752
  141.0796  133.9242  157.2316 H   0  0  0  0  0  0  0  0  0  0  0  0  # atno 11005 bound_to 11000
  145.7344  139.1745  143.2412 LP  0  0  0  0  0  0  0  0  0  0  0  0  # atno 17320 bound_to 7965
  146.1182  140.7343  142.9470 LP  0  0  0  0  0  0  0  0  0  0  0  0  # atno 17321 bound_to 7965
  139.6670  144.7662  151.1855 LP  0  0  0  0  0  0  0  0  0  0  0  0  # atno 17342 bound_to 10162
  140.7598  143.5923  150.8784 LP  0  0  0  0  0  0  0  0  0  0  0  0  # atno 17343 bound_to 10162
  157.6556  130.8921  149.9722 LP  0  0  0  0  0  0  0  0  0  0  0  0  # atno 17370 bound_to 10713
  156.1104  130.3650  150.0059 LP  0  0  0  0  0  0  0  0  0  0  0  0  # atno 17371 bound_to 10713
  139.9609  135.0154  156.9259 LP  0  0  0  0  0  0  0  0  0  0  0  0  # atno 17394 bound_to 11000
  140.5497  134.0639  155.7365 LP  0  0  0  0  0  0  0  0  0  0  0  0  # atno 17395 bound_to 11000

$$$$
