AV-unprocessed.smi:1170|AV-procd|sdf|4941|dock2
  -GOLD-   22720 3523D 1   1.00000     0.00000
 Structure written by MMmdl.
 34 35  0  0  0  0  0  0  0  0  1 V2000
  152.4319  138.6808  154.6715 C   0  0  0  0  0  0  0  0  0  0  0  0
  151.2152  137.8700  155.1237 C   0  0  0  0  0  0  0  0  0  0  0  0
  150.1815  138.0190  154.1551 O   0  0  0  0  0  0  0  0  0  0  0  0
  149.3690  139.1354  154.2165 C   0  0  0  0  0  0  0  0  0  0  0  0
  149.8874  140.2843  154.7185 N   0  0  0  0  0  0  0  0  0  0  0  0
  149.0939  141.3729  154.7838 C   0  0  0  0  0  0  0  0  0  0  0  0
  147.7515  141.3735  154.3636 C   0  0  0  0  0  0  0  0  0  0  0  0
  147.2113  140.1832  153.8424 C   0  0  0  0  0  0  0  0  0  0  0  0
  148.0363  139.0355  153.7527 C   0  0  0  0  0  0  0  0  0  0  0  0
  147.5930  137.7777  153.2565 N   0  0  0  0  0  0  0  0  0  0  0  0
  146.3563  137.2525  153.2758 C   0  0  0  0  0  0  0  0  0  0  0  0
  145.3595  137.7903  153.7575 O   0  0  0  0  0  0  0  0  0  0  0  0
  146.3329  136.0520  152.6801 N   0  0  0  0  0  0  0  0  0  0  0  0
  145.1445  135.2247  152.5157 C   0  0  0  0  0  0  0  0  0  0  0  0
  145.0150  134.5492  151.1635 C   0  0  0  0  0  0  0  0  0  0  0  0
  144.1809  133.3007  150.9890 C   0  0  0  0  0  0  0  0  0  0  0  0
  145.6853  133.2190  150.9093 C   0  0  0  0  0  0  0  0  0  0  0  0
  153.2454  138.5974  155.3923 H   0  0  0  0  0  0  0  0  0  0  0  0
  152.1822  139.7372  154.5699 H   0  0  0  0  0  0  0  0  0  0  0  0
  152.8007  138.3287  153.7080 H   0  0  0  0  0  0  0  0  0  0  0  0
  151.4935  136.8201  155.2276 H   0  0  0  0  0  0  0  0  0  0  0  0
  150.8785  138.2291  156.0975 H   0  0  0  0  0  0  0  0  0  0  0  0
  149.5407  142.2686  155.1895 H   0  0  0  0  0  0  0  0  0  0  0  0
  147.1476  142.2652  154.4435 H   0  0  0  0  0  0  0  0  0  0  0  0
  146.1769  140.1735  153.5371 H   0  0  0  0  0  0  0  0  0  0  0  0
  148.2919  137.2435  152.7612 H   0  0  0  0  0  0  0  0  0  0  0  0
  147.1976  135.6867  152.3087 H   0  0  0  0  0  0  0  0  0  0  0  0
  145.1786  134.4477  153.2794 H   0  0  0  0  0  0  0  0  0  0  0  0
  144.2493  135.8144  152.7207 H   0  0  0  0  0  0  0  0  0  0  0  0
  145.0266  135.2425  150.3243 H   0  0  0  0  0  0  0  0  0  0  0  0
  143.7016  132.8824  151.8720 H   0  0  0  0  0  0  0  0  0  0  0  0
  143.6190  133.2002  150.0628 H   0  0  0  0  0  0  0  0  0  0  0  0
  146.1283  133.0579  149.9288 H   0  0  0  0  0  0  0  0  0  0  0  0
  146.2066  132.7470  151.7400 H   0  0  0  0  0  0  0  0  0  0  0  0
  1  2  1  0  0  0  0
  1 18  1  0  0  0  0
  1 19  1  0  0  0  0
  1 20  1  0  0  0  0
  2  3  1  0  0  0  0
  2 21  1  0  0  0  0
  2 22  1  0  0  0  0
  3  4  1  0  0  0  0
  4  9  1  0  0  0  0
  4  5  2  0  0  0  0
  5  6  1  0  0  0  0
  6  7  2  0  0  0  0
  6 23  1  0  0  0  0
  7  8  1  0  0  0  0
  7 24  1  0  0  0  0
  8  9  2  0  0  0  0
  8 25  1  0  0  0  0
  9 10  1  0  0  0  0
 10 11  1  0  0  0  0
 10 26  1  0  0  0  0
 11 12  2  0  0  0  0
 11 13  1  0  0  0  0
 13 14  1  0  0  0  0
 13 27  1  0  0  0  0
 14 15  1  0  0  0  0
 14 28  1  0  0  0  0
 14 29  1  0  0  0  0
 15 17  1  0  0  0  0
 15 16  1  0  0  0  0
 15 30  1  0  0  0  0
 16 17  1  0  0  0  0
 16 31  1  0  0  0  0
 16 32  1  0  0  0  0
 17 33  1  0  0  0  0
 17 34  1  0  0  0  0
M  END
> <s_m_source_file>
AV-unprocessed.smi

> <i_m_source_file_index>
1170

> <i_lp_mmshare_version>
43012

> <i_f3d_flags>
0

> <s_epik_input>
W0NIM11bQ0gyXU9jMW5bY0hdW2NIXVtjSF1jMVtOSF1DKD1PKVtOSF1bQ0gyXVtDSF0yW0NIMl1bQ0gyXTI=

> <s_epik_cmdline>
J2VwaWtfcHl0aG9uJywgJy1waCcsICc3LjAnLCAnLXRuJywgJzgnLCAnLW1hJywgJzIwMCcsICctbWV0YWxfYmluZGluZycsICctaW1hZScsICc8aW5maWxlLm1hZT4nLCAnLW9tYWUnLCAnPG91dGZpbGUubWFlPic=

> <r_lp_tautomer_probability>
1

> <r_epik_Ionization_Penalty>
0.00011974

> <r_epik_Ionization_Penalty_Charging>
0

> <r_epik_Ionization_Penalty_Neutral>
0.00011974

> <r_epik_State_Penalty>
-0

> <r_epik_Charging_Adjusted_Penalty>
0

> <i_epik_Tot_Q>
0

> <i_epik_Tot_abs_Q>
0

> <r_epik_Metal_State_Penalty>
-0

> <b_epik_Metal_Only>
0

> <s_lp_Force_Field>
OPLS_2005

> <r_lp_Energy>
14.6744

> <b_lp_Chiralities_Consistent>
1

> <s_lp_Variant>
AV-unprocessed.smi:1170-1

> <Gold.Version>
5.8.1

> <Gold.Id.Protein>
6NUR|6NUR_protein|mol2

> <Gold.PLP.Fitness>
40.2446

> <Gold.PLP.PLP>
-30.1324

> <Gold.PLP.part.hbond>
-3.0000

> <Gold.PLP.part.metal>
0.0000

> <Gold.PLP.part.buried>
-1.9716

> <Gold.PLP.part.nonpolar>
-26.4405

> <Gold.PLP.part.repulsive>
0.8651

> <Gold.PLP.ligand.clash>
0.0000

> <Gold.PLP.ligand.torsion>
1.0672

> <Gold.PLP.Chemscore.Hbond>
2.8880

> <Gold.PLP.Chemscore.CHOScore>
1.0000

> <Gold.PLP.Chemscore.Metal>
0.0000

> <Gold.Chemscore.Hbonds>
donor molecule, donor type, donor heavy atom, donor atom, acceptor molecule, acceptor atom, score
      L1  H    10    26       P1  7948  0.93
      L1  H    13    27       P1  7948  0.85
      P1  H  7989  7998       L1     5  0.56
      L1  C     6    23       P1  8028  0.89

> <Gold.PLP.Chemscore.Internal.Correction>
0.5825

> <Gold.Rescore>
     Score         DG    S(hbond)    S(metal)    S(lipo)     H(rot)  DE(clash)    DE(int)     intcor
     14.54     -15.98       2.09        0.00      64.37       1.56       0.19       1.25       ----

> <Gold.Chemscore.Fitness>
14.5359

> <Gold.Chemscore.DG>
-15.9769

> <Gold.Chemscore.ZeroCoef>
-5.4800

> <Gold.Chemscore.Hbond>
2.0865

> <Gold.Chemscore.Metal>
0.0000

> <Gold.Chemscore.Lipo>
64.3700

> <Gold.Chemscore.Internal_Hbond>
0.0000

> <Gold.Chemscore.DEClash>
0.1864

> <Gold.Chemscore.DEInternal>
1.2546

> <Gold.Chemscore.Rot>
1.5638

> <Gold.Chemscore.Internal.Correction>
   9.000000E+99

> <Gold.Chemscore.Hbonds>
donor molecule, donor type, donor heavy atom, donor atom, acceptor molecule, acceptor atom, score
      L1  H    10    26       P1  7948  0.88
      L1  H    13    27       P1  7948  0.83
      P1  H  7989  7998       L1     5  0.18

> <Gold.Chemscore.Hbond.Weighted>
-6.9689

> <Gold.Chemscore.Metal.Weighted>
-0.0000

> <Gold.Chemscore.Lipo.Weighted>
-7.5313

> <Gold.Chemscore.Internal_Hbond.Weighted>
0.0000

> <Gold.Chemscore.DEClash.Weighted>
0.1864

> <Gold.Chemscore.DEInternal.Weighted>
1.2546

> <Gold.Chemscore.Rot.Weighted>
4.0033

> <Gold.Chemscore.Internal.Correction.Weighted>
   9.000000E+99

> <Gold.Protein.RotatedTorsions>
[ 6907 6896 6895 6894 ] final -113.50 input  -60.11 | X-H torsion
[ 7974 7965 7964 7962 ] final -137.72 input  175.53 | X-H torsion
[ 8008 7997 7996 7995 ] final  -46.42 input   59.86 | X-H torsion
[ 10167 10162 10161 10158 ] final  109.43 input  -65.29 | X-H torsion
[ 10718 10713 10712 10709 ] final   71.29 input   66.30 | X-H torsion
[ 10763 10752 10751 10750 ] final   90.10 input  -60.55 | X-H torsion
[ 11005 11000 10999 10996 ] final  -61.60 input  -57.11 | X-H torsion

> <Gold.Protein.ActiveResidues>
 VAL166  LYS551  ARG553  GLY616  TRP617  ASP618  TYR619  PRO620  LYS621  CYS622 
 ASP623  PHE694  ASN695  SER759  ASP760  ASP761  ALA762  ILE779  LEU786  VAL792 
 PHE793  MET794  SER795  GLU796  ALA797  LYS798  CYS799  TRP800  GLU811  SER814 

> <Gold.Protein.RotatedAtoms>
  150.7833  133.8936  159.3320 H   0  0  0  0  0  0  0  0  0  0  0  0  # atno 6907 bound_to 6896
  151.6793  135.0962  160.0222 H   0  0  0  0  0  0  0  0  0  0  0  0  # atno 6908 bound_to 6896
  152.3891  133.6614  159.6258 H   0  0  0  0  0  0  0  0  0  0  0  0  # atno 6909 bound_to 6896
  144.8818  140.6518  143.5201 H   0  0  0  0  0  0  0  0  0  0  0  0  # atno 7974 bound_to 7965
  154.4007  140.1372  156.4008 H   0  0  0  0  0  0  0  0  0  0  0  0  # atno 8008 bound_to 7997
  155.7826  140.3481  155.5285 H   0  0  0  0  0  0  0  0  0  0  0  0  # atno 8009 bound_to 7997
  155.8659  140.0964  157.1573 H   0  0  0  0  0  0  0  0  0  0  0  0  # atno 8010 bound_to 7997
  139.6767  144.7121  151.1589 H   0  0  0  0  0  0  0  0  0  0  0  0  # atno 10167 bound_to 10162
  157.6444  130.9521  150.0768 H   0  0  0  0  0  0  0  0  0  0  0  0  # atno 10718 bound_to 10713
  153.1940  135.4446  155.0184 H   0  0  0  0  0  0  0  0  0  0  0  0  # atno 10763 bound_to 10752
  154.8107  135.3293  154.7314 H   0  0  0  0  0  0  0  0  0  0  0  0  # atno 10764 bound_to 10752
  153.7766  135.6980  153.4951 H   0  0  0  0  0  0  0  0  0  0  0  0  # atno 10765 bound_to 10752
  141.1330  133.6631  156.5400 H   0  0  0  0  0  0  0  0  0  0  0  0  # atno 11005 bound_to 11000
  145.3940  139.1611  143.4213 LP  0  0  0  0  0  0  0  0  0  0  0  0  # atno 17320 bound_to 7965
  146.2999  140.4032  142.8708 LP  0  0  0  0  0  0  0  0  0  0  0  0  # atno 17321 bound_to 7965
  140.7638  143.5761  150.8944 LP  0  0  0  0  0  0  0  0  0  0  0  0  # atno 17342 bound_to 10162
  139.9430  143.6359  152.3049 LP  0  0  0  0  0  0  0  0  0  0  0  0  # atno 17343 bound_to 10162
  156.1756  130.3648  149.9105 LP  0  0  0  0  0  0  0  0  0  0  0  0  # atno 17370 bound_to 10713
  156.7069  130.8955  151.3605 LP  0  0  0  0  0  0  0  0  0  0  0  0  # atno 17371 bound_to 10713
  140.4147  134.7241  157.4856 LP  0  0  0  0  0  0  0  0  0  0  0  0  # atno 17394 bound_to 11000
  140.0402  134.6278  155.8991 LP  0  0  0  0  0  0  0  0  0  0  0  0  # atno 17395 bound_to 11000

$$$$
