AV-unprocessed.smi:2577|AV-procd|sdf|10121|dock1
  -GOLD-   2272014143D 1   1.00000     0.00000
 Structure written by MMmdl.
 27 28  0  0  0  0  0  0  0  0  1 V2000
  147.8231  140.7910  153.8235 C   0  0  0  0  0  0  0  0  0  0  0  0
  148.8988  141.6885  154.4505 C   0  0  0  0  0  0  0  0  0  0  0  0
  149.7807  140.9593  155.4797 C   0  0  1  0  0  0  0  0  0  0  0  0
  150.5161  139.9435  154.8240 O   0  0  0  0  0  0  0  0  0  0  0  0
  150.7546  141.9209  156.1884 C   0  0  0  0  0  0  0  0  0  0  0  0
  151.6440  141.2349  157.1097 N   0  0  0  0  0  0  0  0  0  0  0  0
  152.2056  140.0496  156.7383 N   0  0  0  0  0  0  0  0  0  0  0  0
  152.9611  139.6254  157.7069 N   0  0  0  0  0  0  0  0  0  0  0  0
  152.8972  140.5497  158.7364 C   0  0  0  0  0  0  0  0  0  0  0  0
  153.5149  140.5900  160.0062 C   0  0  0  0  0  0  0  0  0  0  0  0
  153.2769  141.6720  160.8821 C   0  0  0  0  0  0  0  0  0  0  0  0
  154.0518  141.6856  162.4264 Cl  0  0  0  0  0  0  0  0  0  0  0  0
  152.4159  142.7277  160.4961 C   0  0  0  0  0  0  0  0  0  0  0  0
  152.1148  144.0594  161.5548 Cl  0  0  0  0  0  0  0  0  0  0  0  0
  151.7928  142.7003  159.2326 C   0  0  0  0  0  0  0  0  0  0  0  0
  152.0427  141.6143  158.3766 C   0  0  0  0  0  0  0  0  0  0  0  0
  147.2047  141.3580  153.1273 H   0  0  0  0  0  0  0  0  0  0  0  0
  147.1654  140.3731  154.5862 H   0  0  0  0  0  0  0  0  0  0  0  0
  148.2658  139.9622  153.2707 H   0  0  0  0  0  0  0  0  0  0  0  0
  149.5208  142.1203  153.6651 H   0  0  0  0  0  0  0  0  0  0  0  0
  148.4012  142.5277  154.9380 H   0  0  0  0  0  0  0  0  0  0  0  0
  149.1417  140.4866  156.2269 H   0  0  0  0  0  0  0  0  0  0  0  0
  151.1440  139.5865  155.4335 H   0  0  0  0  0  0  0  0  0  0  0  0
  151.3595  142.4587  155.4571 H   0  0  0  0  0  0  0  0  0  0  0  0
  150.1998  142.6768  156.7463 H   0  0  0  0  0  0  0  0  0  0  0  0
  154.1735  139.7882  160.3063 H   0  0  0  0  0  0  0  0  0  0  0  0
  151.1361  143.5004  158.9245 H   0  0  0  0  0  0  0  0  0  0  0  0
  1  2  1  0  0  0  0
  1 17  1  0  0  0  0
  1 18  1  0  0  0  0
  1 19  1  0  0  0  0
  2  3  1  0  0  0  0
  2 20  1  0  0  0  0
  2 21  1  0  0  0  0
  3  4  1  0  0  0  0
  3  5  1  0  0  0  0
  3 22  1  0  0  0  0
  4 23  1  0  0  0  0
  5  6  1  0  0  0  0
  5 24  1  0  0  0  0
  5 25  1  0  0  0  0
  6 16  1  0  0  0  0
  6  7  1  0  0  0  0
  7  8  2  0  0  0  0
  8  9  1  0  0  0  0
  9 16  2  0  0  0  0
  9 10  1  0  0  0  0
 10 11  2  0  0  0  0
 10 26  1  0  0  0  0
 11 12  1  0  0  0  0
 11 13  1  0  0  0  0
 13 14  1  0  0  0  0
 13 15  2  0  0  0  0
 15 16  1  0  0  0  0
 15 27  1  0  0  0  0
M  END
> <s_m_source_file>
AV-unprocessed.smi

> <i_m_source_file_index>
2577

> <i_lp_mmshare_version>
43012

> <i_f3d_flags>
0

> <s_epik_input>
W0NIM11bQ0gyXVtDQEhdKFtPSF0pW0NIMl1uKG5uMSljKGMxMilbY0hdYyhDbCljKENsKVtjSF0y

> <s_epik_cmdline>
J2VwaWtfcHl0aG9uJywgJy1waCcsICc3LjAnLCAnLXRuJywgJzgnLCAnLW1hJywgJzIwMCcsICctbWV0YWxfYmluZGluZycsICctaW1hZScsICc8aW5maWxlLm1hZT4nLCAnLW9tYWUnLCAnPG91dGZpbGUubWFlPic=

> <r_lp_tautomer_probability>
1

> <r_epik_Ionization_Penalty>
1.50913e-07

> <r_epik_Ionization_Penalty_Charging>
0

> <r_epik_Ionization_Penalty_Neutral>
1.50913e-07

> <r_epik_State_Penalty>
-0

> <r_epik_Charging_Adjusted_Penalty>
0

> <i_epik_Tot_Q>
0

> <i_epik_Tot_abs_Q>
0

> <r_epik_Metal_State_Penalty>
-0

> <b_epik_Metal_Only>
0

> <s_lp_Force_Field>
OPLS_2005

> <r_lp_Energy>
6.98618

> <b_lp_Chiralities_Consistent>
1

> <s_lp_Variant>
AV-unprocessed.smi:2577-2

> <Gold.Version>
5.8.1

> <Gold.Id.Protein>
6NUR|6NUR_protein|mol2

> <Gold.PLP.Fitness>
42.7061

> <Gold.PLP.PLP>
-37.2051

> <Gold.PLP.part.hbond>
-2.8106

> <Gold.PLP.part.metal>
0.0000

> <Gold.PLP.part.buried>
-1.1589

> <Gold.PLP.part.nonpolar>
-32.1615

> <Gold.PLP.part.repulsive>
0.0000

> <Gold.PLP.ligand.clash>
0.0000

> <Gold.PLP.ligand.torsion>
0.2645

> <Gold.PLP.Chemscore.Hbond>
2.0000

> <Gold.PLP.Chemscore.CHOScore>
0.0000

> <Gold.PLP.Chemscore.Metal>
0.0000

> <Gold.Chemscore.Hbonds>
donor molecule, donor type, donor heavy atom, donor atom, acceptor molecule, acceptor atom, score
      P1  H  7989  7998       L1     4  1.00
      P1  H  7997  8008       L1     8  1.00

> <Gold.PLP.Chemscore.Internal.Correction>
0.0300

> <Gold.Rescore>
     Score         DG    S(hbond)    S(metal)    S(lipo)     H(rot)  DE(clash)    DE(int)     intcor
     13.88     -16.32       0.79        0.00     109.17       1.79       0.49       1.95       ----

> <Gold.Chemscore.Fitness>
13.8775

> <Gold.Chemscore.DG>
-16.3164

> <Gold.Chemscore.ZeroCoef>
-5.4800

> <Gold.Chemscore.Hbond>
0.7939

> <Gold.Chemscore.Metal>
0.0000

> <Gold.Chemscore.Lipo>
109.1720

> <Gold.Chemscore.Internal_Hbond>
0.0000

> <Gold.Chemscore.DEClash>
0.4895

> <Gold.Chemscore.DEInternal>
1.9494

> <Gold.Chemscore.Rot>
1.7924

> <Gold.Chemscore.Internal.Correction>
   9.000000E+99

> <Gold.Chemscore.Hbonds>
donor molecule, donor type, donor heavy atom, donor atom, acceptor molecule, acceptor atom, score
      P1  H  7989  7998       L1     4  0.24
      P1  H  7997  8008       L1     8  0.06

> <Gold.Chemscore.Hbond.Weighted>
-2.6517

> <Gold.Chemscore.Metal.Weighted>
-0.0000

> <Gold.Chemscore.Lipo.Weighted>
-12.7731

> <Gold.Chemscore.Internal_Hbond.Weighted>
0.0000

> <Gold.Chemscore.DEClash.Weighted>
0.4895

> <Gold.Chemscore.DEInternal.Weighted>
1.9494

> <Gold.Chemscore.Rot.Weighted>
4.5884

> <Gold.Chemscore.Internal.Correction.Weighted>
   9.000000E+99

> <Gold.Protein.RotatedTorsions>
[ 6907 6896 6895 6894 ] final   20.48 input  -60.11 | X-H torsion
[ 7974 7965 7964 7962 ] final   99.75 input  175.53 | X-H torsion
[ 8008 7997 7996 7995 ] final  -87.02 input   59.86 | X-H torsion
[ 10167 10162 10161 10158 ] final   63.46 input  -65.29 | X-H torsion
[ 10718 10713 10712 10709 ] final -148.62 input   66.30 | X-H torsion
[ 10763 10752 10751 10750 ] final -102.51 input  -60.55 | X-H torsion
[ 11005 11000 10999 10996 ] final  -94.68 input  -57.11 | X-H torsion

> <Gold.Protein.ActiveResidues>
 VAL166  LYS551  ARG553  GLY616  TRP617  ASP618  TYR619  PRO620  LYS621  CYS622 
 ASP623  PHE694  ASN695  SER759  ASP760  ASP761  ALA762  ILE779  LEU786  VAL792 
 PHE793  MET794  SER795  GLU796  ALA797  LYS798  CYS799  TRP800  GLU811  SER814 

> <Gold.Protein.RotatedAtoms>
  151.8970  135.0394  160.0502 H   0  0  0  0  0  0  0  0  0  0  0  0  # atno 6907 bound_to 6896
  152.2389  133.5115  159.5267 H   0  0  0  0  0  0  0  0  0  0  0  0  # atno 6908 bound_to 6896
  150.7047  134.1032  159.4016 H   0  0  0  0  0  0  0  0  0  0  0  0  # atno 6909 bound_to 6896
  145.3948  139.2357  143.3332 H   0  0  0  0  0  0  0  0  0  0  0  0  # atno 7974 bound_to 7965
  154.6584  140.0571  157.0035 H   0  0  0  0  0  0  0  0  0  0  0  0  # atno 8008 bound_to 7997
  155.1265  140.3252  155.4466 H   0  0  0  0  0  0  0  0  0  0  0  0  # atno 8009 bound_to 7997
  156.2607  140.1988  156.6385 H   0  0  0  0  0  0  0  0  0  0  0  0  # atno 8010 bound_to 7997
  140.1328  144.4626  150.6855 H   0  0  0  0  0  0  0  0  0  0  0  0  # atno 10167 bound_to 10162
  156.4226  130.8036  151.2260 H   0  0  0  0  0  0  0  0  0  0  0  0  # atno 10718 bound_to 10713
  154.7739  135.4858  153.9705 H   0  0  0  0  0  0  0  0  0  0  0  0  # atno 10763 bound_to 10752
  153.1404  135.6771  153.9044 H   0  0  0  0  0  0  0  0  0  0  0  0  # atno 10764 bound_to 10752
  153.8720  135.3142  155.3421 H   0  0  0  0  0  0  0  0  0  0  0  0  # atno 10765 bound_to 10752
  141.1463  133.7973  157.0331 H   0  0  0  0  0  0  0  0  0  0  0  0  # atno 11005 bound_to 11000
  146.2780  140.4636  142.8787 LP  0  0  0  0  0  0  0  0  0  0  0  0  # atno 17320 bound_to 7965
  144.8415  140.6864  143.6226 LP  0  0  0  0  0  0  0  0  0  0  0  0  # atno 17321 bound_to 7965
  140.6806  143.2325  151.5392 LP  0  0  0  0  0  0  0  0  0  0  0  0  # atno 17342 bound_to 10162
  139.5511  144.2394  152.1531 LP  0  0  0  0  0  0  0  0  0  0  0  0  # atno 17343 bound_to 10162
  157.7508  131.0223  150.3787 LP  0  0  0  0  0  0  0  0  0  0  0  0  # atno 17370 bound_to 10713
  156.4108  130.3933  149.6893 LP  0  0  0  0  0  0  0  0  0  0  0  0  # atno 17371 bound_to 10713
  140.0741  134.9686  157.1516 LP  0  0  0  0  0  0  0  0  0  0  0  0  # atno 17394 bound_to 11000
  140.3669  134.2433  155.7181 LP  0  0  0  0  0  0  0  0  0  0  0  0  # atno 17395 bound_to 11000

$$$$
