AV-unprocessed.smi:1244|AV-procd|sdf|5231|dock2
  -GOLD-   22720 4333D 1   1.00000     0.00000
 Structure written by MMmdl.
 56 58  0  0  0  0  0  0  0  0  3 V2000
  150.5346  141.2736  156.8384 C   0  0  0  0  0  0  0  0  0  0  0  0
  151.8873  140.6467  156.4554 C   0  0  2  0  0  0  0  0  0  0  0  0
  151.7737  139.5359  155.3924 C   0  0  0  0  0  0  0  0  0  0  0  0
  151.2040  138.2952  155.9699 N   0  3  1  0  0  0  0  0  0  0  0  0
  151.0205  137.2295  154.9532 C   0  0  0  0  0  0  0  0  0  0  0  0
  150.1547  136.0659  155.4732 C   0  0  0  0  0  0  0  0  0  0  0  0
  149.4408  135.3978  154.3910 N   0  0  0  0  0  0  0  0  0  0  0  0
  148.8500  134.1984  154.4884 C   0  0  0  0  0  0  0  0  0  0  0  0
  148.8160  133.5413  155.5287 O   0  0  0  0  0  0  0  0  0  0  0  0
  148.3291  133.8122  153.3116 N   0  0  0  0  0  0  0  0  0  0  0  0
  147.6973  132.5746  152.9998 C   0  0  0  0  0  0  0  0  0  0  0  0
  148.1569  131.3540  153.5580 C   0  0  0  0  0  0  0  0  0  0  0  0
  147.5281  130.1425  153.2148 C   0  0  0  0  0  0  0  0  0  0  0  0
  146.4448  130.1687  152.3203 C   0  0  0  0  0  0  0  0  0  0  0  0
  146.0180  131.3471  151.8216 N   0  3  0  0  0  0  0  0  0  0  0  0
  146.5715  132.5479  152.1254 C   0  0  0  0  0  0  0  0  0  0  0  0
  146.0077  133.7015  151.5342 N   0  0  0  0  0  0  0  0  0  0  0  0
  145.0206  133.5781  150.4677 C   0  0  0  0  0  0  0  0  0  0  0  0
  144.4043  134.9682  150.3367 C   0  0  0  0  0  0  0  0  0  0  0  0
  144.4018  135.4621  151.7803 C   0  0  0  0  0  0  0  0  0  0  0  0
  145.6677  134.8408  152.3805 C   0  0  0  0  0  0  0  0  0  0  0  0
  151.9990  137.8662  157.1455 C   0  0  0  0  0  0  0  0  0  0  0  0
  152.0609  138.9932  158.1919 C   0  0  1  0  0  0  0  0  0  0  0  0
  152.9454  138.6204  159.3868 C   0  0  0  0  0  0  0  0  0  0  0  0
  152.6032  140.1678  157.5941 O   0  0  0  0  0  0  0  0  0  0  0  0
  150.0709  141.7503  155.9742 H   0  0  0  0  0  0  0  0  0  0  0  0
  150.6638  142.0385  157.6044 H   0  0  0  0  0  0  0  0  0  0  0  0
  149.8280  140.5360  157.2176 H   0  0  0  0  0  0  0  0  0  0  0  0
  152.4953  141.4476  156.0333 H   0  0  0  0  0  0  0  0  0  0  0  0
  151.1599  139.8821  154.5596 H   0  0  0  0  0  0  0  0  0  0  0  0
  152.7619  139.3155  154.9852 H   0  0  0  0  0  0  0  0  0  0  0  0
  150.5292  137.6604  154.0797 H   0  0  0  0  0  0  0  0  0  0  0  0
  151.9928  136.8687  154.6134 H   0  0  0  0  0  0  0  0  0  0  0  0
  150.7702  135.3124  155.9628 H   0  0  0  0  0  0  0  0  0  0  0  0
  149.4463  136.4228  156.2230 H   0  0  0  0  0  0  0  0  0  0  0  0
  149.4204  135.8709  153.4990 H   0  0  0  0  0  0  0  0  0  0  0  0
  148.5165  134.4154  152.5242 H   0  0  0  0  0  0  0  0  0  0  0  0
  148.9838  131.3287  154.2515 H   0  0  0  0  0  0  0  0  0  0  0  0
  147.8739  129.2073  153.6303 H   0  0  0  0  0  0  0  0  0  0  0  0
  145.9045  129.2910  151.9959 H   0  0  0  0  0  0  0  0  0  0  0  0
  145.4796  133.2488  149.5353 H   0  0  0  0  0  0  0  0  0  0  0  0
  144.2473  132.8604  150.7446 H   0  0  0  0  0  0  0  0  0  0  0  0
  145.0450  135.6059  149.7261 H   0  0  0  0  0  0  0  0  0  0  0  0
  143.4114  134.9532  149.8868 H   0  0  0  0  0  0  0  0  0  0  0  0
  144.3855  136.5494  151.8591 H   0  0  0  0  0  0  0  0  0  0  0  0
  143.5229  135.0750  152.2974 H   0  0  0  0  0  0  0  0  0  0  0  0
  145.5116  134.5498  153.4201 H   0  0  0  0  0  0  0  0  0  0  0  0
  146.4865  135.5601  152.3465 H   0  0  0  0  0  0  0  0  0  0  0  0
  151.5575  136.9811  157.6020 H   0  0  0  0  0  0  0  0  0  0  0  0
  153.0052  137.5914  156.8245 H   0  0  0  0  0  0  0  0  0  0  0  0
  151.0583  139.1990  158.5672 H   0  0  0  0  0  0  0  0  0  0  0  0
  152.5713  137.7286  159.8903 H   0  0  0  0  0  0  0  0  0  0  0  0
  152.9714  139.4278  160.1190 H   0  0  0  0  0  0  0  0  0  0  0  0
  153.9710  138.4223  159.0736 H   0  0  0  0  0  0  0  0  0  0  0  0
  150.2824  138.5369  156.3053 H   0  0  0  0  0  0  0  0  0  0  0  0
  145.2236  131.3336  151.1818 H   0  0  0  0  0  0  0  0  0  0  0  0
  1  2  1  0  0  0  0
  1 26  1  0  0  0  0
  1 27  1  0  0  0  0
  1 28  1  0  0  0  0
  2 25  1  0  0  0  0
  2  3  1  0  0  0  0
  2 29  1  0  0  0  0
  3  4  1  0  0  0  0
  3 30  1  0  0  0  0
  3 31  1  0  0  0  0
  4  5  1  0  0  0  0
  4 22  1  0  0  0  0
  4 55  1  0  0  0  0
  5  6  1  0  0  0  0
  5 32  1  0  0  0  0
  5 33  1  0  0  0  0
  6  7  1  0  0  0  0
  6 34  1  0  0  0  0
  6 35  1  0  0  0  0
  7  8  1  0  0  0  0
  7 36  1  0  0  0  0
  8  9  2  0  0  0  0
  8 10  1  0  0  0  0
 10 11  1  0  0  0  0
 10 37  1  0  0  0  0
 11 16  1  0  0  0  0
 11 12  2  0  0  0  0
 12 13  1  0  0  0  0
 12 38  1  0  0  0  0
 13 14  2  0  0  0  0
 13 39  1  0  0  0  0
 14 15  1  0  0  0  0
 14 40  1  0  0  0  0
 15 16  2  0  0  0  0
 15 56  1  0  0  0  0
 16 17  1  0  0  0  0
 17 21  1  0  0  0  0
 17 18  1  0  0  0  0
 18 19  1  0  0  0  0
 18 41  1  0  0  0  0
 18 42  1  0  0  0  0
 19 20  1  0  0  0  0
 19 43  1  0  0  0  0
 19 44  1  0  0  0  0
 20 21  1  0  0  0  0
 20 45  1  0  0  0  0
 20 46  1  0  0  0  0
 21 47  1  0  0  0  0
 21 48  1  0  0  0  0
 22 23  1  0  0  0  0
 22 49  1  0  0  0  0
 22 50  1  0  0  0  0
 23 24  1  0  0  0  0
 23 25  1  0  0  0  0
 23 51  1  0  0  0  0
 24 52  1  0  0  0  0
 24 53  1  0  0  0  0
 24 54  1  0  0  0  0
M  CHG  1   4   1
M  CHG  1  15   1
M  END
> <s_m_source_file>
AV-unprocessed.smi

> <i_m_source_file_index>
1244

> <i_lp_mmshare_version>
43012

> <i_f3d_flags>
0

> <s_epik_input>
W0NIM11bQ0BASF0xW0NIMl1OKFtDSDJdW0NASF0oTzEpW0NIM10pW0NIMl1bQ0gyXVtOSF1DKD1PKVtOSF1jMltjSF1bY0hdW2NIXW5jMk4zW0NIMl1bQ0gyXVtDSDJdW0NIMl0z

> <s_epik_cmdline>
J2VwaWtfcHl0aG9uJywgJy1waCcsICc3LjAnLCAnLXRuJywgJzgnLCAnLW1hJywgJzIwMCcsICctbWV0YWxfYmluZGluZycsICctaW1hZScsICc8aW5maWxlLm1hZT4nLCAnLW9tYWUnLCAnPG91dGZpbGUubWFlPic=

> <r_lp_tautomer_probability>
0.999994

> <r_epik_Ionization_Penalty>
1.81601

> <r_epik_Ionization_Penalty_Charging>
1.81599

> <r_epik_Ionization_Penalty_Neutral>
2.01972e-05

> <r_epik_State_Penalty>
1.85672

> <r_epik_Charging_Adjusted_Penalty>
3.6727

> <i_epik_Tot_Q>
2

> <i_epik_Tot_abs_Q>
2

> <r_epik_Metal_State_Penalty>
1.93796

> <b_epik_Metal_Only>
0

> <s_lp_Force_Field>
OPLS_2005

> <r_lp_Energy>
54.4997

> <b_lp_Chiralities_Consistent>
1

> <s_lp_Variant>
AV-unprocessed.smi:1244-11

> <Gold.Version>
5.8.1

> <Gold.Id.Protein>
6NUR|6NUR_protein|mol2

> <Gold.PLP.Fitness>
44.6075

> <Gold.PLP.PLP>
-37.7722

> <Gold.PLP.part.hbond>
-3.0000

> <Gold.PLP.part.metal>
0.0000

> <Gold.PLP.part.buried>
-4.3150

> <Gold.PLP.part.nonpolar>
-29.9383

> <Gold.PLP.part.repulsive>
0.2739

> <Gold.PLP.ligand.clash>
0.0000

> <Gold.PLP.ligand.torsion>
0.7822

> <Gold.PLP.Chemscore.Hbond>
2.6448

> <Gold.PLP.Chemscore.CHOScore>
0.0000

> <Gold.PLP.Chemscore.Metal>
0.0000

> <Gold.Chemscore.Hbonds>
donor molecule, donor type, donor heavy atom, donor atom, acceptor molecule, acceptor atom, score
      L1  H     7    36       P1  7948  1.00
      L1  H    10    37       P1  7948  0.60
      P1  H  7997  8009       L1    25  1.00

> <Gold.PLP.Chemscore.Internal.Correction>
0.4652

> <Gold.Rescore>
     Score         DG    S(hbond)    S(metal)    S(lipo)     H(rot)  DE(clash)    DE(int)     intcor
     15.04     -17.07       1.49        0.00      92.27       1.63       0.07       1.96       ----

> <Gold.Chemscore.Fitness>
15.0418

> <Gold.Chemscore.DG>
-17.0691

> <Gold.Chemscore.ZeroCoef>
-5.4800

> <Gold.Chemscore.Hbond>
1.4862

> <Gold.Chemscore.Metal>
0.0000

> <Gold.Chemscore.Lipo>
92.2739

> <Gold.Chemscore.Internal_Hbond>
0.0000

> <Gold.Chemscore.DEClash>
0.0693

> <Gold.Chemscore.DEInternal>
1.9580

> <Gold.Chemscore.Rot>
1.6293

> <Gold.Chemscore.Internal.Correction>
   9.000000E+99

> <Gold.Chemscore.Hbonds>
donor molecule, donor type, donor heavy atom, donor atom, acceptor molecule, acceptor atom, score
      L1  H     7    36       P1  7948  0.44
      L1  H    10    37       P1  7948  0.04
      P1  H  7997  8009       L1    25  0.23

> <Gold.Chemscore.Hbond.Weighted>
-4.9640

> <Gold.Chemscore.Metal.Weighted>
-0.0000

> <Gold.Chemscore.Lipo.Weighted>
-10.7960

> <Gold.Chemscore.Internal_Hbond.Weighted>
0.0000

> <Gold.Chemscore.DEClash.Weighted>
0.0693

> <Gold.Chemscore.DEInternal.Weighted>
1.9580

> <Gold.Chemscore.Rot.Weighted>
4.1709

> <Gold.Chemscore.Internal.Correction.Weighted>
   9.000000E+99

> <Gold.Protein.RotatedTorsions>
[ 6907 6896 6895 6894 ] final  103.13 input  -60.11 | X-H torsion
[ 7974 7965 7964 7962 ] final    7.25 input  175.53 | X-H torsion
[ 8008 7997 7996 7995 ] final  169.04 input   59.86 | X-H torsion
[ 10167 10162 10161 10158 ] final   78.94 input  -65.29 | X-H torsion
[ 10718 10713 10712 10709 ] final -104.75 input   66.30 | X-H torsion
[ 10763 10752 10751 10750 ] final   55.12 input  -60.55 | X-H torsion
[ 11005 11000 10999 10996 ] final  -92.05 input  -57.11 | X-H torsion

> <Gold.Protein.ActiveResidues>
 VAL166  LYS551  ARG553  GLY616  TRP617  ASP618  TYR619  PRO620  LYS621  CYS622 
 ASP623  PHE694  ASN695  SER759  ASP760  ASP761  ALA762  ILE779  LEU786  VAL792 
 PHE793  MET794  SER795  GLU796  ALA797  LYS798  CYS799  TRP800  GLU811  SER814 

> <Gold.Protein.RotatedAtoms>
  152.5304  133.9872  159.7833 H   0  0  0  0  0  0  0  0  0  0  0  0  # atno 6907 bound_to 6896
  151.0115  133.5953  159.2689 H   0  0  0  0  0  0  0  0  0  0  0  0  # atno 6908 bound_to 6896
  151.3026  135.0779  159.9297 H   0  0  0  0  0  0  0  0  0  0  0  0  # atno 6909 bound_to 6896
  146.2428  140.0112  142.8406 H   0  0  0  0  0  0  0  0  0  0  0  0  # atno 7974 bound_to 7965
  156.1493  140.1574  156.8796 H   0  0  0  0  0  0  0  0  0  0  0  0  # atno 8008 bound_to 7997
  154.5056  140.0814  156.7925 H   0  0  0  0  0  0  0  0  0  0  0  0  # atno 8009 bound_to 7997
  155.3927  140.3410  155.4254 H   0  0  0  0  0  0  0  0  0  0  0  0  # atno 8010 bound_to 7997
  139.9656  144.5930  150.8032 H   0  0  0  0  0  0  0  0  0  0  0  0  # atno 10167 bound_to 10162
  156.0317  130.5530  150.7441 H   0  0  0  0  0  0  0  0  0  0  0  0  # atno 10718 bound_to 10713
  152.9813  135.5721  154.5015 H   0  0  0  0  0  0  0  0  0  0  0  0  # atno 10763 bound_to 10752
  154.4534  135.2779  155.1767 H   0  0  0  0  0  0  0  0  0  0  0  0  # atno 10764 bound_to 10752
  154.3385  135.6234  153.5638 H   0  0  0  0  0  0  0  0  0  0  0  0  # atno 10765 bound_to 10752
  141.1531  133.7795  156.9965 H   0  0  0  0  0  0  0  0  0  0  0  0  # atno 11005 bound_to 11000
  145.1326  140.9526  143.4535 LP  0  0  0  0  0  0  0  0  0  0  0  0  # atno 17320 bound_to 7965
  145.0373  139.3290  143.5994 LP  0  0  0  0  0  0  0  0  0  0  0  0  # atno 17321 bound_to 7965
  140.7539  143.3017  151.3065 LP  0  0  0  0  0  0  0  0  0  0  0  0  # atno 17342 bound_to 10162
  139.6520  144.0344  152.2633 LP  0  0  0  0  0  0  0  0  0  0  0  0  # atno 17343 bound_to 10162
  157.5002  131.0918  151.0323 LP  0  0  0  0  0  0  0  0  0  0  0  0  # atno 17370 bound_to 10713
  157.0706  130.5862  149.5402 LP  0  0  0  0  0  0  0  0  0  0  0  0  # atno 17371 bound_to 10713
  140.0968  134.9559  157.1862 LP  0  0  0  0  0  0  0  0  0  0  0  0  # atno 17394 bound_to 11000
  140.3371  134.2745  155.7218 LP  0  0  0  0  0  0  0  0  0  0  0  0  # atno 17395 bound_to 11000

$$$$
