AV-unprocessed.smi:1006|AV-procd|sdf|4392|dock8
  -GOLD-   22720 2323D 1   1.00000     0.00000
 Structure written by MMmdl.
 46 48  0  0  0  0  0  0  0  0  2 V2000
  145.3342  136.0215  151.0236 C   0  0  0  0  0  0  0  0  0  0  0  0
  145.3721  136.7288  152.3617 C   0  0  0  0  0  0  0  0  0  0  0  0
  144.2042  136.9719  153.1130 C   0  0  0  0  0  0  0  0  0  0  0  0
  144.3671  137.6357  154.3415 C   0  0  0  0  0  0  0  0  0  0  0  0
  143.2718  137.9165  155.1541 N   0  0  0  0  0  0  0  0  0  0  0  0
  145.5824  138.0216  154.7774 N   0  0  0  0  0  0  0  0  0  0  0  0
  146.6514  137.7601  154.0137 C   0  0  0  0  0  0  0  0  0  0  0  0
  148.2740  138.2426  154.5767 S   0  0  0  0  0  0  0  0  0  0  0  0
  147.9889  139.9265  155.2068 C   0  0  0  0  0  0  0  0  0  0  0  0
  149.1230  140.8875  154.8155 C   0  0  2  0  0  0  0  0  0  0  0  0
  148.8852  141.3707  153.5069 O   0  0  0  0  0  0  0  0  0  0  0  0
  150.5028  140.2044  154.8741 C   0  0  0  0  0  0  0  0  0  0  0  0
  150.9771  140.0218  156.2347 N   0  0  0  0  0  0  0  0  0  0  0  0
  151.2269  138.8533  156.8562 C   0  0  0  0  0  0  0  0  0  0  0  0
  151.6570  138.9112  158.1132 N   0  0  0  0  0  0  0  0  0  0  0  0
  151.6921  140.2776  158.3328 C   0  0  0  0  0  0  0  0  0  0  0  0
  152.0658  141.0122  159.4795 C   0  0  0  0  0  0  0  0  0  0  0  0
  152.0263  142.4248  159.4805 C   0  0  0  0  0  0  0  0  0  0  0  0
  152.4393  143.1745  160.7349 C   0  0  0  0  0  0  0  0  0  0  0  0
  151.6060  143.1242  158.3207 C   0  0  0  0  0  0  0  0  0  0  0  0
  151.5569  144.6417  158.2976 C   0  0  0  0  0  0  0  0  0  0  0  0
  151.2275  142.4059  157.1670 C   0  0  0  0  0  0  0  0  0  0  0  0
  151.2733  141.0006  157.1776 C   0  0  0  0  0  0  0  0  0  0  0  0
  146.5799  137.1284  152.8333 N   0  3  0  0  0  0  0  0  0  0  0  0
  144.3097  135.9131  150.6663 H   0  0  0  0  0  0  0  0  0  0  0  0
  145.7737  135.0273  151.1085 H   0  0  0  0  0  0  0  0  0  0  0  0
  145.8955  136.5841  150.2769 H   0  0  0  0  0  0  0  0  0  0  0  0
  143.2303  136.6617  152.7617 H   0  0  0  0  0  0  0  0  0  0  0  0
  142.3333  137.6545  154.8890 H   0  0  0  0  0  0  0  0  0  0  0  0
  143.3822  138.3767  156.0464 H   0  0  0  0  0  0  0  0  0  0  0  0
  147.0438  140.2851  154.7974 H   0  0  0  0  0  0  0  0  0  0  0  0
  147.8800  139.9004  156.2918 H   0  0  0  0  0  0  0  0  0  0  0  0
  149.1218  141.7400  155.4963 H   0  0  0  0  0  0  0  0  0  0  0  0
  148.8583  140.6349  152.9144 H   0  0  0  0  0  0  0  0  0  0  0  0
  150.4587  139.2253  154.3957 H   0  0  0  0  0  0  0  0  0  0  0  0
  151.2409  140.7869  154.3212 H   0  0  0  0  0  0  0  0  0  0  0  0
  151.0831  137.9061  156.3573 H   0  0  0  0  0  0  0  0  0  0  0  0
  152.3858  140.4789  160.3626 H   0  0  0  0  0  0  0  0  0  0  0  0
  153.2986  143.8136  160.5309 H   0  0  0  0  0  0  0  0  0  0  0  0
  152.7146  142.4887  161.5365 H   0  0  0  0  0  0  0  0  0  0  0  0
  151.6208  143.7981  161.0953 H   0  0  0  0  0  0  0  0  0  0  0  0
  151.2061  145.0136  157.3345 H   0  0  0  0  0  0  0  0  0  0  0  0
  152.5485  145.0583  158.4764 H   0  0  0  0  0  0  0  0  0  0  0  0
  150.8799  145.0146  159.0665 H   0  0  0  0  0  0  0  0  0  0  0  0
  150.9028  142.9262  156.2781 H   0  0  0  0  0  0  0  0  0  0  0  0
  147.4223  136.9469  152.2874 H   0  0  0  0  0  0  0  0  0  0  0  0
  1  2  1  0  0  0  0
  1 25  1  0  0  0  0
  1 26  1  0  0  0  0
  1 27  1  0  0  0  0
  2 24  1  0  0  0  0
  2  3  2  0  0  0  0
  3  4  1  0  0  0  0
  3 28  1  0  0  0  0
  4  5  1  0  0  0  0
  4  6  2  0  0  0  0
  5 29  1  0  0  0  0
  5 30  1  0  0  0  0
  6  7  1  0  0  0  0
  7  8  1  0  0  0  0
  7 24  2  0  0  0  0
  8  9  1  0  0  0  0
  9 10  1  0  0  0  0
  9 31  1  0  0  0  0
  9 32  1  0  0  0  0
 10 11  1  0  0  0  0
 10 12  1  0  0  0  0
 10 33  1  0  0  0  0
 11 34  1  0  0  0  0
 12 13  1  0  0  0  0
 12 35  1  0  0  0  0
 12 36  1  0  0  0  0
 13 23  1  0  0  0  0
 13 14  1  0  0  0  0
 14 15  2  0  0  0  0
 14 37  1  0  0  0  0
 15 16  1  0  0  0  0
 16 23  2  0  0  0  0
 16 17  1  0  0  0  0
 17 18  2  0  0  0  0
 17 38  1  0  0  0  0
 18 19  1  0  0  0  0
 18 20  1  0  0  0  0
 19 39  1  0  0  0  0
 19 40  1  0  0  0  0
 19 41  1  0  0  0  0
 20 21  1  0  0  0  0
 20 22  2  0  0  0  0
 21 42  1  0  0  0  0
 21 43  1  0  0  0  0
 21 44  1  0  0  0  0
 22 23  1  0  0  0  0
 22 45  1  0  0  0  0
 24 46  1  0  0  0  0
M  CHG  1  24   1
M  END
> <s_m_source_file>
AV-unprocessed.smi

> <i_m_source_file_index>
1006

> <i_lp_mmshare_version>
43012

> <i_f3d_flags>
0

> <s_epik_input>
W0NIM11jMVtjSF1jKFtOSDJdKW5jKG4xKVNbQ0gyXVtDQEhdKFtPSF0pW0NIMl1uKFtjSF1uMiljKGMyMylbY0hdYyhbQ0gzXSljKFtjSF0zKVtDSDNd

> <s_epik_cmdline>
J2VwaWtfcHl0aG9uJywgJy1waCcsICc3LjAnLCAnLXRuJywgJzgnLCAnLW1hJywgJzIwMCcsICctbWV0YWxfYmluZGluZycsICctaW1hZScsICc8aW5maWxlLm1hZT4nLCAnLW9tYWUnLCAnPG91dGZpbGUubWFlPic=

> <r_lp_tautomer_probability>
0.999762

> <r_epik_Ionization_Penalty>
0.549885

> <r_epik_Ionization_Penalty_Charging>
0.440405

> <r_epik_Ionization_Penalty_Neutral>
0.10948

> <r_epik_State_Penalty>
0.546419

> <r_epik_Charging_Adjusted_Penalty>
0.986823

> <i_epik_Tot_Q>
1

> <i_epik_Tot_abs_Q>
1

> <r_epik_Metal_State_Penalty>
0.699827

> <b_epik_Metal_Only>
0

> <s_lp_Force_Field>
OPLS_2005

> <r_lp_Energy>
10.4004

> <b_lp_Chiralities_Consistent>
1

> <s_lp_Variant>
AV-unprocessed.smi:1006-3

> <Gold.Version>
5.8.1

> <Gold.Id.Protein>
6NUR|6NUR_protein|mol2

> <Gold.PLP.Fitness>
52.0113

> <Gold.PLP.PLP>
-42.2113

> <Gold.PLP.part.hbond>
-4.0253

> <Gold.PLP.part.metal>
0.0000

> <Gold.PLP.part.buried>
-2.3746

> <Gold.PLP.part.nonpolar>
-35.2034

> <Gold.PLP.part.repulsive>
0.1205

> <Gold.PLP.ligand.clash>
0.0000

> <Gold.PLP.ligand.torsion>
0.8730

> <Gold.PLP.Chemscore.Hbond>
3.8240

> <Gold.PLP.Chemscore.CHOScore>
0.0000

> <Gold.PLP.Chemscore.Metal>
0.0000

> <Gold.Chemscore.Hbonds>
donor molecule, donor type, donor heavy atom, donor atom, acceptor molecule, acceptor atom, score
      L1  H    11    34       P1  7957  0.80
      L1  H    24    46       P1  7948  2.00
      P1  H  8011  8017       L1    11  0.57

> <Gold.PLP.Chemscore.Internal.Correction>
0.0740

> <Gold.Rescore>
     Score         DG    S(hbond)    S(metal)    S(lipo)     H(rot)  DE(clash)    DE(int)     intcor
     16.76     -18.96       2.39        0.00     110.18       2.89       1.51       0.70       ----

> <Gold.Chemscore.Fitness>
16.7568

> <Gold.Chemscore.DG>
-18.9634

> <Gold.Chemscore.ZeroCoef>
-5.4800

> <Gold.Chemscore.Hbond>
2.3924

> <Gold.Chemscore.Metal>
0.0000

> <Gold.Chemscore.Lipo>
110.1822

> <Gold.Chemscore.Internal_Hbond>
0.0000

> <Gold.Chemscore.DEClash>
1.5063

> <Gold.Chemscore.DEInternal>
0.7003

> <Gold.Chemscore.Rot>
2.8901

> <Gold.Chemscore.Internal.Correction>
   9.000000E+99

> <Gold.Chemscore.Hbonds>
donor molecule, donor type, donor heavy atom, donor atom, acceptor molecule, acceptor atom, score
      L1  H    11    34       P1  7957  0.77
      L1  H    24    46       P1  7948  0.99
      P1  H  8011  8017       L1    11  0.05

> <Gold.Chemscore.Hbond.Weighted>
-7.9907

> <Gold.Chemscore.Metal.Weighted>
-0.0000

> <Gold.Chemscore.Lipo.Weighted>
-12.8913

> <Gold.Chemscore.Internal_Hbond.Weighted>
0.0000

> <Gold.Chemscore.DEClash.Weighted>
1.5063

> <Gold.Chemscore.DEInternal.Weighted>
0.7003

> <Gold.Chemscore.Rot.Weighted>
7.3986

> <Gold.Chemscore.Internal.Correction.Weighted>
   9.000000E+99

> <Gold.Protein.RotatedTorsions>
[ 6907 6896 6895 6894 ] final  114.83 input  -60.11 | X-H torsion
[ 7974 7965 7964 7962 ] final  165.13 input  175.53 | X-H torsion
[ 8008 7997 7996 7995 ] final  169.39 input   59.86 | X-H torsion
[ 10167 10162 10161 10158 ] final -178.12 input  -65.29 | X-H torsion
[ 10718 10713 10712 10709 ] final   87.17 input   66.30 | X-H torsion
[ 10763 10752 10751 10750 ] final  -98.36 input  -60.55 | X-H torsion
[ 11005 11000 10999 10996 ] final   78.62 input  -57.11 | X-H torsion

> <Gold.Protein.ActiveResidues>
 VAL166  LYS551  ARG553  GLY616  TRP617  ASP618  TYR619  PRO620  LYS621  CYS622 
 ASP623  PHE694  ASN695  SER759  ASP760  ASP761  ALA762  ILE779  LEU786  VAL792 
 PHE793  MET794  SER795  GLU796  ALA797  LYS798  CYS799  TRP800  GLU811  SER814 

> <Gold.Protein.RotatedAtoms>
  152.4778  133.8181  159.7038 H   0  0  0  0  0  0  0  0  0  0  0  0  # atno 6907 bound_to 6896
  150.8807  133.7366  159.2939 H   0  0  0  0  0  0  0  0  0  0  0  0  # atno 6908 bound_to 6896
  151.4871  135.1059  159.9845 H   0  0  0  0  0  0  0  0  0  0  0  0  # atno 6909 bound_to 6896
  144.7515  139.8426  143.6364 H   0  0  0  0  0  0  0  0  0  0  0  0  # atno 7974 bound_to 7965
  156.1461  140.1565  156.8844 H   0  0  0  0  0  0  0  0  0  0  0  0  # atno 8008 bound_to 7997
  154.5030  140.0820  156.7874 H   0  0  0  0  0  0  0  0  0  0  0  0  # atno 8009 bound_to 7997
  155.3986  140.3413  155.4258 H   0  0  0  0  0  0  0  0  0  0  0  0  # atno 8010 bound_to 7997
  139.5447  144.2267  152.0965 H   0  0  0  0  0  0  0  0  0  0  0  0  # atno 10167 bound_to 10162
  157.6937  131.0245  150.3082 H   0  0  0  0  0  0  0  0  0  0  0  0  # atno 10718 bound_to 10713
  154.7408  135.5012  153.9119 H   0  0  0  0  0  0  0  0  0  0  0  0  # atno 10763 bound_to 10752
  153.1041  135.6692  153.9627 H   0  0  0  0  0  0  0  0  0  0  0  0  # atno 10764 bound_to 10752
  153.9405  135.3068  155.3422 H   0  0  0  0  0  0  0  0  0  0  0  0  # atno 10765 bound_to 10752
  139.9205  134.7777  156.1672 H   0  0  0  0  0  0  0  0  0  0  0  0  # atno 11005 bound_to 11000
  146.1472  139.4544  143.0072 LP  0  0  0  0  0  0  0  0  0  0  0  0  # atno 17320 bound_to 7965
  145.6927  141.0159  143.1547 LP  0  0  0  0  0  0  0  0  0  0  0  0  # atno 17321 bound_to 7965
  140.1752  144.4898  150.6558 LP  0  0  0  0  0  0  0  0  0  0  0  0  # atno 17342 bound_to 10162
  140.6691  143.2279  151.5670 LP  0  0  0  0  0  0  0  0  0  0  0  0  # atno 17343 bound_to 10162
  156.3588  130.3843  149.7268 LP  0  0  0  0  0  0  0  0  0  0  0  0  # atno 17370 bound_to 10713
  156.4722  130.8002  151.3019 LP  0  0  0  0  0  0  0  0  0  0  0  0  # atno 17371 bound_to 10713
  141.0722  133.6792  156.2163 LP  0  0  0  0  0  0  0  0  0  0  0  0  # atno 17394 bound_to 11000
  140.6488  134.5089  157.5576 LP  0  0  0  0  0  0  0  0  0  0  0  0  # atno 17395 bound_to 11000

$$$$
