AV-unprocessed.smi:2761|AV-procd|sdf|10633|dock9
  -GOLD-   2272015 83D 1   1.00000     0.00000
 Structure written by MMmdl.
 27 28  0  0  0  0  0  0  0  0  1 V2000
  151.3284  140.5179  155.4107 O   0  0  0  0  0  0  0  0  0  0  0  0
  150.3668  141.1181  155.8961 C   0  0  0  0  0  0  0  0  0  0  0  0
  149.1100  141.0971  155.4009 N   0  0  0  0  0  0  0  0  0  0  0  0
  148.6362  140.4358  154.2625 C   0  0  0  0  0  0  0  0  0  0  0  0
  147.7295  141.2649  153.5052 C   0  0  0  0  0  0  0  0  0  0  0  0
  147.1983  140.7455  152.3773 C   0  0  0  0  0  0  0  0  0  0  0  0
  147.5340  139.3911  151.9390 C   0  0  0  0  0  0  0  0  0  0  0  0
  147.0919  138.8553  150.9258 O   0  0  0  0  0  0  0  0  0  0  0  0
  148.4020  138.7567  152.7709 N   0  0  0  0  0  0  0  0  0  0  0  0
  148.9857  139.2235  153.9426 N   0  0  0  0  0  0  0  0  0  0  0  0
  150.5500  141.9504  157.1741 C   0  0  1  0  0  0  0  0  0  0  0  0
  151.0434  141.1157  158.3791 C   0  0  0  0  0  0  0  0  0  0  0  0
  151.2238  141.9709  159.5005 O   0  0  0  0  0  0  0  0  0  0  0  0
  152.1787  142.9867  159.2280 C   0  0  0  0  0  0  0  0  0  0  0  0
  151.6857  143.8276  158.0395 C   0  0  0  0  0  0  0  0  0  0  0  0
  151.5041  142.9778  156.9148 O   0  0  0  0  0  0  0  0  0  0  0  0
  148.4357  141.6348  155.9259 H   0  0  0  0  0  0  0  0  0  0  0  0
  147.4599  142.2694  153.7981 H   0  0  0  0  0  0  0  0  0  0  0  0
  146.5146  141.3380  151.7871 H   0  0  0  0  0  0  0  0  0  0  0  0
  148.6820  137.8156  152.5339 H   0  0  0  0  0  0  0  0  0  0  0  0
  149.5869  142.4053  157.4124 H   0  0  0  0  0  0  0  0  0  0  0  0
  150.3118  140.3523  158.6457 H   0  0  0  0  0  0  0  0  0  0  0  0
  151.9780  140.6006  158.1493 H   0  0  0  0  0  0  0  0  0  0  0  0
  152.2961  143.6124  160.1128 H   0  0  0  0  0  0  0  0  0  0  0  0
  153.1526  142.5430  159.0151 H   0  0  0  0  0  0  0  0  0  0  0  0
  150.7521  144.3371  158.2826 H   0  0  0  0  0  0  0  0  0  0  0  0
  152.4168  144.5967  157.7901 H   0  0  0  0  0  0  0  0  0  0  0  0
  1  2  2  0  0  0  0
  2  3  1  0  0  0  0
  2 11  1  0  0  0  0
  3 17  1  0  0  0  0
  3  4  1  0  0  0  0
  4  5  1  0  0  0  0
  4 10  2  0  0  0  0
  5  6  2  0  0  0  0
  5 18  1  0  0  0  0
  6  7  1  0  0  0  0
  6 19  1  0  0  0  0
  7  8  2  0  0  0  0
  7  9  1  0  0  0  0
  9 10  1  0  0  0  0
  9 20  1  0  0  0  0
 11 16  1  0  0  0  0
 11 12  1  0  0  0  0
 11 21  1  0  0  0  0
 12 13  1  0  0  0  0
 12 22  1  0  0  0  0
 12 23  1  0  0  0  0
 13 14  1  0  0  0  0
 14 15  1  0  0  0  0
 14 24  1  0  0  0  0
 14 25  1  0  0  0  0
 15 16  1  0  0  0  0
 15 26  1  0  0  0  0
 15 27  1  0  0  0  0
M  END
> <s_m_source_file>
AV-unprocessed.smi

> <i_m_source_file_index>
2761

> <i_lp_mmshare_version>
43012

> <i_f3d_flags>
0

> <s_epik_input>
TzFbQ0gyXVtDSDJdT1tDSDJdW0NASF0xQyg9TylbTkhdYzJbY0hdW2NIXWMoW09IXSlubjI=

> <s_epik_cmdline>
J2VwaWtfcHl0aG9uJywgJy1waCcsICc3LjAnLCAnLXRuJywgJzgnLCAnLW1hJywgJzIwMCcsICctbWV0YWxfYmluZGluZycsICctaW1hZScsICc8aW5maWxlLm1hZT4nLCAnLW9tYWUnLCAnPG91dGZpbGUubWFlPic=

> <r_lp_tautomer_probability>
1

> <r_epik_Ionization_Penalty>
0.000593199

> <r_epik_Ionization_Penalty_Charging>
0.000590119

> <r_epik_Ionization_Penalty_Neutral>
3.08036e-06

> <r_epik_State_Penalty>
-0

> <r_epik_Charging_Adjusted_Penalty>
0.000590119

> <i_epik_Tot_Q>
0

> <i_epik_Tot_abs_Q>
0

> <r_epik_Metal_State_Penalty>
0.240077

> <b_epik_Metal_Only>
0

> <s_lp_Force_Field>
OPLS_2005

> <r_lp_Energy>
26.3126

> <b_lp_Chiralities_Consistent>
1

> <s_lp_Variant>
AV-unprocessed.smi:2761-2

> <Gold.Version>
5.8.1

> <Gold.Id.Protein>
6NUR|6NUR_protein|mol2

> <Gold.PLP.Fitness>
35.2035

> <Gold.PLP.PLP>
-27.4100

> <Gold.PLP.part.hbond>
-4.2332

> <Gold.PLP.part.metal>
0.0000

> <Gold.PLP.part.buried>
0.7256

> <Gold.PLP.part.nonpolar>
-24.7513

> <Gold.PLP.part.repulsive>
1.7353

> <Gold.PLP.ligand.clash>
0.0000

> <Gold.PLP.ligand.torsion>
0.3387

> <Gold.PLP.Chemscore.Hbond>
2.8233

> <Gold.PLP.Chemscore.CHOScore>
0.0000

> <Gold.PLP.Chemscore.Metal>
0.0000

> <Gold.Chemscore.Hbonds>
donor molecule, donor type, donor heavy atom, donor atom, acceptor molecule, acceptor atom, score
      L1  H     9    20       P1  7948  1.00
      P1  H  7954  7966       L1     8  0.83
      P1  H  7989  7998       L1     1  0.88

> <Gold.PLP.Chemscore.Internal.Correction>
0.0012

> <Gold.Rescore>
     Score         DG    S(hbond)    S(metal)    S(lipo)     H(rot)  DE(clash)    DE(int)     intcor
     14.50     -17.87       2.64        0.00      52.43       1.00       2.89       0.47       ----

> <Gold.Chemscore.Fitness>
14.5037

> <Gold.Chemscore.DG>
-17.8668

> <Gold.Chemscore.ZeroCoef>
-5.4800

> <Gold.Chemscore.Hbond>
2.6384

> <Gold.Chemscore.Metal>
0.0000

> <Gold.Chemscore.Lipo>
52.4323

> <Gold.Chemscore.Internal_Hbond>
0.0000

> <Gold.Chemscore.DEClash>
2.8929

> <Gold.Chemscore.DEInternal>
0.4702

> <Gold.Chemscore.Rot>
1.0000

> <Gold.Chemscore.Internal.Correction>
   9.000000E+99

> <Gold.Chemscore.Hbonds>
donor molecule, donor type, donor heavy atom, donor atom, acceptor molecule, acceptor atom, score
      L1  H     9    20       P1  7948  1.00
      P1  H  7954  7966       L1     8  0.80
      P1  H  7989  7998       L1     1  0.77

> <Gold.Chemscore.Hbond.Weighted>
-8.8122

> <Gold.Chemscore.Metal.Weighted>
-0.0000

> <Gold.Chemscore.Lipo.Weighted>
-6.1346

> <Gold.Chemscore.Internal_Hbond.Weighted>
0.0000

> <Gold.Chemscore.DEClash.Weighted>
2.8929

> <Gold.Chemscore.DEInternal.Weighted>
0.4702

> <Gold.Chemscore.Rot.Weighted>
2.5600

> <Gold.Chemscore.Internal.Correction.Weighted>
   9.000000E+99

> <Gold.Protein.RotatedTorsions>
[ 6907 6896 6895 6894 ] final  142.42 input  -60.11 | X-H torsion
[ 7974 7965 7964 7962 ] final  -53.56 input  175.53 | X-H torsion
[ 8008 7997 7996 7995 ] final   84.87 input   59.86 | X-H torsion
[ 10167 10162 10161 10158 ] final   58.52 input  -65.29 | X-H torsion
[ 10718 10713 10712 10709 ] final   -1.58 input   66.30 | X-H torsion
[ 10763 10752 10751 10750 ] final  -99.70 input  -60.55 | X-H torsion
[ 11005 11000 10999 10996 ] final   54.96 input  -57.11 | X-H torsion

> <Gold.Protein.ActiveResidues>
 VAL166  LYS551  ARG553  GLY616  TRP617  ASP618  TYR619  PRO620  LYS621  CYS622 
 ASP623  PHE694  ASN695  SER759  ASP760  ASP761  ALA762  ILE779  LEU786  VAL792 
 PHE793  MET794  SER795  GLU796  ALA797  LYS798  CYS799  TRP800  GLU811  SER814 

> <Gold.Protein.RotatedAtoms>
  152.2189  133.4968  159.5151 H   0  0  0  0  0  0  0  0  0  0  0  0  # atno 6907 bound_to 6896
  150.7008  134.1368  159.4099 H   0  0  0  0  0  0  0  0  0  0  0  0  # atno 6908 bound_to 6896
  151.9289  135.0265  160.0578 H   0  0  0  0  0  0  0  0  0  0  0  0  # atno 6909 bound_to 6896
  145.8955  140.8036  142.9770 H   0  0  0  0  0  0  0  0  0  0  0  0  # atno 7974 bound_to 7965
  155.9426  140.3407  155.6340 H   0  0  0  0  0  0  0  0  0  0  0  0  # atno 8008 bound_to 7997
  155.7020  140.0761  157.2425 H   0  0  0  0  0  0  0  0  0  0  0  0  # atno 8009 bound_to 7997
  154.4105  140.1638  156.2189 H   0  0  0  0  0  0  0  0  0  0  0  0  # atno 8010 bound_to 7997
  140.1863  144.4131  150.6592 H   0  0  0  0  0  0  0  0  0  0  0  0  # atno 10167 bound_to 10162
  156.8035  130.5401  149.5718 H   0  0  0  0  0  0  0  0  0  0  0  0  # atno 10718 bound_to 10713
  154.7519  135.4962  153.9305 H   0  0  0  0  0  0  0  0  0  0  0  0  # atno 10763 bound_to 10752
  153.1153  135.6719  153.9436 H   0  0  0  0  0  0  0  0  0  0  0  0  # atno 10764 bound_to 10752
  153.9184  135.3091  155.3427 H   0  0  0  0  0  0  0  0  0  0  0  0  # atno 10765 bound_to 10752
  140.0645  134.5556  155.9115 H   0  0  0  0  0  0  0  0  0  0  0  0  # atno 11005 bound_to 11000
  144.6732  140.1595  143.7423 LP  0  0  0  0  0  0  0  0  0  0  0  0  # atno 17320 bound_to 7965
  145.8856  139.2347  143.1580 LP  0  0  0  0  0  0  0  0  0  0  0  0  # atno 17321 bound_to 7965
  140.6486  143.2219  151.6129 LP  0  0  0  0  0  0  0  0  0  0  0  0  # atno 17342 bound_to 10162
  139.5275  144.3016  152.1069 LP  0  0  0  0  0  0  0  0  0  0  0  0  # atno 17343 bound_to 10162
  156.1087  130.6024  151.0012 LP  0  0  0  0  0  0  0  0  0  0  0  0  # atno 17370 bound_to 10713
  157.6542  131.0892  150.7985 LP  0  0  0  0  0  0  0  0  0  0  0  0  # atno 17371 bound_to 10713
  141.1987  133.6602  156.5804 LP  0  0  0  0  0  0  0  0  0  0  0  0  # atno 17394 bound_to 11000
  140.3720  134.7597  157.4605 LP  0  0  0  0  0  0  0  0  0  0  0  0  # atno 17395 bound_to 11000

$$$$
