AV-unprocessed.smi:3148|AV-procd|sdf|11996|dock1
  -GOLD-   2272017403D 1   1.00000     0.00000
 Structure written by MMmdl.
 35 37  0  0  0  0  0  0  0  0  2 V2000
  152.8072  141.0899  161.4120 C   0  0  0  0  0  0  0  0  0  0  0  0
  152.0109  140.7105  160.2942 O   0  0  0  0  0  0  0  0  0  0  0  0
  151.5923  141.6963  159.4247 C   0  0  0  0  0  0  0  0  0  0  0  0
  151.9698  143.0295  159.6539 C   0  0  0  0  0  0  0  0  0  0  0  0
  151.5115  143.9921  158.7338 C   0  0  0  0  0  0  0  0  0  0  0  0
  151.8529  145.4606  158.8686 C   0  0  0  0  0  0  0  0  0  0  0  0
  150.7419  143.6156  157.6823 N   0  3  0  0  0  0  0  0  0  0  0  0
  150.4189  142.3243  157.5174 C   0  0  0  0  0  0  0  0  0  0  0  0
  149.6395  141.9946  156.4233 N   0  0  0  0  0  0  0  0  0  0  0  0
  149.2059  140.6384  156.1076 C   0  0  1  0  0  0  0  0  0  0  0  0
  147.6957  140.4383  156.2555 C   0  0  0  0  0  0  0  0  0  0  0  0
  147.3191  139.8643  154.8823 C   0  0  1  0  0  0  0  0  0  0  0  0
  147.3279  140.9487  153.7971 C   0  0  0  0  0  0  0  0  0  0  0  0
  148.8244  141.1948  153.6163 C   0  0  0  0  0  0  0  0  0  0  0  0
  149.4333  140.2218  154.6408 C   0  0  2  0  0  0  0  0  0  0  0  0
  148.5026  139.1568  154.5512 O   0  0  0  0  0  0  0  0  0  0  0  0
  150.8240  141.3650  158.3611 N   0  0  0  0  0  0  0  0  0  0  0  0
  153.0648  140.2019  161.9892 H   0  0  0  0  0  0  0  0  0  0  0  0
  152.2687  141.7703  162.0731 H   0  0  0  0  0  0  0  0  0  0  0  0
  153.7398  141.5602  161.0971 H   0  0  0  0  0  0  0  0  0  0  0  0
  152.5846  143.2995  160.5003 H   0  0  0  0  0  0  0  0  0  0  0  0
  152.3389  145.6654  159.8228 H   0  0  0  0  0  0  0  0  0  0  0  0
  150.9505  146.0697  158.8096 H   0  0  0  0  0  0  0  0  0  0  0  0
  152.5279  145.7662  158.0686 H   0  0  0  0  0  0  0  0  0  0  0  0
  149.4914  142.7103  155.7269 H   0  0  0  0  0  0  0  0  0  0  0  0
  149.7195  139.9378  156.7676 H   0  0  0  0  0  0  0  0  0  0  0  0
  147.4862  139.7191  157.0480 H   0  0  0  0  0  0  0  0  0  0  0  0
  147.1479  141.3553  156.4781 H   0  0  0  0  0  0  0  0  0  0  0  0
  146.4157  139.2540  154.8898 H   0  0  0  0  0  0  0  0  0  0  0  0
  146.8866  140.5770  152.8713 H   0  0  0  0  0  0  0  0  0  0  0  0
  146.7838  141.8442  154.0993 H   0  0  0  0  0  0  0  0  0  0  0  0
  149.1315  140.9253  152.6052 H   0  0  0  0  0  0  0  0  0  0  0  0
  149.1096  142.2332  153.7863 H   0  0  0  0  0  0  0  0  0  0  0  0
  150.4602  139.9322  154.4162 H   0  0  0  0  0  0  0  0  0  0  0  0
  150.4176  144.3229  157.0225 H   0  0  0  0  0  0  0  0  0  0  0  0
  1  2  1  0  0  0  0
  1 18  1  0  0  0  0
  1 19  1  0  0  0  0
  1 20  1  0  0  0  0
  2  3  1  0  0  0  0
  3 17  1  0  0  0  0
  3  4  2  0  0  0  0
  4  5  1  0  0  0  0
  4 21  1  0  0  0  0
  5  6  1  0  0  0  0
  5  7  2  0  0  0  0
  6 22  1  0  0  0  0
  6 23  1  0  0  0  0
  6 24  1  0  0  0  0
  7  8  1  0  0  0  0
  7 35  1  0  0  0  0
  8  9  1  0  0  0  0
  8 17  2  0  0  0  0
  9 10  1  0  0  0  0
  9 25  1  0  0  0  0
 10 15  1  0  0  0  0
 10 11  1  0  0  0  0
 10 26  1  0  0  0  0
 11 12  1  0  0  0  0
 11 27  1  0  0  0  0
 11 28  1  0  0  0  0
 12 16  1  0  0  0  0
 12 13  1  0  0  0  0
 12 29  1  0  0  0  0
 13 14  1  0  0  0  0
 13 30  1  0  0  0  0
 13 31  1  0  0  0  0
 14 15  1  0  0  0  0
 14 32  1  0  0  0  0
 14 33  1  0  0  0  0
 15 16  1  0  0  0  0
 15 34  1  0  0  0  0
M  CHG  1   7   1
M  END
> <s_m_source_file>
AV-unprocessed.smi

> <i_m_source_file_index>
3148

> <i_lp_mmshare_version>
43012

> <i_f3d_flags>
0

> <s_epik_input>
W0NIM11PYzFbY0hdYyhbQ0gzXSluYyhuMSlbTkhdW0NASF0oW0NIMl1bQ0BASF0yMylbQ0BASF0oTzMpW0NIMl1bQ0gyXTI=

> <s_epik_cmdline>
J2VwaWtfcHl0aG9uJywgJy1waCcsICc3LjAnLCAnLXRuJywgJzgnLCAnLW1hJywgJzIwMCcsICctbWV0YWxfYmluZGluZycsICctaW1hZScsICc8aW5maWxlLm1hZT4nLCAnLW9tYWUnLCAnPG91dGZpbGUubWFlPic=

> <r_lp_tautomer_probability>
0.999985

> <r_epik_Ionization_Penalty>
1.09461

> <r_epik_Ionization_Penalty_Charging>
1.0946

> <r_epik_Ionization_Penalty_Neutral>
6.69406e-06

> <r_epik_State_Penalty>
1.15119

> <r_epik_Charging_Adjusted_Penalty>
2.24579

> <i_epik_Tot_Q>
1

> <i_epik_Tot_abs_Q>
1

> <r_epik_Metal_State_Penalty>
1.2392

> <b_epik_Metal_Only>
0

> <s_lp_Force_Field>
OPLS_2005

> <r_lp_Energy>
36.3956

> <b_lp_Chiralities_Consistent>
1

> <s_lp_Variant>
AV-unprocessed.smi:3148-6

> <Gold.Version>
5.8.1

> <Gold.Id.Protein>
6NUR|6NUR_protein|mol2

> <Gold.PLP.Fitness>
41.8608

> <Gold.PLP.PLP>
-30.4732

> <Gold.PLP.part.hbond>
-2.0000

> <Gold.PLP.part.metal>
0.0000

> <Gold.PLP.part.buried>
-3.5010

> <Gold.PLP.part.nonpolar>
-25.0876

> <Gold.PLP.part.repulsive>
0.1820

> <Gold.PLP.ligand.clash>
0.0535

> <Gold.PLP.ligand.torsion>
0.0918

> <Gold.PLP.Chemscore.Hbond>
3.8720

> <Gold.PLP.Chemscore.CHOScore>
0.0000

> <Gold.PLP.Chemscore.Metal>
0.0000

> <Gold.Chemscore.Hbonds>
donor molecule, donor type, donor heavy atom, donor atom, acceptor molecule, acceptor atom, score
      L1  H     7    35       P1  8028  1.60
      L1  H     9    25       P1  8028  1.27

> <Gold.PLP.Chemscore.Internal.Correction>
0.0088

> <Gold.Rescore>
     Score         DG    S(hbond)    S(metal)    S(lipo)     H(rot)  DE(clash)    DE(int)     intcor
     16.25     -16.38       1.56        0.00      75.75       1.24       0.12       0.01       ----

> <Gold.Chemscore.Fitness>
16.2471

> <Gold.Chemscore.DG>
-16.3777

> <Gold.Chemscore.ZeroCoef>
-5.4800

> <Gold.Chemscore.Hbond>
1.5579

> <Gold.Chemscore.Metal>
0.0000

> <Gold.Chemscore.Lipo>
75.7478

> <Gold.Chemscore.Internal_Hbond>
0.0000

> <Gold.Chemscore.DEClash>
0.1220

> <Gold.Chemscore.DEInternal>
0.0086

> <Gold.Chemscore.Rot>
1.2376

> <Gold.Chemscore.Internal.Correction>
   9.000000E+99

> <Gold.Chemscore.Hbonds>
donor molecule, donor type, donor heavy atom, donor atom, acceptor molecule, acceptor atom, score
      L1  H     7    35       P1  8028  0.68
      L1  H     9    25       P1  8028  0.62

> <Gold.Chemscore.Hbond.Weighted>
-5.2034

> <Gold.Chemscore.Metal.Weighted>
-0.0000

> <Gold.Chemscore.Lipo.Weighted>
-8.8625

> <Gold.Chemscore.Internal_Hbond.Weighted>
0.0000

> <Gold.Chemscore.DEClash.Weighted>
0.1220

> <Gold.Chemscore.DEInternal.Weighted>
0.0086

> <Gold.Chemscore.Rot.Weighted>
3.1681

> <Gold.Chemscore.Internal.Correction.Weighted>
   9.000000E+99

> <Gold.Protein.RotatedTorsions>
[ 6907 6896 6895 6894 ] final   85.86 input  -60.11 | X-H torsion
[ 7974 7965 7964 7962 ] final   94.51 input  175.53 | X-H torsion
[ 8008 7997 7996 7995 ] final  -37.29 input   59.86 | X-H torsion
[ 10167 10162 10161 10158 ] final  -68.27 input  -65.29 | X-H torsion
[ 10718 10713 10712 10709 ] final    3.67 input   66.30 | X-H torsion
[ 10763 10752 10751 10750 ] final  100.91 input  -60.55 | X-H torsion
[ 11005 11000 10999 10996 ] final  -75.31 input  -57.11 | X-H torsion

> <Gold.Protein.ActiveResidues>
 VAL166  LYS551  ARG553  GLY616  TRP617  ASP618  TYR619  PRO620  LYS621  CYS622 
 ASP623  PHE694  ASN695  SER759  ASP760  ASP761  ALA762  ILE779  LEU786  VAL792 
 PHE793  MET794  SER795  GLU796  ALA797  LYS798  CYS799  TRP800  GLU811  SER814 

> <Gold.Protein.RotatedAtoms>
  152.5383  134.2520  159.8902 H   0  0  0  0  0  0  0  0  0  0  0  0  # atno 6907 bound_to 6896
  151.2483  133.4356  159.2618 H   0  0  0  0  0  0  0  0  0  0  0  0  # atno 6908 bound_to 6896
  151.0563  134.9720  159.8293 H   0  0  0  0  0  0  0  0  0  0  0  0  # atno 6909 bound_to 6896
  145.4646  139.2285  143.2968 H   0  0  0  0  0  0  0  0  0  0  0  0  # atno 7974 bound_to 7965
  154.4056  140.1608  156.2513 H   0  0  0  0  0  0  0  0  0  0  0  0  # atno 8008 bound_to 7997
  155.9116  140.3427  155.6081 H   0  0  0  0  0  0  0  0  0  0  0  0  # atno 8009 bound_to 7997
  155.7328  140.0782  157.2271 H   0  0  0  0  0  0  0  0  0  0  0  0  # atno 8010 bound_to 7997
  140.5520  143.2312  151.6892 H   0  0  0  0  0  0  0  0  0  0  0  0  # atno 10167 bound_to 10162
  156.8813  130.5654  149.5653 H   0  0  0  0  0  0  0  0  0  0  0  0  # atno 10718 bound_to 10713
  153.3200  135.4062  155.1408 H   0  0  0  0  0  0  0  0  0  0  0  0  # atno 10763 bound_to 10752
  154.8598  135.3585  154.5610 H   0  0  0  0  0  0  0  0  0  0  0  0  # atno 10764 bound_to 10752
  153.6042  135.7070  153.5431 H   0  0  0  0  0  0  0  0  0  0  0  0  # atno 10765 bound_to 10752
  141.1644  133.6942  156.7497 H   0  0  0  0  0  0  0  0  0  0  0  0  # atno 11005 bound_to 11000
  146.2431  140.5419  142.8925 LP  0  0  0  0  0  0  0  0  0  0  0  0  # atno 17320 bound_to 7965
  144.7982  140.6162  143.6496 LP  0  0  0  0  0  0  0  0  0  0  0  0  # atno 17321 bound_to 7965
  139.5031  144.3802  152.0384 LP  0  0  0  0  0  0  0  0  0  0  0  0  # atno 17342 bound_to 10162
  140.2920  144.3743  150.6086 LP  0  0  0  0  0  0  0  0  0  0  0  0  # atno 17343 bound_to 10162
  156.0676  130.5716  150.9319 LP  0  0  0  0  0  0  0  0  0  0  0  0  # atno 17370 bound_to 10713
  157.6139  131.0934  150.8746 LP  0  0  0  0  0  0  0  0  0  0  0  0  # atno 17371 bound_to 10713
  140.2613  134.8464  157.3761 LP  0  0  0  0  0  0  0  0  0  0  0  0  # atno 17394 bound_to 11000
  140.1608  134.4731  155.7896 LP  0  0  0  0  0  0  0  0  0  0  0  0  # atno 17395 bound_to 11000

$$$$
