AV-unprocessed.smi:2858|AV-procd|sdf|11001|dock7
  -GOLD-   2272015453D 1   1.00000     0.00000
 Structure written by MMmdl.
 39 40  0  0  0  0  0  0  0  0  1 V2000
  143.4367  146.4348  153.4395 O   0  0  0  0  0  0  0  0  0  0  0  0
  143.8791  145.4372  154.0047 C   0  0  0  0  0  0  0  0  0  0  0  0
  145.0652  144.6727  153.3913 C   0  0  0  0  0  0  0  0  0  0  0  0
  145.3176  143.3270  153.9623 N   0  0  0  0  0  0  0  0  0  0  0  0
  146.5989  142.8155  153.4676 C   0  0  0  0  0  0  0  0  0  0  0  0
  146.8504  141.3396  153.8364 C   0  0  0  0  0  0  0  0  0  0  0  0
  148.3245  141.0363  154.1594 C   0  0  0  0  0  0  0  0  0  0  0  0
  148.8596  141.9655  155.1480 N   0  0  0  0  0  0  0  0  0  0  0  0
  149.9181  141.7267  155.9360 C   0  0  0  0  0  0  0  0  0  0  0  0
  150.5668  140.6806  155.9019 O   0  0  0  0  0  0  0  0  0  0  0  0
  150.1656  142.7698  156.7482 N   0  0  0  0  0  0  0  0  0  0  0  0
  151.1809  142.8943  157.7342 C   0  0  0  0  0  0  0  0  0  0  0  0
  151.4788  144.2203  158.1226 C   0  0  0  0  0  0  0  0  0  0  0  0
  152.4695  144.4512  159.0965 C   0  0  0  0  0  0  0  0  0  0  0  0
  153.1374  143.3489  159.6588 C   0  0  0  0  0  0  0  0  0  0  0  0
  152.7810  142.0617  159.2163 C   0  0  0  0  0  0  0  0  0  0  0  0
  151.8324  141.8382  158.2824 N   0  0  0  0  0  0  0  0  0  0  0  0
  145.2441  143.3675  155.4244 C   0  0  0  0  0  0  0  0  0  0  0  0
  143.8253  143.7905  155.8482 C   0  0  0  0  0  0  0  0  0  0  0  0
  143.3766  145.0004  155.1690 N   0  0  0  0  0  0  0  0  0  0  0  0
  144.9058  144.5840  152.3157 H   0  0  0  0  0  0  0  0  0  0  0  0
  145.9486  145.2988  153.5287 H   0  0  0  0  0  0  0  0  0  0  0  0
  146.6243  142.8939  152.3794 H   0  0  0  0  0  0  0  0  0  0  0  0
  147.4144  143.4396  153.8371 H   0  0  0  0  0  0  0  0  0  0  0  0
  146.2455  141.1080  154.7138 H   0  0  0  0  0  0  0  0  0  0  0  0
  146.4913  140.6698  153.0564 H   0  0  0  0  0  0  0  0  0  0  0  0
  148.4196  140.0290  154.5649 H   0  0  0  0  0  0  0  0  0  0  0  0
  148.9295  141.0624  153.2515 H   0  0  0  0  0  0  0  0  0  0  0  0
  148.3858  142.8519  155.2414 H   0  0  0  0  0  0  0  0  0  0  0  0
  149.5513  143.5650  156.6562 H   0  0  0  0  0  0  0  0  0  0  0  0
  150.9552  145.0559  157.6813 H   0  0  0  0  0  0  0  0  0  0  0  0
  152.7116  145.4570  159.4064 H   0  0  0  0  0  0  0  0  0  0  0  0
  153.9021  143.4859  160.4089 H   0  0  0  0  0  0  0  0  0  0  0  0
  153.2696  141.1882  159.6220 H   0  0  0  0  0  0  0  0  0  0  0  0
  145.4588  142.3937  155.8616 H   0  0  0  0  0  0  0  0  0  0  0  0
  145.9855  144.0650  155.8184 H   0  0  0  0  0  0  0  0  0  0  0  0
  143.1163  142.9928  155.6232 H   0  0  0  0  0  0  0  0  0  0  0  0
  143.7865  143.9512  156.9257 H   0  0  0  0  0  0  0  0  0  0  0  0
  142.6125  145.5127  155.5854 H   0  0  0  0  0  0  0  0  0  0  0  0
  1  2  2  0  0  0  0
  2 20  1  0  0  0  0
  2  3  1  0  0  0  0
  3  4  1  0  0  0  0
  3 21  1  0  0  0  0
  3 22  1  0  0  0  0
  4  5  1  0  0  0  0
  4 18  1  0  0  0  0
  5  6  1  0  0  0  0
  5 23  1  0  0  0  0
  5 24  1  0  0  0  0
  6  7  1  0  0  0  0
  6 25  1  0  0  0  0
  6 26  1  0  0  0  0
  7  8  1  0  0  0  0
  7 27  1  0  0  0  0
  7 28  1  0  0  0  0
  8  9  1  0  0  0  0
  8 29  1  0  0  0  0
  9 10  2  0  0  0  0
  9 11  1  0  0  0  0
 11 12  1  0  0  0  0
 11 30  1  0  0  0  0
 12 17  1  0  0  0  0
 12 13  2  0  0  0  0
 13 14  1  0  0  0  0
 13 31  1  0  0  0  0
 14 15  2  0  0  0  0
 14 32  1  0  0  0  0
 15 16  1  0  0  0  0
 15 33  1  0  0  0  0
 16 17  2  0  0  0  0
 16 34  1  0  0  0  0
 18 19  1  0  0  0  0
 18 35  1  0  0  0  0
 18 36  1  0  0  0  0
 19 20  1  0  0  0  0
 19 37  1  0  0  0  0
 19 38  1  0  0  0  0
 20 39  1  0  0  0  0
M  END
> <s_m_source_file>
AV-unprocessed.smi

> <i_m_source_file_index>
2858

> <i_lp_mmshare_version>
43012

> <i_f3d_flags>
0

> <s_epik_input>
Tz1DMVtDSDJdTihbQ0gyXVtDSDJdW05IXTEpW0NIMl1bQ0gyXVtDSDJdW05IXUMoPU8pW05IXWMyW2NIXVtjSF1bY0hdW2NIXW4y

> <s_epik_cmdline>
J2VwaWtfcHl0aG9uJywgJy1waCcsICc3LjAnLCAnLXRuJywgJzgnLCAnLW1hJywgJzIwMCcsICctbWV0YWxfYmluZGluZycsICctaW1hZScsICc8aW5maWxlLm1hZT4nLCAnLW9tYWUnLCAnPG91dGZpbGUubWFlPic=

> <r_epik_Ionization_Penalty>
1.05093

> <r_epik_Ionization_Penalty_Charging>
0

> <r_epik_Ionization_Penalty_Neutral>
1.05093

> <r_epik_State_Penalty>
1.10373

> <r_epik_Charging_Adjusted_Penalty>
1.10373

> <i_epik_Tot_Q>
0

> <i_epik_Tot_abs_Q>
0

> <r_epik_Metal_State_Penalty>
1.17671

> <b_epik_Metal_Only>
0

> <s_lp_Force_Field>
OPLS_2005

> <r_lp_Energy>
22.2327

> <b_lp_Chiralities_Consistent>
1

> <s_lp_Variant>
AV-unprocessed.smi:2858-3

> <Gold.Version>
5.8.1

> <Gold.Id.Protein>
6NUR|6NUR_protein|mol2

> <Gold.PLP.Fitness>
48.3403

> <Gold.PLP.PLP>
-44.0431

> <Gold.PLP.part.hbond>
-3.9273

> <Gold.PLP.part.metal>
0.0000

> <Gold.PLP.part.buried>
-8.1562

> <Gold.PLP.part.nonpolar>
-33.5219

> <Gold.PLP.part.repulsive>
0.6126

> <Gold.PLP.ligand.clash>
0.0000

> <Gold.PLP.ligand.torsion>
0.5403

> <Gold.PLP.Chemscore.Hbond>
1.7840

> <Gold.PLP.Chemscore.CHOScore>
0.0000

> <Gold.PLP.Chemscore.Metal>
0.0000

> <Gold.Chemscore.Hbonds>
donor molecule, donor type, donor heavy atom, donor atom, acceptor molecule, acceptor atom, score
      L1  H     8    29       P1  8028  0.77
      L1  H    11    30       P1  8028  0.98

> <Gold.PLP.Chemscore.Internal.Correction>
0.0259

> <Gold.Rescore>
     Score         DG    S(hbond)    S(metal)    S(lipo)     H(rot)  DE(clash)    DE(int)     intcor
     13.75     -15.70       1.61        0.00      85.63       2.02       0.19       1.76       ----

> <Gold.Chemscore.Fitness>
13.7462

> <Gold.Chemscore.DG>
-15.7015

> <Gold.Chemscore.ZeroCoef>
-5.4800

> <Gold.Chemscore.Hbond>
1.6098

> <Gold.Chemscore.Metal>
0.0000

> <Gold.Chemscore.Lipo>
85.6337

> <Gold.Chemscore.Internal_Hbond>
0.0000

> <Gold.Chemscore.DEClash>
0.1935

> <Gold.Chemscore.DEInternal>
1.7618

> <Gold.Chemscore.Rot>
2.0213

> <Gold.Chemscore.Internal.Correction>
   9.000000E+99

> <Gold.Chemscore.Hbonds>
donor molecule, donor type, donor heavy atom, donor atom, acceptor molecule, acceptor atom, score
      L1  H     8    29       P1  8028  0.75
      L1  H    11    30       P1  8028  0.92

> <Gold.Chemscore.Hbond.Weighted>
-5.3768

> <Gold.Chemscore.Metal.Weighted>
-0.0000

> <Gold.Chemscore.Lipo.Weighted>
-10.0191

> <Gold.Chemscore.Internal_Hbond.Weighted>
0.0000

> <Gold.Chemscore.DEClash.Weighted>
0.1935

> <Gold.Chemscore.DEInternal.Weighted>
1.7618

> <Gold.Chemscore.Rot.Weighted>
5.1744

> <Gold.Chemscore.Internal.Correction.Weighted>
   9.000000E+99

> <Gold.Protein.RotatedTorsions>
[ 6907 6896 6895 6894 ] final -171.19 input  -60.11 | X-H torsion
[ 7974 7965 7964 7962 ] final   66.83 input  175.53 | X-H torsion
[ 8008 7997 7996 7995 ] final  113.49 input   59.86 | X-H torsion
[ 10167 10162 10161 10158 ] final   21.93 input  -65.29 | X-H torsion
[ 10718 10713 10712 10709 ] final -121.13 input   66.30 | X-H torsion
[ 10763 10752 10751 10750 ] final    2.17 input  -60.55 | X-H torsion
[ 11005 11000 10999 10996 ] final  -20.95 input  -57.11 | X-H torsion

> <Gold.Protein.ActiveResidues>
 VAL166  LYS551  ARG553  GLY616  TRP617  ASP618  TYR619  PRO620  LYS621  CYS622 
 ASP623  PHE694  ASN695  SER759  ASP760  ASP761  ALA762  ILE779  LEU786  VAL792 
 PHE793  MET794  SER795  GLU796  ALA797  LYS798  CYS799  TRP800  GLU811  SER814 

> <Gold.Protein.RotatedAtoms>
  151.5198  133.3468  159.2899 H   0  0  0  0  0  0  0  0  0  0  0  0  # atno 6907 bound_to 6896
  150.8660  134.8025  159.7129 H   0  0  0  0  0  0  0  0  0  0  0  0  # atno 6908 bound_to 6896
  152.4664  134.5074  159.9795 H   0  0  0  0  0  0  0  0  0  0  0  0  # atno 6909 bound_to 6896
  145.8219  139.3090  143.1038 H   0  0  0  0  0  0  0  0  0  0  0  0  # atno 7974 bound_to 7965
  156.2261  140.2978  156.0072 H   0  0  0  0  0  0  0  0  0  0  0  0  # atno 8008 bound_to 7997
  155.2351  140.0420  157.2984 H   0  0  0  0  0  0  0  0  0  0  0  0  # atno 8009 bound_to 7997
  154.5919  140.2403  155.7917 H   0  0  0  0  0  0  0  0  0  0  0  0  # atno 8010 bound_to 7997
  140.5388  143.9713  150.6507 H   0  0  0  0  0  0  0  0  0  0  0  0  # atno 10167 bound_to 10162
  156.1313  130.6397  150.9625 H   0  0  0  0  0  0  0  0  0  0  0  0  # atno 10718 bound_to 10713
  153.2989  135.6954  153.7222 H   0  0  0  0  0  0  0  0  0  0  0  0  # atno 10763 bound_to 10752
  153.6144  135.3438  155.2990 H   0  0  0  0  0  0  0  0  0  0  0  0  # atno 10764 bound_to 10752
  154.8545  135.4371  154.2094 H   0  0  0  0  0  0  0  0  0  0  0  0  # atno 10765 bound_to 10752
  140.8514  133.7854  155.9970 H   0  0  0  0  0  0  0  0  0  0  0  0  # atno 11005 bound_to 11000
  145.9665  140.8794  143.0184 LP  0  0  0  0  0  0  0  0  0  0  0  0  # atno 17320 bound_to 7965
  144.6747  140.1886  143.7399 LP  0  0  0  0  0  0  0  0  0  0  0  0  # atno 17321 bound_to 7965
  140.3108  143.3199  152.0881 LP  0  0  0  0  0  0  0  0  0  0  0  0  # atno 17342 bound_to 10162
  139.4981  144.6637  151.6405 LP  0  0  0  0  0  0  0  0  0  0  0  0  # atno 17343 bound_to 10162
  157.6490  131.0900  150.8091 LP  0  0  0  0  0  0  0  0  0  0  0  0  # atno 17370 bound_to 10713
  156.8176  130.4973  149.5347 LP  0  0  0  0  0  0  0  0  0  0  0  0  # atno 17371 bound_to 10713
  140.8786  134.2639  157.5155 LP  0  0  0  0  0  0  0  0  0  0  0  0  # atno 17394 bound_to 11000
  139.8704  134.9604  156.4361 LP  0  0  0  0  0  0  0  0  0  0  0  0  # atno 17395 bound_to 11000

$$$$
