AV-unprocessed.smi:3322|AV-procd|sdf|12776|dock5
  -GOLD-   2272019123D 1   1.00000     0.00000
 Structure written by MMmdl.
 38 39  0  0  0  0  0  0  0  0  1 V2000
  151.4263  139.0563  156.8602 C   0  0  0  0  0  0  0  0  0  0  0  0
  150.6691  140.3910  156.7638 C   0  0  1  0  0  0  0  0  0  0  0  0
  151.5837  141.4893  157.1288 N   0  0  0  0  0  0  0  0  0  0  0  0
  152.1188  141.3828  158.4832 C   0  0  0  0  0  0  0  0  0  0  0  0
  152.7305  142.7246  158.9195 C   0  0  0  0  0  0  0  0  0  0  0  0
  152.7786  142.8672  160.3646 N   0  0  0  0  0  0  0  0  0  0  0  0
  153.3706  142.0303  161.2870 C   0  0  0  0  0  0  0  0  0  0  0  0
  153.1660  142.5764  162.5217 C   0  0  0  0  0  0  0  0  0  0  0  0
  152.4292  143.7629  162.2485 C   0  0  0  0  0  0  0  0  0  0  0  0
  152.1991  143.9342  160.9568 N   0  0  0  0  0  0  0  0  0  0  0  0
  150.0401  140.5439  155.3578 C   0  0  0  0  0  0  0  0  0  0  0  0
  150.6639  140.1015  154.3911 O   0  0  0  0  0  0  0  0  0  0  0  0
  148.8316  141.1441  155.2095 N   0  0  0  0  0  0  0  0  0  0  0  0
  148.2005  141.3393  153.8991 C   0  0  0  0  0  0  0  0  0  0  0  0
  146.9069  140.5083  153.8467 C   0  0  0  0  0  0  0  0  0  0  0  0
  146.0406  140.9133  154.9026 O   0  0  0  0  0  0  0  0  0  0  0  0
  146.6284  140.7611  156.1915 C   0  0  0  0  0  0  0  0  0  0  0  0
  147.9264  141.5853  156.2778 C   0  0  0  0  0  0  0  0  0  0  0  0
  150.7750  138.2055  156.6593 H   0  0  0  0  0  0  0  0  0  0  0  0
  151.8435  138.9148  157.8579 H   0  0  0  0  0  0  0  0  0  0  0  0
  152.2521  139.0144  156.1485 H   0  0  0  0  0  0  0  0  0  0  0  0
  149.8832  140.3943  157.5174 H   0  0  0  0  0  0  0  0  0  0  0  0
  152.3535  141.5579  156.4780 H   0  0  0  0  0  0  0  0  0  0  0  0
  151.3292  141.1070  159.1820 H   0  0  0  0  0  0  0  0  0  0  0  0
  152.8766  140.5994  158.5288 H   0  0  0  0  0  0  0  0  0  0  0  0
  153.7344  142.8473  158.5090 H   0  0  0  0  0  0  0  0  0  0  0  0
  152.1321  143.5453  158.5227 H   0  0  0  0  0  0  0  0  0  0  0  0
  153.8834  141.1271  160.9908 H   0  0  0  0  0  0  0  0  0  0  0  0
  153.4930  142.1882  163.4748 H   0  0  0  0  0  0  0  0  0  0  0  0
  152.0578  144.4999  162.9452 H   0  0  0  0  0  0  0  0  0  0  0  0
  147.9724  142.3973  153.7624 H   0  0  0  0  0  0  0  0  0  0  0  0
  148.8469  141.0632  153.0651 H   0  0  0  0  0  0  0  0  0  0  0  0
  146.3982  140.6602  152.8947 H   0  0  0  0  0  0  0  0  0  0  0  0
  147.1248  139.4422  153.9276 H   0  0  0  0  0  0  0  0  0  0  0  0
  145.9165  141.0993  156.9445 H   0  0  0  0  0  0  0  0  0  0  0  0
  146.8242  139.7059  156.3881 H   0  0  0  0  0  0  0  0  0  0  0  0
  148.3311  141.4859  157.2815 H   0  0  0  0  0  0  0  0  0  0  0  0
  147.7069  142.6459  156.1472 H   0  0  0  0  0  0  0  0  0  0  0  0
  1  2  1  0  0  0  0
  1 19  1  0  0  0  0
  1 20  1  0  0  0  0
  1 21  1  0  0  0  0
  2  3  1  0  0  0  0
  2 11  1  0  0  0  0
  2 22  1  0  0  0  0
  3  4  1  0  0  0  0
  3 23  1  0  0  0  0
  4  5  1  0  0  0  0
  4 24  1  0  0  0  0
  4 25  1  0  0  0  0
  5  6  1  0  0  0  0
  5 26  1  0  0  0  0
  5 27  1  0  0  0  0
  6 10  1  0  0  0  0
  6  7  1  0  0  0  0
  7  8  2  0  0  0  0
  7 28  1  0  0  0  0
  8  9  1  0  0  0  0
  8 29  1  0  0  0  0
  9 10  2  0  0  0  0
  9 30  1  0  0  0  0
 11 12  2  0  0  0  0
 11 13  1  0  0  0  0
 13 18  1  0  0  0  0
 13 14  1  0  0  0  0
 14 15  1  0  0  0  0
 14 31  1  0  0  0  0
 14 32  1  0  0  0  0
 15 16  1  0  0  0  0
 15 33  1  0  0  0  0
 15 34  1  0  0  0  0
 16 17  1  0  0  0  0
 17 18  1  0  0  0  0
 17 35  1  0  0  0  0
 17 36  1  0  0  0  0
 18 37  1  0  0  0  0
 18 38  1  0  0  0  0
M  END
> <s_m_source_file>
AV-unprocessed.smi

> <i_m_source_file_index>
3322

> <i_lp_mmshare_version>
43012

> <i_f3d_flags>
0

> <s_epik_input>
W0NIMl0xW0NIMl1PW0NIMl1bQ0gyXU4xQyg9TylbQ0BIXShbQ0gzXSlbTkhdW0NIMl1bQ0gyXW4yW2NIXVtjSF1bY0hdbjI=

> <s_epik_cmdline>
J2VwaWtfcHl0aG9uJywgJy1waCcsICc3LjAnLCAnLXRuJywgJzgnLCAnLW1hJywgJzIwMCcsICctbWV0YWxfYmluZGluZycsICctaW1hZScsICc8aW5maWxlLm1hZT4nLCAnLW9tYWUnLCAnPG91dGZpbGUubWFlPic=

> <r_lp_tautomer_probability>
1

> <r_epik_Ionization_Penalty>
0.511228

> <r_epik_Ionization_Penalty_Charging>
0

> <r_epik_Ionization_Penalty_Neutral>
0.511228

> <r_epik_State_Penalty>
0.51753

> <r_epik_Charging_Adjusted_Penalty>
0.51753

> <i_epik_Tot_Q>
0

> <i_epik_Tot_abs_Q>
0

> <r_epik_Metal_State_Penalty>
0.517012

> <b_epik_Metal_Only>
0

> <s_lp_Force_Field>
OPLS_2005

> <r_lp_Energy>
27.6931

> <b_lp_Chiralities_Consistent>
1

> <s_lp_Variant>
AV-unprocessed.smi:3322-4

> <Gold.Version>
5.8.1

> <Gold.Id.Protein>
6NUR|6NUR_protein|mol2

> <Gold.PLP.Fitness>
38.3793

> <Gold.PLP.PLP>
-37.1302

> <Gold.PLP.part.hbond>
-0.9933

> <Gold.PLP.part.metal>
0.0000

> <Gold.PLP.part.buried>
-3.1818

> <Gold.PLP.part.nonpolar>
-31.5626

> <Gold.PLP.part.repulsive>
0.3316

> <Gold.PLP.ligand.clash>
0.0000

> <Gold.PLP.ligand.torsion>
0.9210

> <Gold.PLP.Chemscore.Hbond>
1.0000

> <Gold.PLP.Chemscore.CHOScore>
0.0000

> <Gold.PLP.Chemscore.Metal>
0.0000

> <Gold.Chemscore.Hbonds>
donor molecule, donor type, donor heavy atom, donor atom, acceptor molecule, acceptor atom, score
      P1  H  7989  7998       L1    12  0.98

> <Gold.PLP.Chemscore.Internal.Correction>
0.0911

> <Gold.Rescore>
     Score         DG    S(hbond)    S(metal)    S(lipo)     H(rot)  DE(clash)    DE(int)     intcor
     13.02     -13.94       0.99        0.00      84.39       1.84       0.05       0.86       ----

> <Gold.Chemscore.Fitness>
13.0183

> <Gold.Chemscore.DG>
-13.9360

> <Gold.Chemscore.ZeroCoef>
-5.4800

> <Gold.Chemscore.Hbond>
0.9891

> <Gold.Chemscore.Metal>
0.0000

> <Gold.Chemscore.Lipo>
84.3908

> <Gold.Chemscore.Internal_Hbond>
0.0000

> <Gold.Chemscore.DEClash>
0.0543

> <Gold.Chemscore.DEInternal>
0.8634

> <Gold.Chemscore.Rot>
1.8442

> <Gold.Chemscore.Internal.Correction>
   9.000000E+99

> <Gold.Chemscore.Hbonds>
donor molecule, donor type, donor heavy atom, donor atom, acceptor molecule, acceptor atom, score
      P1  H  7989  7998       L1    12  0.92

> <Gold.Chemscore.Hbond.Weighted>
-3.3034

> <Gold.Chemscore.Metal.Weighted>
-0.0000

> <Gold.Chemscore.Lipo.Weighted>
-9.8737

> <Gold.Chemscore.Internal_Hbond.Weighted>
0.0000

> <Gold.Chemscore.DEClash.Weighted>
0.0543

> <Gold.Chemscore.DEInternal.Weighted>
0.8634

> <Gold.Chemscore.Rot.Weighted>
4.7212

> <Gold.Chemscore.Internal.Correction.Weighted>
   9.000000E+99

> <Gold.Protein.RotatedTorsions>
[ 6907 6896 6895 6894 ] final  127.47 input  -60.11 | X-H torsion
[ 7974 7965 7964 7962 ] final  129.41 input  175.53 | X-H torsion
[ 8008 7997 7996 7995 ] final -148.75 input   59.86 | X-H torsion
[ 10167 10162 10161 10158 ] final   10.41 input  -65.29 | X-H torsion
[ 10718 10713 10712 10709 ] final -153.98 input   66.30 | X-H torsion
[ 10763 10752 10751 10750 ] final  -12.57 input  -60.55 | X-H torsion
[ 11005 11000 10999 10996 ] final   56.36 input  -57.11 | X-H torsion

> <Gold.Protein.ActiveResidues>
 VAL166  LYS551  ARG553  GLY616  TRP617  ASP618  TYR619  PRO620  LYS621  CYS622 
 ASP623  PHE694  ASN695  SER759  ASP760  ASP761  ALA762  ILE779  LEU786  VAL792 
 PHE793  MET794  SER795  GLU796  ALA797  LYS798  CYS799  TRP800  GLU811  SER814 

> <Gold.Protein.RotatedAtoms>
  152.3810  133.6545  159.6160 H   0  0  0  0  0  0  0  0  0  0  0  0  # atno 6907 bound_to 6896
  150.7741  133.9114  159.3379 H   0  0  0  0  0  0  0  0  0  0  0  0  # atno 6908 bound_to 6896
  151.6920  135.0946  160.0286 H   0  0  0  0  0  0  0  0  0  0  0  0  # atno 6909 bound_to 6896
  145.0289  139.4064  143.5159 H   0  0  0  0  0  0  0  0  0  0  0  0  # atno 7974 bound_to 7965
  155.5967  140.0658  157.2744 H   0  0  0  0  0  0  0  0  0  0  0  0  # atno 8008 bound_to 7997
  154.4290  140.1825  156.1178 H   0  0  0  0  0  0  0  0  0  0  0  0  # atno 8009 bound_to 7997
  156.0191  140.3318  155.7023 H   0  0  0  0  0  0  0  0  0  0  0  0  # atno 8010 bound_to 7997
  140.6196  143.8234  150.7159 H   0  0  0  0  0  0  0  0  0  0  0  0  # atno 10167 bound_to 10162
  156.4931  130.8357  151.2579 H   0  0  0  0  0  0  0  0  0  0  0  0  # atno 10718 bound_to 10713
  153.5004  135.7017  153.5835 H   0  0  0  0  0  0  0  0  0  0  0  0  # atno 10763 bound_to 10752
  153.3968  135.3882  155.1961 H   0  0  0  0  0  0  0  0  0  0  0  0  # atno 10764 bound_to 10752
  154.8711  135.3872  154.4474 H   0  0  0  0  0  0  0  0  0  0  0  0  # atno 10765 bound_to 10752
  140.0535  134.5703  155.9235 H   0  0  0  0  0  0  0  0  0  0  0  0  # atno 11005 bound_to 11000
  146.3496  139.9829  142.8694 LP  0  0  0  0  0  0  0  0  0  0  0  0  # atno 17320 bound_to 7965
  145.1796  140.9761  143.4274 LP  0  0  0  0  0  0  0  0  0  0  0  0  # atno 17321 bound_to 7965
  140.1821  143.4106  152.1925 LP  0  0  0  0  0  0  0  0  0  0  0  0  # atno 17342 bound_to 10162
  139.5427  144.7271  151.4682 LP  0  0  0  0  0  0  0  0  0  0  0  0  # atno 17343 bound_to 10162
  157.7471  131.0007  150.2934 LP  0  0  0  0  0  0  0  0  0  0  0  0  # atno 17370 bound_to 10713
  156.3406  130.3815  149.7412 LP  0  0  0  0  0  0  0  0  0  0  0  0  # atno 17371 bound_to 10713
  141.1941  133.6581  156.5581 LP  0  0  0  0  0  0  0  0  0  0  0  0  # atno 17394 bound_to 11000
  140.3880  134.7465  157.4703 LP  0  0  0  0  0  0  0  0  0  0  0  0  # atno 17395 bound_to 11000

$$$$
