AV-unprocessed.smi:3181|AV-procd|sdf|12145|dock5
  -GOLD-   2272017583D 1   1.00000     0.00000
 Structure written by MMmdl.
 42 43  0  0  0  0  0  0  0  0  2 V2000
  147.8191  142.0123  154.3226 C   0  0  0  0  0  0  0  0  0  0  0  0
  149.2110  141.3646  154.4218 C   0  0  2  0  0  0  0  0  0  0  0  0
  149.1471  139.8278  154.5376 C   0  0  0  0  0  0  0  0  0  0  0  0
  150.4555  139.2000  154.4987 N   0  0  0  0  0  0  0  0  0  0  0  0
  150.8108  137.9488  154.2020 C   0  0  0  0  0  0  0  0  0  0  0  0
  152.1161  137.7308  154.2806 N   0  0  0  0  0  0  0  0  0  0  0  0
  152.5332  138.9738  154.6651 C   0  0  0  0  0  0  0  0  0  0  0  0
  151.5765  139.8906  154.8138 N   0  0  0  0  0  0  0  0  0  0  0  0
  149.9426  141.9187  155.5838 N   0  3  0  0  0  0  0  0  0  0  0  0
  149.5435  141.3991  156.9136 C   0  0  1  0  0  0  0  0  0  0  0  0
  150.5791  140.4189  157.4987 C   0  0  0  0  0  0  0  0  0  0  0  0
  151.8782  141.1310  157.9040 C   0  0  0  0  0  0  0  0  0  0  0  0
  151.6233  142.2817  158.8977 C   0  0  1  0  0  0  0  0  0  0  0  0
  152.9591  142.9434  159.2808 C   0  0  0  0  0  0  0  0  0  0  0  0
  150.5921  143.2869  158.3197 C   0  0  2  0  0  0  0  0  0  0  0  0
  150.2513  144.4239  159.2998 C   0  0  0  0  0  0  0  0  0  0  0  0
  149.2962  142.5603  157.8938 C   0  0  0  0  0  0  0  0  0  0  0  0
  147.2857  141.6812  153.4311 H   0  0  0  0  0  0  0  0  0  0  0  0
  147.8914  143.0985  154.2675 H   0  0  0  0  0  0  0  0  0  0  0  0
  147.2040  141.7644  155.1883 H   0  0  0  0  0  0  0  0  0  0  0  0
  149.7559  141.6052  153.5075 H   0  0  0  0  0  0  0  0  0  0  0  0
  148.6600  139.5385  155.4701 H   0  0  0  0  0  0  0  0  0  0  0  0
  148.5443  139.4125  153.7284 H   0  0  0  0  0  0  0  0  0  0  0  0
  150.1028  137.1831  153.9199 H   0  0  0  0  0  0  0  0  0  0  0  0
  153.5724  139.2096  154.8415 H   0  0  0  0  0  0  0  0  0  0  0  0
  150.9319  141.7609  155.4557 H   0  0  0  0  0  0  0  0  0  0  0  0
  148.5961  140.8738  156.7828 H   0  0  0  0  0  0  0  0  0  0  0  0
  150.1527  139.9386  158.3804 H   0  0  0  0  0  0  0  0  0  0  0  0
  150.7969  139.6119  156.7993 H   0  0  0  0  0  0  0  0  0  0  0  0
  152.5600  140.4040  158.3468 H   0  0  0  0  0  0  0  0  0  0  0  0
  152.3797  141.5148  157.0148 H   0  0  0  0  0  0  0  0  0  0  0  0
  151.2014  141.8477  159.8056 H   0  0  0  0  0  0  0  0  0  0  0  0
  153.4047  143.4618  158.4313 H   0  0  0  0  0  0  0  0  0  0  0  0
  153.6774  142.2002  159.6279 H   0  0  0  0  0  0  0  0  0  0  0  0
  152.8380  143.6638  160.0891 H   0  0  0  0  0  0  0  0  0  0  0  0
  151.0275  143.7457  157.4309 H   0  0  0  0  0  0  0  0  0  0  0  0
  149.8777  144.0334  160.2471 H   0  0  0  0  0  0  0  0  0  0  0  0
  149.4841  145.0795  158.8874 H   0  0  0  0  0  0  0  0  0  0  0  0
  151.1177  145.0491  159.5126 H   0  0  0  0  0  0  0  0  0  0  0  0
  148.5958  143.2703  157.4521 H   0  0  0  0  0  0  0  0  0  0  0  0
  148.8013  142.1680  158.7837 H   0  0  0  0  0  0  0  0  0  0  0  0
  149.7810  142.9156  155.5900 H   0  0  0  0  0  0  0  0  0  0  0  0
  1  2  1  0  0  0  0
  1 18  1  0  0  0  0
  1 19  1  0  0  0  0
  1 20  1  0  0  0  0
  2  3  1  0  0  0  0
  2  9  1  0  0  0  0
  2 21  1  0  0  0  0
  3  4  1  0  0  0  0
  3 22  1  0  0  0  0
  3 23  1  0  0  0  0
  4  8  1  0  0  0  0
  4  5  1  0  0  0  0
  5  6  2  0  0  0  0
  5 24  1  0  0  0  0
  6  7  1  0  0  0  0
  7  8  2  0  0  0  0
  7 25  1  0  0  0  0
  9 10  1  0  0  0  0
  9 26  1  0  0  0  0
  9 42  1  0  0  0  0
 10 17  1  0  0  0  0
 10 11  1  0  0  0  0
 10 27  1  0  0  0  0
 11 12  1  0  0  0  0
 11 28  1  0  0  0  0
 11 29  1  0  0  0  0
 12 13  1  0  0  0  0
 12 30  1  0  0  0  0
 12 31  1  0  0  0  0
 13 14  1  0  0  0  0
 13 15  1  0  0  0  0
 13 32  1  0  0  0  0
 14 33  1  0  0  0  0
 14 34  1  0  0  0  0
 14 35  1  0  0  0  0
 15 16  1  0  0  0  0
 15 17  1  0  0  0  0
 15 36  1  0  0  0  0
 16 37  1  0  0  0  0
 16 38  1  0  0  0  0
 16 39  1  0  0  0  0
 17 40  1  0  0  0  0
 17 41  1  0  0  0  0
M  CHG  1   9   1
M  END
> <s_m_source_file>
AV-unprocessed.smi

> <i_m_source_file_index>
3181

> <i_lp_mmshare_version>
43012

> <i_f3d_flags>
0

> <s_epik_input>
bjFbY0hdbltjSF1uMVtDSDJdW0NAQEhdKFtDSDNdKVtOSF1bQ0BASF0yW0NIMl1bQ0gyXVtDQEBIXShbQ0gzXSlbQ0BASF0oW0NIM10pW0NIMl0y

> <s_epik_cmdline>
J2VwaWtfcHl0aG9uJywgJy1waCcsICc3LjAnLCAnLXRuJywgJzgnLCAnLW1hJywgJzIwMCcsICctbWV0YWxfYmluZGluZycsICctaW1hZScsICc8aW5maWxlLm1hZT4nLCAnLW9tYWUnLCAnPG91dGZpbGUubWFlPic=

> <r_lp_tautomer_probability>
1

> <r_epik_Ionization_Penalty>
0.000617007

> <r_epik_Ionization_Penalty_Charging>
0.000616215

> <r_epik_Ionization_Penalty_Neutral>
7.92544e-07

> <r_epik_State_Penalty>
0.000388807

> <r_epik_Charging_Adjusted_Penalty>
0.00100502

> <i_epik_Tot_Q>
1

> <i_epik_Tot_abs_Q>
1

> <r_epik_Metal_State_Penalty>
-0

> <b_epik_Metal_Only>
0

> <s_lp_Force_Field>
OPLS_2005

> <r_lp_Energy>
23.0816

> <b_lp_Chiralities_Consistent>
1

> <s_lp_Variant>
AV-unprocessed.smi:3181-11

> <Gold.Version>
5.8.1

> <Gold.Id.Protein>
6NUR|6NUR_protein|mol2

> <Gold.PLP.Fitness>
48.8506

> <Gold.PLP.PLP>
-37.4888

> <Gold.PLP.part.hbond>
-2.9780

> <Gold.PLP.part.metal>
0.0000

> <Gold.PLP.part.buried>
-3.5123

> <Gold.PLP.part.nonpolar>
-30.8667

> <Gold.PLP.part.repulsive>
0.3534

> <Gold.PLP.ligand.clash>
0.0000

> <Gold.PLP.ligand.torsion>
1.0998

> <Gold.PLP.Chemscore.Hbond>
3.5138

> <Gold.PLP.Chemscore.CHOScore>
1.0000

> <Gold.PLP.Chemscore.Metal>
0.0000

> <Gold.Chemscore.Hbonds>
donor molecule, donor type, donor heavy atom, donor atom, acceptor molecule, acceptor atom, score
      L1  H     9    42       P1  8028  2.00
      P1  H  7989  7998       L1     8  0.95
      P1  H 10752 10765       L1     6  0.44
      L1  C     5    24       P1  7948  1.00
      L1  C     5    24       P1  7949  0.01

> <Gold.PLP.Chemscore.Internal.Correction>
0.0202

> <Gold.Rescore>
     Score         DG    S(hbond)    S(metal)    S(lipo)     H(rot)  DE(clash)    DE(int)     intcor
     16.70     -17.64       2.44        0.00      80.32       2.11       0.01       0.92       ----

> <Gold.Chemscore.Fitness>
16.6984

> <Gold.Chemscore.DG>
-17.6361

> <Gold.Chemscore.ZeroCoef>
-5.4800

> <Gold.Chemscore.Hbond>
2.4428

> <Gold.Chemscore.Metal>
0.0000

> <Gold.Chemscore.Lipo>
80.3215

> <Gold.Chemscore.Internal_Hbond>
0.0000

> <Gold.Chemscore.DEClash>
0.0135

> <Gold.Chemscore.DEInternal>
0.9242

> <Gold.Chemscore.Rot>
2.1095

> <Gold.Chemscore.Internal.Correction>
   9.000000E+99

> <Gold.Chemscore.Hbonds>
donor molecule, donor type, donor heavy atom, donor atom, acceptor molecule, acceptor atom, score
      L1  H     9    42       P1  8028  0.95
      P1  H  7989  7998       L1     8  0.12
      P1  H 10752 10765       L1     6  0.43

> <Gold.Chemscore.Hbond.Weighted>
-8.1588

> <Gold.Chemscore.Metal.Weighted>
-0.0000

> <Gold.Chemscore.Lipo.Weighted>
-9.3976

> <Gold.Chemscore.Internal_Hbond.Weighted>
0.0000

> <Gold.Chemscore.DEClash.Weighted>
0.0135

> <Gold.Chemscore.DEInternal.Weighted>
0.9242

> <Gold.Chemscore.Rot.Weighted>
5.4003

> <Gold.Chemscore.Internal.Correction.Weighted>
   9.000000E+99

> <Gold.Protein.RotatedTorsions>
[ 6907 6896 6895 6894 ] final  -13.21 input  -60.11 | X-H torsion
[ 7974 7965 7964 7962 ] final    4.27 input  175.53 | X-H torsion
[ 8008 7997 7996 7995 ] final  -32.97 input   59.86 | X-H torsion
[ 10167 10162 10161 10158 ] final  168.75 input  -65.29 | X-H torsion
[ 10718 10713 10712 10709 ] final -123.51 input   66.30 | X-H torsion
[ 10763 10752 10751 10750 ] final  158.52 input  -60.55 | X-H torsion
[ 11005 11000 10999 10996 ] final  112.97 input  -57.11 | X-H torsion

> <Gold.Protein.ActiveResidues>
 VAL166  LYS551  ARG553  GLY616  TRP617  ASP618  TYR619  PRO620  LYS621  CYS622 
 ASP623  PHE694  ASN695  SER759  ASP760  ASP761  ALA762  ILE779  LEU786  VAL792 
 PHE793  MET794  SER795  GLU796  ALA797  LYS798  CYS799  TRP800  GLU811  SER814 

> <Gold.Protein.RotatedAtoms>
  151.3584  135.0899  159.9426 H   0  0  0  0  0  0  0  0  0  0  0  0  # atno 6907 bound_to 6896
  152.5168  133.9282  159.7578 H   0  0  0  0  0  0  0  0  0  0  0  0  # atno 6908 bound_to 6896
  150.9672  133.6328  159.2773 H   0  0  0  0  0  0  0  0  0  0  0  0  # atno 6909 bound_to 6896
  146.2444  140.0560  142.8371 H   0  0  0  0  0  0  0  0  0  0  0  0  # atno 7974 bound_to 7965
  154.4163  140.1723  156.1813 H   0  0  0  0  0  0  0  0  0  0  0  0  # atno 8008 bound_to 7997
  155.9679  140.3388  155.6525 H   0  0  0  0  0  0  0  0  0  0  0  0  # atno 8009 bound_to 7997
  155.6663  140.0706  157.2527 H   0  0  0  0  0  0  0  0  0  0  0  0  # atno 8010 bound_to 7997
  139.4975  144.3781  151.9652 H   0  0  0  0  0  0  0  0  0  0  0  0  # atno 10167 bound_to 10162
  156.1508  130.6533  150.9911 H   0  0  0  0  0  0  0  0  0  0  0  0  # atno 10718 bound_to 10713
  154.2174  135.2783  155.2937 H   0  0  0  0  0  0  0  0  0  0  0  0  # atno 10763 bound_to 10752
  154.5729  135.5613  153.7115 H   0  0  0  0  0  0  0  0  0  0  0  0  # atno 10764 bound_to 10752
  153.0049  135.6326  154.2314 H   0  0  0  0  0  0  0  0  0  0  0  0  # atno 10765 bound_to 10752
  139.8941  134.9541  156.6668 H   0  0  0  0  0  0  0  0  0  0  0  0  # atno 11005 bound_to 11000
  145.0942  140.9304  143.4751 LP  0  0  0  0  0  0  0  0  0  0  0  0  # atno 17320 bound_to 7965
  145.0739  139.3010  143.5818 LP  0  0  0  0  0  0  0  0  0  0  0  0  # atno 17321 bound_to 7965
  140.3217  144.3419  150.6008 LP  0  0  0  0  0  0  0  0  0  0  0  0  # atno 17342 bound_to 10162
  140.5717  143.2180  151.7588 LP  0  0  0  0  0  0  0  0  0  0  0  0  # atno 17343 bound_to 10162
  157.6655  131.0872  150.7737 LP  0  0  0  0  0  0  0  0  0  0  0  0  # atno 17370 bound_to 10713
  156.7806  130.4858  149.5402 LP  0  0  0  0  0  0  0  0  0  0  0  0  # atno 17371 bound_to 10713
  140.7404  133.8982  155.8274 LP  0  0  0  0  0  0  0  0  0  0  0  0  # atno 17394 bound_to 11000
  141.0082  134.1057  157.4249 LP  0  0  0  0  0  0  0  0  0  0  0  0  # atno 17395 bound_to 11000

$$$$
