AV-unprocessed.smi:36|AV-procd|sdf|288|dock6
  -GOLD-   2262016 73D 1   1.00000     0.00000
 Structure written by MMmdl.
 64 67  0  0  0  0  0  0  0  0  1 V2000
  145.1334  133.4679  155.9007 C   0  0  0  0  0  0  0  0  0  0  0  0
  145.2345  134.8574  155.2500 C   0  0  0  0  0  0  0  0  0  0  0  0
  146.0352  134.7653  153.9404 C   0  0  0  0  0  0  0  0  0  0  0  0
  143.8262  135.4026  154.9580 C   0  0  0  0  0  0  0  0  0  0  0  0
  146.1256  136.0532  156.4437 Si  0  0  0  0  0  0  0  0  0  0  0  0
  145.1746  136.2151  158.0820 C   0  0  0  0  0  0  0  0  0  0  0  0
  147.9044  135.4834  156.7901 C   0  0  0  0  0  0  0  0  0  0  0  0
  146.1933  137.5716  155.7010 O   0  0  0  0  0  0  0  0  0  0  0  0
  146.8696  137.8121  154.4857 C   0  0  0  0  0  0  0  0  0  0  0  0
  146.0652  138.8332  153.6566 C   0  0  1  0  0  0  0  0  0  0  0  0
  145.9915  140.0664  154.3699 O   0  0  0  0  0  0  0  0  0  0  0  0
  147.0260  140.9298  153.9881 C   0  0  1  0  0  0  0  0  0  0  0  0
  147.9592  141.1064  155.1464 N   0  0  0  0  0  0  0  0  0  0  0  0
  147.8852  142.0183  156.1363 C   0  0  0  0  0  0  0  0  0  0  0  0
  148.8642  141.9670  157.0357 N   0  0  0  0  0  0  0  0  0  0  0  0
  149.6559  140.9265  156.5626 C   0  0  0  0  0  0  0  0  0  0  0  0
  150.9126  140.3611  157.0989 C   0  0  0  0  0  0  0  0  0  0  0  0
  151.3902  140.8792  158.1899 N   0  0  0  0  0  0  0  0  0  0  0  0
  152.5711  140.3922  158.7345 C   0  0  0  0  0  0  0  0  0  0  0  0
  153.2889  139.4732  158.3304 O   0  0  0  0  0  0  0  0  0  0  0  0
  152.9744  141.0942  159.9900 C   0  0  0  0  0  0  0  0  0  0  0  0
  152.5049  142.3983  160.2542 C   0  0  0  0  0  0  0  0  0  0  0  0
  152.8788  143.0564  161.4423 C   0  0  0  0  0  0  0  0  0  0  0  0
  153.7208  142.4125  162.3697 C   0  0  0  0  0  0  0  0  0  0  0  0
  154.1890  141.1099  162.1096 C   0  0  0  0  0  0  0  0  0  0  0  0
  153.8159  140.4503  160.9220 C   0  0  0  0  0  0  0  0  0  0  0  0
  151.3576  139.3224  156.2708 N   0  0  0  0  0  0  0  0  0  0  0  0
  150.7245  138.8725  155.1019 C   0  0  0  0  0  0  0  0  0  0  0  0
  149.6158  139.3635  154.6163 N   0  0  0  0  0  0  0  0  0  0  0  0
  149.1278  140.3959  155.4052 C   0  0  0  0  0  0  0  0  0  0  0  0
  147.7501  140.2734  152.8049 C   0  0  0  0  0  0  0  0  0  0  0  0
  146.7227  139.2619  152.3400 C   0  0  1  0  0  0  0  0  0  0  0  0
  147.3091  138.2013  151.6130 O   0  0  0  0  0  0  0  0  0  0  0  0
  144.6296  132.7587  155.2432 H   0  0  0  0  0  0  0  0  0  0  0  0
  144.5709  133.5063  156.8338 H   0  0  0  0  0  0  0  0  0  0  0  0
  146.1199  133.0624  156.1269 H   0  0  0  0  0  0  0  0  0  0  0  0
  147.0377  134.3734  154.1134 H   0  0  0  0  0  0  0  0  0  0  0  0
  146.1410  135.7443  153.4716 H   0  0  0  0  0  0  0  0  0  0  0  0
  145.5454  134.1074  153.2219 H   0  0  0  0  0  0  0  0  0  0  0  0
  143.2827  134.7519  154.2723 H   0  0  0  0  0  0  0  0  0  0  0  0
  143.8718  136.3931  154.5043 H   0  0  0  0  0  0  0  0  0  0  0  0
  143.2339  135.4862  155.8696 H   0  0  0  0  0  0  0  0  0  0  0  0
  145.1005  135.2582  158.5976 H   0  0  0  0  0  0  0  0  0  0  0  0
  144.1592  136.5764  157.9243 H   0  0  0  0  0  0  0  0  0  0  0  0
  145.6638  136.9111  158.7628 H   0  0  0  0  0  0  0  0  0  0  0  0
  147.9267  134.4970  157.2525 H   0  0  0  0  0  0  0  0  0  0  0  0
  148.4181  136.1689  157.4637 H   0  0  0  0  0  0  0  0  0  0  0  0
  148.4931  135.4274  155.8746 H   0  0  0  0  0  0  0  0  0  0  0  0
  147.8800  138.1646  154.6894 H   0  0  0  0  0  0  0  0  0  0  0  0
  146.9594  136.8677  153.9487 H   0  0  0  0  0  0  0  0  0  0  0  0
  145.0620  138.4445  153.4789 H   0  0  0  0  0  0  0  0  0  0  0  0
  146.6428  141.9291  153.7791 H   0  0  0  0  0  0  0  0  0  0  0  0
  147.0881  142.7431  156.2067 H   0  0  0  0  0  0  0  0  0  0  0  0
  151.8573  142.8977  159.5481 H   0  0  0  0  0  0  0  0  0  0  0  0
  152.5194  144.0549  161.6422 H   0  0  0  0  0  0  0  0  0  0  0  0
  154.0069  142.9173  163.2806 H   0  0  0  0  0  0  0  0  0  0  0  0
  154.8341  140.6159  162.8211 H   0  0  0  0  0  0  0  0  0  0  0  0
  154.1779  139.4505  160.7301 H   0  0  0  0  0  0  0  0  0  0  0  0
  151.2426  138.0507  154.6056 H   0  0  0  0  0  0  0  0  0  0  0  0
  148.0127  141.0100  152.0451 H   0  0  0  0  0  0  0  0  0  0  0  0
  148.6609  139.7795  153.1484 H   0  0  0  0  0  0  0  0  0  0  0  0
  145.9837  139.7593  151.7102 H   0  0  0  0  0  0  0  0  0  0  0  0
  147.6055  137.5457  152.2258 H   0  0  0  0  0  0  0  0  0  0  0  0
  152.2119  138.8566  156.5404 H   0  0  0  0  0  0  0  0  0  0  0  0
  1  2  1  0  0  0  0
  1 34  1  0  0  0  0
  1 35  1  0  0  0  0
  1 36  1  0  0  0  0
  2  3  1  0  0  0  0
  2  4  1  0  0  0  0
  2  5  1  0  0  0  0
  3 37  1  0  0  0  0
  3 38  1  0  0  0  0
  3 39  1  0  0  0  0
  4 40  1  0  0  0  0
  4 41  1  0  0  0  0
  4 42  1  0  0  0  0
  5  6  1  0  0  0  0
  5  7  1  0  0  0  0
  5  8  1  0  0  0  0
  6 43  1  0  0  0  0
  6 44  1  0  0  0  0
  6 45  1  0  0  0  0
  7 46  1  0  0  0  0
  7 47  1  0  0  0  0
  7 48  1  0  0  0  0
  8  9  1  0  0  0  0
  9 10  1  0  0  0  0
  9 49  1  0  0  0  0
  9 50  1  0  0  0  0
 10 32  1  0  0  0  0
 10 11  1  0  0  0  0
 10 51  1  0  0  0  0
 11 12  1  0  0  0  0
 12 13  1  0  0  0  0
 12 31  1  0  0  0  0
 12 52  1  0  0  0  0
 13 30  1  0  0  0  0
 13 14  1  0  0  0  0
 14 15  2  0  0  0  0
 14 53  1  0  0  0  0
 15 16  1  0  0  0  0
 16 30  2  0  0  0  0
 16 17  1  0  0  0  0
 17 18  2  0  0  0  0
 17 27  1  0  0  0  0
 18 19  1  0  0  0  0
 19 20  2  0  0  0  0
 19 21  1  0  0  0  0
 21 26  1  0  0  0  0
 21 22  2  0  0  0  0
 22 23  1  0  0  0  0
 22 54  1  0  0  0  0
 23 24  2  0  0  0  0
 23 55  1  0  0  0  0
 24 25  1  0  0  0  0
 24 56  1  0  0  0  0
 25 26  2  0  0  0  0
 25 57  1  0  0  0  0
 26 58  1  0  0  0  0
 27 28  1  0  0  0  0
 27 64  1  0  0  0  0
 28 29  2  0  0  0  0
 28 59  1  0  0  0  0
 29 30  1  0  0  0  0
 31 32  1  0  0  0  0
 31 60  1  0  0  0  0
 31 61  1  0  0  0  0
 32 33  1  0  0  0  0
 32 62  1  0  0  0  0
 33 63  1  0  0  0  0
M  END
> <s_m_source_file>
AV-unprocessed.smi

> <i_m_source_file_index>
36

> <i_lp_mmshare_version>
43012

> <i_f3d_flags>
0

> <s_epik_input>
W0NIM11DKFtDSDNdKShbQ0gzXSlbU2ldKFtDSDNdKShbQ0gzXSlPW0NIMl1bQ0BASF0xT1tDQEhdKFtDSDJdW0NASF0xW09IXSluKFtjSF1uMiljKGMyMyluW2NIXW5jM1tOSF1DKD1PKWM0W2NIXVtjSF1bY0hdW2NIXVtjSF00

> <s_epik_cmdline>
J2VwaWtfcHl0aG9uJywgJy1waCcsICc3LjAnLCAnLXRuJywgJzgnLCAnLW1hJywgJzIwMCcsICctbWV0YWxfYmluZGluZycsICctaW1hZScsICc8aW5maWxlLm1hZT4nLCAnLW9tYWUnLCAnPG91dGZpbGUubWFlPic=

> <r_epik_Ionization_Penalty>
0.0850405

> <r_epik_Ionization_Penalty_Charging>
0.0850403

> <r_epik_Ionization_Penalty_Neutral>
1.47497e-07

> <r_epik_State_Penalty>
2.6133

> <r_epik_Charging_Adjusted_Penalty>
2.69834

> <i_epik_Tot_Q>
0

> <i_epik_Tot_abs_Q>
0

> <r_epik_Metal_State_Penalty>
2.92945

> <b_epik_Metal_Only>
0

> <s_epik_Chemistry_Notes>
This compound contains an acetal/aminal-like group ( X-CH(R)-Y where X, Y are N, S, or O) that may be acid/base labile, releasing an aldehyde.

> <s_lp_Force_Field>
OPLS_2005

> <r_lp_Energy>
49.0467

> <b_lp_Chiralities_Consistent>
1

> <s_lp_Variant>
AV-unprocessed.smi:36-10

> <Gold.Version>
5.8.1

> <Gold.Id.Protein>
6NUR|6NUR_protein|mol2

> <Gold.PLP.Fitness>
50.5071

> <Gold.PLP.PLP>
-44.1987

> <Gold.PLP.part.hbond>
-4.0000

> <Gold.PLP.part.metal>
0.0000

> <Gold.PLP.part.buried>
-0.4787

> <Gold.PLP.part.nonpolar>
-38.3937

> <Gold.PLP.part.repulsive>
0.4810

> <Gold.PLP.ligand.clash>
0.0000

> <Gold.PLP.ligand.torsion>
1.1997

> <Gold.PLP.Chemscore.Hbond>
2.7360

> <Gold.PLP.Chemscore.CHOScore>
0.0000

> <Gold.PLP.Chemscore.Metal>
0.0000

> <Gold.Chemscore.Hbonds>
donor molecule, donor type, donor heavy atom, donor atom, acceptor molecule, acceptor atom, score
      L1  H    33    63       P1  7948  0.46
      P1  H  7954  7966       L1    33  1.00
      P1  H  7997  8010       L1    20  1.00
      L1  C    14    53       P1  8028  0.08

> <Gold.PLP.Chemscore.Internal.Correction>
0.4999

> <Gold.Rescore>
     Score         DG    S(hbond)    S(metal)    S(lipo)     H(rot)  DE(clash)    DE(int)     intcor
     13.77     -18.05       2.26        0.00     101.99       2.70       1.74       2.54       ----

> <Gold.Chemscore.Fitness>
13.7683

> <Gold.Chemscore.DG>
-18.0451

> <Gold.Chemscore.ZeroCoef>
-5.4800

> <Gold.Chemscore.Hbond>
2.2619

> <Gold.Chemscore.Metal>
0.0000

> <Gold.Chemscore.Lipo>
101.9912

> <Gold.Chemscore.Internal_Hbond>
0.0000

> <Gold.Chemscore.DEClash>
1.7394

> <Gold.Chemscore.DEInternal>
2.5374

> <Gold.Chemscore.Rot>
2.7041

> <Gold.Chemscore.Internal.Correction>
   9.000000E+99

> <Gold.Chemscore.Hbonds>
donor molecule, donor type, donor heavy atom, donor atom, acceptor molecule, acceptor atom, score
      L1  H    33    63       P1  7948  0.48
      P1  H  7954  7966       L1    33  0.65
      P1  H  7997  8010       L1    20  0.89

> <Gold.Chemscore.Hbond.Weighted>
-7.5546

> <Gold.Chemscore.Metal.Weighted>
-0.0000

> <Gold.Chemscore.Lipo.Weighted>
-11.9330

> <Gold.Chemscore.Internal_Hbond.Weighted>
0.0000

> <Gold.Chemscore.DEClash.Weighted>
1.7394

> <Gold.Chemscore.DEInternal.Weighted>
2.5374

> <Gold.Chemscore.Rot.Weighted>
6.9225

> <Gold.Chemscore.Internal.Correction.Weighted>
   9.000000E+99

> <Gold.Protein.RotatedTorsions>
[ 6907 6896 6895 6894 ] final   89.99 input  -60.11 | X-H torsion
[ 7974 7965 7964 7962 ] final  -12.55 input  175.53 | X-H torsion
[ 8008 7997 7996 7995 ] final   21.05 input   59.86 | X-H torsion
[ 10167 10162 10161 10158 ] final   77.37 input  -65.29 | X-H torsion
[ 10718 10713 10712 10709 ] final   40.35 input   66.30 | X-H torsion
[ 10763 10752 10751 10750 ] final  145.29 input  -60.55 | X-H torsion
[ 11005 11000 10999 10996 ] final -178.81 input  -57.11 | X-H torsion

> <Gold.Protein.ActiveResidues>
 VAL166  LYS551  ARG553  GLY616  TRP617  ASP618  TYR619  PRO620  LYS621  CYS622 
 ASP623  PHE694  ASN695  SER759  ASP760  ASP761  ALA762  ILE779  LEU786  VAL792 
 PHE793  MET794  SER795  GLU796  ALA797  LYS798  CYS799  TRP800  GLU811  SER814 

> <Gold.Protein.RotatedAtoms>
  152.5441  134.1880  159.8662 H   0  0  0  0  0  0  0  0  0  0  0  0  # atno 6907 bound_to 6896
  151.1878  133.4679  159.2602 H   0  0  0  0  0  0  0  0  0  0  0  0  # atno 6908 bound_to 6896
  151.1114  135.0040  159.8551 H   0  0  0  0  0  0  0  0  0  0  0  0  # atno 6909 bound_to 6896
  146.2148  140.3073  142.8380 H   0  0  0  0  0  0  0  0  0  0  0  0  # atno 7974 bound_to 7965
  154.9448  140.3058  155.5103 H   0  0  0  0  0  0  0  0  0  0  0  0  # atno 8008 bound_to 7997
  156.2993  140.2330  156.4457 H   0  0  0  0  0  0  0  0  0  0  0  0  # atno 8009 bound_to 7997
  154.8111  140.0428  157.1332 H   0  0  0  0  0  0  0  0  0  0  0  0  # atno 8010 bound_to 7997
  139.9823  144.5817  150.7890 H   0  0  0  0  0  0  0  0  0  0  0  0  # atno 10167 bound_to 10162
  157.3812  130.7754  149.7194 H   0  0  0  0  0  0  0  0  0  0  0  0  # atno 10718 bound_to 10713
  154.0030  135.2921  155.3400 H   0  0  0  0  0  0  0  0  0  0  0  0  # atno 10763 bound_to 10752
  154.7148  135.5134  153.8724 H   0  0  0  0  0  0  0  0  0  0  0  0  # atno 10764 bound_to 10752
  153.0757  135.6663  154.0269 H   0  0  0  0  0  0  0  0  0  0  0  0  # atno 10765 bound_to 10752
  140.4256  134.6566  157.4686 H   0  0  0  0  0  0  0  0  0  0  0  0  # atno 11005 bound_to 11000
  144.9013  140.7646  143.5865 LP  0  0  0  0  0  0  0  0  0  0  0  0  # atno 17320 bound_to 7965
  145.3000  139.1854  143.4695 LP  0  0  0  0  0  0  0  0  0  0  0  0  # atno 17321 bound_to 7965
  140.7485  143.2923  151.3298 LP  0  0  0  0  0  0  0  0  0  0  0  0  # atno 17342 bound_to 10162
  139.6401  144.0556  152.2547 LP  0  0  0  0  0  0  0  0  0  0  0  0  # atno 17343 bound_to 10162
  155.9776  130.4061  150.3701 LP  0  0  0  0  0  0  0  0  0  0  0  0  # atno 17370 bound_to 10713
  157.1805  131.0391  151.2751 LP  0  0  0  0  0  0  0  0  0  0  0  0  # atno 17371 bound_to 10713
  140.0170  134.6605  155.9296 LP  0  0  0  0  0  0  0  0  0  0  0  0  # atno 17394 bound_to 11000
  141.1766  133.6541  156.4854 LP  0  0  0  0  0  0  0  0  0  0  0  0  # atno 17395 bound_to 11000

$$$$
