AV-unprocessed.smi:1762|AV-procd|sdf|7114|dock1
  -GOLD-   22720 8343D 1   1.00000     0.00000
 Structure written by MMmdl.
 53 54  0  0  0  0  0  0  0  0  2 V2000
  148.7727  141.6680  154.4165 C   0  0  0  0  0  0  0  0  0  0  0  0
  149.1991  140.2501  154.8116 C   0  0  1  0  0  0  0  0  0  0  0  0
  148.7638  139.2034  153.7625 C   0  0  0  0  0  0  0  0  0  0  0  0
  149.2616  137.8401  154.1080 N   0  3  2  0  0  0  0  0  0  0  0  0
  148.4985  137.1468  155.2064 C   0  0  1  0  0  0  0  0  0  0  0  0
  147.0078  136.9934  154.8355 C   0  0  0  0  0  0  0  0  0  0  0  0
  146.1343  137.2561  155.6628 O   0  0  0  0  0  0  0  0  0  0  0  0
  146.7350  136.5614  153.5937 N   0  0  0  0  0  0  0  0  0  0  0  0
  145.3952  136.3345  153.0643 C   0  0  0  0  0  0  0  0  0  0  0  0
  145.4014  136.2541  151.5282 C   0  0  0  0  0  0  0  0  0  0  0  0
  145.1555  134.8442  151.0247 C   0  0  0  0  0  0  0  0  0  0  0  0
  144.0235  134.5464  150.2362 C   0  0  0  0  0  0  0  0  0  0  0  0
  143.8404  133.2199  149.7995 C   0  0  0  0  0  0  0  0  0  0  0  0
  144.7903  132.2472  150.1670 C   0  0  0  0  0  0  0  0  0  0  0  0
  145.8861  132.6461  150.9580 C   0  0  0  0  0  0  0  0  0  0  0  0
  146.0713  133.9153  151.3816 N   0  0  0  0  0  0  0  0  0  0  0  0
  149.1072  135.7680  155.6315 C   0  0  0  0  0  0  0  0  0  0  0  0
  149.1065  134.7069  154.5113 C   0  0  0  0  0  0  0  0  0  0  0  0
  148.4709  135.1879  156.9104 C   0  0  0  0  0  0  0  0  0  0  0  0
  150.7396  137.9171  154.2718 C   0  0  0  0  0  0  0  0  0  0  0  0
  151.1313  138.9662  155.3319 C   0  0  1  0  0  0  0  0  0  0  0  0
  152.6511  139.0968  155.4780 C   0  0  0  0  0  0  0  0  0  0  0  0
  150.6179  140.2328  154.9317 O   0  0  0  0  0  0  0  0  0  0  0  0
  147.6886  141.7410  154.3284 H   0  0  0  0  0  0  0  0  0  0  0  0
  149.2066  141.9602  153.4597 H   0  0  0  0  0  0  0  0  0  0  0  0
  149.0941  142.3943  155.1634 H   0  0  0  0  0  0  0  0  0  0  0  0
  148.7550  140.0231  155.7815 H   0  0  0  0  0  0  0  0  0  0  0  0
  147.6833  139.2283  153.6260 H   0  0  0  0  0  0  0  0  0  0  0  0
  149.1806  139.4753  152.7915 H   0  0  0  0  0  0  0  0  0  0  0  0
  148.5453  137.7883  156.0868 H   0  0  0  0  0  0  0  0  0  0  0  0
  147.5080  136.3733  152.9717 H   0  0  0  0  0  0  0  0  0  0  0  0
  144.9719  135.4254  153.4953 H   0  0  0  0  0  0  0  0  0  0  0  0
  144.7583  137.1577  153.3893 H   0  0  0  0  0  0  0  0  0  0  0  0
  144.6411  136.9200  151.1177 H   0  0  0  0  0  0  0  0  0  0  0  0
  146.3573  136.6030  151.1347 H   0  0  0  0  0  0  0  0  0  0  0  0
  143.3104  135.3135  149.9720 H   0  0  0  0  0  0  0  0  0  0  0  0
  142.9864  132.9532  149.1943 H   0  0  0  0  0  0  0  0  0  0  0  0
  144.6819  131.2203  149.8508 H   0  0  0  0  0  0  0  0  0  0  0  0
  146.6332  131.9268  151.2590 H   0  0  0  0  0  0  0  0  0  0  0  0
  150.1443  135.9394  155.9158 H   0  0  0  0  0  0  0  0  0  0  0  0
  148.0952  134.3988  154.2462 H   0  0  0  0  0  0  0  0  0  0  0  0
  149.6437  133.8120  154.8261 H   0  0  0  0  0  0  0  0  0  0  0  0
  149.5895  135.0682  153.6039 H   0  0  0  0  0  0  0  0  0  0  0  0
  147.4429  134.8627  156.7471 H   0  0  0  0  0  0  0  0  0  0  0  0
  148.4671  135.9218  157.7167 H   0  0  0  0  0  0  0  0  0  0  0  0
  149.0296  134.3205  157.2631 H   0  0  0  0  0  0  0  0  0  0  0  0
  151.1908  136.9507  154.4846 H   0  0  0  0  0  0  0  0  0  0  0  0
  151.1654  138.2110  153.3110 H   0  0  0  0  0  0  0  0  0  0  0  0
  150.7156  138.6960  156.3036 H   0  0  0  0  0  0  0  0  0  0  0  0
  153.0974  138.1537  155.7946 H   0  0  0  0  0  0  0  0  0  0  0  0
  152.9071  139.8512  156.2223 H   0  0  0  0  0  0  0  0  0  0  0  0
  153.1159  139.3876  154.5356 H   0  0  0  0  0  0  0  0  0  0  0  0
  149.1031  137.2683  153.2900 H   0  0  0  0  0  0  0  0  0  0  0  0
  1  2  1  0  0  0  0
  1 24  1  0  0  0  0
  1 25  1  0  0  0  0
  1 26  1  0  0  0  0
  2 23  1  0  0  0  0
  2  3  1  0  0  0  0
  2 27  1  0  0  0  0
  3  4  1  0  0  0  0
  3 28  1  0  0  0  0
  3 29  1  0  0  0  0
  4  5  1  0  0  0  0
  4 20  1  0  0  0  0
  4 53  1  0  0  0  0
  5  6  1  0  0  0  0
  5 17  1  0  0  0  0
  5 30  1  0  0  0  0
  6  7  2  0  0  0  0
  6  8  1  0  0  0  0
  8  9  1  0  0  0  0
  8 31  1  0  0  0  0
  9 10  1  0  0  0  0
  9 32  1  0  0  0  0
  9 33  1  0  0  0  0
 10 11  1  0  0  0  0
 10 34  1  0  0  0  0
 10 35  1  0  0  0  0
 11 16  1  0  0  0  0
 11 12  2  0  0  0  0
 12 13  1  0  0  0  0
 12 36  1  0  0  0  0
 13 14  2  0  0  0  0
 13 37  1  0  0  0  0
 14 15  1  0  0  0  0
 14 38  1  0  0  0  0
 15 16  2  0  0  0  0
 15 39  1  0  0  0  0
 17 18  1  0  0  0  0
 17 19  1  0  0  0  0
 17 40  1  0  0  0  0
 18 41  1  0  0  0  0
 18 42  1  0  0  0  0
 18 43  1  0  0  0  0
 19 44  1  0  0  0  0
 19 45  1  0  0  0  0
 19 46  1  0  0  0  0
 20 21  1  0  0  0  0
 20 47  1  0  0  0  0
 20 48  1  0  0  0  0
 21 22  1  0  0  0  0
 21 23  1  0  0  0  0
 21 49  1  0  0  0  0
 22 50  1  0  0  0  0
 22 51  1  0  0  0  0
 22 52  1  0  0  0  0
M  CHG  1   4   1
M  END
> <s_m_source_file>
AV-unprocessed.smi

> <i_m_source_file_index>
1762

> <i_lp_mmshare_version>
43012

> <i_f3d_flags>
0

> <s_epik_input>
W0NIM11bQ0BASF0xW0NIMl1OKFtDSDJdW0NASF0oTzEpW0NIM10pW0NAQEhdKFtDSF0oW0NIM10pW0NIM10pQyg9TylbTkhdW0NIMl1bQ0gyXWMyW2NIXVtjSF1bY0hdW2NIXW4y

> <s_epik_cmdline>
J2VwaWtfcHl0aG9uJywgJy1waCcsICc3LjAnLCAnLXRuJywgJzgnLCAnLW1hJywgJzIwMCcsICctbWV0YWxfYmluZGluZycsICctaW1hZScsICc8aW5maWxlLm1hZT4nLCAnLW9tYWUnLCAnPG91dGZpbGUubWFlPic=

> <r_epik_Ionization_Penalty>
2.27005

> <r_epik_Ionization_Penalty_Charging>
2.24983

> <r_epik_Ionization_Penalty_Neutral>
0.0202209

> <r_epik_State_Penalty>
2.40228

> <r_epik_Charging_Adjusted_Penalty>
4.65211

> <i_epik_Tot_Q>
1

> <i_epik_Tot_abs_Q>
1

> <r_epik_Metal_State_Penalty>
2.40762

> <b_epik_Metal_Only>
0

> <s_lp_Force_Field>
OPLS_2005

> <r_lp_Energy>
25.1603

> <b_lp_Chiralities_Consistent>
1

> <s_lp_Variant>
AV-unprocessed.smi:1762-16

> <Gold.Version>
5.8.1

> <Gold.Id.Protein>
6NUR|6NUR_protein|mol2

> <Gold.PLP.Fitness>
50.9594

> <Gold.PLP.PLP>
-37.6644

> <Gold.PLP.part.hbond>
-3.0000

> <Gold.PLP.part.metal>
0.0000

> <Gold.PLP.part.buried>
-0.5156

> <Gold.PLP.part.nonpolar>
-34.5168

> <Gold.PLP.part.repulsive>
0.2652

> <Gold.PLP.ligand.clash>
0.0000

> <Gold.PLP.ligand.torsion>
1.0547

> <Gold.PLP.Chemscore.Hbond>
4.0000

> <Gold.PLP.Chemscore.CHOScore>
1.0000

> <Gold.PLP.Chemscore.Metal>
0.0000

> <Gold.Chemscore.Hbonds>
donor molecule, donor type, donor heavy atom, donor atom, acceptor molecule, acceptor atom, score
      L1  H     4    53       P1  7948  2.00
      L1  H     8    31       P1  7948  1.00
      P1  H  7989  7998       L1    23  1.00
      L1  C    15    39       P1 10747  0.43

> <Gold.PLP.Chemscore.Internal.Correction>
0.4044

> <Gold.Rescore>
     Score         DG    S(hbond)    S(metal)    S(lipo)     H(rot)  DE(clash)    DE(int)     intcor
     21.40     -22.92       2.76        0.00     106.80       1.66       0.34       1.18       ----

> <Gold.Chemscore.Fitness>
21.3990

> <Gold.Chemscore.DG>
-22.9193

> <Gold.Chemscore.ZeroCoef>
-5.4800

> <Gold.Chemscore.Hbond>
2.7553

> <Gold.Chemscore.Metal>
0.0000

> <Gold.Chemscore.Lipo>
106.7963

> <Gold.Chemscore.Internal_Hbond>
0.0000

> <Gold.Chemscore.DEClash>
0.3386

> <Gold.Chemscore.DEInternal>
1.1817

> <Gold.Chemscore.Rot>
1.6635

> <Gold.Chemscore.Internal.Correction>
   9.000000E+99

> <Gold.Chemscore.Hbonds>
donor molecule, donor type, donor heavy atom, donor atom, acceptor molecule, acceptor atom, score
      L1  H     4    53       P1  7948  1.00
      L1  H     8    31       P1  7948  1.00
      P1  H  7989  7998       L1    23  0.67

> <Gold.Chemscore.Hbond.Weighted>
-9.2028

> <Gold.Chemscore.Metal.Weighted>
-0.0000

> <Gold.Chemscore.Lipo.Weighted>
-12.4952

> <Gold.Chemscore.Internal_Hbond.Weighted>
0.0000

> <Gold.Chemscore.DEClash.Weighted>
0.3386

> <Gold.Chemscore.DEInternal.Weighted>
1.1817

> <Gold.Chemscore.Rot.Weighted>
4.2586

> <Gold.Chemscore.Internal.Correction.Weighted>
   9.000000E+99

> <Gold.Protein.RotatedTorsions>
[ 6907 6896 6895 6894 ] final  -95.35 input  -60.11 | X-H torsion
[ 7974 7965 7964 7962 ] final -158.68 input  175.53 | X-H torsion
[ 8008 7997 7996 7995 ] final  -36.44 input   59.86 | X-H torsion
[ 10167 10162 10161 10158 ] final  -36.99 input  -65.29 | X-H torsion
[ 10718 10713 10712 10709 ] final   71.88 input   66.30 | X-H torsion
[ 10763 10752 10751 10750 ] final  -81.24 input  -60.55 | X-H torsion
[ 11005 11000 10999 10996 ] final -120.69 input  -57.11 | X-H torsion

> <Gold.Protein.ActiveResidues>
 VAL166  LYS551  ARG553  GLY616  TRP617  ASP618  TYR619  PRO620  LYS621  CYS622 
 ASP623  PHE694  ASN695  SER759  ASP760  ASP761  ALA762  ILE779  LEU786  VAL792 
 PHE793  MET794  SER795  GLU796  ALA797  LYS798  CYS799  TRP800  GLU811  SER814 

> <Gold.Protein.RotatedAtoms>
  150.6962  134.1670  159.4197 H   0  0  0  0  0  0  0  0  0  0  0  0  # atno 6907 bound_to 6896
  151.9649  135.0103  160.0559 H   0  0  0  0  0  0  0  0  0  0  0  0  # atno 6908 bound_to 6896
  152.1893  133.4727  159.5036 H   0  0  0  0  0  0  0  0  0  0  0  0  # atno 6909 bound_to 6896
  144.7496  140.3793  143.6058 H   0  0  0  0  0  0  0  0  0  0  0  0  # atno 7974 bound_to 7965
  154.4073  140.1631  156.2374 H   0  0  0  0  0  0  0  0  0  0  0  0  # atno 8008 bound_to 7997
  155.9231  140.3420  155.6166 H   0  0  0  0  0  0  0  0  0  0  0  0  # atno 8009 bound_to 7997
  155.7198  140.0767  157.2326 H   0  0  0  0  0  0  0  0  0  0  0  0  # atno 8010 bound_to 7997
  140.7129  143.3371  151.2438 H   0  0  0  0  0  0  0  0  0  0  0  0  # atno 10167 bound_to 10162
  157.6474  130.9551  150.0851 H   0  0  0  0  0  0  0  0  0  0  0  0  # atno 10718 bound_to 10713
  154.5612  135.5633  153.7009 H   0  0  0  0  0  0  0  0  0  0  0  0  # atno 10763 bound_to 10752
  153.0018  135.6274  154.2242 H   0  0  0  0  0  0  0  0  0  0  0  0  # atno 10764 bound_to 10752
  154.2180  135.2871  155.2915 H   0  0  0  0  0  0  0  0  0  0  0  0  # atno 10765 bound_to 10752
  141.0125  134.0244  157.3395 H   0  0  0  0  0  0  0  0  0  0  0  0  # atno 11005 bound_to 11000
  145.6994  139.1657  143.2601 LP  0  0  0  0  0  0  0  0  0  0  0  0  # atno 17320 bound_to 7965
  146.1426  140.7036  142.9360 LP  0  0  0  0  0  0  0  0  0  0  0  0  # atno 17321 bound_to 7965
  139.6869  143.9758  152.2839 LP  0  0  0  0  0  0  0  0  0  0  0  0  # atno 17342 bound_to 10162
  139.9406  144.6684  150.8270 LP  0  0  0  0  0  0  0  0  0  0  0  0  # atno 17343 bound_to 10162
  156.1816  130.3650  149.9027 LP  0  0  0  0  0  0  0  0  0  0  0  0  # atno 17370 bound_to 10713
  156.6978  130.8921  151.3596 LP  0  0  0  0  0  0  0  0  0  0  0  0  # atno 17371 bound_to 10713
  139.9098  135.0187  156.7642 LP  0  0  0  0  0  0  0  0  0  0  0  0  # atno 17394 bound_to 11000
  140.6710  133.9559  155.7856 LP  0  0  0  0  0  0  0  0  0  0  0  0  # atno 17395 bound_to 11000

$$$$
