AV-unprocessed.smi:433|AV-procd|sdf|2551|dock7
  -GOLD-   2262022513D 1   1.00000     0.00000
 Structure written by MMmdl.
 36 37  0  0  0  0  0  0  0  0  1 V2000
  147.9290  137.9431  152.7504 C   0  0  0  0  0  0  0  0  0  0  0  0
  147.7750  139.1901  153.4426 N   0  0  0  0  0  0  0  0  0  0  0  0
  146.6363  139.5057  154.1575 C   0  0  0  0  0  0  0  0  0  0  0  0
  146.4775  140.6838  154.7990 C   0  0  0  0  0  0  0  0  0  0  0  0
  147.5236  141.7003  154.7709 C   0  0  0  0  0  0  0  0  0  0  0  0
  147.4092  142.7972  155.3191 O   0  0  0  0  0  0  0  0  0  0  0  0
  148.6849  141.3360  154.0458 N   0  0  0  0  0  0  0  0  0  0  0  0
  149.7603  142.3079  153.9551 C   0  0  0  0  0  0  0  0  0  0  0  0
  150.9356  141.9957  154.9093 C   0  0  1  0  0  0  0  0  0  0  0  0
  152.0911  142.6626  154.4434 O   0  0  0  0  0  0  0  0  0  0  0  0
  150.6698  142.4861  156.3402 C   0  0  0  0  0  0  0  0  0  0  0  0
  151.9207  142.7245  156.9713 O   0  0  0  0  0  0  0  0  0  0  0  0
  151.9240  143.2571  158.2415 C   0  0  0  0  0  0  0  0  0  0  0  0
  153.0082  142.9121  159.0745 C   0  0  0  0  0  0  0  0  0  0  0  0
  153.0954  143.4116  160.3881 C   0  0  0  0  0  0  0  0  0  0  0  0
  152.0936  144.2665  160.8832 C   0  0  0  0  0  0  0  0  0  0  0  0
  151.0058  144.6189  160.0628 C   0  0  0  0  0  0  0  0  0  0  0  0
  150.9184  144.1185  158.7487 C   0  0  0  0  0  0  0  0  0  0  0  0
  148.8428  140.1095  153.3570 C   0  0  0  0  0  0  0  0  0  0  0  0
  149.8574  139.8524  152.7024 O   0  0  0  0  0  0  0  0  0  0  0  0
  147.0394  137.3412  152.9386 H   0  0  0  0  0  0  0  0  0  0  0  0
  148.8176  137.4507  153.1494 H   0  0  0  0  0  0  0  0  0  0  0  0
  148.0249  138.1688  151.6868 H   0  0  0  0  0  0  0  0  0  0  0  0
  145.8333  138.7844  154.2047 H   0  0  0  0  0  0  0  0  0  0  0  0
  145.5622  140.8791  155.3378 H   0  0  0  0  0  0  0  0  0  0  0  0
  150.0701  142.3893  152.9115 H   0  0  0  0  0  0  0  0  0  0  0  0
  149.3165  143.2817  154.1695 H   0  0  0  0  0  0  0  0  0  0  0  0
  151.1452  140.9254  154.9372 H   0  0  0  0  0  0  0  0  0  0  0  0
  152.5516  142.0867  153.8519 H   0  0  0  0  0  0  0  0  0  0  0  0
  150.0965  143.4145  156.3120 H   0  0  0  0  0  0  0  0  0  0  0  0
  150.0901  141.7442  156.8922 H   0  0  0  0  0  0  0  0  0  0  0  0
  153.7812  142.2563  158.7011 H   0  0  0  0  0  0  0  0  0  0  0  0
  153.9316  143.1388  161.0150 H   0  0  0  0  0  0  0  0  0  0  0  0
  152.1594  144.6513  161.8903 H   0  0  0  0  0  0  0  0  0  0  0  0
  150.2363  145.2751  160.4415 H   0  0  0  0  0  0  0  0  0  0  0  0
  150.0703  144.4117  158.1490 H   0  0  0  0  0  0  0  0  0  0  0  0
  1  2  1  0  0  0  0
  1 21  1  0  0  0  0
  1 22  1  0  0  0  0
  1 23  1  0  0  0  0
  2 19  1  0  0  0  0
  2  3  1  0  0  0  0
  3  4  2  0  0  0  0
  3 24  1  0  0  0  0
  4  5  1  0  0  0  0
  4 25  1  0  0  0  0
  5  6  2  0  0  0  0
  5  7  1  0  0  0  0
  7  8  1  0  0  0  0
  7 19  1  0  0  0  0
  8  9  1  0  0  0  0
  8 26  1  0  0  0  0
  8 27  1  0  0  0  0
  9 10  1  0  0  0  0
  9 11  1  0  0  0  0
  9 28  1  0  0  0  0
 10 29  1  0  0  0  0
 11 12  1  0  0  0  0
 11 30  1  0  0  0  0
 11 31  1  0  0  0  0
 12 13  1  0  0  0  0
 13 18  1  0  0  0  0
 13 14  2  0  0  0  0
 14 15  1  0  0  0  0
 14 32  1  0  0  0  0
 15 16  2  0  0  0  0
 15 33  1  0  0  0  0
 16 17  1  0  0  0  0
 16 34  1  0  0  0  0
 17 18  2  0  0  0  0
 17 35  1  0  0  0  0
 18 36  1  0  0  0  0
 19 20  2  0  0  0  0
M  END
> <s_m_source_file>
AV-unprocessed.smi

> <i_m_source_file_index>
433

> <i_lp_mmshare_version>
43012

> <i_f3d_flags>
0

> <s_epik_input>
W0NIM11uMVtjSF1bY0hdYyg9TyluKGMxPU8pW0NIMl1bQ0BIXShbT0hdKVtDSDJdT2MyW2NIXVtjSF1bY0hdW2NIXVtjSF0y

> <s_epik_cmdline>
J2VwaWtfcHl0aG9uJywgJy1waCcsICc3LjAnLCAnLXRuJywgJzgnLCAnLW1hJywgJzIwMCcsICctbWV0YWxfYmluZGluZycsICctaW1hZScsICc8aW5maWxlLm1hZT4nLCAnLW9tYWUnLCAnPG91dGZpbGUubWFlPic=

> <r_lp_tautomer_probability>
1

> <r_epik_Ionization_Penalty>
2.21742e-07

> <r_epik_Ionization_Penalty_Charging>
1.04568e-07

> <r_epik_Ionization_Penalty_Neutral>
1.17174e-07

> <r_epik_State_Penalty>
-0

> <r_epik_Charging_Adjusted_Penalty>
1.04568e-07

> <i_epik_Tot_Q>
0

> <i_epik_Tot_abs_Q>
0

> <r_epik_Metal_State_Penalty>
-0

> <b_epik_Metal_Only>
0

> <s_lp_Force_Field>
OPLS_2005

> <r_lp_Energy>
22.7461

> <b_lp_Chiralities_Consistent>
1

> <s_lp_Variant>
AV-unprocessed.smi:433-2

> <Gold.Version>
5.8.1

> <Gold.Id.Protein>
6NUR|6NUR_protein|mol2

> <Gold.PLP.Fitness>
45.2075

> <Gold.PLP.PLP>
-40.1545

> <Gold.PLP.part.hbond>
-2.6056

> <Gold.PLP.part.metal>
0.0000

> <Gold.PLP.part.buried>
-0.7512

> <Gold.PLP.part.nonpolar>
-37.1635

> <Gold.PLP.part.repulsive>
0.4608

> <Gold.PLP.ligand.clash>
0.0000

> <Gold.PLP.ligand.torsion>
1.1341

> <Gold.PLP.Chemscore.Hbond>
1.4320

> <Gold.PLP.Chemscore.CHOScore>
1.0000

> <Gold.PLP.Chemscore.Metal>
0.0000

> <Gold.Chemscore.Hbonds>
donor molecule, donor type, donor heavy atom, donor atom, acceptor molecule, acceptor atom, score
      P1  H  7989  7998       L1    20  0.21

> <Gold.PLP.Chemscore.Internal.Correction>
0.0252

> <Gold.Rescore>
     Score         DG    S(hbond)    S(metal)    S(lipo)     H(rot)  DE(clash)    DE(int)     intcor
     14.78     -15.88       1.54        0.00      98.89       2.46       0.29       0.81       ----

> <Gold.Chemscore.Fitness>
14.7824

> <Gold.Chemscore.DG>
-15.8841

> <Gold.Chemscore.ZeroCoef>
-5.4800

> <Gold.Chemscore.Hbond>
1.5369

> <Gold.Chemscore.Metal>
0.0000

> <Gold.Chemscore.Lipo>
98.8934

> <Gold.Chemscore.Internal_Hbond>
0.0000

> <Gold.Chemscore.DEClash>
0.2896

> <Gold.Chemscore.DEInternal>
0.8120

> <Gold.Chemscore.Rot>
2.4608

> <Gold.Chemscore.Internal.Correction>
   9.000000E+99

> <Gold.Chemscore.Hbonds>
donor molecule, donor type, donor heavy atom, donor atom, acceptor molecule, acceptor atom, score
      P1  H  7989  7998       L1    20  0.19

> <Gold.Chemscore.Hbond.Weighted>
-5.1332

> <Gold.Chemscore.Metal.Weighted>
-0.0000

> <Gold.Chemscore.Lipo.Weighted>
-11.5705

> <Gold.Chemscore.Internal_Hbond.Weighted>
0.0000

> <Gold.Chemscore.DEClash.Weighted>
0.2896

> <Gold.Chemscore.DEInternal.Weighted>
0.8120

> <Gold.Chemscore.Rot.Weighted>
6.2997

> <Gold.Chemscore.Internal.Correction.Weighted>
   9.000000E+99

> <Gold.Protein.RotatedTorsions>
[ 6907 6896 6895 6894 ] final   15.81 input  -60.11 | X-H torsion
[ 7974 7965 7964 7962 ] final   -3.87 input  175.53 | X-H torsion
[ 8008 7997 7996 7995 ] final -149.76 input   59.86 | X-H torsion
[ 10167 10162 10161 10158 ] final  113.21 input  -65.29 | X-H torsion
[ 10718 10713 10712 10709 ] final  -69.94 input   66.30 | X-H torsion
[ 10763 10752 10751 10750 ] final  -79.56 input  -60.55 | X-H torsion
[ 11005 11000 10999 10996 ] final  -55.35 input  -57.11 | X-H torsion

> <Gold.Protein.ActiveResidues>
 VAL166  LYS551  ARG553  GLY616  TRP617  ASP618  TYR619  PRO620  LYS621  CYS622 
 ASP623  PHE694  ASN695  SER759  ASP760  ASP761  ALA762  ILE779  LEU786  VAL792 
 PHE793  MET794  SER795  GLU796  ALA797  LYS798  CYS799  TRP800  GLU811  SER814 

> <Gold.Protein.RotatedAtoms>
  151.8240  135.0643  160.0428 H   0  0  0  0  0  0  0  0  0  0  0  0  # atno 6907 bound_to 6896
  152.2930  133.5575  159.5578 H   0  0  0  0  0  0  0  0  0  0  0  0  # atno 6908 bound_to 6896
  150.7238  134.0318  159.3778 H   0  0  0  0  0  0  0  0  0  0  0  0  # atno 6909 bound_to 6896
  146.2382  140.1786  142.8332 H   0  0  0  0  0  0  0  0  0  0  0  0  # atno 7974 bound_to 7965
  155.6127  140.0673  157.2701 H   0  0  0  0  0  0  0  0  0  0  0  0  # atno 8008 bound_to 7997
  154.4249  140.1798  156.1337 H   0  0  0  0  0  0  0  0  0  0  0  0  # atno 8009 bound_to 7997
  156.0072  140.3330  155.6907 H   0  0  0  0  0  0  0  0  0  0  0  0  # atno 8010 bound_to 7997
  139.6478  144.7127  151.2107 H   0  0  0  0  0  0  0  0  0  0  0  0  # atno 10167 bound_to 10162
  156.0431  130.4322  150.2222 H   0  0  0  0  0  0  0  0  0  0  0  0  # atno 10718 bound_to 10713
  154.5401  135.5691  153.6832 H   0  0  0  0  0  0  0  0  0  0  0  0  # atno 10763 bound_to 10752
  152.9961  135.6226  154.2513 H   0  0  0  0  0  0  0  0  0  0  0  0  # atno 10764 bound_to 10752
  154.2443  135.2861  155.2821 H   0  0  0  0  0  0  0  0  0  0  0  0  # atno 10765 bound_to 10752
  141.1069  133.6612  156.4456 H   0  0  0  0  0  0  0  0  0  0  0  0  # atno 11005 bound_to 11000
  144.9952  140.8583  143.5315 LP  0  0  0  0  0  0  0  0  0  0  0  0  # atno 17320 bound_to 7965
  145.1798  139.2358  143.5298 LP  0  0  0  0  0  0  0  0  0  0  0  0  # atno 17321 bound_to 7965
  140.7523  143.6201  150.8522 LP  0  0  0  0  0  0  0  0  0  0  0  0  # atno 17342 bound_to 10162
  139.9845  143.5914  152.2931 LP  0  0  0  0  0  0  0  0  0  0  0  0  # atno 17343 bound_to 10162
  157.0315  131.0009  151.3311 LP  0  0  0  0  0  0  0  0  0  0  0  0  # atno 17370 bound_to 10713
  157.5274  130.8036  149.7877 LP  0  0  0  0  0  0  0  0  0  0  0  0  # atno 17371 bound_to 10713
  140.4877  134.6605  157.5198 LP  0  0  0  0  0  0  0  0  0  0  0  0  # atno 17394 bound_to 11000
  139.9944  134.6934  155.9634 LP  0  0  0  0  0  0  0  0  0  0  0  0  # atno 17395 bound_to 11000

$$$$
