AV-unprocessed.smi:2709|AV-procd|sdf|10460|dock5
  -GOLD-   2272014503D 1   1.00000     0.00000
 Structure written by MMmdl.
 40 42  0  0  0  0  0  0  0  0  1 V2000
  149.1844  141.3871  154.9997 C   0  0  0  0  0  0  0  0  0  0  0  0
  148.7222  141.3221  153.6605 O   0  0  0  0  0  0  0  0  0  0  0  0
  147.3177  141.4948  153.5318 C   0  0  2  0  0  0  0  0  0  0  0  0
  146.8333  142.7740  154.2283 C   0  0  0  0  0  0  0  0  0  0  0  0
  145.4297  142.4351  154.7166 C   0  0  0  0  0  0  0  0  0  0  0  0
  145.5424  140.9796  155.1664 C   0  0  0  0  0  0  0  0  0  0  0  0
  146.5755  140.3301  154.2284 C   0  0  1  0  0  0  0  0  0  0  0  0
  145.9043  139.4624  153.2639 N   0  0  0  0  0  0  0  0  0  0  0  0
  146.1275  138.1477  153.1299 C   0  0  0  0  0  0  0  0  0  0  0  0
  146.9407  137.5263  153.8122 O   0  0  0  0  0  0  0  0  0  0  0  0
  145.3606  137.6252  152.1578 N   0  0  0  0  0  0  0  0  0  0  0  0
  145.2796  136.2794  151.7069 C   0  0  0  0  0  0  0  0  0  0  0  0
  144.2431  135.9268  150.8173 C   0  0  0  0  0  0  0  0  0  0  0  0
  144.0929  134.6685  150.3519 N   0  0  0  0  0  0  0  0  0  0  0  0
  144.9692  133.7582  150.7841 C   0  0  0  0  0  0  0  0  0  0  0  0
  144.8238  132.3719  150.2376 C   0  0  0  0  0  0  0  0  0  0  0  0
  145.7039  131.2450  150.7387 C   0  0  0  0  0  0  0  0  0  0  0  0
  145.8919  131.7742  149.3444 C   0  0  0  0  0  0  0  0  0  0  0  0
  145.9926  133.9712  151.6151 N   0  0  0  0  0  0  0  0  0  0  0  0
  146.1503  135.2274  152.0863 C   0  0  0  0  0  0  0  0  0  0  0  0
  150.2660  141.2545  155.0174 H   0  0  0  0  0  0  0  0  0  0  0  0
  148.7423  140.6045  155.6170 H   0  0  0  0  0  0  0  0  0  0  0  0
  148.9592  142.3559  155.4470 H   0  0  0  0  0  0  0  0  0  0  0  0
  147.0360  141.5327  152.4771 H   0  0  0  0  0  0  0  0  0  0  0  0
  147.4689  142.9929  155.0877 H   0  0  0  0  0  0  0  0  0  0  0  0
  146.8513  143.6439  153.5713 H   0  0  0  0  0  0  0  0  0  0  0  0
  145.0902  143.0965  155.5143 H   0  0  0  0  0  0  0  0  0  0  0  0
  144.7221  142.5134  153.8902 H   0  0  0  0  0  0  0  0  0  0  0  0
  145.9210  140.9516  156.1890 H   0  0  0  0  0  0  0  0  0  0  0  0
  144.5767  140.4722  155.1695 H   0  0  0  0  0  0  0  0  0  0  0  0
  147.2648  139.7314  154.8275 H   0  0  0  0  0  0  0  0  0  0  0  0
  145.2225  139.8958  152.6589 H   0  0  0  0  0  0  0  0  0  0  0  0
  144.7706  138.2787  151.6642 H   0  0  0  0  0  0  0  0  0  0  0  0
  143.5279  136.6594  150.4729 H   0  0  0  0  0  0  0  0  0  0  0  0
  143.7843  132.1430  150.0101 H   0  0  0  0  0  0  0  0  0  0  0  0
  146.4709  131.4861  151.4723 H   0  0  0  0  0  0  0  0  0  0  0  0
  145.2475  130.2634  150.8471 H   0  0  0  0  0  0  0  0  0  0  0  0
  145.5616  131.1465  148.5193 H   0  0  0  0  0  0  0  0  0  0  0  0
  146.7834  132.3677  149.1506 H   0  0  0  0  0  0  0  0  0  0  0  0
  146.9730  135.3594  152.7703 H   0  0  0  0  0  0  0  0  0  0  0  0
  1  2  1  0  0  0  0
  1 21  1  0  0  0  0
  1 22  1  0  0  0  0
  1 23  1  0  0  0  0
  2  3  1  0  0  0  0
  3  7  1  0  0  0  0
  3  4  1  0  0  0  0
  3 24  1  0  0  0  0
  4  5  1  0  0  0  0
  4 25  1  0  0  0  0
  4 26  1  0  0  0  0
  5  6  1  0  0  0  0
  5 27  1  0  0  0  0
  5 28  1  0  0  0  0
  6  7  1  0  0  0  0
  6 29  1  0  0  0  0
  6 30  1  0  0  0  0
  7  8  1  0  0  0  0
  7 31  1  0  0  0  0
  8  9  1  0  0  0  0
  8 32  1  0  0  0  0
  9 10  2  0  0  0  0
  9 11  1  0  0  0  0
 11 12  1  0  0  0  0
 11 33  1  0  0  0  0
 12 20  1  0  0  0  0
 12 13  2  0  0  0  0
 13 14  1  0  0  0  0
 13 34  1  0  0  0  0
 14 15  2  0  0  0  0
 15 16  1  0  0  0  0
 15 19  1  0  0  0  0
 16 18  1  0  0  0  0
 16 17  1  0  0  0  0
 16 35  1  0  0  0  0
 17 18  1  0  0  0  0
 17 36  1  0  0  0  0
 17 37  1  0  0  0  0
 18 38  1  0  0  0  0
 18 39  1  0  0  0  0
 19 20  2  0  0  0  0
 20 40  1  0  0  0  0
M  END
> <s_m_source_file>
AV-unprocessed.smi

> <i_m_source_file_index>
2709

> <i_lp_mmshare_version>
43012

> <i_f3d_flags>
0

> <s_epik_input>
W0NIM11PW0NAQEhdMVtDSDJdW0NIMl1bQ0gyXVtDQEhdMVtOSF1DKD1PKVtOSF1jMltjSF1uYyhuW2NIXTIpW0NIXTNbQ0gyXVtDSDJdMw==

> <s_epik_cmdline>
J2VwaWtfcHl0aG9uJywgJy1waCcsICc3LjAnLCAnLXRuJywgJzgnLCAnLW1hJywgJzIwMCcsICctbWV0YWxfYmluZGluZycsICctaW1hZScsICc8aW5maWxlLm1hZT4nLCAnLW9tYWUnLCAnPG91dGZpbGUubWFlPic=

> <r_lp_tautomer_probability>
1

> <r_epik_Ionization_Penalty>
2.49969e-05

> <r_epik_Ionization_Penalty_Charging>
0

> <r_epik_Ionization_Penalty_Neutral>
2.49969e-05

> <r_epik_State_Penalty>
-0

> <r_epik_Charging_Adjusted_Penalty>
0

> <i_epik_Tot_Q>
0

> <i_epik_Tot_abs_Q>
0

> <r_epik_Metal_State_Penalty>
-0

> <b_epik_Metal_Only>
0

> <s_lp_Force_Field>
OPLS_2005

> <r_lp_Energy>
17.9033

> <b_lp_Chiralities_Consistent>
1

> <s_lp_Variant>
AV-unprocessed.smi:2709-1

> <Gold.Version>
5.8.1

> <Gold.Id.Protein>
6NUR|6NUR_protein|mol2

> <Gold.PLP.Fitness>
43.9125

> <Gold.PLP.PLP>
-31.1538

> <Gold.PLP.part.hbond>
-3.0934

> <Gold.PLP.part.metal>
0.0000

> <Gold.PLP.part.buried>
-2.4790

> <Gold.PLP.part.nonpolar>
-28.7528

> <Gold.PLP.part.repulsive>
2.1972

> <Gold.PLP.ligand.clash>
0.0000

> <Gold.PLP.ligand.torsion>
0.0997

> <Gold.PLP.Chemscore.Hbond>
2.5659

> <Gold.PLP.Chemscore.CHOScore>
1.7131

> <Gold.PLP.Chemscore.Metal>
0.0000

> <Gold.Chemscore.Hbonds>
donor molecule, donor type, donor heavy atom, donor atom, acceptor molecule, acceptor atom, score
      L1  H     8    32       P1 10175  0.98
      L1  H    11    33       P1 10171  0.74
      P1  H  8011  8017       L1     2  0.83
      L1  C    13    34       P1 10171  1.00
      L1  C    20    40       P1  7948  0.71

> <Gold.PLP.Chemscore.Internal.Correction>
0.1212

> <Gold.Rescore>
     Score         DG    S(hbond)    S(metal)    S(lipo)     H(rot)  DE(clash)    DE(int)     intcor
     15.17     -18.26       2.07        0.00      81.05       1.41       1.80       1.28       ----

> <Gold.Chemscore.Fitness>
15.1711

> <Gold.Chemscore.DG>
-18.2565

> <Gold.Chemscore.ZeroCoef>
-5.4800

> <Gold.Chemscore.Hbond>
2.0678

> <Gold.Chemscore.Metal>
0.0000

> <Gold.Chemscore.Lipo>
81.0528

> <Gold.Chemscore.Internal_Hbond>
0.0000

> <Gold.Chemscore.DEClash>
1.8006

> <Gold.Chemscore.DEInternal>
1.2848

> <Gold.Chemscore.Rot>
1.4114

> <Gold.Chemscore.Internal.Correction>
   9.000000E+99

> <Gold.Chemscore.Hbonds>
donor molecule, donor type, donor heavy atom, donor atom, acceptor molecule, acceptor atom, score
      L1  H     8    32       P1 10175  0.93
      L1  H    11    33       P1 10171  0.71
      P1  H  8011  8017       L1     2  0.59

> <Gold.Chemscore.Hbond.Weighted>
-6.9066

> <Gold.Chemscore.Metal.Weighted>
-0.0000

> <Gold.Chemscore.Lipo.Weighted>
-9.4832

> <Gold.Chemscore.Internal_Hbond.Weighted>
0.0000

> <Gold.Chemscore.DEClash.Weighted>
1.8006

> <Gold.Chemscore.DEInternal.Weighted>
1.2848

> <Gold.Chemscore.Rot.Weighted>
3.6133

> <Gold.Chemscore.Internal.Correction.Weighted>
   9.000000E+99

> <Gold.Protein.RotatedTorsions>
[ 6907 6896 6895 6894 ] final  -93.86 input  -60.11 | X-H torsion
[ 7974 7965 7964 7962 ] final -147.71 input  175.53 | X-H torsion
[ 8008 7997 7996 7995 ] final   16.04 input   59.86 | X-H torsion
[ 10167 10162 10161 10158 ] final -175.02 input  -65.29 | X-H torsion
[ 10718 10713 10712 10709 ] final   22.01 input   66.30 | X-H torsion
[ 10763 10752 10751 10750 ] final  -20.97 input  -60.55 | X-H torsion
[ 11005 11000 10999 10996 ] final  163.14 input  -57.11 | X-H torsion

> <Gold.Protein.ActiveResidues>
 VAL166  LYS551  ARG553  GLY616  TRP617  ASP618  TYR619  PRO620  LYS621  CYS622 
 ASP623  PHE694  ASN695  SER759  ASP760  ASP761  ALA762  ILE779  LEU786  VAL792 
 PHE793  MET794  SER795  GLU796  ALA797  LYS798  CYS799  TRP800  GLU811  SER814 

> <Gold.Protein.RotatedAtoms>
  150.6930  134.1902  159.4282 H   0  0  0  0  0  0  0  0  0  0  0  0  # atno 6907 bound_to 6896
  151.9873  134.9995  160.0569 H   0  0  0  0  0  0  0  0  0  0  0  0  # atno 6908 bound_to 6896
  152.1700  133.4602  159.4941 H   0  0  0  0  0  0  0  0  0  0  0  0  # atno 6909 bound_to 6896
  144.8076  140.5292  143.5664 H   0  0  0  0  0  0  0  0  0  0  0  0  # atno 7974 bound_to 7965
  154.8712  140.2959  155.5480 H   0  0  0  0  0  0  0  0  0  0  0  0  # atno 8008 bound_to 7997
  156.3021  140.2460  156.3635 H   0  0  0  0  0  0  0  0  0  0  0  0  # atno 8009 bound_to 7997
  154.8815  140.0397  157.1774 H   0  0  0  0  0  0  0  0  0  0  0  0  # atno 8010 bound_to 7997
  139.5603  144.1887  152.1227 H   0  0  0  0  0  0  0  0  0  0  0  0  # atno 10167 bound_to 10162
  157.1464  130.6655  149.5997 H   0  0  0  0  0  0  0  0  0  0  0  0  # atno 10718 bound_to 10713
  153.6287  135.6990  153.5283 H   0  0  0  0  0  0  0  0  0  0  0  0  # atno 10763 bound_to 10752
  153.2877  135.4166  155.1137 H   0  0  0  0  0  0  0  0  0  0  0  0  # atno 10764 bound_to 10752
  154.8527  135.3617  154.5830 H   0  0  0  0  0  0  0  0  0  0  0  0  # atno 10765 bound_to 10752
  140.2328  134.8111  157.3334 H   0  0  0  0  0  0  0  0  0  0  0  0  # atno 11005 bound_to 11000
  145.5401  139.1475  143.3452 LP  0  0  0  0  0  0  0  0  0  0  0  0  # atno 17320 bound_to 7965
  146.2370  140.5540  142.8950 LP  0  0  0  0  0  0  0  0  0  0  0  0  # atno 17321 bound_to 7965
  140.1399  144.5211  150.6750 LP  0  0  0  0  0  0  0  0  0  0  0  0  # atno 17342 bound_to 10162
  140.6881  143.2361  151.5204 LP  0  0  0  0  0  0  0  0  0  0  0  0  # atno 17343 bound_to 10162
  155.9779  130.4760  150.6620 LP  0  0  0  0  0  0  0  0  0  0  0  0  # atno 17370 bound_to 10713
  157.4261  131.0843  151.1084 LP  0  0  0  0  0  0  0  0  0  0  0  0  # atno 17371 bound_to 10713
  140.1733  134.4581  155.7818 LP  0  0  0  0  0  0  0  0  0  0  0  0  # atno 17394 bound_to 11000
  141.2216  133.6951  156.7745 LP  0  0  0  0  0  0  0  0  0  0  0  0  # atno 17395 bound_to 11000

$$$$
