AV-unprocessed.smi:2675|AV-procd|sdf|10360|dock3
  -GOLD-   2272014383D 1   1.00000     0.00000
 Structure written by MMmdl.
 37 38  0  0  0  0  0  0  0  0  2 V2000
  146.4821  142.9156  153.6023 C   0  0  0  0  0  0  0  0  0  0  0  0
  147.5777  141.9861  154.0052 C   0  0  0  0  0  0  0  0  0  0  0  0
  148.5804  142.3797  154.8512 N   0  3  0  0  0  0  0  0  0  0  0  0
  149.4379  141.3802  155.0602 C   0  0  0  0  0  0  0  0  0  0  0  0
  148.9956  140.3364  154.3498 N   0  0  0  0  0  0  0  0  0  0  0  0
  149.7172  139.0560  154.3301 C   0  0  0  0  0  0  0  0  0  0  0  0
  150.9248  139.1021  155.2654 C   0  0  0  0  0  0  0  0  0  0  0  0
  151.8819  139.8231  154.9894 O   0  0  0  0  0  0  0  0  0  0  0  0
  150.8386  138.3562  156.3803 N   0  0  0  0  0  0  0  0  0  0  0  0
  151.7841  138.2771  157.5013 C   0  0  1  0  0  0  0  0  0  0  0  0
  151.0135  137.6284  158.6628 C   0  0  0  0  0  0  0  0  0  0  0  0
  152.9385  137.4115  157.1886 C   0  0  0  0  0  0  0  0  0  0  0  0
  153.8449  136.7353  156.9425 N   0  0  0  0  0  0  0  0  0  0  0  0
  152.3314  139.6256  157.9758 C   0  0  0  0  0  0  0  0  0  0  0  0
  152.7687  139.8621  159.4047 C   0  0  0  0  0  0  0  0  0  0  0  0
  151.5656  140.5933  158.8520 C   0  0  0  0  0  0  0  0  0  0  0  0
  147.8397  140.6740  153.6801 C   0  0  0  0  0  0  0  0  0  0  0  0
  147.1035  139.7188  152.7964 C   0  0  0  0  0  0  0  0  0  0  0  0
  145.8017  142.4338  152.9006 H   0  0  0  0  0  0  0  0  0  0  0  0
  146.8978  143.8027  153.1240 H   0  0  0  0  0  0  0  0  0  0  0  0
  145.9117  143.2264  154.4779 H   0  0  0  0  0  0  0  0  0  0  0  0
  150.3188  141.4132  155.6764 H   0  0  0  0  0  0  0  0  0  0  0  0
  149.0288  138.2607  154.6209 H   0  0  0  0  0  0  0  0  0  0  0  0
  150.0376  138.8454  153.3095 H   0  0  0  0  0  0  0  0  0  0  0  0
  150.0053  137.7958  156.4832 H   0  0  0  0  0  0  0  0  0  0  0  0
  151.6492  137.5055  159.5407 H   0  0  0  0  0  0  0  0  0  0  0  0
  150.6425  136.6395  158.3901 H   0  0  0  0  0  0  0  0  0  0  0  0
  150.1562  138.2337  158.9609 H   0  0  0  0  0  0  0  0  0  0  0  0
  152.9494  140.1073  157.2195 H   0  0  0  0  0  0  0  0  0  0  0  0
  152.5840  139.0809  160.1390 H   0  0  0  0  0  0  0  0  0  0  0  0
  153.6794  140.4370  159.5598 H   0  0  0  0  0  0  0  0  0  0  0  0
  151.6800  141.6542  158.6391 H   0  0  0  0  0  0  0  0  0  0  0  0
  150.5920  140.3070  159.2389 H   0  0  0  0  0  0  0  0  0  0  0  0
  146.1985  140.1771  152.3990 H   0  0  0  0  0  0  0  0  0  0  0  0
  146.8161  138.8287  153.3558 H   0  0  0  0  0  0  0  0  0  0  0  0
  147.7312  139.4186  151.9573 H   0  0  0  0  0  0  0  0  0  0  0  0
  148.6629  143.3017  155.2609 H   0  0  0  0  0  0  0  0  0  0  0  0
  1  2  1  0  0  0  0
  1 19  1  0  0  0  0
  1 20  1  0  0  0  0
  1 21  1  0  0  0  0
  2 17  2  0  0  0  0
  2  3  1  0  0  0  0
  3  4  2  0  0  0  0
  3 37  1  0  0  0  0
  4  5  1  0  0  0  0
  4 22  1  0  0  0  0
  5  6  1  0  0  0  0
  5 17  1  0  0  0  0
  6  7  1  0  0  0  0
  6 23  1  0  0  0  0
  6 24  1  0  0  0  0
  7  8  2  0  0  0  0
  7  9  1  0  0  0  0
  9 10  1  0  0  0  0
  9 25  1  0  0  0  0
 10 11  1  0  0  0  0
 10 12  1  0  0  0  0
 10 14  1  0  0  0  0
 11 26  1  0  0  0  0
 11 27  1  0  0  0  0
 11 28  1  0  0  0  0
 12 13  3  0  0  0  0
 14 16  1  0  0  0  0
 14 15  1  0  0  0  0
 14 29  1  0  0  0  0
 15 16  1  0  0  0  0
 15 30  1  0  0  0  0
 15 31  1  0  0  0  0
 16 32  1  0  0  0  0
 16 33  1  0  0  0  0
 17 18  1  0  0  0  0
 18 34  1  0  0  0  0
 18 35  1  0  0  0  0
 18 36  1  0  0  0  0
M  CHG  1   3   1
M  END
> <s_m_source_file>
AV-unprocessed.smi

> <i_m_source_file_index>
2675

> <i_lp_mmshare_version>
43012

> <i_f3d_flags>
0

> <s_epik_input>
W0NIM11jMW5bY0hdbihjMVtDSDNdKVtDSDJdQyg9TylbTkhdW0NAQF0oW0NIM10pKEMjTilbQ0hdMltDSDJdW0NIMl0y

> <s_epik_cmdline>
J2VwaWtfcHl0aG9uJywgJy1waCcsICc3LjAnLCAnLXRuJywgJzgnLCAnLW1hJywgJzIwMCcsICctbWV0YWxfYmluZGluZycsICctaW1hZScsICc8aW5maWxlLm1hZT4nLCAnLW9tYWUnLCAnPG91dGZpbGUubWFlPic=

> <r_lp_tautomer_probability>
1

> <r_epik_Ionization_Penalty>
0.153253

> <r_epik_Ionization_Penalty_Charging>
0

> <r_epik_Ionization_Penalty_Neutral>
0.153253

> <r_epik_State_Penalty>
0.14254

> <r_epik_Charging_Adjusted_Penalty>
0.14254

> <i_epik_Tot_Q>
1

> <i_epik_Tot_abs_Q>
1

> <r_epik_Metal_State_Penalty>
0.466899

> <b_epik_Metal_Only>
0

> <s_lp_Force_Field>
OPLS_2005

> <r_lp_Energy>
18.2007

> <b_lp_Chiralities_Consistent>
1

> <s_lp_Variant>
AV-unprocessed.smi:2675-1

> <Gold.Version>
5.8.1

> <Gold.Id.Protein>
6NUR|6NUR_protein|mol2

> <Gold.PLP.Fitness>
43.9869

> <Gold.PLP.PLP>
-34.1630

> <Gold.PLP.part.hbond>
-2.9576

> <Gold.PLP.part.metal>
0.0000

> <Gold.PLP.part.buried>
-5.2706

> <Gold.PLP.part.nonpolar>
-27.0488

> <Gold.PLP.part.repulsive>
0.2398

> <Gold.PLP.ligand.clash>
0.7932

> <Gold.PLP.ligand.torsion>
1.1921

> <Gold.PLP.Chemscore.Hbond>
3.8240

> <Gold.PLP.Chemscore.CHOScore>
0.0000

> <Gold.PLP.Chemscore.Metal>
0.0000

> <Gold.Chemscore.Hbonds>
donor molecule, donor type, donor heavy atom, donor atom, acceptor molecule, acceptor atom, score
      L1  H     3    37       P1  8028  1.72
      P1  H  7989  7998       L1     8  0.94
      P1  H 10752 10764       L1    13  0.83

> <Gold.PLP.Chemscore.Internal.Correction>
1.5294

> <Gold.Rescore>
     Score         DG    S(hbond)    S(metal)    S(lipo)     H(rot)  DE(clash)    DE(int)     intcor
     15.15     -17.37       2.85        0.00      59.41       1.80       0.02       2.21       ----

> <Gold.Chemscore.Fitness>
15.1451

> <Gold.Chemscore.DG>
-17.3680

> <Gold.Chemscore.ZeroCoef>
-5.4800

> <Gold.Chemscore.Hbond>
2.8545

> <Gold.Chemscore.Metal>
0.0000

> <Gold.Chemscore.Lipo>
59.4074

> <Gold.Chemscore.Internal_Hbond>
0.0000

> <Gold.Chemscore.DEClash>
0.0154

> <Gold.Chemscore.DEInternal>
2.2075

> <Gold.Chemscore.Rot>
1.7955

> <Gold.Chemscore.Internal.Correction>
   9.000000E+99

> <Gold.Chemscore.Hbonds>
donor molecule, donor type, donor heavy atom, donor atom, acceptor molecule, acceptor atom, score
      L1  H     3    37       P1  8028  0.84
      P1  H  7989  7998       L1     8  0.82
      P1  H 10752 10764       L1    13  0.77

> <Gold.Chemscore.Hbond.Weighted>
-9.5339

> <Gold.Chemscore.Metal.Weighted>
-0.0000

> <Gold.Chemscore.Lipo.Weighted>
-6.9507

> <Gold.Chemscore.Internal_Hbond.Weighted>
0.0000

> <Gold.Chemscore.DEClash.Weighted>
0.0154

> <Gold.Chemscore.DEInternal.Weighted>
2.2075

> <Gold.Chemscore.Rot.Weighted>
4.5965

> <Gold.Chemscore.Internal.Correction.Weighted>
   9.000000E+99

> <Gold.Protein.RotatedTorsions>
[ 6907 6896 6895 6894 ] final  123.73 input  -60.11 | X-H torsion
[ 7974 7965 7964 7962 ] final  -55.92 input  175.53 | X-H torsion
[ 8008 7997 7996 7995 ] final    5.66 input   59.86 | X-H torsion
[ 10167 10162 10161 10158 ] final  130.31 input  -65.29 | X-H torsion
[ 10718 10713 10712 10709 ] final   78.21 input   66.30 | X-H torsion
[ 10763 10752 10751 10750 ] final   12.48 input  -60.55 | X-H torsion
[ 11005 11000 10999 10996 ] final  117.72 input  -57.11 | X-H torsion

> <Gold.Protein.ActiveResidues>
 VAL166  LYS551  ARG553  GLY616  TRP617  ASP618  TYR619  PRO620  LYS621  CYS622 
 ASP623  PHE694  ASN695  SER759  ASP760  ASP761  ALA762  ILE779  LEU786  VAL792 
 PHE793  MET794  SER795  GLU796  ALA797  LYS798  CYS799  TRP800  GLU811  SER814 

> <Gold.Protein.RotatedAtoms>
  152.4137  133.7004  159.6420 H   0  0  0  0  0  0  0  0  0  0  0  0  # atno 6907 bound_to 6896
  150.8016  133.8578  159.3232 H   0  0  0  0  0  0  0  0  0  0  0  0  # atno 6908 bound_to 6896
  151.6314  135.1024  160.0174 H   0  0  0  0  0  0  0  0  0  0  0  0  # atno 6909 bound_to 6896
  145.8686  140.8233  142.9900 H   0  0  0  0  0  0  0  0  0  0  0  0  # atno 7974 bound_to 7965
  154.7312  140.2731  155.6455 H   0  0  0  0  0  0  0  0  0  0  0  0  # atno 8008 bound_to 7997
  156.2850  140.2715  156.1937 H   0  0  0  0  0  0  0  0  0  0  0  0  # atno 8009 bound_to 7997
  155.0380  140.0371  157.2488 H   0  0  0  0  0  0  0  0  0  0  0  0  # atno 8010 bound_to 7997
  139.5436  144.6753  151.4545 H   0  0  0  0  0  0  0  0  0  0  0  0  # atno 10167 bound_to 10162
  157.6737  130.9857  150.1753 H   0  0  0  0  0  0  0  0  0  0  0  0  # atno 10718 bound_to 10713
  153.1818  135.6829  153.8468 H   0  0  0  0  0  0  0  0  0  0  0  0  # atno 10763 bound_to 10752
  153.7797  135.3184  155.3365 H   0  0  0  0  0  0  0  0  0  0  0  0  # atno 10764 bound_to 10752
  154.8064  135.4745  154.0499 H   0  0  0  0  0  0  0  0  0  0  0  0  # atno 10765 bound_to 10752
  139.9084  134.9613  156.7394 H   0  0  0  0  0  0  0  0  0  0  0  0  # atno 11005 bound_to 11000
  144.6726  140.1205  143.7450 LP  0  0  0  0  0  0  0  0  0  0  0  0  # atno 17320 bound_to 7965
  145.9163  139.2518  143.1407 LP  0  0  0  0  0  0  0  0  0  0  0  0  # atno 17321 bound_to 7965
  140.6676  143.8365  150.6960 LP  0  0  0  0  0  0  0  0  0  0  0  0  # atno 17342 bound_to 10162
  140.1779  143.4140  152.1954 LP  0  0  0  0  0  0  0  0  0  0  0  0  # atno 17343 bound_to 10162
  156.2498  130.3699  149.8245 LP  0  0  0  0  0  0  0  0  0  0  0  0  # atno 17370 bound_to 10713
  156.6021  130.8551  151.3434 LP  0  0  0  0  0  0  0  0  0  0  0  0  # atno 17371 bound_to 10713
  140.6861  133.9431  155.7939 LP  0  0  0  0  0  0  0  0  0  0  0  0  # atno 17394 bound_to 11000
  141.0475  134.0532  157.3825 LP  0  0  0  0  0  0  0  0  0  0  0  0  # atno 17395 bound_to 11000

$$$$
