AV-unprocessed.smi:106|AV-procd|sdf|1012|dock8
  -GOLD-   2262018 13D 1   1.00000     0.00000
 Structure written by MMmdl.
 51 54  0  0  0  0  0  0  0  0  1 V2000
  154.0527  137.3406  156.9859 O   0  0  0  0  0  0  0  0  0  0  0  0
  154.7169  137.7069  157.9578 C   0  0  0  0  0  0  0  0  0  0  0  0
  156.1134  137.0876  158.1878 C   0  0  0  0  0  0  0  0  0  0  0  0
  156.5942  136.2700  157.0514 N   0  0  0  0  0  0  0  0  0  0  0  0
  156.6693  134.8640  157.2104 C   0  0  0  0  0  0  0  0  0  0  0  0
  156.3408  134.3224  158.2670 O   0  0  0  0  0  0  0  0  0  0  0  0
  157.1615  134.1245  156.0537 C   0  0  0  0  0  0  0  0  0  0  0  0
  157.2517  132.7849  156.1101 F   0  0  0  0  0  0  0  0  0  0  0  0
  157.5273  134.7638  154.9239 C   0  0  0  0  0  0  0  0  0  0  0  0
  157.4665  136.1393  154.7885 N   0  0  0  0  0  0  0  0  0  0  0  0
  157.8927  136.8428  153.5173 C   0  0  1  0  0  0  0  0  0  0  0  0
  159.1806  136.2125  152.9550 C   0  0  0  0  0  0  0  0  0  0  0  0
  158.8174  135.9419  151.5086 C   0  0  0  0  0  0  0  0  0  0  0  0
  157.3161  135.7134  151.5987 C   0  0  0  0  0  0  0  0  0  0  0  0
  156.9033  136.6973  152.5381 O   0  0  0  0  0  0  0  0  0  0  0  0
  156.9908  136.9249  155.8608 C   0  0  0  0  0  0  0  0  0  0  0  0
  156.9325  138.1526  155.7614 O   0  0  0  0  0  0  0  0  0  0  0  0
  154.2631  138.6331  158.8372 N   0  0  0  0  0  0  0  0  0  0  0  0
  155.0326  139.0606  160.0166 C   0  0  0  0  0  0  0  0  0  0  0  0
  154.2471  139.9794  160.9778 C   0  0  0  0  0  0  0  0  0  0  0  0
  153.5697  141.0917  160.2898 N   0  0  0  0  0  0  0  0  0  0  0  0
  153.3094  142.2488  160.9504 C   0  0  0  0  0  0  0  0  0  0  0  0
  153.5285  142.3778  162.1564 O   0  0  0  0  0  0  0  0  0  0  0  0
  152.7499  143.4022  160.2016 C   0  0  0  0  0  0  0  0  0  0  0  0
  152.8334  143.7897  158.8857 C   0  0  0  0  0  0  0  0  0  0  0  0
  152.1614  145.0184  158.6171 C   0  0  0  0  0  0  0  0  0  0  0  0
  151.5953  145.5706  159.7348 C   0  0  0  0  0  0  0  0  0  0  0  0
  151.8891  144.5953  161.1480 S   0  0  0  0  0  0  0  0  0  0  0  0
  153.0673  140.7926  158.9391 C   0  0  0  0  0  0  0  0  0  0  0  0
  152.9562  139.2820  158.6751 C   0  0  0  0  0  0  0  0  0  0  0  0
  156.8272  137.8827  158.4079 H   0  0  0  0  0  0  0  0  0  0  0  0
  156.0870  136.4902  159.0998 H   0  0  0  0  0  0  0  0  0  0  0  0
  157.8795  134.1570  154.1041 H   0  0  0  0  0  0  0  0  0  0  0  0
  157.9883  137.8979  153.7796 H   0  0  0  0  0  0  0  0  0  0  0  0
  160.0284  136.8889  153.0667 H   0  0  0  0  0  0  0  0  0  0  0  0
  159.4020  135.2778  153.4728 H   0  0  0  0  0  0  0  0  0  0  0  0
  159.0256  136.8213  150.8976 H   0  0  0  0  0  0  0  0  0  0  0  0
  159.3542  135.0931  151.0844 H   0  0  0  0  0  0  0  0  0  0  0  0
  156.8110  135.8366  150.6405 H   0  0  0  0  0  0  0  0  0  0  0  0
  157.0984  134.7140  151.9778 H   0  0  0  0  0  0  0  0  0  0  0  0
  155.3785  138.1931  160.5796 H   0  0  0  0  0  0  0  0  0  0  0  0
  155.9211  139.5927  159.6733 H   0  0  0  0  0  0  0  0  0  0  0  0
  153.4932  139.3980  161.5109 H   0  0  0  0  0  0  0  0  0  0  0  0
  154.9431  140.3455  161.7346 H   0  0  0  0  0  0  0  0  0  0  0  0
  153.3502  143.2456  158.1098 H   0  0  0  0  0  0  0  0  0  0  0  0
  152.1250  145.4521  157.6287 H   0  0  0  0  0  0  0  0  0  0  0  0
  151.0370  146.4914  159.8170 H   0  0  0  0  0  0  0  0  0  0  0  0
  152.0816  141.2353  158.7879 H   0  0  0  0  0  0  0  0  0  0  0  0
  153.7387  141.2352  158.2029 H   0  0  0  0  0  0  0  0  0  0  0  0
  152.5439  139.1429  157.6748 H   0  0  0  0  0  0  0  0  0  0  0  0
  152.2434  138.8246  159.3629 H   0  0  0  0  0  0  0  0  0  0  0  0
  1  2  2  0  0  0  0
  2  3  1  0  0  0  0
  2 18  1  0  0  0  0
  3  4  1  0  0  0  0
  3 31  1  0  0  0  0
  3 32  1  0  0  0  0
  4 16  1  0  0  0  0
  4  5  1  0  0  0  0
  5  6  2  0  0  0  0
  5  7  1  0  0  0  0
  7  8  1  0  0  0  0
  7  9  2  0  0  0  0
  9 10  1  0  0  0  0
  9 33  1  0  0  0  0
 10 11  1  0  0  0  0
 10 16  1  0  0  0  0
 11 15  1  0  0  0  0
 11 12  1  0  0  0  0
 11 34  1  0  0  0  0
 12 13  1  0  0  0  0
 12 35  1  0  0  0  0
 12 36  1  0  0  0  0
 13 14  1  0  0  0  0
 13 37  1  0  0  0  0
 13 38  1  0  0  0  0
 14 15  1  0  0  0  0
 14 39  1  0  0  0  0
 14 40  1  0  0  0  0
 16 17  2  0  0  0  0
 18 30  1  0  0  0  0
 18 19  1  0  0  0  0
 19 20  1  0  0  0  0
 19 41  1  0  0  0  0
 19 42  1  0  0  0  0
 20 21  1  0  0  0  0
 20 43  1  0  0  0  0
 20 44  1  0  0  0  0
 21 22  1  0  0  0  0
 21 29  1  0  0  0  0
 22 23  2  0  0  0  0
 22 24  1  0  0  0  0
 24 28  1  0  0  0  0
 24 25  2  0  0  0  0
 25 26  1  0  0  0  0
 25 45  1  0  0  0  0
 26 27  2  0  0  0  0
 26 46  1  0  0  0  0
 27 28  1  0  0  0  0
 27 47  1  0  0  0  0
 29 30  1  0  0  0  0
 29 48  1  0  0  0  0
 29 49  1  0  0  0  0
 30 50  1  0  0  0  0
 30 51  1  0  0  0  0
M  END
> <s_m_source_file>
AV-unprocessed.smi

> <i_m_source_file_index>
106

> <i_lp_mmshare_version>
43012

> <i_f3d_flags>
0

> <s_epik_input>
czFbY0hdW2NIXVtjSF1jMUMoPU8pTihbQ0gyXVtDSDJdMilbQ0gyXVtDSDJdTjJDKD1PKVtDSDJdbjNjKD1PKWMoRilbY0hdbihjMz1PKVtDQEBIXTRbQ0gyXVtDSDJdW0NIMl1PNA==

> <s_epik_cmdline>
J2VwaWtfcHl0aG9uJywgJy1waCcsICc3LjAnLCAnLXRuJywgJzgnLCAnLW1hJywgJzIwMCcsICctbWV0YWxfYmluZGluZycsICctaW1hZScsICc8aW5maWxlLm1hZT4nLCAnLW9tYWUnLCAnPG91dGZpbGUubWFlPic=

> <r_lp_tautomer_probability>
1

> <r_epik_Ionization_Penalty>
4.82844e-09

> <r_epik_Ionization_Penalty_Charging>
4.20153e-09

> <r_epik_Ionization_Penalty_Neutral>
6.26919e-10

> <r_epik_State_Penalty>
-0

> <r_epik_Charging_Adjusted_Penalty>
4.20153e-09

> <i_epik_Tot_Q>
0

> <i_epik_Tot_abs_Q>
0

> <r_epik_Metal_State_Penalty>
-0

> <b_epik_Metal_Only>
0

> <s_epik_Chemistry_Notes>
This compound contains an acetal/aminal-like group ( X-CH(R)-Y where X, Y are N, S, or O) that may be acid/base labile, releasing an aldehyde.

> <s_lp_Force_Field>
OPLS_2005

> <r_lp_Energy>
72.1787

> <b_lp_Chiralities_Consistent>
1

> <s_lp_Variant>
AV-unprocessed.smi:106-2

> <Gold.Version>
5.8.1

> <Gold.Id.Protein>
6NUR|6NUR_protein|mol2

> <Gold.PLP.Fitness>
53.3521

> <Gold.PLP.PLP>
-54.1029

> <Gold.PLP.part.hbond>
-1.0799

> <Gold.PLP.part.metal>
0.0000

> <Gold.PLP.part.buried>
-3.7217

> <Gold.PLP.part.nonpolar>
-48.8795

> <Gold.PLP.part.repulsive>
0.1953

> <Gold.PLP.ligand.clash>
0.0000

> <Gold.PLP.ligand.torsion>
1.0035

> <Gold.PLP.Chemscore.Hbond>
0.2080

> <Gold.PLP.Chemscore.CHOScore>
0.0000

> <Gold.PLP.Chemscore.Metal>
0.0000

> <Gold.Chemscore.Hbonds>
donor molecule, donor type, donor heavy atom, donor atom, acceptor molecule, acceptor atom, score
      P1  H  7997  8009       L1    17  0.28

> <Gold.PLP.Chemscore.Internal.Correction>
0.6321

> <Gold.Rescore>
     Score         DG    S(hbond)    S(metal)    S(lipo)     H(rot)  DE(clash)    DE(int)     intcor
     15.39     -17.17       0.17        0.00     130.51       1.63       0.03       1.75       ----

> <Gold.Chemscore.Fitness>
15.3878

> <Gold.Chemscore.DG>
-17.1670

> <Gold.Chemscore.ZeroCoef>
-5.4800

> <Gold.Chemscore.Hbond>
0.1729

> <Gold.Chemscore.Metal>
0.0000

> <Gold.Chemscore.Lipo>
130.5127

> <Gold.Chemscore.Internal_Hbond>
0.0000

> <Gold.Chemscore.DEClash>
0.0299

> <Gold.Chemscore.DEInternal>
1.7493

> <Gold.Chemscore.Rot>
1.6252

> <Gold.Chemscore.Internal.Correction>
   9.000000E+99

> <Gold.Chemscore.Hbonds>
donor molecule, donor type, donor heavy atom, donor atom, acceptor molecule, acceptor atom, score
      P1  H  7997  8009       L1    17  0.28

> <Gold.Chemscore.Hbond.Weighted>
-0.5775

> <Gold.Chemscore.Metal.Weighted>
-0.0000

> <Gold.Chemscore.Lipo.Weighted>
-15.2700

> <Gold.Chemscore.Internal_Hbond.Weighted>
0.0000

> <Gold.Chemscore.DEClash.Weighted>
0.0299

> <Gold.Chemscore.DEInternal.Weighted>
1.7493

> <Gold.Chemscore.Rot.Weighted>
4.1605

> <Gold.Chemscore.Internal.Correction.Weighted>
   9.000000E+99

> <Gold.Protein.RotatedTorsions>
[ 6907 6896 6895 6894 ] final  -44.78 input  -60.11 | X-H torsion
[ 7974 7965 7964 7962 ] final   17.72 input  175.53 | X-H torsion
[ 8008 7997 7996 7995 ] final    3.20 input   59.86 | X-H torsion
[ 10167 10162 10161 10158 ] final   74.55 input  -65.29 | X-H torsion
[ 10718 10713 10712 10709 ] final   24.37 input   66.30 | X-H torsion
[ 10763 10752 10751 10750 ] final -158.40 input  -60.55 | X-H torsion
[ 11005 11000 10999 10996 ] final  150.43 input  -57.11 | X-H torsion

> <Gold.Protein.ActiveResidues>
 VAL166  LYS551  ARG553  GLY616  TRP617  ASP618  TYR619  PRO620  LYS621  CYS622 
 ASP623  PHE694  ASN695  SER759  ASP760  ASP761  ALA762  ILE779  LEU786  VAL792 
 PHE793  MET794  SER795  GLU796  ALA797  LYS798  CYS799  TRP800  GLU811  SER814 

> <Gold.Protein.RotatedAtoms>
  150.9290  134.8706  159.7538 H   0  0  0  0  0  0  0  0  0  0  0  0  # atno 6907 bound_to 6896
  152.5029  134.4106  159.9457 H   0  0  0  0  0  0  0  0  0  0  0  0  # atno 6908 bound_to 6896
  151.4134  133.3680  159.2782 H   0  0  0  0  0  0  0  0  0  0  0  0  # atno 6909 bound_to 6896
  146.2209  139.8561  142.8613 H   0  0  0  0  0  0  0  0  0  0  0  0  # atno 7974 bound_to 7965
  154.7007  140.2672  155.6722 H   0  0  0  0  0  0  0  0  0  0  0  0  # atno 8008 bound_to 7997
  156.2764  140.2772  156.1541 H   0  0  0  0  0  0  0  0  0  0  0  0  # atno 8009 bound_to 7997
  155.0768  140.0372  157.2616 H   0  0  0  0  0  0  0  0  0  0  0  0  # atno 8010 bound_to 7997
  140.0125  144.5603  150.7647 H   0  0  0  0  0  0  0  0  0  0  0  0  # atno 10167 bound_to 10162
  157.1789  130.6793  149.6105 H   0  0  0  0  0  0  0  0  0  0  0  0  # atno 10718 bound_to 10713
  154.7560  135.3105  154.8469 H   0  0  0  0  0  0  0  0  0  0  0  0  # atno 10763 bound_to 10752
  153.9243  135.6792  153.4751 H   0  0  0  0  0  0  0  0  0  0  0  0  # atno 10764 bound_to 10752
  153.1157  135.4845  154.9041 H   0  0  0  0  0  0  0  0  0  0  0  0  # atno 10765 bound_to 10752
  140.1131  134.8912  157.1964 H   0  0  0  0  0  0  0  0  0  0  0  0  # atno 11005 bound_to 11000
  145.2752  141.0121  143.3749 LP  0  0  0  0  0  0  0  0  0  0  0  0  # atno 17320 bound_to 7965
  144.9192  139.4432  143.6549 LP  0  0  0  0  0  0  0  0  0  0  0  0  # atno 17321 bound_to 7965
  140.7375  143.2767  151.3721 LP  0  0  0  0  0  0  0  0  0  0  0  0  # atno 17342 bound_to 10162
  139.6195  144.0936  152.2377 LP  0  0  0  0  0  0  0  0  0  0  0  0  # atno 17343 bound_to 10162
  155.9727  130.4653  150.6250 LP  0  0  0  0  0  0  0  0  0  0  0  0  # atno 17370 bound_to 10713
  157.3972  131.0804  151.1341 LP  0  0  0  0  0  0  0  0  0  0  0  0  # atno 17371 bound_to 10713
  140.3065  134.3072  155.7277 LP  0  0  0  0  0  0  0  0  0  0  0  0  # atno 17394 bound_to 11000
  141.2135  133.7624  156.9715 LP  0  0  0  0  0  0  0  0  0  0  0  0  # atno 17395 bound_to 11000

$$$$
