AV-unprocessed.smi:2643|AV-procd|sdf|10276|dock1
  -GOLD-   2272014283D 1   1.00000     0.00000
 Structure written by MMmdl.
 34 35  0  0  0  0  0  0  0  0  1 V2000
  153.2656  142.8577  162.5300 C   0  0  0  0  0  0  0  0  0  0  0  0
  153.5870  142.2980  161.1393 C   0  0  0  0  0  0  0  0  0  0  0  0
  152.7174  142.8554  160.1219 N   0  0  0  0  0  0  0  0  0  0  0  0
  152.0896  142.1980  159.0825 C   0  0  0  0  0  0  0  0  0  0  0  0
  151.3845  143.1568  158.4116 C   0  0  0  0  0  0  0  0  0  0  0  0
  150.5611  143.0313  157.2648 N   0  0  0  0  0  0  0  0  0  0  0  0
  150.4555  141.9710  156.4413 C   0  0  0  0  0  0  0  0  0  0  0  0
  151.0822  140.9217  156.5741 O   0  0  0  0  0  0  0  0  0  0  0  0
  149.5832  142.1403  155.4313 N   0  0  0  0  0  0  0  0  0  0  0  0
  149.2347  141.1933  154.3695 C   0  0  0  0  0  0  0  0  0  0  0  0
  147.8394  141.4821  153.7752 C   0  0  0  0  0  0  0  0  0  0  0  0
  147.0892  140.1490  153.7815 C   0  0  0  0  0  0  0  0  0  0  0  0
  147.6871  139.3862  154.9588 C   0  0  0  0  0  0  0  0  0  0  0  0
  149.1691  139.7602  154.9293 C   0  0  0  0  0  0  0  0  0  0  0  0
  151.6312  144.3725  159.1009 C   0  0  0  0  0  0  0  0  0  0  0  0
  152.4377  144.1825  160.1340 N   0  0  0  0  0  0  0  0  0  0  0  0
  153.9195  142.4209  163.2846 H   0  0  0  0  0  0  0  0  0  0  0  0
  152.2359  142.6383  162.8138 H   0  0  0  0  0  0  0  0  0  0  0  0
  153.3990  143.9394  162.5614 H   0  0  0  0  0  0  0  0  0  0  0  0
  154.6229  142.5122  160.8733 H   0  0  0  0  0  0  0  0  0  0  0  0
  153.4771  141.2129  161.1356 H   0  0  0  0  0  0  0  0  0  0  0  0
  152.2020  141.1356  158.9251 H   0  0  0  0  0  0  0  0  0  0  0  0
  149.9863  143.8319  157.0458 H   0  0  0  0  0  0  0  0  0  0  0  0
  149.0988  143.0259  155.4020 H   0  0  0  0  0  0  0  0  0  0  0  0
  149.9956  141.2221  153.5873 H   0  0  0  0  0  0  0  0  0  0  0  0
  147.2969  142.1959  154.3973 H   0  0  0  0  0  0  0  0  0  0  0  0
  147.8993  141.9101  152.7741 H   0  0  0  0  0  0  0  0  0  0  0  0
  146.0093  140.2750  153.8660 H   0  0  0  0  0  0  0  0  0  0  0  0
  147.2907  139.6092  152.8553 H   0  0  0  0  0  0  0  0  0  0  0  0
  147.2376  139.7345  155.8896 H   0  0  0  0  0  0  0  0  0  0  0  0
  147.5233  138.3103  154.8903 H   0  0  0  0  0  0  0  0  0  0  0  0
  149.6935  139.0861  154.2507 H   0  0  0  0  0  0  0  0  0  0  0  0
  149.6384  139.6541  155.9086 H   0  0  0  0  0  0  0  0  0  0  0  0
  151.2599  145.3650  158.8913 H   0  0  0  0  0  0  0  0  0  0  0  0
  1  2  1  0  0  0  0
  1 17  1  0  0  0  0
  1 18  1  0  0  0  0
  1 19  1  0  0  0  0
  2  3  1  0  0  0  0
  2 20  1  0  0  0  0
  2 21  1  0  0  0  0
  3 16  1  0  0  0  0
  3  4  1  0  0  0  0
  4  5  2  0  0  0  0
  4 22  1  0  0  0  0
  5  6  1  0  0  0  0
  5 15  1  0  0  0  0
  6  7  1  0  0  0  0
  6 23  1  0  0  0  0
  7  8  2  0  0  0  0
  7  9  1  0  0  0  0
  9 10  1  0  0  0  0
  9 24  1  0  0  0  0
 10 14  1  0  0  0  0
 10 11  1  0  0  0  0
 10 25  1  0  0  0  0
 11 12  1  0  0  0  0
 11 26  1  0  0  0  0
 11 27  1  0  0  0  0
 12 13  1  0  0  0  0
 12 28  1  0  0  0  0
 12 29  1  0  0  0  0
 13 14  1  0  0  0  0
 13 30  1  0  0  0  0
 13 31  1  0  0  0  0
 14 32  1  0  0  0  0
 14 33  1  0  0  0  0
 15 16  2  0  0  0  0
 15 34  1  0  0  0  0
M  END
> <s_m_source_file>
AV-unprocessed.smi

> <i_m_source_file_index>
2643

> <i_lp_mmshare_version>
43012

> <i_f3d_flags>
0

> <s_epik_input>
W0NIM11bQ0gyXW4xW2NIXWMoW2NIXW4xKVtOSF1DKD1PKVtOSF1bQ0hdMltDSDJdW0NIMl1bQ0gyXVtDSDJdMg==

> <s_epik_cmdline>
J2VwaWtfcHl0aG9uJywgJy1waCcsICc3LjAnLCAnLXRuJywgJzgnLCAnLW1hJywgJzIwMCcsICctbWV0YWxfYmluZGluZycsICctaW1hZScsICc8aW5maWxlLm1hZT4nLCAnLW9tYWUnLCAnPG91dGZpbGUubWFlPic=

> <r_lp_tautomer_probability>
1

> <r_epik_Ionization_Penalty>
0.000191398

> <r_epik_Ionization_Penalty_Charging>
0

> <r_epik_Ionization_Penalty_Neutral>
0.000191398

> <r_epik_State_Penalty>
-0

> <r_epik_Charging_Adjusted_Penalty>
0

> <i_epik_Tot_Q>
0

> <i_epik_Tot_abs_Q>
0

> <r_epik_Metal_State_Penalty>
-0

> <b_epik_Metal_Only>
0

> <s_lp_Force_Field>
OPLS_2005

> <r_lp_Energy>
32.4137

> <b_lp_Chiralities_Consistent>
1

> <s_lp_Variant>
AV-unprocessed.smi:2643-1

> <Gold.Version>
5.8.1

> <Gold.Id.Protein>
6NUR|6NUR_protein|mol2

> <Gold.PLP.Fitness>
41.9285

> <Gold.PLP.PLP>
-37.1888

> <Gold.PLP.part.hbond>
-2.0000

> <Gold.PLP.part.metal>
0.0000

> <Gold.PLP.part.buried>
-5.8017

> <Gold.PLP.part.nonpolar>
-29.9265

> <Gold.PLP.part.repulsive>
0.2483

> <Gold.PLP.ligand.clash>
0.0000

> <Gold.PLP.ligand.torsion>
0.5766

> <Gold.PLP.Chemscore.Hbond>
1.9600

> <Gold.PLP.Chemscore.CHOScore>
0.0000

> <Gold.PLP.Chemscore.Metal>
0.0000

> <Gold.Chemscore.Hbonds>
donor molecule, donor type, donor heavy atom, donor atom, acceptor molecule, acceptor atom, score
      L1  H     6    23       P1  8028  0.93
      L1  H     9    24       P1  8028  1.00

> <Gold.PLP.Chemscore.Internal.Correction>
0.0130

> <Gold.Rescore>
     Score         DG    S(hbond)    S(metal)    S(lipo)     H(rot)  DE(clash)    DE(int)     intcor
     15.66     -18.95       1.96        0.00      85.04       1.17       0.07       3.23       ----

> <Gold.Chemscore.Fitness>
15.6557

> <Gold.Chemscore.DG>
-18.9545

> <Gold.Chemscore.ZeroCoef>
-5.4800

> <Gold.Chemscore.Hbond>
1.9553

> <Gold.Chemscore.Metal>
0.0000

> <Gold.Chemscore.Lipo>
85.0388

> <Gold.Chemscore.Internal_Hbond>
0.0000

> <Gold.Chemscore.DEClash>
0.0732

> <Gold.Chemscore.DEInternal>
3.2255

> <Gold.Chemscore.Rot>
1.1741

> <Gold.Chemscore.Internal.Correction>
   9.000000E+99

> <Gold.Chemscore.Hbonds>
donor molecule, donor type, donor heavy atom, donor atom, acceptor molecule, acceptor atom, score
      L1  H     6    23       P1  8028  0.86
      L1  H     9    24       P1  8028  0.99

> <Gold.Chemscore.Hbond.Weighted>
-6.5306

> <Gold.Chemscore.Metal.Weighted>
-0.0000

> <Gold.Chemscore.Lipo.Weighted>
-9.9495

> <Gold.Chemscore.Internal_Hbond.Weighted>
0.0000

> <Gold.Chemscore.DEClash.Weighted>
0.0732

> <Gold.Chemscore.DEInternal.Weighted>
3.2255

> <Gold.Chemscore.Rot.Weighted>
3.0056

> <Gold.Chemscore.Internal.Correction.Weighted>
   9.000000E+99

> <Gold.Protein.RotatedTorsions>
[ 6907 6896 6895 6894 ] final   23.70 input  -60.11 | X-H torsion
[ 7974 7965 7964 7962 ] final -112.59 input  175.53 | X-H torsion
[ 8008 7997 7996 7995 ] final   85.57 input   59.86 | X-H torsion
[ 10167 10162 10161 10158 ] final -151.04 input  -65.29 | X-H torsion
[ 10718 10713 10712 10709 ] final   34.49 input   66.30 | X-H torsion
[ 10763 10752 10751 10750 ] final  -26.48 input  -60.55 | X-H torsion
[ 11005 11000 10999 10996 ] final  -16.91 input  -57.11 | X-H torsion

> <Gold.Protein.ActiveResidues>
 VAL166  LYS551  ARG553  GLY616  TRP617  ASP618  TYR619  PRO620  LYS621  CYS622 
 ASP623  PHE694  ASN695  SER759  ASP760  ASP761  ALA762  ILE779  LEU786  VAL792 
 PHE793  MET794  SER795  GLU796  ALA797  LYS798  CYS799  TRP800  GLU811  SER814 

> <Gold.Protein.RotatedAtoms>
  151.9464  135.0190  160.0538 H   0  0  0  0  0  0  0  0  0  0  0  0  # atno 6907 bound_to 6896
  152.1992  133.4824  159.5057 H   0  0  0  0  0  0  0  0  0  0  0  0  # atno 6908 bound_to 6896
  150.6951  134.1530  159.4190 H   0  0  0  0  0  0  0  0  0  0  0  0  # atno 6909 bound_to 6896
  145.1421  140.8783  143.3696 H   0  0  0  0  0  0  0  0  0  0  0  0  # atno 7974 bound_to 7965
  155.9517  140.3400  155.6414 H   0  0  0  0  0  0  0  0  0  0  0  0  # atno 8008 bound_to 7997
  155.6911  140.0749  157.2466 H   0  0  0  0  0  0  0  0  0  0  0  0  # atno 8009 bound_to 7997
  154.4123  140.1657  156.2074 H   0  0  0  0  0  0  0  0  0  0  0  0  # atno 8010 bound_to 7997
  139.7302  143.8820  152.2532 H   0  0  0  0  0  0  0  0  0  0  0  0  # atno 10167 bound_to 10162
  157.3110  130.7399  149.6725 H   0  0  0  0  0  0  0  0  0  0  0  0  # atno 10718 bound_to 10713
  153.7166  135.6947  153.5023 H   0  0  0  0  0  0  0  0  0  0  0  0  # atno 10763 bound_to 10752
  153.2234  135.4362  155.0514 H   0  0  0  0  0  0  0  0  0  0  0  0  # atno 10764 bound_to 10752
  154.8298  135.3466  154.6701 H   0  0  0  0  0  0  0  0  0  0  0  0  # atno 10765 bound_to 10752
  140.8115  133.8137  155.9568 H   0  0  0  0  0  0  0  0  0  0  0  0  # atno 11005 bound_to 11000
  145.0521  139.3173  143.5923 LP  0  0  0  0  0  0  0  0  0  0  0  0  # atno 17320 bound_to 7965
  146.3504  139.9932  142.8683 LP  0  0  0  0  0  0  0  0  0  0  0  0  # atno 17321 bound_to 7965
  139.8741  144.7052  150.8953 LP  0  0  0  0  0  0  0  0  0  0  0  0  # atno 17342 bound_to 10162
  140.7770  143.3714  151.1643 LP  0  0  0  0  0  0  0  0  0  0  0  0  # atno 17343 bound_to 10162
  155.9678  130.4251  150.4639 LP  0  0  0  0  0  0  0  0  0  0  0  0  # atno 17370 bound_to 10713
  157.2638  131.0572  151.2303 LP  0  0  0  0  0  0  0  0  0  0  0  0  # atno 17371 bound_to 10713
  140.9192  134.2163  157.4937 LP  0  0  0  0  0  0  0  0  0  0  0  0  # atno 17394 bound_to 11000
  139.8714  134.9785  156.4999 LP  0  0  0  0  0  0  0  0  0  0  0  0  # atno 17395 bound_to 11000

$$$$
