AV-unprocessed.smi:283|AV-procd|sdf|2148|dock3
  -GOLD-   2262021483D 1   1.00000     0.00000
 Structure written by MMmdl.
 48 51  0  0  0  0  0  0  0  0  1 V2000
  149.6868  133.4698  157.4095 C   0  0  0  0  0  0  0  0  0  0  0  0
  148.2567  134.0099  157.5905 C   0  0  1  0  0  0  0  0  0  0  0  0
  147.3240  133.3514  156.6763 N   0  0  0  0  0  0  0  0  0  0  0  0
  147.5901  133.2239  155.3572 C   0  0  0  0  0  0  0  0  0  0  0  0
  148.7698  132.7121  154.9191 N   0  0  0  0  0  0  0  0  0  0  0  0
  149.0032  132.5985  153.6083 C   0  0  0  0  0  0  0  0  0  0  0  0
  148.2126  132.9373  152.5875 N   0  0  0  0  0  0  0  0  0  0  0  0
  147.0313  133.4648  153.0221 C   0  0  0  0  0  0  0  0  0  0  0  0
  146.6447  133.6307  154.3807 C   0  0  0  0  0  0  0  0  0  0  0  0
  145.3672  134.1697  154.4429 N   0  0  0  0  0  0  0  0  0  0  0  0
  145.0207  134.3042  153.1911 C   0  0  0  0  0  0  0  0  0  0  0  0
  145.9792  133.9421  152.2669 N   0  0  0  0  0  0  0  0  0  0  0  0
  145.8934  133.9491  150.7686 C   0  0  1  0  0  0  0  0  0  0  0  0
  146.4534  132.7602  150.2881 O   0  0  0  0  0  0  0  0  0  0  0  0
  145.4354  131.8351  149.9169 C   0  0  1  0  0  0  0  0  0  0  0  0
  145.0615  130.9452  151.1241 C   0  0  0  0  0  0  0  0  0  0  0  0
  146.1765  130.1963  151.5615 O   0  0  0  0  0  0  0  0  0  0  0  0
  144.3322  132.7605  149.3864 C   0  0  1  0  0  0  0  0  0  0  0  0
  143.0452  132.1766  149.4397 O   0  0  0  0  0  0  0  0  0  0  0  0
  144.4276  133.9875  150.2862 C   0  0  2  0  0  0  0  0  0  0  0  0
  144.1553  135.1534  149.5342 O   0  0  0  0  0  0  0  0  0  0  0  0
  147.8327  133.8868  159.0535 C   0  0  0  0  0  0  0  0  0  0  0  0
  147.6464  132.6089  159.6320 C   0  0  0  0  0  0  0  0  0  0  0  0
  147.2614  132.4792  160.9798 C   0  0  0  0  0  0  0  0  0  0  0  0
  147.0650  133.6268  161.7684 C   0  0  0  0  0  0  0  0  0  0  0  0
  147.2599  134.9025  161.2083 C   0  0  0  0  0  0  0  0  0  0  0  0
  147.6452  135.0388  159.8595 C   0  0  0  0  0  0  0  0  0  0  0  0
  147.8871  136.6324  159.2326 Cl  0  0  0  0  0  0  0  0  0  0  0  0
  146.4923  134.8110  150.4712 H   0  0  0  0  0  0  0  0  0  0  0  0
  145.8264  131.2032  149.1182 H   0  0  0  0  0  0  0  0  0  0  0  0
  144.5670  133.0245  148.3537 H   0  0  0  0  0  0  0  0  0  0  0  0
  143.7452  133.9044  151.1336 H   0  0  0  0  0  0  0  0  0  0  0  0
  150.3876  133.9970  158.0575 H   0  0  0  0  0  0  0  0  0  0  0  0
  150.0408  133.5909  156.3858 H   0  0  0  0  0  0  0  0  0  0  0  0
  149.7424  132.4088  157.6552 H   0  0  0  0  0  0  0  0  0  0  0  0
  148.2505  135.0695  157.3386 H   0  0  0  0  0  0  0  0  0  0  0  0
  146.5072  132.9437  157.1076 H   0  0  0  0  0  0  0  0  0  0  0  0
  149.9608  132.1781  153.3384 H   0  0  0  0  0  0  0  0  0  0  0  0
  144.0467  134.6781  152.9124 H   0  0  0  0  0  0  0  0  0  0  0  0
  144.7518  131.5687  151.9624 H   0  0  0  0  0  0  0  0  0  0  0  0
  144.2312  130.2772  150.8942 H   0  0  0  0  0  0  0  0  0  0  0  0
  146.9411  130.4942  151.0927 H   0  0  0  0  0  0  0  0  0  0  0  0
  142.4007  132.8670  149.4047 H   0  0  0  0  0  0  0  0  0  0  0  0
  144.6915  135.1414  148.7565 H   0  0  0  0  0  0  0  0  0  0  0  0
  147.8017  131.7139  159.0477 H   0  0  0  0  0  0  0  0  0  0  0  0
  147.1198  131.4985  161.4092 H   0  0  0  0  0  0  0  0  0  0  0  0
  146.7704  133.5293  162.8028 H   0  0  0  0  0  0  0  0  0  0  0  0
  147.1161  135.7816  161.8192 H   0  0  0  0  0  0  0  0  0  0  0  0
  1  2  1  0  0  0  0
  1 33  1  0  0  0  0
  1 34  1  0  0  0  0
  1 35  1  0  0  0  0
  2  3  1  0  0  0  0
  2 22  1  0  0  0  0
  2 36  1  0  0  0  0
  3  4  1  0  0  0  0
  3 37  1  0  0  0  0
  4  9  1  0  0  0  0
  4  5  2  0  0  0  0
  5  6  1  0  0  0  0
  6  7  2  0  0  0  0
  6 38  1  0  0  0  0
  7  8  1  0  0  0  0
  8 12  1  0  0  0  0
  8  9  2  0  0  0  0
  9 10  1  0  0  0  0
 10 11  2  0  0  0  0
 11 12  1  0  0  0  0
 11 39  1  0  0  0  0
 12 13  1  0  0  0  0
 13 29  1  0  0  0  0
 13 20  1  0  0  0  0
 13 14  1  0  0  0  0
 14 15  1  0  0  0  0
 15 30  1  0  0  0  0
 15 16  1  0  0  0  0
 15 18  1  0  0  0  0
 16 17  1  0  0  0  0
 16 40  1  0  0  0  0
 16 41  1  0  0  0  0
 17 42  1  0  0  0  0
 18 31  1  0  0  0  0
 18 19  1  0  0  0  0
 18 20  1  0  0  0  0
 19 43  1  0  0  0  0
 20 32  1  0  0  0  0
 20 21  1  0  0  0  0
 21 44  1  0  0  0  0
 22 27  1  0  0  0  0
 22 23  2  0  0  0  0
 23 24  1  0  0  0  0
 23 45  1  0  0  0  0
 24 25  2  0  0  0  0
 24 46  1  0  0  0  0
 25 26  1  0  0  0  0
 25 47  1  0  0  0  0
 26 27  2  0  0  0  0
 26 48  1  0  0  0  0
 27 28  1  0  0  0  0
M  END
> <s_m_source_file>
AV-unprocessed.smi

> <i_m_source_file_index>
283

> <i_lp_mmshare_version>
43012

> <i_f3d_flags>
0

> <s_epik_input>
Q2xjMVtjSF1bY0hdW2NIXVtjSF1jMVtDQEhdKFtDSDNdKVtOSF1jKG5bY0hdbjIpYyhjMjMpbltjSF1uM1tDQEBIXTRPW0NASF0oW0NIMl1bT0hdKVtDQEBIXShbT0hdKVtDQEhdNFtPSF0=

> <s_epik_cmdline>
J2VwaWtfcHl0aG9uJywgJy1waCcsICc3LjAnLCAnLXRuJywgJzgnLCAnLW1hJywgJzIwMCcsICctbWV0YWxfYmluZGluZycsICctaW1hZScsICc8aW5maWxlLm1hZT4nLCAnLW9tYWUnLCAnPG91dGZpbGUubWFlPic=

> <r_lp_tautomer_probability>
1

> <r_epik_Ionization_Penalty>
0.000266407

> <r_epik_Ionization_Penalty_Charging>
0

> <r_epik_Ionization_Penalty_Neutral>
0.000266407

> <r_epik_State_Penalty>
-0

> <r_epik_Charging_Adjusted_Penalty>
0

> <i_epik_Tot_Q>
0

> <i_epik_Tot_abs_Q>
0

> <r_epik_Metal_State_Penalty>
-0

> <b_epik_Metal_Only>
0

> <s_epik_Chemistry_Notes>
This compound contains an acetal/aminal-like group ( X-CH(R)-Y where X, Y are N, S, or O) that may be acid/base labile, releasing an aldehyde.

> <s_lp_Force_Field>
OPLS_2005

> <r_lp_Energy>
43.8521

> <b_lp_Chiralities_Consistent>
1

> <s_lp_Variant>
AV-unprocessed.smi:283-24

> <Gold.Version>
5.8.1

> <Gold.Id.Protein>
6NUR|6NUR_protein|mol2

> <Gold.PLP.Fitness>
49.8270

> <Gold.PLP.PLP>
-41.6577

> <Gold.PLP.part.hbond>
-5.2010

> <Gold.PLP.part.metal>
0.0000

> <Gold.PLP.part.buried>
-7.6888

> <Gold.PLP.part.nonpolar>
-29.2914

> <Gold.PLP.part.repulsive>
0.5424

> <Gold.PLP.ligand.clash>
0.0000

> <Gold.PLP.ligand.torsion>
1.1632

> <Gold.PLP.Chemscore.Hbond>
3.4538

> <Gold.PLP.Chemscore.CHOScore>
0.0000

> <Gold.PLP.Chemscore.Metal>
0.0000

> <Gold.Chemscore.Hbonds>
donor molecule, donor type, donor heavy atom, donor atom, acceptor molecule, acceptor atom, score
      L1  H    17    42       P1 10747  0.54
      L1  H    19    43       P1 10186  0.86
      L1  H    21    44       P1  7921  1.00
      P1  H 10785 10796       L1    19  0.68

> <Gold.PLP.Chemscore.Internal.Correction>
0.1344

> <Gold.Rescore>
     Score         DG    S(hbond)    S(metal)    S(lipo)     H(rot)  DE(clash)    DE(int)     intcor
     11.62     -15.12       3.29        0.00      78.09       4.10       0.05       3.46       ----

> <Gold.Chemscore.Fitness>
11.6183

> <Gold.Chemscore.DG>
-15.1241

> <Gold.Chemscore.ZeroCoef>
-5.4800

> <Gold.Chemscore.Hbond>
3.2920

> <Gold.Chemscore.Metal>
0.0000

> <Gold.Chemscore.Lipo>
78.0908

> <Gold.Chemscore.Internal_Hbond>
0.0000

> <Gold.Chemscore.DEClash>
0.0469

> <Gold.Chemscore.DEInternal>
3.4590

> <Gold.Chemscore.Rot>
4.0968

> <Gold.Chemscore.Internal.Correction>
   9.000000E+99

> <Gold.Chemscore.Hbonds>
donor molecule, donor type, donor heavy atom, donor atom, acceptor molecule, acceptor atom, score
      L1  H    17    42       P1 10747  0.54
      L1  H    19    43       P1 10186  0.84
      L1  H    21    44       P1  7921  1.00
      P1  H 10785 10796       L1    19  0.45

> <Gold.Chemscore.Hbond.Weighted>
-10.9954

> <Gold.Chemscore.Metal.Weighted>
-0.0000

> <Gold.Chemscore.Lipo.Weighted>
-9.1366

> <Gold.Chemscore.Internal_Hbond.Weighted>
0.0000

> <Gold.Chemscore.DEClash.Weighted>
0.0469

> <Gold.Chemscore.DEInternal.Weighted>
3.4590

> <Gold.Chemscore.Rot.Weighted>
10.4879

> <Gold.Chemscore.Internal.Correction.Weighted>
   9.000000E+99

> <Gold.Protein.RotatedTorsions>
[ 6907 6896 6895 6894 ] final  148.69 input  -60.11 | X-H torsion
[ 7974 7965 7964 7962 ] final  124.77 input  175.53 | X-H torsion
[ 8008 7997 7996 7995 ] final  130.30 input   59.86 | X-H torsion
[ 10167 10162 10161 10158 ] final -114.80 input  -65.29 | X-H torsion
[ 10718 10713 10712 10709 ] final  -69.07 input   66.30 | X-H torsion
[ 10763 10752 10751 10750 ] final   -9.46 input  -60.55 | X-H torsion
[ 11005 11000 10999 10996 ] final -117.72 input  -57.11 | X-H torsion

> <Gold.Protein.ActiveResidues>
 VAL166  LYS551  ARG553  GLY616  TRP617  ASP618  TYR619  PRO620  LYS621  CYS622 
 ASP623  PHE694  ASN695  SER759  ASP760  ASP761  ALA762  ILE779  LEU786  VAL792 
 PHE793  MET794  SER795  GLU796  ALA797  LYS798  CYS799  TRP800  GLU811  SER814 

> <Gold.Protein.RotatedAtoms>
  152.1381  133.4447  159.4753 H   0  0  0  0  0  0  0  0  0  0  0  0  # atno 6907 bound_to 6896
  150.6883  134.2339  159.4454 H   0  0  0  0  0  0  0  0  0  0  0  0  # atno 6908 bound_to 6896
  152.0228  134.9813  160.0621 H   0  0  0  0  0  0  0  0  0  0  0  0  # atno 6909 bound_to 6896
  145.0806  139.3660  143.4911 H   0  0  0  0  0  0  0  0  0  0  0  0  # atno 7974 bound_to 7965
  156.2952  140.2599  156.2739 H   0  0  0  0  0  0  0  0  0  0  0  0  # atno 8008 bound_to 7997
  154.9668  140.0391  157.2234 H   0  0  0  0  0  0  0  0  0  0  0  0  # atno 8009 bound_to 7997
  154.7895  140.2809  155.6006 H   0  0  0  0  0  0  0  0  0  0  0  0  # atno 8010 bound_to 7997
  140.0970  143.4647  152.1835 H   0  0  0  0  0  0  0  0  0  0  0  0  # atno 10167 bound_to 10162
  156.0473  130.4306  150.2093 H   0  0  0  0  0  0  0  0  0  0  0  0  # atno 10718 bound_to 10713
  153.4551  135.7015  153.6085 H   0  0  0  0  0  0  0  0  0  0  0  0  # atno 10763 bound_to 10752
  153.4403  135.3782  155.2224 H   0  0  0  0  0  0  0  0  0  0  0  0  # atno 10764 bound_to 10752
  154.8728  135.3972  154.3969 H   0  0  0  0  0  0  0  0  0  0  0  0  # atno 10765 bound_to 10752
  141.0335  133.9944  157.3106 H   0  0  0  0  0  0  0  0  0  0  0  0  # atno 11005 bound_to 11000
  146.3531  140.0595  142.8630 LP  0  0  0  0  0  0  0  0  0  0  0  0  # atno 17320 bound_to 7965
  145.1182  140.9446  143.4616 LP  0  0  0  0  0  0  0  0  0  0  0  0  # atno 17321 bound_to 7965
  139.5692  144.7453  151.3937 LP  0  0  0  0  0  0  0  0  0  0  0  0  # atno 17342 bound_to 10162
  140.6998  143.7660  150.7384 LP  0  0  0  0  0  0  0  0  0  0  0  0  # atno 17343 bound_to 10162
  157.0181  130.9971  151.3347 LP  0  0  0  0  0  0  0  0  0  0  0  0  # atno 17370 bound_to 10713
  157.5363  130.8091  149.7976 LP  0  0  0  0  0  0  0  0  0  0  0  0  # atno 17371 bound_to 10713
  139.9224  135.0201  156.8114 LP  0  0  0  0  0  0  0  0  0  0  0  0  # atno 17394 bound_to 11000
  140.6363  133.9859  155.7686 LP  0  0  0  0  0  0  0  0  0  0  0  0  # atno 17395 bound_to 11000

$$$$
