AV-unprocessed.smi:2751|AV-procd|sdf|10602|dock2
  -GOLD-   2272015 53D 1   1.00000     0.00000
 Structure written by MMmdl.
 34 35  0  0  0  0  0  0  0  0  1 V2000
  156.7301  139.5002  159.0523 O   0  0  0  0  0  0  0  0  0  0  0  0
  156.6681  140.2812  160.0074 C   0  0  0  0  0  0  0  0  0  0  0  0
  155.5176  140.8815  160.3474 N   0  0  0  0  0  0  0  0  0  0  0  0
  154.2396  140.7097  159.6654 C   0  0  0  0  0  0  0  0  0  0  0  0
  153.1107  141.4701  160.3822 C   0  0  0  0  0  0  0  0  0  0  0  0
  153.0807  142.9658  160.0308 C   0  0  1  0  0  0  0  0  0  0  0  0
  152.9854  143.1973  158.5101 C   0  0  0  0  0  0  0  0  0  0  0  0
  152.8788  144.6942  158.1969 C   0  0  0  0  0  0  0  0  0  0  0  0
  151.7269  145.3087  158.9988 C   0  0  0  0  0  0  0  0  0  0  0  0
  151.8743  144.9697  160.4907 C   0  0  0  0  0  0  0  0  0  0  0  0
  151.9470  143.5577  160.6630 O   0  0  0  0  0  0  0  0  0  0  0  0
  157.6845  140.6827  160.8632 N   0  0  0  0  0  0  0  0  0  0  0  0
  158.7916  141.1597  160.3816 C   0  0  0  0  0  0  0  0  0  0  0  0
  159.2447  141.3842  159.0843 N   0  0  0  0  0  0  0  0  0  0  0  0
  160.5041  141.9103  159.1572 C   0  0  0  0  0  0  0  0  0  0  0  0
  160.8326  142.0152  160.4413 C   0  0  0  0  0  0  0  0  0  0  0  0
  159.8049  141.5637  161.2139 O   0  0  0  0  0  0  0  0  0  0  0  0
  155.5307  141.5097  161.1380 H   0  0  0  0  0  0  0  0  0  0  0  0
  154.3234  141.0305  158.6258 H   0  0  0  0  0  0  0  0  0  0  0  0
  154.0114  139.6437  159.6423 H   0  0  0  0  0  0  0  0  0  0  0  0
  152.1552  141.0191  160.1110 H   0  0  0  0  0  0  0  0  0  0  0  0
  153.2083  141.3540  161.4624 H   0  0  0  0  0  0  0  0  0  0  0  0
  153.9900  143.4347  160.4114 H   0  0  0  0  0  0  0  0  0  0  0  0
  153.8553  142.7737  158.0071 H   0  0  0  0  0  0  0  0  0  0  0  0
  152.1113  142.6797  158.1127 H   0  0  0  0  0  0  0  0  0  0  0  0
  153.8142  145.1915  158.4567 H   0  0  0  0  0  0  0  0  0  0  0  0
  152.7255  144.8500  157.1288 H   0  0  0  0  0  0  0  0  0  0  0  0
  151.7017  146.3893  158.8569 H   0  0  0  0  0  0  0  0  0  0  0  0
  150.7764  144.9213  158.6297 H   0  0  0  0  0  0  0  0  0  0  0  0
  152.7613  145.4444  160.9129 H   0  0  0  0  0  0  0  0  0  0  0  0
  151.0165  145.3482  161.0466 H   0  0  0  0  0  0  0  0  0  0  0  0
  158.7640  141.2035  158.2145 H   0  0  0  0  0  0  0  0  0  0  0  0
  161.0455  142.1601  158.2568 H   0  0  0  0  0  0  0  0  0  0  0  0
  161.7182  142.3735  160.9450 H   0  0  0  0  0  0  0  0  0  0  0  0
  1  2  2  0  0  0  0
  2 12  1  0  0  0  0
  2  3  1  0  0  0  0
  3  4  1  0  0  0  0
  3 18  1  0  0  0  0
  4  5  1  0  0  0  0
  4 19  1  0  0  0  0
  4 20  1  0  0  0  0
  5  6  1  0  0  0  0
  5 21  1  0  0  0  0
  5 22  1  0  0  0  0
  6 11  1  0  0  0  0
  6  7  1  0  0  0  0
  6 23  1  0  0  0  0
  7  8  1  0  0  0  0
  7 24  1  0  0  0  0
  7 25  1  0  0  0  0
  8  9  1  0  0  0  0
  8 26  1  0  0  0  0
  8 27  1  0  0  0  0
  9 10  1  0  0  0  0
  9 28  1  0  0  0  0
  9 29  1  0  0  0  0
 10 11  1  0  0  0  0
 10 30  1  0  0  0  0
 10 31  1  0  0  0  0
 12 13  2  0  0  0  0
 13 17  1  0  0  0  0
 13 14  1  0  0  0  0
 14 32  1  0  0  0  0
 14 15  1  0  0  0  0
 15 33  1  0  0  0  0
 15 16  2  0  0  0  0
 16 34  1  0  0  0  0
 16 17  1  0  0  0  0
M  END
> <s_m_source_file>
AV-unprocessed.smi

> <i_m_source_file_index>
2751

> <i_lp_mmshare_version>
43012

> <i_f3d_flags>
0

> <s_epik_input>
bzFbY0hdW2NIXW5jMVtOSF1DKD1PKVtOSF1bQ0gyXVtDSDJdW0NAQEhdMltDSDJdW0NIMl1bQ0gyXVtDSDJdTzI=

> <s_epik_cmdline>
J2VwaWtfcHl0aG9uJywgJy1waCcsICc3LjAnLCAnLXRuJywgJzgnLCAnLW1hJywgJzIwMCcsICctbWV0YWxfYmluZGluZycsICctaW1hZScsICc8aW5maWxlLm1hZT4nLCAnLW9tYWUnLCAnPG91dGZpbGUubWFlPic=

> <r_lp_tautomer_probability>
0.107061

> <r_epik_Ionization_Penalty>
1.421

> <r_epik_Ionization_Penalty_Charging>
1.42064

> <r_epik_Ionization_Penalty_Neutral>
0.0003614

> <r_epik_State_Penalty>
2.61489

> <r_epik_Charging_Adjusted_Penalty>
4.03553

> <i_epik_Tot_Q>
0

> <i_epik_Tot_abs_Q>
0

> <r_epik_Metal_State_Penalty>
3.57288

> <b_epik_Metal_Only>
0

> <s_lp_Force_Field>
OPLS_2005

> <r_lp_Energy>
32.5629

> <b_lp_Chiralities_Consistent>
1

> <s_lp_Variant>
AV-unprocessed.smi:2751-8

> <Gold.Version>
5.8.1

> <Gold.Id.Protein>
6NUR|6NUR_protein|mol2

> <Gold.PLP.Fitness>
45.9661

> <Gold.PLP.PLP>
-41.1616

> <Gold.PLP.part.hbond>
-4.0000

> <Gold.PLP.part.metal>
0.0000

> <Gold.PLP.part.buried>
-3.1501

> <Gold.PLP.part.nonpolar>
-34.9269

> <Gold.PLP.part.repulsive>
0.3901

> <Gold.PLP.ligand.clash>
0.0000

> <Gold.PLP.ligand.torsion>
0.5963

> <Gold.PLP.Chemscore.Hbond>
1.0000

> <Gold.PLP.Chemscore.CHOScore>
0.9944

> <Gold.PLP.Chemscore.Metal>
0.0000

> <Gold.Chemscore.Hbonds>
donor molecule, donor type, donor heavy atom, donor atom, acceptor molecule, acceptor atom, score
      P1  H  7997  8008       L1     1  0.86

> <Gold.PLP.Chemscore.Internal.Correction>
0.0138

> <Gold.Rescore>
     Score         DG    S(hbond)    S(metal)    S(lipo)     H(rot)  DE(clash)    DE(int)     intcor
     14.33     -16.43       0.92        0.00     102.95       1.63       1.36       0.73       ----

> <Gold.Chemscore.Fitness>
14.3347

> <Gold.Chemscore.DG>
-16.4272

> <Gold.Chemscore.ZeroCoef>
-5.4800

> <Gold.Chemscore.Hbond>
0.9226

> <Gold.Chemscore.Metal>
0.0000

> <Gold.Chemscore.Lipo>
102.9527

> <Gold.Chemscore.Internal_Hbond>
0.0000

> <Gold.Chemscore.DEClash>
1.3583

> <Gold.Chemscore.DEInternal>
0.7342

> <Gold.Chemscore.Rot>
1.6328

> <Gold.Chemscore.Internal.Correction>
   9.000000E+99

> <Gold.Chemscore.Hbonds>
donor molecule, donor type, donor heavy atom, donor atom, acceptor molecule, acceptor atom, score
      P1  H  7997  8008       L1     1  0.79

> <Gold.Chemscore.Hbond.Weighted>
-3.0816

> <Gold.Chemscore.Metal.Weighted>
-0.0000

> <Gold.Chemscore.Lipo.Weighted>
-12.0455

> <Gold.Chemscore.Internal_Hbond.Weighted>
0.0000

> <Gold.Chemscore.DEClash.Weighted>
1.3583

> <Gold.Chemscore.DEInternal.Weighted>
0.7342

> <Gold.Chemscore.Rot.Weighted>
4.1799

> <Gold.Chemscore.Internal.Correction.Weighted>
   9.000000E+99

> <Gold.Protein.RotatedTorsions>
[ 6907 6896 6895 6894 ] final   82.38 input  -60.11 | X-H torsion
[ 7974 7965 7964 7962 ] final -144.61 input  175.53 | X-H torsion
[ 8008 7997 7996 7995 ] final -157.51 input   59.86 | X-H torsion
[ 10167 10162 10161 10158 ] final  128.36 input  -65.29 | X-H torsion
[ 10718 10713 10712 10709 ] final   63.15 input   66.30 | X-H torsion
[ 10763 10752 10751 10750 ] final  -15.41 input  -60.55 | X-H torsion
[ 11005 11000 10999 10996 ] final  -43.28 input  -57.11 | X-H torsion

> <Gold.Protein.ActiveResidues>
 VAL166  LYS551  ARG553  GLY616  TRP617  ASP618  TYR619  PRO620  LYS621  CYS622 
 ASP623  PHE694  ASN695  SER759  ASP760  ASP761  ALA762  ILE779  LEU786  VAL792 
 PHE793  MET794  SER795  GLU796  ALA797  LYS798  CYS799  TRP800  GLU811  SER814 

> <Gold.Protein.RotatedAtoms>
  152.5297  134.3059  159.9095 H   0  0  0  0  0  0  0  0  0  0  0  0  # atno 6907 bound_to 6896
  151.3009  133.4116  159.2647 H   0  0  0  0  0  0  0  0  0  0  0  0  # atno 6908 bound_to 6896
  151.0120  134.9420  159.8069 H   0  0  0  0  0  0  0  0  0  0  0  0  # atno 6909 bound_to 6896
  144.8285  140.5688  143.5531 H   0  0  0  0  0  0  0  0  0  0  0  0  # atno 7974 bound_to 7965
  155.7335  140.0805  157.2278 H   0  0  0  0  0  0  0  0  0  0  0  0  # atno 8008 bound_to 7997
  154.4030  140.1591  156.2590 H   0  0  0  0  0  0  0  0  0  0  0  0  # atno 8009 bound_to 7997
  155.9087  140.3405  155.6084 H   0  0  0  0  0  0  0  0  0  0  0  0  # atno 8010 bound_to 7997
  139.5531  144.6828  151.4264 H   0  0  0  0  0  0  0  0  0  0  0  0  # atno 10167 bound_to 10162
  157.5951  130.9089  149.9678 H   0  0  0  0  0  0  0  0  0  0  0  0  # atno 10718 bound_to 10713
  153.5430  135.7013  153.5627 H   0  0  0  0  0  0  0  0  0  0  0  0  # atno 10763 bound_to 10752
  153.3585  135.3976  155.1700 H   0  0  0  0  0  0  0  0  0  0  0  0  # atno 10764 bound_to 10752
  154.8671  135.3783  154.4935 H   0  0  0  0  0  0  0  0  0  0  0  0  # atno 10765 bound_to 10752
  141.0373  133.6794  156.2711 H   0  0  0  0  0  0  0  0  0  0  0  0  # atno 11005 bound_to 11000
  145.4947  139.1486  143.3690 LP  0  0  0  0  0  0  0  0  0  0  0  0  # atno 17320 bound_to 7965
  146.2589  140.5085  142.8861 LP  0  0  0  0  0  0  0  0  0  0  0  0  # atno 17321 bound_to 7965
  140.6798  143.8108  150.7106 LP  0  0  0  0  0  0  0  0  0  0  0  0  # atno 17342 bound_to 10162
  140.1558  143.4318  152.2101 LP  0  0  0  0  0  0  0  0  0  0  0  0  # atno 17343 bound_to 10162
  156.1012  130.3655  150.0215 LP  0  0  0  0  0  0  0  0  0  0  0  0  # atno 17370 bound_to 10713
  156.8330  130.9399  151.3636 LP  0  0  0  0  0  0  0  0  0  0  0  0  # atno 17371 bound_to 10713
  140.6298  134.5275  157.5558 LP  0  0  0  0  0  0  0  0  0  0  0  0  # atno 17394 bound_to 11000
  139.9250  134.8074  156.1096 LP  0  0  0  0  0  0  0  0  0  0  0  0  # atno 17395 bound_to 11000

$$$$
