AV-unprocessed.smi:81|AV-procd|sdf|793|dock2
  -GOLD-   2262017173D 1   1.00000     0.00000
 Structure written by MMmdl.
 64 67  0  0  0  0  0  0  0  0  2 V2000
  151.4287  142.4916  158.4888 C   0  0  0  0  0  0  0  0  0  0  0  0
  150.9291  142.2854  157.0494 C   0  0  0  0  0  0  0  0  0  0  0  0
  149.3970  142.1981  157.0190 C   0  0  0  0  0  0  0  0  0  0  0  0
  151.5532  141.0287  156.3989 C   0  0  0  0  0  0  0  0  0  0  0  0
  150.5879  139.9777  156.0576 N   0  0  0  0  0  0  0  0  0  0  0  0
  150.4229  139.0055  156.9878 C   0  0  0  0  0  0  0  0  0  0  0  0
  151.5353  138.5562  157.6208 N   0  0  0  0  0  0  0  0  0  0  0  0
  151.4434  137.5808  158.5287 C   0  0  0  0  0  0  0  0  0  0  0  0
  150.3578  136.9225  158.9376 N   0  0  0  0  0  0  0  0  0  0  0  0
  149.2384  137.3531  158.2872 C   0  0  0  0  0  0  0  0  0  0  0  0
  149.1817  138.3828  157.3065 C   0  0  0  0  0  0  0  0  0  0  0  0
  147.8711  138.5539  156.8808 N   0  0  0  0  0  0  0  0  0  0  0  0
  147.1934  137.6770  157.5689 C   0  0  0  0  0  0  0  0  0  0  0  0
  147.9391  136.8901  158.4209 N   0  0  0  0  0  0  0  0  0  0  0  0
  147.4629  135.8448  159.3221 C   0  0  0  0  0  0  0  0  0  0  0  0
  146.0579  136.0784  159.9435 C   0  0  2  0  0  0  0  0  0  0  0  0
  146.0963  137.3034  160.6559 O   0  0  0  0  0  0  0  0  0  0  0  0
  145.6662  134.9871  160.9271 C   0  0  0  0  0  0  0  0  0  0  0  0
  144.1572  135.1597  161.0293 C   0  0  0  0  0  0  0  0  0  0  0  0
  143.7523  135.5308  159.7190 O   0  0  0  0  0  0  0  0  0  0  0  0
  144.8326  136.1224  158.9927 C   0  0  2  0  0  0  0  0  0  0  0  0
  144.9429  135.2899  157.7049 C   0  0  0  0  0  0  0  0  0  0  0  0
  150.4769  139.6143  154.6342 C   0  0  2  0  0  0  0  0  0  0  0  0
  149.1351  139.9731  153.9518 C   0  0  0  0  0  0  0  0  0  0  0  0
  148.0601  138.8732  154.0532 C   0  0  0  0  0  0  0  0  0  0  0  0
  148.5854  137.5661  153.5955 N   0  3  2  0  0  0  0  0  0  0  0  0
  147.5344  136.5272  153.5439 C   0  0  0  0  0  0  0  0  0  0  0  0
  149.7589  137.1391  154.3920 C   0  0  0  0  0  0  0  0  0  0  0  0
  150.9025  138.1656  154.2961 C   0  0  0  0  0  0  0  0  0  0  0  0
  151.1784  141.6392  159.1210 H   0  0  0  0  0  0  0  0  0  0  0  0
  150.9812  143.3798  158.9355 H   0  0  0  0  0  0  0  0  0  0  0  0
  152.5105  142.6223  158.5208 H   0  0  0  0  0  0  0  0  0  0  0  0
  151.2011  143.1673  156.4691 H   0  0  0  0  0  0  0  0  0  0  0  0
  149.0359  141.3449  157.5943 H   0  0  0  0  0  0  0  0  0  0  0  0
  149.0301  142.0910  155.9977 H   0  0  0  0  0  0  0  0  0  0  0  0
  148.9436  143.0975  157.4367 H   0  0  0  0  0  0  0  0  0  0  0  0
  152.0786  141.3302  155.4921 H   0  0  0  0  0  0  0  0  0  0  0  0
  152.3182  140.6173  157.0561 H   0  0  0  0  0  0  0  0  0  0  0  0
  152.3731  137.2825  158.9909 H   0  0  0  0  0  0  0  0  0  0  0  0
  146.1223  137.5901  157.4665 H   0  0  0  0  0  0  0  0  0  0  0  0
  147.4640  134.9004  158.7775 H   0  0  0  0  0  0  0  0  0  0  0  0
  148.2037  135.7265  160.1139 H   0  0  0  0  0  0  0  0  0  0  0  0
  145.7078  137.1656  161.5066 H   0  0  0  0  0  0  0  0  0  0  0  0
  145.8887  134.0043  160.5091 H   0  0  0  0  0  0  0  0  0  0  0  0
  146.1718  135.0618  161.8908 H   0  0  0  0  0  0  0  0  0  0  0  0
  143.6514  134.2534  161.3624 H   0  0  0  0  0  0  0  0  0  0  0  0
  143.9052  135.9641  161.7217 H   0  0  0  0  0  0  0  0  0  0  0  0
  144.5740  137.1486  158.7262 H   0  0  0  0  0  0  0  0  0  0  0  0
  145.6301  135.7376  156.9910 H   0  0  0  0  0  0  0  0  0  0  0  0
  143.9755  135.2259  157.2064 H   0  0  0  0  0  0  0  0  0  0  0  0
  145.2747  134.2722  157.9112 H   0  0  0  0  0  0  0  0  0  0  0  0
  151.2154  140.2598  154.1571 H   0  0  0  0  0  0  0  0  0  0  0  0
  148.7528  140.9232  154.3258 H   0  0  0  0  0  0  0  0  0  0  0  0
  149.3341  140.1386  152.8921 H   0  0  0  0  0  0  0  0  0  0  0  0
  147.6857  138.7720  155.0708 H   0  0  0  0  0  0  0  0  0  0  0  0
  147.2046  139.1549  153.4382 H   0  0  0  0  0  0  0  0  0  0  0  0
  147.1313  136.3293  154.5380 H   0  0  0  0  0  0  0  0  0  0  0  0
  147.9328  135.5945  153.1435 H   0  0  0  0  0  0  0  0  0  0  0  0
  146.7139  136.8415  152.8983 H   0  0  0  0  0  0  0  0  0  0  0  0
  149.4540  136.9807  155.4243 H   0  0  0  0  0  0  0  0  0  0  0  0
  150.1145  136.1756  154.0249 H   0  0  0  0  0  0  0  0  0  0  0  0
  151.2682  138.1555  153.2686 H   0  0  0  0  0  0  0  0  0  0  0  0
  151.7472  137.8487  154.9078 H   0  0  0  0  0  0  0  0  0  0  0  0
  148.9085  137.6968  152.6474 H   0  0  0  0  0  0  0  0  0  0  0  0
  1  2  1  0  0  0  0
  1 30  1  0  0  0  0
  1 31  1  0  0  0  0
  1 32  1  0  0  0  0
  2  3  1  0  0  0  0
  2  4  1  0  0  0  0
  2 33  1  0  0  0  0
  3 34  1  0  0  0  0
  3 35  1  0  0  0  0
  3 36  1  0  0  0  0
  4  5  1  0  0  0  0
  4 37  1  0  0  0  0
  4 38  1  0  0  0  0
  5  6  1  0  0  0  0
  5 23  1  0  0  0  0
  6 11  1  0  0  0  0
  6  7  2  0  0  0  0
  7  8  1  0  0  0  0
  8  9  2  0  0  0  0
  8 39  1  0  0  0  0
  9 10  1  0  0  0  0
 10 14  1  0  0  0  0
 10 11  2  0  0  0  0
 11 12  1  0  0  0  0
 12 13  2  0  0  0  0
 13 14  1  0  0  0  0
 13 40  1  0  0  0  0
 14 15  1  0  0  0  0
 15 16  1  0  0  0  0
 15 41  1  0  0  0  0
 15 42  1  0  0  0  0
 16 21  1  0  0  0  0
 16 17  1  0  0  0  0
 16 18  1  0  0  0  0
 17 43  1  0  0  0  0
 18 19  1  0  0  0  0
 18 44  1  0  0  0  0
 18 45  1  0  0  0  0
 19 20  1  0  0  0  0
 19 46  1  0  0  0  0
 19 47  1  0  0  0  0
 20 21  1  0  0  0  0
 21 22  1  0  0  0  0
 21 48  1  0  0  0  0
 22 49  1  0  0  0  0
 22 50  1  0  0  0  0
 22 51  1  0  0  0  0
 23 29  1  0  0  0  0
 23 24  1  0  0  0  0
 23 52  1  0  0  0  0
 24 25  1  0  0  0  0
 24 53  1  0  0  0  0
 24 54  1  0  0  0  0
 25 26  1  0  0  0  0
 25 55  1  0  0  0  0
 25 56  1  0  0  0  0
 26 27  1  0  0  0  0
 26 28  1  0  0  0  0
 26 64  1  0  0  0  0
 27 57  1  0  0  0  0
 27 58  1  0  0  0  0
 27 59  1  0  0  0  0
 28 29  1  0  0  0  0
 28 60  1  0  0  0  0
 28 61  1  0  0  0  0
 29 62  1  0  0  0  0
 29 63  1  0  0  0  0
M  CHG  1  26   1
M  END
> <s_m_source_file>
AV-unprocessed.smi

> <i_m_source_file_index>
81

> <i_lp_mmshare_version>
43012

> <i_f3d_flags>
0

> <s_epik_input>
W0NIMl0xW0NIMl1OKFtDSDNdKVtDSDJdW0NIMl1bQ0hdMU4oW0NIMl1bQ0hdKFtDSDNdKVtDSDNdKWMobltjSF1uMiljKGMyMyluW2NIXW4zW0NIMl1bQ0BAXTQoW09IXSlbQ0gyXVtDSDJdT1tDQEhdNFtDSDNd

> <s_epik_cmdline>
J2VwaWtfcHl0aG9uJywgJy1waCcsICc3LjAnLCAnLXRuJywgJzgnLCAnLW1hJywgJzIwMCcsICctbWV0YWxfYmluZGluZycsICctaW1hZScsICc8aW5maWxlLm1hZT4nLCAnLW9tYWUnLCAnPG91dGZpbGUubWFlPic=

> <r_lp_tautomer_probability>
1

> <r_epik_Ionization_Penalty>
0.00272708

> <r_epik_Ionization_Penalty_Charging>
0.00158983

> <r_epik_Ionization_Penalty_Neutral>
0.00113725

> <r_epik_State_Penalty>
-0

> <r_epik_Charging_Adjusted_Penalty>
0.00158983

> <i_epik_Tot_Q>
1

> <i_epik_Tot_abs_Q>
1

> <r_epik_Metal_State_Penalty>
-0

> <b_epik_Metal_Only>
0

> <s_lp_Force_Field>
OPLS_2005

> <r_lp_Energy>
52.2974

> <b_lp_Chiralities_Consistent>
1

> <s_lp_Variant>
AV-unprocessed.smi:81-8

> <Gold.Version>
5.8.1

> <Gold.Id.Protein>
6NUR|6NUR_protein|mol2

> <Gold.PLP.Fitness>
51.5331

> <Gold.PLP.PLP>
-40.8665

> <Gold.PLP.part.hbond>
-4.0000

> <Gold.PLP.part.metal>
0.0000

> <Gold.PLP.part.buried>
-6.0091

> <Gold.PLP.part.nonpolar>
-30.8723

> <Gold.PLP.part.repulsive>
0.0000

> <Gold.PLP.ligand.clash>
0.0000

> <Gold.PLP.ligand.torsion>
2.5945

> <Gold.PLP.Chemscore.Hbond>
4.6960

> <Gold.PLP.Chemscore.CHOScore>
0.0000

> <Gold.PLP.Chemscore.Metal>
0.0000

> <Gold.Chemscore.Hbonds>
donor molecule, donor type, donor heavy atom, donor atom, acceptor molecule, acceptor atom, score
      L1  H    26    64       P1  7948  0.45
      P1  H  6896  6907       L1     9  0.50
      P1  H  6934  6947       L1    17  0.98

> <Gold.PLP.Chemscore.Internal.Correction>
1.7674

> <Gold.Rescore>
     Score         DG    S(hbond)    S(metal)    S(lipo)     H(rot)  DE(clash)    DE(int)     intcor
     16.86     -21.01       3.08        0.00      95.54       2.32       0.42       3.72       ----

> <Gold.Chemscore.Fitness>
16.8643

> <Gold.Chemscore.DG>
-21.0054

> <Gold.Chemscore.ZeroCoef>
-5.4800

> <Gold.Chemscore.Hbond>
3.0769

> <Gold.Chemscore.Metal>
0.0000

> <Gold.Chemscore.Lipo>
95.5417

> <Gold.Chemscore.Internal_Hbond>
0.0000

> <Gold.Chemscore.DEClash>
0.4250

> <Gold.Chemscore.DEInternal>
3.7162

> <Gold.Chemscore.Rot>
2.3163

> <Gold.Chemscore.Internal.Correction>
   9.000000E+99

> <Gold.Chemscore.Hbonds>
donor molecule, donor type, donor heavy atom, donor atom, acceptor molecule, acceptor atom, score
      L1  H    26    64       P1  7948  0.22
      P1  H  6896  6907       L1     9  0.15
      P1  H  6934  6947       L1    17  0.37

> <Gold.Chemscore.Hbond.Weighted>
-10.2768

> <Gold.Chemscore.Metal.Weighted>
-0.0000

> <Gold.Chemscore.Lipo.Weighted>
-11.1784

> <Gold.Chemscore.Internal_Hbond.Weighted>
0.0000

> <Gold.Chemscore.DEClash.Weighted>
0.4250

> <Gold.Chemscore.DEInternal.Weighted>
3.7162

> <Gold.Chemscore.Rot.Weighted>
5.9297

> <Gold.Chemscore.Internal.Correction.Weighted>
   9.000000E+99

> <Gold.Protein.RotatedTorsions>
[ 6907 6896 6895 6894 ] final  -16.74 input  -60.11 | X-H torsion
[ 7974 7965 7964 7962 ] final   79.03 input  175.53 | X-H torsion
[ 8008 7997 7996 7995 ] final   61.33 input   59.86 | X-H torsion
[ 10167 10162 10161 10158 ] final  111.06 input  -65.29 | X-H torsion
[ 10718 10713 10712 10709 ] final  -50.59 input   66.30 | X-H torsion
[ 10763 10752 10751 10750 ] final   95.14 input  -60.55 | X-H torsion
[ 11005 11000 10999 10996 ] final -175.46 input  -57.11 | X-H torsion

> <Gold.Protein.ActiveResidues>
 VAL166  LYS551  ARG553  GLY616  TRP617  ASP618  TYR619  PRO620  LYS621  CYS622 
 ASP623  PHE694  ASN695  SER759  ASP760  ASP761  ALA762  ILE779  LEU786  VAL792 
 PHE793  MET794  SER795  GLU796  ALA797  LYS798  CYS799  TRP800  GLU811  SER814 

> <Gold.Protein.RotatedAtoms>
  151.3040  135.0776  159.9248 H   0  0  0  0  0  0  0  0  0  0  0  0  # atno 6907 bound_to 6896
  152.5291  133.9804  159.7814 H   0  0  0  0  0  0  0  0  0  0  0  0  # atno 6908 bound_to 6896
  151.0096  133.5927  159.2715 H   0  0  0  0  0  0  0  0  0  0  0  0  # atno 6909 bound_to 6896
  145.6695  139.2493  143.1876 H   0  0  0  0  0  0  0  0  0  0  0  0  # atno 7974 bound_to 7965
  155.5966  140.3493  155.4582 H   0  0  0  0  0  0  0  0  0  0  0  0  # atno 8008 bound_to 7997
  156.0260  140.1264  157.0332 H   0  0  0  0  0  0  0  0  0  0  0  0  # atno 8009 bound_to 7997
  154.4333  140.1053  156.6017 H   0  0  0  0  0  0  0  0  0  0  0  0  # atno 8010 bound_to 7997
  139.6640  144.7128  151.1812 H   0  0  0  0  0  0  0  0  0  0  0  0  # atno 10167 bound_to 10162
  156.1786  130.4150  149.9540 H   0  0  0  0  0  0  0  0  0  0  0  0  # atno 10718 bound_to 10713
  153.2497  135.4264  155.0784 H   0  0  0  0  0  0  0  0  0  0  0  0  # atno 10763 bound_to 10752
  154.8376  135.3423  154.6530 H   0  0  0  0  0  0  0  0  0  0  0  0  # atno 10764 bound_to 10752
  153.6952  135.7031  153.5135 H   0  0  0  0  0  0  0  0  0  0  0  0  # atno 10765 bound_to 10752
  140.4630  134.6236  157.4851 H   0  0  0  0  0  0  0  0  0  0  0  0  # atno 11005 bound_to 11000
  146.1057  140.7489  142.9527 LP  0  0  0  0  0  0  0  0  0  0  0  0  # atno 17320 bound_to 7965
  144.7062  140.3859  143.7117 LP  0  0  0  0  0  0  0  0  0  0  0  0  # atno 17321 bound_to 7965
  140.7592  143.5949  150.8759 LP  0  0  0  0  0  0  0  0  0  0  0  0  # atno 17342 bound_to 10162
  139.9609  143.6165  152.3002 LP  0  0  0  0  0  0  0  0  0  0  0  0  # atno 17343 bound_to 10162
  156.7317  130.9046  151.3626 LP  0  0  0  0  0  0  0  0  0  0  0  0  # atno 17370 bound_to 10713
  157.6853  130.9179  150.0370 LP  0  0  0  0  0  0  0  0  0  0  0  0  # atno 17371 bound_to 10713
  139.9933  134.6951  155.9652 LP  0  0  0  0  0  0  0  0  0  0  0  0  # atno 17394 bound_to 11000
  141.1612  133.6539  156.4326 LP  0  0  0  0  0  0  0  0  0  0  0  0  # atno 17395 bound_to 11000

$$$$
