AV-unprocessed.smi:390|AV-procd|sdf|2478|dock1
  -GOLD-   2262022413D 1   1.00000     0.00000
 Structure written by MMmdl.
 31 32  0  0  0  0  0  0  0  0  1 V2000
  155.7986  140.7369  162.0326 N   0  0  0  0  0  0  0  0  0  0  0  0
  154.9246  140.8578  161.2837 C   0  0  0  0  0  0  0  0  0  0  0  0
  153.8284  141.0083  160.3853 C   0  0  0  0  0  0  0  0  0  0  0  0
  153.3144  142.2213  160.0877 C   0  0  0  0  0  0  0  0  0  0  0  0
  152.2576  142.3937  159.2173 N   0  0  0  0  0  0  0  0  0  0  0  0
  151.6313  143.6740  159.0468 C   0  0  0  0  0  0  0  0  0  0  0  0
  151.5572  144.3137  157.6740 C   0  0  0  0  0  0  0  0  0  0  0  0
  152.4928  144.8736  158.7176 C   0  0  0  0  0  0  0  0  0  0  0  0
  151.6109  141.2723  158.6532 C   0  0  0  0  0  0  0  0  0  0  0  0
  150.5994  141.3980  157.9577 O   0  0  0  0  0  0  0  0  0  0  0  0
  152.1667  140.0016  158.9401 N   0  0  0  0  0  0  0  0  0  0  0  0
  151.5210  138.8306  158.3620 C   0  0  0  0  0  0  0  0  0  0  0  0
  151.9079  138.5456  156.9018 C   0  0  0  0  0  0  0  0  0  0  0  0
  153.0409  138.8138  156.4929 O   0  0  0  0  0  0  0  0  0  0  0  0
  150.9272  137.9991  156.1550 N   0  0  0  0  0  0  0  0  0  0  0  0
  150.9863  137.6473  154.8560 C   0  0  0  0  0  0  0  0  0  0  0  0
  149.7692  137.5125  154.3263 N   0  0  0  0  0  0  0  0  0  0  0  0
  152.0107  137.4624  154.1986 O   0  0  0  0  0  0  0  0  0  0  0  0
  153.2731  139.7890  159.8022 C   0  0  0  0  0  0  0  0  0  0  0  0
  153.7046  138.6595  160.0415 O   0  0  0  0  0  0  0  0  0  0  0  0
  153.7495  143.0974  160.5468 H   0  0  0  0  0  0  0  0  0  0  0  0
  150.7840  143.8655  159.7029 H   0  0  0  0  0  0  0  0  0  0  0  0
  152.0077  143.7869  156.8348 H   0  0  0  0  0  0  0  0  0  0  0  0
  150.6646  144.8891  157.4370 H   0  0  0  0  0  0  0  0  0  0  0  0
  152.2251  145.8240  159.1746 H   0  0  0  0  0  0  0  0  0  0  0  0
  153.5587  144.7138  158.5663 H   0  0  0  0  0  0  0  0  0  0  0  0
  151.7533  137.9724  158.9947 H   0  0  0  0  0  0  0  0  0  0  0  0
  150.4421  138.9636  158.4568 H   0  0  0  0  0  0  0  0  0  0  0  0
  150.0495  137.8363  156.6255 H   0  0  0  0  0  0  0  0  0  0  0  0
  149.6593  137.2521  153.3574 H   0  0  0  0  0  0  0  0  0  0  0  0
  148.9565  137.6736  154.9038 H   0  0  0  0  0  0  0  0  0  0  0  0
  1  2  3  0  0  0  0
  2  3  1  0  0  0  0
  3 19  1  0  0  0  0
  3  4  2  0  0  0  0
  4  5  1  0  0  0  0
  4 21  1  0  0  0  0
  5  6  1  0  0  0  0
  5  9  1  0  0  0  0
  6  8  1  0  0  0  0
  6  7  1  0  0  0  0
  6 22  1  0  0  0  0
  7  8  1  0  0  0  0
  7 23  1  0  0  0  0
  7 24  1  0  0  0  0
  8 25  1  0  0  0  0
  8 26  1  0  0  0  0
  9 10  2  0  0  0  0
  9 11  1  0  0  0  0
 11 12  1  0  0  0  0
 11 19  1  0  0  0  0
 12 13  1  0  0  0  0
 12 27  1  0  0  0  0
 12 28  1  0  0  0  0
 13 14  2  0  0  0  0
 13 15  1  0  0  0  0
 15 16  1  0  0  0  0
 15 29  1  0  0  0  0
 16 17  1  0  0  0  0
 16 18  2  0  0  0  0
 17 30  1  0  0  0  0
 17 31  1  0  0  0  0
 19 20  2  0  0  0  0
M  END
> <s_m_source_file>
AV-unprocessed.smi

> <i_m_source_file_index>
390

> <i_lp_mmshare_version>
43012

> <i_f3d_flags>
0

> <s_epik_input>
TiNDYzFbY0hdbihbQ0hdMltDSDJdW0NIMl0yKWMoPU8pbihjMT1PKVtDSDJdQyg9TylbTkhdQyg9TylbTkgyXQ==

> <s_epik_cmdline>
J2VwaWtfcHl0aG9uJywgJy1waCcsICc3LjAnLCAnLXRuJywgJzgnLCAnLW1hJywgJzIwMCcsICctbWV0YWxfYmluZGluZycsICctaW1hZScsICc8aW5maWxlLm1hZT4nLCAnLW9tYWUnLCAnPG91dGZpbGUubWFlPic=

> <r_lp_tautomer_probability>
1

> <r_epik_Ionization_Penalty>
3.12406e-05

> <r_epik_Ionization_Penalty_Charging>
4.21484e-11

> <r_epik_Ionization_Penalty_Neutral>
3.12406e-05

> <r_epik_State_Penalty>
-0

> <r_epik_Charging_Adjusted_Penalty>
4.21484e-11

> <i_epik_Tot_Q>
0

> <i_epik_Tot_abs_Q>
0

> <r_epik_Metal_State_Penalty>
-0

> <b_epik_Metal_Only>
0

> <s_lp_Force_Field>
OPLS_2005

> <r_lp_Energy>
30.8642

> <b_lp_Chiralities_Consistent>
1

> <s_lp_Variant>
AV-unprocessed.smi:390-1

> <Gold.Version>
5.8.1

> <Gold.Id.Protein>
6NUR|6NUR_protein|mol2

> <Gold.PLP.Fitness>
48.1997

> <Gold.PLP.PLP>
-41.3206

> <Gold.PLP.part.hbond>
-4.0000

> <Gold.PLP.part.metal>
0.0000

> <Gold.PLP.part.buried>
-5.7680

> <Gold.PLP.part.nonpolar>
-32.6024

> <Gold.PLP.part.repulsive>
0.2690

> <Gold.PLP.ligand.clash>
0.0000

> <Gold.PLP.ligand.torsion>
0.9107

> <Gold.PLP.Chemscore.Hbond>
2.8240

> <Gold.PLP.Chemscore.CHOScore>
0.0000

> <Gold.PLP.Chemscore.Metal>
0.0000

> <Gold.Chemscore.Hbonds>
donor molecule, donor type, donor heavy atom, donor atom, acceptor molecule, acceptor atom, score
      L1  H    17    30       P1  7948  1.00
      P1  H  7997  8008       L1    14  1.00
      P1  H 10752 10764       L1    18  0.91

> <Gold.PLP.Chemscore.Internal.Correction>
0.2286

> <Gold.Rescore>
     Score         DG    S(hbond)    S(metal)    S(lipo)     H(rot)  DE(clash)    DE(int)     intcor
     13.28     -16.88       2.82        0.00      62.81       2.09       1.40       2.21       ----

> <Gold.Chemscore.Fitness>
13.2757

> <Gold.Chemscore.DG>
-16.8817

> <Gold.Chemscore.ZeroCoef>
-5.4800

> <Gold.Chemscore.Hbond>
2.8163

> <Gold.Chemscore.Metal>
0.0000

> <Gold.Chemscore.Lipo>
62.8114

> <Gold.Chemscore.Internal_Hbond>
0.0000

> <Gold.Chemscore.DEClash>
1.3964

> <Gold.Chemscore.DEInternal>
2.2096

> <Gold.Chemscore.Rot>
2.0913

> <Gold.Chemscore.Internal.Correction>
   9.000000E+99

> <Gold.Chemscore.Hbonds>
donor molecule, donor type, donor heavy atom, donor atom, acceptor molecule, acceptor atom, score
      L1  H    17    30       P1  7948  0.73
      P1  H  7997  8008       L1    14  0.98
      P1  H 10752 10764       L1    18  0.83

> <Gold.Chemscore.Hbond.Weighted>
-9.4064

> <Gold.Chemscore.Metal.Weighted>
-0.0000

> <Gold.Chemscore.Lipo.Weighted>
-7.3489

> <Gold.Chemscore.Internal_Hbond.Weighted>
0.0000

> <Gold.Chemscore.DEClash.Weighted>
1.3964

> <Gold.Chemscore.DEInternal.Weighted>
2.2096

> <Gold.Chemscore.Rot.Weighted>
5.3537

> <Gold.Chemscore.Internal.Correction.Weighted>
   9.000000E+99

> <Gold.Protein.RotatedTorsions>
[ 6907 6896 6895 6894 ] final  172.76 input  -60.11 | X-H torsion
[ 7974 7965 7964 7962 ] final -142.60 input  175.53 | X-H torsion
[ 8008 7997 7996 7995 ] final  -41.26 input   59.86 | X-H torsion
[ 10167 10162 10161 10158 ] final  -11.85 input  -65.29 | X-H torsion
[ 10718 10713 10712 10709 ] final -118.77 input   66.30 | X-H torsion
[ 10763 10752 10751 10750 ] final  -87.89 input  -60.55 | X-H torsion
[ 11005 11000 10999 10996 ] final  108.88 input  -57.11 | X-H torsion

> <Gold.Protein.ActiveResidues>
 VAL166  LYS551  ARG553  GLY616  TRP617  ASP618  TYR619  PRO620  LYS621  CYS622 
 ASP623  PHE694  ASN695  SER759  ASP760  ASP761  ALA762  ILE779  LEU786  VAL792 
 PHE793  MET794  SER795  GLU796  ALA797  LYS798  CYS799  TRP800  GLU811  SER814 

> <Gold.Protein.RotatedAtoms>
  151.7792  133.3348  159.3466 H   0  0  0  0  0  0  0  0  0  0  0  0  # atno 6907 bound_to 6896
  150.7432  134.5947  159.6015 H   0  0  0  0  0  0  0  0  0  0  0  0  # atno 6908 bound_to 6896
  152.3288  134.7288  160.0346 H   0  0  0  0  0  0  0  0  0  0  0  0  # atno 6909 bound_to 6896
  144.8431  140.5938  143.5439 H   0  0  0  0  0  0  0  0  0  0  0  0  # atno 7974 bound_to 7965
  154.4005  140.1504  156.3162 H   0  0  0  0  0  0  0  0  0  0  0  0  # atno 8008 bound_to 7997
  155.8571  140.3455  155.5710 H   0  0  0  0  0  0  0  0  0  0  0  0  # atno 8009 bound_to 7997
  155.7921  140.0858  157.1993 H   0  0  0  0  0  0  0  0  0  0  0  0  # atno 8010 bound_to 7997
  140.7148  143.5595  150.9211 H   0  0  0  0  0  0  0  0  0  0  0  0  # atno 10167 bound_to 10162
  156.1131  130.6264  150.9333 H   0  0  0  0  0  0  0  0  0  0  0  0  # atno 10718 bound_to 10713
  154.6386  135.5397  153.7762 H   0  0  0  0  0  0  0  0  0  0  0  0  # atno 10763 bound_to 10752
  153.0321  135.6453  154.1194 H   0  0  0  0  0  0  0  0  0  0  0  0  # atno 10764 bound_to 10752
  154.1120  135.2926  155.3208 H   0  0  0  0  0  0  0  0  0  0  0  0  # atno 10765 bound_to 10752
  139.8852  134.9443  156.6041 H   0  0  0  0  0  0  0  0  0  0  0  0  # atno 11005 bound_to 11000
  145.4652  139.1509  143.3844 LP  0  0  0  0  0  0  0  0  0  0  0  0  # atno 17320 bound_to 7965
  146.2720  140.4784  142.8810 LP  0  0  0  0  0  0  0  0  0  0  0  0  # atno 17321 bound_to 7965
  139.9320  143.6482  152.3074 LP  0  0  0  0  0  0  0  0  0  0  0  0  # atno 17342 bound_to 10162
  139.6936  144.7644  151.1395 LP  0  0  0  0  0  0  0  0  0  0  0  0  # atno 17343 bound_to 10162
  157.6313  131.0921  150.8435 LP  0  0  0  0  0  0  0  0  0  0  0  0  # atno 17370 bound_to 10713
  156.8543  130.5091  149.5309 LP  0  0  0  0  0  0  0  0  0  0  0  0  # atno 17371 bound_to 10713
  140.7861  133.8620  155.8608 LP  0  0  0  0  0  0  0  0  0  0  0  0  # atno 17394 bound_to 11000
  140.9718  134.1521  157.4570 LP  0  0  0  0  0  0  0  0  0  0  0  0  # atno 17395 bound_to 11000

$$$$
