AV-unprocessed.smi:2901|AV-procd|sdf|11150|dock8
  -GOLD-   2272016 33D 1   1.00000     0.00000
 Structure written by MMmdl.
 40 41  0  0  0  0  0  0  0  0  1 V2000
  148.5029  140.3449  154.4927 C   0  0  0  0  0  0  0  0  0  0  0  0
  149.6028  139.3492  154.6273 C   0  0  0  0  0  0  0  0  0  0  0  0
  149.4908  138.0531  154.9116 N   0  0  0  0  0  0  0  0  0  0  0  0
  150.7954  137.5794  154.9221 C   0  0  0  0  0  0  0  0  0  0  0  0
  151.1222  136.1430  155.1936 C   0  0  0  0  0  0  0  0  0  0  0  0
  149.8677  135.3238  155.5371 C   0  0  0  0  0  0  0  0  0  0  0  0
  149.1211  134.9515  154.3410 N   0  0  0  0  0  0  0  0  0  0  0  0
  148.4646  133.7942  154.1787 C   0  0  0  0  0  0  0  0  0  0  0  0
  148.4095  132.9083  155.0320 O   0  0  0  0  0  0  0  0  0  0  0  0
  147.8765  133.7196  152.9767 N   0  0  0  0  0  0  0  0  0  0  0  0
  147.0739  132.5961  152.5070 C   0  0  0  0  0  0  0  0  0  0  0  0
  146.0060  133.0491  151.4982 C   0  0  1  0  0  0  0  0  0  0  0  0
  145.3995  131.9016  150.6939 C   0  0  0  0  0  0  0  0  0  0  0  0
  144.0883  132.5058  150.2465 C   0  0  0  0  0  0  0  0  0  0  0  0
  143.6821  133.3272  151.4680 C   0  0  0  0  0  0  0  0  0  0  0  0
  144.8901  133.6423  152.1568 O   0  0  0  0  0  0  0  0  0  0  0  0
  151.6327  138.6261  154.6309 C   0  0  0  0  0  0  0  0  0  0  0  0
  153.1128  138.7366  154.4865 C   0  0  0  0  0  0  0  0  0  0  0  0
  150.8871  139.7589  154.4445 O   0  0  0  0  0  0  0  0  0  0  0  0
  147.5531  139.9060  154.7996 H   0  0  0  0  0  0  0  0  0  0  0  0
  148.4208  140.6711  153.4559 H   0  0  0  0  0  0  0  0  0  0  0  0
  148.7065  141.2128  155.1199 H   0  0  0  0  0  0  0  0  0  0  0  0
  151.6213  135.7099  154.3259 H   0  0  0  0  0  0  0  0  0  0  0  0
  151.8378  136.0740  156.0140 H   0  0  0  0  0  0  0  0  0  0  0  0
  150.1515  134.4096  156.0595 H   0  0  0  0  0  0  0  0  0  0  0  0
  149.2229  135.8827  156.2179 H   0  0  0  0  0  0  0  0  0  0  0  0
  149.1076  135.6197  153.5843 H   0  0  0  0  0  0  0  0  0  0  0  0
  147.9817  134.4998  152.3450 H   0  0  0  0  0  0  0  0  0  0  0  0
  147.7502  131.8877  152.0281 H   0  0  0  0  0  0  0  0  0  0  0  0
  146.6153  132.0659  153.3436 H   0  0  0  0  0  0  0  0  0  0  0  0
  146.4238  133.7852  150.8093 H   0  0  0  0  0  0  0  0  0  0  0  0
  146.0298  131.5833  149.8632 H   0  0  0  0  0  0  0  0  0  0  0  0
  145.2125  131.0383  151.3343 H   0  0  0  0  0  0  0  0  0  0  0  0
  144.2539  133.1614  149.3905 H   0  0  0  0  0  0  0  0  0  0  0  0
  143.3440  131.7597  149.9667 H   0  0  0  0  0  0  0  0  0  0  0  0
  143.1371  134.2302  151.1915 H   0  0  0  0  0  0  0  0  0  0  0  0
  143.0482  132.7401  152.1331 H   0  0  0  0  0  0  0  0  0  0  0  0
  153.5548  137.7685  154.2500 H   0  0  0  0  0  0  0  0  0  0  0  0
  153.5640  139.0981  155.4105 H   0  0  0  0  0  0  0  0  0  0  0  0
  153.3746  139.4294  153.6865 H   0  0  0  0  0  0  0  0  0  0  0  0
  1  2  1  0  0  0  0
  1 20  1  0  0  0  0
  1 21  1  0  0  0  0
  1 22  1  0  0  0  0
  2 19  1  0  0  0  0
  2  3  2  0  0  0  0
  3  4  1  0  0  0  0
  4  5  1  0  0  0  0
  4 17  2  0  0  0  0
  5  6  1  0  0  0  0
  5 23  1  0  0  0  0
  5 24  1  0  0  0  0
  6  7  1  0  0  0  0
  6 25  1  0  0  0  0
  6 26  1  0  0  0  0
  7  8  1  0  0  0  0
  7 27  1  0  0  0  0
  8  9  2  0  0  0  0
  8 10  1  0  0  0  0
 10 11  1  0  0  0  0
 10 28  1  0  0  0  0
 11 12  1  0  0  0  0
 11 29  1  0  0  0  0
 11 30  1  0  0  0  0
 12 16  1  0  0  0  0
 12 13  1  0  0  0  0
 12 31  1  0  0  0  0
 13 14  1  0  0  0  0
 13 32  1  0  0  0  0
 13 33  1  0  0  0  0
 14 15  1  0  0  0  0
 14 34  1  0  0  0  0
 14 35  1  0  0  0  0
 15 16  1  0  0  0  0
 15 36  1  0  0  0  0
 15 37  1  0  0  0  0
 17 18  1  0  0  0  0
 17 19  1  0  0  0  0
 18 38  1  0  0  0  0
 18 39  1  0  0  0  0
 18 40  1  0  0  0  0
M  END
> <s_m_source_file>
AV-unprocessed.smi

> <i_m_source_file_index>
2901

> <i_lp_mmshare_version>
43012

> <i_f3d_flags>
0

> <s_epik_input>
W0NIM11jMW5jKGMobzEpW0NIM10pW0NIMl1bQ0gyXVtOSF1DKD1PKVtOSF1bQ0gyXVtDQEBIXTJbQ0gyXVtDSDJdW0NIMl1PMg==

> <s_epik_cmdline>
J2VwaWtfcHl0aG9uJywgJy1waCcsICc3LjAnLCAnLXRuJywgJzgnLCAnLW1hJywgJzIwMCcsICctbWV0YWxfYmluZGluZycsICctaW1hZScsICc8aW5maWxlLm1hZT4nLCAnLW9tYWUnLCAnPG91dGZpbGUubWFlPic=

> <r_lp_tautomer_probability>
1

> <r_epik_Ionization_Penalty>
9.58254e-05

> <r_epik_Ionization_Penalty_Charging>
0

> <r_epik_Ionization_Penalty_Neutral>
9.58254e-05

> <r_epik_State_Penalty>
-0

> <r_epik_Charging_Adjusted_Penalty>
0

> <i_epik_Tot_Q>
0

> <i_epik_Tot_abs_Q>
0

> <r_epik_Metal_State_Penalty>
-0

> <b_epik_Metal_Only>
0

> <s_lp_Force_Field>
OPLS_2005

> <r_lp_Energy>
8.56878

> <b_lp_Chiralities_Consistent>
1

> <s_lp_Variant>
AV-unprocessed.smi:2901-2

> <Gold.Version>
5.8.1

> <Gold.Id.Protein>
6NUR|6NUR_protein|mol2

> <Gold.PLP.Fitness>
44.2068

> <Gold.PLP.PLP>
-36.5291

> <Gold.PLP.part.hbond>
-3.0000

> <Gold.PLP.part.metal>
0.0000

> <Gold.PLP.part.buried>
-5.3911

> <Gold.PLP.part.nonpolar>
-29.0721

> <Gold.PLP.part.repulsive>
0.4014

> <Gold.PLP.ligand.clash>
0.0000

> <Gold.PLP.ligand.torsion>
0.6047

> <Gold.PLP.Chemscore.Hbond>
2.9500

> <Gold.PLP.Chemscore.CHOScore>
0.0000

> <Gold.PLP.Chemscore.Metal>
0.0000

> <Gold.Chemscore.Hbonds>
donor molecule, donor type, donor heavy atom, donor atom, acceptor molecule, acceptor atom, score
      L1  H     7    27       P1  7948  1.00
      L1  H    10    28       P1  7948  0.98
      P1  H  7989  7998       L1    19  1.00

> <Gold.PLP.Chemscore.Internal.Correction>
0.0370

> <Gold.Rescore>
     Score         DG    S(hbond)    S(metal)    S(lipo)     H(rot)  DE(clash)    DE(int)     intcor
     16.51     -16.99       2.27        0.00      75.63       1.92       0.02       0.46       ----

> <Gold.Chemscore.Fitness>
16.5072

> <Gold.Chemscore.DG>
-16.9940

> <Gold.Chemscore.ZeroCoef>
-5.4800

> <Gold.Chemscore.Hbond>
2.2671

> <Gold.Chemscore.Metal>
0.0000

> <Gold.Chemscore.Lipo>
75.6292

> <Gold.Chemscore.Internal_Hbond>
0.0000

> <Gold.Chemscore.DEClash>
0.0226

> <Gold.Chemscore.DEInternal>
0.4642

> <Gold.Chemscore.Rot>
1.9167

> <Gold.Chemscore.Internal.Correction>
   9.000000E+99

> <Gold.Chemscore.Hbonds>
donor molecule, donor type, donor heavy atom, donor atom, acceptor molecule, acceptor atom, score
      L1  H     7    27       P1  7948  0.69
      L1  H    10    28       P1  7948  0.31
      P1  H  7989  7998       L1    19  0.85

> <Gold.Chemscore.Hbond.Weighted>
-7.5722

> <Gold.Chemscore.Metal.Weighted>
-0.0000

> <Gold.Chemscore.Lipo.Weighted>
-8.8486

> <Gold.Chemscore.Internal_Hbond.Weighted>
0.0000

> <Gold.Chemscore.DEClash.Weighted>
0.0226

> <Gold.Chemscore.DEInternal.Weighted>
0.4642

> <Gold.Chemscore.Rot.Weighted>
4.9069

> <Gold.Chemscore.Internal.Correction.Weighted>
   9.000000E+99

> <Gold.Protein.RotatedTorsions>
[ 6907 6896 6895 6894 ] final -133.60 input  -60.11 | X-H torsion
[ 7974 7965 7964 7962 ] final -148.91 input  175.53 | X-H torsion
[ 8008 7997 7996 7995 ] final -123.69 input   59.86 | X-H torsion
[ 10167 10162 10161 10158 ] final -139.08 input  -65.29 | X-H torsion
[ 10718 10713 10712 10709 ] final -138.00 input   66.30 | X-H torsion
[ 10763 10752 10751 10750 ] final   22.03 input  -60.55 | X-H torsion
[ 11005 11000 10999 10996 ] final  -92.03 input  -57.11 | X-H torsion

> <Gold.Protein.ActiveResidues>
 VAL166  LYS551  ARG553  GLY616  TRP617  ASP618  TYR619  PRO620  LYS621  CYS622 
 ASP623  PHE694  ASN695  SER759  ASP760  ASP761  ALA762  ILE779  LEU786  VAL792 
 PHE793  MET794  SER795  GLU796  ALA797  LYS798  CYS799  TRP800  GLU811  SER814 

> <Gold.Protein.RotatedAtoms>
  150.9759  133.6295  159.2730 H   0  0  0  0  0  0  0  0  0  0  0  0  # atno 6907 bound_to 6896
  151.3567  135.0894  159.9431 H   0  0  0  0  0  0  0  0  0  0  0  0  # atno 6908 bound_to 6896
  152.5199  133.9341  159.7649 H   0  0  0  0  0  0  0  0  0  0  0  0  # atno 6909 bound_to 6896
  144.8000  140.5135  143.5714 H   0  0  0  0  0  0  0  0  0  0  0  0  # atno 7974 bound_to 7965
  155.1847  140.0411  157.2889 H   0  0  0  0  0  0  0  0  0  0  0  0  # atno 8008 bound_to 7997
  154.6179  140.2493  155.7558 H   0  0  0  0  0  0  0  0  0  0  0  0  # atno 8009 bound_to 7997
  156.2417  140.2901  156.0473 H   0  0  0  0  0  0  0  0  0  0  0  0  # atno 8010 bound_to 7997
  139.8415  143.7316  152.2663 H   0  0  0  0  0  0  0  0  0  0  0  0  # atno 10167 bound_to 10162
  156.2945  130.7393  151.1428 H   0  0  0  0  0  0  0  0  0  0  0  0  # atno 10718 bound_to 10713
  153.0948  135.6656  153.9784 H   0  0  0  0  0  0  0  0  0  0  0  0  # atno 10763 bound_to 10752
  153.9371  135.2998  155.3445 H   0  0  0  0  0  0  0  0  0  0  0  0  # atno 10764 bound_to 10752
  154.7365  135.5099  153.9125 H   0  0  0  0  0  0  0  0  0  0  0  0  # atno 10765 bound_to 10752
  141.1531  133.7794  156.9963 H   0  0  0  0  0  0  0  0  0  0  0  0  # atno 11005 bound_to 11000
  145.5577  139.1478  143.3359 LP  0  0  0  0  0  0  0  0  0  0  0  0  # atno 17320 bound_to 7965
  146.2279  140.5713  142.8988 LP  0  0  0  0  0  0  0  0  0  0  0  0  # atno 17321 bound_to 7965
  139.7554  144.7522  151.0443 LP  0  0  0  0  0  0  0  0  0  0  0  0  # atno 17342 bound_to 10162
  140.7797  143.4811  151.0016 LP  0  0  0  0  0  0  0  0  0  0  0  0  # atno 17343 bound_to 10162
  157.7351  131.0575  150.5486 LP  0  0  0  0  0  0  0  0  0  0  0  0  # atno 17370 bound_to 10713
  156.5606  130.4254  149.6064 LP  0  0  0  0  0  0  0  0  0  0  0  0  # atno 17371 bound_to 10713
  140.0970  134.9558  157.1864 LP  0  0  0  0  0  0  0  0  0  0  0  0  # atno 17394 bound_to 11000
  140.3370  134.2747  155.7218 LP  0  0  0  0  0  0  0  0  0  0  0  0  # atno 17395 bound_to 11000

$$$$
