AV-unprocessed.smi:281|AV-procd|sdf|2116|dock1
  -GOLD-   2262021413D 1   1.00000     0.00000
 Structure written by MMmdl.
 55 59  0  0  0  0  0  0  0  0  1 V2000
  148.8488  137.7463  158.9437 C   0  0  0  0  0  0  0  0  0  0  0  0
  149.6227  137.3032  157.6983 C   0  0  1  0  0  0  0  0  0  0  0  0
  148.9702  136.0922  157.0137 C   0  0  0  0  0  0  0  0  0  0  0  0
  149.6932  135.7815  155.7901 N   0  0  0  0  0  0  0  0  0  0  0  0
  149.3549  134.6192  155.1947 C   0  0  0  0  0  0  0  0  0  0  0  0
  150.2629  133.6148  155.2517 N   0  0  0  0  0  0  0  0  0  0  0  0
  149.9959  132.4402  154.6729 C   0  0  0  0  0  0  0  0  0  0  0  0
  148.9061  132.0710  153.9964 N   0  0  0  0  0  0  0  0  0  0  0  0
  147.9936  133.0831  153.9327 C   0  0  0  0  0  0  0  0  0  0  0  0
  148.1370  134.3823  154.4962 C   0  0  0  0  0  0  0  0  0  0  0  0
  147.0135  135.1487  154.2103 N   0  0  0  0  0  0  0  0  0  0  0  0
  146.2472  134.3464  153.5234 C   0  0  0  0  0  0  0  0  0  0  0  0
  146.7527  133.0821  153.3186 N   0  0  0  0  0  0  0  0  0  0  0  0
  146.1180  131.9938  152.5904 C   0  0  0  0  0  0  0  0  0  0  0  0
  145.7085  132.3637  151.1436 C   0  0  2  0  0  0  0  0  0  0  0  0
  146.8361  132.8821  150.4624 O   0  0  0  0  0  0  0  0  0  0  0  0
  144.5837  133.4005  151.1064 C   0  0  0  0  0  0  0  0  0  0  0  0
  143.3705  132.5966  150.6561 C   0  0  0  0  0  0  0  0  0  0  0  0
  143.9370  131.6692  149.7482 O   0  0  0  0  0  0  0  0  0  0  0  0
  145.1307  131.1794  150.3419 C   0  0  0  0  0  0  0  0  0  0  0  0
  149.7500  136.9052  154.8667 C   0  0  0  0  0  0  0  0  0  0  0  0
  150.3481  138.1551  155.5541 C   0  0  1  0  0  0  0  0  0  0  0  0
  151.8599  138.0516  155.7998 C   0  0  0  0  0  0  0  0  0  0  0  0
  152.4752  138.9941  154.7746 C   0  0  0  0  0  0  0  0  0  0  0  0
  151.5093  140.0245  154.6891 O   0  0  0  0  0  0  0  0  0  0  0  0
  150.2391  139.3923  154.6292 C   0  0  2  0  0  0  0  0  0  0  0  0
  149.1266  140.3935  154.9724 C   0  0  0  0  0  0  0  0  0  0  0  0
  149.6517  138.4003  156.7838 O   0  0  0  0  0  0  0  0  0  0  0  0
  148.8023  136.9461  159.6828 H   0  0  0  0  0  0  0  0  0  0  0  0
  147.8266  138.0308  158.6922 H   0  0  0  0  0  0  0  0  0  0  0  0
  149.3277  138.6055  159.4138 H   0  0  0  0  0  0  0  0  0  0  0  0
  150.6385  137.0451  157.9993 H   0  0  0  0  0  0  0  0  0  0  0  0
  148.9801  135.2290  157.6807 H   0  0  0  0  0  0  0  0  0  0  0  0
  147.9279  136.3175  156.7863 H   0  0  0  0  0  0  0  0  0  0  0  0
  150.7663  131.6888  154.7640 H   0  0  0  0  0  0  0  0  0  0  0  0
  145.2851  134.6598  153.1448 H   0  0  0  0  0  0  0  0  0  0  0  0
  146.8053  131.1468  152.5795 H   0  0  0  0  0  0  0  0  0  0  0  0
  145.2446  131.6688  153.1578 H   0  0  0  0  0  0  0  0  0  0  0  0
  147.5025  132.2127  150.4340 H   0  0  0  0  0  0  0  0  0  0  0  0
  144.4198  133.9006  152.0616 H   0  0  0  0  0  0  0  0  0  0  0  0
  144.7883  134.1745  150.3646 H   0  0  0  0  0  0  0  0  0  0  0  0
  142.9174  132.0647  151.4943 H   0  0  0  0  0  0  0  0  0  0  0  0
  142.6070  133.2135  150.1817 H   0  0  0  0  0  0  0  0  0  0  0  0
  145.8153  130.7840  149.5903 H   0  0  0  0  0  0  0  0  0  0  0  0
  144.8531  130.3558  151.0000 H   0  0  0  0  0  0  0  0  0  0  0  0
  150.3394  136.6382  153.9881 H   0  0  0  0  0  0  0  0  0  0  0  0
  148.7401  137.1253  154.5171 H   0  0  0  0  0  0  0  0  0  0  0  0
  152.1070  138.4202  156.7961 H   0  0  0  0  0  0  0  0  0  0  0  0
  152.2489  137.0360  155.7186 H   0  0  0  0  0  0  0  0  0  0  0  0
  153.4487  139.3757  155.0829 H   0  0  0  0  0  0  0  0  0  0  0  0
  152.5841  138.5055  153.8052 H   0  0  0  0  0  0  0  0  0  0  0  0
  150.1030  139.0640  153.5968 H   0  0  0  0  0  0  0  0  0  0  0  0
  148.1477  139.9139  154.9481 H   0  0  0  0  0  0  0  0  0  0  0  0
  149.1122  141.2154  154.2566 H   0  0  0  0  0  0  0  0  0  0  0  0
  149.2680  140.8240  155.9640 H   0  0  0  0  0  0  0  0  0  0  0  0
  1  2  1  0  0  0  0
  1 29  1  0  0  0  0
  1 30  1  0  0  0  0
  1 31  1  0  0  0  0
  2 28  1  0  0  0  0
  2  3  1  0  0  0  0
  2 32  1  0  0  0  0
  3  4  1  0  0  0  0
  3 33  1  0  0  0  0
  3 34  1  0  0  0  0
  4  5  1  0  0  0  0
  4 21  1  0  0  0  0
  5 10  1  0  0  0  0
  5  6  2  0  0  0  0
  6  7  1  0  0  0  0
  7  8  2  0  0  0  0
  7 35  1  0  0  0  0
  8  9  1  0  0  0  0
  9 13  1  0  0  0  0
  9 10  2  0  0  0  0
 10 11  1  0  0  0  0
 11 12  2  0  0  0  0
 12 13  1  0  0  0  0
 12 36  1  0  0  0  0
 13 14  1  0  0  0  0
 14 15  1  0  0  0  0
 14 37  1  0  0  0  0
 14 38  1  0  0  0  0
 15 20  1  0  0  0  0
 15 16  1  0  0  0  0
 15 17  1  0  0  0  0
 16 39  1  0  0  0  0
 17 18  1  0  0  0  0
 17 40  1  0  0  0  0
 17 41  1  0  0  0  0
 18 19  1  0  0  0  0
 18 42  1  0  0  0  0
 18 43  1  0  0  0  0
 19 20  1  0  0  0  0
 20 44  1  0  0  0  0
 20 45  1  0  0  0  0
 21 22  1  0  0  0  0
 21 46  1  0  0  0  0
 21 47  1  0  0  0  0
 22 26  1  0  0  0  0
 22 23  1  0  0  0  0
 22 28  1  0  0  0  0
 23 24  1  0  0  0  0
 23 48  1  0  0  0  0
 23 49  1  0  0  0  0
 24 25  1  0  0  0  0
 24 50  1  0  0  0  0
 24 51  1  0  0  0  0
 25 26  1  0  0  0  0
 26 27  1  0  0  0  0
 26 52  1  0  0  0  0
 27 53  1  0  0  0  0
 27 54  1  0  0  0  0
 27 55  1  0  0  0  0
M  END
> <s_m_source_file>
AV-unprocessed.smi

> <i_m_source_file_index>
281

> <i_lp_mmshare_version>
43012

> <i_f3d_flags>
0

> <s_epik_input>
W0NIM11bQ0BASF0xT1tDSDJdW0NIMl1bQ0BAXTEyW0NIMl1OKFtDSDJdW0NASF0oTzIpW0NIM10pYyhuW2NIXW4zKWMoYzM0KW5bY0hdbjRbQ0gyXVtDQEBdNShbT0hdKVtDSDJdW0NIMl1PW0NIMl01

> <s_epik_cmdline>
J2VwaWtfcHl0aG9uJywgJy1waCcsICc3LjAnLCAnLXRuJywgJzgnLCAnLW1hJywgJzIwMCcsICctbWV0YWxfYmluZGluZycsICctaW1hZScsICc8aW5maWxlLm1hZT4nLCAnLW9tYWUnLCAnPG91dGZpbGUubWFlPic=

> <r_lp_tautomer_probability>
1

> <r_epik_Ionization_Penalty>
0.00571331

> <r_epik_Ionization_Penalty_Charging>
0

> <r_epik_Ionization_Penalty_Neutral>
0.00571331

> <r_epik_State_Penalty>
0.00399586

> <r_epik_Charging_Adjusted_Penalty>
0.00399586

> <i_epik_Tot_Q>
0

> <i_epik_Tot_abs_Q>
0

> <r_epik_Metal_State_Penalty>
-0

> <b_epik_Metal_Only>
0

> <s_lp_Force_Field>
OPLS_2005

> <r_lp_Energy>
55.1206

> <b_lp_Chiralities_Consistent>
1

> <s_lp_Variant>
AV-unprocessed.smi:281-16

> <Gold.Version>
5.8.1

> <Gold.Id.Protein>
6NUR|6NUR_protein|mol2

> <Gold.PLP.Fitness>
45.9266

> <Gold.PLP.PLP>
-37.8461

> <Gold.PLP.part.hbond>
-2.9189

> <Gold.PLP.part.metal>
0.0000

> <Gold.PLP.part.buried>
-7.0351

> <Gold.PLP.part.nonpolar>
-29.6437

> <Gold.PLP.part.repulsive>
0.5297

> <Gold.PLP.ligand.clash>
0.0000

> <Gold.PLP.ligand.torsion>
0.1763

> <Gold.PLP.Chemscore.Hbond>
2.7540

> <Gold.PLP.Chemscore.CHOScore>
0.0000

> <Gold.PLP.Chemscore.Metal>
0.0000

> <Gold.Chemscore.Hbonds>
donor molecule, donor type, donor heavy atom, donor atom, acceptor molecule, acceptor atom, score
      L1  H    16    39       P1 10747  1.00
      P1  H  7989  7998       L1    25  0.83
      P1  H 10785 10796       L1    19  0.75

> <Gold.PLP.Chemscore.Internal.Correction>
0.1710

> <Gold.Rescore>
     Score         DG    S(hbond)    S(metal)    S(lipo)     H(rot)  DE(clash)    DE(int)     intcor
     16.99     -17.66       2.14        0.00      88.84       2.09       0.33       0.33       ----

> <Gold.Chemscore.Fitness>
16.9940

> <Gold.Chemscore.DG>
-17.6553

> <Gold.Chemscore.ZeroCoef>
-5.4800

> <Gold.Chemscore.Hbond>
2.1371

> <Gold.Chemscore.Metal>
0.0000

> <Gold.Chemscore.Lipo>
88.8446

> <Gold.Chemscore.Internal_Hbond>
0.0000

> <Gold.Chemscore.DEClash>
0.3301

> <Gold.Chemscore.DEInternal>
0.3311

> <Gold.Chemscore.Rot>
2.0927

> <Gold.Chemscore.Internal.Correction>
   9.000000E+99

> <Gold.Chemscore.Hbonds>
donor molecule, donor type, donor heavy atom, donor atom, acceptor molecule, acceptor atom, score
      L1  H    16    39       P1 10747  0.96
      P1  H  7989  7998       L1    25  0.45
      P1  H 10785 10796       L1    19  0.33

> <Gold.Chemscore.Hbond.Weighted>
-7.1378

> <Gold.Chemscore.Metal.Weighted>
-0.0000

> <Gold.Chemscore.Lipo.Weighted>
-10.3948

> <Gold.Chemscore.Internal_Hbond.Weighted>
0.0000

> <Gold.Chemscore.DEClash.Weighted>
0.3301

> <Gold.Chemscore.DEInternal.Weighted>
0.3311

> <Gold.Chemscore.Rot.Weighted>
5.3573

> <Gold.Chemscore.Internal.Correction.Weighted>
   9.000000E+99

> <Gold.Protein.RotatedTorsions>
[ 6907 6896 6895 6894 ] final  134.18 input  -60.11 | X-H torsion
[ 7974 7965 7964 7962 ] final  -77.50 input  175.53 | X-H torsion
[ 8008 7997 7996 7995 ] final  -57.45 input   59.86 | X-H torsion
[ 10167 10162 10161 10158 ] final   35.08 input  -65.29 | X-H torsion
[ 10718 10713 10712 10709 ] final   -2.30 input   66.30 | X-H torsion
[ 10763 10752 10751 10750 ] final   72.39 input  -60.55 | X-H torsion
[ 11005 11000 10999 10996 ] final -147.80 input  -57.11 | X-H torsion

> <Gold.Protein.ActiveResidues>
 VAL166  LYS551  ARG553  GLY616  TRP617  ASP618  TYR619  PRO620  LYS621  CYS622 
 ASP623  PHE694  ASN695  SER759  ASP760  ASP761  ALA762  ILE779  LEU786  VAL792 
 PHE793  MET794  SER795  GLU796  ALA797  LYS798  CYS799  TRP800  GLU811  SER814 

> <Gold.Protein.RotatedAtoms>
  152.3141  133.5783  159.5699 H   0  0  0  0  0  0  0  0  0  0  0  0  # atno 6907 bound_to 6896
  150.7337  134.0109  159.3678 H   0  0  0  0  0  0  0  0  0  0  0  0  # atno 6908 bound_to 6896
  151.7999  135.0712  160.0450 H   0  0  0  0  0  0  0  0  0  0  0  0  # atno 6909 bound_to 6896
  145.5988  140.9413  143.1252 H   0  0  0  0  0  0  0  0  0  0  0  0  # atno 7974 bound_to 7965
  154.4269  140.1106  156.5800 H   0  0  0  0  0  0  0  0  0  0  0  0  # atno 8008 bound_to 7997
  155.6122  140.3494  155.4607 H   0  0  0  0  0  0  0  0  0  0  0  0  # atno 8009 bound_to 7997
  156.0090  140.1215  157.0462 H   0  0  0  0  0  0  0  0  0  0  0  0  # atno 8010 bound_to 7997
  140.4255  144.1398  150.6153 H   0  0  0  0  0  0  0  0  0  0  0  0  # atno 10167 bound_to 10162
  156.7928  130.5367  149.5733 H   0  0  0  0  0  0  0  0  0  0  0  0  # atno 10718 bound_to 10713
  153.0456  135.5102  154.7736 H   0  0  0  0  0  0  0  0  0  0  0  0  # atno 10763 bound_to 10752
  154.6639  135.2942  154.9833 H   0  0  0  0  0  0  0  0  0  0  0  0  # atno 10764 bound_to 10752
  154.0674  135.6682  153.4872 H   0  0  0  0  0  0  0  0  0  0  0  0  # atno 10765 bound_to 10752
  140.7679  134.3223  157.5083 H   0  0  0  0  0  0  0  0  0  0  0  0  # atno 11005 bound_to 11000
  144.7319  139.7701  143.7344 LP  0  0  0  0  0  0  0  0  0  0  0  0  # atno 17320 bound_to 7965
  146.1592  139.4700  142.9999 LP  0  0  0  0  0  0  0  0  0  0  0  0  # atno 17321 bound_to 7965
  140.4485  143.2496  151.9379 LP  0  0  0  0  0  0  0  0  0  0  0  0  # atno 17342 bound_to 10162
  139.4783  144.5585  151.8276 LP  0  0  0  0  0  0  0  0  0  0  0  0  # atno 17343 bound_to 10162
  156.1148  130.6067  151.0104 LP  0  0  0  0  0  0  0  0  0  0  0  0  # atno 17370 bound_to 10713
  157.6592  131.0884  150.7877 LP  0  0  0  0  0  0  0  0  0  0  0  0  # atno 17371 bound_to 10713
  139.8760  134.9243  156.3345 LP  0  0  0  0  0  0  0  0  0  0  0  0  # atno 17394 bound_to 11000
  140.9601  133.7394  156.0390 LP  0  0  0  0  0  0  0  0  0  0  0  0  # atno 17395 bound_to 11000

$$$$
