AV-unprocessed.smi:113|AV-procd|sdf|1102|dock4
  -GOLD-   2262018213D 1   1.00000     0.00000
 Structure written by MMmdl.
 53 56  0  0  0  0  0  0  0  0  2 V2000
  149.4964  137.9568  158.0028 C   0  0  0  0  0  0  0  0  0  0  0  0
  148.8562  136.8313  158.7875 C   0  0  0  0  0  0  0  0  0  0  0  0
  148.4085  135.6463  158.1718 C   0  0  0  0  0  0  0  0  0  0  0  0
  147.8187  134.6221  158.9540 C   0  0  0  0  0  0  0  0  0  0  0  0
  147.3242  133.3206  158.3131 C   0  0  0  0  0  0  0  0  0  0  0  0
  148.1999  132.6941  157.3330 N   0  0  0  0  0  0  0  0  0  0  0  0
  149.5584  132.5017  157.6855 C   0  0  0  0  0  0  0  0  0  0  0  0
  149.9929  132.8470  158.7864 O   0  0  0  0  0  0  0  0  0  0  0  0
  150.3925  131.8952  156.6444 C   0  0  0  0  0  0  0  0  0  0  0  0
  151.8635  131.6613  156.9496 C   0  0  0  0  0  0  0  0  0  0  0  0
  149.8444  131.5694  155.4493 C   0  0  0  0  0  0  0  0  0  0  0  0
  148.5114  131.7697  155.1339 N   0  0  0  0  0  0  0  0  0  0  0  0
  147.9766  131.3979  153.7730 C   0  0  1  0  0  0  0  0  0  0  0  0
  146.7417  130.5151  153.8959 C   0  0  0  0  0  0  0  0  0  0  0  0
  146.0142  130.8384  152.6059 C   0  0  2  0  0  0  0  0  0  0  0  0
  146.4282  129.9629  151.5746 O   0  0  0  0  0  0  0  0  0  0  0  0
  146.4475  132.2828  152.2855 C   0  0  1  0  0  0  0  0  0  0  0  0
  145.3742  133.3316  152.6179 C   0  0  0  0  0  0  0  0  0  0  0  0
  145.8127  134.6202  152.2433 O   0  0  0  0  0  0  0  0  0  0  0  0
  147.5797  132.5560  153.1112 O   0  0  0  0  0  0  0  0  0  0  0  0
  147.6486  132.3660  156.0743 C   0  0  0  0  0  0  0  0  0  0  0  0
  146.4720  132.6094  155.7956 O   0  0  0  0  0  0  0  0  0  0  0  0
  147.6962  134.8303  160.3555 C   0  0  0  0  0  0  0  0  0  0  0  0
  147.1179  133.8647  161.2140 C   0  0  0  0  0  0  0  0  0  0  0  0
  147.0136  134.1081  162.5975 C   0  0  0  0  0  0  0  0  0  0  0  0
  147.4854  135.3165  163.1434 C   0  0  0  0  0  0  0  0  0  0  0  0
  148.0637  136.2871  162.3047 C   0  0  0  0  0  0  0  0  0  0  0  0
  148.1680  136.0461  160.9202 C   0  0  0  0  0  0  0  0  0  0  0  0
  148.7218  136.9821  160.1208 N   0  3  0  0  0  0  0  0  0  0  0  0
  149.2748  137.8662  156.9389 H   0  0  0  0  0  0  0  0  0  0  0  0
  150.5789  137.9371  158.1303 H   0  0  0  0  0  0  0  0  0  0  0  0
  149.1260  138.9240  158.3440 H   0  0  0  0  0  0  0  0  0  0  0  0
  148.5242  135.5382  157.1037 H   0  0  0  0  0  0  0  0  0  0  0  0
  147.1144  132.5774  159.0840 H   0  0  0  0  0  0  0  0  0  0  0  0
  146.3605  133.4833  157.8278 H   0  0  0  0  0  0  0  0  0  0  0  0
  152.3833  131.1983  156.1102 H   0  0  0  0  0  0  0  0  0  0  0  0
  151.9744  131.0037  157.8127 H   0  0  0  0  0  0  0  0  0  0  0  0
  152.3624  132.6055  157.1713 H   0  0  0  0  0  0  0  0  0  0  0  0
  150.4885  131.1373  154.6967 H   0  0  0  0  0  0  0  0  0  0  0  0
  148.7853  130.9390  153.2025 H   0  0  0  0  0  0  0  0  0  0  0  0
  147.0079  129.4651  154.0234 H   0  0  0  0  0  0  0  0  0  0  0  0
  146.1470  130.8390  154.7513 H   0  0  0  0  0  0  0  0  0  0  0  0
  144.9343  130.7380  152.7216 H   0  0  0  0  0  0  0  0  0  0  0  0
  147.3535  129.7970  151.6713 H   0  0  0  0  0  0  0  0  0  0  0  0
  146.7471  132.3856  151.2410 H   0  0  0  0  0  0  0  0  0  0  0  0
  144.4334  133.1017  152.1171 H   0  0  0  0  0  0  0  0  0  0  0  0
  145.1763  133.3386  153.6899 H   0  0  0  0  0  0  0  0  0  0  0  0
  146.7576  134.6256  152.2311 H   0  0  0  0  0  0  0  0  0  0  0  0
  146.7447  132.9265  160.8321 H   0  0  0  0  0  0  0  0  0  0  0  0
  146.5696  133.3639  163.2428 H   0  0  0  0  0  0  0  0  0  0  0  0
  147.4034  135.4980  164.2052 H   0  0  0  0  0  0  0  0  0  0  0  0
  148.4242  137.2130  162.7294 H   0  0  0  0  0  0  0  0  0  0  0  0
  149.0548  137.8470  160.5463 H   0  0  0  0  0  0  0  0  0  0  0  0
  1  2  1  0  0  0  0
  1 30  1  0  0  0  0
  1 31  1  0  0  0  0
  1 32  1  0  0  0  0
  2 29  1  0  0  0  0
  2  3  2  0  0  0  0
  3  4  1  0  0  0  0
  3 33  1  0  0  0  0
  4  5  1  0  0  0  0
  4 23  2  0  0  0  0
  5  6  1  0  0  0  0
  5 34  1  0  0  0  0
  5 35  1  0  0  0  0
  6 21  1  0  0  0  0
  6  7  1  0  0  0  0
  7  8  2  0  0  0  0
  7  9  1  0  0  0  0
  9 10  1  0  0  0  0
  9 11  2  0  0  0  0
 10 36  1  0  0  0  0
 10 37  1  0  0  0  0
 10 38  1  0  0  0  0
 11 12  1  0  0  0  0
 11 39  1  0  0  0  0
 12 13  1  0  0  0  0
 12 21  1  0  0  0  0
 13 20  1  0  0  0  0
 13 14  1  0  0  0  0
 13 40  1  0  0  0  0
 14 15  1  0  0  0  0
 14 41  1  0  0  0  0
 14 42  1  0  0  0  0
 15 16  1  0  0  0  0
 15 17  1  0  0  0  0
 15 43  1  0  0  0  0
 16 44  1  0  0  0  0
 17 18  1  0  0  0  0
 17 20  1  0  0  0  0
 17 45  1  0  0  0  0
 18 19  1  0  0  0  0
 18 46  1  0  0  0  0
 18 47  1  0  0  0  0
 19 48  1  0  0  0  0
 21 22  2  0  0  0  0
 23 28  1  0  0  0  0
 23 24  1  0  0  0  0
 24 25  2  0  0  0  0
 24 49  1  0  0  0  0
 25 26  1  0  0  0  0
 25 50  1  0  0  0  0
 26 27  2  0  0  0  0
 26 51  1  0  0  0  0
 27 28  1  0  0  0  0
 27 52  1  0  0  0  0
 28 29  2  0  0  0  0
 29 53  1  0  0  0  0
M  CHG  1  29   1
M  END
> <s_m_source_file>
AV-unprocessed.smi

> <i_m_source_file_index>
113

> <i_lp_mmshare_version>
43012

> <i_f3d_flags>
0

> <s_epik_input>
W2NIXTFbY0hdW2NIXVtjSF1jKGMxMiluYyhbQ0gzXSlbY0hdYzJbQ0gyXW4zYyg9TyljKFtDSDNdKVtjSF1uKGMzPU8pW0NAQEhdNFtDSDJdW0NAQEhdKFtPSF0pW0NASF0oTzQpW0NIMl1bT0hd

> <s_epik_cmdline>
J2VwaWtfcHl0aG9uJywgJy1waCcsICc3LjAnLCAnLXRuJywgJzgnLCAnLW1hJywgJzIwMCcsICctbWV0YWxfYmluZGluZycsICctaW1hZScsICc8aW5maWxlLm1hZT4nLCAnLW9tYWUnLCAnPG91dGZpbGUubWFlPic=

> <r_lp_tautomer_probability>
1

> <r_epik_Ionization_Penalty>
0.705471

> <r_epik_Ionization_Penalty_Charging>
0.70547

> <r_epik_Ionization_Penalty_Neutral>
1.19947e-07

> <r_epik_State_Penalty>
0.728574

> <r_epik_Charging_Adjusted_Penalty>
1.43404

> <i_epik_Tot_Q>
1

> <i_epik_Tot_abs_Q>
1

> <r_epik_Metal_State_Penalty>
4.61665

> <b_epik_Metal_Only>
0

> <s_epik_Chemistry_Notes>
This compound contains an acetal/aminal-like group ( X-CH(R)-Y where X, Y are N, S, or O) that may be acid/base labile, releasing an aldehyde.

> <s_lp_Force_Field>
OPLS_2005

> <r_lp_Energy>
43.7755

> <b_lp_Chiralities_Consistent>
1

> <s_lp_Variant>
AV-unprocessed.smi:113-12

> <Gold.Version>
5.8.1

> <Gold.Id.Protein>
6NUR|6NUR_protein|mol2

> <Gold.PLP.Fitness>
50.2983

> <Gold.PLP.PLP>
-41.9859

> <Gold.PLP.part.hbond>
-3.0000

> <Gold.PLP.part.metal>
0.0000

> <Gold.PLP.part.buried>
-7.0477

> <Gold.PLP.part.nonpolar>
-34.3166

> <Gold.PLP.part.repulsive>
2.5132

> <Gold.PLP.ligand.clash>
0.0000

> <Gold.PLP.ligand.torsion>
0.3565

> <Gold.PLP.Chemscore.Hbond>
3.0000

> <Gold.PLP.Chemscore.CHOScore>
0.0000

> <Gold.PLP.Chemscore.Metal>
0.0000

> <Gold.Chemscore.Hbonds>
donor molecule, donor type, donor heavy atom, donor atom, acceptor molecule, acceptor atom, score
      L1  H    16    44       P1 10747  0.07
      P1  H  6896  6909       L1     8  0.36

> <Gold.PLP.Chemscore.Internal.Correction>
0.0255

> <Gold.Rescore>
     Score         DG    S(hbond)    S(metal)    S(lipo)     H(rot)  DE(clash)    DE(int)     intcor
     13.67     -18.44       2.99        0.00      91.43       3.01       0.40       4.37       ----

> <Gold.Chemscore.Fitness>
13.6727

> <Gold.Chemscore.DG>
-18.4418

> <Gold.Chemscore.ZeroCoef>
-5.4800

> <Gold.Chemscore.Hbond>
2.9865

> <Gold.Chemscore.Metal>
0.0000

> <Gold.Chemscore.Lipo>
91.4322

> <Gold.Chemscore.Internal_Hbond>
0.0000

> <Gold.Chemscore.DEClash>
0.3983

> <Gold.Chemscore.DEInternal>
4.3708

> <Gold.Chemscore.Rot>
3.0120

> <Gold.Chemscore.Internal.Correction>
   9.000000E+99

> <Gold.Chemscore.Hbonds>
donor molecule, donor type, donor heavy atom, donor atom, acceptor molecule, acceptor atom, score
      L1  H    16    44       P1 10747  0.08
      P1  H  6896  6909       L1     8  0.35

> <Gold.Chemscore.Hbond.Weighted>
-9.9750

> <Gold.Chemscore.Metal.Weighted>
-0.0000

> <Gold.Chemscore.Lipo.Weighted>
-10.6976

> <Gold.Chemscore.Internal_Hbond.Weighted>
0.0000

> <Gold.Chemscore.DEClash.Weighted>
0.3983

> <Gold.Chemscore.DEInternal.Weighted>
4.3708

> <Gold.Chemscore.Rot.Weighted>
7.7108

> <Gold.Chemscore.Internal.Correction.Weighted>
   9.000000E+99

> <Gold.Protein.RotatedTorsions>
[ 6907 6896 6895 6894 ] final  -12.77 input  -60.11 | X-H torsion
[ 7974 7965 7964 7962 ] final  112.43 input  175.53 | X-H torsion
[ 8008 7997 7996 7995 ] final  -33.82 input   59.86 | X-H torsion
[ 10167 10162 10161 10158 ] final -128.45 input  -65.29 | X-H torsion
[ 10718 10713 10712 10709 ] final  -46.63 input   66.30 | X-H torsion
[ 10763 10752 10751 10750 ] final  145.90 input  -60.55 | X-H torsion
[ 11005 11000 10999 10996 ] final   17.63 input  -57.11 | X-H torsion

> <Gold.Protein.ActiveResidues>
 VAL166  LYS551  ARG553  GLY616  TRP617  ASP618  TYR619  PRO620  LYS621  CYS622 
 ASP623  PHE694  ASN695  SER759  ASP760  ASP761  ALA762  ILE779  LEU786  VAL792 
 PHE793  MET794  SER795  GLU796  ALA797  LYS798  CYS799  TRP800  GLU811  SER814 

> <Gold.Protein.RotatedAtoms>
  151.3653  135.0912  159.9447 H   0  0  0  0  0  0  0  0  0  0  0  0  # atno 6907 bound_to 6896
  152.5151  133.9218  159.7548 H   0  0  0  0  0  0  0  0  0  0  0  0  # atno 6908 bound_to 6896
  150.9621  133.6380  159.2782 H   0  0  0  0  0  0  0  0  0  0  0  0  # atno 6909 bound_to 6896
  145.2297  139.2825  143.4175 H   0  0  0  0  0  0  0  0  0  0  0  0  # atno 7974 bound_to 7965
  154.4138  140.1700  156.1950 H   0  0  0  0  0  0  0  0  0  0  0  0  # atno 8008 bound_to 7997
  155.9571  140.3396  155.6435 H   0  0  0  0  0  0  0  0  0  0  0  0  # atno 8009 bound_to 7997
  155.6796  140.0721  157.2480 H   0  0  0  0  0  0  0  0  0  0  0  0  # atno 8010 bound_to 7997
  139.9502  143.6064  152.2477 H   0  0  0  0  0  0  0  0  0  0  0  0  # atno 10167 bound_to 10162
  156.2164  130.4163  149.9048 H   0  0  0  0  0  0  0  0  0  0  0  0  # atno 10718 bound_to 10713
  154.0130  135.2913  155.3390 H   0  0  0  0  0  0  0  0  0  0  0  0  # atno 10763 bound_to 10752
  154.7092  135.5156  153.8643 H   0  0  0  0  0  0  0  0  0  0  0  0  # atno 10764 bound_to 10752
  153.0714  135.6649  154.0360 H   0  0  0  0  0  0  0  0  0  0  0  0  # atno 10765 bound_to 10752
  140.4337  134.1393  155.7683 H   0  0  0  0  0  0  0  0  0  0  0  0  # atno 11005 bound_to 11000
  146.3356  140.2628  142.8602 LP  0  0  0  0  0  0  0  0  0  0  0  0  # atno 17320 bound_to 7965
  144.9688  140.8348  143.5468 LP  0  0  0  0  0  0  0  0  0  0  0  0  # atno 17321 bound_to 7965
  139.6635  144.7662  151.1918 LP  0  0  0  0  0  0  0  0  0  0  0  0  # atno 17342 bound_to 10162
  140.7585  143.5974  150.8734 LP  0  0  0  0  0  0  0  0  0  0  0  0  # atno 17343 bound_to 10162
  156.6709  130.8820  151.3562 LP  0  0  0  0  0  0  0  0  0  0  0  0  # atno 17370 bound_to 10713
  157.7065  130.9391  150.0949 LP  0  0  0  0  0  0  0  0  0  0  0  0  # atno 17371 bound_to 10713
  141.1734  133.8562  157.1497 LP  0  0  0  0  0  0  0  0  0  0  0  0  # atno 17394 bound_to 11000
  140.0116  134.9985  157.0408 LP  0  0  0  0  0  0  0  0  0  0  0  0  # atno 17395 bound_to 11000

$$$$
