AV-unprocessed.smi:3057|AV-procd|sdf|11667|dock4
  -GOLD-   2272017 73D 1   1.00000     0.00000
 Structure written by MMmdl.
 41 43  0  0  0  0  0  0  0  0  2 V2000
  147.9056  135.0571  154.8665 C   0  0  0  0  0  0  0  0  0  0  0  0
  148.7265  135.9163  155.8506 C   0  0  1  0  0  0  0  0  0  0  0  0
  149.6226  135.0412  156.7417 C   0  0  0  0  0  0  0  0  0  0  0  0
  150.9501  134.9637  155.9719 C   0  0  0  0  0  0  0  0  0  0  0  0
  150.9075  136.2206  155.1149 C   0  0  0  0  0  0  0  0  0  0  0  0
  151.8964  136.6833  154.5479 O   0  0  0  0  0  0  0  0  0  0  0  0
  149.6751  136.7531  155.1394 N   0  0  0  0  0  0  0  0  0  0  0  0
  149.2269  138.1069  154.7784 C   0  0  2  0  0  0  0  0  0  0  0  0
  150.1711  139.2151  155.2800 C   0  0  0  0  0  0  0  0  0  0  0  0
  150.6999  139.9903  154.4818 O   0  0  0  0  0  0  0  0  0  0  0  0
  150.3789  139.2730  156.6044 N   0  0  0  0  0  0  0  0  0  0  0  0
  151.2090  140.2683  157.2717 C   0  0  0  0  0  0  0  0  0  0  0  0
  150.8224  141.6965  156.8500 C   0  0  0  0  0  0  0  0  0  0  0  0
  151.4049  142.7466  157.7748 C   0  0  0  0  0  0  0  0  0  0  0  0
  152.2969  142.4197  158.8193 C   0  0  0  0  0  0  0  0  0  0  0  0
  152.8037  143.4495  159.6394 C   0  0  0  0  0  0  0  0  0  0  0  0
  152.4087  144.7819  159.3984 C   0  0  0  0  0  0  0  0  0  0  0  0
  151.5161  145.0515  158.3409 C   0  0  0  0  0  0  0  0  0  0  0  0
  151.0533  144.0378  157.5769 N   0  3  0  0  0  0  0  0  0  0  0  0
  147.7969  138.2633  155.3413 C   0  0  0  0  0  0  0  0  0  0  0  0
  147.6790  137.0967  156.7252 S   0  0  0  0  0  0  0  0  0  0  0  0
  148.5435  134.3811  154.2960 H   0  0  0  0  0  0  0  0  0  0  0  0
  147.3586  135.6689  154.1493 H   0  0  0  0  0  0  0  0  0  0  0  0
  147.1761  134.4465  155.3993 H   0  0  0  0  0  0  0  0  0  0  0  0
  149.7889  135.5209  157.7077 H   0  0  0  0  0  0  0  0  0  0  0  0
  149.1944  134.0570  156.9348 H   0  0  0  0  0  0  0  0  0  0  0  0
  151.8147  134.9508  156.6362 H   0  0  0  0  0  0  0  0  0  0  0  0
  150.9874  134.0869  155.3249 H   0  0  0  0  0  0  0  0  0  0  0  0
  149.1828  138.1603  153.6893 H   0  0  0  0  0  0  0  0  0  0  0  0
  149.9137  138.5945  157.1905 H   0  0  0  0  0  0  0  0  0  0  0  0
  151.0834  140.1518  158.3485 H   0  0  0  0  0  0  0  0  0  0  0  0
  152.2617  140.0748  157.0585 H   0  0  0  0  0  0  0  0  0  0  0  0
  151.1669  141.9004  155.8350 H   0  0  0  0  0  0  0  0  0  0  0  0
  149.7364  141.7980  156.8299 H   0  0  0  0  0  0  0  0  0  0  0  0
  152.5905  141.3942  158.9914 H   0  0  0  0  0  0  0  0  0  0  0  0
  153.4875  143.2197  160.4433 H   0  0  0  0  0  0  0  0  0  0  0  0
  152.7852  145.5847  160.0156 H   0  0  0  0  0  0  0  0  0  0  0  0
  151.1609  146.0390  158.0849 H   0  0  0  0  0  0  0  0  0  0  0  0
  147.5637  139.2786  155.6650 H   0  0  0  0  0  0  0  0  0  0  0  0
  147.0610  137.9848  154.5869 H   0  0  0  0  0  0  0  0  0  0  0  0
  150.4085  144.2555  156.8163 H   0  0  0  0  0  0  0  0  0  0  0  0
  1  2  1  0  0  0  0
  1 22  1  0  0  0  0
  1 23  1  0  0  0  0
  1 24  1  0  0  0  0
  2  7  1  0  0  0  0
  2 21  1  0  0  0  0
  2  3  1  0  0  0  0
  3  4  1  0  0  0  0
  3 25  1  0  0  0  0
  3 26  1  0  0  0  0
  4  5  1  0  0  0  0
  4 27  1  0  0  0  0
  4 28  1  0  0  0  0
  5  6  2  0  0  0  0
  5  7  1  0  0  0  0
  7  8  1  0  0  0  0
  8  9  1  0  0  0  0
  8 20  1  0  0  0  0
  8 29  1  0  0  0  0
  9 10  2  0  0  0  0
  9 11  1  0  0  0  0
 11 12  1  0  0  0  0
 11 30  1  0  0  0  0
 12 13  1  0  0  0  0
 12 31  1  0  0  0  0
 12 32  1  0  0  0  0
 13 14  1  0  0  0  0
 13 33  1  0  0  0  0
 13 34  1  0  0  0  0
 14 19  1  0  0  0  0
 14 15  2  0  0  0  0
 15 16  1  0  0  0  0
 15 35  1  0  0  0  0
 16 17  2  0  0  0  0
 16 36  1  0  0  0  0
 17 18  1  0  0  0  0
 17 37  1  0  0  0  0
 18 19  2  0  0  0  0
 18 38  1  0  0  0  0
 19 41  1  0  0  0  0
 20 21  1  0  0  0  0
 20 39  1  0  0  0  0
 20 40  1  0  0  0  0
M  CHG  1  19   1
M  END
> <s_m_source_file>
AV-unprocessed.smi

> <i_m_source_file_index>
3057

> <i_lp_mmshare_version>
43012

> <i_f3d_flags>
0

> <s_epik_input>
W0NIMl0xW0NIMl1DKD1PKU4oW0NAQF0xMltDSDNdKVtDQEhdKFtDSDJdUzIpQyg9TylbTkhdW0NIMl1bQ0gyXWMzW2NIXVtjSF1bY0hdW2NIXW4z

> <s_epik_cmdline>
J2VwaWtfcHl0aG9uJywgJy1waCcsICc3LjAnLCAnLXRuJywgJzgnLCAnLW1hJywgJzIwMCcsICctbWV0YWxfYmluZGluZycsICctaW1hZScsICc8aW5maWxlLm1hZT4nLCAnLW9tYWUnLCAnPG91dGZpbGUubWFlPic=

> <r_epik_Ionization_Penalty>
1.8888

> <r_epik_Ionization_Penalty_Charging>
1.8888

> <r_epik_Ionization_Penalty_Neutral>
1.66252e-07

> <r_epik_State_Penalty>
2.00916

> <r_epik_Charging_Adjusted_Penalty>
3.89796

> <i_epik_Tot_Q>
1

> <i_epik_Tot_abs_Q>
1

> <r_epik_Metal_State_Penalty>
2.03343

> <b_epik_Metal_Only>
0

> <s_lp_Force_Field>
OPLS_2005

> <r_lp_Energy>
30.9082

> <b_lp_Chiralities_Consistent>
1

> <s_lp_Variant>
AV-unprocessed.smi:3057-7

> <Gold.Version>
5.8.1

> <Gold.Id.Protein>
6NUR|6NUR_protein|mol2

> <Gold.PLP.Fitness>
45.1966

> <Gold.PLP.PLP>
-33.4267

> <Gold.PLP.part.hbond>
-3.0000

> <Gold.PLP.part.metal>
0.0000

> <Gold.PLP.part.buried>
-6.0899

> <Gold.PLP.part.nonpolar>
-25.7315

> <Gold.PLP.part.repulsive>
0.2742

> <Gold.PLP.ligand.clash>
0.0000

> <Gold.PLP.ligand.torsion>
0.1227

> <Gold.PLP.Chemscore.Hbond>
4.0000

> <Gold.PLP.Chemscore.CHOScore>
0.0000

> <Gold.PLP.Chemscore.Metal>
0.0000

> <Gold.Chemscore.Hbonds>
donor molecule, donor type, donor heavy atom, donor atom, acceptor molecule, acceptor atom, score
      L1  H    19    41       P1  8028  2.00
      P1  H  7989  7998       L1    10  1.00
      P1  H 10752 10763       L1     6  0.86

> <Gold.PLP.Chemscore.Internal.Correction>
0.0154

> <Gold.Rescore>
     Score         DG    S(hbond)    S(metal)    S(lipo)     H(rot)  DE(clash)    DE(int)     intcor
     19.79     -21.39       2.97        0.00      86.83       1.62       0.01       1.59       ----

> <Gold.Chemscore.Fitness>
19.7886

> <Gold.Chemscore.DG>
-21.3915

> <Gold.Chemscore.ZeroCoef>
-5.4800

> <Gold.Chemscore.Hbond>
2.9664

> <Gold.Chemscore.Metal>
0.0000

> <Gold.Chemscore.Lipo>
86.8346

> <Gold.Chemscore.Internal_Hbond>
0.0000

> <Gold.Chemscore.DEClash>
0.0131

> <Gold.Chemscore.DEInternal>
1.5897

> <Gold.Chemscore.Rot>
1.6234

> <Gold.Chemscore.Internal.Correction>
   9.000000E+99

> <Gold.Chemscore.Hbonds>
donor molecule, donor type, donor heavy atom, donor atom, acceptor molecule, acceptor atom, score
      L1  H    19    41       P1  8028  0.97
      P1  H  7989  7998       L1    10  0.99
      P1  H 10752 10763       L1     6  0.66

> <Gold.Chemscore.Hbond.Weighted>
-9.9076

> <Gold.Chemscore.Metal.Weighted>
-0.0000

> <Gold.Chemscore.Lipo.Weighted>
-10.1596

> <Gold.Chemscore.Internal_Hbond.Weighted>
0.0000

> <Gold.Chemscore.DEClash.Weighted>
0.0131

> <Gold.Chemscore.DEInternal.Weighted>
1.5897

> <Gold.Chemscore.Rot.Weighted>
4.1558

> <Gold.Chemscore.Internal.Correction.Weighted>
   9.000000E+99

> <Gold.Protein.RotatedTorsions>
[ 6907 6896 6895 6894 ] final -165.41 input  -60.11 | X-H torsion
[ 7974 7965 7964 7962 ] final  -84.12 input  175.53 | X-H torsion
[ 8008 7997 7996 7995 ] final  -65.26 input   59.86 | X-H torsion
[ 10167 10162 10161 10158 ] final  -66.44 input  -65.29 | X-H torsion
[ 10718 10713 10712 10709 ] final -169.65 input   66.30 | X-H torsion
[ 10763 10752 10751 10750 ] final   47.01 input  -60.55 | X-H torsion
[ 11005 11000 10999 10996 ] final  154.78 input  -57.11 | X-H torsion

> <Gold.Protein.ActiveResidues>
 VAL166  LYS551  ARG553  GLY616  TRP617  ASP618  TYR619  PRO620  LYS621  CYS622 
 ASP623  PHE694  ASN695  SER759  ASP760  ASP761  ALA762  ILE779  LEU786  VAL792 
 PHE793  MET794  SER795  GLU796  ALA797  LYS798  CYS799  TRP800  GLU811  SER814 

> <Gold.Protein.RotatedAtoms>
  151.4273  133.3680  159.2763 H   0  0  0  0  0  0  0  0  0  0  0  0  # atno 6907 bound_to 6896
  150.9250  134.8669  159.7525 H   0  0  0  0  0  0  0  0  0  0  0  0  # atno 6908 bound_to 6896
  152.5001  134.4213  159.9534 H   0  0  0  0  0  0  0  0  0  0  0  0  # atno 6909 bound_to 6896
  145.5108  140.9540  143.1708 H   0  0  0  0  0  0  0  0  0  0  0  0  # atno 7974 bound_to 7965
  154.4661  140.0937  156.7023 H   0  0  0  0  0  0  0  0  0  0  0  0  # atno 8008 bound_to 7997
  155.4855  140.3469  155.4328 H   0  0  0  0  0  0  0  0  0  0  0  0  # atno 8009 bound_to 7997
  156.0958  140.1409  156.9521 H   0  0  0  0  0  0  0  0  0  0  0  0  # atno 8010 bound_to 7997
  140.5657  143.2314  151.6640 H   0  0  0  0  0  0  0  0  0  0  0  0  # atno 10167 bound_to 10162
  156.7147  130.9247  151.3092 H   0  0  0  0  0  0  0  0  0  0  0  0  # atno 10718 bound_to 10713
  152.9804  135.5990  154.3693 H   0  0  0  0  0  0  0  0  0  0  0  0  # atno 10763 bound_to 10752
  154.3368  135.2768  155.2445 H   0  0  0  0  0  0  0  0  0  0  0  0  # atno 10764 bound_to 10752
  154.4544  135.5981  153.6269 H   0  0  0  0  0  0  0  0  0  0  0  0  # atno 10765 bound_to 10752
  140.1521  134.8668  157.2467 H   0  0  0  0  0  0  0  0  0  0  0  0  # atno 11005 bound_to 11000
  144.7728  139.6696  143.7187 LP  0  0  0  0  0  0  0  0  0  0  0  0  # atno 17320 bound_to 7965
  146.2167  139.5563  142.9645 LP  0  0  0  0  0  0  0  0  0  0  0  0  # atno 17321 bound_to 7965
  139.5092  144.3586  152.0584 LP  0  0  0  0  0  0  0  0  0  0  0  0  # atno 17342 bound_to 10162
  140.2717  144.3956  150.6149 LP  0  0  0  0  0  0  0  0  0  0  0  0  # atno 17343 bound_to 10162
  157.6922  130.9245  150.0545 LP  0  0  0  0  0  0  0  0  0  0  0  0  # atno 17370 bound_to 10713
  156.1636  130.3644  149.9264 LP  0  0  0  0  0  0  0  0  0  0  0  0  # atno 17371 bound_to 10713
  140.2592  134.3591  155.7413 LP  0  0  0  0  0  0  0  0  0  0  0  0  # atno 17394 bound_to 11000
  141.2200  133.7360  156.9054 LP  0  0  0  0  0  0  0  0  0  0  0  0  # atno 17395 bound_to 11000

$$$$
