AV-unprocessed.smi:2858|AV-procd|sdf|10999|dock9
  -GOLD-   2272015453D 1   1.00000     0.00000
 Structure written by MMmdl.
 40 41  0  0  0  0  0  0  0  0  2 V2000
  142.7578  143.0692  156.2217 O   0  0  0  0  0  0  0  0  0  0  0  0
  143.7117  143.0643  155.4480 C   0  0  0  0  0  0  0  0  0  0  0  0
  144.7780  141.9642  155.5639 C   0  0  0  0  0  0  0  0  0  0  0  0
  145.6535  141.8429  154.3694 N   0  3  2  0  0  0  0  0  0  0  0  0
  146.7361  140.8476  154.5684 C   0  0  0  0  0  0  0  0  0  0  0  0
  147.8517  140.9738  153.5172 C   0  0  0  0  0  0  0  0  0  0  0  0
  149.2519  140.8135  154.1322 C   0  0  0  0  0  0  0  0  0  0  0  0
  149.5278  141.8499  155.1206 N   0  0  0  0  0  0  0  0  0  0  0  0
  150.4594  141.7646  156.0813 C   0  0  0  0  0  0  0  0  0  0  0  0
  151.1828  140.7800  156.2373 O   0  0  0  0  0  0  0  0  0  0  0  0
  150.4780  142.8708  156.8450 N   0  0  0  0  0  0  0  0  0  0  0  0
  151.2883  143.1350  157.9804 C   0  0  0  0  0  0  0  0  0  0  0  0
  151.3824  144.4494  158.5054 C   0  0  0  0  0  0  0  0  0  0  0  0
  152.1701  144.6809  159.6494 C   0  0  0  0  0  0  0  0  0  0  0  0
  152.8347  143.5954  160.2468 C   0  0  0  0  0  0  0  0  0  0  0  0
  152.6722  142.3215  159.6725 C   0  0  0  0  0  0  0  0  0  0  0  0
  151.9161  142.0954  158.5770 N   0  0  0  0  0  0  0  0  0  0  0  0
  146.1387  143.1654  153.9065 C   0  0  0  0  0  0  0  0  0  0  0  0
  144.9488  144.0658  153.5305 C   0  0  0  0  0  0  0  0  0  0  0  0
  143.8557  144.0018  154.4973 N   0  0  0  0  0  0  0  0  0  0  0  0
  145.3896  142.1804  156.4413 H   0  0  0  0  0  0  0  0  0  0  0  0
  144.2811  141.0105  155.7466 H   0  0  0  0  0  0  0  0  0  0  0  0
  147.1404  140.9355  155.5780 H   0  0  0  0  0  0  0  0  0  0  0  0
  146.3130  139.8447  154.4914 H   0  0  0  0  0  0  0  0  0  0  0  0
  147.7092  140.2195  152.7422 H   0  0  0  0  0  0  0  0  0  0  0  0
  147.7898  141.9416  153.0207 H   0  0  0  0  0  0  0  0  0  0  0  0
  149.3592  139.8278  154.5885 H   0  0  0  0  0  0  0  0  0  0  0  0
  150.0115  140.8787  153.3526 H   0  0  0  0  0  0  0  0  0  0  0  0
  148.9751  142.6934  155.0651 H   0  0  0  0  0  0  0  0  0  0  0  0
  149.7560  143.5519  156.6623 H   0  0  0  0  0  0  0  0  0  0  0  0
  150.8541  145.2776  158.0576 H   0  0  0  0  0  0  0  0  0  0  0  0
  152.2573  145.6741  160.0643 H   0  0  0  0  0  0  0  0  0  0  0  0
  153.4469  143.7344  161.1256 H   0  0  0  0  0  0  0  0  0  0  0  0
  153.1589  141.4602  160.1053 H   0  0  0  0  0  0  0  0  0  0  0  0
  146.7248  143.6297  154.7014 H   0  0  0  0  0  0  0  0  0  0  0  0
  146.7983  143.0680  153.0452 H   0  0  0  0  0  0  0  0  0  0  0  0
  145.2751  145.1003  153.4206 H   0  0  0  0  0  0  0  0  0  0  0  0
  144.5494  143.7587  152.5631 H   0  0  0  0  0  0  0  0  0  0  0  0
  143.1495  144.7219  154.4362 H   0  0  0  0  0  0  0  0  0  0  0  0
  145.0646  141.4815  153.6327 H   0  0  0  0  0  0  0  0  0  0  0  0
  1  2  2  0  0  0  0
  2 20  1  0  0  0  0
  2  3  1  0  0  0  0
  3  4  1  0  0  0  0
  3 21  1  0  0  0  0
  3 22  1  0  0  0  0
  4  5  1  0  0  0  0
  4 18  1  0  0  0  0
  4 40  1  0  0  0  0
  5  6  1  0  0  0  0
  5 23  1  0  0  0  0
  5 24  1  0  0  0  0
  6  7  1  0  0  0  0
  6 25  1  0  0  0  0
  6 26  1  0  0  0  0
  7  8  1  0  0  0  0
  7 27  1  0  0  0  0
  7 28  1  0  0  0  0
  8  9  1  0  0  0  0
  8 29  1  0  0  0  0
  9 10  2  0  0  0  0
  9 11  1  0  0  0  0
 11 12  1  0  0  0  0
 11 30  1  0  0  0  0
 12 17  1  0  0  0  0
 12 13  2  0  0  0  0
 13 14  1  0  0  0  0
 13 31  1  0  0  0  0
 14 15  2  0  0  0  0
 14 32  1  0  0  0  0
 15 16  1  0  0  0  0
 15 33  1  0  0  0  0
 16 17  2  0  0  0  0
 16 34  1  0  0  0  0
 18 19  1  0  0  0  0
 18 35  1  0  0  0  0
 18 36  1  0  0  0  0
 19 20  1  0  0  0  0
 19 37  1  0  0  0  0
 19 38  1  0  0  0  0
 20 39  1  0  0  0  0
M  CHG  1   4   1
M  END
> <s_m_source_file>
AV-unprocessed.smi

> <i_m_source_file_index>
2858

> <i_lp_mmshare_version>
43012

> <i_f3d_flags>
0

> <s_epik_input>
Tz1DMVtDSDJdTihbQ0gyXVtDSDJdW05IXTEpW0NIMl1bQ0gyXVtDSDJdW05IXUMoPU8pW05IXWMyW2NIXVtjSF1bY0hdW2NIXW4y

> <s_epik_cmdline>
J2VwaWtfcHl0aG9uJywgJy1waCcsICc3LjAnLCAnLXRuJywgJzgnLCAnLW1hJywgJzIwMCcsICctbWV0YWxfYmluZGluZycsICctaW1hZScsICc8aW5maWxlLm1hZT4nLCAnLW9tYWUnLCAnPG91dGZpbGUubWFlPic=

> <r_epik_Ionization_Penalty>
0.11034

> <r_epik_Ionization_Penalty_Charging>
0.110189

> <r_epik_Ionization_Penalty_Neutral>
0.000150894

> <r_epik_State_Penalty>
0.0999426

> <r_epik_Charging_Adjusted_Penalty>
0.210132

> <i_epik_Tot_Q>
1

> <i_epik_Tot_abs_Q>
1

> <r_epik_Metal_State_Penalty>
0.172915

> <b_epik_Metal_Only>
0

> <s_lp_Force_Field>
OPLS_2005

> <r_lp_Energy>
23.7119

> <b_lp_Chiralities_Consistent>
1

> <s_lp_Variant>
AV-unprocessed.smi:2858-1

> <Gold.Version>
5.8.1

> <Gold.Id.Protein>
6NUR|6NUR_protein|mol2

> <Gold.PLP.Fitness>
49.7900

> <Gold.PLP.PLP>
-40.3336

> <Gold.PLP.part.hbond>
-3.9399

> <Gold.PLP.part.metal>
0.0000

> <Gold.PLP.part.buried>
-3.9193

> <Gold.PLP.part.nonpolar>
-34.6813

> <Gold.PLP.part.repulsive>
0.3396

> <Gold.PLP.ligand.clash>
0.0000

> <Gold.PLP.ligand.torsion>
0.6633

> <Gold.PLP.Chemscore.Hbond>
3.5843

> <Gold.PLP.Chemscore.CHOScore>
0.0000

> <Gold.PLP.Chemscore.Metal>
0.0000

> <Gold.Chemscore.Hbonds>
donor molecule, donor type, donor heavy atom, donor atom, acceptor molecule, acceptor atom, score
      L1  H     4    40       P1 10175  1.66
      L1  H     8    29       P1  8028  0.73
      L1  H    11    30       P1  8028  1.00

> <Gold.PLP.Chemscore.Internal.Correction>
0.0299

> <Gold.Rescore>
     Score         DG    S(hbond)    S(metal)    S(lipo)     H(rot)  DE(clash)    DE(int)     intcor
     14.83     -16.87       1.93        0.00      87.57       2.08       0.05       1.98       ----

> <Gold.Chemscore.Fitness>
14.8315

> <Gold.Chemscore.DG>
-16.8666

> <Gold.Chemscore.ZeroCoef>
-5.4800

> <Gold.Chemscore.Hbond>
1.9341

> <Gold.Chemscore.Metal>
0.0000

> <Gold.Chemscore.Lipo>
87.5681

> <Gold.Chemscore.Internal_Hbond>
0.0000

> <Gold.Chemscore.DEClash>
0.0503

> <Gold.Chemscore.DEInternal>
1.9848

> <Gold.Chemscore.Rot>
2.0777

> <Gold.Chemscore.Internal.Correction>
   9.000000E+99

> <Gold.Chemscore.Hbonds>
donor molecule, donor type, donor heavy atom, donor atom, acceptor molecule, acceptor atom, score
      L1  H     4    40       P1 10175  0.13
      L1  H     8    29       P1  8028  0.71
      L1  H    11    30       P1  8028  0.98

> <Gold.Chemscore.Hbond.Weighted>
-6.4599

> <Gold.Chemscore.Metal.Weighted>
-0.0000

> <Gold.Chemscore.Lipo.Weighted>
-10.2455

> <Gold.Chemscore.Internal_Hbond.Weighted>
0.0000

> <Gold.Chemscore.DEClash.Weighted>
0.0503

> <Gold.Chemscore.DEInternal.Weighted>
1.9848

> <Gold.Chemscore.Rot.Weighted>
5.3188

> <Gold.Chemscore.Internal.Correction.Weighted>
   9.000000E+99

> <Gold.Protein.RotatedTorsions>
[ 6907 6896 6895 6894 ] final -126.70 input  -60.11 | X-H torsion
[ 7974 7965 7964 7962 ] final  178.94 input  175.53 | X-H torsion
[ 8008 7997 7996 7995 ] final   76.16 input   59.86 | X-H torsion
[ 10167 10162 10161 10158 ] final  100.21 input  -65.29 | X-H torsion
[ 10718 10713 10712 10709 ] final  -17.35 input   66.30 | X-H torsion
[ 10763 10752 10751 10750 ] final  -43.70 input  -60.55 | X-H torsion
[ 11005 11000 10999 10996 ] final   20.03 input  -57.11 | X-H torsion

> <Gold.Protein.ActiveResidues>
 VAL166  LYS551  ARG553  GLY616  TRP617  ASP618  TYR619  PRO620  LYS621  CYS622 
 ASP623  PHE694  ASN695  SER759  ASP760  ASP761  ALA762  ILE779  LEU786  VAL792 
 PHE793  MET794  SER795  GLU796  ALA797  LYS798  CYS799  TRP800  GLU811  SER814 

> <Gold.Protein.RotatedAtoms>
  150.8996  133.7136  159.2882 H   0  0  0  0  0  0  0  0  0  0  0  0  # atno 6907 bound_to 6896
  151.4659  135.1040  159.9747 H   0  0  0  0  0  0  0  0  0  0  0  0  # atno 6908 bound_to 6896
  152.4869  133.8348  159.7177 H   0  0  0  0  0  0  0  0  0  0  0  0  # atno 6909 bound_to 6896
  144.7150  140.0474  143.6436 H   0  0  0  0  0  0  0  0  0  0  0  0  # atno 7974 bound_to 7965
  155.8234  140.3469  155.5528 H   0  0  0  0  0  0  0  0  0  0  0  0  # atno 8008 bound_to 7997
  155.8318  140.0928  157.1807 H   0  0  0  0  0  0  0  0  0  0  0  0  # atno 8009 bound_to 7997
  154.4004  140.1411  156.3611 H   0  0  0  0  0  0  0  0  0  0  0  0  # atno 8010 bound_to 7997
  139.7547  144.6973  151.0380 H   0  0  0  0  0  0  0  0  0  0  0  0  # atno 10167 bound_to 10162
  156.5747  130.4758  149.6347 H   0  0  0  0  0  0  0  0  0  0  0  0  # atno 10718 bound_to 10713
  153.9998  135.6695  153.4758 H   0  0  0  0  0  0  0  0  0  0  0  0  # atno 10763 bound_to 10752
  153.0667  135.4997  154.8212 H   0  0  0  0  0  0  0  0  0  0  0  0  # atno 10764 bound_to 10752
  154.7059  135.3088  154.9234 H   0  0  0  0  0  0  0  0  0  0  0  0  # atno 10765 bound_to 10752
  140.4072  134.1657  155.7666 H   0  0  0  0  0  0  0  0  0  0  0  0  # atno 11005 bound_to 11000
  145.9973  139.3062  143.0949 LP  0  0  0  0  0  0  0  0  0  0  0  0  # atno 17320 bound_to 7965
  145.8834  140.9348  143.0589 LP  0  0  0  0  0  0  0  0  0  0  0  0  # atno 17321 bound_to 7965
  140.7801  143.4767  151.0073 LP  0  0  0  0  0  0  0  0  0  0  0  0  # atno 17342 bound_to 10162
  139.8454  143.7509  152.3179 LP  0  0  0  0  0  0  0  0  0  0  0  0  # atno 17343 bound_to 10162
  156.2683  130.7002  151.1792 LP  0  0  0  0  0  0  0  0  0  0  0  0  # atno 17370 bound_to 10713
  157.7340  131.0586  150.5546 LP  0  0  0  0  0  0  0  0  0  0  0  0  # atno 17371 bound_to 10713
  141.1835  133.8363  157.1173 LP  0  0  0  0  0  0  0  0  0  0  0  0  # atno 17394 bound_to 11000
  140.0294  134.9908  157.0750 LP  0  0  0  0  0  0  0  0  0  0  0  0  # atno 17395 bound_to 11000

$$$$
