AV-unprocessed.smi:2966|AV-procd|sdf|11324|dock2
  -GOLD-   2272016233D 1   1.00000     0.00000
 Structure written by MMmdl.
 40 42  0  0  0  0  0  0  0  0  1 V2000
  147.9234  141.1642  153.7563 C   0  0  0  0  0  0  0  0  0  0  0  0
  149.3272  141.3501  153.7853 O   0  0  0  0  0  0  0  0  0  0  0  0
  149.9432  140.6845  154.8754 C   0  0  0  0  0  0  0  0  0  0  0  0
  149.5930  141.3987  156.1883 C   0  0  0  0  0  0  0  0  0  0  0  0
  150.6245  141.2214  157.2001 N   0  0  0  0  0  0  0  0  0  0  0  0
  151.0992  140.0638  157.7232 C   0  0  0  0  0  0  0  0  0  0  0  0
  150.5003  138.4869  157.2204 S   0  0  0  0  0  0  0  0  0  0  0  0
  150.2932  137.7732  158.8785 C   0  0  0  0  0  0  0  0  0  0  0  0
  148.9802  137.0129  159.0772 C   0  0  0  0  0  0  0  0  0  0  0  0
  148.1529  136.9264  158.1689 O   0  0  0  0  0  0  0  0  0  0  0  0
  148.8026  136.4651  160.2884 N   0  0  0  0  0  0  0  0  0  0  0  0
  147.6574  135.7190  160.7004 C   0  0  0  0  0  0  0  0  0  0  0  0
  147.5736  135.3036  162.1533 C   0  0  0  0  0  0  0  0  0  0  0  0
  147.8643  134.2732  161.0974 C   0  0  0  0  0  0  0  0  0  0  0  0
  152.0533  140.1930  158.6445 N   0  0  0  0  0  0  0  0  0  0  0  0
  152.2202  141.5619  158.7204 C   0  0  0  0  0  0  0  0  0  0  0  0
  153.0935  142.3389  159.5151 C   0  0  0  0  0  0  0  0  0  0  0  0
  153.0867  143.7458  159.4168 C   0  0  0  0  0  0  0  0  0  0  0  0
  152.2077  144.3948  158.5255 C   0  0  0  0  0  0  0  0  0  0  0  0
  151.3283  143.6399  157.7258 C   0  0  0  0  0  0  0  0  0  0  0  0
  151.3398  142.2358  157.8276 C   0  0  0  0  0  0  0  0  0  0  0  0
  147.5017  141.6985  152.9051 H   0  0  0  0  0  0  0  0  0  0  0  0
  147.4556  141.5512  154.6624 H   0  0  0  0  0  0  0  0  0  0  0  0
  147.6674  140.1091  153.6522 H   0  0  0  0  0  0  0  0  0  0  0  0
  149.6077  139.6468  154.9154 H   0  0  0  0  0  0  0  0  0  0  0  0
  151.0257  140.6718  154.7415 H   0  0  0  0  0  0  0  0  0  0  0  0
  149.4669  142.4665  156.0071 H   0  0  0  0  0  0  0  0  0  0  0  0
  148.6374  141.0422  156.5724 H   0  0  0  0  0  0  0  0  0  0  0  0
  151.1295  137.1017  159.0756 H   0  0  0  0  0  0  0  0  0  0  0  0
  150.3454  138.5769  159.6138 H   0  0  0  0  0  0  0  0  0  0  0  0
  149.5351  136.5868  160.9726 H   0  0  0  0  0  0  0  0  0  0  0  0
  146.7098  135.9479  160.2143 H   0  0  0  0  0  0  0  0  0  0  0  0
  148.3904  135.5900  162.8132 H   0  0  0  0  0  0  0  0  0  0  0  0
  146.5877  135.2879  162.6134 H   0  0  0  0  0  0  0  0  0  0  0  0
  147.0725  133.5681  160.8517 H   0  0  0  0  0  0  0  0  0  0  0  0
  148.8748  133.8716  161.0524 H   0  0  0  0  0  0  0  0  0  0  0  0
  153.7713  141.8513  160.2002 H   0  0  0  0  0  0  0  0  0  0  0  0
  153.7601  144.3296  160.0271 H   0  0  0  0  0  0  0  0  0  0  0  0
  152.2097  145.4728  158.4554 H   0  0  0  0  0  0  0  0  0  0  0  0
  150.6548  144.1339  157.0413 H   0  0  0  0  0  0  0  0  0  0  0  0
  1  2  1  0  0  0  0
  1 22  1  0  0  0  0
  1 23  1  0  0  0  0
  1 24  1  0  0  0  0
  2  3  1  0  0  0  0
  3  4  1  0  0  0  0
  3 25  1  0  0  0  0
  3 26  1  0  0  0  0
  4  5  1  0  0  0  0
  4 27  1  0  0  0  0
  4 28  1  0  0  0  0
  5 21  1  0  0  0  0
  5  6  1  0  0  0  0
  6  7  1  0  0  0  0
  6 15  2  0  0  0  0
  7  8  1  0  0  0  0
  8  9  1  0  0  0  0
  8 29  1  0  0  0  0
  8 30  1  0  0  0  0
  9 10  2  0  0  0  0
  9 11  1  0  0  0  0
 11 12  1  0  0  0  0
 11 31  1  0  0  0  0
 12 14  1  0  0  0  0
 12 13  1  0  0  0  0
 12 32  1  0  0  0  0
 13 14  1  0  0  0  0
 13 33  1  0  0  0  0
 13 34  1  0  0  0  0
 14 35  1  0  0  0  0
 14 36  1  0  0  0  0
 15 16  1  0  0  0  0
 16 21  2  0  0  0  0
 16 17  1  0  0  0  0
 17 18  2  0  0  0  0
 17 37  1  0  0  0  0
 18 19  1  0  0  0  0
 18 38  1  0  0  0  0
 19 20  2  0  0  0  0
 19 39  1  0  0  0  0
 20 21  1  0  0  0  0
 20 40  1  0  0  0  0
M  END
> <s_m_source_file>
AV-unprocessed.smi

> <i_m_source_file_index>
2966

> <i_lp_mmshare_version>
43012

> <i_f3d_flags>
0

> <s_epik_input>
W2NIXTFbY0hdW2NIXVtjSF1jKGMxMiluKFtDSDJdW0NIMl1PW0NIM10pYyhuMilTW0NIMl1DKD1PKVtOSF1bQ0hdM1tDSDJdW0NIMl0z

> <s_epik_cmdline>
J2VwaWtfcHl0aG9uJywgJy1waCcsICc3LjAnLCAnLXRuJywgJzgnLCAnLW1hJywgJzIwMCcsICctbWV0YWxfYmluZGluZycsICctaW1hZScsICc8aW5maWxlLm1hZT4nLCAnLW9tYWUnLCAnPG91dGZpbGUubWFlPic=

> <r_epik_Ionization_Penalty>
0.0369383

> <r_epik_Ionization_Penalty_Charging>
0

> <r_epik_Ionization_Penalty_Neutral>
0.0369383

> <r_epik_State_Penalty>
0.0308874

> <r_epik_Charging_Adjusted_Penalty>
0.0308874

> <i_epik_Tot_Q>
0

> <i_epik_Tot_abs_Q>
0

> <r_epik_Metal_State_Penalty>
0.0290633

> <b_epik_Metal_Only>
0

> <s_lp_Force_Field>
OPLS_2005

> <r_lp_Energy>
20.8616

> <b_lp_Chiralities_Consistent>
1

> <s_lp_Variant>
AV-unprocessed.smi:2966-1

> <Gold.Version>
5.8.1

> <Gold.Id.Protein>
6NUR|6NUR_protein|mol2

> <Gold.PLP.Fitness>
46.1510

> <Gold.PLP.PLP>
-44.8435

> <Gold.PLP.part.hbond>
-2.0000

> <Gold.PLP.part.metal>
0.0000

> <Gold.PLP.part.buried>
-5.9228

> <Gold.PLP.part.nonpolar>
-38.4057

> <Gold.PLP.part.repulsive>
1.4183

> <Gold.PLP.ligand.clash>
0.0000

> <Gold.PLP.ligand.torsion>
0.6972

> <Gold.PLP.Chemscore.Hbond>
0.8160

> <Gold.PLP.Chemscore.CHOScore>
0.0000

> <Gold.PLP.Chemscore.Metal>
0.0000

> <Gold.Chemscore.Hbonds>
donor molecule, donor type, donor heavy atom, donor atom, acceptor molecule, acceptor atom, score
      P1  H  8011  8017       L1     2  0.83

> <Gold.PLP.Chemscore.Internal.Correction>
0.2540

> <Gold.Rescore>
     Score         DG    S(hbond)    S(metal)    S(lipo)     H(rot)  DE(clash)    DE(int)     intcor
     15.44     -16.13       0.70        0.00     117.74       2.13       0.02       0.67       ----

> <Gold.Chemscore.Fitness>
15.4376

> <Gold.Chemscore.DG>
-16.1261

> <Gold.Chemscore.ZeroCoef>
-5.4800

> <Gold.Chemscore.Hbond>
0.6987

> <Gold.Chemscore.Metal>
0.0000

> <Gold.Chemscore.Lipo>
117.7357

> <Gold.Chemscore.Internal_Hbond>
0.0000

> <Gold.Chemscore.DEClash>
0.0224

> <Gold.Chemscore.DEInternal>
0.6662

> <Gold.Chemscore.Rot>
2.1338

> <Gold.Chemscore.Internal.Correction>
   9.000000E+99

> <Gold.Chemscore.Hbonds>
donor molecule, donor type, donor heavy atom, donor atom, acceptor molecule, acceptor atom, score
      P1  H  8011  8017       L1     2  0.53

> <Gold.Chemscore.Hbond.Weighted>
-2.3336

> <Gold.Chemscore.Metal.Weighted>
-0.0000

> <Gold.Chemscore.Lipo.Weighted>
-13.7751

> <Gold.Chemscore.Internal_Hbond.Weighted>
0.0000

> <Gold.Chemscore.DEClash.Weighted>
0.0224

> <Gold.Chemscore.DEInternal.Weighted>
0.6662

> <Gold.Chemscore.Rot.Weighted>
5.4626

> <Gold.Chemscore.Internal.Correction.Weighted>
   9.000000E+99

> <Gold.Protein.RotatedTorsions>
[ 6907 6896 6895 6894 ] final -124.44 input  -60.11 | X-H torsion
[ 7974 7965 7964 7962 ] final  139.26 input  175.53 | X-H torsion
[ 8008 7997 7996 7995 ] final  161.56 input   59.86 | X-H torsion
[ 10167 10162 10161 10158 ] final  -75.38 input  -65.29 | X-H torsion
[ 10718 10713 10712 10709 ] final   41.68 input   66.30 | X-H torsion
[ 10763 10752 10751 10750 ] final   38.92 input  -60.55 | X-H torsion
[ 11005 11000 10999 10996 ] final  -70.07 input  -57.11 | X-H torsion

> <Gold.Protein.ActiveResidues>
 VAL166  LYS551  ARG553  GLY616  TRP617  ASP618  TYR619  PRO620  LYS621  CYS622 
 ASP623  PHE694  ASN695  SER759  ASP760  ASP761  ALA762  ILE779  LEU786  VAL792 
 PHE793  MET794  SER795  GLU796  ALA797  LYS798  CYS799  TRP800  GLU811  SER814 

> <Gold.Protein.RotatedAtoms>
  150.8768  133.7427  159.2943 H   0  0  0  0  0  0  0  0  0  0  0  0  # atno 6907 bound_to 6896
  151.5021  135.1060  159.9841 H   0  0  0  0  0  0  0  0  0  0  0  0  # atno 6908 bound_to 6896
  152.4733  133.8034  159.7021 H   0  0  0  0  0  0  0  0  0  0  0  0  # atno 6909 bound_to 6896
  144.9295  139.5065  143.5624 H   0  0  0  0  0  0  0  0  0  0  0  0  # atno 7974 bound_to 7965
  156.2094  140.1774  156.7727 H   0  0  0  0  0  0  0  0  0  0  0  0  # atno 8008 bound_to 7997
  154.5701  140.0684  156.8982 H   0  0  0  0  0  0  0  0  0  0  0  0  # atno 8009 bound_to 7997
  155.2688  140.3341  155.4269 H   0  0  0  0  0  0  0  0  0  0  0  0  # atno 8010 bound_to 7997
  140.4947  143.2373  151.7849 H   0  0  0  0  0  0  0  0  0  0  0  0  # atno 10167 bound_to 10162
  157.3964  130.7835  149.7311 H   0  0  0  0  0  0  0  0  0  0  0  0  # atno 10718 bound_to 10713
  152.9984  135.6235  154.2382 H   0  0  0  0  0  0  0  0  0  0  0  0  # atno 10763 bound_to 10752
  154.2123  135.2799  155.2956 H   0  0  0  0  0  0  0  0  0  0  0  0  # atno 10764 bound_to 10752
  154.5597  135.5709  153.7054 H   0  0  0  0  0  0  0  0  0  0  0  0  # atno 10765 bound_to 10752
  141.1567  133.6780  156.6697 H   0  0  0  0  0  0  0  0  0  0  0  0  # atno 11005 bound_to 11000
  146.3241  139.8235  142.8922 LP  0  0  0  0  0  0  0  0  0  0  0  0  # atno 17320 bound_to 7965
  145.3165  141.0233  143.3525 LP  0  0  0  0  0  0  0  0  0  0  0  0  # atno 17321 bound_to 7965
  139.4859  144.4602  151.9550 LP  0  0  0  0  0  0  0  0  0  0  0  0  # atno 17342 bound_to 10162
  140.3689  144.2880  150.5922 LP  0  0  0  0  0  0  0  0  0  0  0  0  # atno 17343 bound_to 10162
  155.9811  130.4022  150.3489 LP  0  0  0  0  0  0  0  0  0  0  0  0  # atno 17370 bound_to 10713
  157.1611  131.0345  151.2840 LP  0  0  0  0  0  0  0  0  0  0  0  0  # atno 17371 bound_to 10713
  140.3184  134.8028  157.4233 LP  0  0  0  0  0  0  0  0  0  0  0  0  # atno 17394 bound_to 11000
  140.1118  134.5336  155.8260 LP  0  0  0  0  0  0  0  0  0  0  0  0  # atno 17395 bound_to 11000

$$$$
