AV-unprocessed.smi:34|AV-procd|sdf|245|dock2
  -GOLD-   2262016 03D 1   1.00000     0.00000
 Structure written by MMmdl.
 54 58  0  0  0  0  0  0  0  0  2 V2000
  151.6276  140.0855  158.3668 O   0  0  0  0  0  0  0  0  0  0  0  0
  151.4231  141.0578  157.6369 C   0  0  0  0  0  0  0  0  0  0  0  0
  150.9867  141.0581  156.3517 N   0  5  0  0  0  0  0  0  0  0  0  0
  150.4214  139.9562  155.8353 C   0  0  0  0  0  0  0  0  0  0  0  0
  150.5634  139.6651  154.5173 N   0  0  0  0  0  0  0  0  0  0  0  0
  150.0109  138.5586  154.0069 C   0  0  0  0  0  0  0  0  0  0  0  0
  149.2933  137.6161  154.6252 N   0  0  0  0  0  0  0  0  0  0  0  0
  149.1445  137.8943  155.9534 C   0  0  0  0  0  0  0  0  0  0  0  0
  149.6800  139.0335  156.6233 C   0  0  0  0  0  0  0  0  0  0  0  0
  149.3558  139.0112  157.9716 N   0  0  0  0  0  0  0  0  0  0  0  0
  148.6516  137.8855  158.0588 C   0  0  0  0  0  0  0  0  0  0  0  0
  148.4754  137.1708  156.9295 N   0  0  0  0  0  0  0  0  0  0  0  0
  147.7244  135.8826  156.7881 C   0  0  2  0  0  0  0  0  0  0  0  0
  146.4588  136.0414  157.3547 O   0  0  0  0  0  0  0  0  0  0  0  0
  146.1241  134.8633  158.0773 C   0  0  2  0  0  0  0  0  0  0  0  0
  145.0254  135.1511  159.1089 C   0  0  0  0  0  0  0  0  0  0  0  0
  144.3495  133.9458  159.4306 O   0  0  0  0  0  0  0  0  0  0  0  0
  143.4396  133.4357  158.5770 C   0  0  0  0  0  0  0  0  0  0  0  0
  142.9560  134.0700  157.6371 O   0  0  0  0  0  0  0  0  0  0  0  0
  143.0833  132.0202  158.8842 C   0  0  0  0  0  0  0  0  0  0  0  0
  143.7819  131.3362  159.9067 C   0  0  0  0  0  0  0  0  0  0  0  0
  143.4652  130.0008  160.2228 C   0  0  0  0  0  0  0  0  0  0  0  0
  142.4468  129.3320  159.5190 C   0  0  0  0  0  0  0  0  0  0  0  0
  141.7462  130.0001  158.4978 C   0  0  0  0  0  0  0  0  0  0  0  0
  142.0610  131.3362  158.1809 C   0  0  0  0  0  0  0  0  0  0  0  0
  147.4633  134.4021  158.6559 C   0  0  2  0  0  0  0  0  0  0  0  0
  147.7650  135.1368  159.7287 F   0  0  0  0  0  0  0  0  0  0  0  0
  148.4109  134.6980  157.5025 C   0  0  2  0  0  0  0  0  0  0  0  0
  149.7409  134.9203  157.9370 O   0  0  0  0  0  0  0  0  0  0  0  0
  151.6032  142.4410  158.2030 C   0  0  0  0  0  0  0  0  0  0  0  0
  152.2925  142.6140  159.4251 C   0  0  0  0  0  0  0  0  0  0  0  0
  152.4943  143.9023  159.9577 C   0  0  0  0  0  0  0  0  0  0  0  0
  152.0171  145.0329  159.2684 C   0  0  0  0  0  0  0  0  0  0  0  0
  151.3416  144.8745  158.0440 C   0  0  0  0  0  0  0  0  0  0  0  0
  151.1392  143.5865  157.5110 C   0  0  0  0  0  0  0  0  0  0  0  0
  150.1689  138.4045  152.9500 H   0  0  0  0  0  0  0  0  0  0  0  0
  148.2360  137.5618  159.0016 H   0  0  0  0  0  0  0  0  0  0  0  0
  147.6421  135.7330  155.7106 H   0  0  0  0  0  0  0  0  0  0  0  0
  145.7659  134.1266  157.3557 H   0  0  0  0  0  0  0  0  0  0  0  0
  145.4453  135.6055  160.0072 H   0  0  0  0  0  0  0  0  0  0  0  0
  144.3101  135.8607  158.6909 H   0  0  0  0  0  0  0  0  0  0  0  0
  144.5669  131.8294  160.4617 H   0  0  0  0  0  0  0  0  0  0  0  0
  144.0043  129.4897  161.0068 H   0  0  0  0  0  0  0  0  0  0  0  0
  142.2037  128.3079  159.7620 H   0  0  0  0  0  0  0  0  0  0  0  0
  140.9652  129.4870  157.9560 H   0  0  0  0  0  0  0  0  0  0  0  0
  141.5040  131.8192  157.3913 H   0  0  0  0  0  0  0  0  0  0  0  0
  147.4663  133.3556  158.9620 H   0  0  0  0  0  0  0  0  0  0  0  0
  148.4061  133.8558  156.8094 H   0  0  0  0  0  0  0  0  0  0  0  0
  150.1519  135.5371  157.3509 H   0  0  0  0  0  0  0  0  0  0  0  0
  152.6672  141.7563  159.9651 H   0  0  0  0  0  0  0  0  0  0  0  0
  153.0171  144.0219  160.8950 H   0  0  0  0  0  0  0  0  0  0  0  0
  152.1726  146.0209  159.6760 H   0  0  0  0  0  0  0  0  0  0  0  0
  150.9808  145.7410  157.5103 H   0  0  0  0  0  0  0  0  0  0  0  0
  150.6282  143.4876  156.5641 H   0  0  0  0  0  0  0  0  0  0  0  0
  1  2  2  0  0  0  0
  2  3  1  0  0  0  0
  2 30  1  0  0  0  0
  3  4  1  0  0  0  0
  4  9  1  0  0  0  0
  4  5  2  0  0  0  0
  5  6  1  0  0  0  0
  6  7  2  0  0  0  0
  6 36  1  0  0  0  0
  7  8  1  0  0  0  0
  8 12  1  0  0  0  0
  8  9  2  0  0  0  0
  9 10  1  0  0  0  0
 10 11  2  0  0  0  0
 11 12  1  0  0  0  0
 11 37  1  0  0  0  0
 12 13  1  0  0  0  0
 13 28  1  0  0  0  0
 13 14  1  0  0  0  0
 13 38  1  0  0  0  0
 14 15  1  0  0  0  0
 15 16  1  0  0  0  0
 15 26  1  0  0  0  0
 15 39  1  0  0  0  0
 16 17  1  0  0  0  0
 16 40  1  0  0  0  0
 16 41  1  0  0  0  0
 17 18  1  0  0  0  0
 18 19  2  0  0  0  0
 18 20  1  0  0  0  0
 20 25  1  0  0  0  0
 20 21  2  0  0  0  0
 21 22  1  0  0  0  0
 21 42  1  0  0  0  0
 22 23  2  0  0  0  0
 22 43  1  0  0  0  0
 23 24  1  0  0  0  0
 23 44  1  0  0  0  0
 24 25  2  0  0  0  0
 24 45  1  0  0  0  0
 25 46  1  0  0  0  0
 26 27  1  0  0  0  0
 26 28  1  0  0  0  0
 26 47  1  0  0  0  0
 28 29  1  0  0  0  0
 28 48  1  0  0  0  0
 29 49  1  0  0  0  0
 30 35  1  0  0  0  0
 30 31  2  0  0  0  0
 31 32  1  0  0  0  0
 31 50  1  0  0  0  0
 32 33  2  0  0  0  0
 32 51  1  0  0  0  0
 33 34  1  0  0  0  0
 33 52  1  0  0  0  0
 34 35  2  0  0  0  0
 34 53  1  0  0  0  0
 35 54  1  0  0  0  0
M  CHG  1   3  -1
M  END
> <s_m_source_file>
AV-unprocessed.smi

> <i_m_source_file_index>
34

> <i_lp_mmshare_version>
43012

> <i_f3d_flags>
0

> <s_epik_input>
W2NIXTFbY0hdW2NIXVtjSF1bY0hdYzFDKD1PKVtOSF1jKG5bY0hdbjIpYyhjMjMpbltjSF1uM1tDQEBIXTRPW0NASF0oW0NAQEhdKEYpW0NASF00W09IXSlbQ0gyXU9DKD1PKWM1W2NIXVtjSF1bY0hdW2NIXVtjSF01

> <s_epik_cmdline>
J2VwaWtfcHl0aG9uJywgJy1waCcsICc3LjAnLCAnLXRuJywgJzgnLCAnLW1hJywgJzIwMCcsICctbWV0YWxfYmluZGluZycsICctaW1hZScsICc8aW5maWxlLm1hZT4nLCAnLW9tYWUnLCAnPG91dGZpbGUubWFlPic=

> <r_lp_tautomer_probability>
1

> <r_epik_Ionization_Penalty>
4.33227

> <r_epik_Ionization_Penalty_Charging>
3.41027

> <r_epik_Ionization_Penalty_Neutral>
0.922001

> <r_epik_State_Penalty>
3.41358

> <r_epik_Charging_Adjusted_Penalty>
6.82385

> <i_epik_Tot_Q>
-1

> <i_epik_Tot_abs_Q>
1

> <r_epik_Metal_State_Penalty>
0.496292

> <b_epik_Metal_Only>
1

> <s_epik_Chemistry_Notes>
This compound has an ester and may undergo hydrolysis at high or low pH. This compound contains an acetal/aminal-like group ( X-CH(R)-Y where X, Y are N, S, or O) that may be acid/base labile, releasing an aldehyde.

> <s_lp_Force_Field>
OPLS_2005

> <r_lp_Energy>
53.545

> <b_lp_Chiralities_Consistent>
1

> <s_lp_Variant>
AV-unprocessed.smi:34-31

> <Gold.Version>
5.8.1

> <Gold.Id.Protein>
6NUR|6NUR_protein|mol2

> <Gold.PLP.Fitness>
58.6024

> <Gold.PLP.PLP>
-45.3687

> <Gold.PLP.part.hbond>
-3.0000

> <Gold.PLP.part.metal>
0.0000

> <Gold.PLP.part.buried>
-7.7297

> <Gold.PLP.part.nonpolar>
-35.3310

> <Gold.PLP.part.repulsive>
0.3589

> <Gold.PLP.ligand.clash>
0.0000

> <Gold.PLP.ligand.torsion>
1.0062

> <Gold.PLP.Chemscore.Hbond>
3.0000

> <Gold.PLP.Chemscore.CHOScore>
1.7767

> <Gold.PLP.Chemscore.Metal>
0.0000

> <Gold.Chemscore.Hbonds>
donor molecule, donor type, donor heavy atom, donor atom, acceptor molecule, acceptor atom, score
      P1  H  6896  6907       L1    29  0.99
      P1  H  7989  7998       L1     5  1.00
      P1  H 11000 11005       L1    19  0.82
      L1  C     6    36       P1  7948  0.50
      L1  C     6    36       P1  7957  0.93

> <Gold.PLP.Chemscore.Internal.Correction>
0.9159

> <Gold.Rescore>
     Score         DG    S(hbond)    S(metal)    S(lipo)     H(rot)  DE(clash)    DE(int)     intcor
     13.97     -19.36       2.68        0.00     101.05       2.69       0.02       5.37       ----

> <Gold.Chemscore.Fitness>
13.9668

> <Gold.Chemscore.DG>
-19.3562

> <Gold.Chemscore.ZeroCoef>
-5.4800

> <Gold.Chemscore.Hbond>
2.6800

> <Gold.Chemscore.Metal>
0.0000

> <Gold.Chemscore.Lipo>
101.0479

> <Gold.Chemscore.Internal_Hbond>
0.0000

> <Gold.Chemscore.DEClash>
0.0202

> <Gold.Chemscore.DEInternal>
5.3692

> <Gold.Chemscore.Rot>
2.6944

> <Gold.Chemscore.Internal.Correction>
   9.000000E+99

> <Gold.Chemscore.Hbonds>
donor molecule, donor type, donor heavy atom, donor atom, acceptor molecule, acceptor atom, score
      P1  H  6896  6907       L1    29  0.93
      P1  H  7989  7998       L1     5  0.94
      P1  H 11000 11005       L1    19  0.77

> <Gold.Chemscore.Hbond.Weighted>
-8.9511

> <Gold.Chemscore.Metal.Weighted>
-0.0000

> <Gold.Chemscore.Lipo.Weighted>
-11.8226

> <Gold.Chemscore.Internal_Hbond.Weighted>
0.0000

> <Gold.Chemscore.DEClash.Weighted>
0.0202

> <Gold.Chemscore.DEInternal.Weighted>
5.3692

> <Gold.Chemscore.Rot.Weighted>
6.8975

> <Gold.Chemscore.Internal.Correction.Weighted>
   9.000000E+99

> <Gold.Protein.RotatedTorsions>
[ 6907 6896 6895 6894 ] final  -95.26 input  -60.11 | X-H torsion
[ 7974 7965 7964 7962 ] final  149.76 input  175.53 | X-H torsion
[ 8008 7997 7996 7995 ] final -173.86 input   59.86 | X-H torsion
[ 10167 10162 10161 10158 ] final  155.84 input  -65.29 | X-H torsion
[ 10718 10713 10712 10709 ] final   64.57 input   66.30 | X-H torsion
[ 10763 10752 10751 10750 ] final  -27.81 input  -60.55 | X-H torsion
[ 11005 11000 10999 10996 ] final -126.96 input  -57.11 | X-H torsion

> <Gold.Protein.ActiveResidues>
 VAL166  LYS551  ARG553  GLY616  TRP617  ASP618  TYR619  PRO620  LYS621  CYS622 
 ASP623  PHE694  ASN695  SER759  ASP760  ASP761  ALA762  ILE779  LEU786  VAL792 
 PHE793  MET794  SER795  GLU796  ALA797  LYS798  CYS799  TRP800  GLU811  SER814 

> <Gold.Protein.RotatedAtoms>
  150.6960  134.1686  159.4203 H   0  0  0  0  0  0  0  0  0  0  0  0  # atno 6907 bound_to 6896
  151.9664  135.0096  160.0560 H   0  0  0  0  0  0  0  0  0  0  0  0  # atno 6908 bound_to 6896
  152.1881  133.4719  159.5030 H   0  0  0  0  0  0  0  0  0  0  0  0  # atno 6909 bound_to 6896
  144.8414  139.6321  143.6015 H   0  0  0  0  0  0  0  0  0  0  0  0  # atno 7974 bound_to 7965
  155.9628  140.1147  157.0881 H   0  0  0  0  0  0  0  0  0  0  0  0  # atno 8008 bound_to 7997
  154.4136  140.1178  156.5268 H   0  0  0  0  0  0  0  0  0  0  0  0  # atno 8009 bound_to 7997
  155.6698  140.3473  155.4816 H   0  0  0  0  0  0  0  0  0  0  0  0  # atno 8010 bound_to 7997
  139.4821  144.5062  151.8094 H   0  0  0  0  0  0  0  0  0  0  0  0  # atno 10167 bound_to 10162
  157.6048  130.9167  149.9863 H   0  0  0  0  0  0  0  0  0  0  0  0  # atno 10718 bound_to 10713
  153.7381  135.6934  153.4973 H   0  0  0  0  0  0  0  0  0  0  0  0  # atno 10763 bound_to 10752
  153.2088  135.4410  155.0354 H   0  0  0  0  0  0  0  0  0  0  0  0  # atno 10764 bound_to 10752
  154.8230  135.3431  154.6908 H   0  0  0  0  0  0  0  0  0  0  0  0  # atno 10765 bound_to 10752
  140.9639  134.0899  157.3940 H   0  0  0  0  0  0  0  0  0  0  0  0  # atno 11005 bound_to 11000
  146.2706  139.6626  142.9299 LP  0  0  0  0  0  0  0  0  0  0  0  0  # atno 17320 bound_to 7965
  145.4686  141.0435  143.2711 LP  0  0  0  0  0  0  0  0  0  0  0  0  # atno 17321 bound_to 7965
  140.4560  144.1788  150.5901 LP  0  0  0  0  0  0  0  0  0  0  0  0  # atno 17342 bound_to 10162
  140.4534  143.2477  151.9317 LP  0  0  0  0  0  0  0  0  0  0  0  0  # atno 17343 bound_to 10162
  156.1131  130.3649  150.0014 LP  0  0  0  0  0  0  0  0  0  0  0  0  # atno 17370 bound_to 10713
  156.8108  130.9324  151.3644 LP  0  0  0  0  0  0  0  0  0  0  0  0  # atno 17371 bound_to 10713
  139.8887  135.0100  156.6639 LP  0  0  0  0  0  0  0  0  0  0  0  0  # atno 17394 bound_to 11000
  140.7428  133.8963  155.8290 LP  0  0  0  0  0  0  0  0  0  0  0  0  # atno 17395 bound_to 11000

$$$$
