AV-unprocessed.smi:109|AV-procd|sdf|1056|dock1
  -GOLD-   2262018123D 1   1.00000     0.00000
 Structure written by MMmdl.
 58 61  0  0  0  0  0  0  0  0  1 V2000
  150.6519  140.2692  154.7258 O   0  0  0  0  0  0  0  0  0  0  0  0
  149.8132  141.3485  155.0768 C   0  0  0  0  0  0  0  0  0  0  0  0
  150.4908  142.2063  156.1574 C   0  0  0  0  0  0  0  0  0  0  0  0
  150.6358  141.4701  157.5079 C   0  0  1  0  0  0  0  0  0  0  0  0
  151.4323  140.2565  157.3282 N   0  0  0  0  0  0  0  0  0  0  0  0
  151.1905  139.1386  158.0483 C   0  0  0  0  0  0  0  0  0  0  0  0
  152.1832  138.5046  158.7257 N   0  0  0  0  0  0  0  0  0  0  0  0
  151.9135  137.4027  159.4324 C   0  0  0  0  0  0  0  0  0  0  0  0
  150.7440  136.7788  159.5926 N   0  0  0  0  0  0  0  0  0  0  0  0
  149.7446  137.4139  158.9141 C   0  0  0  0  0  0  0  0  0  0  0  0
  149.8853  138.5891  158.1257 C   0  0  0  0  0  0  0  0  0  0  0  0
  148.6558  138.9430  157.5856 N   0  0  0  0  0  0  0  0  0  0  0  0
  147.8393  138.0277  158.0348 C   0  0  0  0  0  0  0  0  0  0  0  0
  148.4116  137.0717  158.8478 N   0  0  0  0  0  0  0  0  0  0  0  0
  147.7746  135.8972  159.5264 C   0  0  2  0  0  0  0  0  0  0  0  0
  146.4916  135.7484  158.9925 O   0  0  0  0  0  0  0  0  0  0  0  0
  145.4964  135.9255  159.9992 C   0  0  2  0  0  0  0  0  0  0  0  0
  144.2322  136.5787  159.4130 C   0  0  0  0  0  0  0  0  0  0  0  0
  143.2423  136.7146  160.4103 O   0  0  0  0  0  0  0  0  0  0  0  0
  146.1926  136.6579  161.1572 C   0  0  2  0  0  0  0  0  0  0  0  0
  146.1194  138.0665  161.0142 O   0  0  0  0  0  0  0  0  0  0  0  0
  147.6143  136.1237  161.0417 C   0  0  2  0  0  0  0  0  0  0  0  0
  148.5841  136.9633  161.6444 O   0  0  0  0  0  0  0  0  0  0  0  0
  151.2220  142.3483  158.6479 C   0  0  0  0  0  0  0  0  0  0  0  0
  150.5037  143.7079  158.7875 C   0  0  0  0  0  0  0  0  0  0  0  0
  151.0392  144.5050  159.9883 C   0  0  0  0  0  0  0  0  0  0  0  0
  152.5600  144.7022  159.8919 C   0  0  0  0  0  0  0  0  0  0  0  0
  153.2861  143.3553  159.7501 C   0  0  0  0  0  0  0  0  0  0  0  0
  152.7506  142.5568  158.5505 C   0  0  0  0  0  0  0  0  0  0  0  0
  148.4133  135.0504  159.2728 H   0  0  0  0  0  0  0  0  0  0  0  0
  145.2434  134.9208  160.3428 H   0  0  0  0  0  0  0  0  0  0  0  0
  145.7460  136.3984  162.1177 H   0  0  0  0  0  0  0  0  0  0  0  0
  147.6603  135.1435  161.5179 H   0  0  0  0  0  0  0  0  0  0  0  0
  150.7219  139.6893  155.4687 H   0  0  0  0  0  0  0  0  0  0  0  0
  149.6087  141.9429  154.1858 H   0  0  0  0  0  0  0  0  0  0  0  0
  148.8612  140.9523  155.4312 H   0  0  0  0  0  0  0  0  0  0  0  0
  151.4683  142.5331  155.8003 H   0  0  0  0  0  0  0  0  0  0  0  0
  149.8975  143.1101  156.2891 H   0  0  0  0  0  0  0  0  0  0  0  0
  149.6287  141.1767  157.8061 H   0  0  0  0  0  0  0  0  0  0  0  0
  152.2386  140.3508  156.7275 H   0  0  0  0  0  0  0  0  0  0  0  0
  152.7544  136.9579  159.9437 H   0  0  0  0  0  0  0  0  0  0  0  0
  146.7897  138.0294  157.7819 H   0  0  0  0  0  0  0  0  0  0  0  0
  144.4477  137.5520  158.9719 H   0  0  0  0  0  0  0  0  0  0  0  0
  143.8291  135.9539  158.6156 H   0  0  0  0  0  0  0  0  0  0  0  0
  142.4022  136.8094  159.9879 H   0  0  0  0  0  0  0  0  0  0  0  0
  145.2339  138.2974  160.7780 H   0  0  0  0  0  0  0  0  0  0  0  0
  149.1828  136.4239  162.1374 H   0  0  0  0  0  0  0  0  0  0  0  0
  151.0361  141.8191  159.5837 H   0  0  0  0  0  0  0  0  0  0  0  0
  150.6321  144.3044  157.8849 H   0  0  0  0  0  0  0  0  0  0  0  0
  149.4307  143.5516  158.9051 H   0  0  0  0  0  0  0  0  0  0  0  0
  150.5416  145.4735  160.0427 H   0  0  0  0  0  0  0  0  0  0  0  0
  150.7962  143.9804  160.9132 H   0  0  0  0  0  0  0  0  0  0  0  0
  152.7926  145.3347  159.0342 H   0  0  0  0  0  0  0  0  0  0  0  0
  152.9238  145.2304  160.7737 H   0  0  0  0  0  0  0  0  0  0  0  0
  154.3578  143.5212  159.6364 H   0  0  0  0  0  0  0  0  0  0  0  0
  153.1587  142.7726  160.6632 H   0  0  0  0  0  0  0  0  0  0  0  0
  153.2613  141.5946  158.5012 H   0  0  0  0  0  0  0  0  0  0  0  0
  153.0012  143.0883  157.6322 H   0  0  0  0  0  0  0  0  0  0  0  0
  1  2  1  0  0  0  0
  1 34  1  0  0  0  0
  2  3  1  0  0  0  0
  2 35  1  0  0  0  0
  2 36  1  0  0  0  0
  3  4  1  0  0  0  0
  3 37  1  0  0  0  0
  3 38  1  0  0  0  0
  4  5  1  0  0  0  0
  4 24  1  0  0  0  0
  4 39  1  0  0  0  0
  5  6  1  0  0  0  0
  5 40  1  0  0  0  0
  6 11  1  0  0  0  0
  6  7  2  0  0  0  0
  7  8  1  0  0  0  0
  8  9  2  0  0  0  0
  8 41  1  0  0  0  0
  9 10  1  0  0  0  0
 10 14  1  0  0  0  0
 10 11  2  0  0  0  0
 11 12  1  0  0  0  0
 12 13  2  0  0  0  0
 13 14  1  0  0  0  0
 13 42  1  0  0  0  0
 14 15  1  0  0  0  0
 15 30  1  0  0  0  0
 15 22  1  0  0  0  0
 15 16  1  0  0  0  0
 16 17  1  0  0  0  0
 17 31  1  0  0  0  0
 17 18  1  0  0  0  0
 17 20  1  0  0  0  0
 18 19  1  0  0  0  0
 18 43  1  0  0  0  0
 18 44  1  0  0  0  0
 19 45  1  0  0  0  0
 20 32  1  0  0  0  0
 20 21  1  0  0  0  0
 20 22  1  0  0  0  0
 21 46  1  0  0  0  0
 22 33  1  0  0  0  0
 22 23  1  0  0  0  0
 23 47  1  0  0  0  0
 24 29  1  0  0  0  0
 24 25  1  0  0  0  0
 24 48  1  0  0  0  0
 25 26  1  0  0  0  0
 25 49  1  0  0  0  0
 25 50  1  0  0  0  0
 26 27  1  0  0  0  0
 26 51  1  0  0  0  0
 26 52  1  0  0  0  0
 27 28  1  0  0  0  0
 27 53  1  0  0  0  0
 27 54  1  0  0  0  0
 28 29  1  0  0  0  0
 28 55  1  0  0  0  0
 28 56  1  0  0  0  0
 29 57  1  0  0  0  0
 29 58  1  0  0  0  0
M  END
> <s_m_source_file>
AV-unprocessed.smi

> <i_m_source_file_index>
109

> <i_lp_mmshare_version>
43012

> <i_f3d_flags>
0

> <s_epik_input>
W0NIMl0xW0NIMl1bQ0gyXVtDSDJdW0NIMl1bQ0hdMVtDQEhdKFtDSDJdW0NIMl1bT0hdKVtOSF1jKG5bY0hdbjIpYyhjMjMpbltjSF1uM1tDQEBIXTRPW0NASF0oW0NIMl1bT0hdKVtDQEBIXShbT0hdKVtDQEhdNFtPSF0=

> <s_epik_cmdline>
J2VwaWtfcHl0aG9uJywgJy1waCcsICc3LjAnLCAnLXRuJywgJzgnLCAnLW1hJywgJzIwMCcsICctbWV0YWxfYmluZGluZycsICctaW1hZScsICc8aW5maWxlLm1hZT4nLCAnLW9tYWUnLCAnPG91dGZpbGUubWFlPic=

> <r_lp_tautomer_probability>
1

> <r_epik_Ionization_Penalty>
0.000793976

> <r_epik_Ionization_Penalty_Charging>
0

> <r_epik_Ionization_Penalty_Neutral>
0.000793976

> <r_epik_State_Penalty>
-0

> <r_epik_Charging_Adjusted_Penalty>
0

> <i_epik_Tot_Q>
0

> <i_epik_Tot_abs_Q>
0

> <r_epik_Metal_State_Penalty>
-0

> <b_epik_Metal_Only>
0

> <s_epik_Chemistry_Notes>
This compound contains an acetal/aminal-like group ( X-CH(R)-Y where X, Y are N, S, or O) that may be acid/base labile, releasing an aldehyde.

> <s_lp_Force_Field>
OPLS_2005

> <r_lp_Energy>
58.3807

> <b_lp_Chiralities_Consistent>
1

> <s_lp_Variant>
AV-unprocessed.smi:109-26

> <Gold.Version>
5.8.1

> <Gold.Id.Protein>
6NUR|6NUR_protein|mol2

> <Gold.PLP.Fitness>
50.4456

> <Gold.PLP.PLP>
-40.6575

> <Gold.PLP.part.hbond>
-3.8102

> <Gold.PLP.part.metal>
0.0000

> <Gold.PLP.part.buried>
-5.5139

> <Gold.PLP.part.nonpolar>
-31.7118

> <Gold.PLP.part.repulsive>
0.0632

> <Gold.PLP.ligand.clash>
0.0000

> <Gold.PLP.ligand.torsion>
1.2778

> <Gold.PLP.Chemscore.Hbond>
3.7963

> <Gold.PLP.Chemscore.CHOScore>
0.0000

> <Gold.PLP.Chemscore.Metal>
0.0000

> <Gold.Chemscore.Hbonds>
donor molecule, donor type, donor heavy atom, donor atom, acceptor molecule, acceptor atom, score
      P1  H  6896  6908       L1     9  1.00
      P1  H  6931  6943       L1    23  0.63
      P1  H  6934  6947       L1    21  0.70
      P1  H  7989  7998       L1     1  1.00

> <Gold.PLP.Chemscore.Internal.Correction>
0.9549

> <Gold.Rescore>
     Score         DG    S(hbond)    S(metal)    S(lipo)     H(rot)  DE(clash)    DE(int)     intcor
     10.02     -13.82       3.30        0.00      96.68       5.47       1.37       2.43       ----

> <Gold.Chemscore.Fitness>
10.0177

> <Gold.Chemscore.DG>
-13.8204

> <Gold.Chemscore.ZeroCoef>
-5.4800

> <Gold.Chemscore.Hbond>
3.3000

> <Gold.Chemscore.Metal>
0.0000

> <Gold.Chemscore.Lipo>
96.6822

> <Gold.Chemscore.Internal_Hbond>
0.0000

> <Gold.Chemscore.DEClash>
1.3721

> <Gold.Chemscore.DEInternal>
2.4307

> <Gold.Chemscore.Rot>
5.4662

> <Gold.Chemscore.Internal.Correction>
   9.000000E+99

> <Gold.Chemscore.Hbonds>
donor molecule, donor type, donor heavy atom, donor atom, acceptor molecule, acceptor atom, score
      P1  H  6896  6908       L1     9  0.74
      P1  H  6931  6943       L1    23  0.22
      P1  H  6934  6947       L1    21  0.64
      P1  H  7989  7998       L1     1  0.45

> <Gold.Chemscore.Hbond.Weighted>
-11.0221

> <Gold.Chemscore.Metal.Weighted>
-0.0000

> <Gold.Chemscore.Lipo.Weighted>
-11.3118

> <Gold.Chemscore.Internal_Hbond.Weighted>
0.0000

> <Gold.Chemscore.DEClash.Weighted>
1.3721

> <Gold.Chemscore.DEInternal.Weighted>
2.4307

> <Gold.Chemscore.Rot.Weighted>
13.9935

> <Gold.Chemscore.Internal.Correction.Weighted>
   9.000000E+99

> <Gold.Protein.RotatedTorsions>
[ 6907 6896 6895 6894 ] final -157.17 input  -60.11 | X-H torsion
[ 7974 7965 7964 7962 ] final -145.53 input  175.53 | X-H torsion
[ 8008 7997 7996 7995 ] final  -41.58 input   59.86 | X-H torsion
[ 10167 10162 10161 10158 ] final -151.58 input  -65.29 | X-H torsion
[ 10718 10713 10712 10709 ] final  158.71 input   66.30 | X-H torsion
[ 10763 10752 10751 10750 ] final   65.48 input  -60.55 | X-H torsion
[ 11005 11000 10999 10996 ] final  142.50 input  -57.11 | X-H torsion

> <Gold.Protein.ActiveResidues>
 VAL166  LYS551  ARG553  GLY616  TRP617  ASP618  TYR619  PRO620  LYS621  CYS622 
 ASP623  PHE694  ASN695  SER759  ASP760  ASP761  ALA762  ILE779  LEU786  VAL792 
 PHE793  MET794  SER795  GLU796  ALA797  LYS798  CYS799  TRP800  GLU811  SER814 

> <Gold.Protein.RotatedAtoms>
  151.2987  133.4132  159.2637 H   0  0  0  0  0  0  0  0  0  0  0  0  # atno 6907 bound_to 6896
  151.0214  134.9472  159.8072 H   0  0  0  0  0  0  0  0  0  0  0  0  # atno 6908 bound_to 6896
  152.5325  134.2950  159.9110 H   0  0  0  0  0  0  0  0  0  0  0  0  # atno 6909 bound_to 6896
  144.8221  140.5571  143.5571 H   0  0  0  0  0  0  0  0  0  0  0  0  # atno 7974 bound_to 7965
  154.4003  140.1495  156.3215 H   0  0  0  0  0  0  0  0  0  0  0  0  # atno 8008 bound_to 7997
  155.8525  140.3457  155.5681 H   0  0  0  0  0  0  0  0  0  0  0  0  # atno 8009 bound_to 7997
  155.7968  140.0864  157.1969 H   0  0  0  0  0  0  0  0  0  0  0  0  # atno 8010 bound_to 7997
  139.7255  143.8890  152.2518 H   0  0  0  0  0  0  0  0  0  0  0  0  # atno 10167 bound_to 10162
  157.1742  131.0617  151.2166 H   0  0  0  0  0  0  0  0  0  0  0  0  # atno 10718 bound_to 10713
  153.0098  135.5355  154.6674 H   0  0  0  0  0  0  0  0  0  0  0  0  # atno 10763 bound_to 10752
  154.5867  135.2855  155.0680 H   0  0  0  0  0  0  0  0  0  0  0  0  # atno 10764 bound_to 10752
  154.1788  135.6519  153.5081 H   0  0  0  0  0  0  0  0  0  0  0  0  # atno 10765 bound_to 10752
  140.0482  134.9270  157.0968 H   0  0  0  0  0  0  0  0  0  0  0  0  # atno 11005 bound_to 11000
  145.5082  139.1480  143.3619 LP  0  0  0  0  0  0  0  0  0  0  0  0  # atno 17320 bound_to 7965
  146.2526  140.5222  142.8887 LP  0  0  0  0  0  0  0  0  0  0  0  0  # atno 17321 bound_to 7965
  139.8798  144.7023  150.8890 LP  0  0  0  0  0  0  0  0  0  0  0  0  # atno 17342 bound_to 10162
  140.7762  143.3670  151.1720 LP  0  0  0  0  0  0  0  0  0  0  0  0  # atno 17343 bound_to 10162
  157.4014  130.7335  149.6770 LP  0  0  0  0  0  0  0  0  0  0  0  0  # atno 17370 bound_to 10713
  155.9734  130.4120  150.4008 LP  0  0  0  0  0  0  0  0  0  0  0  0  # atno 17371 bound_to 10713
  140.3960  134.2133  155.7164 LP  0  0  0  0  0  0  0  0  0  0  0  0  # atno 17394 bound_to 11000
  141.1917  133.8189  157.0868 LP  0  0  0  0  0  0  0  0  0  0  0  0  # atno 17395 bound_to 11000

$$$$
