AV-unprocessed.smi:2539|AV-procd|sdf|9985|dock9
  -GOLD-   2272014 33D 1   1.00000     0.00000
 Structure written by MMmdl.
 40 41  0  0  0  0  0  0  0  0  1 V2000
  145.1021  136.5538  154.8255 O   0  0  0  0  0  0  0  0  0  0  0  0
  145.8442  136.5427  153.8423 C   0  0  0  0  0  0  0  0  0  0  0  0
  147.1807  136.6462  153.9510 N   0  0  0  0  0  0  0  0  0  0  0  0
  147.9352  136.6758  155.2016 C   0  0  0  0  0  0  0  0  0  0  0  0
  149.3768  137.1819  154.9946 C   0  0  0  0  0  0  0  0  0  0  0  0
  149.5227  138.6859  155.1525 C   0  0  0  0  0  0  0  0  0  0  0  0
  149.4452  139.2957  156.4223 C   0  0  0  0  0  0  0  0  0  0  0  0
  149.5528  140.6968  156.5092 C   0  0  0  0  0  0  0  0  0  0  0  0
  149.7363  141.4303  155.3202 C   0  0  0  0  0  0  0  0  0  0  0  0
  149.8178  140.8574  154.1002 N   0  0  0  0  0  0  0  0  0  0  0  0
  149.7122  139.5133  154.0251 C   0  0  0  0  0  0  0  0  0  0  0  0
  145.3936  136.3577  152.5762 N   0  0  0  0  0  0  0  0  0  0  0  0
  146.2133  136.0610  151.3919 C   0  0  0  0  0  0  0  0  0  0  0  0
  146.0472  134.5698  151.0418 C   0  0  0  0  0  0  0  0  0  0  0  0
  144.5606  134.1766  150.8343 C   0  0  0  0  0  0  0  0  0  0  0  0
  144.1261  134.7647  149.6206 O   0  0  0  0  0  0  0  0  0  0  0  0
  144.3942  132.6454  150.6831 C   0  0  0  0  0  0  0  0  0  0  0  0
  145.0247  132.2209  149.5878 F   0  0  0  0  0  0  0  0  0  0  0  0
  144.9147  132.0106  151.7343 F   0  0  0  0  0  0  0  0  0  0  0  0
  143.1055  132.3201  150.5713 F   0  0  0  0  0  0  0  0  0  0  0  0
  143.6698  134.7405  151.9734 C   0  0  0  0  0  0  0  0  0  0  0  0
  143.9658  136.2241  152.2714 C   0  0  0  0  0  0  0  0  0  0  0  0
  147.7208  136.6274  153.0984 H   0  0  0  0  0  0  0  0  0  0  0  0
  147.4144  137.3332  155.8979 H   0  0  0  0  0  0  0  0  0  0  0  0
  147.9466  135.6892  155.6680 H   0  0  0  0  0  0  0  0  0  0  0  0
  150.0444  136.6848  155.6997 H   0  0  0  0  0  0  0  0  0  0  0  0
  149.7245  136.9001  154.0001 H   0  0  0  0  0  0  0  0  0  0  0  0
  149.2940  138.7044  157.3133 H   0  0  0  0  0  0  0  0  0  0  0  0
  149.4936  141.1984  157.4635 H   0  0  0  0  0  0  0  0  0  0  0  0
  149.8212  142.5065  155.3499 H   0  0  0  0  0  0  0  0  0  0  0  0
  149.7693  139.0862  153.0347 H   0  0  0  0  0  0  0  0  0  0  0  0
  145.8786  136.6810  150.5591 H   0  0  0  0  0  0  0  0  0  0  0  0
  147.2684  136.3041  151.5180 H   0  0  0  0  0  0  0  0  0  0  0  0
  146.6315  134.3301  150.1527 H   0  0  0  0  0  0  0  0  0  0  0  0
  146.4719  133.9753  151.8515 H   0  0  0  0  0  0  0  0  0  0  0  0
  144.8655  134.8196  149.0344 H   0  0  0  0  0  0  0  0  0  0  0  0
  142.6140  134.6143  151.7308 H   0  0  0  0  0  0  0  0  0  0  0  0
  143.8394  134.1656  152.8849 H   0  0  0  0  0  0  0  0  0  0  0  0
  143.3256  136.5735  153.0826 H   0  0  0  0  0  0  0  0  0  0  0  0
  143.7136  136.8451  151.4107 H   0  0  0  0  0  0  0  0  0  0  0  0
  1  2  2  0  0  0  0
  2  3  1  0  0  0  0
  2 12  1  0  0  0  0
  3  4  1  0  0  0  0
  3 23  1  0  0  0  0
  4  5  1  0  0  0  0
  4 24  1  0  0  0  0
  4 25  1  0  0  0  0
  5  6  1  0  0  0  0
  5 26  1  0  0  0  0
  5 27  1  0  0  0  0
  6 11  1  0  0  0  0
  6  7  2  0  0  0  0
  7  8  1  0  0  0  0
  7 28  1  0  0  0  0
  8  9  2  0  0  0  0
  8 29  1  0  0  0  0
  9 10  1  0  0  0  0
  9 30  1  0  0  0  0
 10 11  2  0  0  0  0
 11 31  1  0  0  0  0
 12 22  1  0  0  0  0
 12 13  1  0  0  0  0
 13 14  1  0  0  0  0
 13 32  1  0  0  0  0
 13 33  1  0  0  0  0
 14 15  1  0  0  0  0
 14 34  1  0  0  0  0
 14 35  1  0  0  0  0
 15 16  1  0  0  0  0
 15 17  1  0  0  0  0
 15 21  1  0  0  0  0
 16 36  1  0  0  0  0
 17 18  1  0  0  0  0
 17 19  1  0  0  0  0
 17 20  1  0  0  0  0
 21 22  1  0  0  0  0
 21 37  1  0  0  0  0
 21 38  1  0  0  0  0
 22 39  1  0  0  0  0
 22 40  1  0  0  0  0
M  END
> <s_m_source_file>
AV-unprocessed.smi

> <i_m_source_file_index>
2539

> <i_lp_mmshare_version>
43012

> <i_f3d_flags>
0

> <s_epik_input>
RkMoRikoRilDMShbT0hdKVtDSDJdW0NIMl1OKFtDSDJdW0NIMl0xKUMoPU8pW05IXVtDSDJdW0NIMl1jMltjSF1bY0hdW2NIXW5bY0hdMg==

> <s_epik_cmdline>
J2VwaWtfcHl0aG9uJywgJy1waCcsICc3LjAnLCAnLXRuJywgJzgnLCAnLW1hJywgJzIwMCcsICctbWV0YWxfYmluZGluZycsICctaW1hZScsICc8aW5maWxlLm1hZT4nLCAnLW9tYWUnLCAnPG91dGZpbGUubWFlPic=

> <r_epik_Ionization_Penalty>
0.0144431

> <r_epik_Ionization_Penalty_Charging>
0

> <r_epik_Ionization_Penalty_Neutral>
0.0144431

> <r_epik_State_Penalty>
0.0112443

> <r_epik_Charging_Adjusted_Penalty>
0.0112443

> <i_epik_Tot_Q>
0

> <i_epik_Tot_abs_Q>
0

> <r_epik_Metal_State_Penalty>
0.0109773

> <b_epik_Metal_Only>
0

> <s_lp_Force_Field>
OPLS_2005

> <r_lp_Energy>
34.3491

> <b_lp_Chiralities_Consistent>
1

> <s_lp_Variant>
AV-unprocessed.smi:2539-1

> <Gold.Version>
5.8.1

> <Gold.Id.Protein>
6NUR|6NUR_protein|mol2

> <Gold.PLP.Fitness>
44.6055

> <Gold.PLP.PLP>
-31.9220

> <Gold.PLP.part.hbond>
-4.0542

> <Gold.PLP.part.metal>
0.0000

> <Gold.PLP.part.buried>
0.6801

> <Gold.PLP.part.nonpolar>
-28.5138

> <Gold.PLP.part.repulsive>
0.6487

> <Gold.PLP.ligand.clash>
0.0000

> <Gold.PLP.ligand.torsion>
0.5656

> <Gold.PLP.Chemscore.Hbond>
2.5885

> <Gold.PLP.Chemscore.CHOScore>
2.0000

> <Gold.PLP.Chemscore.Metal>
0.0000

> <Gold.Chemscore.Hbonds>
donor molecule, donor type, donor heavy atom, donor atom, acceptor molecule, acceptor atom, score
      L1  H     3    23       P1  7948  1.00
      L1  H    16    36       P1  7921  1.00
      P1  H  7989  7998       L1    10  0.42
      P1  H  8011  8017       L1    10  0.17
      L1  C     9    30       P1  8028  1.00
      L1  C    11    31       P1  7957  1.00

> <Gold.PLP.Chemscore.Internal.Correction>
0.0492

> <Gold.Rescore>
     Score         DG    S(hbond)    S(metal)    S(lipo)     H(rot)  DE(clash)    DE(int)     intcor
     14.35     -17.07       2.86        0.00      60.68       1.97       2.26       0.46       ----

> <Gold.Chemscore.Fitness>
14.3528

> <Gold.Chemscore.DG>
-17.0743

> <Gold.Chemscore.ZeroCoef>
-5.4800

> <Gold.Chemscore.Hbond>
2.8587

> <Gold.Chemscore.Metal>
0.0000

> <Gold.Chemscore.Lipo>
60.6763

> <Gold.Chemscore.Internal_Hbond>
0.0000

> <Gold.Chemscore.DEClash>
2.2614

> <Gold.Chemscore.DEInternal>
0.4600

> <Gold.Chemscore.Rot>
1.9737

> <Gold.Chemscore.Internal.Correction>
   9.000000E+99

> <Gold.Chemscore.Hbonds>
donor molecule, donor type, donor heavy atom, donor atom, acceptor molecule, acceptor atom, score
      L1  H     3    23       P1  7948  1.00
      L1  H    16    36       P1  7921  1.00
      P1  H  7989  7998       L1    10  0.04
      P1  H  8011  8017       L1    10  0.15

> <Gold.Chemscore.Hbond.Weighted>
-9.5479

> <Gold.Chemscore.Metal.Weighted>
-0.0000

> <Gold.Chemscore.Lipo.Weighted>
-7.0991

> <Gold.Chemscore.Internal_Hbond.Weighted>
0.0000

> <Gold.Chemscore.DEClash.Weighted>
2.2614

> <Gold.Chemscore.DEInternal.Weighted>
0.4600

> <Gold.Chemscore.Rot.Weighted>
5.0528

> <Gold.Chemscore.Internal.Correction.Weighted>
   9.000000E+99

> <Gold.Protein.RotatedTorsions>
[ 6907 6896 6895 6894 ] final -108.40 input  -60.11 | X-H torsion
[ 7974 7965 7964 7962 ] final  -35.78 input  175.53 | X-H torsion
[ 8008 7997 7996 7995 ] final -179.26 input   59.86 | X-H torsion
[ 10167 10162 10161 10158 ] final -121.03 input  -65.29 | X-H torsion
[ 10718 10713 10712 10709 ] final  160.73 input   66.30 | X-H torsion
[ 10763 10752 10751 10750 ] final  103.70 input  -60.55 | X-H torsion
[ 11005 11000 10999 10996 ] final   31.95 input  -57.11 | X-H torsion

> <Gold.Protein.ActiveResidues>
 VAL166  LYS551  ARG553  GLY616  TRP617  ASP618  TYR619  PRO620  LYS621  CYS622 
 ASP623  PHE694  ASN695  SER759  ASP760  ASP761  ALA762  ILE779  LEU786  VAL792 
 PHE793  MET794  SER795  GLU796  ALA797  LYS798  CYS799  TRP800  GLU811  SER814 

> <Gold.Protein.RotatedAtoms>
  150.7500  133.9683  159.3537 H   0  0  0  0  0  0  0  0  0  0  0  0  # atno 6907 bound_to 6896
  151.7614  135.0807  160.0355 H   0  0  0  0  0  0  0  0  0  0  0  0  # atno 6908 bound_to 6896
  152.3400  133.6019  159.5906 H   0  0  0  0  0  0  0  0  0  0  0  0  # atno 6909 bound_to 6896
  146.0717  140.6200  142.8949 H   0  0  0  0  0  0  0  0  0  0  0  0  # atno 7974 bound_to 7965
  156.0284  140.1276  157.0284 H   0  0  0  0  0  0  0  0  0  0  0  0  # atno 8008 bound_to 7997
  154.4340  140.1054  156.6135 H   0  0  0  0  0  0  0  0  0  0  0  0  # atno 8009 bound_to 7997
  155.5842  140.3468  155.4551 H   0  0  0  0  0  0  0  0  0  0  0  0  # atno 8010 bound_to 7997
  140.0294  143.5264  152.2183 H   0  0  0  0  0  0  0  0  0  0  0  0  # atno 10167 bound_to 10162
  157.1463  131.0553  151.2302 H   0  0  0  0  0  0  0  0  0  0  0  0  # atno 10718 bound_to 10713
  153.3562  135.3968  155.1683 H   0  0  0  0  0  0  0  0  0  0  0  0  # atno 10763 bound_to 10752
  154.8671  135.3668  154.5159 H   0  0  0  0  0  0  0  0  0  0  0  0  # atno 10764 bound_to 10752
  153.5614  135.7081  153.5605 H   0  0  0  0  0  0  0  0  0  0  0  0  # atno 10765 bound_to 10752
  140.2786  134.2999  155.7807 H   0  0  0  0  0  0  0  0  0  0  0  0  # atno 11005 bound_to 11000
  144.7236  140.4453  143.6990 LP  0  0  0  0  0  0  0  0  0  0  0  0  # atno 17320 bound_to 7965
  145.6379  139.1545  143.2932 LP  0  0  0  0  0  0  0  0  0  0  0  0  # atno 17321 bound_to 7965
  139.6086  144.7603  151.3003 LP  0  0  0  0  0  0  0  0  0  0  0  0  # atno 17342 bound_to 10162
  140.7309  143.6868  150.7955 LP  0  0  0  0  0  0  0  0  0  0  0  0  # atno 17343 bound_to 10162
  157.4261  130.7464  149.6952 LP  0  0  0  0  0  0  0  0  0  0  0  0  # atno 17370 bound_to 10713
  155.9779  130.4058  150.3684 LP  0  0  0  0  0  0  0  0  0  0  0  0  # atno 17371 bound_to 10713
  141.2166  133.7511  156.9445 LP  0  0  0  0  0  0  0  0  0  0  0  0  # atno 17394 bound_to 11000
  140.1305  134.9359  157.2330 LP  0  0  0  0  0  0  0  0  0  0  0  0  # atno 17395 bound_to 11000

$$$$
