AV-unprocessed.smi:1845|AV-procd|sdf|7512|dock7
  -GOLD-   22720 9223D 1   1.00000     0.00000
 Structure written by MMmdl.
 45 46  0  0  0  0  0  0  0  0  1 V2000
  148.3669  136.2460  160.3626 C   0  0  0  0  0  0  0  0  0  0  0  0
  149.4945  137.0700  159.1638 S   0  0  0  0  0  0  0  0  0  0  0  0
  148.8557  138.3162  158.7154 O   0  0  0  0  0  0  0  0  0  0  0  0
  150.8530  137.0920  159.7272 O   0  0  0  0  0  0  0  0  0  0  0  0
  149.4988  135.9854  157.8228 N   0  0  0  0  0  0  0  0  0  0  0  0
  148.3453  135.9193  156.9206 C   0  0  0  0  0  0  0  0  0  0  0  0
  148.7405  135.4417  155.5089 C   0  0  0  0  0  0  0  0  0  0  0  0
  149.8933  136.2498  154.9057 C   0  0  0  0  0  0  0  0  0  0  0  0
  151.0091  135.7426  154.7899 O   0  0  0  0  0  0  0  0  0  0  0  0
  149.6111  137.5103  154.5406 N   0  0  0  0  0  0  0  0  0  0  0  0
  150.5790  138.4921  154.0616 C   0  0  0  0  0  0  0  0  0  0  0  0
  150.9768  139.4862  155.1400 C   0  0  0  0  0  0  0  0  0  0  0  0
  150.2155  140.6483  155.3731 C   0  0  0  0  0  0  0  0  0  0  0  0
  150.6087  141.5272  156.4008 C   0  0  0  0  0  0  0  0  0  0  0  0
  151.7564  141.2211  157.1707 C   0  0  0  0  0  0  0  0  0  0  0  0
  152.1602  142.0772  158.2174 N   0  0  0  0  0  0  0  0  0  0  0  0
  152.2989  141.4517  159.5300 C   0  0  0  0  0  0  0  0  0  0  0  0
  153.0292  142.3982  160.4986 C   0  0  0  0  0  0  0  0  0  0  0  0
  152.3565  143.6521  160.5488 O   0  0  0  0  0  0  0  0  0  0  0  0
  152.3375  144.2930  159.2780 C   0  0  0  0  0  0  0  0  0  0  0  0
  151.5758  143.4163  158.2703 C   0  0  0  0  0  0  0  0  0  0  0  0
  152.4891  140.1046  156.9380 N   0  0  0  0  0  0  0  0  0  0  0  0
  152.1116  139.2699  155.9483 C   0  0  0  0  0  0  0  0  0  0  0  0
  148.2810  136.8619  161.2576 H   0  0  0  0  0  0  0  0  0  0  0  0
  148.7599  135.2682  160.6379 H   0  0  0  0  0  0  0  0  0  0  0  0
  147.3814  136.1298  159.9133 H   0  0  0  0  0  0  0  0  0  0  0  0
  150.4062  135.9074  157.3627 H   0  0  0  0  0  0  0  0  0  0  0  0
  147.6021  135.2485  157.3519 H   0  0  0  0  0  0  0  0  0  0  0  0
  147.8788  136.9026  156.8568 H   0  0  0  0  0  0  0  0  0  0  0  0
  149.0313  134.3910  155.5415 H   0  0  0  0  0  0  0  0  0  0  0  0
  147.8728  135.4964  154.8497 H   0  0  0  0  0  0  0  0  0  0  0  0
  148.6610  137.8325  154.6573 H   0  0  0  0  0  0  0  0  0  0  0  0
  151.4757  138.0046  153.6758 H   0  0  0  0  0  0  0  0  0  0  0  0
  150.1343  139.0226  153.2192 H   0  0  0  0  0  0  0  0  0  0  0  0
  149.3358  140.8614  154.7838 H   0  0  0  0  0  0  0  0  0  0  0  0
  150.0175  142.4088  156.5990 H   0  0  0  0  0  0  0  0  0  0  0  0
  151.3053  141.2192  159.9150 H   0  0  0  0  0  0  0  0  0  0  0  0
  152.8449  140.5112  159.4734 H   0  0  0  0  0  0  0  0  0  0  0  0
  153.0506  141.9670  161.4996 H   0  0  0  0  0  0  0  0  0  0  0  0
  154.0665  142.5420  160.1923 H   0  0  0  0  0  0  0  0  0  0  0  0
  151.8500  145.2629  159.3759 H   0  0  0  0  0  0  0  0  0  0  0  0
  153.3569  144.4820  158.9377 H   0  0  0  0  0  0  0  0  0  0  0  0
  151.6117  143.8837  157.2855 H   0  0  0  0  0  0  0  0  0  0  0  0
  150.5266  143.3417  158.5589 H   0  0  0  0  0  0  0  0  0  0  0  0
  152.7341  138.3996  155.8062 H   0  0  0  0  0  0  0  0  0  0  0  0
  1  2  1  0  0  0  0
  1 24  1  0  0  0  0
  1 25  1  0  0  0  0
  1 26  1  0  0  0  0
  2  3  2  0  0  0  0
  2  4  2  0  0  0  0
  2  5  1  0  0  0  0
  5  6  1  0  0  0  0
  5 27  1  0  0  0  0
  6  7  1  0  0  0  0
  6 28  1  0  0  0  0
  6 29  1  0  0  0  0
  7  8  1  0  0  0  0
  7 30  1  0  0  0  0
  7 31  1  0  0  0  0
  8  9  2  0  0  0  0
  8 10  1  0  0  0  0
 10 11  1  0  0  0  0
 10 32  1  0  0  0  0
 11 12  1  0  0  0  0
 11 33  1  0  0  0  0
 11 34  1  0  0  0  0
 12 23  1  0  0  0  0
 12 13  2  0  0  0  0
 13 14  1  0  0  0  0
 13 35  1  0  0  0  0
 14 15  2  0  0  0  0
 14 36  1  0  0  0  0
 15 16  1  0  0  0  0
 15 22  1  0  0  0  0
 16 21  1  0  0  0  0
 16 17  1  0  0  0  0
 17 18  1  0  0  0  0
 17 37  1  0  0  0  0
 17 38  1  0  0  0  0
 18 19  1  0  0  0  0
 18 39  1  0  0  0  0
 18 40  1  0  0  0  0
 19 20  1  0  0  0  0
 20 21  1  0  0  0  0
 20 41  1  0  0  0  0
 20 42  1  0  0  0  0
 21 43  1  0  0  0  0
 21 44  1  0  0  0  0
 22 23  2  0  0  0  0
 23 45  1  0  0  0  0
M  END
> <s_m_source_file>
AV-unprocessed.smi

> <i_m_source_file_index>
1845

> <i_lp_mmshare_version>
43012

> <i_f3d_flags>
0

> <s_epik_input>
W0NIM11TKD1PKSg9TylbTkhdW0NIMl1bQ0gyXUMoPU8pW05IXVtDSDJdYzFbY0hdW2NIXWMobltjSF0xKU4yW0NIMl1bQ0gyXU9bQ0gyXVtDSDJdMg==

> <s_epik_cmdline>
J2VwaWtfcHl0aG9uJywgJy1waCcsICc3LjAnLCAnLXRuJywgJzgnLCAnLW1hJywgJzIwMCcsICctbWV0YWxfYmluZGluZycsICctaW1hZScsICc8aW5maWxlLm1hZT4nLCAnLW9tYWUnLCAnPG91dGZpbGUubWFlPic=

> <r_lp_tautomer_probability>
1

> <r_epik_Ionization_Penalty>
0.00479915

> <r_epik_Ionization_Penalty_Charging>
0

> <r_epik_Ionization_Penalty_Neutral>
0.00479915

> <r_epik_State_Penalty>
0.00346804

> <r_epik_Charging_Adjusted_Penalty>
0.00346804

> <i_epik_Tot_Q>
0

> <i_epik_Tot_abs_Q>
0

> <r_epik_Metal_State_Penalty>
0.0135183

> <b_epik_Metal_Only>
0

> <s_lp_Force_Field>
OPLS_2005

> <r_lp_Energy>
4.60417

> <b_lp_Chiralities_Consistent>
1

> <s_lp_Variant>
AV-unprocessed.smi:1845-1

> <Gold.Version>
5.8.1

> <Gold.Id.Protein>
6NUR|6NUR_protein|mol2

> <Gold.PLP.Fitness>
47.6578

> <Gold.PLP.PLP>
-40.7158

> <Gold.PLP.part.hbond>
-4.8443

> <Gold.PLP.part.metal>
0.0000

> <Gold.PLP.part.buried>
-4.2223

> <Gold.PLP.part.nonpolar>
-31.4800

> <Gold.PLP.part.repulsive>
0.2250

> <Gold.PLP.ligand.clash>
0.0000

> <Gold.PLP.ligand.torsion>
1.2633

> <Gold.PLP.Chemscore.Hbond>
2.9913

> <Gold.PLP.Chemscore.CHOScore>
0.0000

> <Gold.PLP.Chemscore.Metal>
0.0000

> <Gold.Chemscore.Hbonds>
donor molecule, donor type, donor heavy atom, donor atom, acceptor molecule, acceptor atom, score
      P1  H  6896  6907       L1     4  1.00
      P1  H  7997  8010       L1    22  1.00
      P1  H 10752 10765       L1     9  1.00

> <Gold.PLP.Chemscore.Internal.Correction>
0.4949

> <Gold.Rescore>
     Score         DG    S(hbond)    S(metal)    S(lipo)     H(rot)  DE(clash)    DE(int)     intcor
     15.33     -16.44       2.40        0.00      88.81       2.90       0.02       1.09       ----

> <Gold.Chemscore.Fitness>
15.3349

> <Gold.Chemscore.DG>
-16.4431

> <Gold.Chemscore.ZeroCoef>
-5.4800

> <Gold.Chemscore.Hbond>
2.3954

> <Gold.Chemscore.Metal>
0.0000

> <Gold.Chemscore.Lipo>
88.8069

> <Gold.Chemscore.Internal_Hbond>
0.0000

> <Gold.Chemscore.DEClash>
0.0187

> <Gold.Chemscore.DEInternal>
1.0895

> <Gold.Chemscore.Rot>
2.9015

> <Gold.Chemscore.Internal.Correction>
   9.000000E+99

> <Gold.Chemscore.Hbonds>
donor molecule, donor type, donor heavy atom, donor atom, acceptor molecule, acceptor atom, score
      P1  H  6896  6907       L1     4  0.38
      P1  H  7997  8010       L1    22  0.29
      P1  H 10752 10765       L1     9  0.99

> <Gold.Chemscore.Hbond.Weighted>
-8.0006

> <Gold.Chemscore.Metal.Weighted>
-0.0000

> <Gold.Chemscore.Lipo.Weighted>
-10.3904

> <Gold.Chemscore.Internal_Hbond.Weighted>
0.0000

> <Gold.Chemscore.DEClash.Weighted>
0.0187

> <Gold.Chemscore.DEInternal.Weighted>
1.0895

> <Gold.Chemscore.Rot.Weighted>
7.4278

> <Gold.Chemscore.Internal.Correction.Weighted>
   9.000000E+99

> <Gold.Protein.RotatedTorsions>
[ 6907 6896 6895 6894 ] final  -17.10 input  -60.11 | X-H torsion
[ 7974 7965 7964 7962 ] final   67.73 input  175.53 | X-H torsion
[ 8008 7997 7996 7995 ] final   55.63 input   59.86 | X-H torsion
[ 10167 10162 10161 10158 ] final -109.81 input  -65.29 | X-H torsion
[ 10718 10713 10712 10709 ] final  -68.88 input   66.30 | X-H torsion
[ 10763 10752 10751 10750 ] final  174.42 input  -60.55 | X-H torsion
[ 11005 11000 10999 10996 ] final  132.04 input  -57.11 | X-H torsion

> <Gold.Protein.ActiveResidues>
 VAL166  LYS551  ARG553  GLY616  TRP617  ASP618  TYR619  PRO620  LYS621  CYS622 
 ASP623  PHE694  ASN695  SER759  ASP760  ASP761  ALA762  ILE779  LEU786  VAL792 
 PHE793  MET794  SER795  GLU796  ALA797  LYS798  CYS799  TRP800  GLU811  SER814 

> <Gold.Protein.RotatedAtoms>
  151.2984  135.0762  159.9229 H   0  0  0  0  0  0  0  0  0  0  0  0  # atno 6907 bound_to 6896
  152.5302  133.9859  159.7838 H   0  0  0  0  0  0  0  0  0  0  0  0  # atno 6908 bound_to 6896
  151.0141  133.5886  159.2709 H   0  0  0  0  0  0  0  0  0  0  0  0  # atno 6909 bound_to 6896
  145.8111  139.3033  143.1098 H   0  0  0  0  0  0  0  0  0  0  0  0  # atno 7974 bound_to 7965
  155.5043  140.3475  155.4376 H   0  0  0  0  0  0  0  0  0  0  0  0  # atno 8008 bound_to 7997
  156.0893  140.1406  156.9641 H   0  0  0  0  0  0  0  0  0  0  0  0  # atno 8009 bound_to 7997
  154.4625  140.0929  156.6909 H   0  0  0  0  0  0  0  0  0  0  0  0  # atno 8010 bound_to 7997
  140.1513  143.4197  152.1493 H   0  0  0  0  0  0  0  0  0  0  0  0  # atno 10167 bound_to 10162
  156.0483  130.4302  150.2066 H   0  0  0  0  0  0  0  0  0  0  0  0  # atno 10718 bound_to 10713
  154.4536  135.2765  155.1763 H   0  0  0  0  0  0  0  0  0  0  0  0  # atno 10763 bound_to 10752
  154.3580  135.6135  153.5679 H   0  0  0  0  0  0  0  0  0  0  0  0  # atno 10764 bound_to 10752
  152.9849  135.5827  154.4886 H   0  0  0  0  0  0  0  0  0  0  0  0  # atno 10765 bound_to 10752
  139.9766  134.9561  156.9525 H   0  0  0  0  0  0  0  0  0  0  0  0  # atno 11005 bound_to 11000
  145.9776  140.8709  143.0131 LP  0  0  0  0  0  0  0  0  0  0  0  0  # atno 17320 bound_to 7965
  144.6757  140.2034  143.7384 LP  0  0  0  0  0  0  0  0  0  0  0  0  # atno 17321 bound_to 7965
  139.5424  144.7269  151.4690 LP  0  0  0  0  0  0  0  0  0  0  0  0  # atno 17342 bound_to 10162
  140.6701  143.8313  150.6988 LP  0  0  0  0  0  0  0  0  0  0  0  0  # atno 17343 bound_to 10162
  157.0153  130.9963  151.3355 LP  0  0  0  0  0  0  0  0  0  0  0  0  # atno 17370 bound_to 10713
  157.5382  130.8102  149.7997 LP  0  0  0  0  0  0  0  0  0  0  0  0  # atno 17371 bound_to 10713
  140.5182  134.0934  155.7286 LP  0  0  0  0  0  0  0  0  0  0  0  0  # atno 17394 bound_to 11000
  141.1442  133.9084  157.2254 LP  0  0  0  0  0  0  0  0  0  0  0  0  # atno 17395 bound_to 11000

$$$$
