AV-unprocessed.smi:2928|AV-procd|sdf|11233|dock2
  -GOLD-   2272016123D 1   1.00000     0.00000
 Structure written by MMmdl.
 55 58  0  0  0  0  0  0  0  0  2 V2000
  150.0596  140.8399  156.5767 C   0  0  0  0  0  0  0  0  0  0  0  0
  150.1283  139.4712  156.0114 N   0  3  2  0  0  0  0  0  0  0  0  0
  150.2767  138.3890  157.0149 C   0  0  2  0  0  0  0  0  0  0  0  0
  151.6828  138.4134  157.6666 C   0  0  0  0  0  0  0  0  0  0  0  0
  152.8433  138.4329  156.6534 C   0  0  0  0  0  0  0  0  0  0  0  0
  152.5692  139.3692  155.4611 C   0  0  0  0  0  0  0  0  0  0  0  0
  151.1183  139.2949  154.9211 C   0  0  1  0  0  0  0  0  0  0  0  0
  150.7816  138.0008  154.1445 C   0  0  0  0  0  0  0  0  0  0  0  0
  150.6285  136.7394  155.0333 C   0  0  2  0  0  0  0  0  0  0  0  0
  149.9028  135.6951  154.3134 N   0  0  0  0  0  0  0  0  0  0  0  0
  149.9279  134.3880  154.6120 C   0  0  0  0  0  0  0  0  0  0  0  0
  150.6060  133.9123  155.5223 O   0  0  0  0  0  0  0  0  0  0  0  0
  149.1384  133.6864  153.7818 N   0  0  0  0  0  0  0  0  0  0  0  0
  148.9027  132.2820  153.7575 C   0  0  0  0  0  0  0  0  0  0  0  0
  149.8010  131.3624  154.3532 C   0  0  0  0  0  0  0  0  0  0  0  0
  149.4836  129.9933  154.3599 C   0  0  0  0  0  0  0  0  0  0  0  0
  148.2677  129.5901  153.7841 C   0  0  0  0  0  0  0  0  0  0  0  0
  147.3954  130.4528  153.2260 N   0  0  0  0  0  0  0  0  0  0  0  0
  147.6943  131.7750  153.1993 C   0  0  0  0  0  0  0  0  0  0  0  0
  146.7513  132.6323  152.5880 N   0  0  0  0  0  0  0  0  0  0  0  0
  147.2125  133.4693  151.4839 C   0  0  0  0  0  0  0  0  0  0  0  0
  146.0460  133.5653  150.4937 C   0  0  0  0  0  0  0  0  0  0  0  0
  144.8265  133.1867  151.3289 C   0  0  0  0  0  0  0  0  0  0  0  0
  145.4034  132.1572  152.2957 C   0  0  0  0  0  0  0  0  0  0  0  0
  149.8893  137.0434  156.3587 C   0  0  0  0  0  0  0  0  0  0  0  0
  150.9833  141.1293  157.0768 H   0  0  0  0  0  0  0  0  0  0  0  0
  149.2478  140.9106  157.3011 H   0  0  0  0  0  0  0  0  0  0  0  0
  149.8611  141.5667  155.7885 H   0  0  0  0  0  0  0  0  0  0  0  0
  149.5489  138.5676  157.8078 H   0  0  0  0  0  0  0  0  0  0  0  0
  151.7624  139.2992  158.2972 H   0  0  0  0  0  0  0  0  0  0  0  0
  151.7979  137.5663  158.3437 H   0  0  0  0  0  0  0  0  0  0  0  0
  153.7593  138.7443  157.1566 H   0  0  0  0  0  0  0  0  0  0  0  0
  153.0575  137.4268  156.3029 H   0  0  0  0  0  0  0  0  0  0  0  0
  152.7754  140.3932  155.7734 H   0  0  0  0  0  0  0  0  0  0  0  0
  153.2798  139.1636  154.6598 H   0  0  0  0  0  0  0  0  0  0  0  0
  150.9912  140.1195  154.2181 H   0  0  0  0  0  0  0  0  0  0  0  0
  149.8408  138.1701  153.6175 H   0  0  0  0  0  0  0  0  0  0  0  0
  151.5266  137.8262  153.3672 H   0  0  0  0  0  0  0  0  0  0  0  0
  151.6116  136.3384  155.2680 H   0  0  0  0  0  0  0  0  0  0  0  0
  149.3205  135.9923  153.5441 H   0  0  0  0  0  0  0  0  0  0  0  0
  148.7172  134.2038  153.0241 H   0  0  0  0  0  0  0  0  0  0  0  0
  150.7160  131.6837  154.8265 H   0  0  0  0  0  0  0  0  0  0  0  0
  150.1502  129.2715  154.8082 H   0  0  0  0  0  0  0  0  0  0  0  0
  147.9842  128.5480  153.7764 H   0  0  0  0  0  0  0  0  0  0  0  0
  147.4553  134.4600  151.8684 H   0  0  0  0  0  0  0  0  0  0  0  0
  148.1061  133.0631  151.0073 H   0  0  0  0  0  0  0  0  0  0  0  0
  145.9586  134.5507  150.0357 H   0  0  0  0  0  0  0  0  0  0  0  0
  146.1821  132.8345  149.6954 H   0  0  0  0  0  0  0  0  0  0  0  0
  144.4663  134.0567  151.8796 H   0  0  0  0  0  0  0  0  0  0  0  0
  144.0022  132.7955  150.7321 H   0  0  0  0  0  0  0  0  0  0  0  0
  145.4331  131.1814  151.8091 H   0  0  0  0  0  0  0  0  0  0  0  0
  144.8051  132.0710  153.2031 H   0  0  0  0  0  0  0  0  0  0  0  0
  150.0331  136.2237  157.0636 H   0  0  0  0  0  0  0  0  0  0  0  0
  148.8167  137.0760  156.1591 H   0  0  0  0  0  0  0  0  0  0  0  0
  149.2240  139.3265  155.5850 H   0  0  0  0  0  0  0  0  0  0  0  0
  1  2  1  0  0  0  0
  1 26  1  0  0  0  0
  1 27  1  0  0  0  0
  1 28  1  0  0  0  0
  2  7  1  0  0  0  0
  2  3  1  0  0  0  0
  2 55  1  0  0  0  0
  3 25  1  0  0  0  0
  3  4  1  0  0  0  0
  3 29  1  0  0  0  0
  4  5  1  0  0  0  0
  4 30  1  0  0  0  0
  4 31  1  0  0  0  0
  5  6  1  0  0  0  0
  5 32  1  0  0  0  0
  5 33  1  0  0  0  0
  6  7  1  0  0  0  0
  6 34  1  0  0  0  0
  6 35  1  0  0  0  0
  7  8  1  0  0  0  0
  7 36  1  0  0  0  0
  8  9  1  0  0  0  0
  8 37  1  0  0  0  0
  8 38  1  0  0  0  0
  9 10  1  0  0  0  0
  9 25  1  0  0  0  0
  9 39  1  0  0  0  0
 10 11  1  0  0  0  0
 10 40  1  0  0  0  0
 11 12  2  0  0  0  0
 11 13  1  0  0  0  0
 13 14  1  0  0  0  0
 13 41  1  0  0  0  0
 14 19  1  0  0  0  0
 14 15  2  0  0  0  0
 15 16  1  0  0  0  0
 15 42  1  0  0  0  0
 16 17  2  0  0  0  0
 16 43  1  0  0  0  0
 17 18  1  0  0  0  0
 17 44  1  0  0  0  0
 18 19  2  0  0  0  0
 19 20  1  0  0  0  0
 20 24  1  0  0  0  0
 20 21  1  0  0  0  0
 21 22  1  0  0  0  0
 21 45  1  0  0  0  0
 21 46  1  0  0  0  0
 22 23  1  0  0  0  0
 22 47  1  0  0  0  0
 22 48  1  0  0  0  0
 23 24  1  0  0  0  0
 23 49  1  0  0  0  0
 23 50  1  0  0  0  0
 24 51  1  0  0  0  0
 24 52  1  0  0  0  0
 25 53  1  0  0  0  0
 25 54  1  0  0  0  0
M  CHG  1   2   1
M  END
> <s_m_source_file>
AV-unprocessed.smi

> <i_m_source_file_index>
2928

> <i_lp_mmshare_version>
43012

> <i_f3d_flags>
0

> <s_epik_input>
W0NIMl0xW0NIMl1bQ0gyXVtDQEhdKE4oW0NIM10pW0NIXTEyKVtDSDJdW0NASF0oW0NIMl0yKVtOSF1DKD1PKVtOSF1jM1tjSF1bY0hdW2NIXW5jM040W0NIMl1bQ0gyXVtDSDJdW0NIMl00

> <s_epik_cmdline>
J2VwaWtfcHl0aG9uJywgJy1waCcsICc3LjAnLCAnLXRuJywgJzgnLCAnLW1hJywgJzIwMCcsICctbWV0YWxfYmluZGluZycsICctaW1hZScsICc8aW5maWxlLm1hZT4nLCAnLW9tYWUnLCAnPG91dGZpbGUubWFlPic=

> <r_lp_tautomer_probability>
1

> <r_epik_Ionization_Penalty>
0.07954

> <r_epik_Ionization_Penalty_Charging>
0.00089841

> <r_epik_Ionization_Penalty_Neutral>
0.0786416

> <r_epik_State_Penalty>
0.0689917

> <r_epik_Charging_Adjusted_Penalty>
0.0698901

> <i_epik_Tot_Q>
1

> <i_epik_Tot_abs_Q>
1

> <r_epik_Metal_State_Penalty>
0.0608947

> <b_epik_Metal_Only>
0

> <s_lp_Force_Field>
OPLS_2005

> <r_lp_Energy>
63.7088

> <b_lp_Chiralities_Consistent>
1

> <s_lp_Variant>
AV-unprocessed.smi:2928-3

> <Gold.Version>
5.8.1

> <Gold.Id.Protein>
6NUR|6NUR_protein|mol2

> <Gold.PLP.Fitness>
39.1671

> <Gold.PLP.PLP>
-36.3869

> <Gold.PLP.part.hbond>
-2.3855

> <Gold.PLP.part.metal>
0.0000

> <Gold.PLP.part.buried>
-1.5888

> <Gold.PLP.part.nonpolar>
-31.7739

> <Gold.PLP.part.repulsive>
0.3649

> <Gold.PLP.ligand.clash>
0.0000

> <Gold.PLP.ligand.torsion>
0.5408

> <Gold.PLP.Chemscore.Hbond>
1.1873

> <Gold.PLP.Chemscore.CHOScore>
0.0000

> <Gold.PLP.Chemscore.Metal>
0.0000

> <Gold.Chemscore.Hbonds>
donor molecule, donor type, donor heavy atom, donor atom, acceptor molecule, acceptor atom, score
      L1  H    10    40       P1  7948  1.00
      L1  H    13    41       P1  7948  0.17

> <Gold.PLP.Chemscore.Internal.Correction>
0.3000

> <Gold.Rescore>
     Score         DG    S(hbond)    S(metal)    S(lipo)     H(rot)  DE(clash)    DE(int)     intcor
     13.30     -16.24       0.75        0.00      96.38       1.18       0.23       2.71       ----

> <Gold.Chemscore.Fitness>
13.2991

> <Gold.Chemscore.DG>
-16.2395

> <Gold.Chemscore.ZeroCoef>
-5.4800

> <Gold.Chemscore.Hbond>
0.7478

> <Gold.Chemscore.Metal>
0.0000

> <Gold.Chemscore.Lipo>
96.3817

> <Gold.Chemscore.Internal_Hbond>
0.0000

> <Gold.Chemscore.DEClash>
0.2290

> <Gold.Chemscore.DEInternal>
2.7114

> <Gold.Chemscore.Rot>
1.1776

> <Gold.Chemscore.Internal.Correction>
   9.000000E+99

> <Gold.Chemscore.Hbonds>
donor molecule, donor type, donor heavy atom, donor atom, acceptor molecule, acceptor atom, score
      L1  H    10    40       P1  7948  0.67
      L1  H    13    41       P1  7948  0.02

> <Gold.Chemscore.Hbond.Weighted>
-2.4976

> <Gold.Chemscore.Metal.Weighted>
-0.0000

> <Gold.Chemscore.Lipo.Weighted>
-11.2767

> <Gold.Chemscore.Internal_Hbond.Weighted>
0.0000

> <Gold.Chemscore.DEClash.Weighted>
0.2290

> <Gold.Chemscore.DEInternal.Weighted>
2.7114

> <Gold.Chemscore.Rot.Weighted>
3.0147

> <Gold.Chemscore.Internal.Correction.Weighted>
   9.000000E+99

> <Gold.Protein.RotatedTorsions>
[ 6907 6896 6895 6894 ] final -151.96 input  -60.11 | X-H torsion
[ 7974 7965 7964 7962 ] final  -28.63 input  175.53 | X-H torsion
[ 8008 7997 7996 7995 ] final  163.90 input   59.86 | X-H torsion
[ 10167 10162 10161 10158 ] final  -30.33 input  -65.29 | X-H torsion
[ 10718 10713 10712 10709 ] final    7.20 input   66.30 | X-H torsion
[ 10763 10752 10751 10750 ] final  122.93 input  -60.55 | X-H torsion
[ 11005 11000 10999 10996 ] final -162.20 input  -57.11 | X-H torsion

> <Gold.Protein.ActiveResidues>
 VAL166  LYS551  ARG553  GLY616  TRP617  ASP618  TYR619  PRO620  LYS621  CYS622 
 ASP623  PHE694  ASN695  SER759  ASP760  ASP761  ALA762  ILE779  LEU786  VAL792 
 PHE793  MET794  SER795  GLU796  ALA797  LYS798  CYS799  TRP800  GLU811  SER814 

> <Gold.Protein.RotatedAtoms>
  151.2208  133.4504  159.2600 H   0  0  0  0  0  0  0  0  0  0  0  0  # atno 6907 bound_to 6896
  151.0887  134.9903  159.8402 H   0  0  0  0  0  0  0  0  0  0  0  0  # atno 6908 bound_to 6896
  152.5432  134.2142  159.8815 H   0  0  0  0  0  0  0  0  0  0  0  0  # atno 6909 bound_to 6896
  146.1274  140.5308  142.8708 H   0  0  0  0  0  0  0  0  0  0  0  0  # atno 7974 bound_to 7965
  156.1922  140.1711  156.8070 H   0  0  0  0  0  0  0  0  0  0  0  0  # atno 8008 bound_to 7997
  154.5485  140.0722  156.8660 H   0  0  0  0  0  0  0  0  0  0  0  0  # atno 8009 bound_to 7997
  155.3075  140.3365  155.4247 H   0  0  0  0  0  0  0  0  0  0  0  0  # atno 8010 bound_to 7997
  140.7250  143.3857  151.1519 H   0  0  0  0  0  0  0  0  0  0  0  0  # atno 10167 bound_to 10162
  156.9334  130.5834  149.5650 H   0  0  0  0  0  0  0  0  0  0  0  0  # atno 10718 bound_to 10713
  153.6375  135.3385  155.3061 H   0  0  0  0  0  0  0  0  0  0  0  0  # atno 10763 bound_to 10752
  154.8567  135.4310  154.2040 H   0  0  0  0  0  0  0  0  0  0  0  0  # atno 10764 bound_to 10752
  153.2950  135.7020  153.7330 H   0  0  0  0  0  0  0  0  0  0  0  0  # atno 10765 bound_to 10752
  140.6120  134.4840  157.5216 H   0  0  0  0  0  0  0  0  0  0  0  0  # atno 11005 bound_to 11000
  144.7656  140.5522  143.6705 LP  0  0  0  0  0  0  0  0  0  0  0  0  # atno 17320 bound_to 7965
  145.5335  139.1475  143.3486 LP  0  0  0  0  0  0  0  0  0  0  0  0  # atno 17321 bound_to 7965
  139.7454  143.8860  152.3062 LP  0  0  0  0  0  0  0  0  0  0  0  0  # atno 17342 bound_to 10162
  139.8696  144.7075  150.9003 LP  0  0  0  0  0  0  0  0  0  0  0  0  # atno 17343 bound_to 10162
  156.0437  130.5516  150.8831 LP  0  0  0  0  0  0  0  0  0  0  0  0  # atno 17370 bound_to 10713
  157.5832  131.0946  150.9238 LP  0  0  0  0  0  0  0  0  0  0  0  0  # atno 17371 bound_to 10713
  139.9188  134.8190  156.1277 LP  0  0  0  0  0  0  0  0  0  0  0  0  # atno 17394 bound_to 11000
  141.0802  133.6758  156.2319 LP  0  0  0  0  0  0  0  0  0  0  0  0  # atno 17395 bound_to 11000

$$$$
