AV-unprocessed.smi:3056|AV-procd|sdf|11654|dock9
  -GOLD-   2272017 53D 1   1.00000     0.00000
 Structure written by MMmdl.
 47 48  0  0  0  0  0  0  0  0  1 V2000
  151.0255  136.1109  155.5862 C   0  0  0  0  0  0  0  0  0  0  0  0
  150.5865  137.4318  155.0229 C   0  0  0  0  0  0  0  0  0  0  0  0
  151.4054  138.5262  154.6265 C   0  0  0  0  0  0  0  0  0  0  0  0
  150.7074  139.5493  154.1628 N   0  0  0  0  0  0  0  0  0  0  0  0
  149.4181  139.1508  154.2513 N   0  0  0  0  0  0  0  0  0  0  0  0
  148.3402  140.0255  153.7979 C   0  0  1  0  0  0  0  0  0  0  0  0
  147.0077  139.2514  153.7773 C   0  0  0  0  0  0  0  0  0  0  0  0
  148.2801  141.3259  154.6444 C   0  0  2  0  0  0  0  0  0  0  0  0
  147.2050  142.3169  154.1581 C   0  0  0  0  0  0  0  0  0  0  0  0
  149.5785  141.9912  154.5635 N   0  0  0  0  0  0  0  0  0  0  0  0
  149.9545  142.6661  155.8134 C   0  0  0  0  0  0  0  0  0  0  0  0
  150.7701  141.7682  156.7589 C   0  0  0  0  0  0  0  0  0  0  0  0
  151.1562  140.6687  156.3567 O   0  0  0  0  0  0  0  0  0  0  0  0
  151.0397  142.2114  158.0102 N   0  0  0  0  0  0  0  0  0  0  0  0
  150.6755  143.5484  158.4854 C   0  0  0  0  0  0  0  0  0  0  0  0
  151.9749  144.3334  158.7381 C   0  0  0  0  0  0  0  0  0  0  0  0
  152.7874  143.6311  159.6772 O   0  0  0  0  0  0  0  0  0  0  0  0
  153.1277  142.3090  159.2597 C   0  0  1  0  0  0  0  0  0  0  0  0
  154.0124  141.6773  160.3397 C   0  0  0  0  0  0  0  0  0  0  0  0
  151.8306  141.5089  159.0249 C   0  0  0  0  0  0  0  0  0  0  0  0
  149.3201  137.8736  154.7633 C   0  0  0  0  0  0  0  0  0  0  0  0
  151.4986  136.2276  156.5612 H   0  0  0  0  0  0  0  0  0  0  0  0
  151.7463  135.6161  154.9352 H   0  0  0  0  0  0  0  0  0  0  0  0
  150.1874  135.4256  155.7157 H   0  0  0  0  0  0  0  0  0  0  0  0
  152.4819  138.6053  154.6597 H   0  0  0  0  0  0  0  0  0  0  0  0
  148.5674  140.2983  152.7659 H   0  0  0  0  0  0  0  0  0  0  0  0
  146.2248  139.8132  153.2690 H   0  0  0  0  0  0  0  0  0  0  0  0
  146.6574  139.0290  154.7856 H   0  0  0  0  0  0  0  0  0  0  0  0
  147.1149  138.3050  153.2459 H   0  0  0  0  0  0  0  0  0  0  0  0
  148.0655  141.0499  155.6784 H   0  0  0  0  0  0  0  0  0  0  0  0
  146.2026  141.9043  154.2686 H   0  0  0  0  0  0  0  0  0  0  0  0
  147.3459  142.5727  153.1074 H   0  0  0  0  0  0  0  0  0  0  0  0
  147.2230  143.2449  154.7295 H   0  0  0  0  0  0  0  0  0  0  0  0
  149.5924  142.6215  153.7743 H   0  0  0  0  0  0  0  0  0  0  0  0
  150.5354  143.5611  155.5896 H   0  0  0  0  0  0  0  0  0  0  0  0
  149.0437  142.9749  156.3287 H   0  0  0  0  0  0  0  0  0  0  0  0
  150.0441  144.0941  157.7833 H   0  0  0  0  0  0  0  0  0  0  0  0
  150.0994  143.4634  159.4080 H   0  0  0  0  0  0  0  0  0  0  0  0
  152.5257  144.4812  157.8078 H   0  0  0  0  0  0  0  0  0  0  0  0
  151.7490  145.3226  159.1363 H   0  0  0  0  0  0  0  0  0  0  0  0
  153.6979  142.3653  158.3305 H   0  0  0  0  0  0  0  0  0  0  0  0
  154.3116  140.6668  160.0600 H   0  0  0  0  0  0  0  0  0  0  0  0
  153.4899  141.6203  161.2949 H   0  0  0  0  0  0  0  0  0  0  0  0
  154.9201  142.2620  160.4904 H   0  0  0  0  0  0  0  0  0  0  0  0
  151.2537  141.4495  159.9490 H   0  0  0  0  0  0  0  0  0  0  0  0
  152.0666  140.4790  158.7616 H   0  0  0  0  0  0  0  0  0  0  0  0
  148.3651  137.3867  154.8953 H   0  0  0  0  0  0  0  0  0  0  0  0
  1  2  1  0  0  0  0
  1 22  1  0  0  0  0
  1 23  1  0  0  0  0
  1 24  1  0  0  0  0
  2 21  2  0  0  0  0
  2  3  1  0  0  0  0
  3  4  2  0  0  0  0
  3 25  1  0  0  0  0
  4  5  1  0  0  0  0
  5  6  1  0  0  0  0
  5 21  1  0  0  0  0
  6  7  1  0  0  0  0
  6  8  1  0  0  0  0
  6 26  1  0  0  0  0
  7 27  1  0  0  0  0
  7 28  1  0  0  0  0
  7 29  1  0  0  0  0
  8  9  1  0  0  0  0
  8 10  1  0  0  0  0
  8 30  1  0  0  0  0
  9 31  1  0  0  0  0
  9 32  1  0  0  0  0
  9 33  1  0  0  0  0
 10 11  1  0  0  0  0
 10 34  1  0  0  0  0
 11 12  1  0  0  0  0
 11 35  1  0  0  0  0
 11 36  1  0  0  0  0
 12 13  2  0  0  0  0
 12 14  1  0  0  0  0
 14 20  1  0  0  0  0
 14 15  1  0  0  0  0
 15 16  1  0  0  0  0
 15 37  1  0  0  0  0
 15 38  1  0  0  0  0
 16 17  1  0  0  0  0
 16 39  1  0  0  0  0
 16 40  1  0  0  0  0
 17 18  1  0  0  0  0
 18 19  1  0  0  0  0
 18 20  1  0  0  0  0
 18 41  1  0  0  0  0
 19 42  1  0  0  0  0
 19 43  1  0  0  0  0
 19 44  1  0  0  0  0
 20 45  1  0  0  0  0
 20 46  1  0  0  0  0
 21 47  1  0  0  0  0
M  END
> <s_m_source_file>
AV-unprocessed.smi

> <i_m_source_file_index>
3056

> <i_lp_mmshare_version>
43012

> <i_f3d_flags>
0

> <s_epik_input>
W0NIM11jMVtjSF1ubihbY0hdMSlbQ0BIXShbQ0gzXSlbQ0BIXShbQ0gzXSlbTkhdW0NIMl1DKD1PKU4yW0NIMl1bQ0gyXU9bQ0BASF0oW0NIM10pW0NIMl0y

> <s_epik_cmdline>
J2VwaWtfcHl0aG9uJywgJy1waCcsICc3LjAnLCAnLXRuJywgJzgnLCAnLW1hJywgJzIwMCcsICctbWV0YWxfYmluZGluZycsICctaW1hZScsICc8aW5maWxlLm1hZT4nLCAnLW9tYWUnLCAnPG91dGZpbGUubWFlPic=

> <r_lp_tautomer_probability>
1

> <r_epik_Ionization_Penalty>
0.667689

> <r_epik_Ionization_Penalty_Charging>
0

> <r_epik_Ionization_Penalty_Neutral>
0.667689

> <r_epik_State_Penalty>
0.684601

> <r_epik_Charging_Adjusted_Penalty>
0.684601

> <i_epik_Tot_Q>
0

> <i_epik_Tot_abs_Q>
0

> <r_epik_Metal_State_Penalty>
0.681448

> <b_epik_Metal_Only>
0

> <s_lp_Force_Field>
OPLS_2005

> <r_lp_Energy>
29.4013

> <b_lp_Chiralities_Consistent>
1

> <s_lp_Variant>
AV-unprocessed.smi:3056-10

> <Gold.Version>
5.8.1

> <Gold.Id.Protein>
6NUR|6NUR_protein|mol2

> <Gold.PLP.Fitness>
41.3451

> <Gold.PLP.PLP>
-39.8409

> <Gold.PLP.part.hbond>
-3.9907

> <Gold.PLP.part.metal>
0.0000

> <Gold.PLP.part.buried>
2.9740

> <Gold.PLP.part.nonpolar>
-38.9396

> <Gold.PLP.part.repulsive>
0.1765

> <Gold.PLP.ligand.clash>
0.0000

> <Gold.PLP.ligand.torsion>
0.7992

> <Gold.PLP.Chemscore.Hbond>
1.0000

> <Gold.PLP.Chemscore.CHOScore>
0.0000

> <Gold.PLP.Chemscore.Metal>
0.0000

> <Gold.Chemscore.Hbonds>
donor molecule, donor type, donor heavy atom, donor atom, acceptor molecule, acceptor atom, score
      P1  H  7989  7998       L1     4  1.00

> <Gold.PLP.Chemscore.Internal.Correction>
0.1026

> <Gold.Rescore>
     Score         DG    S(hbond)    S(metal)    S(lipo)     H(rot)  DE(clash)    DE(int)     intcor
      9.60     -16.35       0.85        0.00     105.39       1.68       2.75       3.99       ----

> <Gold.Chemscore.Fitness>
9.5981

> <Gold.Chemscore.DG>
-16.3472

> <Gold.Chemscore.ZeroCoef>
-5.4800

> <Gold.Chemscore.Hbond>
0.8488

> <Gold.Chemscore.Metal>
0.0000

> <Gold.Chemscore.Lipo>
105.3946

> <Gold.Chemscore.Internal_Hbond>
0.0000

> <Gold.Chemscore.DEClash>
2.7543

> <Gold.Chemscore.DEInternal>
3.9949

> <Gold.Chemscore.Rot>
1.6793

> <Gold.Chemscore.Internal.Correction>
   9.000000E+99

> <Gold.Chemscore.Hbonds>
donor molecule, donor type, donor heavy atom, donor atom, acceptor molecule, acceptor atom, score
      P1  H  7989  7998       L1     4  0.93

> <Gold.Chemscore.Hbond.Weighted>
-2.8351

> <Gold.Chemscore.Metal.Weighted>
-0.0000

> <Gold.Chemscore.Lipo.Weighted>
-12.3312

> <Gold.Chemscore.Internal_Hbond.Weighted>
0.0000

> <Gold.Chemscore.DEClash.Weighted>
2.7543

> <Gold.Chemscore.DEInternal.Weighted>
3.9949

> <Gold.Chemscore.Rot.Weighted>
4.2990

> <Gold.Chemscore.Internal.Correction.Weighted>
   9.000000E+99

> <Gold.Protein.RotatedTorsions>
[ 6907 6896 6895 6894 ] final  -46.12 input  -60.11 | X-H torsion
[ 7974 7965 7964 7962 ] final -112.18 input  175.53 | X-H torsion
[ 8008 7997 7996 7995 ] final   16.41 input   59.86 | X-H torsion
[ 10167 10162 10161 10158 ] final  115.17 input  -65.29 | X-H torsion
[ 10718 10713 10712 10709 ] final -141.98 input   66.30 | X-H torsion
[ 10763 10752 10751 10750 ] final -118.58 input  -60.55 | X-H torsion
[ 11005 11000 10999 10996 ] final -115.29 input  -57.11 | X-H torsion

> <Gold.Protein.ActiveResidues>
 VAL166  LYS551  ARG553  GLY616  TRP617  ASP618  TYR619  PRO620  LYS621  CYS622 
 ASP623  PHE694  ASN695  SER759  ASP760  ASP761  ALA762  ILE779  LEU786  VAL792 
 PHE793  MET794  SER795  GLU796  ALA797  LYS798  CYS799  TRP800  GLU811  SER814 

> <Gold.Protein.RotatedAtoms>
  150.9147  134.8564  159.7448 H   0  0  0  0  0  0  0  0  0  0  0  0  # atno 6907 bound_to 6896
  152.4962  134.4307  159.9521 H   0  0  0  0  0  0  0  0  0  0  0  0  # atno 6908 bound_to 6896
  151.4347  133.3621  159.2808 H   0  0  0  0  0  0  0  0  0  0  0  0  # atno 6909 bound_to 6896
  145.1472  140.8809  143.3668 H   0  0  0  0  0  0  0  0  0  0  0  0  # atno 7974 bound_to 7965
  154.8766  140.2967  155.5450 H   0  0  0  0  0  0  0  0  0  0  0  0  # atno 8008 bound_to 7997
  156.3022  140.2450  156.3696 H   0  0  0  0  0  0  0  0  0  0  0  0  # atno 8009 bound_to 7997
  154.8761  140.0399  157.1743 H   0  0  0  0  0  0  0  0  0  0  0  0  # atno 8010 bound_to 7997
  139.6336  144.7117  151.2381 H   0  0  0  0  0  0  0  0  0  0  0  0  # atno 10167 bound_to 10162
  156.3404  130.7634  151.1769 H   0  0  0  0  0  0  0  0  0  0  0  0  # atno 10718 bound_to 10713
  154.8592  135.4269  154.2162 H   0  0  0  0  0  0  0  0  0  0  0  0  # atno 10763 bound_to 10752
  153.3177  135.6980  153.7064 H   0  0  0  0  0  0  0  0  0  0  0  0  # atno 10764 bound_to 10752
  153.6132  135.3515  155.2959 H   0  0  0  0  0  0  0  0  0  0  0  0  # atno 10765 bound_to 10752
  141.0497  133.9706  157.2857 H   0  0  0  0  0  0  0  0  0  0  0  0  # atno 11005 bound_to 11000
  145.0469  139.3213  143.5948 LP  0  0  0  0  0  0  0  0  0  0  0  0  # atno 17320 bound_to 7965
  146.3499  139.9864  142.8690 LP  0  0  0  0  0  0  0  0  0  0  0  0  # atno 17321 bound_to 7965
  140.7453  143.6436  150.8312 LP  0  0  0  0  0  0  0  0  0  0  0  0  # atno 17342 bound_to 10162
  140.0064  143.5689  152.2856 LP  0  0  0  0  0  0  0  0  0  0  0  0  # atno 17343 bound_to 10162
  157.7446  131.0456  150.4851 LP  0  0  0  0  0  0  0  0  0  0  0  0  # atno 17370 bound_to 10713
  156.5031  130.4121  149.6342 LP  0  0  0  0  0  0  0  0  0  0  0  0  # atno 17371 bound_to 10713
  139.9340  135.0198  156.8496 LP  0  0  0  0  0  0  0  0  0  0  0  0  # atno 17394 bound_to 11000
  140.6078  134.0111  155.7564 LP  0  0  0  0  0  0  0  0  0  0  0  0  # atno 17395 bound_to 11000

$$$$
