AV-unprocessed.smi:35|AV-procd|sdf|275|dock3
  -GOLD-   2262016 43D 1   1.00000     0.00000
 Structure written by MMmdl.
 28 29  0  0  0  0  0  0  0  0  2 V2000
  151.8902  136.9096  159.7647 O   0  0  0  0  0  0  0  0  0  0  0  0
  151.6579  137.5122  158.7182 C   0  0  0  0  0  0  0  0  0  0  0  0
  152.6404  137.9078  157.8579 N   0  5  0  0  0  0  0  0  0  0  0  0
  152.3772  138.5771  156.6971 C   0  0  0  0  0  0  0  0  0  0  0  0
  153.2544  138.9242  155.9059 O   0  0  0  0  0  0  0  0  0  0  0  0
  151.0281  138.8826  156.3679 N   0  0  0  0  0  0  0  0  0  0  0  0
  150.7425  139.6333  155.0799 C   0  0  2  0  0  0  0  0  0  0  0  0
  149.7693  140.6125  155.3115 O   0  0  0  0  0  0  0  0  0  0  0  0
  148.5340  140.2287  154.7138 C   0  0  1  0  0  0  0  0  0  0  0  0
  147.6774  141.4746  154.4416 C   0  0  0  0  0  0  0  0  0  0  0  0
  147.6659  142.3140  155.5765 O   0  0  0  0  0  0  0  0  0  0  0  0
  149.0168  139.5264  153.4457 C   0  0  2  0  0  0  0  0  0  0  0  0
  148.0180  138.7342  152.8299 O   0  0  0  0  0  0  0  0  0  0  0  0
  150.2125  138.7222  153.9462 C   0  0  2  0  0  0  0  0  0  0  0  0
  149.8347  137.4256  154.3849 O   0  0  0  0  0  0  0  0  0  0  0  0
  150.0090  138.4902  157.2206 C   0  0  0  0  0  0  0  0  0  0  0  0
  150.2763  137.8263  158.3633 C   0  0  0  0  0  0  0  0  0  0  0  0
  148.7218  137.3259  159.4860 Br  0  0  0  0  0  0  0  0  0  0  0  0
  151.6716  140.1468  154.8265 H   0  0  0  0  0  0  0  0  0  0  0  0
  148.0089  139.5164  155.3531 H   0  0  0  0  0  0  0  0  0  0  0  0
  148.0352  142.0204  153.5680 H   0  0  0  0  0  0  0  0  0  0  0  0
  146.6458  141.1837  154.2411 H   0  0  0  0  0  0  0  0  0  0  0  0
  148.1070  143.1207  155.3579 H   0  0  0  0  0  0  0  0  0  0  0  0
  149.3656  140.2712  152.7286 H   0  0  0  0  0  0  0  0  0  0  0  0
  148.3479  137.8529  152.7445 H   0  0  0  0  0  0  0  0  0  0  0  0
  150.9766  138.6172  153.1752 H   0  0  0  0  0  0  0  0  0  0  0  0
  149.5159  136.9421  153.6376 H   0  0  0  0  0  0  0  0  0  0  0  0
  148.9801  138.7098  156.9810 H   0  0  0  0  0  0  0  0  0  0  0  0
  1  2  2  0  0  0  0
  2 17  1  0  0  0  0
  2  3  1  0  0  0  0
  3  4  1  0  0  0  0
  4  5  2  0  0  0  0
  4  6  1  0  0  0  0
  6  7  1  0  0  0  0
  6 16  1  0  0  0  0
  7 14  1  0  0  0  0
  7  8  1  0  0  0  0
  7 19  1  0  0  0  0
  8  9  1  0  0  0  0
  9 10  1  0  0  0  0
  9 12  1  0  0  0  0
  9 20  1  0  0  0  0
 10 11  1  0  0  0  0
 10 21  1  0  0  0  0
 10 22  1  0  0  0  0
 11 23  1  0  0  0  0
 12 13  1  0  0  0  0
 12 14  1  0  0  0  0
 12 24  1  0  0  0  0
 13 25  1  0  0  0  0
 14 15  1  0  0  0  0
 14 26  1  0  0  0  0
 15 27  1  0  0  0  0
 16 17  2  0  0  0  0
 16 28  1  0  0  0  0
 17 18  1  0  0  0  0
M  CHG  1   3  -1
M  END
> <s_m_source_file>
AV-unprocessed.smi

> <i_m_source_file_index>
35

> <i_lp_mmshare_version>
43012

> <i_f3d_flags>
0

> <s_epik_input>
Tz1jMVtuSF1jKD1PKW4oW2NIXWMxQnIpW0NAQEhdMk9bQ0BASF0oW0NIMl1bT0hdKVtDQEBIXShbT0hdKVtDQEhdMltPSF0=

> <s_epik_cmdline>
J2VwaWtfcHl0aG9uJywgJy1waCcsICc3LjAnLCAnLXRuJywgJzgnLCAnLW1hJywgJzIwMCcsICctbWV0YWxfYmluZGluZycsICctaW1hZScsICc8aW5maWxlLm1hZT4nLCAnLW9tYWUnLCAnPG91dGZpbGUubWFlPic=

> <r_epik_Ionization_Penalty>
1.06112

> <r_epik_Ionization_Penalty_Charging>
2.1796e-09

> <r_epik_Ionization_Penalty_Neutral>
1.06112

> <r_epik_State_Penalty>
1.11484

> <r_epik_Charging_Adjusted_Penalty>
1.11484

> <i_epik_Tot_Q>
-1

> <i_epik_Tot_abs_Q>
1

> <r_epik_Metal_State_Penalty>
0.0032876

> <b_epik_Metal_Only>
0

> <s_epik_Chemistry_Notes>
This compound contains an acetal/aminal-like group ( X-CH(R)-Y where X, Y are N, S, or O) that may be acid/base labile, releasing an aldehyde.

> <s_lp_Force_Field>
OPLS_2005

> <r_lp_Energy>
47.3884

> <b_lp_Chiralities_Consistent>
1

> <s_lp_Variant>
AV-unprocessed.smi:35-29

> <Gold.Version>
5.8.1

> <Gold.Id.Protein>
6NUR|6NUR_protein|mol2

> <Gold.PLP.Fitness>
36.6503

> <Gold.PLP.PLP>
-22.7921

> <Gold.PLP.part.hbond>
-5.7996

> <Gold.PLP.part.metal>
0.0000

> <Gold.PLP.part.buried>
1.6047

> <Gold.PLP.part.nonpolar>
-18.3623

> <Gold.PLP.part.repulsive>
0.0777

> <Gold.PLP.ligand.clash>
0.0000

> <Gold.PLP.ligand.torsion>
0.6079

> <Gold.PLP.Chemscore.Hbond>
5.0000

> <Gold.PLP.Chemscore.CHOScore>
0.0000

> <Gold.PLP.Chemscore.Metal>
0.0000

> <Gold.Chemscore.Hbonds>
donor molecule, donor type, donor heavy atom, donor atom, acceptor molecule, acceptor atom, score
      L1  H    11    23       P1  8028  1.00
      L1  H    13    25       P1  7948  1.00
      L1  H    15    27       P1  7948  1.00
      P1  H  6896  6909       L1     1  1.00
      P1  H  7997  8009       L1     5  1.00

> <Gold.PLP.Chemscore.Internal.Correction>
0.0740

> <Gold.Rescore>
     Score         DG    S(hbond)    S(metal)    S(lipo)     H(rot)  DE(clash)    DE(int)     intcor
     13.22     -16.32       4.66        0.00      38.90       3.63       1.68       1.42       ----

> <Gold.Chemscore.Fitness>
13.2225

> <Gold.Chemscore.DG>
-16.3230

> <Gold.Chemscore.ZeroCoef>
-5.4800

> <Gold.Chemscore.Hbond>
4.6631

> <Gold.Chemscore.Metal>
0.0000

> <Gold.Chemscore.Lipo>
38.8968

> <Gold.Chemscore.Internal_Hbond>
0.0000

> <Gold.Chemscore.DEClash>
1.6795

> <Gold.Chemscore.DEInternal>
1.4210

> <Gold.Chemscore.Rot>
3.6261

> <Gold.Chemscore.Internal.Correction>
   9.000000E+99

> <Gold.Chemscore.Hbonds>
donor molecule, donor type, donor heavy atom, donor atom, acceptor molecule, acceptor atom, score
      L1  H    11    23       P1  8028  0.90
      L1  H    13    25       P1  7948  0.98
      L1  H    15    27       P1  7948  0.84
      P1  H  6896  6909       L1     1  1.00
      P1  H  7997  8009       L1     5  0.97

> <Gold.Chemscore.Hbond.Weighted>
-15.5749

> <Gold.Chemscore.Metal.Weighted>
-0.0000

> <Gold.Chemscore.Lipo.Weighted>
-4.5509

> <Gold.Chemscore.Internal_Hbond.Weighted>
0.0000

> <Gold.Chemscore.DEClash.Weighted>
1.6795

> <Gold.Chemscore.DEInternal.Weighted>
1.4210

> <Gold.Chemscore.Rot.Weighted>
9.2828

> <Gold.Chemscore.Internal.Correction.Weighted>
   9.000000E+99

> <Gold.Protein.RotatedTorsions>
[ 6907 6896 6895 6894 ] final  128.61 input  -60.11 | X-H torsion
[ 7974 7965 7964 7962 ] final -170.89 input  175.53 | X-H torsion
[ 8008 7997 7996 7995 ] final -150.27 input   59.86 | X-H torsion
[ 10167 10162 10161 10158 ] final  -28.14 input  -65.29 | X-H torsion
[ 10718 10713 10712 10709 ] final   44.11 input   66.30 | X-H torsion
[ 10763 10752 10751 10750 ] final   89.07 input  -60.55 | X-H torsion
[ 11005 11000 10999 10996 ] final -164.96 input  -57.11 | X-H torsion

> <Gold.Protein.ActiveResidues>
 VAL166  LYS551  ARG553  GLY616  TRP617  ASP618  TYR619  PRO620  LYS621  CYS622 
 ASP623  PHE694  ASN695  SER759  ASP760  ASP761  ALA762  ILE779  LEU786  VAL792 
 PHE793  MET794  SER795  GLU796  ALA797  LYS798  CYS799  TRP800  GLU811  SER814 

> <Gold.Protein.RotatedAtoms>
  152.3703  133.6410  159.6081 H   0  0  0  0  0  0  0  0  0  0  0  0  # atno 6907 bound_to 6896
  150.7664  133.9281  159.3427 H   0  0  0  0  0  0  0  0  0  0  0  0  # atno 6908 bound_to 6896
  151.7104  135.0915  160.0318 H   0  0  0  0  0  0  0  0  0  0  0  0  # atno 6909 bound_to 6896
  144.7164  140.2004  143.6339 H   0  0  0  0  0  0  0  0  0  0  0  0  # atno 7974 bound_to 7965
  155.6209  140.0681  157.2678 H   0  0  0  0  0  0  0  0  0  0  0  0  # atno 8008 bound_to 7997
  154.4229  140.1784  156.1419 H   0  0  0  0  0  0  0  0  0  0  0  0  # atno 8009 bound_to 7997
  156.0010  140.3336  155.6849 H   0  0  0  0  0  0  0  0  0  0  0  0  # atno 8010 bound_to 7997
  140.7272  143.4035  151.1225 H   0  0  0  0  0  0  0  0  0  0  0  0  # atno 10167 bound_to 10162
  157.4232  130.7981  149.7535 H   0  0  0  0  0  0  0  0  0  0  0  0  # atno 10718 bound_to 10713
  153.1833  135.4484  155.0056 H   0  0  0  0  0  0  0  0  0  0  0  0  # atno 10763 bound_to 10752
  154.8044  135.3268  154.7471 H   0  0  0  0  0  0  0  0  0  0  0  0  # atno 10764 bound_to 10752
  153.7933  135.6968  153.4923 H   0  0  0  0  0  0  0  0  0  0  0  0  # atno 10765 bound_to 10752
  140.5810  134.5141  157.5178 H   0  0  0  0  0  0  0  0  0  0  0  0  # atno 11005 bound_to 11000
  145.8685  139.2259  143.1675 LP  0  0  0  0  0  0  0  0  0  0  0  0  # atno 17320 bound_to 7965
  146.0107  140.8438  142.9972 LP  0  0  0  0  0  0  0  0  0  0  0  0  # atno 17321 bound_to 7965
  139.7658  143.8567  152.3110 LP  0  0  0  0  0  0  0  0  0  0  0  0  # atno 17342 bound_to 10162
  139.8469  144.7183  150.9262 LP  0  0  0  0  0  0  0  0  0  0  0  0  # atno 17343 bound_to 10162
  155.9888  130.3957  150.3103 LP  0  0  0  0  0  0  0  0  0  0  0  0  # atno 17370 bound_to 10713
  157.1253  131.0257  151.2992 LP  0  0  0  0  0  0  0  0  0  0  0  0  # atno 17371 bound_to 10713
  139.9317  134.7951  156.0913 LP  0  0  0  0  0  0  0  0  0  0  0  0  # atno 17394 bound_to 11000
  141.0996  133.6682  156.2723 LP  0  0  0  0  0  0  0  0  0  0  0  0  # atno 17395 bound_to 11000

$$$$
