AV-unprocessed.smi:148|AV-procd|sdf|1229|dock9
  -GOLD-   2262018433D 1   1.00000     0.00000
 Structure written by MMmdl.
 63 67  0  0  0  0  0  0  0  0  1 V2000
  149.7779  141.9707  155.4713 O   0  0  0  0  0  0  0  0  0  0  0  0
  150.9662  141.8551  156.2263 C   0  0  0  0  0  0  0  0  0  0  0  0
  150.7462  140.9965  157.4963 C   0  0  1  0  0  0  0  0  0  0  0  0
  151.3077  139.5590  157.3391 C   0  0  0  0  0  0  0  0  0  0  0  0
  150.6535  138.5875  158.1982 N   0  0  0  0  0  0  0  0  0  0  0  0
  151.2502  137.8125  159.1675 C   0  0  0  0  0  0  0  0  0  0  0  0
  150.4488  137.0007  159.8027 N   0  0  0  0  0  0  0  0  0  0  0  0
  149.2076  137.2346  159.2253 C   0  0  0  0  0  0  0  0  0  0  0  0
  147.9099  136.6954  159.4228 C   0  0  0  0  0  0  0  0  0  0  0  0
  147.6680  135.7226  160.3315 N   0  0  0  0  0  0  0  0  0  0  0  0
  147.6186  136.3005  161.6756 C   0  0  0  0  0  0  0  0  0  0  0  0
  147.5345  135.2154  162.7569 C   0  0  0  0  0  0  0  0  0  0  0  0
  146.3397  134.2941  162.4926 C   0  0  0  0  0  0  0  0  0  0  0  0
  146.4553  133.6902  161.0881 C   0  0  0  0  0  0  0  0  0  0  0  0
  146.5757  134.7878  159.9961 C   0  0  2  0  0  0  0  0  0  0  0  0
  146.6697  134.2054  158.5426 C   0  0  2  0  0  0  0  0  0  0  0  0
  145.5849  133.1411  158.2556 C   0  0  0  0  0  0  0  0  0  0  0  0
  146.3040  131.8900  157.7337 C   0  0  0  0  0  0  0  0  0  0  0  0
  147.7498  132.0323  158.2012 C   0  0  0  0  0  0  0  0  0  0  0  0
  147.9993  133.5361  158.1128 C   0  0  2  0  0  0  0  0  0  0  0  0
  149.1579  133.9308  158.8186 O   0  0  0  0  0  0  0  0  0  0  0  0
  146.8951  137.1797  158.6583 N   0  0  0  0  0  0  0  0  0  0  0  0
  147.1399  138.1274  157.7484 C   0  0  0  0  0  0  0  0  0  0  0  0
  148.3002  138.7145  157.4456 N   0  0  0  0  0  0  0  0  0  0  0  0
  149.3165  138.2311  158.2165 C   0  0  0  0  0  0  0  0  0  0  0  0
  151.2572  141.7264  158.7714 C   0  0  1  0  0  0  0  0  0  0  0  0
  152.7610  141.7869  158.9724 C   0  0  0  0  0  0  0  0  0  0  0  0
  152.8694  142.8332  160.0755 C   0  0  0  0  0  0  0  0  0  0  0  0
  151.8413  143.7775  159.7951 O   0  0  0  0  0  0  0  0  0  0  0  0
  150.8652  143.2003  158.9299 C   0  0  0  0  0  0  0  0  0  0  0  0
  149.3530  142.7828  155.7014 H   0  0  0  0  0  0  0  0  0  0  0  0
  151.7133  141.4105  155.5695 H   0  0  0  0  0  0  0  0  0  0  0  0
  151.3267  142.8505  156.4869 H   0  0  0  0  0  0  0  0  0  0  0  0
  149.6669  140.8880  157.6146 H   0  0  0  0  0  0  0  0  0  0  0  0
  151.2160  139.2155  156.3095 H   0  0  0  0  0  0  0  0  0  0  0  0
  152.3694  139.5300  157.5807 H   0  0  0  0  0  0  0  0  0  0  0  0
  152.3062  137.8690  159.3887 H   0  0  0  0  0  0  0  0  0  0  0  0
  148.5044  136.9142  161.8473 H   0  0  0  0  0  0  0  0  0  0  0  0
  146.7543  136.9619  161.7556 H   0  0  0  0  0  0  0  0  0  0  0  0
  148.4563  134.6322  162.7673 H   0  0  0  0  0  0  0  0  0  0  0  0
  147.4440  135.6749  163.7413 H   0  0  0  0  0  0  0  0  0  0  0  0
  146.3016  133.5023  163.2413 H   0  0  0  0  0  0  0  0  0  0  0  0
  145.4089  134.8556  162.5801 H   0  0  0  0  0  0  0  0  0  0  0  0
  147.3253  133.0353  161.0717 H   0  0  0  0  0  0  0  0  0  0  0  0
  145.5931  133.0500  160.9083 H   0  0  0  0  0  0  0  0  0  0  0  0
  145.6567  135.3745  160.0403 H   0  0  0  0  0  0  0  0  0  0  0  0
  146.4816  135.0133  157.8357 H   0  0  0  0  0  0  0  0  0  0  0  0
  145.0124  132.8968  159.1494 H   0  0  0  0  0  0  0  0  0  0  0  0
  144.8622  133.5018  157.5229 H   0  0  0  0  0  0  0  0  0  0  0  0
  145.8418  130.9664  158.0832 H   0  0  0  0  0  0  0  0  0  0  0  0
  146.2749  131.8811  156.6433 H   0  0  0  0  0  0  0  0  0  0  0  0
  147.8409  131.6856  159.2311 H   0  0  0  0  0  0  0  0  0  0  0  0
  148.4460  131.4547  157.5923 H   0  0  0  0  0  0  0  0  0  0  0  0
  148.1740  133.7823  157.0643 H   0  0  0  0  0  0  0  0  0  0  0  0
  148.9004  134.5044  159.5248 H   0  0  0  0  0  0  0  0  0  0  0  0
  146.2846  138.4607  157.1792 H   0  0  0  0  0  0  0  0  0  0  0  0
  150.8611  141.1966  159.6392 H   0  0  0  0  0  0  0  0  0  0  0  0
  153.1964  140.8276  159.2530 H   0  0  0  0  0  0  0  0  0  0  0  0
  153.2765  142.1530  158.0856 H   0  0  0  0  0  0  0  0  0  0  0  0
  152.6744  142.3819  161.0493 H   0  0  0  0  0  0  0  0  0  0  0  0
  153.8501  143.3078  160.1111 H   0  0  0  0  0  0  0  0  0  0  0  0
  150.8977  143.7374  157.9830 H   0  0  0  0  0  0  0  0  0  0  0  0
  149.8629  143.3137  159.3436 H   0  0  0  0  0  0  0  0  0  0  0  0
  1  2  1  0  0  0  0
  1 31  1  0  0  0  0
  2  3  1  0  0  0  0
  2 32  1  0  0  0  0
  2 33  1  0  0  0  0
  3  4  1  0  0  0  0
  3 26  1  0  0  0  0
  3 34  1  0  0  0  0
  4  5  1  0  0  0  0
  4 35  1  0  0  0  0
  4 36  1  0  0  0  0
  5 25  1  0  0  0  0
  5  6  1  0  0  0  0
  6  7  2  0  0  0  0
  6 37  1  0  0  0  0
  7  8  1  0  0  0  0
  8 25  2  0  0  0  0
  8  9  1  0  0  0  0
  9 10  1  0  0  0  0
  9 22  2  0  0  0  0
 10 15  1  0  0  0  0
 10 11  1  0  0  0  0
 11 12  1  0  0  0  0
 11 38  1  0  0  0  0
 11 39  1  0  0  0  0
 12 13  1  0  0  0  0
 12 40  1  0  0  0  0
 12 41  1  0  0  0  0
 13 14  1  0  0  0  0
 13 42  1  0  0  0  0
 13 43  1  0  0  0  0
 14 15  1  0  0  0  0
 14 44  1  0  0  0  0
 14 45  1  0  0  0  0
 15 16  1  0  0  0  0
 15 46  1  0  0  0  0
 16 20  1  0  0  0  0
 16 17  1  0  0  0  0
 16 47  1  0  0  0  0
 17 18  1  0  0  0  0
 17 48  1  0  0  0  0
 17 49  1  0  0  0  0
 18 19  1  0  0  0  0
 18 50  1  0  0  0  0
 18 51  1  0  0  0  0
 19 20  1  0  0  0  0
 19 52  1  0  0  0  0
 19 53  1  0  0  0  0
 20 21  1  0  0  0  0
 20 54  1  0  0  0  0
 21 55  1  0  0  0  0
 22 23  1  0  0  0  0
 23 24  2  0  0  0  0
 23 56  1  0  0  0  0
 24 25  1  0  0  0  0
 26 30  1  0  0  0  0
 26 27  1  0  0  0  0
 26 57  1  0  0  0  0
 27 28  1  0  0  0  0
 27 58  1  0  0  0  0
 27 59  1  0  0  0  0
 28 29  1  0  0  0  0
 28 60  1  0  0  0  0
 28 61  1  0  0  0  0
 29 30  1  0  0  0  0
 30 62  1  0  0  0  0
 30 63  1  0  0  0  0
M  END
> <s_m_source_file>
AV-unprocessed.smi

> <i_m_source_file_index>
148

> <i_lp_mmshare_version>
43012

> <i_f3d_flags>
0

> <s_epik_input>
W0NIMl0xT1tDSDJdW0NIMl1bQ0BIXTFbQ0BIXShbQ0gyXVtPSF0pW0NIMl1uKFtjSF1uMiljKGMyMyluW2NIXW5jM040W0NIMl1bQ0gyXVtDSDJdW0NIMl1bQ0BIXTRbQ0BASF01W0NIMl1bQ0gyXVtDSDJdW0NASF01W09IXQ==

> <s_epik_cmdline>
J2VwaWtfcHl0aG9uJywgJy1waCcsICc3LjAnLCAnLXRuJywgJzgnLCAnLW1hJywgJzIwMCcsICctbWV0YWxfYmluZGluZycsICctaW1hZScsICc8aW5maWxlLm1hZT4nLCAnLW9tYWUnLCAnPG91dGZpbGUubWFlPic=

> <r_lp_tautomer_probability>
1

> <r_epik_Ionization_Penalty>
0.00556303

> <r_epik_Ionization_Penalty_Charging>
0

> <r_epik_Ionization_Penalty_Neutral>
0.00556303

> <r_epik_State_Penalty>
0.00401767

> <r_epik_Charging_Adjusted_Penalty>
0.00401767

> <i_epik_Tot_Q>
0

> <i_epik_Tot_abs_Q>
0

> <r_epik_Metal_State_Penalty>
-0

> <b_epik_Metal_Only>
0

> <s_lp_Force_Field>
OPLS_2005

> <r_lp_Energy>
73.9782

> <b_lp_Chiralities_Consistent>
1

> <s_lp_Variant>
AV-unprocessed.smi:148-28

> <Gold.Version>
5.8.1

> <Gold.Id.Protein>
6NUR|6NUR_protein|mol2

> <Gold.PLP.Fitness>
47.0283

> <Gold.PLP.PLP>
-42.4182

> <Gold.PLP.part.hbond>
-3.2236

> <Gold.PLP.part.metal>
0.0000

> <Gold.PLP.part.buried>
-7.7899

> <Gold.PLP.part.nonpolar>
-31.6734

> <Gold.PLP.part.repulsive>
0.0171

> <Gold.PLP.ligand.clash>
0.0000

> <Gold.PLP.ligand.torsion>
1.6998

> <Gold.PLP.Chemscore.Hbond>
2.5472

> <Gold.PLP.Chemscore.CHOScore>
0.0000

> <Gold.PLP.Chemscore.Metal>
0.0000

> <Gold.Chemscore.Hbonds>
donor molecule, donor type, donor heavy atom, donor atom, acceptor molecule, acceptor atom, score
      L1  H     1    31       P1  8028  1.00
      P1  H  6896  6907       L1    21  0.56
      P1  H  6896  6908       L1     7  0.96

> <Gold.PLP.Chemscore.Internal.Correction>
0.3682

> <Gold.Rescore>
     Score         DG    S(hbond)    S(metal)    S(lipo)     H(rot)  DE(clash)    DE(int)     intcor
     13.43     -15.42       2.08        0.00      98.11       3.32       0.35       1.64       ----

> <Gold.Chemscore.Fitness>
13.4273

> <Gold.Chemscore.DG>
-15.4224

> <Gold.Chemscore.ZeroCoef>
-5.4800

> <Gold.Chemscore.Hbond>
2.0847

> <Gold.Chemscore.Metal>
0.0000

> <Gold.Chemscore.Lipo>
98.1147

> <Gold.Chemscore.Internal_Hbond>
0.0000

> <Gold.Chemscore.DEClash>
0.3524

> <Gold.Chemscore.DEInternal>
1.6427

> <Gold.Chemscore.Rot>
3.3203

> <Gold.Chemscore.Internal.Correction>
   9.000000E+99

> <Gold.Chemscore.Hbonds>
donor molecule, donor type, donor heavy atom, donor atom, acceptor molecule, acceptor atom, score
      L1  H     1    31       P1  8028  0.96
      P1  H  6896  6907       L1    21  0.14
      P1  H  6896  6908       L1     7  0.64

> <Gold.Chemscore.Hbond.Weighted>
-6.9630

> <Gold.Chemscore.Metal.Weighted>
-0.0000

> <Gold.Chemscore.Lipo.Weighted>
-11.4794

> <Gold.Chemscore.Internal_Hbond.Weighted>
0.0000

> <Gold.Chemscore.DEClash.Weighted>
0.3524

> <Gold.Chemscore.DEInternal.Weighted>
1.6427

> <Gold.Chemscore.Rot.Weighted>
8.5000

> <Gold.Chemscore.Internal.Correction.Weighted>
   9.000000E+99

> <Gold.Protein.RotatedTorsions>
[ 6907 6896 6895 6894 ] final -134.33 input  -60.11 | X-H torsion
[ 7974 7965 7964 7962 ] final   63.63 input  175.53 | X-H torsion
[ 8008 7997 7996 7995 ] final  -80.66 input   59.86 | X-H torsion
[ 10167 10162 10161 10158 ] final  -83.16 input  -65.29 | X-H torsion
[ 10718 10713 10712 10709 ] final   45.07 input   66.30 | X-H torsion
[ 10763 10752 10751 10750 ] final   73.19 input  -60.55 | X-H torsion
[ 11005 11000 10999 10996 ] final -153.48 input  -57.11 | X-H torsion

> <Gold.Protein.ActiveResidues>
 VAL166  LYS551  ARG553  GLY616  TRP617  ASP618  TYR619  PRO620  LYS621  CYS622 
 ASP623  PHE694  ASN695  SER759  ASP760  ASP761  ALA762  ILE779  LEU786  VAL792 
 PHE793  MET794  SER795  GLU796  ALA797  LYS798  CYS799  TRP800  GLU811  SER814 

> <Gold.Protein.RotatedAtoms>
  150.9845  133.6211  159.2717 H   0  0  0  0  0  0  0  0  0  0  0  0  # atno 6907 bound_to 6896
  151.3454  135.0872  159.9395 H   0  0  0  0  0  0  0  0  0  0  0  0  # atno 6908 bound_to 6896
  152.5226  133.9448  159.7698 H   0  0  0  0  0  0  0  0  0  0  0  0  # atno 6909 bound_to 6896
  145.8596  139.3306  143.0827 H   0  0  0  0  0  0  0  0  0  0  0  0  # atno 7974 bound_to 7965
  154.5905  140.0659  156.9232 H   0  0  0  0  0  0  0  0  0  0  0  0  # atno 8008 bound_to 7997
  155.2303  140.3337  155.4286 H   0  0  0  0  0  0  0  0  0  0  0  0  # atno 8009 bound_to 7997
  156.2253  140.1816  156.7363 H   0  0  0  0  0  0  0  0  0  0  0  0  # atno 8010 bound_to 7997
  140.4252  143.2569  151.8835 H   0  0  0  0  0  0  0  0  0  0  0  0  # atno 10167 bound_to 10162
  157.4336  130.8039  149.7627 H   0  0  0  0  0  0  0  0  0  0  0  0  # atno 10718 bound_to 10713
  153.0506  135.5072  154.7856 H   0  0  0  0  0  0  0  0  0  0  0  0  # atno 10763 bound_to 10752
  154.6722  135.2955  154.9729 H   0  0  0  0  0  0  0  0  0  0  0  0  # atno 10764 bound_to 10752
  154.0544  135.6699  153.4857 H   0  0  0  0  0  0  0  0  0  0  0  0  # atno 10765 bound_to 10752
  140.7077  134.3868  157.5202 H   0  0  0  0  0  0  0  0  0  0  0  0  # atno 11005 bound_to 11000
  145.9263  140.9080  143.0379 LP  0  0  0  0  0  0  0  0  0  0  0  0  # atno 17320 bound_to 7965
  144.6727  140.1357  143.7440 LP  0  0  0  0  0  0  0  0  0  0  0  0  # atno 17321 bound_to 7965
  139.4783  144.5394  151.8550 LP  0  0  0  0  0  0  0  0  0  0  0  0  # atno 17342 bound_to 10162
  140.4489  144.1883  150.5896 LP  0  0  0  0  0  0  0  0  0  0  0  0  # atno 17343 bound_to 10162
  155.9922  130.3932  150.2951 LP  0  0  0  0  0  0  0  0  0  0  0  0  # atno 17370 bound_to 10713
  157.1110  131.0221  151.3048 LP  0  0  0  0  0  0  0  0  0  0  0  0  # atno 17371 bound_to 10713
  139.8880  134.8868  156.2499 LP  0  0  0  0  0  0  0  0  0  0  0  0  # atno 17394 bound_to 11000
  141.0111  133.7095  156.1113 LP  0  0  0  0  0  0  0  0  0  0  0  0  # atno 17395 bound_to 11000

$$$$
