AV-unprocessed.smi:2504|AV-procd|sdf|9852|dock1
  -GOLD-   2272013483D 1   1.00000     0.00000
 Structure written by MMmdl.
 46 48  0  0  0  0  0  0  0  0  3 V2000
  150.8261  142.0468  159.2836 O   0  0  0  0  0  0  0  0  0  0  0  0
  152.0416  142.1750  159.1330 C   0  0  0  0  0  0  0  0  0  0  0  0
  152.6977  143.5711  159.1726 C   0  0  0  0  0  0  0  0  0  0  0  0
  152.5745  144.2246  160.5568 C   0  0  0  0  0  0  0  0  0  0  0  0
  151.2340  144.9617  160.5377 C   0  0  0  0  0  0  0  0  0  0  0  0
  151.0245  145.3954  159.0825 C   0  0  0  0  0  0  0  0  0  0  0  0
  152.0083  144.5765  158.2308 C   0  0  0  0  0  0  0  0  0  0  0  0
  152.8789  141.0642  159.0039 N   0  0  0  0  0  0  0  0  0  0  0  0
  152.4948  139.7489  159.4996 C   0  0  0  0  0  0  0  0  0  0  0  0
  153.9919  139.5212  159.7570 C   0  0  0  0  0  0  0  0  0  0  0  0
  154.8693  138.4319  158.5302 S   0  0  0  0  0  0  0  0  0  0  0  0
  155.6055  137.4486  159.3424 O   0  0  0  0  0  0  0  0  0  0  0  0
  153.8282  137.9156  157.6280 O   0  0  0  0  0  0  0  0  0  0  0  0
  155.8557  139.4767  157.7785 N   0  5  0  0  0  0  0  0  0  0  0  0
  157.1429  139.8168  158.3561 C   0  0  0  0  0  0  0  0  0  0  0  0
  157.7607  140.9990  157.5776 C   0  0  0  0  0  0  0  0  0  0  0  0
  159.2384  141.2428  157.8734 C   0  0  0  0  0  0  0  0  0  0  0  0
  159.9923  142.1383  157.0784 C   0  0  0  0  0  0  0  0  0  0  0  0
  161.3521  142.3581  157.3785 C   0  0  0  0  0  0  0  0  0  0  0  0
  161.9328  141.6772  158.4670 C   0  0  0  0  0  0  0  0  0  0  0  0
  161.1867  140.8233  159.2012 N   0  3  0  0  0  0  0  0  0  0  0  0
  159.8824  140.5825  158.9445 C   0  0  0  0  0  0  0  0  0  0  0  0
  154.2302  141.0223  159.5461 C   0  0  0  0  0  0  0  0  0  0  0  0
  153.7464  143.4747  158.8889 H   0  0  0  0  0  0  0  0  0  0  0  0
  152.6309  143.5110  161.3801 H   0  0  0  0  0  0  0  0  0  0  0  0
  153.3863  144.9400  160.6933 H   0  0  0  0  0  0  0  0  0  0  0  0
  150.4370  144.2782  160.8333 H   0  0  0  0  0  0  0  0  0  0  0  0
  151.2141  145.8033  161.2307 H   0  0  0  0  0  0  0  0  0  0  0  0
  149.9926  145.2261  158.7736 H   0  0  0  0  0  0  0  0  0  0  0  0
  151.2270  146.4607  158.9666 H   0  0  0  0  0  0  0  0  0  0  0  0
  152.7570  145.2424  157.8000 H   0  0  0  0  0  0  0  0  0  0  0  0
  151.5038  144.0933  157.3925 H   0  0  0  0  0  0  0  0  0  0  0  0
  151.9085  139.7863  160.4194 H   0  0  0  0  0  0  0  0  0  0  0  0
  152.0426  139.1036  158.7462 H   0  0  0  0  0  0  0  0  0  0  0  0
  154.2135  139.1944  160.7731 H   0  0  0  0  0  0  0  0  0  0  0  0
  157.0550  140.1021  159.4049 H   0  0  0  0  0  0  0  0  0  0  0  0
  157.8316  138.9723  158.3305 H   0  0  0  0  0  0  0  0  0  0  0  0
  157.6477  140.8225  156.5075 H   0  0  0  0  0  0  0  0  0  0  0  0
  157.2010  141.9116  157.7886 H   0  0  0  0  0  0  0  0  0  0  0  0
  159.5288  142.6629  156.2551 H   0  0  0  0  0  0  0  0  0  0  0  0
  161.9384  143.0422  156.7835 H   0  0  0  0  0  0  0  0  0  0  0  0
  162.9637  141.7891  158.7699 H   0  0  0  0  0  0  0  0  0  0  0  0
  159.3918  139.8838  159.6064 H   0  0  0  0  0  0  0  0  0  0  0  0
  155.0017  141.2713  158.8167 H   0  0  0  0  0  0  0  0  0  0  0  0
  154.3475  141.5665  160.4840 H   0  0  0  0  0  0  0  0  0  0  0  0
  161.6259  140.3411  159.9855 H   0  0  0  0  0  0  0  0  0  0  0  0
  1  2  2  0  0  0  0
  2  3  1  0  0  0  0
  2  8  1  0  0  0  0
  3  7  1  0  0  0  0
  3  4  1  0  0  0  0
  3 24  1  0  0  0  0
  4  5  1  0  0  0  0
  4 25  1  0  0  0  0
  4 26  1  0  0  0  0
  5  6  1  0  0  0  0
  5 27  1  0  0  0  0
  5 28  1  0  0  0  0
  6  7  1  0  0  0  0
  6 29  1  0  0  0  0
  6 30  1  0  0  0  0
  7 31  1  0  0  0  0
  7 32  1  0  0  0  0
  8 23  1  0  0  0  0
  8  9  1  0  0  0  0
  9 10  1  0  0  0  0
  9 33  1  0  0  0  0
  9 34  1  0  0  0  0
 10 11  1  0  0  0  0
 10 23  1  0  0  0  0
 10 35  1  0  0  0  0
 11 12  2  0  0  0  0
 11 13  2  0  0  0  0
 11 14  1  0  0  0  0
 14 15  1  0  0  0  0
 15 16  1  0  0  0  0
 15 36  1  0  0  0  0
 15 37  1  0  0  0  0
 16 17  1  0  0  0  0
 16 38  1  0  0  0  0
 16 39  1  0  0  0  0
 17 22  1  0  0  0  0
 17 18  2  0  0  0  0
 18 19  1  0  0  0  0
 18 40  1  0  0  0  0
 19 20  2  0  0  0  0
 19 41  1  0  0  0  0
 20 21  1  0  0  0  0
 20 42  1  0  0  0  0
 21 22  2  0  0  0  0
 21 46  1  0  0  0  0
 22 43  1  0  0  0  0
 23 44  1  0  0  0  0
 23 45  1  0  0  0  0
M  CHG  1  14  -1
M  CHG  1  21   1
M  END
> <s_m_source_file>
AV-unprocessed.smi

> <i_m_source_file_index>
2504

> <i_lp_mmshare_version>
43012

> <i_f3d_flags>
0

> <s_epik_input>
W0NIMl0xW0NIMl1bQ0gyXVtDSDJdW0NIXTFDKD1PKU4yW0NIMl1bQ0hdKFtDSDJdMilTKD1PKSg9TylbTkhdW0NIMl1bQ0gyXWMzW2NIXVtjSF1bY0hdbltjSF0z

> <s_epik_cmdline>
J2VwaWtfcHl0aG9uJywgJy1waCcsICc3LjAnLCAnLXRuJywgJzgnLCAnLW1hJywgJzIwMCcsICctbWV0YWxfYmluZGluZycsICctaW1hZScsICc8aW5maWxlLm1hZT4nLCAnLW9tYWUnLCAnPG91dGZpbGUubWFlPic=

> <r_epik_Ionization_Penalty>
7.23206

> <r_epik_Ionization_Penalty_Charging>
7.23206

> <r_epik_Ionization_Penalty_Neutral>
2.37876e-07

> <r_epik_State_Penalty>
7.91796

> <r_epik_Charging_Adjusted_Penalty>
15.15

> <i_epik_Tot_Q>
0

> <i_epik_Tot_abs_Q>
2

> <r_epik_Metal_State_Penalty>
3.92928

> <b_epik_Metal_Only>
1

> <s_lp_Force_Field>
OPLS_2005

> <r_lp_Energy>
37.1942

> <b_lp_Chiralities_Consistent>
1

> <s_lp_Variant>
AV-unprocessed.smi:2504-4

> <Gold.Version>
5.8.1

> <Gold.Id.Protein>
6NUR|6NUR_protein|mol2

> <Gold.PLP.Fitness>
50.3452

> <Gold.PLP.PLP>
-44.8555

> <Gold.PLP.part.hbond>
-1.3125

> <Gold.PLP.part.metal>
0.0000

> <Gold.PLP.part.buried>
-4.6711

> <Gold.PLP.part.nonpolar>
-38.0715

> <Gold.PLP.part.repulsive>
0.0551

> <Gold.PLP.ligand.clash>
0.0000

> <Gold.PLP.ligand.torsion>
1.4509

> <Gold.PLP.Chemscore.Hbond>
2.0000

> <Gold.PLP.Chemscore.CHOScore>
0.0000

> <Gold.PLP.Chemscore.Metal>
0.0000

> <Gold.PLP.Chemscore.Internal.Correction>
2.3915

> <Gold.Rescore>
     Score         DG    S(hbond)    S(metal)    S(lipo)     H(rot)  DE(clash)    DE(int)     intcor
     18.11     -19.80       0.92        0.00     133.71       1.72       0.04       1.65       ----

> <Gold.Chemscore.Fitness>
18.1139

> <Gold.Chemscore.DG>
-19.8005

> <Gold.Chemscore.ZeroCoef>
-5.4800

> <Gold.Chemscore.Hbond>
0.9188

> <Gold.Chemscore.Metal>
0.0000

> <Gold.Chemscore.Lipo>
133.7096

> <Gold.Chemscore.Internal_Hbond>
0.0000

> <Gold.Chemscore.DEClash>
0.0382

> <Gold.Chemscore.DEInternal>
1.6485

> <Gold.Chemscore.Rot>
1.7158

> <Gold.Chemscore.Internal.Correction>
   9.000000E+99

> <Gold.Chemscore.Hbond.Weighted>
-3.0689

> <Gold.Chemscore.Metal.Weighted>
-0.0000

> <Gold.Chemscore.Lipo.Weighted>
-15.6440

> <Gold.Chemscore.Internal_Hbond.Weighted>
0.0000

> <Gold.Chemscore.DEClash.Weighted>
0.0382

> <Gold.Chemscore.DEInternal.Weighted>
1.6485

> <Gold.Chemscore.Rot.Weighted>
4.3924

> <Gold.Chemscore.Internal.Correction.Weighted>
   9.000000E+99

> <Gold.Protein.RotatedTorsions>
[ 6907 6896 6895 6894 ] final   -5.96 input  -60.11 | X-H torsion
[ 7974 7965 7964 7962 ] final -155.59 input  175.53 | X-H torsion
[ 8008 7997 7996 7995 ] final -172.09 input   59.86 | X-H torsion
[ 10167 10162 10161 10158 ] final  -80.15 input  -65.29 | X-H torsion
[ 10718 10713 10712 10709 ] final  150.73 input   66.30 | X-H torsion
[ 10763 10752 10751 10750 ] final  -73.15 input  -60.55 | X-H torsion
[ 11005 11000 10999 10996 ] final   12.24 input  -57.11 | X-H torsion

> <Gold.Protein.ActiveResidues>
 VAL166  LYS551  ARG553  GLY616  TRP617  ASP618  TYR619  PRO620  LYS621  CYS622 
 ASP623  PHE694  ASN695  SER759  ASP760  ASP761  ALA762  ILE779  LEU786  VAL792 
 PHE793  MET794  SER795  GLU796  ALA797  LYS798  CYS799  TRP800  GLU811  SER814 

> <Gold.Protein.RotatedAtoms>
  151.4732  135.1047  159.9756 H   0  0  0  0  0  0  0  0  0  0  0  0  # atno 6907 bound_to 6896
  152.4808  133.8246  159.7082 H   0  0  0  0  0  0  0  0  0  0  0  0  # atno 6908 bound_to 6896
  150.8879  133.7222  159.2940 H   0  0  0  0  0  0  0  0  0  0  0  0  # atno 6909 bound_to 6896
  144.7633  140.4227  143.5961 H   0  0  0  0  0  0  0  0  0  0  0  0  # atno 7974 bound_to 7965
  155.9401  140.1107  157.1063 H   0  0  0  0  0  0  0  0  0  0  0  0  # atno 8008 bound_to 7997
  154.4087  140.1221  156.4981 H   0  0  0  0  0  0  0  0  0  0  0  0  # atno 8009 bound_to 7997
  155.6973  140.3472  155.4920 H   0  0  0  0  0  0  0  0  0  0  0  0  # atno 8010 bound_to 7997
  140.4529  143.2477  151.8462 H   0  0  0  0  0  0  0  0  0  0  0  0  # atno 10167 bound_to 10162
  157.2798  131.0833  151.1540 H   0  0  0  0  0  0  0  0  0  0  0  0  # atno 10718 bound_to 10713
  154.4556  135.5906  153.6221 H   0  0  0  0  0  0  0  0  0  0  0  0  # atno 10763 bound_to 10752
  152.9818  135.6031  154.3550 H   0  0  0  0  0  0  0  0  0  0  0  0  # atno 10764 bound_to 10752
  154.3417  135.2841  155.2398 H   0  0  0  0  0  0  0  0  0  0  0  0  # atno 10765 bound_to 10752
  140.4942  134.0810  155.7778 H   0  0  0  0  0  0  0  0  0  0  0  0  # atno 11005 bound_to 11000
  145.6551  139.1571  143.2840 LP  0  0  0  0  0  0  0  0  0  0  0  0  # atno 17320 bound_to 7965
  146.1716  140.6636  142.9230 LP  0  0  0  0  0  0  0  0  0  0  0  0  # atno 17321 bound_to 7965
  139.4798  144.5099  151.8947 LP  0  0  0  0  0  0  0  0  0  0  0  0  # atno 17342 bound_to 10162
  140.4185  144.2274  150.5887 LP  0  0  0  0  0  0  0  0  0  0  0  0  # atno 17343 bound_to 10162
  157.2979  130.6828  149.6148 LP  0  0  0  0  0  0  0  0  0  0  0  0  # atno 17370 bound_to 10713
  155.9664  130.4401  150.5286 LP  0  0  0  0  0  0  0  0  0  0  0  0  # atno 17371 bound_to 10713
  141.1468  133.9040  157.2195 LP  0  0  0  0  0  0  0  0  0  0  0  0  # atno 17394 bound_to 11000
  139.9751  135.0116  156.9611 LP  0  0  0  0  0  0  0  0  0  0  0  0  # atno 17395 bound_to 11000

$$$$
