AV-unprocessed.smi:3289|AV-procd|sdf|12610|dock10
  -GOLD-   2272018543D 1   1.00000     0.00000
 Structure written by MMmdl.
 39 40  0  0  0  0  0  0  0  0  1 V2000
  151.2049  141.6105  157.0921 C   0  0  0  0  0  0  0  0  0  0  0  0
  150.3050  141.1460  155.9384 C   0  0  0  0  0  0  0  0  0  0  0  0
  148.8200  141.4193  156.2214 C   0  0  0  0  0  0  0  0  0  0  0  0
  150.5501  139.7008  155.5966 C   0  0  0  0  0  0  0  0  0  0  0  0
  150.9111  139.2931  154.3820 N   0  0  0  0  0  0  0  0  0  0  0  0
  151.0017  137.9100  154.4753 C   0  0  0  0  0  0  0  0  0  0  0  0
  150.6790  137.5206  155.7513 C   0  0  0  0  0  0  0  0  0  0  0  0
  150.3826  138.6769  156.4634 N   0  0  0  0  0  0  0  0  0  0  0  0
  149.9685  138.7130  157.8588 C   0  0  0  0  0  0  0  0  0  0  0  0
  149.8656  137.3029  158.4446 C   0  0  0  0  0  0  0  0  0  0  0  0
  150.8604  136.5790  158.4826 O   0  0  0  0  0  0  0  0  0  0  0  0
  148.6577  136.9247  158.8906 N   0  0  0  0  0  0  0  0  0  0  0  0
  148.3485  135.6259  159.4774 C   0  0  0  0  0  0  0  0  0  0  0  0
  147.5052  135.7709  160.7549 C   0  0  1  0  0  0  0  0  0  0  0  0
  147.4792  134.5147  161.6197 C   0  0  0  0  0  0  0  0  0  0  0  0
  147.0413  135.0686  162.9592 C   0  0  0  0  0  0  0  0  0  0  0  0
  147.6455  136.4747  162.9686 C   0  0  0  0  0  0  0  0  0  0  0  0
  148.0581  136.7440  161.6313 O   0  0  0  0  0  0  0  0  0  0  0  0
  152.2583  141.4743  156.8450 H   0  0  0  0  0  0  0  0  0  0  0  0
  151.0019  141.0506  158.0055 H   0  0  0  0  0  0  0  0  0  0  0  0
  151.0516  142.6679  157.3086 H   0  0  0  0  0  0  0  0  0  0  0  0
  150.5634  141.7583  155.0771 H   0  0  0  0  0  0  0  0  0  0  0  0
  148.2007  141.1363  155.3697 H   0  0  0  0  0  0  0  0  0  0  0  0
  148.6460  142.4774  156.4184 H   0  0  0  0  0  0  0  0  0  0  0  0
  148.4696  140.8591  157.0889 H   0  0  0  0  0  0  0  0  0  0  0  0
  151.2850  137.3078  153.6249 H   0  0  0  0  0  0  0  0  0  0  0  0
  150.6280  136.5391  156.1994 H   0  0  0  0  0  0  0  0  0  0  0  0
  150.7060  139.2773  158.4306 H   0  0  0  0  0  0  0  0  0  0  0  0
  149.0276  139.2569  157.9484 H   0  0  0  0  0  0  0  0  0  0  0  0
  147.8978  137.5860  158.8219 H   0  0  0  0  0  0  0  0  0  0  0  0
  147.7891  135.0562  158.7351 H   0  0  0  0  0  0  0  0  0  0  0  0
  149.2601  135.0598  159.6763 H   0  0  0  0  0  0  0  0  0  0  0  0
  146.4831  136.0629  160.5065 H   0  0  0  0  0  0  0  0  0  0  0  0
  146.8080  133.7459  161.2361 H   0  0  0  0  0  0  0  0  0  0  0  0
  148.4797  134.0873  161.7025 H   0  0  0  0  0  0  0  0  0  0  0  0
  145.9529  135.1319  162.9971 H   0  0  0  0  0  0  0  0  0  0  0  0
  147.3744  134.4581  163.7990 H   0  0  0  0  0  0  0  0  0  0  0  0
  146.9175  137.2155  163.3004 H   0  0  0  0  0  0  0  0  0  0  0  0
  148.5124  136.5332  163.6273 H   0  0  0  0  0  0  0  0  0  0  0  0
  1  2  1  0  0  0  0
  1 19  1  0  0  0  0
  1 20  1  0  0  0  0
  1 21  1  0  0  0  0
  2  3  1  0  0  0  0
  2  4  1  0  0  0  0
  2 22  1  0  0  0  0
  3 23  1  0  0  0  0
  3 24  1  0  0  0  0
  3 25  1  0  0  0  0
  4  8  1  0  0  0  0
  4  5  2  0  0  0  0
  5  6  1  0  0  0  0
  6  7  2  0  0  0  0
  6 26  1  0  0  0  0
  7  8  1  0  0  0  0
  7 27  1  0  0  0  0
  8  9  1  0  0  0  0
  9 10  1  0  0  0  0
  9 28  1  0  0  0  0
  9 29  1  0  0  0  0
 10 11  2  0  0  0  0
 10 12  1  0  0  0  0
 12 13  1  0  0  0  0
 12 30  1  0  0  0  0
 13 14  1  0  0  0  0
 13 31  1  0  0  0  0
 13 32  1  0  0  0  0
 14 18  1  0  0  0  0
 14 15  1  0  0  0  0
 14 33  1  0  0  0  0
 15 16  1  0  0  0  0
 15 34  1  0  0  0  0
 15 35  1  0  0  0  0
 16 17  1  0  0  0  0
 16 36  1  0  0  0  0
 16 37  1  0  0  0  0
 17 18  1  0  0  0  0
 17 38  1  0  0  0  0
 17 39  1  0  0  0  0
M  END
> <s_m_source_file>
AV-unprocessed.smi

> <i_m_source_file_index>
3289

> <i_lp_mmshare_version>
43012

> <i_f3d_flags>
0

> <s_epik_input>
W0NIM11bQ0hdKFtDSDNdKWMxbltjSF1bY0hdbjFbQ0gyXUMoPU8pW05IXVtDSDJdW0NAQEhdMltDSDJdW0NIMl1bQ0gyXU8y

> <s_epik_cmdline>
J2VwaWtfcHl0aG9uJywgJy1waCcsICc3LjAnLCAnLXRuJywgJzgnLCAnLW1hJywgJzIwMCcsICctbWV0YWxfYmluZGluZycsICctaW1hZScsICc8aW5maWxlLm1hZT4nLCAnLW9tYWUnLCAnPG91dGZpbGUubWFlPic=

> <r_lp_tautomer_probability>
1

> <r_epik_Ionization_Penalty>
0.587725

> <r_epik_Ionization_Penalty_Charging>
0.587725

> <r_epik_Ionization_Penalty_Neutral>
1.43432e-07

> <r_epik_State_Penalty>
0.601029

> <r_epik_Charging_Adjusted_Penalty>
1.18875

> <i_epik_Tot_Q>
0

> <i_epik_Tot_abs_Q>
0

> <r_epik_Metal_State_Penalty>
0.297663

> <b_epik_Metal_Only>
0

> <s_lp_Force_Field>
OPLS_2005

> <r_lp_Energy>
18.4157

> <b_lp_Chiralities_Consistent>
1

> <s_lp_Variant>
AV-unprocessed.smi:3289-4

> <Gold.Version>
5.8.1

> <Gold.Id.Protein>
6NUR|6NUR_protein|mol2

> <Gold.PLP.Fitness>
45.2208

> <Gold.PLP.PLP>
-34.1442

> <Gold.PLP.part.hbond>
-3.1000

> <Gold.PLP.part.metal>
0.0000

> <Gold.PLP.part.buried>
-5.9533

> <Gold.PLP.part.nonpolar>
-26.5769

> <Gold.PLP.part.repulsive>
0.3042

> <Gold.PLP.ligand.clash>
0.0000

> <Gold.PLP.ligand.torsion>
0.2466

> <Gold.PLP.Chemscore.Hbond>
2.8480

> <Gold.PLP.Chemscore.CHOScore>
0.9842

> <Gold.PLP.Chemscore.Metal>
0.0000

> <Gold.Chemscore.Hbonds>
donor molecule, donor type, donor heavy atom, donor atom, acceptor molecule, acceptor atom, score
      P1  H  6896  6908       L1    11  0.84
      P1  H  6931  6943       L1    18  0.95
      P1  H  7989  7998       L1     5  1.00
      L1  C     6    26       P1  7949  1.00

> <Gold.PLP.Chemscore.Internal.Correction>
0.0732

> <Gold.Rescore>
     Score         DG    S(hbond)    S(metal)    S(lipo)     H(rot)  DE(clash)    DE(int)     intcor
     18.15     -19.50       2.85        0.00      76.21       1.72       0.03       1.32       ----

> <Gold.Chemscore.Fitness>
18.1466

> <Gold.Chemscore.DG>
-19.5046

> <Gold.Chemscore.ZeroCoef>
-5.4800

> <Gold.Chemscore.Hbond>
2.8459

> <Gold.Chemscore.Metal>
0.0000

> <Gold.Chemscore.Lipo>
76.2058

> <Gold.Chemscore.Internal_Hbond>
0.0000

> <Gold.Chemscore.DEClash>
0.0343

> <Gold.Chemscore.DEInternal>
1.3236

> <Gold.Chemscore.Rot>
1.7175

> <Gold.Chemscore.Internal.Correction>
   9.000000E+99

> <Gold.Chemscore.Hbonds>
donor molecule, donor type, donor heavy atom, donor atom, acceptor molecule, acceptor atom, score
      P1  H  6896  6908       L1    11  0.78
      P1  H  6931  6943       L1    18  0.22
      P1  H  7989  7998       L1     5  0.55

> <Gold.Chemscore.Hbond.Weighted>
-9.5052

> <Gold.Chemscore.Metal.Weighted>
-0.0000

> <Gold.Chemscore.Lipo.Weighted>
-8.9161

> <Gold.Chemscore.Internal_Hbond.Weighted>
0.0000

> <Gold.Chemscore.DEClash.Weighted>
0.0343

> <Gold.Chemscore.DEInternal.Weighted>
1.3236

> <Gold.Chemscore.Rot.Weighted>
4.3967

> <Gold.Chemscore.Internal.Correction.Weighted>
   9.000000E+99

> <Gold.Protein.RotatedTorsions>
[ 6907 6896 6895 6894 ] final -154.04 input  -60.11 | X-H torsion
[ 7974 7965 7964 7962 ] final  -75.54 input  175.53 | X-H torsion
[ 8008 7997 7996 7995 ] final -149.44 input   59.86 | X-H torsion
[ 10167 10162 10161 10158 ] final   62.73 input  -65.29 | X-H torsion
[ 10718 10713 10712 10709 ] final  -91.11 input   66.30 | X-H torsion
[ 10763 10752 10751 10750 ] final   68.12 input  -60.55 | X-H torsion
[ 11005 11000 10999 10996 ] final  -90.65 input  -57.11 | X-H torsion

> <Gold.Protein.ActiveResidues>
 VAL166  LYS551  ARG553  GLY616  TRP617  ASP618  TYR619  PRO620  LYS621  CYS622 
 ASP623  PHE694  ASN695  SER759  ASP760  ASP761  ALA762  ILE779  LEU786  VAL792 
 PHE793  MET794  SER795  GLU796  ALA797  LYS798  CYS799  TRP800  GLU811  SER814 

> <Gold.Protein.RotatedAtoms>
  151.2516  133.4347  159.2611 H   0  0  0  0  0  0  0  0  0  0  0  0  # atno 6907 bound_to 6896
  151.0612  134.9738  159.8271 H   0  0  0  0  0  0  0  0  0  0  0  0  # atno 6908 bound_to 6896
  152.5398  134.2466  159.8935 H   0  0  0  0  0  0  0  0  0  0  0  0  # atno 6909 bound_to 6896
  145.6246  140.9354  143.1120 H   0  0  0  0  0  0  0  0  0  0  0  0  # atno 7974 bound_to 7965
  155.6077  140.0668  157.2715 H   0  0  0  0  0  0  0  0  0  0  0  0  # atno 8008 bound_to 7997
  154.4262  140.1807  156.1287 H   0  0  0  0  0  0  0  0  0  0  0  0  # atno 8009 bound_to 7997
  156.0110  140.3326  155.6944 H   0  0  0  0  0  0  0  0  0  0  0  0  # atno 8010 bound_to 7997
  140.1407  144.4556  150.6812 H   0  0  0  0  0  0  0  0  0  0  0  0  # atno 10167 bound_to 10162
  155.9991  130.4935  150.5424 H   0  0  0  0  0  0  0  0  0  0  0  0  # atno 10718 bound_to 10713
  153.0220  135.5259  154.7086 H   0  0  0  0  0  0  0  0  0  0  0  0  # atno 10763 bound_to 10752
  154.6175  135.2885  155.0366 H   0  0  0  0  0  0  0  0  0  0  0  0  # atno 10764 bound_to 10752
  154.1365  135.6585  153.4985 H   0  0  0  0  0  0  0  0  0  0  0  0  # atno 10765 bound_to 10752
  141.1561  133.7705  156.9767 H   0  0  0  0  0  0  0  0  0  0  0  0  # atno 11005 bound_to 11000
  144.7217  139.8007  143.7379 LP  0  0  0  0  0  0  0  0  0  0  0  0  # atno 17320 bound_to 7965
  146.1404  139.4460  143.0112 LP  0  0  0  0  0  0  0  0  0  0  0  0  # atno 17321 bound_to 7965
  140.6762  143.2306  151.5502 LP  0  0  0  0  0  0  0  0  0  0  0  0  # atno 17342 bound_to 10162
  139.5473  144.2487  152.1466 LP  0  0  0  0  0  0  0  0  0  0  0  0  # atno 17343 bound_to 10162
  157.3359  131.0708  151.1826 LP  0  0  0  0  0  0  0  0  0  0  0  0  # atno 17370 bound_to 10713
  157.2690  130.6695  149.6010 LP  0  0  0  0  0  0  0  0  0  0  0  0  # atno 17371 bound_to 10713
  140.1093  134.9487  157.2041 LP  0  0  0  0  0  0  0  0  0  0  0  0  # atno 17394 bound_to 11000
  140.3215  134.2911  155.7245 LP  0  0  0  0  0  0  0  0  0  0  0  0  # atno 17395 bound_to 11000

$$$$
