AV-unprocessed.smi:995|AV-procd|sdf|4346|dock3
  -GOLD-   22720 2243D 1   1.00000     0.00000
 Structure written by MMmdl.
 37 38  0  0  0  0  0  0  0  0  1 V2000
  148.8210  136.1558  157.7492 O   0  0  0  0  0  0  0  0  0  0  0  0
  149.7273  135.6507  157.0866 C   0  0  0  0  0  0  0  0  0  0  0  0
  150.9021  136.2550  156.8256 N   0  0  0  0  0  0  0  0  0  0  0  0
  151.3293  137.5634  157.1799 C   0  0  0  0  0  0  0  0  0  0  0  0
  150.3543  138.4777  157.6271 C   0  0  0  0  0  0  0  0  0  0  0  0
  150.7499  139.7751  158.0030 C   0  0  0  0  0  0  0  0  0  0  0  0
  152.1147  140.1168  157.9285 C   0  0  0  0  0  0  0  0  0  0  0  0
  152.4966  141.3908  158.2954 O   0  0  0  0  0  0  0  0  0  0  0  0
  151.5069  142.2756  158.8144 C   0  0  0  0  0  0  0  0  0  0  0  0
  152.1942  143.5265  159.3820 C   0  0  0  0  0  0  0  0  0  0  0  0
  153.1074  143.1583  160.2817 F   0  0  0  0  0  0  0  0  0  0  0  0
  152.7928  144.1653  158.3759 F   0  0  0  0  0  0  0  0  0  0  0  0
  151.1986  144.4945  160.0410 C   0  0  0  0  0  0  0  0  0  0  0  0
  151.7657  145.6760  160.2865 F   0  0  0  0  0  0  0  0  0  0  0  0
  150.1273  144.6690  159.2670 F   0  0  0  0  0  0  0  0  0  0  0  0
  153.0629  139.2405  157.5151 N   0  0  0  0  0  0  0  0  0  0  0  0
  152.6772  137.9979  157.1548 C   0  0  0  0  0  0  0  0  0  0  0  0
  149.5757  134.2201  156.5468 C   0  0  1  0  0  0  0  0  0  0  0  0
  149.6668  134.1469  155.0046 C   0  0  0  0  0  0  0  0  0  0  0  0
  149.5562  132.7914  154.5898 O   0  0  0  0  0  0  0  0  0  0  0  0
  150.5910  131.9932  155.1465 C   0  0  0  0  0  0  0  0  0  0  0  0
  150.4945  132.0516  156.6792 C   0  0  0  0  0  0  0  0  0  0  0  0
  150.6079  133.4049  157.0984 O   0  0  0  0  0  0  0  0  0  0  0  0
  151.5892  135.6877  156.3501 H   0  0  0  0  0  0  0  0  0  0  0  0
  149.3136  138.1927  157.6792 H   0  0  0  0  0  0  0  0  0  0  0  0
  150.0201  140.4951  158.3427 H   0  0  0  0  0  0  0  0  0  0  0  0
  150.8107  142.5664  158.0259 H   0  0  0  0  0  0  0  0  0  0  0  0
  150.9350  141.7784  159.5998 H   0  0  0  0  0  0  0  0  0  0  0  0
  150.8449  144.1069  160.9967 H   0  0  0  0  0  0  0  0  0  0  0  0
  153.4843  137.3444  156.8631 H   0  0  0  0  0  0  0  0  0  0  0  0
  148.6057  133.8442  156.8773 H   0  0  0  0  0  0  0  0  0  0  0  0
  148.8577  134.7123  154.5410 H   0  0  0  0  0  0  0  0  0  0  0  0
  150.6048  134.5721  154.6429 H   0  0  0  0  0  0  0  0  0  0  0  0
  150.4769  130.9667  154.7979 H   0  0  0  0  0  0  0  0  0  0  0  0
  151.5656  132.3442  154.8036 H   0  0  0  0  0  0  0  0  0  0  0  0
  149.5524  131.6257  157.0282 H   0  0  0  0  0  0  0  0  0  0  0  0
  151.2980  131.4705  157.1317 H   0  0  0  0  0  0  0  0  0  0  0  0
  1  2  2  0  0  0  0
  2  3  1  0  0  0  0
  2 18  1  0  0  0  0
  3  4  1  0  0  0  0
  3 24  1  0  0  0  0
  4 17  1  0  0  0  0
  4  5  2  0  0  0  0
  5  6  1  0  0  0  0
  5 25  1  0  0  0  0
  6  7  2  0  0  0  0
  6 26  1  0  0  0  0
  7  8  1  0  0  0  0
  7 16  1  0  0  0  0
  8  9  1  0  0  0  0
  9 10  1  0  0  0  0
  9 27  1  0  0  0  0
  9 28  1  0  0  0  0
 10 11  1  0  0  0  0
 10 12  1  0  0  0  0
 10 13  1  0  0  0  0
 13 14  1  0  0  0  0
 13 15  1  0  0  0  0
 13 29  1  0  0  0  0
 16 17  2  0  0  0  0
 17 30  1  0  0  0  0
 18 23  1  0  0  0  0
 18 19  1  0  0  0  0
 18 31  1  0  0  0  0
 19 20  1  0  0  0  0
 19 32  1  0  0  0  0
 19 33  1  0  0  0  0
 20 21  1  0  0  0  0
 21 22  1  0  0  0  0
 21 34  1  0  0  0  0
 21 35  1  0  0  0  0
 22 23  1  0  0  0  0
 22 36  1  0  0  0  0
 22 37  1  0  0  0  0
M  END
> <s_m_source_file>
AV-unprocessed.smi

> <i_m_source_file_index>
995

> <i_lp_mmshare_version>
43012

> <i_f3d_flags>
0

> <s_epik_input>
TzFbQ0gyXVtDSDJdT1tDSDJdW0NASF0xQyg9TylbTkhdYzJbY0hdW2NIXWMobltjSF0yKU9bQ0gyXUMoRikoRilbQ0hdKEYpRg==

> <s_epik_cmdline>
J2VwaWtfcHl0aG9uJywgJy1waCcsICc3LjAnLCAnLXRuJywgJzgnLCAnLW1hJywgJzIwMCcsICctbWV0YWxfYmluZGluZycsICctaW1hZScsICc8aW5maWxlLm1hZT4nLCAnLW9tYWUnLCAnPG91dGZpbGUubWFlPic=

> <r_lp_tautomer_probability>
1

> <r_epik_Ionization_Penalty>
2.54436e-06

> <r_epik_Ionization_Penalty_Charging>
0

> <r_epik_Ionization_Penalty_Neutral>
2.54436e-06

> <r_epik_State_Penalty>
-0

> <r_epik_Charging_Adjusted_Penalty>
0

> <i_epik_Tot_Q>
0

> <i_epik_Tot_abs_Q>
0

> <r_epik_Metal_State_Penalty>
-0

> <b_epik_Metal_Only>
0

> <s_lp_Force_Field>
OPLS_2005

> <r_lp_Energy>
9.88959

> <b_lp_Chiralities_Consistent>
1

> <s_lp_Variant>
AV-unprocessed.smi:995-2

> <Gold.Version>
5.8.1

> <Gold.Id.Protein>
6NUR|6NUR_protein|mol2

> <Gold.PLP.Fitness>
42.1791

> <Gold.PLP.PLP>
-37.5461

> <Gold.PLP.part.hbond>
-2.0000

> <Gold.PLP.part.metal>
0.0000

> <Gold.PLP.part.buried>
-4.8204

> <Gold.PLP.part.nonpolar>
-30.5720

> <Gold.PLP.part.repulsive>
0.1544

> <Gold.PLP.ligand.clash>
0.5180

> <Gold.PLP.ligand.torsion>
0.3453

> <Gold.PLP.Chemscore.Hbond>
1.8960

> <Gold.PLP.Chemscore.CHOScore>
0.0000

> <Gold.PLP.Chemscore.Metal>
0.0000

> <Gold.Chemscore.Hbonds>
donor molecule, donor type, donor heavy atom, donor atom, acceptor molecule, acceptor atom, score
      P1  H  6896  6907       L1    23  0.64
      P1  H  7997  8008       L1    16  1.00

> <Gold.PLP.Chemscore.Internal.Correction>
0.1536

> <Gold.Rescore>
     Score         DG    S(hbond)    S(metal)    S(lipo)     H(rot)  DE(clash)    DE(int)     intcor
     11.51     -13.18       1.68        0.00      64.26       2.12       0.03       1.65       ----

> <Gold.Chemscore.Fitness>
11.5071

> <Gold.Chemscore.DG>
-13.1792

> <Gold.Chemscore.ZeroCoef>
-5.4800

> <Gold.Chemscore.Hbond>
1.6768

> <Gold.Chemscore.Metal>
0.0000

> <Gold.Chemscore.Lipo>
64.2621

> <Gold.Chemscore.Internal_Hbond>
0.0000

> <Gold.Chemscore.DEClash>
0.0253

> <Gold.Chemscore.DEInternal>
1.6468

> <Gold.Chemscore.Rot>
2.1172

> <Gold.Chemscore.Internal.Correction>
   9.000000E+99

> <Gold.Chemscore.Hbonds>
donor molecule, donor type, donor heavy atom, donor atom, acceptor molecule, acceptor atom, score
      P1  H  6896  6907       L1    23  0.49
      P1  H  7997  8008       L1    16  0.87

> <Gold.Chemscore.Hbond.Weighted>
-5.6005

> <Gold.Chemscore.Metal.Weighted>
-0.0000

> <Gold.Chemscore.Lipo.Weighted>
-7.5187

> <Gold.Chemscore.Internal_Hbond.Weighted>
0.0000

> <Gold.Chemscore.DEClash.Weighted>
0.0253

> <Gold.Chemscore.DEInternal.Weighted>
1.6468

> <Gold.Chemscore.Rot.Weighted>
5.4200

> <Gold.Chemscore.Internal.Correction.Weighted>
   9.000000E+99

> <Gold.Protein.RotatedTorsions>
[ 6907 6896 6895 6894 ] final -139.58 input  -60.11 | X-H torsion
[ 7974 7965 7964 7962 ] final   13.84 input  175.53 | X-H torsion
[ 8008 7997 7996 7995 ] final  -89.54 input   59.86 | X-H torsion
[ 10167 10162 10161 10158 ] final -143.06 input  -65.29 | X-H torsion
[ 10718 10713 10712 10709 ] final  103.20 input   66.30 | X-H torsion
[ 10763 10752 10751 10750 ] final  102.36 input  -60.55 | X-H torsion
[ 11005 11000 10999 10996 ] final -122.09 input  -57.11 | X-H torsion

> <Gold.Protein.ActiveResidues>
 VAL166  LYS551  ARG553  GLY616  TRP617  ASP618  TYR619  PRO620  LYS621  CYS622 
 ASP623  PHE694  ASN695  SER759  ASP760  ASP761  ALA762  ILE779  LEU786  VAL792 
 PHE793  MET794  SER795  GLU796  ALA797  LYS798  CYS799  TRP800  GLU811  SER814 

> <Gold.Protein.RotatedAtoms>
  151.0496  133.5635  159.2643 H   0  0  0  0  0  0  0  0  0  0  0  0  # atno 6907 bound_to 6896
  151.2651  135.0666  159.9123 H   0  0  0  0  0  0  0  0  0  0  0  0  # atno 6908 bound_to 6896
  152.5379  134.0236  159.8046 H   0  0  0  0  0  0  0  0  0  0  0  0  # atno 6909 bound_to 6896
  146.2320  139.9129  142.8521 H   0  0  0  0  0  0  0  0  0  0  0  0  # atno 7974 bound_to 7965
  154.6878  140.0540  157.0332 H   0  0  0  0  0  0  0  0  0  0  0  0  # atno 8008 bound_to 7997
  155.0859  140.3214  155.4569 H   0  0  0  0  0  0  0  0  0  0  0  0  # atno 8009 bound_to 7997
  156.2717  140.2056  156.5987 H   0  0  0  0  0  0  0  0  0  0  0  0  # atno 8010 bound_to 7997
  139.8029  143.7809  152.2659 H   0  0  0  0  0  0  0  0  0  0  0  0  # atno 10167 bound_to 10162
  157.6779  131.0773  150.5519 H   0  0  0  0  0  0  0  0  0  0  0  0  # atno 10718 bound_to 10713
  153.3386  135.4013  155.1553 H   0  0  0  0  0  0  0  0  0  0  0  0  # atno 10763 bound_to 10752
  154.8639  135.3628  154.5376 H   0  0  0  0  0  0  0  0  0  0  0  0  # atno 10764 bound_to 10752
  153.5819  135.7076  153.5519 H   0  0  0  0  0  0  0  0  0  0  0  0  # atno 10765 bound_to 10752
  141.0021  134.0387  157.3523 H   0  0  0  0  0  0  0  0  0  0  0  0  # atno 11005 bound_to 11000
  145.2211  140.9935  143.4045 LP  0  0  0  0  0  0  0  0  0  0  0  0  # atno 17320 bound_to 7965
  144.9609  139.3981  143.6356 LP  0  0  0  0  0  0  0  0  0  0  0  0  # atno 17321 bound_to 7965
  139.7934  144.7402  150.9923 LP  0  0  0  0  0  0  0  0  0  0  0  0  # atno 17342 bound_to 10162
  140.7820  143.4419  151.0540 LP  0  0  0  0  0  0  0  0  0  0  0  0  # atno 17343 bound_to 10162
  156.5824  130.4308  149.5972 LP  0  0  0  0  0  0  0  0  0  0  0  0  # atno 17370 bound_to 10713
  156.2651  130.6984  151.1765 LP  0  0  0  0  0  0  0  0  0  0  0  0  # atno 17371 bound_to 10713
  139.9044  135.0175  156.7420 LP  0  0  0  0  0  0  0  0  0  0  0  0  # atno 17394 bound_to 11000
  140.6871  133.9423  155.7944 LP  0  0  0  0  0  0  0  0  0  0  0  0  # atno 17395 bound_to 11000

$$$$
