AV-unprocessed.smi:72|AV-procd|sdf|728|dock5
  -GOLD-   2262017 53D 1   1.00000     0.00000
 Structure written by MMmdl.
 28 29  0  0  0  0  0  0  0  0  2 V2000
  154.2113  137.9356  155.4101 N   0  0  0  0  0  0  0  0  0  0  0  0
  153.0612  138.4024  155.1889 C   0  0  0  0  0  0  0  0  0  0  0  0
  152.1503  137.6971  154.3137 N   0  0  0  0  0  0  0  0  0  0  0  0
  150.9788  138.2180  154.1127 C   0  0  0  0  0  0  0  0  0  0  0  0
  150.5788  139.4735  154.7355 N   0  0  0  0  0  0  0  0  0  0  0  0
  149.2084  140.0874  154.5077 C   0  0  1  0  0  0  0  0  0  0  0  0
  148.4948  139.3268  153.5719 O   0  0  0  0  0  0  0  0  0  0  0  0
  147.3805  138.7101  154.2052 C   0  0  2  0  0  0  0  0  0  0  0  0
  146.2987  138.3438  153.1735 C   0  0  0  0  0  0  0  0  0  0  0  0
  146.3237  139.1977  152.0481 O   0  0  0  0  0  0  0  0  0  0  0  0
  146.9908  139.6959  155.3066 C   0  0  1  0  0  0  0  0  0  0  0  0
  146.1927  139.1092  156.3181 O   0  0  0  0  0  0  0  0  0  0  0  0
  148.3553  140.1690  155.8001 C   0  0  1  0  0  0  0  0  0  0  0  0
  148.8505  139.3626  156.8592 O   0  0  0  0  0  0  0  0  0  0  0  0
  151.4902  140.1383  155.5977 C   0  0  0  0  0  0  0  0  0  0  0  0
  151.1234  141.1859  156.1309 O   0  0  0  0  0  0  0  0  0  0  0  0
  152.7180  139.5857  155.8046 N   0  5  0  0  0  0  0  0  0  0  0  0
  149.3934  141.0618  154.0527 H   0  0  0  0  0  0  0  0  0  0  0  0
  147.7462  137.7899  154.6643 H   0  0  0  0  0  0  0  0  0  0  0  0
  146.4597  140.5502  154.8861 H   0  0  0  0  0  0  0  0  0  0  0  0
  148.3200  141.2023  156.1466 H   0  0  0  0  0  0  0  0  0  0  0  0
  154.3820  137.0686  154.9221 H   0  0  0  0  0  0  0  0  0  0  0  0
  150.2310  137.7491  153.4733 H   0  0  0  0  0  0  0  0  0  0  0  0
  146.4135  137.3091  152.8498 H   0  0  0  0  0  0  0  0  0  0  0  0
  145.3131  138.4266  153.6322 H   0  0  0  0  0  0  0  0  0  0  0  0
  145.4914  139.6412  151.9898 H   0  0  0  0  0  0  0  0  0  0  0  0
  145.6432  139.7816  156.6903 H   0  0  0  0  0  0  0  0  0  0  0  0
  149.6457  138.9429  156.5666 H   0  0  0  0  0  0  0  0  0  0  0  0
  1  2  2  0  0  0  0
  1 22  1  0  0  0  0
  2 17  1  0  0  0  0
  2  3  1  0  0  0  0
  3  4  2  0  0  0  0
  4  5  1  0  0  0  0
  4 23  1  0  0  0  0
  5  6  1  0  0  0  0
  5 15  1  0  0  0  0
  6 18  1  0  0  0  0
  6 13  1  0  0  0  0
  6  7  1  0  0  0  0
  7  8  1  0  0  0  0
  8 19  1  0  0  0  0
  8  9  1  0  0  0  0
  8 11  1  0  0  0  0
  9 10  1  0  0  0  0
  9 24  1  0  0  0  0
  9 25  1  0  0  0  0
 10 26  1  0  0  0  0
 11 20  1  0  0  0  0
 11 12  1  0  0  0  0
 11 13  1  0  0  0  0
 12 27  1  0  0  0  0
 13 21  1  0  0  0  0
 13 14  1  0  0  0  0
 14 28  1  0  0  0  0
 15 16  2  0  0  0  0
 15 17  1  0  0  0  0
M  CHG  1  17  -1
M  END
> <s_m_source_file>
AV-unprocessed.smi

> <i_m_source_file_index>
72

> <i_lp_mmshare_version>
43012

> <i_f3d_flags>
0

> <s_epik_input>
W05IMl1jMW5bY0hdbihjKD1PKW4xKVtDQEBIXTJPW0NASF0oW0NIMl1bT0hdKVtDQEBIXShbT0hdKVtDQEhdMltPSF0=

> <s_epik_cmdline>
J2VwaWtfcHl0aG9uJywgJy1waCcsICc3LjAnLCAnLXRuJywgJzgnLCAnLW1hJywgJzIwMCcsICctbWV0YWxfYmluZGluZycsICctaW1hZScsICc8aW5maWxlLm1hZT4nLCAnLW9tYWUnLCAnPG91dGZpbGUubWFlPic=

> <r_lp_tautomer_probability>
7.17554e-07

> <r_epik_Ionization_Penalty>
12.8705

> <r_epik_Ionization_Penalty_Charging>
5.64144

> <r_epik_Ionization_Penalty_Neutral>
7.22905

> <r_epik_State_Penalty>
3.30104

> <r_epik_Charging_Adjusted_Penalty>
8.94249

> <i_epik_Tot_Q>
-1

> <i_epik_Tot_abs_Q>
1

> <r_epik_Metal_State_Penalty>
0.529074

> <b_epik_Metal_Only>
1

> <s_epik_Chemistry_Notes>
This compound contains an acetal/aminal-like group ( X-CH(R)-Y where X, Y are N, S, or O) that may be acid/base labile, releasing an aldehyde.

> <s_lp_Force_Field>
OPLS_2005

> <r_lp_Energy>
43.5119

> <b_lp_Chiralities_Consistent>
1

> <s_lp_Variant>
AV-unprocessed.smi:72-66

> <Gold.Version>
5.8.1

> <Gold.Id.Protein>
6NUR|6NUR_protein|mol2

> <Gold.PLP.Fitness>
36.3240

> <Gold.PLP.PLP>
-23.3517

> <Gold.PLP.part.hbond>
-5.0000

> <Gold.PLP.part.metal>
0.0000

> <Gold.PLP.part.buried>
-4.4543

> <Gold.PLP.part.nonpolar>
-15.5429

> <Gold.PLP.part.repulsive>
2.7267

> <Gold.PLP.ligand.clash>
0.0000

> <Gold.PLP.ligand.torsion>
0.4314

> <Gold.PLP.Chemscore.Hbond>
3.5330

> <Gold.PLP.Chemscore.CHOScore>
1.0709

> <Gold.PLP.Chemscore.Metal>
0.0000

> <Gold.Chemscore.Hbonds>
donor molecule, donor type, donor heavy atom, donor atom, acceptor molecule, acceptor atom, score
      L1  H    10    26       P1 10175  0.99
      P1  H  7997  8008       L1    17  1.90
      P1  H 10752 10765       L1     3  0.52
      L1  C     4    23       P1  7948  1.00
      L1  C     4    23       P1  7949  0.07

> <Gold.PLP.Chemscore.Internal.Correction>
0.0236

> <Gold.Rescore>
     Score         DG    S(hbond)    S(metal)    S(lipo)     H(rot)  DE(clash)    DE(int)     intcor
      2.38      -3.69       2.23        0.00       9.55       4.04       0.09       1.23       ----

> <Gold.Chemscore.Fitness>
2.3815

> <Gold.Chemscore.DG>
-3.6941

> <Gold.Chemscore.ZeroCoef>
-5.4800

> <Gold.Chemscore.Hbond>
2.2275

> <Gold.Chemscore.Metal>
0.0000

> <Gold.Chemscore.Lipo>
9.5506

> <Gold.Chemscore.Internal_Hbond>
0.0000

> <Gold.Chemscore.DEClash>
0.0873

> <Gold.Chemscore.DEInternal>
1.2252

> <Gold.Chemscore.Rot>
4.0403

> <Gold.Chemscore.Internal.Correction>
   9.000000E+99

> <Gold.Chemscore.Hbonds>
donor molecule, donor type, donor heavy atom, donor atom, acceptor molecule, acceptor atom, score
      L1  H    10    26       P1 10175  0.81
      P1  H  7997  8008       L1    17  0.22
      P1  H 10752 10765       L1     3  0.21

> <Gold.Chemscore.Hbond.Weighted>
-7.4398

> <Gold.Chemscore.Metal.Weighted>
-0.0000

> <Gold.Chemscore.Lipo.Weighted>
-1.1174

> <Gold.Chemscore.Internal_Hbond.Weighted>
0.0000

> <Gold.Chemscore.DEClash.Weighted>
0.0873

> <Gold.Chemscore.DEInternal.Weighted>
1.2252

> <Gold.Chemscore.Rot.Weighted>
10.3431

> <Gold.Chemscore.Internal.Correction.Weighted>
   9.000000E+99

> <Gold.Protein.RotatedTorsions>
[ 6907 6896 6895 6894 ] final -104.25 input  -60.11 | X-H torsion
[ 7974 7965 7964 7962 ] final  -12.99 input  175.53 | X-H torsion
[ 8008 7997 7996 7995 ] final  -43.00 input   59.86 | X-H torsion
[ 10167 10162 10161 10158 ] final  -56.79 input  -65.29 | X-H torsion
[ 10718 10713 10712 10709 ] final    5.95 input   66.30 | X-H torsion
[ 10763 10752 10751 10750 ] final  158.70 input  -60.55 | X-H torsion
[ 11005 11000 10999 10996 ] final   81.88 input  -57.11 | X-H torsion

> <Gold.Protein.ActiveResidues>
 VAL166  LYS551  ARG553  GLY616  TRP617  ASP618  TYR619  PRO620  LYS621  CYS622 
 ASP623  PHE694  ASN695  SER759  ASP760  ASP761  ALA762  ILE779  LEU786  VAL792 
 PHE793  MET794  SER795  GLU796  ALA797  LYS798  CYS799  TRP800  GLU811  SER814 

> <Gold.Protein.RotatedAtoms>
  150.7278  134.0305  159.3731 H   0  0  0  0  0  0  0  0  0  0  0  0  # atno 6907 bound_to 6896
  151.8275  135.0630  160.0442 H   0  0  0  0  0  0  0  0  0  0  0  0  # atno 6908 bound_to 6896
  152.2958  133.5570  159.5623 H   0  0  0  0  0  0  0  0  0  0  0  0  # atno 6909 bound_to 6896
  146.2131  140.3137  142.8384 H   0  0  0  0  0  0  0  0  0  0  0  0  # atno 7974 bound_to 7965
  154.3997  140.1459  156.3447 H   0  0  0  0  0  0  0  0  0  0  0  0  # atno 8008 bound_to 7997
  155.8324  140.3465  155.5559 H   0  0  0  0  0  0  0  0  0  0  0  0  # atno 8009 bound_to 7997
  155.8174  140.0893  157.1859 H   0  0  0  0  0  0  0  0  0  0  0  0  # atno 8010 bound_to 7997
  140.6296  143.2453  151.5274 H   0  0  0  0  0  0  0  0  0  0  0  0  # atno 10167 bound_to 10162
  156.9149  130.5770  149.5647 H   0  0  0  0  0  0  0  0  0  0  0  0  # atno 10718 bound_to 10713
  154.2201  135.2782  155.2927 H   0  0  0  0  0  0  0  0  0  0  0  0  # atno 10763 bound_to 10752
  154.5708  135.5619  153.7097 H   0  0  0  0  0  0  0  0  0  0  0  0  # atno 10764 bound_to 10752
  153.0043  135.6321  154.2341 H   0  0  0  0  0  0  0  0  0  0  0  0  # atno 10765 bound_to 10752
  139.9083  134.8030  156.2100 H   0  0  0  0  0  0  0  0  0  0  0  0  # atno 11005 bound_to 11000
  144.8969  140.7595  143.5891 LP  0  0  0  0  0  0  0  0  0  0  0  0  # atno 17320 bound_to 7965
  145.3062  139.1834  143.4663 LP  0  0  0  0  0  0  0  0  0  0  0  0  # atno 17321 bound_to 7965
  139.5512  144.2390  152.1534 LP  0  0  0  0  0  0  0  0  0  0  0  0  # atno 17342 bound_to 10162
  140.1631  144.5007  150.6621 LP  0  0  0  0  0  0  0  0  0  0  0  0  # atno 17343 bound_to 10162
  156.0518  130.5586  150.9006 LP  0  0  0  0  0  0  0  0  0  0  0  0  # atno 17370 bound_to 10713
  157.5944  131.0943  150.9065 LP  0  0  0  0  0  0  0  0  0  0  0  0  # atno 17371 bound_to 10713
  141.0471  133.6907  156.1704 LP  0  0  0  0  0  0  0  0  0  0  0  0  # atno 17394 bound_to 11000
  140.6867  134.4709  157.5589 LP  0  0  0  0  0  0  0  0  0  0  0  0  # atno 17395 bound_to 11000

$$$$
