AV-unprocessed.smi:109|AV-procd|sdf|1034|dock3
  -GOLD-   2262018 43D 1   1.00000     0.00000
 Structure written by MMmdl.
 58 61  0  0  0  0  0  0  0  0  1 V2000
  151.0201  139.9202  154.9083 O   0  0  0  0  0  0  0  0  0  0  0  0
  150.0362  140.7330  155.5104 C   0  0  0  0  0  0  0  0  0  0  0  0
  150.7025  141.9278  156.2112 C   0  0  0  0  0  0  0  0  0  0  0  0
  151.2627  141.5704  157.6057 C   0  0  1  0  0  0  0  0  0  0  0  0
  152.2300  140.4795  157.4852 N   0  0  0  0  0  0  0  0  0  0  0  0
  152.1754  139.3898  158.2834 C   0  0  0  0  0  0  0  0  0  0  0  0
  151.0066  138.7344  158.5070 N   0  0  0  0  0  0  0  0  0  0  0  0
  150.9854  137.6552  159.2941 C   0  0  0  0  0  0  0  0  0  0  0  0
  151.9983  137.0746  159.9400 N   0  0  0  0  0  0  0  0  0  0  0  0
  153.1764  137.7280  159.7209 C   0  0  0  0  0  0  0  0  0  0  0  0
  153.3443  138.8859  158.9107 C   0  0  0  0  0  0  0  0  0  0  0  0
  154.6772  139.2749  158.9151 N   0  0  0  0  0  0  0  0  0  0  0  0
  155.2604  138.3938  159.6821 C   0  0  0  0  0  0  0  0  0  0  0  0
  154.4343  137.4242  160.2061 N   0  0  0  0  0  0  0  0  0  0  0  0
  154.8279  136.2897  161.1049 C   0  0  1  0  0  0  0  0  0  0  0  0
  156.2113  136.3169  161.3100 O   0  0  0  0  0  0  0  0  0  0  0  0
  156.4911  136.3966  162.7050 C   0  0  2  0  0  0  0  0  0  0  0  0
  157.8456  135.7419  163.0290 C   0  0  0  0  0  0  0  0  0  0  0  0
  158.9159  136.3752  162.3587 O   0  0  0  0  0  0  0  0  0  0  0  0
  155.2498  135.8127  163.3844 C   0  0  1  0  0  0  0  0  0  0  0  0
  155.1114  136.2009  164.7385 O   0  0  0  0  0  0  0  0  0  0  0  0
  154.1386  136.3397  162.4858 C   0  0  1  0  0  0  0  0  0  0  0  0
  153.7020  137.6395  162.8546 O   0  0  0  0  0  0  0  0  0  0  0  0
  151.8797  142.7738  158.3705 C   0  0  0  0  0  0  0  0  0  0  0  0
  152.0613  142.4928  159.8782 C   0  0  0  0  0  0  0  0  0  0  0  0
  152.7663  143.6609  160.5868 C   0  0  0  0  0  0  0  0  0  0  0  0
  152.0095  144.9805  160.3702 C   0  0  0  0  0  0  0  0  0  0  0  0
  151.8194  145.2712  158.8733 C   0  0  0  0  0  0  0  0  0  0  0  0
  151.1172  144.1022  158.1625 C   0  0  0  0  0  0  0  0  0  0  0  0
  154.5757  135.3903  160.5419 H   0  0  0  0  0  0  0  0  0  0  0  0
  156.5581  137.4581  162.9482 H   0  0  0  0  0  0  0  0  0  0  0  0
  155.2574  134.7238  163.3274 H   0  0  0  0  0  0  0  0  0  0  0  0
  153.2717  135.6783  162.4846 H   0  0  0  0  0  0  0  0  0  0  0  0
  151.5854  139.5818  155.5860 H   0  0  0  0  0  0  0  0  0  0  0  0
  149.3409  141.0759  154.7435 H   0  0  0  0  0  0  0  0  0  0  0  0
  149.4685  140.1293  156.2191 H   0  0  0  0  0  0  0  0  0  0  0  0
  151.4975  142.3229  155.5774 H   0  0  0  0  0  0  0  0  0  0  0  0
  149.9614  142.7211  156.2998 H   0  0  0  0  0  0  0  0  0  0  0  0
  150.4152  141.2130  158.1918 H   0  0  0  0  0  0  0  0  0  0  0  0
  152.9394  140.6016  156.7767 H   0  0  0  0  0  0  0  0  0  0  0  0
  150.0197  137.1892  159.4234 H   0  0  0  0  0  0  0  0  0  0  0  0
  156.3209  138.4244  159.8853 H   0  0  0  0  0  0  0  0  0  0  0  0
  158.0281  135.7524  164.1038 H   0  0  0  0  0  0  0  0  0  0  0  0
  157.8310  134.6968  162.7194 H   0  0  0  0  0  0  0  0  0  0  0  0
  159.2383  137.0764  162.9041 H   0  0  0  0  0  0  0  0  0  0  0  0
  154.5134  136.9312  164.7815 H   0  0  0  0  0  0  0  0  0  0  0  0
  153.5031  138.1230  162.0676 H   0  0  0  0  0  0  0  0  0  0  0  0
  152.8848  142.9207  157.9723 H   0  0  0  0  0  0  0  0  0  0  0  0
  151.0963  142.3241  160.3554 H   0  0  0  0  0  0  0  0  0  0  0  0
  152.6403  141.5795  160.0200 H   0  0  0  0  0  0  0  0  0  0  0  0
  152.8506  143.4519  161.6535 H   0  0  0  0  0  0  0  0  0  0  0  0
  153.7851  143.7569  160.2094 H   0  0  0  0  0  0  0  0  0  0  0  0
  151.0357  144.9274  160.8589 H   0  0  0  0  0  0  0  0  0  0  0  0
  152.5491  145.8013  160.8433 H   0  0  0  0  0  0  0  0  0  0  0  0
  151.2407  146.1861  158.7435 H   0  0  0  0  0  0  0  0  0  0  0  0
  152.7901  145.4512  158.4093 H   0  0  0  0  0  0  0  0  0  0  0  0
  151.0307  144.3259  157.0990 H   0  0  0  0  0  0  0  0  0  0  0  0
  150.0999  144.0165  158.5454 H   0  0  0  0  0  0  0  0  0  0  0  0
  1  2  1  0  0  0  0
  1 34  1  0  0  0  0
  2  3  1  0  0  0  0
  2 35  1  0  0  0  0
  2 36  1  0  0  0  0
  3  4  1  0  0  0  0
  3 37  1  0  0  0  0
  3 38  1  0  0  0  0
  4  5  1  0  0  0  0
  4 24  1  0  0  0  0
  4 39  1  0  0  0  0
  5  6  1  0  0  0  0
  5 40  1  0  0  0  0
  6 11  1  0  0  0  0
  6  7  2  0  0  0  0
  7  8  1  0  0  0  0
  8  9  2  0  0  0  0
  8 41  1  0  0  0  0
  9 10  1  0  0  0  0
 10 14  1  0  0  0  0
 10 11  2  0  0  0  0
 11 12  1  0  0  0  0
 12 13  2  0  0  0  0
 13 14  1  0  0  0  0
 13 42  1  0  0  0  0
 14 15  1  0  0  0  0
 15 30  1  0  0  0  0
 15 22  1  0  0  0  0
 15 16  1  0  0  0  0
 16 17  1  0  0  0  0
 17 31  1  0  0  0  0
 17 18  1  0  0  0  0
 17 20  1  0  0  0  0
 18 19  1  0  0  0  0
 18 43  1  0  0  0  0
 18 44  1  0  0  0  0
 19 45  1  0  0  0  0
 20 32  1  0  0  0  0
 20 21  1  0  0  0  0
 20 22  1  0  0  0  0
 21 46  1  0  0  0  0
 22 33  1  0  0  0  0
 22 23  1  0  0  0  0
 23 47  1  0  0  0  0
 24 29  1  0  0  0  0
 24 25  1  0  0  0  0
 24 48  1  0  0  0  0
 25 26  1  0  0  0  0
 25 49  1  0  0  0  0
 25 50  1  0  0  0  0
 26 27  1  0  0  0  0
 26 51  1  0  0  0  0
 26 52  1  0  0  0  0
 27 28  1  0  0  0  0
 27 53  1  0  0  0  0
 27 54  1  0  0  0  0
 28 29  1  0  0  0  0
 28 55  1  0  0  0  0
 28 56  1  0  0  0  0
 29 57  1  0  0  0  0
 29 58  1  0  0  0  0
M  END
> <s_m_source_file>
AV-unprocessed.smi

> <i_m_source_file_index>
109

> <i_lp_mmshare_version>
43012

> <i_f3d_flags>
0

> <s_epik_input>
W0NIMl0xW0NIMl1bQ0gyXVtDSDJdW0NIMl1bQ0hdMVtDQEhdKFtDSDJdW0NIMl1bT0hdKVtOSF1jKG5bY0hdbjIpYyhjMjMpbltjSF1uM1tDQEBIXTRPW0NASF0oW0NIMl1bT0hdKVtDQEBIXShbT0hdKVtDQEhdNFtPSF0=

> <s_epik_cmdline>
J2VwaWtfcHl0aG9uJywgJy1waCcsICc3LjAnLCAnLXRuJywgJzgnLCAnLW1hJywgJzIwMCcsICctbWV0YWxfYmluZGluZycsICctaW1hZScsICc8aW5maWxlLm1hZT4nLCAnLW9tYWUnLCAnPG91dGZpbGUubWFlPic=

> <r_lp_tautomer_probability>
1

> <r_epik_Ionization_Penalty>
0.000793976

> <r_epik_Ionization_Penalty_Charging>
0

> <r_epik_Ionization_Penalty_Neutral>
0.000793976

> <r_epik_State_Penalty>
-0

> <r_epik_Charging_Adjusted_Penalty>
0

> <i_epik_Tot_Q>
0

> <i_epik_Tot_abs_Q>
0

> <r_epik_Metal_State_Penalty>
-0

> <b_epik_Metal_Only>
0

> <s_epik_Chemistry_Notes>
This compound contains an acetal/aminal-like group ( X-CH(R)-Y where X, Y are N, S, or O) that may be acid/base labile, releasing an aldehyde.

> <s_lp_Force_Field>
OPLS_2005

> <r_lp_Energy>
63.9822

> <b_lp_Chiralities_Consistent>
1

> <s_lp_Variant>
AV-unprocessed.smi:109-4

> <Gold.Version>
5.8.1

> <Gold.Id.Protein>
6NUR|6NUR_protein|mol2

> <Gold.PLP.Fitness>
52.1861

> <Gold.PLP.PLP>
-44.7971

> <Gold.PLP.part.hbond>
-3.5264

> <Gold.PLP.part.metal>
0.0000

> <Gold.PLP.part.buried>
-7.4016

> <Gold.PLP.part.nonpolar>
-34.1415

> <Gold.PLP.part.repulsive>
0.1123

> <Gold.PLP.ligand.clash>
0.0000

> <Gold.PLP.ligand.torsion>
0.9886

> <Gold.PLP.Chemscore.Hbond>
3.0000

> <Gold.PLP.Chemscore.CHOScore>
0.0000

> <Gold.PLP.Chemscore.Metal>
0.0000

> <Gold.Chemscore.Hbonds>
donor molecule, donor type, donor heavy atom, donor atom, acceptor molecule, acceptor atom, score
      P1  H  6896  6909       L1     9  1.00
      P1  H  7989  7998       L1     1  1.00
      P1  H  7997  8008       L1    12  1.00

> <Gold.PLP.Chemscore.Internal.Correction>
0.3660

> <Gold.Rescore>
     Score         DG    S(hbond)    S(metal)    S(lipo)     H(rot)  DE(clash)    DE(int)     intcor
     12.58     -13.64       2.83        0.00     108.70       5.47       0.00       1.06       ----

> <Gold.Chemscore.Fitness>
12.5797

> <Gold.Chemscore.DG>
-13.6424

> <Gold.Chemscore.ZeroCoef>
-5.4800

> <Gold.Chemscore.Hbond>
2.8256

> <Gold.Chemscore.Metal>
0.0000

> <Gold.Chemscore.Lipo>
108.7041

> <Gold.Chemscore.Internal_Hbond>
0.0000

> <Gold.Chemscore.DEClash>
0.0025

> <Gold.Chemscore.DEInternal>
1.0602

> <Gold.Chemscore.Rot>
5.4662

> <Gold.Chemscore.Internal.Correction>
   9.000000E+99

> <Gold.Chemscore.Hbonds>
donor molecule, donor type, donor heavy atom, donor atom, acceptor molecule, acceptor atom, score
      P1  H  6896  6909       L1     9  0.86
      P1  H  7989  7998       L1     1  0.55
      P1  H  7997  8008       L1    12  0.88

> <Gold.Chemscore.Hbond.Weighted>
-9.4375

> <Gold.Chemscore.Metal.Weighted>
-0.0000

> <Gold.Chemscore.Lipo.Weighted>
-12.7184

> <Gold.Chemscore.Internal_Hbond.Weighted>
0.0000

> <Gold.Chemscore.DEClash.Weighted>
0.0025

> <Gold.Chemscore.DEInternal.Weighted>
1.0602

> <Gold.Chemscore.Rot.Weighted>
13.9935

> <Gold.Chemscore.Internal.Correction.Weighted>
   9.000000E+99

> <Gold.Protein.RotatedTorsions>
[ 6907 6896 6895 6894 ] final  144.02 input  -60.11 | X-H torsion
[ 7974 7965 7964 7962 ] final  -95.40 input  175.53 | X-H torsion
[ 8008 7997 7996 7995 ] final -128.90 input   59.86 | X-H torsion
[ 10167 10162 10161 10158 ] final   96.62 input  -65.29 | X-H torsion
[ 10718 10713 10712 10709 ] final  112.97 input   66.30 | X-H torsion
[ 10763 10752 10751 10750 ] final   85.25 input  -60.55 | X-H torsion
[ 11005 11000 10999 10996 ] final -139.40 input  -57.11 | X-H torsion

> <Gold.Protein.ActiveResidues>
 VAL166  LYS551  ARG553  GLY616  TRP617  ASP618  TYR619  PRO620  LYS621  CYS622 
 ASP623  PHE694  ASN695  SER759  ASP760  ASP761  ALA762  ILE779  LEU786  VAL792 
 PHE793  MET794  SER795  GLU796  ALA797  LYS798  CYS799  TRP800  GLU811  SER814 

> <Gold.Protein.RotatedAtoms>
  152.1989  133.4826  159.5047 H   0  0  0  0  0  0  0  0  0  0  0  0  # atno 6907 bound_to 6896
  150.6965  134.1616  159.4187 H   0  0  0  0  0  0  0  0  0  0  0  0  # atno 6908 bound_to 6896
  151.9533  135.0158  160.0594 H   0  0  0  0  0  0  0  0  0  0  0  0  # atno 6909 bound_to 6896
  145.3605  140.9491  143.2503 H   0  0  0  0  0  0  0  0  0  0  0  0  # atno 7974 bound_to 7965
  155.2704  140.0439  157.3006 H   0  0  0  0  0  0  0  0  0  0  0  0  # atno 8008 bound_to 7997
  154.5657  140.2359  155.8236 H   0  0  0  0  0  0  0  0  0  0  0  0  # atno 8009 bound_to 7997
  156.2083  140.3006  155.9683 H   0  0  0  0  0  0  0  0  0  0  0  0  # atno 8010 bound_to 7997
  139.7877  144.6864  150.9934 H   0  0  0  0  0  0  0  0  0  0  0  0  # atno 10167 bound_to 10162
  157.6364  131.0976  150.6973 H   0  0  0  0  0  0  0  0  0  0  0  0  # atno 10718 bound_to 10713
  153.1458  135.4624  154.9563 H   0  0  0  0  0  0  0  0  0  0  0  0  # atno 10763 bound_to 10752
  154.7784  135.3180  154.8044 H   0  0  0  0  0  0  0  0  0  0  0  0  # atno 10764 bound_to 10752
  153.8558  135.6917  153.4842 H   0  0  0  0  0  0  0  0  0  0  0  0  # atno 10765 bound_to 10752
  140.8523  134.2271  157.4754 H   0  0  0  0  0  0  0  0  0  0  0  0  # atno 11005 bound_to 11000
  144.8650  139.5122  143.6794 LP  0  0  0  0  0  0  0  0  0  0  0  0  # atno 17320 bound_to 7965
  146.2929  139.7192  142.9148 LP  0  0  0  0  0  0  0  0  0  0  0  0  # atno 17321 bound_to 7965
  140.7820  143.4414  151.0546 LP  0  0  0  0  0  0  0  0  0  0  0  0  # atno 17342 bound_to 10162
  139.8092  143.7975  152.3170 LP  0  0  0  0  0  0  0  0  0  0  0  0  # atno 17343 bound_to 10162
  156.7304  130.4708  149.5501 LP  0  0  0  0  0  0  0  0  0  0  0  0  # atno 17370 bound_to 10713
  156.1606  130.6371  151.0714 LP  0  0  0  0  0  0  0  0  0  0  0  0  # atno 17371 bound_to 10713
  139.8704  134.9689  156.4648 LP  0  0  0  0  0  0  0  0  0  0  0  0  # atno 17394 bound_to 11000
  140.8776  133.7941  155.9432 LP  0  0  0  0  0  0  0  0  0  0  0  0  # atno 17395 bound_to 11000

$$$$
