AV-unprocessed.smi:1985|AV-procd|sdf|8042|dock7
  -GOLD-   2272010233D 1   1.00000     0.00000
 Structure written by MMmdl.
 50 51  0  0  0  0  0  0  0  0  1 V2000
  149.5493  131.8843  154.2083 C   0  0  0  0  0  0  0  0  0  0  0  0
  148.9623  133.3015  154.0945 C   0  0  0  0  0  0  0  0  0  0  0  0
  147.4071  133.3950  154.2442 C   0  0  1  0  0  0  0  0  0  0  0  0
  147.0300  132.5230  155.4712 C   0  0  0  0  0  0  0  0  0  0  0  0
  147.0239  134.8732  154.5813 C   0  0  0  0  0  0  0  0  0  0  0  0
  147.7193  135.3839  155.7549 N   0  0  0  0  0  0  0  0  0  0  0  0
  147.4012  135.1524  157.0371 C   0  0  0  0  0  0  0  0  0  0  0  0
  146.4368  134.4676  157.3746 O   0  0  0  0  0  0  0  0  0  0  0  0
  148.2982  135.7852  158.1163 C   0  0  0  0  0  0  0  0  0  0  0  0
  147.8112  135.5974  159.4934 N   0  0  0  0  0  0  0  0  0  0  0  0
  147.4994  134.3244  159.9362 C   0  0  0  0  0  0  0  0  0  0  0  0
  146.9884  134.0652  161.1591 C   0  0  0  0  0  0  0  0  0  0  0  0
  146.7304  135.1441  162.1040 C   0  0  0  0  0  0  0  0  0  0  0  0
  146.2486  134.9645  163.2233 O   0  0  0  0  0  0  0  0  0  0  0  0
  147.0700  136.4331  161.6340 N   0  0  0  0  0  0  0  0  0  0  0  0
  146.8141  137.5358  162.5372 C   0  0  0  0  0  0  0  0  0  0  0  0
  147.6040  136.7004  160.3520 C   0  0  0  0  0  0  0  0  0  0  0  0
  147.8651  137.8429  159.9691 O   0  0  0  0  0  0  0  0  0  0  0  0
  146.7153  132.9482  152.9983 N   0  0  0  0  0  0  0  0  0  0  0  0
  145.2506  133.0681  153.0157 C   0  0  0  0  0  0  0  0  0  0  0  0
  144.6017  132.4757  151.7536 C   0  0  0  0  0  0  0  0  0  0  0  0
  145.1355  133.1087  150.5983 O   0  0  0  0  0  0  0  0  0  0  0  0
  146.5460  132.9568  150.5058 C   0  0  0  0  0  0  0  0  0  0  0  0
  147.2167  133.5514  151.7560 C   0  0  0  0  0  0  0  0  0  0  0  0
  150.6368  131.9153  154.1441 H   0  0  0  0  0  0  0  0  0  0  0  0
  149.1968  131.2356  153.4067 H   0  0  0  0  0  0  0  0  0  0  0  0
  149.2904  131.4171  155.1582 H   0  0  0  0  0  0  0  0  0  0  0  0
  149.4561  133.9458  154.8206 H   0  0  0  0  0  0  0  0  0  0  0  0
  149.2826  133.7221  153.1406 H   0  0  0  0  0  0  0  0  0  0  0  0
  147.5589  132.8441  156.3693 H   0  0  0  0  0  0  0  0  0  0  0  0
  147.2858  131.4742  155.3255 H   0  0  0  0  0  0  0  0  0  0  0  0
  145.9663  132.5756  155.7011 H   0  0  0  0  0  0  0  0  0  0  0  0
  147.2392  135.5302  153.7375 H   0  0  0  0  0  0  0  0  0  0  0  0
  145.9547  134.9571  154.7783 H   0  0  0  0  0  0  0  0  0  0  0  0
  148.5286  135.9602  155.5758 H   0  0  0  0  0  0  0  0  0  0  0  0
  149.2964  135.3559  158.0200 H   0  0  0  0  0  0  0  0  0  0  0  0
  148.4165  136.8476  157.8970 H   0  0  0  0  0  0  0  0  0  0  0  0
  147.6637  133.4918  159.2670 H   0  0  0  0  0  0  0  0  0  0  0  0
  146.7612  133.0471  161.4400 H   0  0  0  0  0  0  0  0  0  0  0  0
  147.2136  138.4707  162.1455 H   0  0  0  0  0  0  0  0  0  0  0  0
  147.3057  137.3065  163.4846 H   0  0  0  0  0  0  0  0  0  0  0  0
  145.7315  137.6057  162.6568 H   0  0  0  0  0  0  0  0  0  0  0  0
  144.8233  132.5464  153.8692 H   0  0  0  0  0  0  0  0  0  0  0  0
  144.9568  134.1142  153.1016 H   0  0  0  0  0  0  0  0  0  0  0  0
  144.7719  131.3994  151.7008 H   0  0  0  0  0  0  0  0  0  0  0  0
  143.5227  132.6281  151.7763 H   0  0  0  0  0  0  0  0  0  0  0  0
  146.7995  131.9010  150.3975 H   0  0  0  0  0  0  0  0  0  0  0  0
  146.9004  133.4645  149.6087 H   0  0  0  0  0  0  0  0  0  0  0  0
  147.0507  134.6286  151.7650 H   0  0  0  0  0  0  0  0  0  0  0  0
  148.2880  133.3956  151.6486 H   0  0  0  0  0  0  0  0  0  0  0  0
  1  2  1  0  0  0  0
  1 25  1  0  0  0  0
  1 26  1  0  0  0  0
  1 27  1  0  0  0  0
  2  3  1  0  0  0  0
  2 28  1  0  0  0  0
  2 29  1  0  0  0  0
  3  4  1  0  0  0  0
  3  5  1  0  0  0  0
  3 19  1  0  0  0  0
  4 30  1  0  0  0  0
  4 31  1  0  0  0  0
  4 32  1  0  0  0  0
  5  6  1  0  0  0  0
  5 33  1  0  0  0  0
  5 34  1  0  0  0  0
  6  7  1  0  0  0  0
  6 35  1  0  0  0  0
  7  8  2  0  0  0  0
  7  9  1  0  0  0  0
  9 10  1  0  0  0  0
  9 36  1  0  0  0  0
  9 37  1  0  0  0  0
 10 17  1  0  0  0  0
 10 11  1  0  0  0  0
 11 12  2  0  0  0  0
 11 38  1  0  0  0  0
 12 13  1  0  0  0  0
 12 39  1  0  0  0  0
 13 14  2  0  0  0  0
 13 15  1  0  0  0  0
 15 16  1  0  0  0  0
 15 17  1  0  0  0  0
 16 40  1  0  0  0  0
 16 41  1  0  0  0  0
 16 42  1  0  0  0  0
 17 18  2  0  0  0  0
 19 24  1  0  0  0  0
 19 20  1  0  0  0  0
 20 21  1  0  0  0  0
 20 43  1  0  0  0  0
 20 44  1  0  0  0  0
 21 22  1  0  0  0  0
 21 45  1  0  0  0  0
 21 46  1  0  0  0  0
 22 23  1  0  0  0  0
 23 24  1  0  0  0  0
 23 47  1  0  0  0  0
 23 48  1  0  0  0  0
 24 49  1  0  0  0  0
 24 50  1  0  0  0  0
M  END
> <s_m_source_file>
AV-unprocessed.smi

> <i_m_source_file_index>
1985

> <i_lp_mmshare_version>
43012

> <i_f3d_flags>
0

> <s_epik_input>
W0NIMl0xW0NIMl1PW0NIMl1bQ0gyXU4xW0NAQF0oW0NIM10pKFtDSDJdW0NIM10pW0NIMl1bTkhdQyg9TylbQ0gyXW4yW2NIXVtjSF1jKD1PKW4oW0NIM10pYzI9Tw==

> <s_epik_cmdline>
J2VwaWtfcHl0aG9uJywgJy1waCcsICc3LjAnLCAnLXRuJywgJzgnLCAnLW1hJywgJzIwMCcsICctbWV0YWxfYmluZGluZycsICctaW1hZScsICc8aW5maWxlLm1hZT4nLCAnLW9tYWUnLCAnPG91dGZpbGUubWFlPic=

> <r_lp_tautomer_probability>
1

> <r_epik_Ionization_Penalty>
0.318667

> <r_epik_Ionization_Penalty_Charging>
1.17294e-08

> <r_epik_Ionization_Penalty_Neutral>
0.318667

> <r_epik_State_Penalty>
0.313095

> <r_epik_Charging_Adjusted_Penalty>
0.313095

> <i_epik_Tot_Q>
0

> <i_epik_Tot_abs_Q>
0

> <r_epik_Metal_State_Penalty>
0.313065

> <b_epik_Metal_Only>
0

> <s_lp_Force_Field>
OPLS_2005

> <r_lp_Energy>
50.9195

> <b_lp_Chiralities_Consistent>
1

> <s_lp_Variant>
AV-unprocessed.smi:1985-1

> <Gold.Version>
5.8.1

> <Gold.Id.Protein>
6NUR|6NUR_protein|mol2

> <Gold.PLP.Fitness>
38.4624

> <Gold.PLP.PLP>
-36.5020

> <Gold.PLP.part.hbond>
-3.0000

> <Gold.PLP.part.metal>
0.0000

> <Gold.PLP.part.buried>
-4.2183

> <Gold.PLP.part.nonpolar>
-29.9081

> <Gold.PLP.part.repulsive>
0.2565

> <Gold.PLP.ligand.clash>
0.0000

> <Gold.PLP.ligand.torsion>
0.5270

> <Gold.PLP.Chemscore.Hbond>
0.9433

> <Gold.PLP.Chemscore.CHOScore>
0.0000

> <Gold.PLP.Chemscore.Metal>
0.0000

> <Gold.Chemscore.Hbonds>
donor molecule, donor type, donor heavy atom, donor atom, acceptor molecule, acceptor atom, score
      P1  H  6931  6943       L1    18  0.08
      P1  H  6934  6947       L1    18  0.58

> <Gold.PLP.Chemscore.Internal.Correction>
0.1846

> <Gold.Rescore>
     Score         DG    S(hbond)    S(metal)    S(lipo)     H(rot)  DE(clash)    DE(int)     intcor
      6.80     -10.39       0.79        0.00      67.38       2.20       0.62       2.96       ----

> <Gold.Chemscore.Fitness>
6.8015

> <Gold.Chemscore.DG>
-10.3865

> <Gold.Chemscore.ZeroCoef>
-5.4800

> <Gold.Chemscore.Hbond>
0.7911

> <Gold.Chemscore.Metal>
0.0000

> <Gold.Chemscore.Lipo>
67.3848

> <Gold.Chemscore.Internal_Hbond>
0.0000

> <Gold.Chemscore.DEClash>
0.6241

> <Gold.Chemscore.DEInternal>
2.9609

> <Gold.Chemscore.Rot>
2.1952

> <Gold.Chemscore.Internal.Correction>
   9.000000E+99

> <Gold.Chemscore.Hbonds>
donor molecule, donor type, donor heavy atom, donor atom, acceptor molecule, acceptor atom, score
      P1  H  6931  6943       L1    18  0.01
      P1  H  6934  6947       L1    18  0.51

> <Gold.Chemscore.Hbond.Weighted>
-2.6422

> <Gold.Chemscore.Metal.Weighted>
-0.0000

> <Gold.Chemscore.Lipo.Weighted>
-7.8840

> <Gold.Chemscore.Internal_Hbond.Weighted>
0.0000

> <Gold.Chemscore.DEClash.Weighted>
0.6241

> <Gold.Chemscore.DEInternal.Weighted>
2.9609

> <Gold.Chemscore.Rot.Weighted>
5.6197

> <Gold.Chemscore.Internal.Correction.Weighted>
   9.000000E+99

> <Gold.Protein.RotatedTorsions>
[ 6907 6896 6895 6894 ] final  -90.50 input  -60.11 | X-H torsion
[ 7974 7965 7964 7962 ] final  -20.41 input  175.53 | X-H torsion
[ 8008 7997 7996 7995 ] final  -96.86 input   59.86 | X-H torsion
[ 10167 10162 10161 10158 ] final  156.28 input  -65.29 | X-H torsion
[ 10718 10713 10712 10709 ] final    5.55 input   66.30 | X-H torsion
[ 10763 10752 10751 10750 ] final  179.43 input  -60.55 | X-H torsion
[ 11005 11000 10999 10996 ] final  135.53 input  -57.11 | X-H torsion

> <Gold.Protein.ActiveResidues>
 VAL166  LYS551  ARG553  GLY616  TRP617  ASP618  TYR619  PRO620  LYS621  CYS622 
 ASP623  PHE694  ASN695  SER759  ASP760  ASP761  ALA762  ILE779  LEU786  VAL792 
 PHE793  MET794  SER795  GLU796  ALA797  LYS798  CYS799  TRP800  GLU811  SER814 

> <Gold.Protein.RotatedAtoms>
  150.6882  134.2422  159.4476 H   0  0  0  0  0  0  0  0  0  0  0  0  # atno 6907 bound_to 6896
  152.0366  134.9734  160.0582 H   0  0  0  0  0  0  0  0  0  0  0  0  # atno 6908 bound_to 6896
  152.1252  133.4341  159.4731 H   0  0  0  0  0  0  0  0  0  0  0  0  # atno 6909 bound_to 6896
  146.1789  140.4199  142.8502 H   0  0  0  0  0  0  0  0  0  0  0  0  # atno 7974 bound_to 7965
  154.7801  140.0468  157.1120 H   0  0  0  0  0  0  0  0  0  0  0  0  # atno 8008 bound_to 7997
  154.9715  140.3090  155.4966 H   0  0  0  0  0  0  0  0  0  0  0  0  # atno 8009 bound_to 7997
  156.2935  140.2252  156.4808 H   0  0  0  0  0  0  0  0  0  0  0  0  # atno 8010 bound_to 7997
  139.4821  144.5023  151.8150 H   0  0  0  0  0  0  0  0  0  0  0  0  # atno 10167 bound_to 10162
  156.9091  130.5749  149.5647 H   0  0  0  0  0  0  0  0  0  0  0  0  # atno 10718 bound_to 10713
  154.5206  135.2794  155.1265 H   0  0  0  0  0  0  0  0  0  0  0  0  # atno 10763 bound_to 10752
  154.2824  135.6283  153.5356 H   0  0  0  0  0  0  0  0  0  0  0  0  # atno 10764 bound_to 10752
  152.9936  135.5654  154.5694 H   0  0  0  0  0  0  0  0  0  0  0  0  # atno 10765 bound_to 10752
  139.9986  134.9487  157.0020 H   0  0  0  0  0  0  0  0  0  0  0  0  # atno 11005 bound_to 11000
  144.8282  140.6664  143.6308 LP  0  0  0  0  0  0  0  0  0  0  0  0  # atno 17320 bound_to 7965
  145.4132  139.1576  143.4114 LP  0  0  0  0  0  0  0  0  0  0  0  0  # atno 17321 bound_to 7965
  140.4518  144.1845  150.5898 LP  0  0  0  0  0  0  0  0  0  0  0  0  # atno 17342 bound_to 10162
  140.4577  143.2461  151.9262 LP  0  0  0  0  0  0  0  0  0  0  0  0  # atno 17343 bound_to 10162
  156.0544  130.5608  150.9060 LP  0  0  0  0  0  0  0  0  0  0  0  0  # atno 17370 bound_to 10713
  157.5978  131.0942  150.9011 LP  0  0  0  0  0  0  0  0  0  0  0  0  # atno 17371 bound_to 10713
  140.4771  134.1327  155.7211 LP  0  0  0  0  0  0  0  0  0  0  0  0  # atno 17394 bound_to 11000
  141.1624  133.8768  157.1811 LP  0  0  0  0  0  0  0  0  0  0  0  0  # atno 17395 bound_to 11000

$$$$
