AV-unprocessed.smi:1535|AV-procd|sdf|6170|dock1
  -GOLD-   22720 6323D 1   1.00000     0.00000
 Structure written by MMmdl.
 46 47  0  0  0  0  0  0  0  0  1 V2000
  152.9163  143.1058  161.4034 C   0  0  0  0  0  0  0  0  0  0  0  0
  152.3610  142.7095  160.0468 C   0  0  0  0  0  0  0  0  0  0  0  0
  152.7727  141.4889  159.4659 C   0  0  0  0  0  0  0  0  0  0  0  0
  152.2814  141.0843  158.2057 C   0  0  0  0  0  0  0  0  0  0  0  0
  152.5435  139.9462  157.4626 N   0  0  0  0  0  0  0  0  0  0  0  0
  151.7853  140.1471  156.3887 C   0  0  0  0  0  0  0  0  0  0  0  0
  151.0607  141.2815  156.3488 N   0  0  0  0  0  0  0  0  0  0  0  0
  150.1649  141.7046  155.2876 C   0  0  0  0  0  0  0  0  0  0  0  0
  149.4742  140.5148  154.5954 C   0  0  2  0  0  0  0  0  0  0  0  0
  148.7019  141.0293  153.5305 O   0  0  0  0  0  0  0  0  0  0  0  0
  148.5449  139.7207  155.5387 C   0  0  0  0  0  0  0  0  0  0  0  0
  149.1530  138.6320  156.3157 N   0  0  0  0  0  0  0  0  0  0  0  0
  149.5309  137.5575  155.4055 C   0  0  0  0  0  0  0  0  0  0  0  0
  148.2639  138.1151  157.3612 C   0  0  0  0  0  0  0  0  0  0  0  0
  148.9195  137.1126  158.3329 C   0  0  2  0  0  0  0  0  0  0  0  0
  148.8702  135.6793  157.7876 C   0  0  0  0  0  0  0  0  0  0  0  0
  148.2971  137.1835  159.6646 C   0  0  0  0  0  0  0  0  0  0  0  0
  147.8084  137.2408  160.7116 N   0  0  0  0  0  0  0  0  0  0  0  0
  151.3591  141.9412  157.5365 C   0  0  0  0  0  0  0  0  0  0  0  0
  150.9412  143.1578  158.1044 C   0  0  0  0  0  0  0  0  0  0  0  0
  151.4428  143.5472  159.3640 C   0  0  0  0  0  0  0  0  0  0  0  0
  150.9876  144.8639  159.9681 C   0  0  0  0  0  0  0  0  0  0  0  0
  153.5776  142.3367  161.8035 H   0  0  0  0  0  0  0  0  0  0  0  0
  152.1080  143.2563  162.1193 H   0  0  0  0  0  0  0  0  0  0  0  0
  153.4878  144.0310  161.3256 H   0  0  0  0  0  0  0  0  0  0  0  0
  153.4721  140.8506  159.9853 H   0  0  0  0  0  0  0  0  0  0  0  0
  151.7516  139.4261  155.5849 H   0  0  0  0  0  0  0  0  0  0  0  0
  149.4260  142.3911  155.7031 H   0  0  0  0  0  0  0  0  0  0  0  0
  150.7472  142.2759  154.5630 H   0  0  0  0  0  0  0  0  0  0  0  0
  150.2544  139.8725  154.1905 H   0  0  0  0  0  0  0  0  0  0  0  0
  148.7056  140.3965  152.8283 H   0  0  0  0  0  0  0  0  0  0  0  0
  148.0690  140.4123  156.2342 H   0  0  0  0  0  0  0  0  0  0  0  0
  147.7315  139.3159  154.9342 H   0  0  0  0  0  0  0  0  0  0  0  0
  150.0404  136.7561  155.9416 H   0  0  0  0  0  0  0  0  0  0  0  0
  150.2155  137.9200  154.6378 H   0  0  0  0  0  0  0  0  0  0  0  0
  148.6565  137.1335  154.9094 H   0  0  0  0  0  0  0  0  0  0  0  0
  147.8403  138.9523  157.9188 H   0  0  0  0  0  0  0  0  0  0  0  0
  147.4002  137.6227  156.9112 H   0  0  0  0  0  0  0  0  0  0  0  0
  149.9677  137.3629  158.4844 H   0  0  0  0  0  0  0  0  0  0  0  0
  149.3724  134.9872  158.4641 H   0  0  0  0  0  0  0  0  0  0  0  0
  149.3642  135.6124  156.8180 H   0  0  0  0  0  0  0  0  0  0  0  0
  147.8421  135.3367  157.6656 H   0  0  0  0  0  0  0  0  0  0  0  0
  150.2389  143.7849  157.5754 H   0  0  0  0  0  0  0  0  0  0  0  0
  150.3087  145.3946  159.2999 H   0  0  0  0  0  0  0  0  0  0  0  0
  151.8428  145.5124  160.1594 H   0  0  0  0  0  0  0  0  0  0  0  0
  150.4648  144.6917  160.9090 H   0  0  0  0  0  0  0  0  0  0  0  0
  1  2  1  0  0  0  0
  1 23  1  0  0  0  0
  1 24  1  0  0  0  0
  1 25  1  0  0  0  0
  2 21  1  0  0  0  0
  2  3  2  0  0  0  0
  3  4  1  0  0  0  0
  3 26  1  0  0  0  0
  4 19  2  0  0  0  0
  4  5  1  0  0  0  0
  5  6  2  0  0  0  0
  6  7  1  0  0  0  0
  6 27  1  0  0  0  0
  7  8  1  0  0  0  0
  7 19  1  0  0  0  0
  8  9  1  0  0  0  0
  8 28  1  0  0  0  0
  8 29  1  0  0  0  0
  9 10  1  0  0  0  0
  9 11  1  0  0  0  0
  9 30  1  0  0  0  0
 10 31  1  0  0  0  0
 11 12  1  0  0  0  0
 11 32  1  0  0  0  0
 11 33  1  0  0  0  0
 12 13  1  0  0  0  0
 12 14  1  0  0  0  0
 13 34  1  0  0  0  0
 13 35  1  0  0  0  0
 13 36  1  0  0  0  0
 14 15  1  0  0  0  0
 14 37  1  0  0  0  0
 14 38  1  0  0  0  0
 15 16  1  0  0  0  0
 15 17  1  0  0  0  0
 15 39  1  0  0  0  0
 16 40  1  0  0  0  0
 16 41  1  0  0  0  0
 16 42  1  0  0  0  0
 17 18  3  0  0  0  0
 19 20  1  0  0  0  0
 20 21  2  0  0  0  0
 20 43  1  0  0  0  0
 21 22  1  0  0  0  0
 22 44  1  0  0  0  0
 22 45  1  0  0  0  0
 22 46  1  0  0  0  0
M  END
> <s_m_source_file>
AV-unprocessed.smi

> <i_m_source_file_index>
1535

> <i_lp_mmshare_version>
43012

> <i_f3d_flags>
0

> <s_epik_input>
W0NIM11jKFtjSF0xKWMoW0NIM10pW2NIXWMoYzEyKW4oW2NIXW4yKVtDSDJdW0NASF0oW09IXSlbQ0gyXU4oW0NIM10pW0NIMl1bQ0BIXShbQ0gzXSlDI04=

> <s_epik_cmdline>
J2VwaWtfcHl0aG9uJywgJy1waCcsICc3LjAnLCAnLXRuJywgJzgnLCAnLW1hJywgJzIwMCcsICctbWV0YWxfYmluZGluZycsICctaW1hZScsICc8aW5maWxlLm1hZT4nLCAnLW9tYWUnLCAnPG91dGZpbGUubWFlPic=

> <r_epik_Ionization_Penalty>
0.098511

> <r_epik_Ionization_Penalty_Charging>
0

> <r_epik_Ionization_Penalty_Neutral>
0.098511

> <r_epik_State_Penalty>
0.0881608

> <r_epik_Charging_Adjusted_Penalty>
0.0881608

> <i_epik_Tot_Q>
0

> <i_epik_Tot_abs_Q>
0

> <r_epik_Metal_State_Penalty>
0.0128087

> <b_epik_Metal_Only>
0

> <s_lp_Force_Field>
OPLS_2005

> <r_lp_Energy>
27.6844

> <b_lp_Chiralities_Consistent>
1

> <s_lp_Variant>
AV-unprocessed.smi:1535-1

> <Gold.Version>
5.8.1

> <Gold.Id.Protein>
6NUR|6NUR_protein|mol2

> <Gold.PLP.Fitness>
50.2073

> <Gold.PLP.PLP>
-40.6390

> <Gold.PLP.part.hbond>
-4.9601

> <Gold.PLP.part.metal>
0.0000

> <Gold.PLP.part.buried>
-4.8264

> <Gold.PLP.part.nonpolar>
-30.7519

> <Gold.PLP.part.repulsive>
0.0000

> <Gold.PLP.ligand.clash>
0.0000

> <Gold.PLP.ligand.torsion>
1.1184

> <Gold.PLP.Chemscore.Hbond>
3.8695

> <Gold.PLP.Chemscore.CHOScore>
0.0000

> <Gold.PLP.Chemscore.Metal>
0.0000

> <Gold.Chemscore.Hbonds>
donor molecule, donor type, donor heavy atom, donor atom, acceptor molecule, acceptor atom, score
      L1  H    10    31       P1  7957  0.80
      P1  H  6931  6943       L1    18  0.80
      P1  H  6934  6947       L1    18  0.85
      P1  H  7997  8010       L1     5  1.00
      P1  H  8011  8017       L1    10  0.40

> <Gold.PLP.Chemscore.Internal.Correction>
0.1967

> <Gold.Rescore>
     Score         DG    S(hbond)    S(metal)    S(lipo)     H(rot)  DE(clash)    DE(int)     intcor
     19.12     -20.57       2.89        0.00     101.57       2.51       0.22       1.24       ----

> <Gold.Chemscore.Fitness>
19.1170

> <Gold.Chemscore.DG>
-20.5747

> <Gold.Chemscore.ZeroCoef>
-5.4800

> <Gold.Chemscore.Hbond>
2.8864

> <Gold.Chemscore.Metal>
0.0000

> <Gold.Chemscore.Lipo>
101.5657

> <Gold.Chemscore.Internal_Hbond>
0.0000

> <Gold.Chemscore.DEClash>
0.2194

> <Gold.Chemscore.DEInternal>
1.2383

> <Gold.Chemscore.Rot>
2.5113

> <Gold.Chemscore.Internal.Correction>
   9.000000E+99

> <Gold.Chemscore.Hbonds>
donor molecule, donor type, donor heavy atom, donor atom, acceptor molecule, acceptor atom, score
      L1  H    10    31       P1  7957  0.79
      P1  H  6931  6943       L1    18  0.51
      P1  H  6934  6947       L1    18  0.47
      P1  H  7997  8010       L1     5  0.17
      P1  H  8011  8017       L1    10  0.02

> <Gold.Chemscore.Hbond.Weighted>
-9.6405

> <Gold.Chemscore.Metal.Weighted>
-0.0000

> <Gold.Chemscore.Lipo.Weighted>
-11.8832

> <Gold.Chemscore.Internal_Hbond.Weighted>
0.0000

> <Gold.Chemscore.DEClash.Weighted>
0.2194

> <Gold.Chemscore.DEInternal.Weighted>
1.2383

> <Gold.Chemscore.Rot.Weighted>
6.4289

> <Gold.Chemscore.Internal.Correction.Weighted>
   9.000000E+99

> <Gold.Protein.RotatedTorsions>
[ 6907 6896 6895 6894 ] final  137.06 input  -60.11 | X-H torsion
[ 7974 7965 7964 7962 ] final -143.46 input  175.53 | X-H torsion
[ 8008 7997 7996 7995 ] final   62.06 input   59.86 | X-H torsion
[ 10167 10162 10161 10158 ] final  166.50 input  -65.29 | X-H torsion
[ 10718 10713 10712 10709 ] final   24.57 input   66.30 | X-H torsion
[ 10763 10752 10751 10750 ] final  165.76 input  -60.55 | X-H torsion
[ 11005 11000 10999 10996 ] final -169.23 input  -57.11 | X-H torsion

> <Gold.Protein.ActiveResidues>
 VAL166  LYS551  ARG553  GLY616  TRP617  ASP618  TYR619  PRO620  LYS621  CYS622 
 ASP623  PHE694  ASN695  SER759  ASP760  ASP761  ALA762  ILE779  LEU786  VAL792 
 PHE793  MET794  SER795  GLU796  ALA797  LYS798  CYS799  TRP800  GLU811  SER814 

> <Gold.Protein.RotatedAtoms>
  152.2824  133.5483  159.5505 H   0  0  0  0  0  0  0  0  0  0  0  0  # atno 6907 bound_to 6896
  150.7201  134.0545  159.3819 H   0  0  0  0  0  0  0  0  0  0  0  0  # atno 6908 bound_to 6896
  151.8455  135.0576  160.0504 H   0  0  0  0  0  0  0  0  0  0  0  0  # atno 6909 bound_to 6896
  144.8368  140.5831  143.5479 H   0  0  0  0  0  0  0  0  0  0  0  0  # atno 7974 bound_to 7965
  155.6083  140.3494  155.4614 H   0  0  0  0  0  0  0  0  0  0  0  0  # atno 8008 bound_to 7997
  156.0174  140.1246  157.0416 H   0  0  0  0  0  0  0  0  0  0  0  0  # atno 8009 bound_to 7997
  154.4302  140.1069  156.5901 H   0  0  0  0  0  0  0  0  0  0  0  0  # atno 8010 bound_to 7997
  139.4926  144.4020  151.9398 H   0  0  0  0  0  0  0  0  0  0  0  0  # atno 10167 bound_to 10162
  157.1816  130.6805  149.6115 H   0  0  0  0  0  0  0  0  0  0  0  0  # atno 10718 bound_to 10713
  154.3288  135.2755  155.2482 H   0  0  0  0  0  0  0  0  0  0  0  0  # atno 10763 bound_to 10752
  154.4803  135.5860  153.6388 H   0  0  0  0  0  0  0  0  0  0  0  0  # atno 10764 bound_to 10752
  152.9868  135.6110  154.3479 H   0  0  0  0  0  0  0  0  0  0  0  0  # atno 10765 bound_to 10752
  140.5330  134.5597  157.5080 H   0  0  0  0  0  0  0  0  0  0  0  0  # atno 11005 bound_to 11000
  145.4779  139.1498  143.3778 LP  0  0  0  0  0  0  0  0  0  0  0  0  # atno 17320 bound_to 7965
  146.2665  140.4914  142.8832 LP  0  0  0  0  0  0  0  0  0  0  0  0  # atno 17321 bound_to 7965
  140.3460  144.3147  150.5958 LP  0  0  0  0  0  0  0  0  0  0  0  0  # atno 17342 bound_to 10162
  140.5526  143.2204  151.7902 LP  0  0  0  0  0  0  0  0  0  0  0  0  # atno 17343 bound_to 10162
  155.9723  130.4645  150.6219 LP  0  0  0  0  0  0  0  0  0  0  0  0  # atno 17370 bound_to 10713
  157.3947  131.0801  151.1362 LP  0  0  0  0  0  0  0  0  0  0  0  0  # atno 17371 bound_to 10713
  139.9544  134.7561  156.0375 LP  0  0  0  0  0  0  0  0  0  0  0  0  # atno 17394 bound_to 11000
  141.1270  133.6596  156.3364 LP  0  0  0  0  0  0  0  0  0  0  0  0  # atno 17395 bound_to 11000

$$$$
