AV-unprocessed.smi:2604|AV-procd|sdf|10189|dock6
  -GOLD-   2272014203D 1   1.00000     0.00000
 Structure written by MMmdl.
 26 27  0  0  0  0  0  0  0  0  2 V2000
  146.8679  134.7137  154.3977 C   0  0  0  0  0  0  0  0  0  0  0  0
  148.1031  134.0542  154.5521 C   0  0  0  0  0  0  0  0  0  0  0  0
  148.6660  133.3000  153.5837 N   0  0  0  0  0  0  0  0  0  0  0  0
  148.0029  133.1736  152.4144 C   0  0  0  0  0  0  0  0  0  0  0  0
  146.7571  133.7855  152.1552 C   0  0  0  0  0  0  0  0  0  0  0  0
  146.0771  133.6060  150.8077 C   0  0  2  0  0  0  0  0  0  0  0  0
  144.6392  134.1729  150.8286 C   0  0  0  0  0  0  0  0  0  0  0  0
  144.0067  134.0298  149.5015 N   0  3  0  0  0  0  0  0  0  0  0  0
  144.0341  132.6254  149.0480 C   0  0  0  0  0  0  0  0  0  0  0  0
  145.4810  132.0998  149.0524 C   0  0  0  0  0  0  0  0  0  0  0  0
  146.0395  132.2022  150.3970 N   0  0  0  0  0  0  0  0  0  0  0  0
  146.1836  134.5773  153.1748 C   0  0  0  0  0  0  0  0  0  0  0  0
  146.4565  135.3101  155.1986 H   0  0  0  0  0  0  0  0  0  0  0  0
  148.6545  134.1362  155.4771 H   0  0  0  0  0  0  0  0  0  0  0  0
  148.4838  132.5653  151.6623 H   0  0  0  0  0  0  0  0  0  0  0  0
  146.6654  134.1539  150.0695 H   0  0  0  0  0  0  0  0  0  0  0  0
  144.0295  133.6613  151.5750 H   0  0  0  0  0  0  0  0  0  0  0  0
  144.6511  135.2299  151.0960 H   0  0  0  0  0  0  0  0  0  0  0  0
  143.0503  134.3513  149.5475 H   0  0  0  0  0  0  0  0  0  0  0  0
  143.4026  132.0185  149.6986 H   0  0  0  0  0  0  0  0  0  0  0  0
  143.6111  132.5664  148.0449 H   0  0  0  0  0  0  0  0  0  0  0  0
  145.5005  131.0552  148.7410 H   0  0  0  0  0  0  0  0  0  0  0  0
  146.1006  132.6557  148.3472 H   0  0  0  0  0  0  0  0  0  0  0  0
  146.9758  131.8214  150.4065 H   0  0  0  0  0  0  0  0  0  0  0  0
  145.2361  135.0743  153.0251 H   0  0  0  0  0  0  0  0  0  0  0  0
  144.5157  134.5948  148.8371 H   0  0  0  0  0  0  0  0  0  0  0  0
  1 12  1  0  0  0  0
  1  2  2  0  0  0  0
  1 13  1  0  0  0  0
  2  3  1  0  0  0  0
  2 14  1  0  0  0  0
  3  4  2  0  0  0  0
  4  5  1  0  0  0  0
  4 15  1  0  0  0  0
  5  6  1  0  0  0  0
  5 12  2  0  0  0  0
  6 11  1  0  0  0  0
  6  7  1  0  0  0  0
  6 16  1  0  0  0  0
  7  8  1  0  0  0  0
  7 17  1  0  0  0  0
  7 18  1  0  0  0  0
  8  9  1  0  0  0  0
  8 19  1  0  0  0  0
  8 26  1  0  0  0  0
  9 10  1  0  0  0  0
  9 20  1  0  0  0  0
  9 21  1  0  0  0  0
 10 11  1  0  0  0  0
 10 22  1  0  0  0  0
 10 23  1  0  0  0  0
 11 24  1  0  0  0  0
 12 25  1  0  0  0  0
M  CHG  1   8   1
M  END
> <s_m_source_file>
AV-unprocessed.smi

> <i_m_source_file_index>
2604

> <i_lp_mmshare_version>
43012

> <i_f3d_flags>
0

> <s_epik_input>
W2NIXTFbY0hdW2NIXW5bY0hdYzFbQ0BASF0yW0NIMl1bTkhdW0NIMl1bQ0gyXVtOSF0y

> <s_epik_cmdline>
J2VwaWtfcHl0aG9uJywgJy1waCcsICc3LjAnLCAnLXRuJywgJzgnLCAnLW1hJywgJzIwMCcsICctbWV0YWxfYmluZGluZycsICctaW1hZScsICc8aW5maWxlLm1hZT4nLCAnLW9tYWUnLCAnPG91dGZpbGUubWFlPic=

> <r_epik_Ionization_Penalty>
0.0181456

> <r_epik_Ionization_Penalty_Charging>
0.010317

> <r_epik_Ionization_Penalty_Neutral>
0.00782861

> <r_epik_State_Penalty>
0.306622

> <r_epik_Charging_Adjusted_Penalty>
0.316939

> <i_epik_Tot_Q>
1

> <i_epik_Tot_abs_Q>
1

> <r_epik_Metal_State_Penalty>
0.302658

> <b_epik_Metal_Only>
0

> <s_lp_Force_Field>
OPLS_2005

> <r_lp_Energy>
10.6943

> <b_lp_Chiralities_Consistent>
1

> <s_lp_Variant>
AV-unprocessed.smi:2604-1

> <Gold.Version>
5.8.1

> <Gold.Id.Protein>
6NUR|6NUR_protein|mol2

> <Gold.PLP.Fitness>
34.9955

> <Gold.PLP.PLP>
-21.9262

> <Gold.PLP.part.hbond>
-2.3485

> <Gold.PLP.part.metal>
0.0000

> <Gold.PLP.part.buried>
-1.9856

> <Gold.PLP.part.nonpolar>
-17.0142

> <Gold.PLP.part.repulsive>
0.2644

> <Gold.PLP.ligand.clash>
0.0000

> <Gold.PLP.ligand.torsion>
0.2115

> <Gold.PLP.Chemscore.Hbond>
3.4948

> <Gold.PLP.Chemscore.CHOScore>
1.0000

> <Gold.PLP.Chemscore.Metal>
0.0000

> <Gold.Chemscore.Hbonds>
donor molecule, donor type, donor heavy atom, donor atom, acceptor molecule, acceptor atom, score
      L1  H     8    19       P1 10186  1.98
      L1  H     8    26       P1  7921  0.98
      L1  H    11    24       P1 10747  0.54
      L1  C     4    15       P1 10747  1.00

> <Gold.PLP.Chemscore.Internal.Correction>
0.0081

> <Gold.Rescore>
     Score         DG    S(hbond)    S(metal)    S(lipo)     H(rot)  DE(clash)    DE(int)     intcor
     18.84     -19.18       2.67        0.00      62.71       1.00       0.16       0.19       ----

> <Gold.Chemscore.Fitness>
18.8381

> <Gold.Chemscore.DG>
-19.1826

> <Gold.Chemscore.ZeroCoef>
-5.4800

> <Gold.Chemscore.Hbond>
2.6721

> <Gold.Chemscore.Metal>
0.0000

> <Gold.Chemscore.Lipo>
62.7145

> <Gold.Chemscore.Internal_Hbond>
0.0000

> <Gold.Chemscore.DEClash>
0.1569

> <Gold.Chemscore.DEInternal>
0.1876

> <Gold.Chemscore.Rot>
1.0000

> <Gold.Chemscore.Internal.Correction>
   9.000000E+99

> <Gold.Chemscore.Hbonds>
donor molecule, donor type, donor heavy atom, donor atom, acceptor molecule, acceptor atom, score
      L1  H     8    19       P1 10186  0.92
      L1  H     8    26       P1  7921  0.87
      L1  H    11    24       P1 10747  0.52

> <Gold.Chemscore.Hbond.Weighted>
-8.9250

> <Gold.Chemscore.Metal.Weighted>
-0.0000

> <Gold.Chemscore.Lipo.Weighted>
-7.3376

> <Gold.Chemscore.Internal_Hbond.Weighted>
0.0000

> <Gold.Chemscore.DEClash.Weighted>
0.1569

> <Gold.Chemscore.DEInternal.Weighted>
0.1876

> <Gold.Chemscore.Rot.Weighted>
2.5600

> <Gold.Chemscore.Internal.Correction.Weighted>
   9.000000E+99

> <Gold.Protein.RotatedTorsions>
[ 6907 6896 6895 6894 ] final    8.72 input  -60.11 | X-H torsion
[ 7974 7965 7964 7962 ] final  -48.98 input  175.53 | X-H torsion
[ 8008 7997 7996 7995 ] final    8.03 input   59.86 | X-H torsion
[ 10167 10162 10161 10158 ] final  -19.05 input  -65.29 | X-H torsion
[ 10718 10713 10712 10709 ] final  -33.65 input   66.30 | X-H torsion
[ 10763 10752 10751 10750 ] final   56.38 input  -60.55 | X-H torsion
[ 11005 11000 10999 10996 ] final   34.80 input  -57.11 | X-H torsion

> <Gold.Protein.ActiveResidues>
 VAL166  LYS551  ARG553  GLY616  TRP617  ASP618  TYR619  PRO620  LYS621  CYS622 
 ASP623  PHE694  ASN695  SER759  ASP760  ASP761  ALA762  ILE779  LEU786  VAL792 
 PHE793  MET794  SER795  GLU796  ALA797  LYS798  CYS799  TRP800  GLU811  SER814 

> <Gold.Protein.RotatedAtoms>
  151.7107  135.0913  160.0266 H   0  0  0  0  0  0  0  0  0  0  0  0  # atno 6907 bound_to 6896
  152.3664  133.6357  159.6062 H   0  0  0  0  0  0  0  0  0  0  0  0  # atno 6908 bound_to 6896
  150.7641  133.9258  159.3453 H   0  0  0  0  0  0  0  0  0  0  0  0  # atno 6909 bound_to 6896
  145.9454  140.7623  142.9531 H   0  0  0  0  0  0  0  0  0  0  0  0  # atno 7974 bound_to 7965
  154.7616  140.2785  155.6210 H   0  0  0  0  0  0  0  0  0  0  0  0  # atno 8008 bound_to 7997
  156.2916  140.2659  156.2323 H   0  0  0  0  0  0  0  0  0  0  0  0  # atno 8009 bound_to 7997
  155.0011  140.0373  157.2350 H   0  0  0  0  0  0  0  0  0  0  0  0  # atno 8010 bound_to 7997
  140.7265  143.4856  151.0059 H   0  0  0  0  0  0  0  0  0  0  0  0  # atno 10167 bound_to 10162
  156.3601  130.4322  149.7631 H   0  0  0  0  0  0  0  0  0  0  0  0  # atno 10718 bound_to 10713
  152.9831  135.5678  154.5219 H   0  0  0  0  0  0  0  0  0  0  0  0  # atno 10763 bound_to 10752
  154.4706  135.2784  155.1648 H   0  0  0  0  0  0  0  0  0  0  0  0  # atno 10764 bound_to 10752
  154.3197  135.6271  153.5555 H   0  0  0  0  0  0  0  0  0  0  0  0  # atno 10765 bound_to 10752
  140.2492  134.3323  155.7896 H   0  0  0  0  0  0  0  0  0  0  0  0  # atno 11005 bound_to 11000
  144.6786  140.2348  143.7351 LP  0  0  0  0  0  0  0  0  0  0  0  0  # atno 17320 bound_to 7965
  145.8243  139.2057  143.1920 LP  0  0  0  0  0  0  0  0  0  0  0  0  # atno 17321 bound_to 7965
  139.8558  143.7379  152.3176 LP  0  0  0  0  0  0  0  0  0  0  0  0  # atno 17342 bound_to 10162
  139.7577  144.7516  151.0411 LP  0  0  0  0  0  0  0  0  0  0  0  0  # atno 17343 bound_to 10162
  156.4798  130.8036  151.3050 LP  0  0  0  0  0  0  0  0  0  0  0  0  # atno 17370 bound_to 10713
  157.7472  131.0009  150.2944 LP  0  0  0  0  0  0  0  0  0  0  0  0  # atno 17371 bound_to 10713
  141.2203  133.7343  156.9009 LP  0  0  0  0  0  0  0  0  0  0  0  0  # atno 17394 bound_to 11000
  140.1575  134.9188  157.2672 LP  0  0  0  0  0  0  0  0  0  0  0  0  # atno 17395 bound_to 11000

$$$$
