AV-unprocessed.smi:1669|AV-procd|sdf|6684|dock10
  -GOLD-   22720 7403D 1   1.00000     0.00000
 Structure written by MMmdl.
 48 50  0  0  0  0  0  0  0  0  2 V2000
  149.9064  138.9024  154.7655 C   0  0  0  0  0  0  0  0  0  0  0  0
  150.6235  139.8187  155.6874 N   0  3  2  0  0  0  0  0  0  0  0  0
  150.2059  141.2359  155.5315 C   0  0  0  0  0  0  0  0  0  0  0  0
  148.6960  141.3972  155.4824 C   0  0  0  0  0  0  0  0  0  0  0  0
  147.9220  141.2196  156.6491 C   0  0  0  0  0  0  0  0  0  0  0  0
  146.5229  141.3749  156.6005 C   0  0  0  0  0  0  0  0  0  0  0  0
  145.8923  141.7056  155.3856 C   0  0  0  0  0  0  0  0  0  0  0  0
  146.6610  141.8798  154.2185 C   0  0  0  0  0  0  0  0  0  0  0  0
  148.0602  141.7245  154.2661 C   0  0  0  0  0  0  0  0  0  0  0  0
  152.0986  139.6585  155.6130 C   0  0  0  0  0  0  0  0  0  0  0  0
  152.5993  138.4434  156.4251 C   0  0  2  0  0  0  0  0  0  0  0  0
  152.2558  137.2634  155.7283 O   0  0  0  0  0  0  0  0  0  0  0  0
  151.9947  138.3511  157.8411 C   0  0  0  0  0  0  0  0  0  0  0  0
  152.6395  139.2575  158.7819 N   0  0  0  0  0  0  0  0  0  0  0  0
  153.6474  138.9961  159.6538 C   0  0  0  0  0  0  0  0  0  0  0  0
  154.2712  137.6322  159.7521 C   0  0  0  0  0  0  0  0  0  0  0  0
  153.3834  136.6255  160.1936 O   0  0  0  0  0  0  0  0  0  0  0  0
  154.0384  140.0275  160.4059 N   0  0  0  0  0  0  0  0  0  0  0  0
  153.2157  141.0505  159.9793 C   0  0  0  0  0  0  0  0  0  0  0  0
  153.1364  142.3993  160.3930 C   0  0  0  0  0  0  0  0  0  0  0  0
  152.2007  143.2732  159.8018 C   0  0  0  0  0  0  0  0  0  0  0  0
  151.3333  142.8120  158.7905 C   0  0  0  0  0  0  0  0  0  0  0  0
  151.3955  141.4714  158.3642 C   0  0  0  0  0  0  0  0  0  0  0  0
  152.3302  140.6028  158.9592 C   0  0  0  0  0  0  0  0  0  0  0  0
  150.0912  139.1748  153.7257 H   0  0  0  0  0  0  0  0  0  0  0  0
  148.8308  138.9300  154.9378 H   0  0  0  0  0  0  0  0  0  0  0  0
  150.2196  137.8683  154.9018 H   0  0  0  0  0  0  0  0  0  0  0  0
  150.5691  141.8251  156.3749 H   0  0  0  0  0  0  0  0  0  0  0  0
  150.6618  141.6607  154.6356 H   0  0  0  0  0  0  0  0  0  0  0  0
  148.3981  140.9676  157.5856 H   0  0  0  0  0  0  0  0  0  0  0  0
  145.9331  141.2404  157.4953 H   0  0  0  0  0  0  0  0  0  0  0  0
  144.8193  141.8250  155.3490 H   0  0  0  0  0  0  0  0  0  0  0  0
  146.1766  142.1326  153.2868 H   0  0  0  0  0  0  0  0  0  0  0  0
  148.6434  141.8600  153.3670 H   0  0  0  0  0  0  0  0  0  0  0  0
  152.3834  139.5806  154.5632 H   0  0  0  0  0  0  0  0  0  0  0  0
  152.5984  140.5506  155.9931 H   0  0  0  0  0  0  0  0  0  0  0  0
  153.6842  138.4692  156.5169 H   0  0  0  0  0  0  0  0  0  0  0  0
  151.4196  136.9566  156.0458 H   0  0  0  0  0  0  0  0  0  0  0  0
  150.9234  138.5487  157.8135 H   0  0  0  0  0  0  0  0  0  0  0  0
  152.1025  137.3365  158.2276 H   0  0  0  0  0  0  0  0  0  0  0  0
  154.6542  137.3354  158.7760 H   0  0  0  0  0  0  0  0  0  0  0  0
  155.1179  137.6797  160.4372 H   0  0  0  0  0  0  0  0  0  0  0  0
  153.2169  136.7522  161.1150 H   0  0  0  0  0  0  0  0  0  0  0  0
  153.7973  142.7627  161.1660 H   0  0  0  0  0  0  0  0  0  0  0  0
  152.1498  144.3028  160.1249 H   0  0  0  0  0  0  0  0  0  0  0  0
  150.6208  143.4888  158.3417 H   0  0  0  0  0  0  0  0  0  0  0  0
  150.7330  141.1175  157.5884 H   0  0  0  0  0  0  0  0  0  0  0  0
  150.3648  139.5568  156.6282 H   0  0  0  0  0  0  0  0  0  0  0  0
  1  2  1  0  0  0  0
  1 25  1  0  0  0  0
  1 26  1  0  0  0  0
  1 27  1  0  0  0  0
  2  3  1  0  0  0  0
  2 10  1  0  0  0  0
  2 48  1  0  0  0  0
  3  4  1  0  0  0  0
  3 28  1  0  0  0  0
  3 29  1  0  0  0  0
  4  9  1  0  0  0  0
  4  5  2  0  0  0  0
  5  6  1  0  0  0  0
  5 30  1  0  0  0  0
  6  7  2  0  0  0  0
  6 31  1  0  0  0  0
  7  8  1  0  0  0  0
  7 32  1  0  0  0  0
  8  9  2  0  0  0  0
  8 33  1  0  0  0  0
  9 34  1  0  0  0  0
 10 11  1  0  0  0  0
 10 35  1  0  0  0  0
 10 36  1  0  0  0  0
 11 12  1  0  0  0  0
 11 13  1  0  0  0  0
 11 37  1  0  0  0  0
 12 38  1  0  0  0  0
 13 14  1  0  0  0  0
 13 39  1  0  0  0  0
 13 40  1  0  0  0  0
 14 24  1  0  0  0  0
 14 15  1  0  0  0  0
 15 16  1  0  0  0  0
 15 18  2  0  0  0  0
 16 17  1  0  0  0  0
 16 41  1  0  0  0  0
 16 42  1  0  0  0  0
 17 43  1  0  0  0  0
 18 19  1  0  0  0  0
 19 24  2  0  0  0  0
 19 20  1  0  0  0  0
 20 21  2  0  0  0  0
 20 44  1  0  0  0  0
 21 22  1  0  0  0  0
 21 45  1  0  0  0  0
 22 23  2  0  0  0  0
 22 46  1  0  0  0  0
 23 24  1  0  0  0  0
 23 47  1  0  0  0  0
M  CHG  1   2   1
M  END
> <s_m_source_file>
AV-unprocessed.smi

> <i_m_source_file_index>
1669

> <i_lp_mmshare_version>
43012

> <i_f3d_flags>
0

> <s_epik_input>
W2NIXTFbY0hdW2NIXVtjSF1bY0hdYzFbQ0gyXU4oW0NIM10pW0NIMl1bQ0BIXShbT0hdKVtDSDJdbihjKG4yKVtDSDJdW09IXSljKGMyMylbY0hdW2NIXVtjSF1bY0hdMw==

> <s_epik_cmdline>
J2VwaWtfcHl0aG9uJywgJy1waCcsICc3LjAnLCAnLXRuJywgJzgnLCAnLW1hJywgJzIwMCcsICctbWV0YWxfYmluZGluZycsICctaW1hZScsICc8aW5maWxlLm1hZT4nLCAnLW9tYWUnLCAnPG91dGZpbGUubWFlPic=

> <r_epik_Ionization_Penalty>
0.0949884

> <r_epik_Ionization_Penalty_Charging>
0.0475377

> <r_epik_Ionization_Penalty_Neutral>
0.0474507

> <r_epik_State_Penalty>
0.078247

> <r_epik_Charging_Adjusted_Penalty>
0.125785

> <i_epik_Tot_Q>
1

> <i_epik_Tot_abs_Q>
1

> <r_epik_Metal_State_Penalty>
0.0403451

> <b_epik_Metal_Only>
0

> <s_lp_Force_Field>
OPLS_2005

> <r_lp_Energy>
17.3617

> <b_lp_Chiralities_Consistent>
1

> <s_lp_Variant>
AV-unprocessed.smi:1669-2

> <Gold.Version>
5.8.1

> <Gold.Id.Protein>
6NUR|6NUR_protein|mol2

> <Gold.PLP.Fitness>
48.6885

> <Gold.PLP.PLP>
-45.0297

> <Gold.PLP.part.hbond>
-2.0000

> <Gold.PLP.part.metal>
0.0000

> <Gold.PLP.part.buried>
-5.6366

> <Gold.PLP.part.nonpolar>
-37.7398

> <Gold.PLP.part.repulsive>
0.0903

> <Gold.PLP.ligand.clash>
0.0000

> <Gold.PLP.ligand.torsion>
1.0667

> <Gold.PLP.Chemscore.Hbond>
1.8640

> <Gold.PLP.Chemscore.CHOScore>
0.0000

> <Gold.PLP.Chemscore.Metal>
0.0000

> <Gold.Chemscore.Hbonds>
donor molecule, donor type, donor heavy atom, donor atom, acceptor molecule, acceptor atom, score
      P1  H  6896  6909       L1    17  0.65
      P1  H 10752 10765       L1    12  0.74

> <Gold.PLP.Chemscore.Internal.Correction>
0.2003

> <Gold.Rescore>
     Score         DG    S(hbond)    S(metal)    S(lipo)     H(rot)  DE(clash)    DE(int)     intcor
     15.44     -17.42       1.83        0.00     119.25       3.17       0.04       1.94       ----

> <Gold.Chemscore.Fitness>
15.4392

> <Gold.Chemscore.DG>
-17.4211

> <Gold.Chemscore.ZeroCoef>
-5.4800

> <Gold.Chemscore.Hbond>
1.8301

> <Gold.Chemscore.Metal>
0.0000

> <Gold.Chemscore.Lipo>
119.2451

> <Gold.Chemscore.Internal_Hbond>
0.0000

> <Gold.Chemscore.DEClash>
0.0428

> <Gold.Chemscore.DEInternal>
1.9391

> <Gold.Chemscore.Rot>
3.1731

> <Gold.Chemscore.Internal.Correction>
   9.000000E+99

> <Gold.Chemscore.Hbonds>
donor molecule, donor type, donor heavy atom, donor atom, acceptor molecule, acceptor atom, score
      P1  H  6896  6909       L1    17  0.08
      P1  H 10752 10765       L1    12  0.25

> <Gold.Chemscore.Hbond.Weighted>
-6.1124

> <Gold.Chemscore.Metal.Weighted>
-0.0000

> <Gold.Chemscore.Lipo.Weighted>
-13.9517

> <Gold.Chemscore.Internal_Hbond.Weighted>
0.0000

> <Gold.Chemscore.DEClash.Weighted>
0.0428

> <Gold.Chemscore.DEInternal.Weighted>
1.9391

> <Gold.Chemscore.Rot.Weighted>
8.1230

> <Gold.Chemscore.Internal.Correction.Weighted>
   9.000000E+99

> <Gold.Protein.RotatedTorsions>
[ 6907 6896 6895 6894 ] final  168.49 input  -60.11 | X-H torsion
[ 7974 7965 7964 7962 ] final  131.08 input  175.53 | X-H torsion
[ 8008 7997 7996 7995 ] final   37.20 input   59.86 | X-H torsion
[ 10167 10162 10161 10158 ] final  107.35 input  -65.29 | X-H torsion
[ 10718 10713 10712 10709 ] final   54.09 input   66.30 | X-H torsion
[ 10763 10752 10751 10750 ] final -159.64 input  -60.55 | X-H torsion
[ 11005 11000 10999 10996 ] final  -99.74 input  -57.11 | X-H torsion

> <Gold.Protein.ActiveResidues>
 VAL166  LYS551  ARG553  GLY616  TRP617  ASP618  TYR619  PRO620  LYS621  CYS622 
 ASP623  PHE694  ASN695  SER759  ASP760  ASP761  ALA762  ILE779  LEU786  VAL792 
 PHE793  MET794  SER795  GLU796  ALA797  LYS798  CYS799  TRP800  GLU811  SER814 

> <Gold.Protein.RotatedAtoms>
  151.8469  133.3433  159.3660 H   0  0  0  0  0  0  0  0  0  0  0  0  # atno 6907 bound_to 6896
  150.7218  134.5337  159.5722 H   0  0  0  0  0  0  0  0  0  0  0  0  # atno 6908 bound_to 6896
  152.2823  134.7816  160.0445 H   0  0  0  0  0  0  0  0  0  0  0  0  # atno 6909 bound_to 6896
  145.0111  139.4220  143.5244 H   0  0  0  0  0  0  0  0  0  0  0  0  # atno 7974 bound_to 7965
  155.1998  140.3315  155.4345 H   0  0  0  0  0  0  0  0  0  0  0  0  # atno 8008 bound_to 7997
  156.2411  140.1895  156.7036 H   0  0  0  0  0  0  0  0  0  0  0  0  # atno 8009 bound_to 7997
  154.6149  140.0603  156.9527 H   0  0  0  0  0  0  0  0  0  0  0  0  # atno 8010 bound_to 7997
  139.6934  144.7105  151.1309 H   0  0  0  0  0  0  0  0  0  0  0  0  # atno 10167 bound_to 10162
  157.5226  130.8575  149.8579 H   0  0  0  0  0  0  0  0  0  0  0  0  # atno 10718 bound_to 10713
  154.7458  135.3080  154.8648 H   0  0  0  0  0  0  0  0  0  0  0  0  # atno 10763 bound_to 10752
  153.9449  135.6770  153.4748 H   0  0  0  0  0  0  0  0  0  0  0  0  # atno 10764 bound_to 10752
  153.1054  135.4891  154.8869 H   0  0  0  0  0  0  0  0  0  0  0  0  # atno 10765 bound_to 10752
  141.1297  133.8345  157.1012 H   0  0  0  0  0  0  0  0  0  0  0  0  # atno 11005 bound_to 11000
  146.3470  139.9555  142.8723 LP  0  0  0  0  0  0  0  0  0  0  0  0  # atno 17320 bound_to 7965
  145.2022  140.9859  143.4149 LP  0  0  0  0  0  0  0  0  0  0  0  0  # atno 17321 bound_to 7965
  140.7689  143.5527  150.9187 LP  0  0  0  0  0  0  0  0  0  0  0  0  # atno 17342 bound_to 10162
  139.9205  143.6612  152.3097 LP  0  0  0  0  0  0  0  0  0  0  0  0  # atno 17343 bound_to 10162
  156.0364  130.3750  150.1549 LP  0  0  0  0  0  0  0  0  0  0  0  0  # atno 17370 bound_to 10713
  156.9737  130.9842  151.3453 LP  0  0  0  0  0  0  0  0  0  0  0  0  # atno 17371 bound_to 10713
  140.0332  134.9891  157.0821 LP  0  0  0  0  0  0  0  0  0  0  0  0  # atno 17394 bound_to 11000
  140.4251  134.1839  155.7166 LP  0  0  0  0  0  0  0  0  0  0  0  0  # atno 17395 bound_to 11000

$$$$
