AV-unprocessed.smi:3349|AV-procd|sdf|12933|dock10
  -GOLD-   2272019363D 1   1.00000     0.00000
 Structure written by MMmdl.
 40 41  0  0  0  0  0  0  0  0  1 V2000
  155.7660  140.6264  163.8969 C   0  0  0  0  0  0  0  0  0  0  0  0
  155.9257  139.5668  162.7754 C   0  0  2  0  0  0  0  0  0  0  0  0
  155.7429  140.2630  161.3983 C   0  0  0  0  0  0  0  0  0  0  0  0
  154.6118  141.1831  161.3931 N   0  0  0  0  0  0  0  0  0  0  0  0
  153.6300  141.1918  160.4786 C   0  0  0  0  0  0  0  0  0  0  0  0
  153.6187  140.4425  159.5014 O   0  0  0  0  0  0  0  0  0  0  0  0
  152.4950  142.2037  160.7137 C   0  0  1  0  0  0  0  0  0  0  0  0
  152.7201  143.0879  161.9574 C   0  0  0  0  0  0  0  0  0  0  0  0
  152.2670  143.0015  159.5138 N   0  0  0  0  0  0  0  0  0  0  0  0
  153.0214  143.9533  158.9599 C   0  0  0  0  0  0  0  0  0  0  0  0
  152.4804  144.5137  157.8872 N   0  0  0  0  0  0  0  0  0  0  0  0
  151.3063  143.8177  157.8343 C   0  0  0  0  0  0  0  0  0  0  0  0
  151.1238  142.9065  158.7897 N   0  0  0  0  0  0  0  0  0  0  0  0
  155.0364  138.3968  162.9632 N   0  0  0  0  0  0  0  0  0  0  0  0
  155.3241  137.3064  162.0238 C   0  0  0  0  0  0  0  0  0  0  0  0
  154.4229  136.0778  162.2386 C   0  0  0  0  0  0  0  0  0  0  0  0
  154.5498  135.6172  163.5766 O   0  0  0  0  0  0  0  0  0  0  0  0
  154.2015  136.6206  164.5201 C   0  0  0  0  0  0  0  0  0  0  0  0
  155.1041  137.8510  164.3239 C   0  0  0  0  0  0  0  0  0  0  0  0
  156.3831  141.5092  163.7324 H   0  0  0  0  0  0  0  0  0  0  0  0
  156.0717  140.2475  164.8712 H   0  0  0  0  0  0  0  0  0  0  0  0
  154.7317  140.9628  163.9755 H   0  0  0  0  0  0  0  0  0  0  0  0
  156.9574  139.2131  162.8171 H   0  0  0  0  0  0  0  0  0  0  0  0
  156.6103  140.8636  161.1297 H   0  0  0  0  0  0  0  0  0  0  0  0
  155.6194  139.5086  160.6190 H   0  0  0  0  0  0  0  0  0  0  0  0
  154.5516  141.8345  162.1619 H   0  0  0  0  0  0  0  0  0  0  0  0
  151.5876  141.6237  160.8890 H   0  0  0  0  0  0  0  0  0  0  0  0
  152.8103  142.4824  162.8600 H   0  0  0  0  0  0  0  0  0  0  0  0
  151.8819  143.7692  162.1059 H   0  0  0  0  0  0  0  0  0  0  0  0
  153.6248  143.6916  161.8721 H   0  0  0  0  0  0  0  0  0  0  0  0
  153.9832  144.2478  159.3536 H   0  0  0  0  0  0  0  0  0  0  0  0
  150.5611  143.9917  157.0719 H   0  0  0  0  0  0  0  0  0  0  0  0
  155.1716  137.6318  160.9968 H   0  0  0  0  0  0  0  0  0  0  0  0
  156.3699  137.0079  162.1120 H   0  0  0  0  0  0  0  0  0  0  0  0
  153.3805  136.3215  162.0265 H   0  0  0  0  0  0  0  0  0  0  0  0
  154.7085  135.2755  161.5581 H   0  0  0  0  0  0  0  0  0  0  0  0
  153.1502  136.8899  164.4069 H   0  0  0  0  0  0  0  0  0  0  0  0
  154.3225  136.2194  165.5264 H   0  0  0  0  0  0  0  0  0  0  0  0
  156.1345  137.5854  164.5650 H   0  0  0  0  0  0  0  0  0  0  0  0
  154.7894  138.5954  165.0530 H   0  0  0  0  0  0  0  0  0  0  0  0
  1  2  1  0  0  0  0
  1 20  1  0  0  0  0
  1 21  1  0  0  0  0
  1 22  1  0  0  0  0
  2  3  1  0  0  0  0
  2 14  1  0  0  0  0
  2 23  1  0  0  0  0
  3  4  1  0  0  0  0
  3 24  1  0  0  0  0
  3 25  1  0  0  0  0
  4  5  1  0  0  0  0
  4 26  1  0  0  0  0
  5  6  2  0  0  0  0
  5  7  1  0  0  0  0
  7  8  1  0  0  0  0
  7  9  1  0  0  0  0
  7 27  1  0  0  0  0
  8 28  1  0  0  0  0
  8 29  1  0  0  0  0
  8 30  1  0  0  0  0
  9 13  1  0  0  0  0
  9 10  1  0  0  0  0
 10 11  2  0  0  0  0
 10 31  1  0  0  0  0
 11 12  1  0  0  0  0
 12 13  2  0  0  0  0
 12 32  1  0  0  0  0
 14 19  1  0  0  0  0
 14 15  1  0  0  0  0
 15 16  1  0  0  0  0
 15 33  1  0  0  0  0
 15 34  1  0  0  0  0
 16 17  1  0  0  0  0
 16 35  1  0  0  0  0
 16 36  1  0  0  0  0
 17 18  1  0  0  0  0
 18 19  1  0  0  0  0
 18 37  1  0  0  0  0
 18 38  1  0  0  0  0
 19 39  1  0  0  0  0
 19 40  1  0  0  0  0
M  END
> <s_m_source_file>
AV-unprocessed.smi

> <i_m_source_file_index>
3349

> <i_lp_mmshare_version>
43012

> <i_f3d_flags>
0

> <s_epik_input>
W0NIMl0xW0NIMl1PW0NIMl1bQ0gyXU4xW0NASF0oW0NIM10pW0NIMl1bTkhdQyg9TylbQ0BIXShbQ0gzXSluMltjSF1uW2NIXW4y

> <s_epik_cmdline>
J2VwaWtfcHl0aG9uJywgJy1waCcsICc3LjAnLCAnLXRuJywgJzgnLCAnLW1hJywgJzIwMCcsICctbWV0YWxfYmluZGluZycsICctaW1hZScsICc8aW5maWxlLm1hZT4nLCAnLW9tYWUnLCAnPG91dGZpbGUubWFlPic=

> <r_lp_tautomer_probability>
1

> <r_epik_Ionization_Penalty>
0.211373

> <r_epik_Ionization_Penalty_Charging>
0

> <r_epik_Ionization_Penalty_Neutral>
0.211373

> <r_epik_State_Penalty>
0.201459

> <r_epik_Charging_Adjusted_Penalty>
0.201459

> <i_epik_Tot_Q>
0

> <i_epik_Tot_abs_Q>
0

> <r_epik_Metal_State_Penalty>
0.201458

> <b_epik_Metal_Only>
0

> <s_lp_Force_Field>
OPLS_2005

> <r_lp_Energy>
35.2026

> <b_lp_Chiralities_Consistent>
1

> <s_lp_Variant>
AV-unprocessed.smi:3349-3

> <Gold.Version>
5.8.1

> <Gold.Id.Protein>
6NUR|6NUR_protein|mol2

> <Gold.PLP.Fitness>
42.3906

> <Gold.PLP.PLP>
-40.3714

> <Gold.PLP.part.hbond>
-1.0000

> <Gold.PLP.part.metal>
0.0000

> <Gold.PLP.part.buried>
-4.9065

> <Gold.PLP.part.nonpolar>
-34.1832

> <Gold.PLP.part.repulsive>
0.1216

> <Gold.PLP.ligand.clash>
0.2466

> <Gold.PLP.ligand.torsion>
0.4425

> <Gold.PLP.Chemscore.Hbond>
0.0000

> <Gold.PLP.Chemscore.CHOScore>
1.0000

> <Gold.PLP.Chemscore.Metal>
0.0000

> <Gold.Chemscore.Hbonds>
donor molecule, donor type, donor heavy atom, donor atom, acceptor molecule, acceptor atom, score
      L1  C    12    32       P1  8028  1.00

> <Gold.PLP.Chemscore.Internal.Correction>
0.1508

> <Gold.Rescore>
     Score         DG    S(hbond)    S(metal)    S(lipo)     H(rot)  DE(clash)    DE(int)     intcor
      6.76      -7.21       0.05        0.00      69.40       2.56       0.08       0.37       ----

> <Gold.Chemscore.Fitness>
6.7569

> <Gold.Chemscore.DG>
-7.2091

> <Gold.Chemscore.ZeroCoef>
-5.4800

> <Gold.Chemscore.Hbond>
0.0463

> <Gold.Chemscore.Metal>
0.0000

> <Gold.Chemscore.Lipo>
69.4042

> <Gold.Chemscore.Internal_Hbond>
0.0000

> <Gold.Chemscore.DEClash>
0.0812

> <Gold.Chemscore.DEInternal>
0.3710

> <Gold.Chemscore.Rot>
2.5570

> <Gold.Chemscore.Internal.Correction>
   9.000000E+99

> <Gold.Chemscore.Hbond.Weighted>
-0.1547

> <Gold.Chemscore.Metal.Weighted>
-0.0000

> <Gold.Chemscore.Lipo.Weighted>
-8.1203

> <Gold.Chemscore.Internal_Hbond.Weighted>
0.0000

> <Gold.Chemscore.DEClash.Weighted>
0.0812

> <Gold.Chemscore.DEInternal.Weighted>
0.3710

> <Gold.Chemscore.Rot.Weighted>
6.5459

> <Gold.Chemscore.Internal.Correction.Weighted>
   9.000000E+99

> <Gold.Protein.RotatedTorsions>
[ 6907 6896 6895 6894 ] final  -16.88 input  -60.11 | X-H torsion
[ 7974 7965 7964 7962 ] final   31.46 input  175.53 | X-H torsion
[ 8008 7997 7996 7995 ] final  130.99 input   59.86 | X-H torsion
[ 10167 10162 10161 10158 ] final  -81.88 input  -65.29 | X-H torsion
[ 10718 10713 10712 10709 ] final  100.45 input   66.30 | X-H torsion
[ 10763 10752 10751 10750 ] final  145.60 input  -60.55 | X-H torsion
[ 11005 11000 10999 10996 ] final   55.66 input  -57.11 | X-H torsion

> <Gold.Protein.ActiveResidues>
 VAL166  LYS551  ARG553  GLY616  TRP617  ASP618  TYR619  PRO620  LYS621  CYS622 
 ASP623  PHE694  ASN695  SER759  ASP760  ASP761  ALA762  ILE779  LEU786  VAL792 
 PHE793  MET794  SER795  GLU796  ALA797  LYS798  CYS799  TRP800  GLU811  SER814 

> <Gold.Protein.RotatedAtoms>
  151.3018  135.0770  159.9240 H   0  0  0  0  0  0  0  0  0  0  0  0  # atno 6907 bound_to 6896
  152.5296  133.9826  159.7824 H   0  0  0  0  0  0  0  0  0  0  0  0  # atno 6908 bound_to 6896
  151.0114  133.5910  159.2712 H   0  0  0  0  0  0  0  0  0  0  0  0  # atno 6909 bound_to 6896
  146.1549  139.6654  142.9073 H   0  0  0  0  0  0  0  0  0  0  0  0  # atno 7974 bound_to 7965
  156.2963  140.2582  156.2851 H   0  0  0  0  0  0  0  0  0  0  0  0  # atno 8008 bound_to 7997
  154.9564  140.0393  157.2187 H   0  0  0  0  0  0  0  0  0  0  0  0  # atno 8009 bound_to 7997
  154.7988  140.2824  155.5941 H   0  0  0  0  0  0  0  0  0  0  0  0  # atno 8010 bound_to 7997
  140.4371  143.2527  151.8678 H   0  0  0  0  0  0  0  0  0  0  0  0  # atno 10167 bound_to 10162
  157.6853  131.0698  150.5102 H   0  0  0  0  0  0  0  0  0  0  0  0  # atno 10718 bound_to 10713
  154.0080  135.2917  155.3395 H   0  0  0  0  0  0  0  0  0  0  0  0  # atno 10763 bound_to 10752
  154.7120  135.5145  153.8683 H   0  0  0  0  0  0  0  0  0  0  0  0  # atno 10764 bound_to 10752
  153.0736  135.6656  154.0315 H   0  0  0  0  0  0  0  0  0  0  0  0  # atno 10765 bound_to 10752
  140.0589  134.5630  155.9175 H   0  0  0  0  0  0  0  0  0  0  0  0  # atno 11005 bound_to 11000
  145.4734  141.0436  143.2686 LP  0  0  0  0  0  0  0  0  0  0  0  0  # atno 17320 bound_to 7965
  144.7950  139.6252  143.7096 LP  0  0  0  0  0  0  0  0  0  0  0  0  # atno 17321 bound_to 7965
  139.4787  144.5270  151.8721 LP  0  0  0  0  0  0  0  0  0  0  0  0  # atno 17342 bound_to 10162
  140.4361  144.2050  150.5889 LP  0  0  0  0  0  0  0  0  0  0  0  0  # atno 17343 bound_to 10162
  156.5420  130.4210  149.6149 LP  0  0  0  0  0  0  0  0  0  0  0  0  # atno 17370 bound_to 10713
  156.2977  130.7159  151.2024 LP  0  0  0  0  0  0  0  0  0  0  0  0  # atno 17371 bound_to 10713
  141.1964  133.6591  156.5692 LP  0  0  0  0  0  0  0  0  0  0  0  0  # atno 17394 bound_to 11000
  140.3800  134.7531  157.4655 LP  0  0  0  0  0  0  0  0  0  0  0  0  # atno 17395 bound_to 11000

$$$$
