AV-unprocessed.smi:2695|AV-procd|sdf|10412|dock7
  -GOLD-   2272014453D 1   1.00000     0.00000
 Structure written by MMmdl.
 42 43  0  0  0  0  0  0  0  0  1 V2000
  149.4583  141.1383  154.3098 C   0  0  0  0  0  0  0  0  0  0  0  0
  150.3443  139.9977  154.7940 C   0  0  0  0  0  0  0  0  0  0  0  0
  151.3903  140.2706  155.6078 C   0  0  0  0  0  0  0  0  0  0  0  0
  152.2899  139.1989  156.0683 C   0  0  0  0  0  0  0  0  0  0  0  0
  153.2274  139.4168  156.8329 O   0  0  0  0  0  0  0  0  0  0  0  0
  151.9999  137.8536  155.5528 C   0  0  0  0  0  0  0  0  0  0  0  0
  150.9335  137.6761  154.7492 C   0  0  0  0  0  0  0  0  0  0  0  0
  150.6390  136.4707  154.2380 O   0  0  0  0  0  0  0  0  0  0  0  0
  150.0386  138.6901  154.3535 N   0  0  0  0  0  0  0  0  0  0  0  0
  148.8506  138.3969  153.5310 C   0  0  0  0  0  0  0  0  0  0  0  0
  147.8201  137.5096  154.2438 C   0  0  0  0  0  0  0  0  0  0  0  0
  147.1999  137.9208  155.2254 O   0  0  0  0  0  0  0  0  0  0  0  0
  147.6587  136.2806  153.7306 N   0  0  0  0  0  0  0  0  0  0  0  0
  146.7393  135.2543  154.2256 C   0  0  1  0  0  0  0  0  0  0  0  0
  145.9485  134.6637  153.0308 C   0  0  0  0  0  0  0  0  0  0  0  0
  146.8215  133.9465  151.9927 C   0  0  0  0  0  0  0  0  0  0  0  0
  145.9335  133.8363  150.7536 C   0  0  0  0  0  0  0  0  0  0  0  0
  145.0125  135.0620  150.7940 C   0  0  0  0  0  0  0  0  0  0  0  0
  145.1882  135.6935  152.1823 C   0  0  0  0  0  0  0  0  0  0  0  0
  147.5399  134.2029  155.0292 C   0  0  0  0  0  0  0  0  0  0  0  0
  147.8882  134.7050  156.2146 F   0  0  0  0  0  0  0  0  0  0  0  0
  146.8077  133.1120  155.2507 F   0  0  0  0  0  0  0  0  0  0  0  0
  148.6469  133.8539  154.3725 F   0  0  0  0  0  0  0  0  0  0  0  0
  149.9446  142.1017  154.4660 H   0  0  0  0  0  0  0  0  0  0  0  0
  148.5172  141.1496  154.8600 H   0  0  0  0  0  0  0  0  0  0  0  0
  149.2450  141.0639  153.2437 H   0  0  0  0  0  0  0  0  0  0  0  0
  151.5994  141.2811  155.9280 H   0  0  0  0  0  0  0  0  0  0  0  0
  152.6538  137.0369  155.8223 H   0  0  0  0  0  0  0  0  0  0  0  0
  148.3648  139.3223  153.2187 H   0  0  0  0  0  0  0  0  0  0  0  0
  149.1264  137.9246  152.5890 H   0  0  0  0  0  0  0  0  0  0  0  0
  148.2186  136.0304  152.9287 H   0  0  0  0  0  0  0  0  0  0  0  0
  146.0167  135.7109  154.9042 H   0  0  0  0  0  0  0  0  0  0  0  0
  145.2247  133.9396  153.4089 H   0  0  0  0  0  0  0  0  0  0  0  0
  147.6993  134.5518  151.7614 H   0  0  0  0  0  0  0  0  0  0  0  0
  147.1723  132.9720  152.3341 H   0  0  0  0  0  0  0  0  0  0  0  0
  146.5154  133.7821  149.8330 H   0  0  0  0  0  0  0  0  0  0  0  0
  145.3331  132.9278  150.8154 H   0  0  0  0  0  0  0  0  0  0  0  0
  145.2744  135.7778  150.0139 H   0  0  0  0  0  0  0  0  0  0  0  0
  143.9771  134.7636  150.6262 H   0  0  0  0  0  0  0  0  0  0  0  0
  144.2304  135.9667  152.6259 H   0  0  0  0  0  0  0  0  0  0  0  0
  145.7777  136.6067  152.0877 H   0  0  0  0  0  0  0  0  0  0  0  0
  150.1888  136.6113  153.4189 H   0  0  0  0  0  0  0  0  0  0  0  0
  1  2  1  0  0  0  0
  1 24  1  0  0  0  0
  1 25  1  0  0  0  0
  1 26  1  0  0  0  0
  2  9  1  0  0  0  0
  2  3  2  0  0  0  0
  3  4  1  0  0  0  0
  3 27  1  0  0  0  0
  4  5  2  0  0  0  0
  4  6  1  0  0  0  0
  6  7  2  0  0  0  0
  6 28  1  0  0  0  0
  7  8  1  0  0  0  0
  7  9  1  0  0  0  0
  8 42  1  0  0  0  0
  9 10  1  0  0  0  0
 10 11  1  0  0  0  0
 10 29  1  0  0  0  0
 10 30  1  0  0  0  0
 11 12  2  0  0  0  0
 11 13  1  0  0  0  0
 13 14  1  0  0  0  0
 13 31  1  0  0  0  0
 14 15  1  0  0  0  0
 14 20  1  0  0  0  0
 14 32  1  0  0  0  0
 15 19  1  0  0  0  0
 15 16  1  0  0  0  0
 15 33  1  0  0  0  0
 16 17  1  0  0  0  0
 16 34  1  0  0  0  0
 16 35  1  0  0  0  0
 17 18  1  0  0  0  0
 17 36  1  0  0  0  0
 17 37  1  0  0  0  0
 18 19  1  0  0  0  0
 18 38  1  0  0  0  0
 18 39  1  0  0  0  0
 19 40  1  0  0  0  0
 19 41  1  0  0  0  0
 20 21  1  0  0  0  0
 20 22  1  0  0  0  0
 20 23  1  0  0  0  0
M  END
> <s_m_source_file>
AV-unprocessed.smi

> <i_m_source_file_index>
2695

> <i_lp_mmshare_version>
43012

> <i_f3d_flags>
0

> <s_epik_input>
W0NIM11jMVtjSF1jKFtPSF0pW2NIXWMoPU8pbjFbQ0gyXUMoPU8pW05IXVtDQEBIXShDKEYpKEYpRilbQ0hdMltDSDJdW0NIMl1bQ0gyXVtDSDJdMg==

> <s_epik_cmdline>
J2VwaWtfcHl0aG9uJywgJy1waCcsICc3LjAnLCAnLXRuJywgJzgnLCAnLW1hJywgJzIwMCcsICctbWV0YWxfYmluZGluZycsICctaW1hZScsICc8aW5maWxlLm1hZT4nLCAnLW9tYWUnLCAnPG91dGZpbGUubWFlPic=

> <r_epik_Ionization_Penalty>
1.35977e-07

> <r_epik_Ionization_Penalty_Charging>
0

> <r_epik_Ionization_Penalty_Neutral>
1.35977e-07

> <r_epik_State_Penalty>
2.53185

> <r_epik_Charging_Adjusted_Penalty>
2.53185

> <i_epik_Tot_Q>
0

> <i_epik_Tot_abs_Q>
0

> <r_epik_Metal_State_Penalty>
2.53184

> <b_epik_Metal_Only>
0

> <s_lp_Force_Field>
OPLS_2005

> <r_lp_Energy>
25.7414

> <b_lp_Chiralities_Consistent>
1

> <s_lp_Variant>
AV-unprocessed.smi:2695-6

> <Gold.Version>
5.8.1

> <Gold.Id.Protein>
6NUR|6NUR_protein|mol2

> <Gold.PLP.Fitness>
40.2458

> <Gold.PLP.PLP>
-32.1218

> <Gold.PLP.part.hbond>
-3.9592

> <Gold.PLP.part.metal>
0.0000

> <Gold.PLP.part.buried>
1.3625

> <Gold.PLP.part.nonpolar>
-29.3949

> <Gold.PLP.part.repulsive>
0.0250

> <Gold.PLP.ligand.clash>
0.0000

> <Gold.PLP.ligand.torsion>
0.5998

> <Gold.PLP.Chemscore.Hbond>
3.0000

> <Gold.PLP.Chemscore.CHOScore>
0.0000

> <Gold.PLP.Chemscore.Metal>
0.0000

> <Gold.Chemscore.Hbonds>
donor molecule, donor type, donor heavy atom, donor atom, acceptor molecule, acceptor atom, score
      L1  H     8    42       P1  7948  0.60
      L1  H    13    31       P1  7948  0.44
      P1  H  7997  8009       L1     5  0.57

> <Gold.PLP.Chemscore.Internal.Correction>
0.3236

> <Gold.Rescore>
     Score         DG    S(hbond)    S(metal)    S(lipo)     H(rot)  DE(clash)    DE(int)     intcor
     12.57     -14.74       2.61        0.00      58.20       2.45       0.18       1.99       ----

> <Gold.Chemscore.Fitness>
12.5725

> <Gold.Chemscore.DG>
-14.7385

> <Gold.Chemscore.ZeroCoef>
-5.4800

> <Gold.Chemscore.Hbond>
2.6120

> <Gold.Chemscore.Metal>
0.0000

> <Gold.Chemscore.Lipo>
58.2015

> <Gold.Chemscore.Internal_Hbond>
0.0000

> <Gold.Chemscore.DEClash>
0.1754

> <Gold.Chemscore.DEInternal>
1.9906

> <Gold.Chemscore.Rot>
2.4512

> <Gold.Chemscore.Internal.Correction>
   9.000000E+99

> <Gold.Chemscore.Hbonds>
donor molecule, donor type, donor heavy atom, donor atom, acceptor molecule, acceptor atom, score
      L1  H     8    42       P1  7948  0.04
      L1  H    13    31       P1  7948  0.43
      P1  H  7997  8009       L1     5  0.56

> <Gold.Chemscore.Hbond.Weighted>
-8.7241

> <Gold.Chemscore.Metal.Weighted>
-0.0000

> <Gold.Chemscore.Lipo.Weighted>
-6.8096

> <Gold.Chemscore.Internal_Hbond.Weighted>
0.0000

> <Gold.Chemscore.DEClash.Weighted>
0.1754

> <Gold.Chemscore.DEInternal.Weighted>
1.9906

> <Gold.Chemscore.Rot.Weighted>
6.2752

> <Gold.Chemscore.Internal.Correction.Weighted>
   9.000000E+99

> <Gold.Protein.RotatedTorsions>
[ 6907 6896 6895 6894 ] final  148.92 input  -60.11 | X-H torsion
[ 7974 7965 7964 7962 ] final  -38.28 input  175.53 | X-H torsion
[ 8008 7997 7996 7995 ] final -169.16 input   59.86 | X-H torsion
[ 10167 10162 10161 10158 ] final  -72.47 input  -65.29 | X-H torsion
[ 10718 10713 10712 10709 ] final  -58.27 input   66.30 | X-H torsion
[ 10763 10752 10751 10750 ] final   66.35 input  -60.55 | X-H torsion
[ 11005 11000 10999 10996 ] final -171.25 input  -57.11 | X-H torsion

> <Gold.Protein.ActiveResidues>
 VAL166  LYS551  ARG553  GLY616  TRP617  ASP618  TYR619  PRO620  LYS621  CYS622 
 ASP623  PHE694  ASN695  SER759  ASP760  ASP761  ALA762  ILE779  LEU786  VAL792 
 PHE793  MET794  SER795  GLU796  ALA797  LYS798  CYS799  TRP800  GLU811  SER814 

> <Gold.Protein.RotatedAtoms>
  152.1350  133.4430  159.4738 H   0  0  0  0  0  0  0  0  0  0  0  0  # atno 6907 bound_to 6896
  150.6881  134.2375  159.4468 H   0  0  0  0  0  0  0  0  0  0  0  0  # atno 6908 bound_to 6896
  152.0261  134.9794  160.0622 H   0  0  0  0  0  0  0  0  0  0  0  0  # atno 6909 bound_to 6896
  146.0501  140.6493  142.9046 H   0  0  0  0  0  0  0  0  0  0  0  0  # atno 7974 bound_to 7965
  155.9012  140.1041  157.1348 H   0  0  0  0  0  0  0  0  0  0  0  0  # atno 8008 bound_to 7997
  154.4026  140.1292  156.4503 H   0  0  0  0  0  0  0  0  0  0  0  0  # atno 8009 bound_to 7997
  155.7420  140.3466  155.5111 H   0  0  0  0  0  0  0  0  0  0  0  0  # atno 8010 bound_to 7997
  140.5189  143.2334  151.7464 H   0  0  0  0  0  0  0  0  0  0  0  0  # atno 10167 bound_to 10162
  156.1148  130.4171  150.0554 H   0  0  0  0  0  0  0  0  0  0  0  0  # atno 10718 bound_to 10713
  153.0136  135.5324  154.6809 H   0  0  0  0  0  0  0  0  0  0  0  0  # atno 10763 bound_to 10752
  154.5969  135.2864  155.0578 H   0  0  0  0  0  0  0  0  0  0  0  0  # atno 10764 bound_to 10752
  154.1650  135.6541  153.5047 H   0  0  0  0  0  0  0  0  0  0  0  0  # atno 10765 bound_to 10752
  140.5104  134.5807  157.5017 H   0  0  0  0  0  0  0  0  0  0  0  0  # atno 11005 bound_to 11000
  144.7118  140.4066  143.7075 LP  0  0  0  0  0  0  0  0  0  0  0  0  # atno 17320 bound_to 7965
  145.6740  139.1605  143.2739 LP  0  0  0  0  0  0  0  0  0  0  0  0  # atno 17321 bound_to 7965
  139.4917  144.4283  151.9901 LP  0  0  0  0  0  0  0  0  0  0  0  0  # atno 17342 bound_to 10162
  140.3379  144.3239  150.5973 LP  0  0  0  0  0  0  0  0  0  0  0  0  # atno 17343 bound_to 10162
  156.8508  130.9458  151.3625 LP  0  0  0  0  0  0  0  0  0  0  0  0  # atno 17370 bound_to 10713
  157.6331  130.8745  149.9309 LP  0  0  0  0  0  0  0  0  0  0  0  0  # atno 17371 bound_to 10713
  139.9662  134.7369  156.0133 LP  0  0  0  0  0  0  0  0  0  0  0  0  # atno 17394 bound_to 11000
  141.1388  133.6569  156.3671 LP  0  0  0  0  0  0  0  0  0  0  0  0  # atno 17395 bound_to 11000

$$$$
