AV-unprocessed.smi:1675|AV-procd|sdf|6716|dock1
  -GOLD-   22720 7463D 1   1.00000     0.00000
 Structure written by MMmdl.
 40 42  0  0  0  0  0  0  0  0  1 V2000
  144.7856  137.8553  152.1628 N   0  0  0  0  0  0  0  0  0  0  0  0
  145.9778  138.0014  152.7465 C   0  0  0  0  0  0  0  0  0  0  0  0
  146.3445  137.2821  153.6741 O   0  0  0  0  0  0  0  0  0  0  0  0
  146.8799  139.1183  152.2111 C   0  0  0  0  0  0  0  0  0  0  0  0
  147.4234  139.9370  153.2820 N   0  0  0  0  0  0  0  0  0  0  0  0
  148.7428  140.0688  153.6711 C   0  0  0  0  0  0  0  0  0  0  0  0
  148.7352  140.9497  154.7153 C   0  0  0  0  0  0  0  0  0  0  0  0
  149.8173  141.4361  155.4917 N   0  0  0  0  0  0  0  0  0  0  0  0
  150.1678  141.0626  156.7352 C   0  0  0  0  0  0  0  0  0  0  0  0
  149.5648  140.2237  157.4041 O   0  0  0  0  0  0  0  0  0  0  0  0
  151.3893  141.7722  157.3283 C   0  0  0  0  0  0  0  0  0  0  0  0
  151.1034  143.2292  157.7595 C   0  0  1  0  0  0  0  0  0  0  0  0
  150.0947  143.3521  158.9224 C   0  0  0  0  0  0  0  0  0  0  0  0
  150.8038  144.3114  159.8969 C   0  0  1  0  0  0  0  0  0  0  0  0
  151.9517  143.5612  160.5963 C   0  0  0  0  0  0  0  0  0  0  0  0
  152.9959  143.4219  159.4738 C   0  0  0  0  0  0  0  0  0  0  0  0
  152.2946  144.0810  158.2681 C   0  0  2  0  0  0  0  0  0  0  0  0
  151.5620  145.2331  158.9484 C   0  0  0  0  0  0  0  0  0  0  0  0
  147.3771  141.3156  154.9025 C   0  0  0  0  0  0  0  0  0  0  0  0
  146.5905  140.7028  154.0311 N   0  0  0  0  0  0  0  0  0  0  0  0
  144.1569  137.1333  152.4841 H   0  0  0  0  0  0  0  0  0  0  0  0
  144.5152  138.4658  151.4056 H   0  0  0  0  0  0  0  0  0  0  0  0
  147.7121  138.6998  151.6435 H   0  0  0  0  0  0  0  0  0  0  0  0
  146.3061  139.7446  151.5265 H   0  0  0  0  0  0  0  0  0  0  0  0
  149.5406  139.5315  153.1800 H   0  0  0  0  0  0  0  0  0  0  0  0
  150.3906  142.1426  155.0535 H   0  0  0  0  0  0  0  0  0  0  0  0
  151.7474  141.2098  158.1919 H   0  0  0  0  0  0  0  0  0  0  0  0
  152.2001  141.7334  156.6011 H   0  0  0  0  0  0  0  0  0  0  0  0
  150.6765  143.7447  156.8969 H   0  0  0  0  0  0  0  0  0  0  0  0
  149.1552  143.7790  158.5694 H   0  0  0  0  0  0  0  0  0  0  0  0
  149.8655  142.3946  159.3917 H   0  0  0  0  0  0  0  0  0  0  0  0
  150.1261  144.8143  160.5872 H   0  0  0  0  0  0  0  0  0  0  0  0
  152.3538  144.1477  161.4235 H   0  0  0  0  0  0  0  0  0  0  0  0
  151.6351  142.5958  160.9928 H   0  0  0  0  0  0  0  0  0  0  0  0
  153.9012  143.9724  159.7320 H   0  0  0  0  0  0  0  0  0  0  0  0
  153.2883  142.3883  159.2936 H   0  0  0  0  0  0  0  0  0  0  0  0
  152.9811  144.3909  157.4797 H   0  0  0  0  0  0  0  0  0  0  0  0
  150.9101  145.7929  158.2754 H   0  0  0  0  0  0  0  0  0  0  0  0
  152.2283  145.9291  159.4615 H   0  0  0  0  0  0  0  0  0  0  0  0
  146.9443  141.9912  155.6256 H   0  0  0  0  0  0  0  0  0  0  0  0
  1  2  1  0  0  0  0
  1 21  1  0  0  0  0
  1 22  1  0  0  0  0
  2  3  2  0  0  0  0
  2  4  1  0  0  0  0
  4  5  1  0  0  0  0
  4 23  1  0  0  0  0
  4 24  1  0  0  0  0
  5 20  1  0  0  0  0
  5  6  1  0  0  0  0
  6  7  2  0  0  0  0
  6 25  1  0  0  0  0
  7  8  1  0  0  0  0
  7 19  1  0  0  0  0
  8  9  1  0  0  0  0
  8 26  1  0  0  0  0
  9 10  2  0  0  0  0
  9 11  1  0  0  0  0
 11 12  1  0  0  0  0
 11 27  1  0  0  0  0
 11 28  1  0  0  0  0
 12 17  1  0  0  0  0
 12 13  1  0  0  0  0
 12 29  1  0  0  0  0
 13 14  1  0  0  0  0
 13 30  1  0  0  0  0
 13 31  1  0  0  0  0
 14 18  1  0  0  0  0
 14 15  1  0  0  0  0
 14 32  1  0  0  0  0
 15 16  1  0  0  0  0
 15 33  1  0  0  0  0
 15 34  1  0  0  0  0
 16 17  1  0  0  0  0
 16 35  1  0  0  0  0
 16 36  1  0  0  0  0
 17 18  1  0  0  0  0
 17 37  1  0  0  0  0
 18 38  1  0  0  0  0
 18 39  1  0  0  0  0
 19 20  2  0  0  0  0
 19 40  1  0  0  0  0
M  END
> <s_m_source_file>
AV-unprocessed.smi

> <i_m_source_file_index>
1675

> <i_lp_mmshare_version>
43012

> <i_f3d_flags>
0

> <s_epik_input>
W05IMl1DKD1PKVtDSDJdbjFbY0hdYyhbY0hdbjEpW05IXUMoPU8pW0NIMl1bQ0BIXShbQ0gyXVtDQEBIXTIzKVtDQEBIXShbQ0gyXTMpW0NIMl1bQ0gyXTI=

> <s_epik_cmdline>
J2VwaWtfcHl0aG9uJywgJy1waCcsICc3LjAnLCAnLXRuJywgJzgnLCAnLW1hJywgJzIwMCcsICctbWV0YWxfYmluZGluZycsICctaW1hZScsICc8aW5maWxlLm1hZT4nLCAnLW9tYWUnLCAnPG91dGZpbGUubWFlPic=

> <r_lp_tautomer_probability>
1

> <r_epik_Ionization_Penalty>
2.17494e-05

> <r_epik_Ionization_Penalty_Charging>
0

> <r_epik_Ionization_Penalty_Neutral>
2.17494e-05

> <r_epik_State_Penalty>
-0

> <r_epik_Charging_Adjusted_Penalty>
0

> <i_epik_Tot_Q>
0

> <i_epik_Tot_abs_Q>
0

> <r_epik_Metal_State_Penalty>
-0

> <b_epik_Metal_Only>
0

> <s_lp_Force_Field>
OPLS_2005

> <r_lp_Energy>
53.8381

> <b_lp_Chiralities_Consistent>
1

> <s_lp_Variant>
AV-unprocessed.smi:1675-2

> <Gold.Version>
5.8.1

> <Gold.Id.Protein>
6NUR|6NUR_protein|mol2

> <Gold.PLP.Fitness>
43.4318

> <Gold.PLP.PLP>
-40.5396

> <Gold.PLP.part.hbond>
-2.0000

> <Gold.PLP.part.metal>
0.0000

> <Gold.PLP.part.buried>
-1.3066

> <Gold.PLP.part.nonpolar>
-37.9724

> <Gold.PLP.part.repulsive>
0.4244

> <Gold.PLP.ligand.clash>
0.0000

> <Gold.PLP.ligand.torsion>
1.0615

> <Gold.PLP.Chemscore.Hbond>
0.9920

> <Gold.PLP.Chemscore.CHOScore>
0.6638

> <Gold.PLP.Chemscore.Metal>
0.0000

> <Gold.Chemscore.Hbonds>
donor molecule, donor type, donor heavy atom, donor atom, acceptor molecule, acceptor atom, score
      L1  H     1    22       P1 10171  0.96
      L1  C     6    25       P1  7957  0.61

> <Gold.PLP.Chemscore.Internal.Correction>
0.0480

> <Gold.Rescore>
     Score         DG    S(hbond)    S(metal)    S(lipo)     H(rot)  DE(clash)    DE(int)     intcor
     14.36     -16.77       0.98        0.00     115.36       2.15       1.31       1.10       ----

> <Gold.Chemscore.Fitness>
14.3639

> <Gold.Chemscore.DG>
-16.7653

> <Gold.Chemscore.ZeroCoef>
-5.4800

> <Gold.Chemscore.Hbond>
0.9846

> <Gold.Chemscore.Metal>
0.0000

> <Gold.Chemscore.Lipo>
115.3604

> <Gold.Chemscore.Internal_Hbond>
0.0000

> <Gold.Chemscore.DEClash>
1.3057

> <Gold.Chemscore.DEInternal>
1.0956

> <Gold.Chemscore.Rot>
2.1486

> <Gold.Chemscore.Internal.Correction>
   9.000000E+99

> <Gold.Chemscore.Hbonds>
donor molecule, donor type, donor heavy atom, donor atom, acceptor molecule, acceptor atom, score
      L1  H     1    22       P1 10171  0.92

> <Gold.Chemscore.Hbond.Weighted>
-3.2885

> <Gold.Chemscore.Metal.Weighted>
-0.0000

> <Gold.Chemscore.Lipo.Weighted>
-13.4972

> <Gold.Chemscore.Internal_Hbond.Weighted>
0.0000

> <Gold.Chemscore.DEClash.Weighted>
1.3057

> <Gold.Chemscore.DEInternal.Weighted>
1.0956

> <Gold.Chemscore.Rot.Weighted>
5.5004

> <Gold.Chemscore.Internal.Correction.Weighted>
   9.000000E+99

> <Gold.Protein.RotatedTorsions>
[ 6907 6896 6895 6894 ] final -161.77 input  -60.11 | X-H torsion
[ 7974 7965 7964 7962 ] final  -63.16 input  175.53 | X-H torsion
[ 8008 7997 7996 7995 ] final   51.30 input   59.86 | X-H torsion
[ 10167 10162 10161 10158 ] final  129.43 input  -65.29 | X-H torsion
[ 10718 10713 10712 10709 ] final  133.44 input   66.30 | X-H torsion
[ 10763 10752 10751 10750 ] final  178.90 input  -60.55 | X-H torsion
[ 11005 11000 10999 10996 ] final   -2.00 input  -57.11 | X-H torsion

> <Gold.Protein.ActiveResidues>
 VAL166  LYS551  ARG553  GLY616  TRP617  ASP618  TYR619  PRO620  LYS621  CYS622 
 ASP623  PHE694  ASN695  SER759  ASP760  ASP761  ALA762  ILE779  LEU786  VAL792 
 PHE793  MET794  SER795  GLU796  ALA797  LYS798  CYS799  TRP800  GLU811  SER814 

> <Gold.Protein.RotatedAtoms>
  151.3698  133.3859  159.2698 H   0  0  0  0  0  0  0  0  0  0  0  0  # atno 6907 bound_to 6896
  150.9659  134.9041  159.7769 H   0  0  0  0  0  0  0  0  0  0  0  0  # atno 6908 bound_to 6896
  152.5167  134.3659  159.9353 H   0  0  0  0  0  0  0  0  0  0  0  0  # atno 6909 bound_to 6896
  145.7825  140.8754  143.0323 H   0  0  0  0  0  0  0  0  0  0  0  0  # atno 7974 bound_to 7965
  155.4329  140.3451  155.4282 H   0  0  0  0  0  0  0  0  0  0  0  0  # atno 8008 bound_to 7997
  156.1325  140.1518  156.9074 H   0  0  0  0  0  0  0  0  0  0  0  0  # atno 8009 bound_to 7997
  154.4906  140.0842  156.7565 H   0  0  0  0  0  0  0  0  0  0  0  0  # atno 8010 bound_to 7997
  139.5478  144.6788  151.4418 H   0  0  0  0  0  0  0  0  0  0  0  0  # atno 10167 bound_to 10162
  157.4772  131.1084  150.9728 H   0  0  0  0  0  0  0  0  0  0  0  0  # atno 10718 bound_to 10713
  154.5137  135.2790  155.1321 H   0  0  0  0  0  0  0  0  0  0  0  0  # atno 10763 bound_to 10752
  154.2907  135.6267  153.5387 H   0  0  0  0  0  0  0  0  0  0  0  0  # atno 10764 bound_to 10752
  152.9923  135.5673  154.5608 H   0  0  0  0  0  0  0  0  0  0  0  0  # atno 10765 bound_to 10752
  140.6535  133.9383  155.8394 H   0  0  0  0  0  0  0  0  0  0  0  0  # atno 11005 bound_to 11000
  144.6794  140.0009  143.7484 LP  0  0  0  0  0  0  0  0  0  0  0  0  # atno 17320 bound_to 7965
  146.0059  139.3130  143.0899 LP  0  0  0  0  0  0  0  0  0  0  0  0  # atno 17321 bound_to 7965
  140.6732  143.8249  150.7025 LP  0  0  0  0  0  0  0  0  0  0  0  0  # atno 17342 bound_to 10162
  140.1679  143.4219  152.2021 LP  0  0  0  0  0  0  0  0  0  0  0  0  # atno 17343 bound_to 10162
  157.0473  130.5773  149.5365 LP  0  0  0  0  0  0  0  0  0  0  0  0  # atno 17370 bound_to 10713
  156.0103  130.5194  150.7966 LP  0  0  0  0  0  0  0  0  0  0  0  0  # atno 17371 bound_to 10713
  141.0519  134.0473  157.3773 LP  0  0  0  0  0  0  0  0  0  0  0  0  # atno 17394 bound_to 11000
  139.9037  135.0173  156.7389 LP  0  0  0  0  0  0  0  0  0  0  0  0  # atno 17395 bound_to 11000

$$$$
