AV-unprocessed.smi:3010|AV-procd|sdf|11456|dock10
  -GOLD-   2272016393D 1   1.00000     0.00000
 Structure written by MMmdl.
 38 40  0  0  0  0  0  0  0  0  1 V2000
  148.6107  136.5190  159.3306 C   0  0  0  0  0  0  0  0  0  0  0  0
  149.4367  136.6927  158.1207 N   0  0  0  0  0  0  0  0  0  0  0  0
  149.9918  137.9234  157.8862 C   0  0  0  0  0  0  0  0  0  0  0  0
  149.8430  138.9105  158.6074 O   0  0  0  0  0  0  0  0  0  0  0  0
  150.8082  137.9840  156.6691 C   0  0  0  0  0  0  0  0  0  0  0  0
  150.9798  136.9227  155.8444 C   0  0  0  0  0  0  0  0  0  0  0  0
  151.7901  137.2465  154.7620 N   0  0  0  0  0  0  0  0  0  0  0  0
  152.0728  138.5277  155.0010 C   0  0  0  0  0  0  0  0  0  0  0  0
  151.5258  139.0462  156.1193 N   0  0  0  0  0  0  0  0  0  0  0  0
  151.6820  140.4136  156.5936 C   0  0  0  0  0  0  0  0  0  0  0  0
  152.1545  140.4870  158.0596 C   0  0  1  0  0  0  0  0  0  0  0  0
  153.4373  139.9060  158.1979 O   0  0  0  0  0  0  0  0  0  0  0  0
  152.1110  141.9161  158.5777 C   0  0  0  0  0  0  0  0  0  0  0  0
  151.5270  142.9440  157.8041 C   0  0  0  0  0  0  0  0  0  0  0  0
  151.4822  144.2635  158.2946 C   0  0  0  0  0  0  0  0  0  0  0  0
  152.0177  144.5626  159.5620 C   0  0  0  0  0  0  0  0  0  0  0  0
  152.5967  143.5412  160.3393 C   0  0  0  0  0  0  0  0  0  0  0  0
  152.6425  142.2214  159.8491 C   0  0  0  0  0  0  0  0  0  0  0  0
  150.3492  135.6970  156.1722 N   0  0  0  0  0  0  0  0  0  0  0  0
  150.5492  134.5744  155.2509 C   0  0  0  0  0  0  0  0  0  0  0  0
  149.5842  135.5813  157.3078 C   0  0  0  0  0  0  0  0  0  0  0  0
  149.0416  134.5106  157.5949 O   0  0  0  0  0  0  0  0  0  0  0  0
  148.5254  137.4049  159.9608 H   0  0  0  0  0  0  0  0  0  0  0  0
  149.0232  135.7308  159.9627 H   0  0  0  0  0  0  0  0  0  0  0  0
  147.5936  136.2324  159.0582 H   0  0  0  0  0  0  0  0  0  0  0  0
  152.6974  139.1103  154.3398 H   0  0  0  0  0  0  0  0  0  0  0  0
  152.3621  140.9515  155.9348 H   0  0  0  0  0  0  0  0  0  0  0  0
  150.7183  140.9150  156.4958 H   0  0  0  0  0  0  0  0  0  0  0  0
  151.4805  139.8841  158.6702 H   0  0  0  0  0  0  0  0  0  0  0  0
  153.4419  139.3742  158.9790 H   0  0  0  0  0  0  0  0  0  0  0  0
  151.1088  142.7236  156.8327 H   0  0  0  0  0  0  0  0  0  0  0  0
  151.0354  145.0458  157.6987 H   0  0  0  0  0  0  0  0  0  0  0  0
  151.9826  145.5743  159.9385 H   0  0  0  0  0  0  0  0  0  0  0  0
  153.0049  143.7695  161.3129 H   0  0  0  0  0  0  0  0  0  0  0  0
  153.0857  141.4445  160.4547 H   0  0  0  0  0  0  0  0  0  0  0  0
  150.0721  133.6447  155.5618 H   0  0  0  0  0  0  0  0  0  0  0  0
  151.6142  134.3681  155.1404 H   0  0  0  0  0  0  0  0  0  0  0  0
  150.1544  134.8284  154.2667 H   0  0  0  0  0  0  0  0  0  0  0  0
  1  2  1  0  0  0  0
  1 23  1  0  0  0  0
  1 24  1  0  0  0  0
  1 25  1  0  0  0  0
  2 21  1  0  0  0  0
  2  3  1  0  0  0  0
  3  4  2  0  0  0  0
  3  5  1  0  0  0  0
  5  9  1  0  0  0  0
  5  6  2  0  0  0  0
  6  7  1  0  0  0  0
  6 19  1  0  0  0  0
  7  8  2  0  0  0  0
  8  9  1  0  0  0  0
  8 26  1  0  0  0  0
  9 10  1  0  0  0  0
 10 11  1  0  0  0  0
 10 27  1  0  0  0  0
 10 28  1  0  0  0  0
 11 12  1  0  0  0  0
 11 13  1  0  0  0  0
 11 29  1  0  0  0  0
 12 30  1  0  0  0  0
 13 18  1  0  0  0  0
 13 14  2  0  0  0  0
 14 15  1  0  0  0  0
 14 31  1  0  0  0  0
 15 16  2  0  0  0  0
 15 32  1  0  0  0  0
 16 17  1  0  0  0  0
 16 33  1  0  0  0  0
 17 18  2  0  0  0  0
 17 34  1  0  0  0  0
 18 35  1  0  0  0  0
 19 20  1  0  0  0  0
 19 21  1  0  0  0  0
 20 36  1  0  0  0  0
 20 37  1  0  0  0  0
 20 38  1  0  0  0  0
 21 22  2  0  0  0  0
M  END
> <s_m_source_file>
AV-unprocessed.smi

> <i_m_source_file_index>
3010

> <i_lp_mmshare_version>
43012

> <i_f3d_flags>
0

> <s_epik_input>
Tz1jMW4oW0NIM10pYyg9TyluKFtDSDNdKWMoYzEyKW5bY0hdbjJbQ0gyXVtDQEhdKFtPSF0pYzNbY0hdW2NIXVtjSF1bY0hdW2NIXTM=

> <s_epik_cmdline>
J2VwaWtfcHl0aG9uJywgJy1waCcsICc3LjAnLCAnLXRuJywgJzgnLCAnLW1hJywgJzIwMCcsICctbWV0YWxfYmluZGluZycsICctaW1hZScsICc8aW5maWxlLm1hZT4nLCAnLW9tYWUnLCAnPG91dGZpbGUubWFlPic=

> <r_lp_tautomer_probability>
1

> <r_epik_Ionization_Penalty>
1.43747e-06

> <r_epik_Ionization_Penalty_Charging>
3.74189e-09

> <r_epik_Ionization_Penalty_Neutral>
1.43373e-06

> <r_epik_State_Penalty>
-0

> <r_epik_Charging_Adjusted_Penalty>
3.74189e-09

> <i_epik_Tot_Q>
0

> <i_epik_Tot_abs_Q>
0

> <r_epik_Metal_State_Penalty>
-0

> <b_epik_Metal_Only>
0

> <s_lp_Force_Field>
OPLS_2005

> <r_lp_Energy>
36.4427

> <b_lp_Chiralities_Consistent>
1

> <s_lp_Variant>
AV-unprocessed.smi:3010-2

> <Gold.Version>
5.8.1

> <Gold.Id.Protein>
6NUR|6NUR_protein|mol2

> <Gold.PLP.Fitness>
45.2904

> <Gold.PLP.PLP>
-39.9820

> <Gold.PLP.part.hbond>
-2.0000

> <Gold.PLP.part.metal>
0.0000

> <Gold.PLP.part.buried>
-5.7387

> <Gold.PLP.part.nonpolar>
-32.5182

> <Gold.PLP.part.repulsive>
0.1202

> <Gold.PLP.ligand.clash>
0.0000

> <Gold.PLP.ligand.torsion>
0.2524

> <Gold.PLP.Chemscore.Hbond>
1.9280

> <Gold.PLP.Chemscore.CHOScore>
0.0000

> <Gold.PLP.Chemscore.Metal>
0.0000

> <Gold.Chemscore.Hbonds>
donor molecule, donor type, donor heavy atom, donor atom, acceptor molecule, acceptor atom, score
      P1  H  7997  8009       L1    12  0.99
      P1  H 10752 10764       L1     7  0.93

> <Gold.PLP.Chemscore.Internal.Correction>
0.0292

> <Gold.Rescore>
     Score         DG    S(hbond)    S(metal)    S(lipo)     H(rot)  DE(clash)    DE(int)     intcor
     16.13     -16.19       1.88        0.00      84.77       2.15       0.00       0.06       ----

> <Gold.Chemscore.Fitness>
16.1316

> <Gold.Chemscore.DG>
-16.1883

> <Gold.Chemscore.ZeroCoef>
-5.4800

> <Gold.Chemscore.Hbond>
1.8825

> <Gold.Chemscore.Metal>
0.0000

> <Gold.Chemscore.Lipo>
84.7709

> <Gold.Chemscore.Internal_Hbond>
0.0000

> <Gold.Chemscore.DEClash>
0.0000

> <Gold.Chemscore.DEInternal>
0.0567

> <Gold.Chemscore.Rot>
2.1474

> <Gold.Chemscore.Internal.Correction>
   9.000000E+99

> <Gold.Chemscore.Hbonds>
donor molecule, donor type, donor heavy atom, donor atom, acceptor molecule, acceptor atom, score
      P1  H  7997  8009       L1    12  0.89
      P1  H 10752 10764       L1     7  0.66

> <Gold.Chemscore.Hbond.Weighted>
-6.2875

> <Gold.Chemscore.Metal.Weighted>
-0.0000

> <Gold.Chemscore.Lipo.Weighted>
-9.9182

> <Gold.Chemscore.Internal_Hbond.Weighted>
0.0000

> <Gold.Chemscore.DEClash.Weighted>
0.0000

> <Gold.Chemscore.DEInternal.Weighted>
0.0567

> <Gold.Chemscore.Rot.Weighted>
5.4974

> <Gold.Chemscore.Internal.Correction.Weighted>
   9.000000E+99

> <Gold.Protein.RotatedTorsions>
[ 6907 6896 6895 6894 ] final   32.10 input  -60.11 | X-H torsion
[ 7974 7965 7964 7962 ] final   43.34 input  175.53 | X-H torsion
[ 8008 7997 7996 7995 ] final  165.76 input   59.86 | X-H torsion
[ 10167 10162 10161 10158 ] final   20.28 input  -65.29 | X-H torsion
[ 10718 10713 10712 10709 ] final  -19.35 input   66.30 | X-H torsion
[ 10763 10752 10751 10750 ] final  -81.53 input  -60.55 | X-H torsion
[ 11005 11000 10999 10996 ] final  -68.92 input  -57.11 | X-H torsion

> <Gold.Protein.ActiveResidues>
 VAL166  LYS551  ARG553  GLY616  TRP617  ASP618  TYR619  PRO620  LYS621  CYS622 
 ASP623  PHE694  ASN695  SER759  ASP760  ASP761  ALA762  ILE779  LEU786  VAL792 
 PHE793  MET794  SER795  GLU796  ALA797  LYS798  CYS799  TRP800  GLU811  SER814 

> <Gold.Protein.RotatedAtoms>
  152.0697  134.9541  160.0574 H   0  0  0  0  0  0  0  0  0  0  0  0  # atno 6907 bound_to 6896
  152.0872  133.4177  159.4536 H   0  0  0  0  0  0  0  0  0  0  0  0  # atno 6908 bound_to 6896
  150.6836  134.2833  159.4680 H   0  0  0  0  0  0  0  0  0  0  0  0  # atno 6909 bound_to 6896
  146.0664  139.5198  142.9626 H   0  0  0  0  0  0  0  0  0  0  0  0  # atno 7974 bound_to 7965
  156.1774  140.1661  156.8337 H   0  0  0  0  0  0  0  0  0  0  0  0  # atno 8008 bound_to 7997
  154.5322  140.0754  156.8399 H   0  0  0  0  0  0  0  0  0  0  0  0  # atno 8009 bound_to 7997
  155.3383  140.3383  155.4241 H   0  0  0  0  0  0  0  0  0  0  0  0  # atno 8010 bound_to 7997
  140.5516  143.9499  150.6582 H   0  0  0  0  0  0  0  0  0  0  0  0  # atno 10167 bound_to 10162
  156.5468  130.4692  149.6471 H   0  0  0  0  0  0  0  0  0  0  0  0  # atno 10718 bound_to 10713
  154.5647  135.5623  153.7040 H   0  0  0  0  0  0  0  0  0  0  0  0  # atno 10763 bound_to 10752
  153.0029  135.6282  154.2196 H   0  0  0  0  0  0  0  0  0  0  0  0  # atno 10764 bound_to 10752
  154.2135  135.2872  155.2930 H   0  0  0  0  0  0  0  0  0  0  0  0  # atno 10765 bound_to 10752
  141.1543  133.6752  156.6520 H   0  0  0  0  0  0  0  0  0  0  0  0  # atno 11005 bound_to 11000
  145.6470  141.0271  143.1781 LP  0  0  0  0  0  0  0  0  0  0  0  0  # atno 17320 bound_to 7965
  144.7205  139.8048  143.7384 LP  0  0  0  0  0  0  0  0  0  0  0  0  # atno 17321 bound_to 7965
  140.2927  143.3314  152.1047 LP  0  0  0  0  0  0  0  0  0  0  0  0  # atno 17342 bound_to 10162
  139.5030  144.6746  151.6161 LP  0  0  0  0  0  0  0  0  0  0  0  0  # atno 17343 bound_to 10162
  156.2921  130.7130  151.1981 LP  0  0  0  0  0  0  0  0  0  0  0  0  # atno 17370 bound_to 10713
  157.7395  131.0528  150.5227 LP  0  0  0  0  0  0  0  0  0  0  0  0  # atno 17371 bound_to 10713
  140.3313  134.7926  157.4328 LP  0  0  0  0  0  0  0  0  0  0  0  0  # atno 17394 bound_to 11000
  140.1014  134.5467  155.8349 LP  0  0  0  0  0  0  0  0  0  0  0  0  # atno 17395 bound_to 11000

$$$$
