AV-unprocessed.smi:1019|AV-procd|sdf|4447|dock6
  -GOLD-   22720 2413D 1   1.00000     0.00000
 Structure written by MMmdl.
 45 47  0  0  0  0  0  0  0  0  3 V2000
  147.8699  137.4827  157.1084 C   0  0  0  0  0  0  0  0  0  0  0  0
  148.4745  137.2371  158.4375 N   0  3  1  0  0  0  0  0  0  0  0  0
  148.8016  135.8062  158.6517 C   0  0  0  0  0  0  0  0  0  0  0  0
  148.4510  135.3638  160.0621 C   0  0  0  0  0  0  0  0  0  0  0  0
  148.3182  136.3243  161.0876 C   0  0  0  0  0  0  0  0  0  0  0  0
  148.0117  135.9203  162.4014 C   0  0  0  0  0  0  0  0  0  0  0  0
  147.8320  134.5550  162.6945 C   0  0  0  0  0  0  0  0  0  0  0  0
  147.9575  133.5935  161.6733 C   0  0  0  0  0  0  0  0  0  0  0  0
  148.2652  133.9967  160.3592 C   0  0  0  0  0  0  0  0  0  0  0  0
  149.6039  138.1581  158.7296 C   0  0  0  0  0  0  0  0  0  0  0  0
  150.5124  138.3486  157.5016 C   0  0  2  0  0  0  0  0  0  0  0  0
  151.0812  137.0960  157.1788 O   0  0  0  0  0  0  0  0  0  0  0  0
  151.6409  139.3707  157.7574 C   0  0  0  0  0  0  0  0  0  0  0  0
  151.2206  140.7598  157.5328 N   0  0  0  0  0  0  0  0  0  0  0  0
  150.2906  141.2653  156.6767 C   0  0  0  0  0  0  0  0  0  0  0  0
  150.2723  142.6172  156.8420 N   0  3  0  0  0  0  0  0  0  0  0  0
  151.2073  142.9816  157.8134 C   0  0  0  0  0  0  0  0  0  0  0  0
  151.5545  144.2292  158.3231 C   0  0  0  0  0  0  0  0  0  0  0  0
  152.5585  144.2510  159.3136 C   0  0  0  0  0  0  0  0  0  0  0  0
  153.1760  143.0645  159.7604 C   0  0  0  0  0  0  0  0  0  0  0  0
  152.8160  141.8047  159.2371 C   0  0  0  0  0  0  0  0  0  0  0  0
  151.8222  141.7924  158.2594 C   0  0  0  0  0  0  0  0  0  0  0  0
  148.5684  137.2316  156.3087 H   0  0  0  0  0  0  0  0  0  0  0  0
  147.5842  138.5289  156.9967 H   0  0  0  0  0  0  0  0  0  0  0  0
  146.9702  136.8808  156.9771 H   0  0  0  0  0  0  0  0  0  0  0  0
  148.2281  135.1858  157.9612 H   0  0  0  0  0  0  0  0  0  0  0  0
  149.8552  135.6225  158.4345 H   0  0  0  0  0  0  0  0  0  0  0  0
  148.4562  137.3737  160.8706 H   0  0  0  0  0  0  0  0  0  0  0  0
  147.9136  136.6576  163.1847 H   0  0  0  0  0  0  0  0  0  0  0  0
  147.5956  134.2455  163.7020 H   0  0  0  0  0  0  0  0  0  0  0  0
  147.8173  132.5465  161.8982 H   0  0  0  0  0  0  0  0  0  0  0  0
  148.3619  133.2521  159.5825 H   0  0  0  0  0  0  0  0  0  0  0  0
  149.2407  139.1361  159.0454 H   0  0  0  0  0  0  0  0  0  0  0  0
  150.1744  137.7721  159.5763 H   0  0  0  0  0  0  0  0  0  0  0  0
  149.9149  138.6605  156.6448 H   0  0  0  0  0  0  0  0  0  0  0  0
  151.9053  137.2430  156.7397 H   0  0  0  0  0  0  0  0  0  0  0  0
  152.0241  139.2913  158.7754 H   0  0  0  0  0  0  0  0  0  0  0  0
  152.4862  139.1756  157.0955 H   0  0  0  0  0  0  0  0  0  0  0  0
  149.6769  140.6975  155.9917 H   0  0  0  0  0  0  0  0  0  0  0  0
  151.0841  145.1401  157.9826 H   0  0  0  0  0  0  0  0  0  0  0  0
  152.8613  145.1971  159.7389 H   0  0  0  0  0  0  0  0  0  0  0  0
  153.9419  143.1227  160.5204 H   0  0  0  0  0  0  0  0  0  0  0  0
  153.2951  140.9022  159.5861 H   0  0  0  0  0  0  0  0  0  0  0  0
  147.7574  137.4470  159.1167 H   0  0  0  0  0  0  0  0  0  0  0  0
  149.6667  143.2432  156.3263 H   0  0  0  0  0  0  0  0  0  0  0  0
  1  2  1  0  0  0  0
  1 23  1  0  0  0  0
  1 24  1  0  0  0  0
  1 25  1  0  0  0  0
  2  3  1  0  0  0  0
  2 10  1  0  0  0  0
  2 44  1  0  0  0  0
  3  4  1  0  0  0  0
  3 26  1  0  0  0  0
  3 27  1  0  0  0  0
  4  9  1  0  0  0  0
  4  5  2  0  0  0  0
  5  6  1  0  0  0  0
  5 28  1  0  0  0  0
  6  7  2  0  0  0  0
  6 29  1  0  0  0  0
  7  8  1  0  0  0  0
  7 30  1  0  0  0  0
  8  9  2  0  0  0  0
  8 31  1  0  0  0  0
  9 32  1  0  0  0  0
 10 11  1  0  0  0  0
 10 33  1  0  0  0  0
 10 34  1  0  0  0  0
 11 12  1  0  0  0  0
 11 13  1  0  0  0  0
 11 35  1  0  0  0  0
 12 36  1  0  0  0  0
 13 14  1  0  0  0  0
 13 37  1  0  0  0  0
 13 38  1  0  0  0  0
 14 22  1  0  0  0  0
 14 15  1  0  0  0  0
 15 16  2  0  0  0  0
 15 39  1  0  0  0  0
 16 17  1  0  0  0  0
 16 45  1  0  0  0  0
 17 22  2  0  0  0  0
 17 18  1  0  0  0  0
 18 19  2  0  0  0  0
 18 40  1  0  0  0  0
 19 20  1  0  0  0  0
 19 41  1  0  0  0  0
 20 21  2  0  0  0  0
 20 42  1  0  0  0  0
 21 22  1  0  0  0  0
 21 43  1  0  0  0  0
M  CHG  1   2   1
M  CHG  1  16   1
M  END
> <s_m_source_file>
AV-unprocessed.smi

> <i_m_source_file_index>
1019

> <i_lp_mmshare_version>
43012

> <i_f3d_flags>
0

> <s_epik_input>
W2NIXTFbY0hdW2NIXVtjSF1bY0hdYzFbQ0gyXU4oW0NIM10pW0NIMl1bQ0BIXShbT0hdKVtDSDJdbihbY0hdbjIpYyhjMjMpW2NIXVtjSF1bY0hdW2NIXTM=

> <s_epik_cmdline>
J2VwaWtfcHl0aG9uJywgJy1waCcsICc3LjAnLCAnLXRuJywgJzgnLCAnLW1hJywgJzIwMCcsICctbWV0YWxfYmluZGluZycsICctaW1hZScsICc8aW5maWxlLm1hZT4nLCAnLW9tYWUnLCAnPG91dGZpbGUubWFlPic=

> <r_epik_Ionization_Penalty>
1.5198

> <r_epik_Ionization_Penalty_Charging>
1.5198

> <r_epik_Ionization_Penalty_Neutral>
3.13312e-06

> <r_epik_State_Penalty>
1.624

> <r_epik_Charging_Adjusted_Penalty>
3.1438

> <i_epik_Tot_Q>
2

> <i_epik_Tot_abs_Q>
2

> <r_epik_Metal_State_Penalty>
5.67392

> <b_epik_Metal_Only>
0

> <s_lp_Force_Field>
OPLS_2005

> <r_lp_Energy>
24.5939

> <b_lp_Chiralities_Consistent>
1

> <s_lp_Variant>
AV-unprocessed.smi:1019-5

> <Gold.Version>
5.8.1

> <Gold.Id.Protein>
6NUR|6NUR_protein|mol2

> <Gold.PLP.Fitness>
49.6776

> <Gold.PLP.PLP>
-46.8229

> <Gold.PLP.part.hbond>
-1.0000

> <Gold.PLP.part.metal>
0.0000

> <Gold.PLP.part.buried>
-4.7206

> <Gold.PLP.part.nonpolar>
-41.0679

> <Gold.PLP.part.repulsive>
0.1758

> <Gold.PLP.ligand.clash>
0.0000

> <Gold.PLP.ligand.torsion>
1.6800

> <Gold.PLP.Chemscore.Hbond>
2.0000

> <Gold.PLP.Chemscore.CHOScore>
0.0000

> <Gold.PLP.Chemscore.Metal>
0.0000

> <Gold.Chemscore.Hbonds>
donor molecule, donor type, donor heavy atom, donor atom, acceptor molecule, acceptor atom, score
      L1  H    16    45       P1  8028  2.00

> <Gold.PLP.Chemscore.Internal.Correction>
0.2147

> <Gold.Rescore>
     Score         DG    S(hbond)    S(metal)    S(lipo)     H(rot)  DE(clash)    DE(int)     intcor
     15.77     -17.66       0.99        0.00     129.72       2.46       0.14       1.75       ----

> <Gold.Chemscore.Fitness>
15.7670

> <Gold.Chemscore.DG>
-17.6617

> <Gold.Chemscore.ZeroCoef>
-5.4800

> <Gold.Chemscore.Hbond>
0.9850

> <Gold.Chemscore.Metal>
0.0000

> <Gold.Chemscore.Lipo>
129.7182

> <Gold.Chemscore.Internal_Hbond>
0.0000

> <Gold.Chemscore.DEClash>
0.1423

> <Gold.Chemscore.DEInternal>
1.7525

> <Gold.Chemscore.Rot>
2.4552

> <Gold.Chemscore.Internal.Correction>
   9.000000E+99

> <Gold.Chemscore.Hbonds>
donor molecule, donor type, donor heavy atom, donor atom, acceptor molecule, acceptor atom, score
      L1  H    16    45       P1  8028  1.00

> <Gold.Chemscore.Hbond.Weighted>
-3.2901

> <Gold.Chemscore.Metal.Weighted>
-0.0000

> <Gold.Chemscore.Lipo.Weighted>
-15.1770

> <Gold.Chemscore.Internal_Hbond.Weighted>
0.0000

> <Gold.Chemscore.DEClash.Weighted>
0.1423

> <Gold.Chemscore.DEInternal.Weighted>
1.7525

> <Gold.Chemscore.Rot.Weighted>
6.2854

> <Gold.Chemscore.Internal.Correction.Weighted>
   9.000000E+99

> <Gold.Protein.RotatedTorsions>
[ 6907 6896 6895 6894 ] final  -97.44 input  -60.11 | X-H torsion
[ 7974 7965 7964 7962 ] final  -79.64 input  175.53 | X-H torsion
[ 8008 7997 7996 7995 ] final  128.32 input   59.86 | X-H torsion
[ 10167 10162 10161 10158 ] final  -16.46 input  -65.29 | X-H torsion
[ 10718 10713 10712 10709 ] final  160.37 input   66.30 | X-H torsion
[ 10763 10752 10751 10750 ] final    9.77 input  -60.55 | X-H torsion
[ 11005 11000 10999 10996 ] final  166.40 input  -57.11 | X-H torsion

> <Gold.Protein.ActiveResidues>
 VAL166  LYS551  ARG553  GLY616  TRP617  ASP618  TYR619  PRO620  LYS621  CYS622 
 ASP623  PHE694  ASN695  SER759  ASP760  ASP761  ALA762  ILE779  LEU786  VAL792 
 PHE793  MET794  SER795  GLU796  ALA797  LYS798  CYS799  TRP800  GLU811  SER814 

> <Gold.Protein.RotatedAtoms>
  150.7016  134.1347  159.4082 H   0  0  0  0  0  0  0  0  0  0  0  0  # atno 6907 bound_to 6896
  151.9333  135.0244  160.0540 H   0  0  0  0  0  0  0  0  0  0  0  0  # atno 6908 bound_to 6896
  152.2157  133.4910  159.5171 H   0  0  0  0  0  0  0  0  0  0  0  0  # atno 6909 bound_to 6896
  145.5705  140.9467  143.1398 H   0  0  0  0  0  0  0  0  0  0  0  0  # atno 7974 bound_to 7965
  156.2912  140.2647  156.2417 H   0  0  0  0  0  0  0  0  0  0  0  0  # atno 8008 bound_to 7997
  154.9971  140.0388  157.2362 H   0  0  0  0  0  0  0  0  0  0  0  0  # atno 8009 bound_to 7997
  154.7635  140.2765  155.6200 H   0  0  0  0  0  0  0  0  0  0  0  0  # atno 8010 bound_to 7997
  140.7234  143.5114  150.9745 H   0  0  0  0  0  0  0  0  0  0  0  0  # atno 10167 bound_to 10162
  157.1514  131.0565  151.2278 H   0  0  0  0  0  0  0  0  0  0  0  0  # atno 10718 bound_to 10713
  153.2104  135.6868  153.8121 H   0  0  0  0  0  0  0  0  0  0  0  0  # atno 10763 bound_to 10752
  153.7356  135.3246  155.3295 H   0  0  0  0  0  0  0  0  0  0  0  0  # atno 10764 bound_to 10752
  154.8219  135.4646  154.0909 H   0  0  0  0  0  0  0  0  0  0  0  0  # atno 10765 bound_to 10752
  140.2660  134.7864  157.3633 H   0  0  0  0  0  0  0  0  0  0  0  0  # atno 11005 bound_to 11000
  144.7440  139.7370  143.7299 LP  0  0  0  0  0  0  0  0  0  0  0  0  # atno 17320 bound_to 7965
  146.1788  139.4970  142.9880 LP  0  0  0  0  0  0  0  0  0  0  0  0  # atno 17321 bound_to 7965
  139.8828  143.7051  152.3155 LP  0  0  0  0  0  0  0  0  0  0  0  0  # atno 17342 bound_to 10162
  139.7339  144.7576  151.0758 LP  0  0  0  0  0  0  0  0  0  0  0  0  # atno 17343 bound_to 10162
  157.4217  130.7441  149.6918 LP  0  0  0  0  0  0  0  0  0  0  0  0  # atno 17370 bound_to 10713
  155.9770  130.4069  150.3742 LP  0  0  0  0  0  0  0  0  0  0  0  0  # atno 17371 bound_to 10713
  140.1418  134.4962  155.8025 LP  0  0  0  0  0  0  0  0  0  0  0  0  # atno 17394 bound_to 11000
  141.2184  133.6828  156.7224 LP  0  0  0  0  0  0  0  0  0  0  0  0  # atno 17395 bound_to 11000

$$$$
