AV-unprocessed.smi:113|AV-procd|sdf|1092|dock10
  -GOLD-   2262018193D 1   1.00000     0.00000
 Structure written by MMmdl.
 52 55  0  0  0  0  0  0  0  0  1 V2000
  150.8327  145.2839  160.0793 C   0  0  0  0  0  0  0  0  0  0  0  0
  151.6056  143.9815  160.0992 C   0  0  0  0  0  0  0  0  0  0  0  0
  151.5809  143.1140  158.9929 C   0  0  0  0  0  0  0  0  0  0  0  0
  152.3120  141.9052  159.0522 C   0  0  0  0  0  0  0  0  0  0  0  0
  152.3166  140.9233  157.8751 C   0  0  0  0  0  0  0  0  0  0  0  0
  151.1092  140.1348  157.6732 N   0  0  0  0  0  0  0  0  0  0  0  0
  150.9185  138.9994  158.4962 C   0  0  0  0  0  0  0  0  0  0  0  0
  151.7454  138.6764  159.3520 O   0  0  0  0  0  0  0  0  0  0  0  0
  149.6740  138.2644  158.2619 C   0  0  0  0  0  0  0  0  0  0  0  0
  149.4174  137.0144  159.0897 C   0  0  0  0  0  0  0  0  0  0  0  0
  148.7945  138.7047  157.3293 C   0  0  0  0  0  0  0  0  0  0  0  0
  148.9900  139.8413  156.5566 N   0  0  0  0  0  0  0  0  0  0  0  0
  147.9734  140.3576  155.5547 C   0  0  1  0  0  0  0  0  0  0  0  0
  148.4460  140.4478  154.1060 C   0  0  0  0  0  0  0  0  0  0  0  0
  147.1070  140.5277  153.4021 C   0  0  1  0  0  0  0  0  0  0  0  0
  147.2208  140.1390  152.0472 O   0  0  0  0  0  0  0  0  0  0  0  0
  146.2002  139.6305  154.2769 C   0  0  1  0  0  0  0  0  0  0  0  0
  145.8898  138.2234  153.7312 C   0  0  0  0  0  0  0  0  0  0  0  0
  145.3350  138.3002  152.4342 O   0  0  0  0  0  0  0  0  0  0  0  0
  146.9139  139.4561  155.5020 O   0  0  0  0  0  0  0  0  0  0  0  0
  150.1777  140.5876  156.7125 C   0  0  0  0  0  0  0  0  0  0  0  0
  150.3793  141.6026  156.0406 O   0  0  0  0  0  0  0  0  0  0  0  0
  153.0431  141.6279  160.2387 C   0  0  0  0  0  0  0  0  0  0  0  0
  153.8047  140.4424  160.3779 C   0  0  0  0  0  0  0  0  0  0  0  0
  154.5193  140.1854  161.5615 C   0  0  0  0  0  0  0  0  0  0  0  0
  154.4797  141.1094  162.6185 C   0  0  0  0  0  0  0  0  0  0  0  0
  153.7267  142.2901  162.4879 C   0  0  0  0  0  0  0  0  0  0  0  0
  153.0029  142.5701  161.3089 C   0  0  0  0  0  0  0  0  0  0  0  0
  152.2945  143.7178  161.2264 N   0  0  0  0  0  0  0  0  0  0  0  0
  150.5841  145.5769  159.0587 H   0  0  0  0  0  0  0  0  0  0  0  0
  151.4168  146.0881  160.5279 H   0  0  0  0  0  0  0  0  0  0  0  0
  149.9041  145.1780  160.6408 H   0  0  0  0  0  0  0  0  0  0  0  0
  151.0050  143.3851  158.1211 H   0  0  0  0  0  0  0  0  0  0  0  0
  152.5211  141.4546  156.9444 H   0  0  0  0  0  0  0  0  0  0  0  0
  153.1467  140.2217  157.9721 H   0  0  0  0  0  0  0  0  0  0  0  0
  148.4663  136.5446  158.8374 H   0  0  0  0  0  0  0  0  0  0  0  0
  149.3937  137.2608  160.1519 H   0  0  0  0  0  0  0  0  0  0  0  0
  150.2058  136.2790  158.9260 H   0  0  0  0  0  0  0  0  0  0  0  0
  147.9067  138.1093  157.1927 H   0  0  0  0  0  0  0  0  0  0  0  0
  147.6448  141.3249  155.9417 H   0  0  0  0  0  0  0  0  0  0  0  0
  149.0965  141.3072  153.9400 H   0  0  0  0  0  0  0  0  0  0  0  0
  148.9486  139.5259  153.8116 H   0  0  0  0  0  0  0  0  0  0  0  0
  146.7412  141.5548  153.4413 H   0  0  0  0  0  0  0  0  0  0  0  0
  148.1382  140.0883  151.8247 H   0  0  0  0  0  0  0  0  0  0  0  0
  145.2693  140.1534  154.5008 H   0  0  0  0  0  0  0  0  0  0  0  0
  146.7800  137.5934  153.7260 H   0  0  0  0  0  0  0  0  0  0  0  0
  145.1570  137.7312  154.3714 H   0  0  0  0  0  0  0  0  0  0  0  0
  144.7638  139.0524  152.3952 H   0  0  0  0  0  0  0  0  0  0  0  0
  153.8566  139.7115  159.5855 H   0  0  0  0  0  0  0  0  0  0  0  0
  155.0975  139.2781  161.6578 H   0  0  0  0  0  0  0  0  0  0  0  0
  155.0264  140.9142  163.5292 H   0  0  0  0  0  0  0  0  0  0  0  0
  153.7050  142.9935  163.3076 H   0  0  0  0  0  0  0  0  0  0  0  0
  1  2  1  0  0  0  0
  1 30  1  0  0  0  0
  1 31  1  0  0  0  0
  1 32  1  0  0  0  0
  2 29  1  0  0  0  0
  2  3  2  0  0  0  0
  3  4  1  0  0  0  0
  3 33  1  0  0  0  0
  4  5  1  0  0  0  0
  4 23  2  0  0  0  0
  5  6  1  0  0  0  0
  5 34  1  0  0  0  0
  5 35  1  0  0  0  0
  6 21  1  0  0  0  0
  6  7  1  0  0  0  0
  7  8  2  0  0  0  0
  7  9  1  0  0  0  0
  9 10  1  0  0  0  0
  9 11  2  0  0  0  0
 10 36  1  0  0  0  0
 10 37  1  0  0  0  0
 10 38  1  0  0  0  0
 11 12  1  0  0  0  0
 11 39  1  0  0  0  0
 12 13  1  0  0  0  0
 12 21  1  0  0  0  0
 13 20  1  0  0  0  0
 13 14  1  0  0  0  0
 13 40  1  0  0  0  0
 14 15  1  0  0  0  0
 14 41  1  0  0  0  0
 14 42  1  0  0  0  0
 15 16  1  0  0  0  0
 15 17  1  0  0  0  0
 15 43  1  0  0  0  0
 16 44  1  0  0  0  0
 17 18  1  0  0  0  0
 17 20  1  0  0  0  0
 17 45  1  0  0  0  0
 18 19  1  0  0  0  0
 18 46  1  0  0  0  0
 18 47  1  0  0  0  0
 19 48  1  0  0  0  0
 21 22  2  0  0  0  0
 23 28  1  0  0  0  0
 23 24  1  0  0  0  0
 24 25  2  0  0  0  0
 24 49  1  0  0  0  0
 25 26  1  0  0  0  0
 25 50  1  0  0  0  0
 26 27  2  0  0  0  0
 26 51  1  0  0  0  0
 27 28  1  0  0  0  0
 27 52  1  0  0  0  0
 28 29  2  0  0  0  0
M  END
> <s_m_source_file>
AV-unprocessed.smi

> <i_m_source_file_index>
113

> <i_lp_mmshare_version>
43012

> <i_f3d_flags>
0

> <s_epik_input>
W2NIXTFbY0hdW2NIXVtjSF1jKGMxMiluYyhbQ0gzXSlbY0hdYzJbQ0gyXW4zYyg9TyljKFtDSDNdKVtjSF1uKGMzPU8pW0NAQEhdNFtDSDJdW0NAQEhdKFtPSF0pW0NASF0oTzQpW0NIMl1bT0hd

> <s_epik_cmdline>
J2VwaWtfcHl0aG9uJywgJy1waCcsICc3LjAnLCAnLXRuJywgJzgnLCAnLW1hJywgJzIwMCcsICctbWV0YWxfYmluZGluZycsICctaW1hZScsICc8aW5maWxlLm1hZT4nLCAnLW9tYWUnLCAnPG91dGZpbGUubWFlPic=

> <r_lp_tautomer_probability>
1

> <r_epik_Ionization_Penalty>
0.214728

> <r_epik_Ionization_Penalty_Charging>
3.04883e-08

> <r_epik_Ionization_Penalty_Neutral>
0.214728

> <r_epik_State_Penalty>
0.204913

> <r_epik_Charging_Adjusted_Penalty>
0.204913

> <i_epik_Tot_Q>
0

> <i_epik_Tot_abs_Q>
0

> <r_epik_Metal_State_Penalty>
0.000244761

> <b_epik_Metal_Only>
0

> <s_epik_Chemistry_Notes>
This compound contains an acetal/aminal-like group ( X-CH(R)-Y where X, Y are N, S, or O) that may be acid/base labile, releasing an aldehyde.

> <s_lp_Force_Field>
OPLS_2005

> <r_lp_Energy>
43.3088

> <b_lp_Chiralities_Consistent>
1

> <s_lp_Variant>
AV-unprocessed.smi:113-2

> <Gold.Version>
5.8.1

> <Gold.Id.Protein>
6NUR|6NUR_protein|mol2

> <Gold.PLP.Fitness>
53.8310

> <Gold.PLP.PLP>
-48.8133

> <Gold.PLP.part.hbond>
-2.8249

> <Gold.PLP.part.metal>
0.0000

> <Gold.PLP.part.buried>
-6.1647

> <Gold.PLP.part.nonpolar>
-40.3273

> <Gold.PLP.part.repulsive>
0.2204

> <Gold.PLP.ligand.clash>
0.0000

> <Gold.PLP.ligand.torsion>
0.5069

> <Gold.PLP.Chemscore.Hbond>
2.0000

> <Gold.PLP.Chemscore.CHOScore>
0.0000

> <Gold.PLP.Chemscore.Metal>
0.0000

> <Gold.Chemscore.Hbonds>
donor molecule, donor type, donor heavy atom, donor atom, acceptor molecule, acceptor atom, score
      L1  H    16    44       P1  7957  1.00
      L1  H    19    48       P1 10175  1.00

> <Gold.PLP.Chemscore.Internal.Correction>
0.0314

> <Gold.Rescore>
     Score         DG    S(hbond)    S(metal)    S(lipo)     H(rot)  DE(clash)    DE(int)     intcor
     17.59     -20.62       2.00        0.00     136.88       2.95       0.17       2.86       ----

> <Gold.Chemscore.Fitness>
17.5876

> <Gold.Chemscore.DG>
-20.6187

> <Gold.Chemscore.ZeroCoef>
-5.4800

> <Gold.Chemscore.Hbond>
1.9963

> <Gold.Chemscore.Metal>
0.0000

> <Gold.Chemscore.Lipo>
136.8814

> <Gold.Chemscore.Internal_Hbond>
0.0000

> <Gold.Chemscore.DEClash>
0.1686

> <Gold.Chemscore.DEInternal>
2.8624

> <Gold.Chemscore.Rot>
2.9469

> <Gold.Chemscore.Internal.Correction>
   9.000000E+99

> <Gold.Chemscore.Hbonds>
donor molecule, donor type, donor heavy atom, donor atom, acceptor molecule, acceptor atom, score
      L1  H    16    44       P1  7957  0.98
      L1  H    19    48       P1 10175  1.00

> <Gold.Chemscore.Hbond.Weighted>
-6.6675

> <Gold.Chemscore.Metal.Weighted>
-0.0000

> <Gold.Chemscore.Lipo.Weighted>
-16.0151

> <Gold.Chemscore.Internal_Hbond.Weighted>
0.0000

> <Gold.Chemscore.DEClash.Weighted>
0.1686

> <Gold.Chemscore.DEInternal.Weighted>
2.8624

> <Gold.Chemscore.Rot.Weighted>
7.5439

> <Gold.Chemscore.Internal.Correction.Weighted>
   9.000000E+99

> <Gold.Protein.RotatedTorsions>
[ 6907 6896 6895 6894 ] final  127.90 input  -60.11 | X-H torsion
[ 7974 7965 7964 7962 ] final   58.49 input  175.53 | X-H torsion
[ 8008 7997 7996 7995 ] final   30.23 input   59.86 | X-H torsion
[ 10167 10162 10161 10158 ] final  -97.94 input  -65.29 | X-H torsion
[ 10718 10713 10712 10709 ] final   89.50 input   66.30 | X-H torsion
[ 10763 10752 10751 10750 ] final  164.98 input  -60.55 | X-H torsion
[ 11005 11000 10999 10996 ] final   46.26 input  -57.11 | X-H torsion

> <Gold.Protein.ActiveResidues>
 VAL166  LYS551  ARG553  GLY616  TRP617  ASP618  TYR619  PRO620  LYS621  CYS622 
 ASP623  PHE694  ASN695  SER759  ASP760  ASP761  ALA762  ILE779  LEU786  VAL792 
 PHE793  MET794  SER795  GLU796  ALA797  LYS798  CYS799  TRP800  GLU811  SER814 

> <Gold.Protein.RotatedAtoms>
  152.3770  133.6494  159.6130 H   0  0  0  0  0  0  0  0  0  0  0  0  # atno 6907 bound_to 6896
  150.7711  133.9177  159.3397 H   0  0  0  0  0  0  0  0  0  0  0  0  # atno 6908 bound_to 6896
  151.6990  135.0934  160.0298 H   0  0  0  0  0  0  0  0  0  0  0  0  # atno 6909 bound_to 6896
  145.9175  139.3703  143.0498 H   0  0  0  0  0  0  0  0  0  0  0  0  # atno 7974 bound_to 7965
  155.0871  140.3216  155.4584 H   0  0  0  0  0  0  0  0  0  0  0  0  # atno 8008 bound_to 7997
  156.2752  140.2084  156.5944 H   0  0  0  0  0  0  0  0  0  0  0  0  # atno 8009 bound_to 7997
  154.6933  140.0514  157.0372 H   0  0  0  0  0  0  0  0  0  0  0  0  # atno 8010 bound_to 7997
  140.2782  143.3299  152.0468 H   0  0  0  0  0  0  0  0  0  0  0  0  # atno 10167 bound_to 10162
  157.6955  131.0335  150.3436 H   0  0  0  0  0  0  0  0  0  0  0  0  # atno 10718 bound_to 10713
  154.3171  135.2756  155.2537 H   0  0  0  0  0  0  0  0  0  0  0  0  # atno 10763 bound_to 10752
  154.4907  135.5834  153.6461 H   0  0  0  0  0  0  0  0  0  0  0  0  # atno 10764 bound_to 10752
  152.9881  135.6134  154.3353 H   0  0  0  0  0  0  0  0  0  0  0  0  # atno 10765 bound_to 10752
  140.1385  134.4613  155.8467 H   0  0  0  0  0  0  0  0  0  0  0  0  # atno 11005 bound_to 11000
  145.8592  140.9485  143.0709 LP  0  0  0  0  0  0  0  0  0  0  0  0  # atno 17320 bound_to 7965
  144.6749  140.0508  143.7479 LP  0  0  0  0  0  0  0  0  0  0  0  0  # atno 17321 bound_to 7965
  139.4970  144.6610  151.6464 LP  0  0  0  0  0  0  0  0  0  0  0  0  # atno 17342 bound_to 10162
  140.5834  143.9906  150.6281 LP  0  0  0  0  0  0  0  0  0  0  0  0  # atno 17343 bound_to 10162
  156.3893  130.3895  149.7041 LP  0  0  0  0  0  0  0  0  0  0  0  0  # atno 17370 bound_to 10713
  156.4397  130.7855  151.2876 LP  0  0  0  0  0  0  0  0  0  0  0  0  # atno 17371 bound_to 10713
  141.2182  133.6824  156.7203 LP  0  0  0  0  0  0  0  0  0  0  0  0  # atno 17394 bound_to 11000
  140.2752  134.8361  157.3883 LP  0  0  0  0  0  0  0  0  0  0  0  0  # atno 17395 bound_to 11000

$$$$
