AV-unprocessed.smi:267|AV-procd|sdf|2039|dock5
  -GOLD-   2262021253D 1   1.00000     0.00000
 Structure written by MMmdl.
 51 54  0  0  0  0  0  0  0  0  1 V2000
  152.6667  140.9915  159.8614 C   0  0  0  0  0  0  0  0  0  0  0  0
  152.4331  141.4025  158.5260 O   0  0  0  0  0  0  0  0  0  0  0  0
  151.2391  140.8572  157.9893 C   0  0  0  0  0  0  0  0  0  0  0  0
  151.4121  139.3528  157.7209 C   0  0  0  0  0  0  0  0  0  0  0  0
  150.4799  138.8625  156.6972 N   0  0  0  0  0  0  0  0  0  0  0  0
  149.4709  137.9160  157.1935 C   0  0  0  0  0  0  0  0  0  0  0  0
  148.8438  137.0653  156.0825 C   0  0  0  0  0  0  0  0  0  0  0  0
  148.4516  137.9272  154.9765 N   0  0  0  0  0  0  0  0  0  0  0  0
  147.4404  137.4967  154.1792 C   0  0  0  0  0  0  0  0  0  0  0  0
  146.8019  138.3821  153.3683 N   0  0  0  0  0  0  0  0  0  0  0  0
  145.8076  137.9765  152.5730 C   0  0  0  0  0  0  0  0  0  0  0  0
  145.2930  136.7530  152.4380 N   0  0  0  0  0  0  0  0  0  0  0  0
  145.9185  135.8626  153.2592 C   0  0  0  0  0  0  0  0  0  0  0  0
  146.9904  136.1454  154.1525 C   0  0  0  0  0  0  0  0  0  0  0  0
  147.3525  134.9875  154.8326 N   0  0  0  0  0  0  0  0  0  0  0  0
  146.5512  134.0723  154.3598 C   0  0  0  0  0  0  0  0  0  0  0  0
  145.6604  134.5118  153.4073 N   0  0  0  0  0  0  0  0  0  0  0  0
  144.6577  133.7188  152.7189 C   0  0  0  0  0  0  0  0  0  0  0  0
  144.8642  133.6203  151.1856 C   0  0  0  0  0  0  0  0  0  0  0  0
  144.3836  134.9316  150.5437 C   0  0  0  0  0  0  0  0  0  0  0  0
  144.0455  134.7505  149.1825 O   0  0  0  0  0  0  0  0  0  0  0  0
  146.2164  133.1191  150.6367 C   0  0  0  0  0  0  0  0  0  0  0  0
  145.5638  132.2013  149.7356 O   0  0  0  0  0  0  0  0  0  0  0  0
  144.3523  132.3394  150.5073 C   0  0  0  0  0  0  0  0  0  0  0  0
  149.5051  138.7637  154.3923 C   0  0  0  0  0  0  0  0  0  0  0  0
  150.5199  139.3070  155.4159 C   0  0  0  0  0  0  0  0  0  0  0  0
  151.3430  140.1353  155.0256 O   0  0  0  0  0  0  0  0  0  0  0  0
  153.5950  141.4330  160.2237 H   0  0  0  0  0  0  0  0  0  0  0  0
  152.7608  139.9070  159.9293 H   0  0  0  0  0  0  0  0  0  0  0  0
  151.8601  141.3158  160.5203 H   0  0  0  0  0  0  0  0  0  0  0  0
  150.4013  141.0286  158.6675 H   0  0  0  0  0  0  0  0  0  0  0  0
  151.0040  141.3642  157.0523 H   0  0  0  0  0  0  0  0  0  0  0  0
  152.4342  139.1680  157.3871 H   0  0  0  0  0  0  0  0  0  0  0  0
  151.3098  138.7896  158.6500 H   0  0  0  0  0  0  0  0  0  0  0  0
  149.9072  137.2584  157.9467 H   0  0  0  0  0  0  0  0  0  0  0  0
  148.6903  138.4905  157.6942 H   0  0  0  0  0  0  0  0  0  0  0  0
  149.5737  136.3435  155.7127 H   0  0  0  0  0  0  0  0  0  0  0  0
  148.0166  136.4835  156.4863 H   0  0  0  0  0  0  0  0  0  0  0  0
  145.3606  138.7427  151.9571 H   0  0  0  0  0  0  0  0  0  0  0  0
  146.5899  133.0455  154.6934 H   0  0  0  0  0  0  0  0  0  0  0  0
  144.6510  132.7239  153.1656 H   0  0  0  0  0  0  0  0  0  0  0  0
  143.6878  134.1470  152.9751 H   0  0  0  0  0  0  0  0  0  0  0  0
  143.5195  135.3342  151.0737 H   0  0  0  0  0  0  0  0  0  0  0  0
  145.1603  135.6956  150.5951 H   0  0  0  0  0  0  0  0  0  0  0  0
  144.8091  134.9325  148.6563 H   0  0  0  0  0  0  0  0  0  0  0  0
  146.7925  133.8834  150.1140 H   0  0  0  0  0  0  0  0  0  0  0  0
  146.8489  132.5808  151.3428 H   0  0  0  0  0  0  0  0  0  0  0  0
  144.2138  131.4988  151.1896 H   0  0  0  0  0  0  0  0  0  0  0  0
  143.4694  132.4833  149.8837 H   0  0  0  0  0  0  0  0  0  0  0  0
  150.0601  138.1900  153.6485 H   0  0  0  0  0  0  0  0  0  0  0  0
  149.0494  139.6100  153.8755 H   0  0  0  0  0  0  0  0  0  0  0  0
  1  2  1  0  0  0  0
  1 28  1  0  0  0  0
  1 29  1  0  0  0  0
  1 30  1  0  0  0  0
  2  3  1  0  0  0  0
  3  4  1  0  0  0  0
  3 31  1  0  0  0  0
  3 32  1  0  0  0  0
  4  5  1  0  0  0  0
  4 33  1  0  0  0  0
  4 34  1  0  0  0  0
  5 26  1  0  0  0  0
  5  6  1  0  0  0  0
  6  7  1  0  0  0  0
  6 35  1  0  0  0  0
  6 36  1  0  0  0  0
  7  8  1  0  0  0  0
  7 37  1  0  0  0  0
  7 38  1  0  0  0  0
  8  9  1  0  0  0  0
  8 25  1  0  0  0  0
  9 14  1  0  0  0  0
  9 10  2  0  0  0  0
 10 11  1  0  0  0  0
 11 12  2  0  0  0  0
 11 39  1  0  0  0  0
 12 13  1  0  0  0  0
 13 17  1  0  0  0  0
 13 14  2  0  0  0  0
 14 15  1  0  0  0  0
 15 16  2  0  0  0  0
 16 17  1  0  0  0  0
 16 40  1  0  0  0  0
 17 18  1  0  0  0  0
 18 19  1  0  0  0  0
 18 41  1  0  0  0  0
 18 42  1  0  0  0  0
 19 24  1  0  0  0  0
 19 20  1  0  0  0  0
 19 22  1  0  0  0  0
 20 21  1  0  0  0  0
 20 43  1  0  0  0  0
 20 44  1  0  0  0  0
 21 45  1  0  0  0  0
 22 23  1  0  0  0  0
 22 46  1  0  0  0  0
 22 47  1  0  0  0  0
 23 24  1  0  0  0  0
 24 48  1  0  0  0  0
 24 49  1  0  0  0  0
 25 26  1  0  0  0  0
 25 50  1  0  0  0  0
 25 51  1  0  0  0  0
 26 27  2  0  0  0  0
M  END
> <s_m_source_file>
AV-unprocessed.smi

> <i_m_source_file_index>
267

> <i_lp_mmshare_version>
43012

> <i_f3d_flags>
0

> <s_epik_input>
W0NIM11PW0NIMl1bQ0gyXU4xW0NIMl1bQ0gyXU4oW0NIMl1DMT1PKWMobltjSF1uMiljKGMyMyluW2NIXW4zW0NIMl1DNChbQ0gyXVtPSF0pW0NIMl1PW0NIMl00

> <s_epik_cmdline>
J2VwaWtfcHl0aG9uJywgJy1waCcsICc3LjAnLCAnLXRuJywgJzgnLCAnLW1hJywgJzIwMCcsICctbWV0YWxfYmluZGluZycsICctaW1hZScsICc8aW5maWxlLm1hZT4nLCAnLW9tYWUnLCAnPG91dGZpbGUubWFlPic=

> <r_lp_tautomer_probability>
1

> <r_epik_Ionization_Penalty>
0.000432285

> <r_epik_Ionization_Penalty_Charging>
0

> <r_epik_Ionization_Penalty_Neutral>
0.000432285

> <r_epik_State_Penalty>
0.000191954

> <r_epik_Charging_Adjusted_Penalty>
0.000191954

> <i_epik_Tot_Q>
0

> <i_epik_Tot_abs_Q>
0

> <r_epik_Metal_State_Penalty>
-0

> <b_epik_Metal_Only>
0

> <s_lp_Force_Field>
OPLS_2005

> <r_lp_Energy>
43.2758

> <b_lp_Chiralities_Consistent>
1

> <s_lp_Variant>
AV-unprocessed.smi:267-1

> <Gold.Version>
5.8.1

> <Gold.Id.Protein>
6NUR|6NUR_protein|mol2

> <Gold.PLP.Fitness>
40.2178

> <Gold.PLP.PLP>
-30.5885

> <Gold.PLP.part.hbond>
-2.5667

> <Gold.PLP.part.metal>
0.0000

> <Gold.PLP.part.buried>
-3.8867

> <Gold.PLP.part.nonpolar>
-24.7295

> <Gold.PLP.part.repulsive>
0.7282

> <Gold.PLP.ligand.clash>
0.0000

> <Gold.PLP.ligand.torsion>
1.3085

> <Gold.PLP.Chemscore.Hbond>
2.0000

> <Gold.PLP.Chemscore.CHOScore>
1.8590

> <Gold.PLP.Chemscore.Metal>
0.0000

> <Gold.Chemscore.Hbonds>
donor molecule, donor type, donor heavy atom, donor atom, acceptor molecule, acceptor atom, score
      L1  H    21    45       P1  7921  1.00
      P1  H  7989  7998       L1    27  1.00
      L1  C    11    39       P1 10171  0.81
      L1  C    11    39       P1 10175  1.00

> <Gold.PLP.Chemscore.Internal.Correction>
0.6694

> <Gold.Rescore>
     Score         DG    S(hbond)    S(metal)    S(lipo)     H(rot)  DE(clash)    DE(int)     intcor
      6.22     -11.18       1.98        0.00      60.12       3.11       0.10       4.86       ----

> <Gold.Chemscore.Fitness>
6.2153

> <Gold.Chemscore.DG>
-11.1803

> <Gold.Chemscore.ZeroCoef>
-5.4800

> <Gold.Chemscore.Hbond>
1.9839

> <Gold.Chemscore.Metal>
0.0000

> <Gold.Chemscore.Lipo>
60.1195

> <Gold.Chemscore.Internal_Hbond>
0.0000

> <Gold.Chemscore.DEClash>
0.1049

> <Gold.Chemscore.DEInternal>
4.8601

> <Gold.Chemscore.Rot>
3.1093

> <Gold.Chemscore.Internal.Correction>
   9.000000E+99

> <Gold.Chemscore.Hbonds>
donor molecule, donor type, donor heavy atom, donor atom, acceptor molecule, acceptor atom, score
      L1  H    21    45       P1  7921  1.00
      P1  H  7989  7998       L1    27  0.98

> <Gold.Chemscore.Hbond.Weighted>
-6.6262

> <Gold.Chemscore.Metal.Weighted>
-0.0000

> <Gold.Chemscore.Lipo.Weighted>
-7.0340

> <Gold.Chemscore.Internal_Hbond.Weighted>
0.0000

> <Gold.Chemscore.DEClash.Weighted>
0.1049

> <Gold.Chemscore.DEInternal.Weighted>
4.8601

> <Gold.Chemscore.Rot.Weighted>
7.9599

> <Gold.Chemscore.Internal.Correction.Weighted>
   9.000000E+99

> <Gold.Protein.RotatedTorsions>
[ 6907 6896 6895 6894 ] final   24.65 input  -60.11 | X-H torsion
[ 7974 7965 7964 7962 ] final  -14.08 input  175.53 | X-H torsion
[ 8008 7997 7996 7995 ] final -126.09 input   59.86 | X-H torsion
[ 10167 10162 10161 10158 ] final  157.80 input  -65.29 | X-H torsion
[ 10718 10713 10712 10709 ] final   24.83 input   66.30 | X-H torsion
[ 10763 10752 10751 10750 ] final  -51.66 input  -60.55 | X-H torsion
[ 11005 11000 10999 10996 ] final -177.30 input  -57.11 | X-H torsion

> <Gold.Protein.ActiveResidues>
 VAL166  LYS551  ARG553  GLY616  TRP617  ASP618  TYR619  PRO620  LYS621  CYS622 
 ASP623  PHE694  ASN695  SER759  ASP760  ASP761  ALA762  ILE779  LEU786  VAL792 
 PHE793  MET794  SER795  GLU796  ALA797  LYS798  CYS799  TRP800  GLU811  SER814 

> <Gold.Protein.RotatedAtoms>
  151.9607  135.0125  160.0547 H   0  0  0  0  0  0  0  0  0  0  0  0  # atno 6907 bound_to 6896
  152.1871  133.4742  159.4996 H   0  0  0  0  0  0  0  0  0  0  0  0  # atno 6908 bound_to 6896
  150.6928  134.1677  159.4243 H   0  0  0  0  0  0  0  0  0  0  0  0  # atno 6909 bound_to 6896
  146.2089  140.3296  142.8398 H   0  0  0  0  0  0  0  0  0  0  0  0  # atno 7974 bound_to 7965
  155.2240  140.0423  157.2952 H   0  0  0  0  0  0  0  0  0  0  0  0  # atno 8008 bound_to 7997
  154.5931  140.2432  155.7864 H   0  0  0  0  0  0  0  0  0  0  0  0  # atno 8009 bound_to 7997
  156.2272  140.2950  156.0106 H   0  0  0  0  0  0  0  0  0  0  0  0  # atno 8010 bound_to 7997
  139.4824  144.4884  151.8344 H   0  0  0  0  0  0  0  0  0  0  0  0  # atno 10167 bound_to 10162
  157.1851  130.6820  149.6128 H   0  0  0  0  0  0  0  0  0  0  0  0  # atno 10718 bound_to 10713
  154.1302  135.6521  153.4920 H   0  0  0  0  0  0  0  0  0  0  0  0  # atno 10763 bound_to 10752
  153.0197  135.5291  154.7009 H   0  0  0  0  0  0  0  0  0  0  0  0  # atno 10764 bound_to 10752
  154.6241  135.2968  155.0262 H   0  0  0  0  0  0  0  0  0  0  0  0  # atno 10765 bound_to 10752
  140.4425  134.6418  157.4764 H   0  0  0  0  0  0  0  0  0  0  0  0  # atno 11005 bound_to 11000
  144.8861  140.7464  143.5956 LP  0  0  0  0  0  0  0  0  0  0  0  0  # atno 17320 bound_to 7965
  145.3218  139.1786  143.4584 LP  0  0  0  0  0  0  0  0  0  0  0  0  # atno 17321 bound_to 7965
  140.4366  144.2043  150.5889 LP  0  0  0  0  0  0  0  0  0  0  0  0  # atno 17342 bound_to 10162
  140.4725  143.2407  151.9068 LP  0  0  0  0  0  0  0  0  0  0  0  0  # atno 17343 bound_to 10162
  155.9719  130.4633  150.6178 LP  0  0  0  0  0  0  0  0  0  0  0  0  # atno 17370 bound_to 10713
  157.3915  131.0796  151.1389 LP  0  0  0  0  0  0  0  0  0  0  0  0  # atno 17371 bound_to 10713
  140.0060  134.6762  155.9454 LP  0  0  0  0  0  0  0  0  0  0  0  0  # atno 17394 bound_to 11000
  141.1699  133.6537  156.4615 LP  0  0  0  0  0  0  0  0  0  0  0  0  # atno 17395 bound_to 11000

$$$$
