AV-unprocessed.smi:2973|AV-procd|sdf|11352|dock4
  -GOLD-   2272016273D 1   1.00000     0.00000
 Structure written by MMmdl.
 49 51  0  0  0  0  0  0  0  0  3 V2000
  145.1274  137.5058  159.7026 C   0  0  0  0  0  0  0  0  0  0  0  0
  145.6730  136.7311  160.9226 C   0  0  1  0  0  0  0  0  0  0  0  0
  144.6531  135.6569  161.3634 C   0  0  0  0  0  0  0  0  0  0  0  0
  145.1142  134.9090  162.6228 C   0  0  0  0  0  0  0  0  0  0  0  0
  146.4944  134.2730  162.4168 C   0  0  0  0  0  0  0  0  0  0  0  0
  147.5291  135.3285  161.9898 C   0  0  0  0  0  0  0  0  0  0  0  0
  147.1080  136.1340  160.7309 C   0  0  2  0  0  0  0  0  0  0  0  0
  148.0751  137.1983  160.5225 N   0  5  0  0  0  0  0  0  0  0  0  0
  148.6984  137.0056  159.3372 C   0  0  0  0  0  0  0  0  0  0  0  0
  149.5866  137.7049  158.8507 O   0  0  0  0  0  0  0  0  0  0  0  0
  148.2234  135.9116  158.7132 N   0  0  0  0  0  0  0  0  0  0  0  0
  148.6985  135.4143  157.4154 C   0  0  0  0  0  0  0  0  0  0  0  0
  147.5862  135.3356  156.3608 C   0  0  0  0  0  0  0  0  0  0  0  0
  146.4067  135.5149  156.6683 O   0  0  0  0  0  0  0  0  0  0  0  0
  147.9839  135.0795  155.1057 N   0  0  0  0  0  0  0  0  0  0  0  0
  147.0951  134.9528  153.9572 C   0  0  0  0  0  0  0  0  0  0  0  0
  147.5701  133.8520  152.9936 C   0  0  0  0  0  0  0  0  0  0  0  0
  146.5754  133.5978  151.8781 C   0  0  0  0  0  0  0  0  0  0  0  0
  145.2786  134.1560  151.8870 C   0  0  0  0  0  0  0  0  0  0  0  0
  144.4040  133.8849  150.8138 C   0  0  0  0  0  0  0  0  0  0  0  0
  144.8447  133.0638  149.7550 C   0  0  0  0  0  0  0  0  0  0  0  0
  146.1507  132.5343  149.7961 C   0  0  0  0  0  0  0  0  0  0  0  0
  146.9586  132.8169  150.8418 N   0  3  0  0  0  0  0  0  0  0  0  0
  147.2821  135.3152  159.4529 C   0  0  0  0  0  0  0  0  0  0  0  0
  146.6565  134.2914  159.1741 O   0  0  0  0  0  0  0  0  0  0  0  0
  144.9739  136.8537  158.8426 H   0  0  0  0  0  0  0  0  0  0  0  0
  145.8024  138.3058  159.3985 H   0  0  0  0  0  0  0  0  0  0  0  0
  144.1679  137.9682  159.9347 H   0  0  0  0  0  0  0  0  0  0  0  0
  145.7359  137.4533  161.7389 H   0  0  0  0  0  0  0  0  0  0  0  0
  143.6880  136.1243  161.5611 H   0  0  0  0  0  0  0  0  0  0  0  0
  144.4812  134.9433  160.5573 H   0  0  0  0  0  0  0  0  0  0  0  0
  145.1526  135.6013  163.4648 H   0  0  0  0  0  0  0  0  0  0  0  0
  144.3868  134.1407  162.8862 H   0  0  0  0  0  0  0  0  0  0  0  0
  146.8201  133.7932  163.3400 H   0  0  0  0  0  0  0  0  0  0  0  0
  146.4293  133.4810  161.6711 H   0  0  0  0  0  0  0  0  0  0  0  0
  147.6854  136.0154  162.8234 H   0  0  0  0  0  0  0  0  0  0  0  0
  148.4910  134.8394  161.8259 H   0  0  0  0  0  0  0  0  0  0  0  0
  149.4935  136.0541  157.0293 H   0  0  0  0  0  0  0  0  0  0  0  0
  149.1507  134.4294  157.5461 H   0  0  0  0  0  0  0  0  0  0  0  0
  148.9718  134.9528  154.9395 H   0  0  0  0  0  0  0  0  0  0  0  0
  146.0770  134.7526  154.2955 H   0  0  0  0  0  0  0  0  0  0  0  0
  147.0691  135.9143  153.4441 H   0  0  0  0  0  0  0  0  0  0  0  0
  148.5308  134.1264  152.5557 H   0  0  0  0  0  0  0  0  0  0  0  0
  147.7364  132.9200  153.5356 H   0  0  0  0  0  0  0  0  0  0  0  0
  144.9572  134.7851  152.7048 H   0  0  0  0  0  0  0  0  0  0  0  0
  143.4078  134.3026  150.8027 H   0  0  0  0  0  0  0  0  0  0  0  0
  144.1908  132.8436  148.9240 H   0  0  0  0  0  0  0  0  0  0  0  0
  146.5705  131.8979  149.0308 H   0  0  0  0  0  0  0  0  0  0  0  0
  147.8995  132.4225  150.8501 H   0  0  0  0  0  0  0  0  0  0  0  0
  1  2  1  0  0  0  0
  1 26  1  0  0  0  0
  1 27  1  0  0  0  0
  1 28  1  0  0  0  0
  2  7  1  0  0  0  0
  2  3  1  0  0  0  0
  2 29  1  0  0  0  0
  3  4  1  0  0  0  0
  3 30  1  0  0  0  0
  3 31  1  0  0  0  0
  4  5  1  0  0  0  0
  4 32  1  0  0  0  0
  4 33  1  0  0  0  0
  5  6  1  0  0  0  0
  5 34  1  0  0  0  0
  5 35  1  0  0  0  0
  6  7  1  0  0  0  0
  6 36  1  0  0  0  0
  6 37  1  0  0  0  0
  7 24  1  0  0  0  0
  7  8  1  0  0  0  0
  8  9  1  0  0  0  0
  9 10  2  0  0  0  0
  9 11  1  0  0  0  0
 11 12  1  0  0  0  0
 11 24  1  0  0  0  0
 12 13  1  0  0  0  0
 12 38  1  0  0  0  0
 12 39  1  0  0  0  0
 13 14  2  0  0  0  0
 13 15  1  0  0  0  0
 15 16  1  0  0  0  0
 15 40  1  0  0  0  0
 16 17  1  0  0  0  0
 16 41  1  0  0  0  0
 16 42  1  0  0  0  0
 17 18  1  0  0  0  0
 17 43  1  0  0  0  0
 17 44  1  0  0  0  0
 18 23  1  0  0  0  0
 18 19  2  0  0  0  0
 19 20  1  0  0  0  0
 19 45  1  0  0  0  0
 20 21  2  0  0  0  0
 20 46  1  0  0  0  0
 21 22  1  0  0  0  0
 21 47  1  0  0  0  0
 22 23  2  0  0  0  0
 22 48  1  0  0  0  0
 23 49  1  0  0  0  0
 24 25  2  0  0  0  0
M  CHG  1   8  -1
M  CHG  1  23   1
M  END
> <s_m_source_file>
AV-unprocessed.smi

> <i_m_source_file_index>
2973

> <i_lp_mmshare_version>
43012

> <i_f3d_flags>
0

> <s_epik_input>
W0NIMl0xW0NIMl1bQ0gyXVtDSDJdW0NAQEhdKFtDSDNdKVtDQF0xMltOSF1DKD1PKU4oQzI9TylbQ0gyXUMoPU8pW05IXVtDSDJdW0NIMl1jM1tjSF1bY0hdW2NIXVtjSF1uMw==

> <s_epik_cmdline>
J2VwaWtfcHl0aG9uJywgJy1waCcsICc3LjAnLCAnLXRuJywgJzgnLCAnLW1hJywgJzIwMCcsICctbWV0YWxfYmluZGluZycsICctaW1hZScsICc8aW5maWxlLm1hZT4nLCAnLW9tYWUnLCAnPG91dGZpbGUubWFlPic=

> <r_lp_tautomer_probability>
1

> <r_epik_Ionization_Penalty>
7.89073

> <r_epik_Ionization_Penalty_Charging>
7.89073

> <r_epik_Ionization_Penalty_Neutral>
1.56557e-07

> <r_epik_State_Penalty>
8.01193

> <r_epik_Charging_Adjusted_Penalty>
15.9027

> <i_epik_Tot_Q>
0

> <i_epik_Tot_abs_Q>
2

> <r_epik_Metal_State_Penalty>
3.98737

> <b_epik_Metal_Only>
1

> <s_lp_Force_Field>
OPLS_2005

> <r_lp_Energy>
17.432

> <b_lp_Chiralities_Consistent>
1

> <s_lp_Variant>
AV-unprocessed.smi:2973-16

> <Gold.Version>
5.8.1

> <Gold.Id.Protein>
6NUR|6NUR_protein|mol2

> <Gold.PLP.Fitness>
47.8069

> <Gold.PLP.PLP>
-36.3850

> <Gold.PLP.part.hbond>
-3.0000

> <Gold.PLP.part.metal>
0.0000

> <Gold.PLP.part.buried>
-6.2691

> <Gold.PLP.part.nonpolar>
-27.5086

> <Gold.PLP.part.repulsive>
0.0423

> <Gold.PLP.ligand.clash>
0.0000

> <Gold.PLP.ligand.torsion>
0.3521

> <Gold.PLP.Chemscore.Hbond>
4.0346

> <Gold.PLP.Chemscore.CHOScore>
0.0000

> <Gold.PLP.Chemscore.Metal>
0.0000

> <Gold.Chemscore.Hbonds>
donor molecule, donor type, donor heavy atom, donor atom, acceptor molecule, acceptor atom, score
      L1  H    23    49       P1 10747  0.88
      P1  H  6931  6943       L1     8  1.54
      P1  H  6934  6947       L1     8  1.31

> <Gold.PLP.Chemscore.Internal.Correction>
0.0223

> <Gold.Rescore>
     Score         DG    S(hbond)    S(metal)    S(lipo)     H(rot)  DE(clash)    DE(int)     intcor
     17.14     -18.13       2.22        0.00      86.62       1.92       0.01       0.99       ----

> <Gold.Chemscore.Fitness>
17.1408

> <Gold.Chemscore.DG>
-18.1319

> <Gold.Chemscore.ZeroCoef>
-5.4800

> <Gold.Chemscore.Hbond>
2.2233

> <Gold.Chemscore.Metal>
0.0000

> <Gold.Chemscore.Lipo>
86.6223

> <Gold.Chemscore.Internal_Hbond>
0.0000

> <Gold.Chemscore.DEClash>
0.0059

> <Gold.Chemscore.DEInternal>
0.9852

> <Gold.Chemscore.Rot>
1.9175

> <Gold.Chemscore.Internal.Correction>
   9.000000E+99

> <Gold.Chemscore.Hbonds>
donor molecule, donor type, donor heavy atom, donor atom, acceptor molecule, acceptor atom, score
      L1  H    23    49       P1 10747  0.85
      P1  H  6931  6943       L1     8  0.70
      P1  H  6934  6947       L1     8  0.46

> <Gold.Chemscore.Hbond.Weighted>
-7.4258

> <Gold.Chemscore.Metal.Weighted>
-0.0000

> <Gold.Chemscore.Lipo.Weighted>
-10.1348

> <Gold.Chemscore.Internal_Hbond.Weighted>
0.0000

> <Gold.Chemscore.DEClash.Weighted>
0.0059

> <Gold.Chemscore.DEInternal.Weighted>
0.9852

> <Gold.Chemscore.Rot.Weighted>
4.9087

> <Gold.Chemscore.Internal.Correction.Weighted>
   9.000000E+99

> <Gold.Protein.RotatedTorsions>
[ 6907 6896 6895 6894 ] final   35.81 input  -60.11 | X-H torsion
[ 7974 7965 7964 7962 ] final   -2.32 input  175.53 | X-H torsion
[ 8008 7997 7996 7995 ] final -146.72 input   59.86 | X-H torsion
[ 10167 10162 10161 10158 ] final  -15.98 input  -65.29 | X-H torsion
[ 10718 10713 10712 10709 ] final  -63.05 input   66.30 | X-H torsion
[ 10763 10752 10751 10750 ] final  -86.44 input  -60.55 | X-H torsion
[ 11005 11000 10999 10996 ] final   -1.36 input  -57.11 | X-H torsion

> <Gold.Protein.ActiveResidues>
 VAL166  LYS551  ARG553  GLY616  TRP617  ASP618  TYR619  PRO620  LYS621  CYS622 
 ASP623  PHE694  ASN695  SER759  ASP760  ASP761  ALA762  ILE779  LEU786  VAL792 
 PHE793  MET794  SER795  GLU796  ALA797  LYS798  CYS799  TRP800  GLU811  SER814 

> <Gold.Protein.RotatedAtoms>
  152.1212  134.9204  160.0562 H   0  0  0  0  0  0  0  0  0  0  0  0  # atno 6907 bound_to 6896
  152.0344  133.3946  159.4319 H   0  0  0  0  0  0  0  0  0  0  0  0  # atno 6908 bound_to 6896
  150.6849  134.3406  159.4910 H   0  0  0  0  0  0  0  0  0  0  0  0  # atno 6909 bound_to 6896
  146.2406  140.1552  142.8333 H   0  0  0  0  0  0  0  0  0  0  0  0  # atno 7974 bound_to 7965
  155.5639  140.0628  157.2822 H   0  0  0  0  0  0  0  0  0  0  0  0  # atno 8008 bound_to 7997
  154.4382  140.1881  156.0856 H   0  0  0  0  0  0  0  0  0  0  0  0  # atno 8009 bound_to 7997
  156.0426  140.3294  155.7265 H   0  0  0  0  0  0  0  0  0  0  0  0  # atno 8010 bound_to 7997
  140.7227  143.5162  150.9689 H   0  0  0  0  0  0  0  0  0  0  0  0  # atno 10167 bound_to 10162
  156.0815  130.4216  150.1223 H   0  0  0  0  0  0  0  0  0  0  0  0  # atno 10718 bound_to 10713
  154.6225  135.5449  153.7591 H   0  0  0  0  0  0  0  0  0  0  0  0  # atno 10763 bound_to 10752
  153.0245  135.6416  154.1420 H   0  0  0  0  0  0  0  0  0  0  0  0  # atno 10764 bound_to 10752
  154.1353  135.2911  155.3154 H   0  0  0  0  0  0  0  0  0  0  0  0  # atno 10765 bound_to 10752
  140.6464  133.9443  155.8355 H   0  0  0  0  0  0  0  0  0  0  0  0  # atno 11005 bound_to 11000
  145.0134  140.8733  143.5210 LP  0  0  0  0  0  0  0  0  0  0  0  0  # atno 17320 bound_to 7965
  145.1590  139.2470  143.5401 LP  0  0  0  0  0  0  0  0  0  0  0  0  # atno 17321 bound_to 7965
  139.8878  143.6991  152.3149 LP  0  0  0  0  0  0  0  0  0  0  0  0  # atno 17342 bound_to 10162
  139.7296  144.7585  151.0823 LP  0  0  0  0  0  0  0  0  0  0  0  0  # atno 17343 bound_to 10162
  156.9253  130.9696  151.3542 LP  0  0  0  0  0  0  0  0  0  0  0  0  # atno 17370 bound_to 10713
  157.5934  130.8460  149.8693 LP  0  0  0  0  0  0  0  0  0  0  0  0  # atno 17371 bound_to 10713
  141.0569  134.0404  157.3711 LP  0  0  0  0  0  0  0  0  0  0  0  0  # atno 17394 bound_to 11000
  139.9061  135.0180  156.7492 LP  0  0  0  0  0  0  0  0  0  0  0  0  # atno 17395 bound_to 11000

$$$$
