AV-unprocessed.smi:2652|AV-procd|sdf|10294|dock9
  -GOLD-   2272014303D 1   1.00000     0.00000
 Structure written by MMmdl.
 37 38  0  0  0  0  0  0  0  0  2 V2000
  151.2459  145.3731  160.2837 C   0  0  0  0  0  0  0  0  0  0  0  0
  152.0868  144.1858  160.7214 C   0  0  0  0  0  0  0  0  0  0  0  0
  152.3707  143.8598  161.9868 C   0  0  0  0  0  0  0  0  0  0  0  0
  153.3336  142.4080  162.1109 S   0  0  0  0  0  0  0  0  0  0  0  0
  153.3375  142.2465  160.3178 C   0  0  0  0  0  0  0  0  0  0  0  0
  153.9092  141.3276  159.7334 O   0  0  0  0  0  0  0  0  0  0  0  0
  152.6159  143.3055  159.7665 N   0  0  0  0  0  0  0  0  0  0  0  0
  152.4397  143.4785  158.3182 C   0  0  0  0  0  0  0  0  0  0  0  0
  151.6390  142.3470  157.6587 C   0  0  0  0  0  0  0  0  0  0  0  0
  150.5803  142.5898  157.0792 O   0  0  0  0  0  0  0  0  0  0  0  0
  152.1938  141.1256  157.7714 N   0  0  0  0  0  0  0  0  0  0  0  0
  151.7753  139.7996  157.2862 C   0  0  0  0  0  0  0  0  0  0  0  0
  151.9044  139.8757  155.7428 C   0  0  0  0  0  0  0  0  0  0  0  0
  153.0523  139.8296  155.2463 O   0  0  0  0  0  0  0  0  0  0  0  0
  150.8561  140.0256  155.0753 O   0  5  0  0  0  0  0  0  0  0  0  0
  152.5947  138.6004  157.8638 C   0  0  0  0  0  0  0  0  0  0  0  0
  152.0216  137.2245  157.4715 C   0  0  0  0  0  0  0  0  0  0  0  0
  150.5532  137.0934  157.8998 C   0  0  0  0  0  0  0  0  0  0  0  0
  149.7062  138.2400  157.3298 C   0  0  0  0  0  0  0  0  0  0  0  0
  150.2916  139.6124  157.7170 C   0  0  0  0  0  0  0  0  0  0  0  0
  150.6330  145.7275  161.1130 H   0  0  0  0  0  0  0  0  0  0  0  0
  150.5699  145.1146  159.4686 H   0  0  0  0  0  0  0  0  0  0  0  0
  151.8877  146.1934  159.9618 H   0  0  0  0  0  0  0  0  0  0  0  0
  152.0556  144.3927  162.8719 H   0  0  0  0  0  0  0  0  0  0  0  0
  151.9629  144.4345  158.1007 H   0  0  0  0  0  0  0  0  0  0  0  0
  153.4178  143.5296  157.8369 H   0  0  0  0  0  0  0  0  0  0  0  0
  153.0545  141.1001  158.2984 H   0  0  0  0  0  0  0  0  0  0  0  0
  153.6423  138.6533  157.5631 H   0  0  0  0  0  0  0  0  0  0  0  0
  152.5915  138.6510  158.9533 H   0  0  0  0  0  0  0  0  0  0  0  0
  152.1074  137.0714  156.3955 H   0  0  0  0  0  0  0  0  0  0  0  0
  152.6115  136.4351  157.9379 H   0  0  0  0  0  0  0  0  0  0  0  0
  150.1527  136.1342  157.5709 H   0  0  0  0  0  0  0  0  0  0  0  0
  150.4894  137.0995  158.9886 H   0  0  0  0  0  0  0  0  0  0  0  0
  149.6462  138.1481  156.2448 H   0  0  0  0  0  0  0  0  0  0  0  0
  148.6831  138.1595  157.6976 H   0  0  0  0  0  0  0  0  0  0  0  0
  150.2212  139.7227  158.8002 H   0  0  0  0  0  0  0  0  0  0  0  0
  149.6609  140.4035  157.3088 H   0  0  0  0  0  0  0  0  0  0  0  0
  1  2  1  0  0  0  0
  1 21  1  0  0  0  0
  1 22  1  0  0  0  0
  1 23  1  0  0  0  0
  2  7  1  0  0  0  0
  2  3  2  0  0  0  0
  3  4  1  0  0  0  0
  3 24  1  0  0  0  0
  4  5  1  0  0  0  0
  5  6  2  0  0  0  0
  5  7  1  0  0  0  0
  7  8  1  0  0  0  0
  8  9  1  0  0  0  0
  8 25  1  0  0  0  0
  8 26  1  0  0  0  0
  9 10  2  0  0  0  0
  9 11  1  0  0  0  0
 11 12  1  0  0  0  0
 11 27  1  0  0  0  0
 12 20  1  0  0  0  0
 12 13  1  0  0  0  0
 12 16  1  0  0  0  0
 13 14  2  0  0  0  0
 13 15  1  0  0  0  0
 16 17  1  0  0  0  0
 16 28  1  0  0  0  0
 16 29  1  0  0  0  0
 17 18  1  0  0  0  0
 17 30  1  0  0  0  0
 17 31  1  0  0  0  0
 18 19  1  0  0  0  0
 18 32  1  0  0  0  0
 18 33  1  0  0  0  0
 19 20  1  0  0  0  0
 19 34  1  0  0  0  0
 19 35  1  0  0  0  0
 20 36  1  0  0  0  0
 20 37  1  0  0  0  0
M  CHG  1  15  -1
M  END
> <s_m_source_file>
AV-unprocessed.smi

> <i_m_source_file_index>
2652

> <i_lp_mmshare_version>
43012

> <i_f3d_flags>
0

> <s_epik_input>
W0NIM11jMVtjSF1zYyg9TyluMVtDSDJdQyg9TylbTkhdQzIoQyg9TylbT0hdKVtDSDJdW0NIMl1bQ0gyXVtDSDJdW0NIMl0y

> <s_epik_cmdline>
J2VwaWtfcHl0aG9uJywgJy1waCcsICc3LjAnLCAnLXRuJywgJzgnLCAnLW1hJywgJzIwMCcsICctbWV0YWxfYmluZGluZycsICctaW1hZScsICc8aW5maWxlLm1hZT4nLCAnLW9tYWUnLCAnPG91dGZpbGUubWFlPic=

> <r_epik_Ionization_Penalty>
0.000325241

> <r_epik_Ionization_Penalty_Charging>
0.000325125

> <r_epik_Ionization_Penalty_Neutral>
1.16183e-07

> <r_epik_State_Penalty>
0.000195685

> <r_epik_Charging_Adjusted_Penalty>
0.00052081

> <i_epik_Tot_Q>
-1

> <i_epik_Tot_abs_Q>
1

> <r_epik_Metal_State_Penalty>
-0

> <b_epik_Metal_Only>
0

> <s_lp_Force_Field>
OPLS_2005

> <r_lp_Energy>
9.07631

> <b_lp_Chiralities_Consistent>
1

> <s_lp_Variant>
AV-unprocessed.smi:2652-1

> <Gold.Version>
5.8.1

> <Gold.Id.Protein>
6NUR|6NUR_protein|mol2

> <Gold.PLP.Fitness>
49.1891

> <Gold.PLP.PLP>
-41.3487

> <Gold.PLP.part.hbond>
-2.0000

> <Gold.PLP.part.metal>
0.0000

> <Gold.PLP.part.buried>
-6.7814

> <Gold.PLP.part.nonpolar>
-31.8102

> <Gold.PLP.part.repulsive>
0.8266

> <Gold.PLP.ligand.clash>
0.0000

> <Gold.PLP.ligand.torsion>
0.5926

> <Gold.PLP.Chemscore.Hbond>
2.9913

> <Gold.PLP.Chemscore.CHOScore>
0.0000

> <Gold.PLP.Chemscore.Metal>
0.0000

> <Gold.Chemscore.Hbonds>
donor molecule, donor type, donor heavy atom, donor atom, acceptor molecule, acceptor atom, score
      P1  H  7989  7998       L1    15  0.90
      P1  H  7997  8008       L1    14  2.00

> <Gold.PLP.Chemscore.Internal.Correction>
0.0518

> <Gold.Rescore>
     Score         DG    S(hbond)    S(metal)    S(lipo)     H(rot)  DE(clash)    DE(int)     intcor
     14.18     -15.62       1.78        0.00      80.75       2.05       0.52       0.92       ----

> <Gold.Chemscore.Fitness>
14.1809

> <Gold.Chemscore.DG>
-15.6226

> <Gold.Chemscore.ZeroCoef>
-5.4800

> <Gold.Chemscore.Hbond>
1.7829

> <Gold.Chemscore.Metal>
0.0000

> <Gold.Chemscore.Lipo>
80.7549

> <Gold.Chemscore.Internal_Hbond>
0.0000

> <Gold.Chemscore.DEClash>
0.5187

> <Gold.Chemscore.DEInternal>
0.9230

> <Gold.Chemscore.Rot>
2.0550

> <Gold.Chemscore.Internal.Correction>
   9.000000E+99

> <Gold.Chemscore.Hbonds>
donor molecule, donor type, donor heavy atom, donor atom, acceptor molecule, acceptor atom, score
      P1  H  7989  7998       L1    15  0.18
      P1  H  7997  8008       L1    14  0.97

> <Gold.Chemscore.Hbond.Weighted>
-5.9550

> <Gold.Chemscore.Metal.Weighted>
-0.0000

> <Gold.Chemscore.Lipo.Weighted>
-9.4483

> <Gold.Chemscore.Internal_Hbond.Weighted>
0.0000

> <Gold.Chemscore.DEClash.Weighted>
0.5187

> <Gold.Chemscore.DEInternal.Weighted>
0.9230

> <Gold.Chemscore.Rot.Weighted>
5.2607

> <Gold.Chemscore.Internal.Correction.Weighted>
   9.000000E+99

> <Gold.Protein.RotatedTorsions>
[ 6907 6896 6895 6894 ] final -123.09 input  -60.11 | X-H torsion
[ 7974 7965 7964 7962 ] final  117.60 input  175.53 | X-H torsion
[ 8008 7997 7996 7995 ] final  -22.11 input   59.86 | X-H torsion
[ 10167 10162 10161 10158 ] final -103.46 input  -65.29 | X-H torsion
[ 10718 10713 10712 10709 ] final   19.46 input   66.30 | X-H torsion
[ 10763 10752 10751 10750 ] final  126.83 input  -60.55 | X-H torsion
[ 11005 11000 10999 10996 ] final  132.23 input  -57.11 | X-H torsion

> <Gold.Protein.ActiveResidues>
 VAL166  LYS551  ARG553  GLY616  TRP617  ASP618  TYR619  PRO620  LYS621  CYS622 
 ASP623  PHE694  ASN695  SER759  ASP760  ASP761  ALA762  ILE779  LEU786  VAL792 
 PHE793  MET794  SER795  GLU796  ALA797  LYS798  CYS799  TRP800  GLU811  SER814 

> <Gold.Protein.RotatedAtoms>
  150.8637  133.7605  159.2983 H   0  0  0  0  0  0  0  0  0  0  0  0  # atno 6907 bound_to 6896
  151.5240  135.1066  159.9895 H   0  0  0  0  0  0  0  0  0  0  0  0  # atno 6908 bound_to 6896
  152.4645  133.7849  159.6926 H   0  0  0  0  0  0  0  0  0  0  0  0  # atno 6909 bound_to 6896
  145.1654  139.3131  143.4495 H   0  0  0  0  0  0  0  0  0  0  0  0  # atno 7974 bound_to 7965
  154.4664  140.2016  156.0108 H   0  0  0  0  0  0  0  0  0  0  0  0  # atno 8008 bound_to 7997
  156.0934  140.3254  155.7817 H   0  0  0  0  0  0  0  0  0  0  0  0  # atno 8009 bound_to 7997
  155.4918  140.0547  157.2943 H   0  0  0  0  0  0  0  0  0  0  0  0  # atno 8010 bound_to 7997
  140.2197  143.3685  152.0980 H   0  0  0  0  0  0  0  0  0  0  0  0  # atno 10167 bound_to 10162
  157.1107  130.6507  149.5896 H   0  0  0  0  0  0  0  0  0  0  0  0  # atno 10718 bound_to 10713
  153.6997  135.3285  155.3222 H   0  0  0  0  0  0  0  0  0  0  0  0  # atno 10763 bound_to 10752
  154.8416  135.4451  154.1423 H   0  0  0  0  0  0  0  0  0  0  0  0  # atno 10764 bound_to 10752
  153.2488  135.6979  153.7781 H   0  0  0  0  0  0  0  0  0  0  0  0  # atno 10765 bound_to 10752
  139.9777  134.9558  156.9552 H   0  0  0  0  0  0  0  0  0  0  0  0  # atno 11005 bound_to 11000
  146.3476  140.1779  142.8589 LP  0  0  0  0  0  0  0  0  0  0  0  0  # atno 17320 bound_to 7965
  145.0288  140.8854  143.5122 LP  0  0  0  0  0  0  0  0  0  0  0  0  # atno 17321 bound_to 7965
  139.5149  144.6954  151.5644 LP  0  0  0  0  0  0  0  0  0  0  0  0  # atno 17342 bound_to 10162
  140.6264  143.9160  150.6568 LP  0  0  0  0  0  0  0  0  0  0  0  0  # atno 17343 bound_to 10162
  155.9851  130.4879  150.7016 LP  0  0  0  0  0  0  0  0  0  0  0  0  # atno 17370 bound_to 10713
  157.4562  131.0878  151.0794 LP  0  0  0  0  0  0  0  0  0  0  0  0  # atno 17371 bound_to 10713
  140.5160  134.0955  155.7281 LP  0  0  0  0  0  0  0  0  0  0  0  0  # atno 17394 bound_to 11000
  141.1453  133.9066  157.2230 LP  0  0  0  0  0  0  0  0  0  0  0  0  # atno 17395 bound_to 11000

$$$$
