AV-unprocessed.smi:438|AV-procd|sdf|2565|dock8
  -GOLD-   2262022543D 1   1.00000     0.00000
 Structure written by MMmdl.
 48 49  0  0  0  0  0  0  0  0  1 V2000
  141.6562  135.1881  153.3523 C   0  0  0  0  0  0  0  0  0  0  0  0
  142.8706  135.2941  154.2575 C   0  0  0  0  0  0  0  0  0  0  0  0
  142.5991  135.5572  155.6061 N   0  0  0  0  0  0  0  0  0  0  0  0
  143.5704  135.6617  156.4555 C   0  0  0  0  0  0  0  0  0  0  0  0
  143.5065  135.9794  158.2410 S   0  0  0  0  0  0  0  0  0  0  0  0
  144.8965  137.1289  158.4486 C   0  0  0  0  0  0  0  0  0  0  0  0
  145.4619  137.0917  159.8644 C   0  0  0  0  0  0  0  0  0  0  0  0
  146.4656  137.7448  160.1479 O   0  0  0  0  0  0  0  0  0  0  0  0
  144.8083  136.3133  160.7402 N   0  0  0  0  0  0  0  0  0  0  0  0
  145.1968  136.0743  162.1296 C   0  0  2  0  0  0  0  0  0  0  0  0
  146.6970  135.7197  162.2235 C   0  0  0  0  0  0  0  0  0  0  0  0
  147.0050  134.3410  161.6136 C   0  0  0  0  0  0  0  0  0  0  0  0
  146.1389  133.2451  162.2525 C   0  0  0  0  0  0  0  0  0  0  0  0
  144.6425  133.5819  162.1513 C   0  0  0  0  0  0  0  0  0  0  0  0
  144.3269  134.9621  162.7662 C   0  0  2  0  0  0  0  0  0  0  0  0
  142.8218  135.2761  162.7096 C   0  0  0  0  0  0  0  0  0  0  0  0
  144.8942  135.5211  156.0379 N   0  0  0  0  0  0  0  0  0  0  0  0
  145.2610  135.2702  154.7616 C   0  0  0  0  0  0  0  0  0  0  0  0
  146.4495  135.1629  154.4640 O   0  0  0  0  0  0  0  0  0  0  0  0
  144.1477  135.1480  153.8057 C   0  0  0  0  0  0  0  0  0  0  0  0
  144.4913  134.8376  152.3515 C   0  0  0  0  0  0  0  0  0  0  0  0
  143.9778  135.9189  151.3898 C   0  0  0  0  0  0  0  0  0  0  0  0
  144.6787  135.8426  150.1676 O   0  0  0  0  0  0  0  0  0  0  0  0
  141.7603  135.8461  152.4894 H   0  0  0  0  0  0  0  0  0  0  0  0
  140.7441  135.4723  153.8788 H   0  0  0  0  0  0  0  0  0  0  0  0
  141.5338  134.1645  152.9977 H   0  0  0  0  0  0  0  0  0  0  0  0
  144.5654  138.1441  158.2272 H   0  0  0  0  0  0  0  0  0  0  0  0
  145.6785  136.8801  157.7300 H   0  0  0  0  0  0  0  0  0  0  0  0
  143.9910  135.8202  160.4110 H   0  0  0  0  0  0  0  0  0  0  0  0
  145.0271  136.9938  162.6929 H   0  0  0  0  0  0  0  0  0  0  0  0
  147.3028  136.4855  161.7375 H   0  0  0  0  0  0  0  0  0  0  0  0
  146.9985  135.7201  163.2715 H   0  0  0  0  0  0  0  0  0  0  0  0
  146.8310  134.3653  160.5370 H   0  0  0  0  0  0  0  0  0  0  0  0
  148.0607  134.1042  161.7478 H   0  0  0  0  0  0  0  0  0  0  0  0
  146.3374  132.2869  161.7714 H   0  0  0  0  0  0  0  0  0  0  0  0
  146.4158  133.1266  163.3010 H   0  0  0  0  0  0  0  0  0  0  0  0
  144.3341  133.5594  161.1052 H   0  0  0  0  0  0  0  0  0  0  0  0
  144.0629  132.8086  162.6567 H   0  0  0  0  0  0  0  0  0  0  0  0
  144.5955  134.9128  163.8226 H   0  0  0  0  0  0  0  0  0  0  0  0
  142.4469  135.2839  161.6857 H   0  0  0  0  0  0  0  0  0  0  0  0
  142.6084  136.2503  163.1502 H   0  0  0  0  0  0  0  0  0  0  0  0
  142.2478  134.5330  163.2635 H   0  0  0  0  0  0  0  0  0  0  0  0
  145.6281  135.6135  156.7251 H   0  0  0  0  0  0  0  0  0  0  0  0
  144.0799  133.8699  152.0652 H   0  0  0  0  0  0  0  0  0  0  0  0
  145.5721  134.7283  152.2502 H   0  0  0  0  0  0  0  0  0  0  0  0
  142.9125  135.7890  151.1970 H   0  0  0  0  0  0  0  0  0  0  0  0
  144.1147  136.9140  151.8142 H   0  0  0  0  0  0  0  0  0  0  0  0
  144.6951  136.7026  149.7760 H   0  0  0  0  0  0  0  0  0  0  0  0
  1 24  1  0  0  0  0
  1 25  1  0  0  0  0
  1 26  1  0  0  0  0
  1  2  1  0  0  0  0
  2 20  2  0  0  0  0
  2  3  1  0  0  0  0
  3  4  2  0  0  0  0
  4  5  1  0  0  0  0
  4 17  1  0  0  0  0
  5  6  1  0  0  0  0
  6  7  1  0  0  0  0
  6 27  1  0  0  0  0
  6 28  1  0  0  0  0
  7  8  2  0  0  0  0
  7  9  1  0  0  0  0
  9 10  1  0  0  0  0
  9 29  1  0  0  0  0
 10 15  1  0  0  0  0
 10 11  1  0  0  0  0
 10 30  1  0  0  0  0
 11 12  1  0  0  0  0
 11 31  1  0  0  0  0
 11 32  1  0  0  0  0
 12 13  1  0  0  0  0
 12 33  1  0  0  0  0
 12 34  1  0  0  0  0
 13 14  1  0  0  0  0
 13 35  1  0  0  0  0
 13 36  1  0  0  0  0
 14 15  1  0  0  0  0
 14 37  1  0  0  0  0
 14 38  1  0  0  0  0
 15 16  1  0  0  0  0
 15 39  1  0  0  0  0
 16 40  1  0  0  0  0
 16 41  1  0  0  0  0
 16 42  1  0  0  0  0
 17 43  1  0  0  0  0
 17 18  1  0  0  0  0
 18 19  2  0  0  0  0
 18 20  1  0  0  0  0
 20 21  1  0  0  0  0
 21 22  1  0  0  0  0
 21 44  1  0  0  0  0
 21 45  1  0  0  0  0
 22 23  1  0  0  0  0
 22 46  1  0  0  0  0
 22 47  1  0  0  0  0
 23 48  1  0  0  0  0
M  END
> <s_m_source_file>
AV-unprocessed.smi

> <i_m_source_file_index>
438

> <i_lp_mmshare_version>
43012

> <i_f3d_flags>
0

> <s_epik_input>
W09IXVtDSDJdW0NIMl1jMWMoW09IXSluYyhuYzFbQ0gzXSlTW0NIMl1DKD1PKVtOSF1bQ0BASF0yW0NIMl1bQ0gyXVtDSDJdW0NIMl1bQ0BIXTJbQ0gzXQ==

> <s_epik_cmdline>
J2VwaWtfcHl0aG9uJywgJy1waCcsICc3LjAnLCAnLXRuJywgJzgnLCAnLW1hJywgJzIwMCcsICctbWV0YWxfYmluZGluZycsICctaW1hZScsICc8aW5maWxlLm1hZT4nLCAnLW9tYWUnLCAnPG91dGZpbGUubWFlPic=

> <r_lp_tautomer_probability>
0.660323

> <r_epik_Ionization_Penalty>
0.00860626

> <r_epik_Ionization_Penalty_Charging>
0.00860522

> <r_epik_Ionization_Penalty_Neutral>
1.04215e-06

> <r_epik_State_Penalty>
0.156825

> <r_epik_Charging_Adjusted_Penalty>
0.16543

> <i_epik_Tot_Q>
0

> <i_epik_Tot_abs_Q>
0

> <r_epik_Metal_State_Penalty>
0.752038

> <b_epik_Metal_Only>
0

> <s_lp_Force_Field>
OPLS_2005

> <r_lp_Energy>
12.4019

> <b_lp_Chiralities_Consistent>
1

> <s_lp_Variant>
AV-unprocessed.smi:438-3

> <Gold.Version>
5.8.1

> <Gold.Id.Protein>
6NUR|6NUR_protein|mol2

> <Gold.PLP.Fitness>
36.9579

> <Gold.PLP.PLP>
-32.0749

> <Gold.PLP.part.hbond>
-3.6607

> <Gold.PLP.part.metal>
0.0000

> <Gold.PLP.part.buried>
-5.5305

> <Gold.PLP.part.nonpolar>
-23.4274

> <Gold.PLP.part.repulsive>
0.1632

> <Gold.PLP.ligand.clash>
0.0000

> <Gold.PLP.ligand.torsion>
0.6208

> <Gold.PLP.Chemscore.Hbond>
2.0342

> <Gold.PLP.Chemscore.CHOScore>
0.0000

> <Gold.PLP.Chemscore.Metal>
0.0000

> <Gold.Chemscore.Hbonds>
donor molecule, donor type, donor heavy atom, donor atom, acceptor molecule, acceptor atom, score
      L1  H    23    48       P1 10171  0.90
      P1  H  6934  6947       L1     8  1.00

> <Gold.PLP.Chemscore.Internal.Correction>
0.0222

> <Gold.Rescore>
     Score         DG    S(hbond)    S(metal)    S(lipo)     H(rot)  DE(clash)    DE(int)     intcor
     12.53     -14.06       2.15        0.00      74.62       2.86       0.00       1.53       ----

> <Gold.Chemscore.Fitness>
12.5339

> <Gold.Chemscore.DG>
-14.0625

> <Gold.Chemscore.ZeroCoef>
-5.4800

> <Gold.Chemscore.Hbond>
2.1512

> <Gold.Chemscore.Metal>
0.0000

> <Gold.Chemscore.Lipo>
74.6198

> <Gold.Chemscore.Internal_Hbond>
0.0000

> <Gold.Chemscore.DEClash>
0.0000

> <Gold.Chemscore.DEInternal>
1.5285

> <Gold.Chemscore.Rot>
2.8645

> <Gold.Chemscore.Internal.Correction>
   9.000000E+99

> <Gold.Chemscore.Hbonds>
donor molecule, donor type, donor heavy atom, donor atom, acceptor molecule, acceptor atom, score
      L1  H    23    48       P1 10171  0.83
      P1  H  6934  6947       L1     8  0.99

> <Gold.Chemscore.Hbond.Weighted>
-7.1850

> <Gold.Chemscore.Metal.Weighted>
-0.0000

> <Gold.Chemscore.Lipo.Weighted>
-8.7305

> <Gold.Chemscore.Internal_Hbond.Weighted>
0.0000

> <Gold.Chemscore.DEClash.Weighted>
0.0000

> <Gold.Chemscore.DEInternal.Weighted>
1.5285

> <Gold.Chemscore.Rot.Weighted>
7.3331

> <Gold.Chemscore.Internal.Correction.Weighted>
   9.000000E+99

> <Gold.Protein.RotatedTorsions>
[ 6907 6896 6895 6894 ] final   80.23 input  -60.11 | X-H torsion
[ 7974 7965 7964 7962 ] final  142.11 input  175.53 | X-H torsion
[ 8008 7997 7996 7995 ] final   92.03 input   59.86 | X-H torsion
[ 10167 10162 10161 10158 ] final   46.78 input  -65.29 | X-H torsion
[ 10718 10713 10712 10709 ] final  -19.75 input   66.30 | X-H torsion
[ 10763 10752 10751 10750 ] final -158.24 input  -60.55 | X-H torsion
[ 11005 11000 10999 10996 ] final  -34.92 input  -57.11 | X-H torsion

> <Gold.Protein.ActiveResidues>
 VAL166  LYS551  ARG553  GLY616  TRP617  ASP618  TYR619  PRO620  LYS621  CYS622 
 ASP623  PHE694  ASN695  SER759  ASP760  ASP761  ALA762  ILE779  LEU786  VAL792 
 PHE793  MET794  SER795  GLU796  ALA797  LYS798  CYS799  TRP800  GLU811  SER814 

> <Gold.Protein.RotatedAtoms>
  152.5227  134.3390  159.9210 H   0  0  0  0  0  0  0  0  0  0  0  0  # atno 6907 bound_to 6896
  151.3340  133.3983  159.2673 H   0  0  0  0  0  0  0  0  0  0  0  0  # atno 6908 bound_to 6896
  150.9857  134.9221  159.7928 H   0  0  0  0  0  0  0  0  0  0  0  0  # atno 6909 bound_to 6896
  144.9036  139.5389  143.5742 H   0  0  0  0  0  0  0  0  0  0  0  0  # atno 7974 bound_to 7965
  156.0307  140.3330  155.7136 H   0  0  0  0  0  0  0  0  0  0  0  0  # atno 8008 bound_to 7997
  155.5889  140.0644  157.2781 H   0  0  0  0  0  0  0  0  0  0  0  0  # atno 8009 bound_to 7997
  154.4352  140.1830  156.1042 H   0  0  0  0  0  0  0  0  0  0  0  0  # atno 8010 bound_to 7997
  140.3104  144.2827  150.6201 H   0  0  0  0  0  0  0  0  0  0  0  0  # atno 10167 bound_to 10162
  156.5413  130.4679  149.6497 H   0  0  0  0  0  0  0  0  0  0  0  0  # atno 10718 bound_to 10713
  154.7572  135.3108  154.8447 H   0  0  0  0  0  0  0  0  0  0  0  0  # atno 10763 bound_to 10752
  153.9217  135.6795  153.4752 H   0  0  0  0  0  0  0  0  0  0  0  0  # atno 10764 bound_to 10752
  153.1170  135.4840  154.9063 H   0  0  0  0  0  0  0  0  0  0  0  0  # atno 10765 bound_to 10752
  140.9754  133.7086  156.1594 H   0  0  0  0  0  0  0  0  0  0  0  0  # atno 11005 bound_to 11000
  146.3122  139.7786  142.9011 LP  0  0  0  0  0  0  0  0  0  0  0  0  # atno 17320 bound_to 7965
  145.3574  141.0319  143.3304 LP  0  0  0  0  0  0  0  0  0  0  0  0  # atno 17321 bound_to 7965
  140.5573  143.2197  151.7826 LP  0  0  0  0  0  0  0  0  0  0  0  0  # atno 17342 bound_to 10162
  139.4895  144.4397  151.9779 LP  0  0  0  0  0  0  0  0  0  0  0  0  # atno 17343 bound_to 10162
  156.2969  130.7155  151.2017 LP  0  0  0  0  0  0  0  0  0  0  0  0  # atno 17370 bound_to 10713
  157.7405  131.0516  150.5164 LP  0  0  0  0  0  0  0  0  0  0  0  0  # atno 17371 bound_to 10713
  140.7266  134.4300  157.5570 LP  0  0  0  0  0  0  0  0  0  0  0  0  # atno 17394 bound_to 11000
  139.8928  134.8745  156.2251 LP  0  0  0  0  0  0  0  0  0  0  0  0  # atno 17395 bound_to 11000

$$$$
