AV-unprocessed.smi:2948|AV-procd|sdf|11283|dock10
  -GOLD-   2272016173D 1   1.00000     0.00000
 Structure written by MMmdl.
 32 33  0  0  0  0  0  0  0  0  1 V2000
  146.7621  142.4350  154.1288 C   0  0  0  0  0  0  0  0  0  0  0  0
  147.9851  141.6350  154.5823 C   0  0  0  0  0  0  0  0  0  0  0  0
  147.9966  141.5887  155.9978 O   0  0  0  0  0  0  0  0  0  0  0  0
  149.1183  140.8983  156.5227 C   0  0  0  0  0  0  0  0  0  0  0  0
  150.2952  141.8703  156.6930 C   0  0  0  0  0  0  0  0  0  0  0  0
  151.3878  141.2786  157.4532 N   0  0  0  0  0  0  0  0  0  0  0  0
  152.0745  140.1307  157.2104 C   0  0  0  0  0  0  0  0  0  0  0  0
  151.7870  139.2381  156.0362 C   0  0  0  0  0  0  0  0  0  0  0  0
  152.1015  139.8380  154.7968 O   0  0  0  0  0  0  0  0  0  0  0  0
  153.0276  139.8326  158.0960 N   0  0  0  0  0  0  0  0  0  0  0  0
  152.9668  140.8889  158.9820 C   0  0  0  0  0  0  0  0  0  0  0  0
  153.7293  141.1610  160.1404 C   0  0  0  0  0  0  0  0  0  0  0  0
  153.4841  142.3241  160.8993 C   0  0  0  0  0  0  0  0  0  0  0  0
  152.4750  143.2293  160.5117 C   0  0  0  0  0  0  0  0  0  0  0  0
  151.7037  142.9765  159.3610 C   0  0  0  0  0  0  0  0  0  0  0  0
  151.9520  141.8134  158.6074 C   0  0  0  0  0  0  0  0  0  0  0  0
  146.7146  142.4922  153.0412 H   0  0  0  0  0  0  0  0  0  0  0  0
  146.7944  143.4533  154.5172 H   0  0  0  0  0  0  0  0  0  0  0  0
  145.8399  141.9716  154.4808 H   0  0  0  0  0  0  0  0  0  0  0  0
  147.9422  140.6253  154.1711 H   0  0  0  0  0  0  0  0  0  0  0  0
  148.8976  142.1058  154.2138 H   0  0  0  0  0  0  0  0  0  0  0  0
  148.8634  140.4542  157.4865 H   0  0  0  0  0  0  0  0  0  0  0  0
  149.4040  140.0849  155.8545 H   0  0  0  0  0  0  0  0  0  0  0  0
  150.6740  142.1634  155.7134 H   0  0  0  0  0  0  0  0  0  0  0  0
  149.9718  142.7937  157.1718 H   0  0  0  0  0  0  0  0  0  0  0  0
  152.3669  138.3212  156.1439 H   0  0  0  0  0  0  0  0  0  0  0  0
  150.7382  138.9515  156.0012 H   0  0  0  0  0  0  0  0  0  0  0  0
  152.7781  139.3273  154.3796 H   0  0  0  0  0  0  0  0  0  0  0  0
  154.5052  140.4743  160.4447 H   0  0  0  0  0  0  0  0  0  0  0  0
  154.0737  142.5227  161.7821 H   0  0  0  0  0  0  0  0  0  0  0  0
  152.2942  144.1183  161.0979 H   0  0  0  0  0  0  0  0  0  0  0  0
  150.9314  143.6689  159.0608 H   0  0  0  0  0  0  0  0  0  0  0  0
  1  2  1  0  0  0  0
  1 17  1  0  0  0  0
  1 18  1  0  0  0  0
  1 19  1  0  0  0  0
  2  3  1  0  0  0  0
  2 20  1  0  0  0  0
  2 21  1  0  0  0  0
  3  4  1  0  0  0  0
  4  5  1  0  0  0  0
  4 22  1  0  0  0  0
  4 23  1  0  0  0  0
  5  6  1  0  0  0  0
  5 24  1  0  0  0  0
  5 25  1  0  0  0  0
  6 16  1  0  0  0  0
  6  7  1  0  0  0  0
  7  8  1  0  0  0  0
  7 10  2  0  0  0  0
  8  9  1  0  0  0  0
  8 26  1  0  0  0  0
  8 27  1  0  0  0  0
  9 28  1  0  0  0  0
 10 11  1  0  0  0  0
 11 16  2  0  0  0  0
 11 12  1  0  0  0  0
 12 13  2  0  0  0  0
 12 29  1  0  0  0  0
 13 14  1  0  0  0  0
 13 30  1  0  0  0  0
 14 15  2  0  0  0  0
 14 31  1  0  0  0  0
 15 16  1  0  0  0  0
 15 32  1  0  0  0  0
M  END
> <s_m_source_file>
AV-unprocessed.smi

> <i_m_source_file_index>
2948

> <i_lp_mmshare_version>
43012

> <i_f3d_flags>
0

> <s_epik_input>
W0NIM11bQ0gyXU9bQ0gyXVtDSDJdbihjKG4xKVtDSDJdW09IXSljKGMxMilbY0hdW2NIXVtjSF1bY0hdMg==

> <s_epik_cmdline>
J2VwaWtfcHl0aG9uJywgJy1waCcsICc3LjAnLCAnLXRuJywgJzgnLCAnLW1hJywgJzIwMCcsICctbWV0YWxfYmluZGluZycsICctaW1hZScsICc8aW5maWxlLm1hZT4nLCAnLW9tYWUnLCAnPG91dGZpbGUubWFlPic=

> <r_epik_Ionization_Penalty>
0.0599051

> <r_epik_Ionization_Penalty_Charging>
0

> <r_epik_Ionization_Penalty_Neutral>
0.0599051

> <r_epik_State_Penalty>
0.0518308

> <r_epik_Charging_Adjusted_Penalty>
0.0518308

> <i_epik_Tot_Q>
0

> <i_epik_Tot_abs_Q>
0

> <r_epik_Metal_State_Penalty>
5.4163e-05

> <b_epik_Metal_Only>
0

> <s_lp_Force_Field>
OPLS_2005

> <r_lp_Energy>
7.3767

> <b_lp_Chiralities_Consistent>
1

> <s_lp_Variant>
AV-unprocessed.smi:2948-1

> <Gold.Version>
5.8.1

> <Gold.Id.Protein>
6NUR|6NUR_protein|mol2

> <Gold.PLP.Fitness>
40.8352

> <Gold.PLP.PLP>
-35.8828

> <Gold.PLP.part.hbond>
-1.9871

> <Gold.PLP.part.metal>
0.0000

> <Gold.PLP.part.buried>
-4.7319

> <Gold.PLP.part.nonpolar>
-29.8308

> <Gold.PLP.part.repulsive>
0.1229

> <Gold.PLP.ligand.clash>
0.0000

> <Gold.PLP.ligand.torsion>
0.2537

> <Gold.PLP.Chemscore.Hbond>
1.8160

> <Gold.PLP.Chemscore.CHOScore>
0.0000

> <Gold.PLP.Chemscore.Metal>
0.0000

> <Gold.Chemscore.Hbonds>
donor molecule, donor type, donor heavy atom, donor atom, acceptor molecule, acceptor atom, score
      P1  H  7989  7998       L1     9  0.82
      P1  H  7997  8010       L1    10  1.00

> <Gold.PLP.Chemscore.Internal.Correction>
0.0119

> <Gold.Rescore>
     Score         DG    S(hbond)    S(metal)    S(lipo)     H(rot)  DE(clash)    DE(int)     intcor
     14.24     -14.65       1.14        0.00      94.51       2.22       0.05       0.36       ----

> <Gold.Chemscore.Fitness>
14.2428

> <Gold.Chemscore.DG>
-14.6534

> <Gold.Chemscore.ZeroCoef>
-5.4800

> <Gold.Chemscore.Hbond>
1.1390

> <Gold.Chemscore.Metal>
0.0000

> <Gold.Chemscore.Lipo>
94.5097

> <Gold.Chemscore.Internal_Hbond>
0.0000

> <Gold.Chemscore.DEClash>
0.0512

> <Gold.Chemscore.DEInternal>
0.3594

> <Gold.Chemscore.Rot>
2.2221

> <Gold.Chemscore.Internal.Correction>
   9.000000E+99

> <Gold.Chemscore.Hbonds>
donor molecule, donor type, donor heavy atom, donor atom, acceptor molecule, acceptor atom, score
      P1  H  7989  7998       L1     9  0.21
      P1  H  7997  8010       L1    10  0.17

> <Gold.Chemscore.Hbond.Weighted>
-3.8043

> <Gold.Chemscore.Metal.Weighted>
-0.0000

> <Gold.Chemscore.Lipo.Weighted>
-11.0576

> <Gold.Chemscore.Internal_Hbond.Weighted>
0.0000

> <Gold.Chemscore.DEClash.Weighted>
0.0512

> <Gold.Chemscore.DEInternal.Weighted>
0.3594

> <Gold.Chemscore.Rot.Weighted>
5.6886

> <Gold.Chemscore.Internal.Correction.Weighted>
   9.000000E+99

> <Gold.Protein.RotatedTorsions>
[ 6907 6896 6895 6894 ] final  -66.74 input  -60.11 | X-H torsion
[ 7974 7965 7964 7962 ] final -126.85 input  175.53 | X-H torsion
[ 8008 7997 7996 7995 ] final   35.06 input   59.86 | X-H torsion
[ 10167 10162 10161 10158 ] final -169.12 input  -65.29 | X-H torsion
[ 10718 10713 10712 10709 ] final  -18.54 input   66.30 | X-H torsion
[ 10763 10752 10751 10750 ] final  -51.84 input  -60.55 | X-H torsion
[ 11005 11000 10999 10996 ] final -167.65 input  -57.11 | X-H torsion

> <Gold.Protein.ActiveResidues>
 VAL166  LYS551  ARG553  GLY616  TRP617  ASP618  TYR619  PRO620  LYS621  CYS622 
 ASP623  PHE694  ASN695  SER759  ASP760  ASP761  ALA762  ILE779  LEU786  VAL792 
 PHE793  MET794  SER795  GLU796  ALA797  LYS798  CYS799  TRP800  GLU811  SER814 

> <Gold.Protein.RotatedAtoms>
  150.7448  134.5979  159.6020 H   0  0  0  0  0  0  0  0  0  0  0  0  # atno 6907 bound_to 6896
  152.3348  134.7209  160.0289 H   0  0  0  0  0  0  0  0  0  0  0  0  # atno 6908 bound_to 6896
  151.7680  133.3303  159.3473 H   0  0  0  0  0  0  0  0  0  0  0  0  # atno 6909 bound_to 6896
  144.9831  140.7659  143.4600 H   0  0  0  0  0  0  0  0  0  0  0  0  # atno 7974 bound_to 7965
  155.1649  140.3286  155.4404 H   0  0  0  0  0  0  0  0  0  0  0  0  # atno 8008 bound_to 7997
  156.2530  140.1953  156.6705 H   0  0  0  0  0  0  0  0  0  0  0  0  # atno 8009 bound_to 7997
  154.6378  140.0574  156.9796 H   0  0  0  0  0  0  0  0  0  0  0  0  # atno 8010 bound_to 7997
  139.5942  144.1147  152.1670 H   0  0  0  0  0  0  0  0  0  0  0  0  # atno 10167 bound_to 10162
  156.5581  130.4718  149.6419 H   0  0  0  0  0  0  0  0  0  0  0  0  # atno 10718 bound_to 10713
  154.1331  135.6517  153.4926 H   0  0  0  0  0  0  0  0  0  0  0  0  # atno 10763 bound_to 10752
  153.0189  135.5297  154.6981 H   0  0  0  0  0  0  0  0  0  0  0  0  # atno 10764 bound_to 10752
  154.6221  135.2966  155.0284 H   0  0  0  0  0  0  0  0  0  0  0  0  # atno 10765 bound_to 10752
  140.5509  134.5429  157.5122 H   0  0  0  0  0  0  0  0  0  0  0  0  # atno 11005 bound_to 11000
  145.2393  139.2080  143.5001 LP  0  0  0  0  0  0  0  0  0  0  0  0  # atno 17320 bound_to 7965
  146.3413  140.2285  142.8593 LP  0  0  0  0  0  0  0  0  0  0  0  0  # atno 17321 bound_to 7965
  140.0728  144.5765  150.7179 LP  0  0  0  0  0  0  0  0  0  0  0  0  # atno 17342 bound_to 10162
  140.7198  143.2578  151.4314 LP  0  0  0  0  0  0  0  0  0  0  0  0  # atno 17343 bound_to 10162
  156.2823  130.7078  151.1905 LP  0  0  0  0  0  0  0  0  0  0  0  0  # atno 17370 bound_to 10713
  157.7374  131.0552  150.5357 LP  0  0  0  0  0  0  0  0  0  0  0  0  # atno 17371 bound_to 10713
  139.9456  134.7709  156.0571 LP  0  0  0  0  0  0  0  0  0  0  0  0  # atno 17394 bound_to 11000
  141.1172  133.6624  156.3124 LP  0  0  0  0  0  0  0  0  0  0  0  0  # atno 17395 bound_to 11000

$$$$
