AV-unprocessed.smi:535|AV-procd|sdf|2858|dock1
  -GOLD-   2262023353D 1   1.00000     0.00000
 Structure written by MMmdl.
 46 48  0  0  0  0  0  0  0  0  1 V2000
  149.7228  141.2571  154.4903 C   0  0  0  0  0  0  0  0  0  0  0  0
  149.8973  141.4114  155.8877 O   0  0  0  0  0  0  0  0  0  0  0  0
  151.1548  140.9326  156.3320 C   0  0  0  0  0  0  0  0  0  0  0  0
  151.1629  140.9092  157.8645 C   0  0  0  0  0  0  0  0  0  0  0  0
  152.3202  140.1839  158.3808 N   0  0  0  0  0  0  0  0  0  0  0  0
  153.2661  140.6078  159.2648 C   0  0  0  0  0  0  0  0  0  0  0  0
  153.2361  141.8777  159.8449 N   0  0  0  0  0  0  0  0  0  0  0  0
  153.6046  142.2183  161.2189 C   0  0  0  0  0  0  0  0  0  0  0  0
  152.5000  143.0345  161.9119 C   0  0  0  0  0  0  0  0  0  0  0  0
  152.2075  144.3168  161.1210 C   0  0  0  0  0  0  0  0  0  0  0  0
  151.9288  143.9828  159.6448 C   0  0  1  0  0  0  0  0  0  0  0  0
  151.7242  145.2523  158.8076 C   0  0  0  0  0  0  0  0  0  0  0  0
  153.0660  143.1095  159.0756 C   0  0  0  0  0  0  0  0  0  0  0  0
  154.2515  139.7331  159.4849 N   0  0  0  0  0  0  0  0  0  0  0  0
  153.8984  138.6530  158.6920 C   0  0  0  0  0  0  0  0  0  0  0  0
  152.7538  138.9092  158.0088 C   0  0  0  0  0  0  0  0  0  0  0  0
  152.1841  137.9545  157.0470 C   0  0  0  0  0  0  0  0  0  0  0  0
  151.1649  138.1710  156.3954 O   0  0  0  0  0  0  0  0  0  0  0  0
  152.9053  136.8121  156.9400 N   0  0  0  0  0  0  0  0  0  0  0  0
  154.0572  136.4901  157.6033 C   0  0  0  0  0  0  0  0  0  0  0  0
  154.6074  135.4096  157.3911 O   0  0  0  0  0  0  0  0  0  0  0  0
  154.5589  137.4078  158.4903 N   0  0  0  0  0  0  0  0  0  0  0  0
  155.7923  137.1223  159.2260 C   0  0  0  0  0  0  0  0  0  0  0  0
  152.5565  136.1225  156.2903 H   0  0  0  0  0  0  0  0  0  0  0  0
  148.7440  141.6379  154.1988 H   0  0  0  0  0  0  0  0  0  0  0  0
  149.7756  140.2069  154.2000 H   0  0  0  0  0  0  0  0  0  0  0  0
  150.4795  141.8127  153.9346 H   0  0  0  0  0  0  0  0  0  0  0  0
  151.3372  139.9309  155.9394 H   0  0  0  0  0  0  0  0  0  0  0  0
  151.9500  141.5822  155.9628 H   0  0  0  0  0  0  0  0  0  0  0  0
  151.1533  141.9221  158.2539 H   0  0  0  0  0  0  0  0  0  0  0  0
  150.2468  140.4614  158.2445 H   0  0  0  0  0  0  0  0  0  0  0  0
  153.8393  141.3188  161.7866 H   0  0  0  0  0  0  0  0  0  0  0  0
  154.5289  142.7973  161.1983 H   0  0  0  0  0  0  0  0  0  0  0  0
  151.5901  142.4395  161.9948 H   0  0  0  0  0  0  0  0  0  0  0  0
  152.8013  143.2840  162.9296 H   0  0  0  0  0  0  0  0  0  0  0  0
  151.3595  144.8432  161.5606 H   0  0  0  0  0  0  0  0  0  0  0  0
  153.0640  144.9887  161.1916 H   0  0  0  0  0  0  0  0  0  0  0  0
  151.0045  143.4048  159.5975 H   0  0  0  0  0  0  0  0  0  0  0  0
  152.6216  145.8718  158.8003 H   0  0  0  0  0  0  0  0  0  0  0  0
  150.9059  145.8551  159.2023 H   0  0  0  0  0  0  0  0  0  0  0  0
  151.4820  145.0046  157.7737 H   0  0  0  0  0  0  0  0  0  0  0  0
  154.0063  143.6627  159.0661 H   0  0  0  0  0  0  0  0  0  0  0  0
  152.8451  142.8581  158.0375 H   0  0  0  0  0  0  0  0  0  0  0  0
  155.7624  136.1278  159.6741 H   0  0  0  0  0  0  0  0  0  0  0  0
  155.9649  137.8301  160.0367 H   0  0  0  0  0  0  0  0  0  0  0  0
  156.6507  137.1692  158.5551 H   0  0  0  0  0  0  0  0  0  0  0  0
  1  2  1  0  0  0  0
  1 25  1  0  0  0  0
  1 26  1  0  0  0  0
  1 27  1  0  0  0  0
  2  3  1  0  0  0  0
  3  4  1  0  0  0  0
  3 28  1  0  0  0  0
  3 29  1  0  0  0  0
  4  5  1  0  0  0  0
  4 30  1  0  0  0  0
  4 31  1  0  0  0  0
  5 16  1  0  0  0  0
  5  6  1  0  0  0  0
  6  7  1  0  0  0  0
  6 14  2  0  0  0  0
  7 13  1  0  0  0  0
  7  8  1  0  0  0  0
  8  9  1  0  0  0  0
  8 32  1  0  0  0  0
  8 33  1  0  0  0  0
  9 10  1  0  0  0  0
  9 34  1  0  0  0  0
  9 35  1  0  0  0  0
 10 11  1  0  0  0  0
 10 36  1  0  0  0  0
 10 37  1  0  0  0  0
 11 12  1  0  0  0  0
 11 13  1  0  0  0  0
 11 38  1  0  0  0  0
 12 39  1  0  0  0  0
 12 40  1  0  0  0  0
 12 41  1  0  0  0  0
 13 42  1  0  0  0  0
 13 43  1  0  0  0  0
 14 15  1  0  0  0  0
 15 22  1  0  0  0  0
 15 16  2  0  0  0  0
 16 17  1  0  0  0  0
 17 18  2  0  0  0  0
 17 19  1  0  0  0  0
 19 24  1  0  0  0  0
 19 20  1  0  0  0  0
 20 21  2  0  0  0  0
 20 22  1  0  0  0  0
 22 23  1  0  0  0  0
 23 44  1  0  0  0  0
 23 45  1  0  0  0  0
 23 46  1  0  0  0  0
M  END
> <s_m_source_file>
AV-unprocessed.smi

> <i_m_source_file_index>
535

> <i_lp_mmshare_version>
43012

> <i_f3d_flags>
0

> <s_epik_input>
W0NIM11uMWMoPU8pW25IXWMoPU8pYyhjMTIpbihbQ0gyXVtDSDJdT1tDSDNdKWMobjIpTjNbQ0gyXVtDSDJdW0NIMl1bQ0BASF0oW0NIM10pW0NIMl0z

> <s_epik_cmdline>
J2VwaWtfcHl0aG9uJywgJy1waCcsICc3LjAnLCAnLXRuJywgJzgnLCAnLW1hJywgJzIwMCcsICctbWV0YWxfYmluZGluZycsICctaW1hZScsICc8aW5maWxlLm1hZT4nLCAnLW9tYWUnLCAnPG91dGZpbGUubWFlPic=

> <r_lp_tautomer_probability>
1

> <r_epik_Ionization_Penalty>
0.00042181

> <r_epik_Ionization_Penalty_Charging>
0.000122112

> <r_epik_Ionization_Penalty_Neutral>
0.000299698

> <r_epik_State_Penalty>
-0

> <r_epik_Charging_Adjusted_Penalty>
0.000122112

> <i_epik_Tot_Q>
0

> <i_epik_Tot_abs_Q>
0

> <r_epik_Metal_State_Penalty>
0.0934894

> <b_epik_Metal_Only>
0

> <s_lp_Force_Field>
OPLS_2005

> <r_lp_Energy>
38.8925

> <b_lp_Chiralities_Consistent>
1

> <s_lp_Variant>
AV-unprocessed.smi:535-1

> <Gold.Version>
5.8.1

> <Gold.Id.Protein>
6NUR|6NUR_protein|mol2

> <Gold.PLP.Fitness>
45.9963

> <Gold.PLP.PLP>
-44.1947

> <Gold.PLP.part.hbond>
-1.1378

> <Gold.PLP.part.metal>
0.0000

> <Gold.PLP.part.buried>
-5.9799

> <Gold.PLP.part.nonpolar>
-37.5668

> <Gold.PLP.part.repulsive>
0.2486

> <Gold.PLP.ligand.clash>
0.0000

> <Gold.PLP.ligand.torsion>
0.8677

> <Gold.PLP.Chemscore.Hbond>
1.0000

> <Gold.PLP.Chemscore.CHOScore>
0.0000

> <Gold.PLP.Chemscore.Metal>
0.0000

> <Gold.Chemscore.Hbonds>
donor molecule, donor type, donor heavy atom, donor atom, acceptor molecule, acceptor atom, score
      P1  H 10752 10765       L1    21  0.60

> <Gold.PLP.Chemscore.Internal.Correction>
0.5370

> <Gold.Rescore>
     Score         DG    S(hbond)    S(metal)    S(lipo)     H(rot)  DE(clash)    DE(int)     intcor
     12.82     -13.74       0.41        0.00      90.89       1.46       0.04       0.88       ----

> <Gold.Chemscore.Fitness>
12.8241

> <Gold.Chemscore.DG>
-13.7406

> <Gold.Chemscore.ZeroCoef>
-5.4800

> <Gold.Chemscore.Hbond>
0.4052

> <Gold.Chemscore.Metal>
0.0000

> <Gold.Chemscore.Lipo>
90.8883

> <Gold.Chemscore.Internal_Hbond>
0.0000

> <Gold.Chemscore.DEClash>
0.0354

> <Gold.Chemscore.DEInternal>
0.8812

> <Gold.Chemscore.Rot>
1.4557

> <Gold.Chemscore.Internal.Correction>
   9.000000E+99

> <Gold.Chemscore.Hbonds>
donor molecule, donor type, donor heavy atom, donor atom, acceptor molecule, acceptor atom, score
      P1  H 10752 10765       L1    21  0.06

> <Gold.Chemscore.Hbond.Weighted>
-1.3534

> <Gold.Chemscore.Metal.Weighted>
-0.0000

> <Gold.Chemscore.Lipo.Weighted>
-10.6339

> <Gold.Chemscore.Internal_Hbond.Weighted>
0.0000

> <Gold.Chemscore.DEClash.Weighted>
0.0354

> <Gold.Chemscore.DEInternal.Weighted>
0.8812

> <Gold.Chemscore.Rot.Weighted>
3.7267

> <Gold.Chemscore.Internal.Correction.Weighted>
   9.000000E+99

> <Gold.Protein.RotatedTorsions>
[ 6907 6896 6895 6894 ] final -134.07 input  -60.11 | X-H torsion
[ 7974 7965 7964 7962 ] final  -68.23 input  175.53 | X-H torsion
[ 8008 7997 7996 7995 ] final  123.72 input   59.86 | X-H torsion
[ 10167 10162 10161 10158 ] final   81.60 input  -65.29 | X-H torsion
[ 10718 10713 10712 10709 ] final   13.03 input   66.30 | X-H torsion
[ 10763 10752 10751 10750 ] final  -98.27 input  -60.55 | X-H torsion
[ 11005 11000 10999 10996 ] final -143.46 input  -57.11 | X-H torsion

> <Gold.Protein.ActiveResidues>
 VAL166  LYS551  ARG553  GLY616  TRP617  ASP618  TYR619  PRO620  LYS621  CYS622 
 ASP623  PHE694  ASN695  SER759  ASP760  ASP761  ALA762  ILE779  LEU786  VAL792 
 PHE793  MET794  SER795  GLU796  ALA797  LYS798  CYS799  TRP800  GLU811  SER814 

> <Gold.Protein.RotatedAtoms>
  150.9815  133.6240  159.2721 H   0  0  0  0  0  0  0  0  0  0  0  0  # atno 6907 bound_to 6896
  151.3493  135.0880  159.9407 H   0  0  0  0  0  0  0  0  0  0  0  0  # atno 6908 bound_to 6896
  152.5217  133.9411  159.7681 H   0  0  0  0  0  0  0  0  0  0  0  0  # atno 6909 bound_to 6896
  145.7191  140.9046  143.0640 H   0  0  0  0  0  0  0  0  0  0  0  0  # atno 7974 bound_to 7965
  156.2776  140.2756  156.1673 H   0  0  0  0  0  0  0  0  0  0  0  0  # atno 8008 bound_to 7997
  155.0692  140.0387  157.2620 H   0  0  0  0  0  0  0  0  0  0  0  0  # atno 8009 bound_to 7997
  154.7054  140.2658  155.6685 H   0  0  0  0  0  0  0  0  0  0  0  0  # atno 8010 bound_to 7997
  139.9376  144.6111  150.8283 H   0  0  0  0  0  0  0  0  0  0  0  0  # atno 10167 bound_to 10162
  157.0187  130.6146  149.5718 H   0  0  0  0  0  0  0  0  0  0  0  0  # atno 10718 bound_to 10713
  154.7399  135.5016  153.9105 H   0  0  0  0  0  0  0  0  0  0  0  0  # atno 10763 bound_to 10752
  153.1033  135.6691  153.9641 H   0  0  0  0  0  0  0  0  0  0  0  0  # atno 10764 bound_to 10752
  153.9421  135.3066  155.3421 H   0  0  0  0  0  0  0  0  0  0  0  0  # atno 10765 bound_to 10752
  140.8123  134.2729  157.4935 H   0  0  0  0  0  0  0  0  0  0  0  0  # atno 11005 bound_to 11000
  144.6921  139.9177  143.7466 LP  0  0  0  0  0  0  0  0  0  0  0  0  # atno 17320 bound_to 7965
  146.0642  139.3634  143.0562 LP  0  0  0  0  0  0  0  0  0  0  0  0  # atno 17321 bound_to 7965
  140.7620  143.3188  151.2671 LP  0  0  0  0  0  0  0  0  0  0  0  0  # atno 17342 bound_to 10162
  139.6731  143.9986  152.2765 LP  0  0  0  0  0  0  0  0  0  0  0  0  # atno 17343 bound_to 10162
  156.0110  130.5201  150.7987 LP  0  0  0  0  0  0  0  0  0  0  0  0  # atno 17370 bound_to 10713
  157.5266  131.0934  151.0010 LP  0  0  0  0  0  0  0  0  0  0  0  0  # atno 17371 bound_to 10713
  139.8713  134.9490  156.4013 LP  0  0  0  0  0  0  0  0  0  0  0  0  # atno 17394 bound_to 11000
  140.9185  133.7662  155.9877 LP  0  0  0  0  0  0  0  0  0  0  0  0  # atno 17395 bound_to 11000

$$$$
