AV-unprocessed.smi:2027|AV-procd|sdf|8210|dock6
  -GOLD-   2272010473D 1   1.00000     0.00000
 Structure written by MMmdl.
 49 51  0  0  0  0  0  0  0  0  1 V2000
  152.9719  142.9713  161.5702 C   0  0  0  0  0  0  0  0  0  0  0  0
  152.3976  142.6095  160.2118 C   0  0  0  0  0  0  0  0  0  0  0  0
  152.7930  141.3983  159.5986 C   0  0  0  0  0  0  0  0  0  0  0  0
  152.2838  141.0260  158.3348 C   0  0  0  0  0  0  0  0  0  0  0  0
  152.5266  139.9061  157.5569 N   0  0  0  0  0  0  0  0  0  0  0  0
  151.7586  140.1425  156.4962 C   0  0  0  0  0  0  0  0  0  0  0  0
  151.0494  141.2870  156.4955 N   0  0  0  0  0  0  0  0  0  0  0  0
  150.1483  141.7772  155.4716 C   0  0  0  0  0  0  0  0  0  0  0  0
  149.3239  140.6367  154.8412 C   0  0  1  0  0  0  0  0  0  0  0  0
  150.1334  139.9485  153.9104 O   0  0  0  0  0  0  0  0  0  0  0  0
  148.8031  139.6286  155.8866 C   0  0  0  0  0  0  0  0  0  0  0  0
  148.1106  138.4631  155.3296 N   0  0  0  0  0  0  0  0  0  0  0  0
  149.0577  137.3826  155.0737 C   0  0  0  0  0  0  0  0  0  0  0  0
  147.3428  138.7811  154.1215 C   0  0  0  0  0  0  0  0  0  0  0  0
  146.4341  137.6585  153.6958 C   0  0  0  0  0  0  0  0  0  0  0  0
  146.3618  136.3403  154.2293 C   0  0  0  0  0  0  0  0  0  0  0  0
  145.4702  135.5827  153.6110 N   0  0  0  0  0  0  0  0  0  0  0  0
  144.9458  136.3867  152.6632 N   0  0  0  0  0  0  0  0  0  0  0  0
  143.9252  135.8744  151.7742 C   0  0  0  0  0  0  0  0  0  0  0  0
  145.5088  137.6435  152.6896 C   0  0  0  0  0  0  0  0  0  0  0  0
  151.3628  141.9068  157.6984 C   0  0  0  0  0  0  0  0  0  0  0  0
  150.9610  143.1131  158.2975 C   0  0  0  0  0  0  0  0  0  0  0  0
  151.4765  143.4691  159.5604 C   0  0  0  0  0  0  0  0  0  0  0  0
  151.0330  144.7746  160.1969 C   0  0  0  0  0  0  0  0  0  0  0  0
  153.7204  142.2464  161.8919 H   0  0  0  0  0  0  0  0  0  0  0  0
  152.1829  142.9956  162.3222 H   0  0  0  0  0  0  0  0  0  0  0  0
  153.4497  143.9506  161.5363 H   0  0  0  0  0  0  0  0  0  0  0  0
  153.4934  140.7431  160.0955 H   0  0  0  0  0  0  0  0  0  0  0  0
  151.7108  139.4460  155.6717 H   0  0  0  0  0  0  0  0  0  0  0  0
  149.5003  142.5468  155.8936 H   0  0  0  0  0  0  0  0  0  0  0  0
  150.7601  142.2711  154.7161 H   0  0  0  0  0  0  0  0  0  0  0  0
  148.4930  141.0517  154.2727 H   0  0  0  0  0  0  0  0  0  0  0  0
  149.7211  139.9988  153.0615 H   0  0  0  0  0  0  0  0  0  0  0  0
  149.6291  139.2913  156.5149 H   0  0  0  0  0  0  0  0  0  0  0  0
  148.1233  140.1651  156.5503 H   0  0  0  0  0  0  0  0  0  0  0  0
  148.5488  136.4857  154.7199 H   0  0  0  0  0  0  0  0  0  0  0  0
  149.5925  137.1126  155.9850 H   0  0  0  0  0  0  0  0  0  0  0  0
  149.7938  137.6743  154.3232 H   0  0  0  0  0  0  0  0  0  0  0  0
  146.7286  139.6634  154.2852 H   0  0  0  0  0  0  0  0  0  0  0  0
  148.0264  139.0577  153.3175 H   0  0  0  0  0  0  0  0  0  0  0  0
  146.9313  135.9130  155.0416 H   0  0  0  0  0  0  0  0  0  0  0  0
  143.4397  136.6983  151.2503 H   0  0  0  0  0  0  0  0  0  0  0  0
  143.1735  135.3269  152.3445 H   0  0  0  0  0  0  0  0  0  0  0  0
  144.3786  135.2061  151.0420 H   0  0  0  0  0  0  0  0  0  0  0  0
  145.2127  138.4162  151.9951 H   0  0  0  0  0  0  0  0  0  0  0  0
  150.2625  143.7589  157.7870 H   0  0  0  0  0  0  0  0  0  0  0  0
  150.2573  145.2619  159.6050 H   0  0  0  0  0  0  0  0  0  0  0  0
  151.8748  145.4625  160.2798 H   0  0  0  0  0  0  0  0  0  0  0  0
  150.6290  144.5986  161.1940 H   0  0  0  0  0  0  0  0  0  0  0  0
  1  2  1  0  0  0  0
  1 25  1  0  0  0  0
  1 26  1  0  0  0  0
  1 27  1  0  0  0  0
  2 23  1  0  0  0  0
  2  3  2  0  0  0  0
  3  4  1  0  0  0  0
  3 28  1  0  0  0  0
  4 21  2  0  0  0  0
  4  5  1  0  0  0  0
  5  6  2  0  0  0  0
  6  7  1  0  0  0  0
  6 29  1  0  0  0  0
  7  8  1  0  0  0  0
  7 21  1  0  0  0  0
  8  9  1  0  0  0  0
  8 30  1  0  0  0  0
  8 31  1  0  0  0  0
  9 10  1  0  0  0  0
  9 11  1  0  0  0  0
  9 32  1  0  0  0  0
 10 33  1  0  0  0  0
 11 12  1  0  0  0  0
 11 34  1  0  0  0  0
 11 35  1  0  0  0  0
 12 13  1  0  0  0  0
 12 14  1  0  0  0  0
 13 36  1  0  0  0  0
 13 37  1  0  0  0  0
 13 38  1  0  0  0  0
 14 15  1  0  0  0  0
 14 39  1  0  0  0  0
 14 40  1  0  0  0  0
 15 20  2  0  0  0  0
 15 16  1  0  0  0  0
 16 17  2  0  0  0  0
 16 41  1  0  0  0  0
 17 18  1  0  0  0  0
 18 19  1  0  0  0  0
 18 20  1  0  0  0  0
 19 42  1  0  0  0  0
 19 43  1  0  0  0  0
 19 44  1  0  0  0  0
 20 45  1  0  0  0  0
 21 22  1  0  0  0  0
 22 23  2  0  0  0  0
 22 46  1  0  0  0  0
 23 24  1  0  0  0  0
 24 47  1  0  0  0  0
 24 48  1  0  0  0  0
 24 49  1  0  0  0  0
M  END
> <s_m_source_file>
AV-unprocessed.smi

> <i_m_source_file_index>
2027

> <i_lp_mmshare_version>
43012

> <i_f3d_flags>
0

> <s_epik_input>
W0NIM11jKFtjSF0xKWMoW0NIM10pW2NIXWMoYzEyKW4oW2NIXW4yKVtDSDJdW0NASF0oW09IXSlbQ0gyXU4oW0NIM10pW0NIMl1jM1tjSF1ubihbQ0gzXSlbY0hdMw==

> <s_epik_cmdline>
J2VwaWtfcHl0aG9uJywgJy1waCcsICc3LjAnLCAnLXRuJywgJzgnLCAnLW1hJywgJzIwMCcsICctbWV0YWxfYmluZGluZycsICctaW1hZScsICc8aW5maWxlLm1hZT4nLCAnLW9tYWUnLCAnPG91dGZpbGUubWFlPic=

> <r_lp_tautomer_probability>
1

> <r_epik_Ionization_Penalty>
0.374241

> <r_epik_Ionization_Penalty_Charging>
0

> <r_epik_Ionization_Penalty_Neutral>
0.374241

> <r_epik_State_Penalty>
0.350767

> <r_epik_Charging_Adjusted_Penalty>
0.350767

> <i_epik_Tot_Q>
0

> <i_epik_Tot_abs_Q>
0

> <r_epik_Metal_State_Penalty>
0.343203

> <b_epik_Metal_Only>
0

> <s_lp_Force_Field>
OPLS_2005

> <r_lp_Energy>
13.5697

> <b_lp_Chiralities_Consistent>
1

> <s_lp_Variant>
AV-unprocessed.smi:2027-2

> <Gold.Version>
5.8.1

> <Gold.Id.Protein>
6NUR|6NUR_protein|mol2

> <Gold.PLP.Fitness>
54.0790

> <Gold.PLP.PLP>
-41.1197

> <Gold.PLP.part.hbond>
-3.0000

> <Gold.PLP.part.metal>
0.0000

> <Gold.PLP.part.buried>
-5.4386

> <Gold.PLP.part.nonpolar>
-32.5579

> <Gold.PLP.part.repulsive>
0.1157

> <Gold.PLP.ligand.clash>
0.0000

> <Gold.PLP.ligand.torsion>
0.8853

> <Gold.PLP.Chemscore.Hbond>
2.8640

> <Gold.PLP.Chemscore.CHOScore>
1.9801

> <Gold.PLP.Chemscore.Metal>
0.0000

> <Gold.Chemscore.Hbonds>
donor molecule, donor type, donor heavy atom, donor atom, acceptor molecule, acceptor atom, score
      L1  H    10    33       P1  7957  1.00
      P1  H  7989  7998       L1    10  0.74
      P1  H  7997  8009       L1     5  0.75
      L1  C    20    45       P1 10171  0.92
      L1  C    20    45       P1 10175  0.82

> <Gold.PLP.Chemscore.Internal.Correction>
0.1976

> <Gold.Rescore>
     Score         DG    S(hbond)    S(metal)    S(lipo)     H(rot)  DE(clash)    DE(int)     intcor
     16.59     -19.82       2.18        0.00     113.18       2.42       0.26       2.97       ----

> <Gold.Chemscore.Fitness>
16.5884

> <Gold.Chemscore.DG>
-19.8222

> <Gold.Chemscore.ZeroCoef>
-5.4800

> <Gold.Chemscore.Hbond>
2.1841

> <Gold.Chemscore.Metal>
0.0000

> <Gold.Chemscore.Lipo>
113.1815

> <Gold.Chemscore.Internal_Hbond>
0.0000

> <Gold.Chemscore.DEClash>
0.2618

> <Gold.Chemscore.DEInternal>
2.9720

> <Gold.Chemscore.Rot>
2.4198

> <Gold.Chemscore.Internal.Correction>
   9.000000E+99

> <Gold.Chemscore.Hbonds>
donor molecule, donor type, donor heavy atom, donor atom, acceptor molecule, acceptor atom, score
      L1  H    10    33       P1  7957  0.99
      P1  H  7989  7998       L1    10  0.09
      P1  H  7997  8009       L1     5  0.09

> <Gold.Chemscore.Hbond.Weighted>
-7.2947

> <Gold.Chemscore.Metal.Weighted>
-0.0000

> <Gold.Chemscore.Lipo.Weighted>
-13.2422

> <Gold.Chemscore.Internal_Hbond.Weighted>
0.0000

> <Gold.Chemscore.DEClash.Weighted>
0.2618

> <Gold.Chemscore.DEInternal.Weighted>
2.9720

> <Gold.Chemscore.Rot.Weighted>
6.1948

> <Gold.Chemscore.Internal.Correction.Weighted>
   9.000000E+99

> <Gold.Protein.RotatedTorsions>
[ 6907 6896 6895 6894 ] final  -22.60 input  -60.11 | X-H torsion
[ 7974 7965 7964 7962 ] final  -73.92 input  175.53 | X-H torsion
[ 8008 7997 7996 7995 ] final -175.98 input   59.86 | X-H torsion
[ 10167 10162 10161 10158 ] final  137.73 input  -65.29 | X-H torsion
[ 10718 10713 10712 10709 ] final -142.18 input   66.30 | X-H torsion
[ 10763 10752 10751 10750 ] final   -4.80 input  -60.55 | X-H torsion
[ 11005 11000 10999 10996 ] final -100.55 input  -57.11 | X-H torsion

> <Gold.Protein.ActiveResidues>
 VAL166  LYS551  ARG553  GLY616  TRP617  ASP618  TYR619  PRO620  LYS621  CYS622 
 ASP623  PHE694  ASN695  SER759  ASP760  ASP761  ALA762  ILE779  LEU786  VAL792 
 PHE793  MET794  SER795  GLU796  ALA797  LYS798  CYS799  TRP800  GLU811  SER814 

> <Gold.Protein.RotatedAtoms>
  151.2163  135.0501  159.8931 H   0  0  0  0  0  0  0  0  0  0  0  0  # atno 6907 bound_to 6896
  152.5420  134.0690  159.8195 H   0  0  0  0  0  0  0  0  0  0  0  0  # atno 6908 bound_to 6896
  151.0850  133.5312  159.2650 H   0  0  0  0  0  0  0  0  0  0  0  0  # atno 6909 bound_to 6896
  145.6459  140.9297  143.1011 H   0  0  0  0  0  0  0  0  0  0  0  0  # atno 7974 bound_to 7965
  155.9893  140.1197  157.0653 H   0  0  0  0  0  0  0  0  0  0  0  0  # atno 8008 bound_to 7997
  154.4206  140.1129  156.5611 H   0  0  0  0  0  0  0  0  0  0  0  0  # atno 8009 bound_to 7997
  155.6365  140.3473  155.4702 H   0  0  0  0  0  0  0  0  0  0  0  0  # atno 8010 bound_to 7997
  139.5134  144.6394  151.5611 H   0  0  0  0  0  0  0  0  0  0  0  0  # atno 10167 bound_to 10162
  156.3428  130.7646  151.1786 H   0  0  0  0  0  0  0  0  0  0  0  0  # atno 10718 bound_to 10713
  153.3898  135.7001  153.6503 H   0  0  0  0  0  0  0  0  0  0  0  0  # atno 10763 bound_to 10752
  153.5081  135.3638  155.2573 H   0  0  0  0  0  0  0  0  0  0  0  0  # atno 10764 bound_to 10752
  154.8701  135.4128  154.3212 H   0  0  0  0  0  0  0  0  0  0  0  0  # atno 10765 bound_to 10752
  141.1266  133.8408  157.1118 H   0  0  0  0  0  0  0  0  0  0  0  0  # atno 11005 bound_to 11000
  144.7140  139.8264  143.7405 LP  0  0  0  0  0  0  0  0  0  0  0  0  # atno 17320 bound_to 7965
  146.1243  139.4266  143.0208 LP  0  0  0  0  0  0  0  0  0  0  0  0  # atno 17321 bound_to 7965
  140.6154  143.9357  150.6485 LP  0  0  0  0  0  0  0  0  0  0  0  0  # atno 17342 bound_to 10162
  140.2614  143.3521  152.1319 LP  0  0  0  0  0  0  0  0  0  0  0  0  # atno 17343 bound_to 10162
  157.7449  131.0449  150.4819 LP  0  0  0  0  0  0  0  0  0  0  0  0  # atno 17370 bound_to 10713
  156.5002  130.4115  149.6357 LP  0  0  0  0  0  0  0  0  0  0  0  0  # atno 17371 bound_to 10713
  140.0271  134.9919  157.0706 LP  0  0  0  0  0  0  0  0  0  0  0  0  # atno 17394 bound_to 11000
  140.4346  134.1745  155.7170 LP  0  0  0  0  0  0  0  0  0  0  0  0  # atno 17395 bound_to 11000

$$$$
