AV-unprocessed.smi:1005|AV-procd|sdf|4375|dock4
  -GOLD-   22720 2293D 1   1.00000     0.00000
 Structure written by MMmdl.
 57 59  0  0  0  0  0  0  0  0  3 V2000
  151.6134  144.6044  160.8329 C   0  0  0  0  0  0  0  0  0  0  0  0
  151.6297  143.5455  159.7436 C   0  0  0  0  0  0  0  0  0  0  0  0
  150.8050  143.7302  158.6106 C   0  0  0  0  0  0  0  0  0  0  0  0
  150.8416  142.7446  157.6314 C   0  0  0  0  0  0  0  0  0  0  0  0
  150.1587  142.6315  156.4183 N   0  3  0  0  0  0  0  0  0  0  0  0
  150.5256  141.4768  155.7958 C   0  0  0  0  0  0  0  0  0  0  0  0
  151.4324  140.8515  156.5946 N   0  0  0  0  0  0  0  0  0  0  0  0
  152.1439  139.5805  156.4041 C   0  0  0  0  0  0  0  0  0  0  0  0
  152.5641  139.3424  154.9405 C   0  0  1  0  0  0  0  0  0  0  0  0
  153.9623  139.1412  154.8886 O   0  0  0  0  0  0  0  0  0  0  0  0
  151.8681  138.1038  154.3401 C   0  0  0  0  0  0  0  0  0  0  0  0
  150.5088  137.8563  154.8245 N   0  0  0  0  0  0  0  0  0  0  0  0
  149.5367  138.6393  154.0697 C   0  0  0  0  0  0  0  0  0  0  0  0
  148.0984  138.3884  154.5515 C   0  0  0  0  0  0  0  0  0  0  0  0
  147.8104  136.9955  154.4786 O   0  0  0  0  0  0  0  0  0  0  0  0
  148.6973  136.1965  155.2584 C   0  0  1  0  0  0  0  0  0  0  0  0
  148.2517  134.7245  155.1219 C   0  0  0  0  0  0  0  0  0  0  0  0
  148.5953  134.1132  153.8112 N   0  3  0  0  0  0  0  0  0  0  0  0
  147.5567  133.1996  153.2828 C   0  0  0  0  0  0  0  0  0  0  0  0
  149.9243  133.4627  153.8404 C   0  0  0  0  0  0  0  0  0  0  0  0
  150.1326  136.4454  154.7428 C   0  0  0  0  0  0  0  0  0  0  0  0
  151.6627  141.6069  157.7490 C   0  0  0  0  0  0  0  0  0  0  0  0
  152.4841  141.4103  158.8563 C   0  0  0  0  0  0  0  0  0  0  0  0
  152.4566  142.3986  159.8659 C   0  0  0  0  0  0  0  0  0  0  0  0
  153.3344  142.2062  161.0910 C   0  0  0  0  0  0  0  0  0  0  0  0
  150.9460  145.4284  160.5789 H   0  0  0  0  0  0  0  0  0  0  0  0
  152.6113  145.0189  160.9795 H   0  0  0  0  0  0  0  0  0  0  0  0
  151.2725  144.1779  161.7767 H   0  0  0  0  0  0  0  0  0  0  0  0
  150.1725  144.6002  158.5111 H   0  0  0  0  0  0  0  0  0  0  0  0
  150.1609  141.1206  154.8428 H   0  0  0  0  0  0  0  0  0  0  0  0
  153.0194  139.5915  157.0550 H   0  0  0  0  0  0  0  0  0  0  0  0
  151.5008  138.7751  156.7612 H   0  0  0  0  0  0  0  0  0  0  0  0
  152.3346  140.2362  154.3642 H   0  0  0  0  0  0  0  0  0  0  0  0
  154.1402  138.4286  154.2934 H   0  0  0  0  0  0  0  0  0  0  0  0
  151.8594  138.2111  153.2540 H   0  0  0  0  0  0  0  0  0  0  0  0
  152.4748  137.2186  154.5378 H   0  0  0  0  0  0  0  0  0  0  0  0
  149.7651  139.7020  154.1610 H   0  0  0  0  0  0  0  0  0  0  0  0
  149.6083  138.3952  153.0084 H   0  0  0  0  0  0  0  0  0  0  0  0
  147.9646  138.7435  155.5744 H   0  0  0  0  0  0  0  0  0  0  0  0
  147.3890  138.9324  153.9279 H   0  0  0  0  0  0  0  0  0  0  0  0
  148.6066  136.5127  156.2993 H   0  0  0  0  0  0  0  0  0  0  0  0
  148.7711  134.1455  155.8872 H   0  0  0  0  0  0  0  0  0  0  0  0
  147.1873  134.6112  155.3339 H   0  0  0  0  0  0  0  0  0  0  0  0
  147.3257  132.4096  153.9988 H   0  0  0  0  0  0  0  0  0  0  0  0
  147.8898  132.7306  152.3561 H   0  0  0  0  0  0  0  0  0  0  0  0
  146.6404  133.7408  153.0501 H   0  0  0  0  0  0  0  0  0  0  0  0
  149.9324  132.6228  154.5364 H   0  0  0  0  0  0  0  0  0  0  0  0
  150.6973  134.1685  154.1463 H   0  0  0  0  0  0  0  0  0  0  0  0
  150.1945  133.0905  152.8517 H   0  0  0  0  0  0  0  0  0  0  0  0
  150.2067  136.1068  153.7080 H   0  0  0  0  0  0  0  0  0  0  0  0
  150.8293  135.8344  155.3103 H   0  0  0  0  0  0  0  0  0  0  0  0
  153.1157  140.5391  158.9455 H   0  0  0  0  0  0  0  0  0  0  0  0
  153.8920  141.2706  161.0408 H   0  0  0  0  0  0  0  0  0  0  0  0
  152.7278  142.1836  161.9967 H   0  0  0  0  0  0  0  0  0  0  0  0
  154.0554  143.0195  161.1762 H   0  0  0  0  0  0  0  0  0  0  0  0
  148.6734  134.8734  153.1501 H   0  0  0  0  0  0  0  0  0  0  0  0
  149.4910  143.2913  156.0402 H   0  0  0  0  0  0  0  0  0  0  0  0
  1  2  1  0  0  0  0
  1 26  1  0  0  0  0
  1 27  1  0  0  0  0
  1 28  1  0  0  0  0
  2 24  1  0  0  0  0
  2  3  2  0  0  0  0
  3  4  1  0  0  0  0
  3 29  1  0  0  0  0
  4 22  2  0  0  0  0
  4  5  1  0  0  0  0
  5  6  2  0  0  0  0
  5 57  1  0  0  0  0
  6  7  1  0  0  0  0
  6 30  1  0  0  0  0
  7  8  1  0  0  0  0
  7 22  1  0  0  0  0
  8  9  1  0  0  0  0
  8 31  1  0  0  0  0
  8 32  1  0  0  0  0
  9 10  1  0  0  0  0
  9 11  1  0  0  0  0
  9 33  1  0  0  0  0
 10 34  1  0  0  0  0
 11 12  1  0  0  0  0
 11 35  1  0  0  0  0
 11 36  1  0  0  0  0
 12 21  1  0  0  0  0
 12 13  1  0  0  0  0
 13 14  1  0  0  0  0
 13 37  1  0  0  0  0
 13 38  1  0  0  0  0
 14 15  1  0  0  0  0
 14 39  1  0  0  0  0
 14 40  1  0  0  0  0
 15 16  1  0  0  0  0
 16 17  1  0  0  0  0
 16 21  1  0  0  0  0
 16 41  1  0  0  0  0
 17 18  1  0  0  0  0
 17 42  1  0  0  0  0
 17 43  1  0  0  0  0
 18 19  1  0  0  0  0
 18 20  1  0  0  0  0
 18 56  1  0  0  0  0
 19 44  1  0  0  0  0
 19 45  1  0  0  0  0
 19 46  1  0  0  0  0
 20 47  1  0  0  0  0
 20 48  1  0  0  0  0
 20 49  1  0  0  0  0
 21 50  1  0  0  0  0
 21 51  1  0  0  0  0
 22 23  1  0  0  0  0
 23 24  2  0  0  0  0
 23 52  1  0  0  0  0
 24 25  1  0  0  0  0
 25 53  1  0  0  0  0
 25 54  1  0  0  0  0
 25 55  1  0  0  0  0
M  CHG  1   5   1
M  CHG  1  18   1
M  END
> <s_m_source_file>
AV-unprocessed.smi

> <i_m_source_file_index>
1005

> <i_lp_mmshare_version>
43012

> <i_f3d_flags>
0

> <s_epik_input>
W0NIM11jKFtjSF0xKWMoW0NIM10pW2NIXWMoYzEyKW4oW2NIXW4yKVtDSDJdW0NASF0oW09IXSlbQ0gyXU4zW0NIMl1bQ0gyXU9bQ0BIXShbQ0gyXTMpW0NIMl1OKFtDSDNdKVtDSDNd

> <s_epik_cmdline>
J2VwaWtfcHl0aG9uJywgJy1waCcsICc3LjAnLCAnLXRuJywgJzgnLCAnLW1hJywgJzIwMCcsICctbWV0YWxfYmluZGluZycsICctaW1hZScsICc8aW5maWxlLm1hZT4nLCAnLW9tYWUnLCAnPG91dGZpbGUubWFlPic=

> <r_epik_Ionization_Penalty>
1.3281

> <r_epik_Ionization_Penalty_Charging>
1.21988

> <r_epik_Ionization_Penalty_Neutral>
0.10822

> <r_epik_State_Penalty>
1.32886

> <r_epik_Charging_Adjusted_Penalty>
2.54875

> <i_epik_Tot_Q>
2

> <i_epik_Tot_abs_Q>
2

> <r_epik_Metal_State_Penalty>
5.33912

> <b_epik_Metal_Only>
0

> <s_lp_Force_Field>
OPLS_2005

> <r_lp_Energy>
45.907

> <b_lp_Chiralities_Consistent>
1

> <s_lp_Variant>
AV-unprocessed.smi:1005-14

> <Gold.Version>
5.8.1

> <Gold.Id.Protein>
6NUR|6NUR_protein|mol2

> <Gold.PLP.Fitness>
60.5007

> <Gold.PLP.PLP>
-49.8979

> <Gold.PLP.part.hbond>
-3.0000

> <Gold.PLP.part.metal>
0.0000

> <Gold.PLP.part.buried>
-4.5613

> <Gold.PLP.part.nonpolar>
-40.9103

> <Gold.PLP.part.repulsive>
0.3192

> <Gold.PLP.ligand.clash>
0.0000

> <Gold.PLP.ligand.torsion>
2.2055

> <Gold.PLP.Chemscore.Hbond>
4.9120

> <Gold.PLP.Chemscore.CHOScore>
0.0000

> <Gold.PLP.Chemscore.Metal>
0.0000

> <Gold.Chemscore.Hbonds>
donor molecule, donor type, donor heavy atom, donor atom, acceptor molecule, acceptor atom, score
      L1  H     5    57       P1  8028  2.00
      L1  H    18    56       P1  7948  2.00
      P1  H  7997  8010       L1    10  0.86

> <Gold.PLP.Chemscore.Internal.Correction>
0.2778

> <Gold.Rescore>
     Score         DG    S(hbond)    S(metal)    S(lipo)     H(rot)  DE(clash)    DE(int)     intcor
     20.44     -22.87       2.45        0.00     133.16       2.49       0.13       2.29       ----

> <Gold.Chemscore.Fitness>
20.4393

> <Gold.Chemscore.DG>
-22.8653

> <Gold.Chemscore.ZeroCoef>
-5.4800

> <Gold.Chemscore.Hbond>
2.4487

> <Gold.Chemscore.Metal>
0.0000

> <Gold.Chemscore.Lipo>
133.1638

> <Gold.Chemscore.Internal_Hbond>
0.0000

> <Gold.Chemscore.DEClash>
0.1343

> <Gold.Chemscore.DEInternal>
2.2917

> <Gold.Chemscore.Rot>
2.4897

> <Gold.Chemscore.Internal.Correction>
   9.000000E+99

> <Gold.Chemscore.Hbonds>
donor molecule, donor type, donor heavy atom, donor atom, acceptor molecule, acceptor atom, score
      L1  H     5    57       P1  8028  0.98
      L1  H    18    56       P1  7948  0.45
      P1  H  7997  8010       L1    10  0.48

> <Gold.Chemscore.Hbond.Weighted>
-8.1788

> <Gold.Chemscore.Metal.Weighted>
-0.0000

> <Gold.Chemscore.Lipo.Weighted>
-15.5802

> <Gold.Chemscore.Internal_Hbond.Weighted>
0.0000

> <Gold.Chemscore.DEClash.Weighted>
0.1343

> <Gold.Chemscore.DEInternal.Weighted>
2.2917

> <Gold.Chemscore.Rot.Weighted>
6.3737

> <Gold.Chemscore.Internal.Correction.Weighted>
   9.000000E+99

> <Gold.Protein.RotatedTorsions>
[ 6907 6896 6895 6894 ] final   -3.76 input  -60.11 | X-H torsion
[ 7974 7965 7964 7962 ] final -127.55 input  175.53 | X-H torsion
[ 8008 7997 7996 7995 ] final  114.81 input   59.86 | X-H torsion
[ 10167 10162 10161 10158 ] final   66.88 input  -65.29 | X-H torsion
[ 10718 10713 10712 10709 ] final  111.96 input   66.30 | X-H torsion
[ 10763 10752 10751 10750 ] final   56.37 input  -60.55 | X-H torsion
[ 11005 11000 10999 10996 ] final  144.07 input  -57.11 | X-H torsion

> <Gold.Protein.ActiveResidues>
 VAL166  LYS551  ARG553  GLY616  TRP617  ASP618  TYR619  PRO620  LYS621  CYS622 
 ASP623  PHE694  ASN695  SER759  ASP760  ASP761  ALA762  ILE779  LEU786  VAL792 
 PHE793  MET794  SER795  GLU796  ALA797  LYS798  CYS799  TRP800  GLU811  SER814 

> <Gold.Protein.RotatedAtoms>
  151.5086  135.1064  159.9847 H   0  0  0  0  0  0  0  0  0  0  0  0  # atno 6907 bound_to 6896
  152.4671  133.7943  159.6929 H   0  0  0  0  0  0  0  0  0  0  0  0  # atno 6908 bound_to 6896
  150.8660  133.7510  159.3002 H   0  0  0  0  0  0  0  0  0  0  0  0  # atno 6909 bound_to 6896
  144.9759  140.7592  143.4642 H   0  0  0  0  0  0  0  0  0  0  0  0  # atno 7974 bound_to 7965
  156.2344  140.2951  156.0272 H   0  0  0  0  0  0  0  0  0  0  0  0  # atno 8008 bound_to 7997
  155.2135  140.0413  157.2954 H   0  0  0  0  0  0  0  0  0  0  0  0  # atno 8009 bound_to 7997
  154.6052  140.2437  155.7748 H   0  0  0  0  0  0  0  0  0  0  0  0  # atno 8010 bound_to 7997
  140.0956  144.4949  150.7070 H   0  0  0  0  0  0  0  0  0  0  0  0  # atno 10167 bound_to 10162
  157.6418  131.0959  150.6825 H   0  0  0  0  0  0  0  0  0  0  0  0  # atno 10718 bound_to 10713
  152.9831  135.5678  154.5218 H   0  0  0  0  0  0  0  0  0  0  0  0  # atno 10763 bound_to 10752
  154.4705  135.2784  155.1648 H   0  0  0  0  0  0  0  0  0  0  0  0  # atno 10764 bound_to 10752
  154.3199  135.6271  153.5556 H   0  0  0  0  0  0  0  0  0  0  0  0  # atno 10765 bound_to 10752
  140.0603  134.9208  157.1172 H   0  0  0  0  0  0  0  0  0  0  0  0  # atno 11005 bound_to 11000
  145.2490  139.2039  143.4952 LP  0  0  0  0  0  0  0  0  0  0  0  0  # atno 17320 bound_to 7965
  146.3395  140.2400  142.8595 LP  0  0  0  0  0  0  0  0  0  0  0  0  # atno 17321 bound_to 7965
  140.7005  143.2432  151.4878 LP  0  0  0  0  0  0  0  0  0  0  0  0  # atno 17342 bound_to 10162
  139.5700  144.1952  152.1822 LP  0  0  0  0  0  0  0  0  0  0  0  0  # atno 17343 bound_to 10162
  156.7148  130.4662  149.5538 LP  0  0  0  0  0  0  0  0  0  0  0  0  # atno 17370 bound_to 10713
  156.1705  130.6434  151.0832 LP  0  0  0  0  0  0  0  0  0  0  0  0  # atno 17371 bound_to 10713
  140.3781  134.2317  155.7173 LP  0  0  0  0  0  0  0  0  0  0  0  0  # atno 17394 bound_to 11000
  141.1970  133.8069  157.0647 LP  0  0  0  0  0  0  0  0  0  0  0  0  # atno 17395 bound_to 11000

$$$$
