AV-unprocessed.smi:160|AV-procd|sdf|1346|dock6
  -GOLD-   2262019 43D 1   1.00000     0.00000
 Structure written by MMmdl.
 29 30  0  0  0  0  0  0  0  0  1 V2000
  155.1301  137.7316  158.2591 N   0  0  0  0  0  0  0  0  0  0  0  0
  154.6570  137.1417  157.1563 C   0  0  0  0  0  0  0  0  0  0  0  0
  155.0699  136.0518  156.7631 O   0  0  0  0  0  0  0  0  0  0  0  0
  153.5833  137.8879  156.4138 C   0  0  0  0  0  0  0  0  0  0  0  0
  152.9236  137.3175  155.3621 N   0  0  0  0  0  0  0  0  0  0  0  0
  152.1117  138.3216  155.0568 C   0  0  0  0  0  0  0  0  0  0  0  0
  152.2604  139.4009  155.8315 N   0  0  0  0  0  0  0  0  0  0  0  0
  151.5344  140.7092  155.8078 C   0  0  1  0  0  0  0  0  0  0  0  0
  150.6886  140.6990  154.6969 O   0  0  0  0  0  0  0  0  0  0  0  0
  149.3766  141.1169  155.0665 C   0  0  1  0  0  0  0  0  0  0  0  0
  148.3205  140.5339  154.1109 C   0  0  0  0  0  0  0  0  0  0  0  0
  148.7281  139.2621  153.6529 O   0  0  0  0  0  0  0  0  0  0  0  0
  149.2480  140.6907  156.5358 C   0  0  1  0  0  0  0  0  0  0  0  0
  148.8514  139.3341  156.6459 O   0  0  0  0  0  0  0  0  0  0  0  0
  150.6587  140.9367  157.0572 C   0  0  1  0  0  0  0  0  0  0  0  0
  150.9854  140.1586  158.1972 O   0  0  0  0  0  0  0  0  0  0  0  0
  153.2258  139.1297  156.7441 N   0  0  0  0  0  0  0  0  0  0  0  0
  152.3217  141.4557  155.6961 H   0  0  0  0  0  0  0  0  0  0  0  0
  149.3493  142.2079  155.0334 H   0  0  0  0  0  0  0  0  0  0  0  0
  148.5151  141.2980  157.0678 H   0  0  0  0  0  0  0  0  0  0  0  0
  150.7535  141.9904  157.3227 H   0  0  0  0  0  0  0  0  0  0  0  0
  155.8514  137.2809  158.8025 H   0  0  0  0  0  0  0  0  0  0  0  0
  154.7590  138.6277  158.5411 H   0  0  0  0  0  0  0  0  0  0  0  0
  151.3955  138.2703  154.2501 H   0  0  0  0  0  0  0  0  0  0  0  0
  147.3435  140.4683  154.5911 H   0  0  0  0  0  0  0  0  0  0  0  0
  148.2113  141.1744  153.2352 H   0  0  0  0  0  0  0  0  0  0  0  0
  148.9677  139.3344  152.7417 H   0  0  0  0  0  0  0  0  0  0  0  0
  148.2453  139.1457  155.9454 H   0  0  0  0  0  0  0  0  0  0  0  0
  150.6808  140.6115  158.9687 H   0  0  0  0  0  0  0  0  0  0  0  0
  1  2  1  0  0  0  0
  1 22  1  0  0  0  0
  1 23  1  0  0  0  0
  2  3  2  0  0  0  0
  2  4  1  0  0  0  0
  4 17  2  0  0  0  0
  4  5  1  0  0  0  0
  5  6  2  0  0  0  0
  6  7  1  0  0  0  0
  6 24  1  0  0  0  0
  7  8  1  0  0  0  0
  7 17  1  0  0  0  0
  8 18  1  0  0  0  0
  8 15  1  0  0  0  0
  8  9  1  0  0  0  0
  9 10  1  0  0  0  0
 10 19  1  0  0  0  0
 10 11  1  0  0  0  0
 10 13  1  0  0  0  0
 11 12  1  0  0  0  0
 11 25  1  0  0  0  0
 11 26  1  0  0  0  0
 12 27  1  0  0  0  0
 13 20  1  0  0  0  0
 13 14  1  0  0  0  0
 13 15  1  0  0  0  0
 14 28  1  0  0  0  0
 15 21  1  0  0  0  0
 15 16  1  0  0  0  0
 16 29  1  0  0  0  0
M  END
> <s_m_source_file>
AV-unprocessed.smi

> <i_m_source_file_index>
160

> <i_lp_mmshare_version>
43012

> <i_f3d_flags>
0

> <s_epik_input>
W05IMl1DKD1PKWMxbltjSF1uKG4xKVtDQEBIXTJPW0NASF0oW0NIMl1bT0hdKVtDQEBIXShbT0hdKVtDQEhdMltPSF0=

> <s_epik_cmdline>
J2VwaWtfcHl0aG9uJywgJy1waCcsICc3LjAnLCAnLXRuJywgJzgnLCAnLW1hJywgJzIwMCcsICctbWV0YWxfYmluZGluZycsICctaW1hZScsICc8aW5maWxlLm1hZT4nLCAnLW9tYWUnLCAnPG91dGZpbGUubWFlPic=

> <r_lp_tautomer_probability>
1

> <r_epik_Ionization_Penalty>
1.06932e-05

> <r_epik_Ionization_Penalty_Charging>
0

> <r_epik_Ionization_Penalty_Neutral>
1.06932e-05

> <r_epik_State_Penalty>
-0

> <r_epik_Charging_Adjusted_Penalty>
0

> <i_epik_Tot_Q>
0

> <i_epik_Tot_abs_Q>
0

> <r_epik_Metal_State_Penalty>
0.0142097

> <b_epik_Metal_Only>
0

> <s_epik_Chemistry_Notes>
This compound contains an acetal/aminal-like group ( X-CH(R)-Y where X, Y are N, S, or O) that may be acid/base labile, releasing an aldehyde.

> <s_lp_Force_Field>
OPLS_2005

> <r_lp_Energy>
47.6591

> <b_lp_Chiralities_Consistent>
1

> <s_lp_Variant>
AV-unprocessed.smi:160-4

> <Gold.Version>
5.8.1

> <Gold.Id.Protein>
6NUR|6NUR_protein|mol2

> <Gold.PLP.Fitness>
35.5141

> <Gold.PLP.PLP>
-22.9861

> <Gold.PLP.part.hbond>
-4.8793

> <Gold.PLP.part.metal>
0.0000

> <Gold.PLP.part.buried>
-2.2977

> <Gold.PLP.part.nonpolar>
-15.5633

> <Gold.PLP.part.repulsive>
0.2054

> <Gold.PLP.ligand.clash>
0.0000

> <Gold.PLP.ligand.torsion>
0.3989

> <Gold.PLP.Chemscore.Hbond>
4.4400

> <Gold.PLP.Chemscore.CHOScore>
0.0000

> <Gold.PLP.Chemscore.Metal>
0.0000

> <Gold.Chemscore.Hbonds>
donor molecule, donor type, donor heavy atom, donor atom, acceptor molecule, acceptor atom, score
      L1  H    12    27       P1  7957  1.00
      P1  H  7989  7998       L1     9  0.90
      P1  H  7997  8009       L1    17  0.91
      P1  H 10752 10764       L1     5  0.35
      P1  H 10752 10765       L1     3  1.00

> <Gold.PLP.Chemscore.Internal.Correction>
0.0059

> <Gold.Rescore>
     Score         DG    S(hbond)    S(metal)    S(lipo)     H(rot)  DE(clash)    DE(int)     intcor
     10.36     -11.44       4.11        0.00      22.33       4.06       0.07       1.02       ----

> <Gold.Chemscore.Fitness>
10.3560

> <Gold.Chemscore.DG>
-11.4371

> <Gold.Chemscore.ZeroCoef>
-5.4800

> <Gold.Chemscore.Hbond>
4.1130

> <Gold.Chemscore.Metal>
0.0000

> <Gold.Chemscore.Lipo>
22.3350

> <Gold.Chemscore.Internal_Hbond>
0.0000

> <Gold.Chemscore.DEClash>
0.0650

> <Gold.Chemscore.DEInternal>
1.0160

> <Gold.Chemscore.Rot>
4.0600

> <Gold.Chemscore.Internal.Correction>
   9.000000E+99

> <Gold.Chemscore.Hbonds>
donor molecule, donor type, donor heavy atom, donor atom, acceptor molecule, acceptor atom, score
      L1  H    12    27       P1  7957  1.00
      P1  H  7989  7998       L1     9  0.41
      P1  H  7997  8009       L1    17  0.48
      P1  H 10752 10764       L1     5  0.36
      P1  H 10752 10765       L1     3  0.97

> <Gold.Chemscore.Hbond.Weighted>
-13.7375

> <Gold.Chemscore.Metal.Weighted>
-0.0000

> <Gold.Chemscore.Lipo.Weighted>
-2.6132

> <Gold.Chemscore.Internal_Hbond.Weighted>
0.0000

> <Gold.Chemscore.DEClash.Weighted>
0.0650

> <Gold.Chemscore.DEInternal.Weighted>
1.0160

> <Gold.Chemscore.Rot.Weighted>
10.3936

> <Gold.Chemscore.Internal.Correction.Weighted>
   9.000000E+99

> <Gold.Protein.RotatedTorsions>
[ 6907 6896 6895 6894 ] final    5.62 input  -60.11 | X-H torsion
[ 7974 7965 7964 7962 ] final  -63.14 input  175.53 | X-H torsion
[ 8008 7997 7996 7995 ] final -173.51 input   59.86 | X-H torsion
[ 10167 10162 10161 10158 ] final   -8.00 input  -65.29 | X-H torsion
[ 10718 10713 10712 10709 ] final   24.88 input   66.30 | X-H torsion
[ 10763 10752 10751 10750 ] final  -62.34 input  -60.55 | X-H torsion
[ 11005 11000 10999 10996 ] final  -59.95 input  -57.11 | X-H torsion

> <Gold.Protein.ActiveResidues>
 VAL166  LYS551  ARG553  GLY616  TRP617  ASP618  TYR619  PRO620  LYS621  CYS622 
 ASP623  PHE694  ASN695  SER759  ASP760  ASP761  ALA762  ILE779  LEU786  VAL792 
 PHE793  MET794  SER795  GLU796  ALA797  LYS798  CYS799  TRP800  GLU811  SER814 

> <Gold.Protein.RotatedAtoms>
  151.6605  135.0990  160.0178 H   0  0  0  0  0  0  0  0  0  0  0  0  # atno 6907 bound_to 6896
  152.3949  133.6728  159.6276 H   0  0  0  0  0  0  0  0  0  0  0  0  # atno 6908 bound_to 6896
  150.7858  133.8807  159.3326 H   0  0  0  0  0  0  0  0  0  0  0  0  # atno 6909 bound_to 6896
  145.7827  140.8753  143.0322 H   0  0  0  0  0  0  0  0  0  0  0  0  # atno 7974 bound_to 7965
  155.9583  140.1139  157.0917 H   0  0  0  0  0  0  0  0  0  0  0  0  # atno 8008 bound_to 7997
  154.4126  140.1187  156.5212 H   0  0  0  0  0  0  0  0  0  0  0  0  # atno 8009 bound_to 7997
  155.6753  140.3473  155.4836 H   0  0  0  0  0  0  0  0  0  0  0  0  # atno 8010 bound_to 7997
  140.7046  143.6018  150.8790 H   0  0  0  0  0  0  0  0  0  0  0  0  # atno 10167 bound_to 10162
  157.1858  130.6823  149.6131 H   0  0  0  0  0  0  0  0  0  0  0  0  # atno 10718 bound_to 10713
  154.2984  135.6239  153.5414 H   0  0  0  0  0  0  0  0  0  0  0  0  # atno 10763 bound_to 10752
  152.9843  135.5672  154.5311 H   0  0  0  0  0  0  0  0  0  0  0  0  # atno 10764 bound_to 10752
  154.4936  135.2868  155.1453 H   0  0  0  0  0  0  0  0  0  0  0  0  # atno 10765 bound_to 10752
  141.1268  133.6619  156.5150 H   0  0  0  0  0  0  0  0  0  0  0  0  # atno 11005 bound_to 11000
  144.6794  140.0011  143.7484 LP  0  0  0  0  0  0  0  0  0  0  0  0  # atno 17320 bound_to 7965
  146.0058  139.3128  143.0900 LP  0  0  0  0  0  0  0  0  0  0  0  0  # atno 17321 bound_to 7965
  139.9742  143.6023  152.2964 LP  0  0  0  0  0  0  0  0  0  0  0  0  # atno 17342 bound_to 10162
  139.6620  144.7662  151.1944 LP  0  0  0  0  0  0  0  0  0  0  0  0  # atno 17343 bound_to 10162
  155.9718  130.4631  150.6170 LP  0  0  0  0  0  0  0  0  0  0  0  0  # atno 17370 bound_to 10713
  157.3908  131.0795  151.1395 LP  0  0  0  0  0  0  0  0  0  0  0  0  # atno 17371 bound_to 10713
  140.4338  134.7077  157.4956 LP  0  0  0  0  0  0  0  0  0  0  0  0  # atno 17394 bound_to 11000
  140.0275  134.6455  155.9152 LP  0  0  0  0  0  0  0  0  0  0  0  0  # atno 17395 bound_to 11000

$$$$
