AV-unprocessed.smi:1791|AV-procd|sdf|7220|dock8
  -GOLD-   22720 8463D 1   1.00000     0.00000
 Structure written by MMmdl.
 38 39  0  0  0  0  0  0  0  0  1 V2000
  150.6114  141.9237  156.3320 C   0  0  0  0  0  0  0  0  0  0  0  0
  150.6481  140.7984  155.4612 O   0  0  0  0  0  0  0  0  0  0  0  0
  149.4686  140.3812  154.8791 C   0  0  0  0  0  0  0  0  0  0  0  0
  148.4670  141.3387  154.6236 C   0  0  0  0  0  0  0  0  0  0  0  0
  147.2625  140.9224  154.0247 C   0  0  0  0  0  0  0  0  0  0  0  0
  147.1008  139.5562  153.6924 C   0  0  0  0  0  0  0  0  0  0  0  0
  145.9320  139.0083  153.0981 N   0  0  0  0  0  0  0  0  0  0  0  0
  145.6377  137.7180  152.8638 C   0  0  0  0  0  0  0  0  0  0  0  0
  146.3665  136.7627  153.1295 O   0  0  0  0  0  0  0  0  0  0  0  0
  144.4203  137.5950  152.3159 N   0  0  0  0  0  0  0  0  0  0  0  0
  143.7624  136.3403  151.9524 C   0  0  2  0  0  0  0  0  0  0  0  0
  143.1305  135.7115  153.2023 C   0  0  0  0  0  0  0  0  0  0  0  0
  144.7537  135.3826  151.2599 C   0  0  1  0  0  0  0  0  0  0  0  0
  145.4171  134.3491  152.1741 C   0  0  0  0  0  0  0  0  0  0  0  0
  145.8178  133.2845  151.1789 C   0  0  0  0  0  0  0  0  0  0  0  0
  144.6293  133.2902  150.2212 C   0  0  0  0  0  0  0  0  0  0  0  0
  144.1139  134.6192  150.2385 O   0  0  0  0  0  0  0  0  0  0  0  0
  148.1565  138.6757  154.0057 C   0  0  0  0  0  0  0  0  0  0  0  0
  149.3138  139.0682  154.5784 N   0  0  0  0  0  0  0  0  0  0  0  0
  151.6136  142.1167  156.7140 H   0  0  0  0  0  0  0  0  0  0  0  0
  149.9601  141.7443  157.1888 H   0  0  0  0  0  0  0  0  0  0  0  0
  150.2777  142.8215  155.8096 H   0  0  0  0  0  0  0  0  0  0  0  0
  148.6190  142.3755  154.8853 H   0  0  0  0  0  0  0  0  0  0  0  0
  146.4900  141.6537  153.8459 H   0  0  0  0  0  0  0  0  0  0  0  0
  145.2009  139.6730  152.8911 H   0  0  0  0  0  0  0  0  0  0  0  0
  143.8937  138.4392  152.1441 H   0  0  0  0  0  0  0  0  0  0  0  0
  142.9520  136.5330  151.2474 H   0  0  0  0  0  0  0  0  0  0  0  0
  142.6053  134.7890  152.9537 H   0  0  0  0  0  0  0  0  0  0  0  0
  142.4074  136.3881  153.6589 H   0  0  0  0  0  0  0  0  0  0  0  0
  143.8841  135.4731  153.9537 H   0  0  0  0  0  0  0  0  0  0  0  0
  145.5421  135.9643  150.7793 H   0  0  0  0  0  0  0  0  0  0  0  0
  146.2626  134.7550  152.7302 H   0  0  0  0  0  0  0  0  0  0  0  0
  144.7081  133.9323  152.8900 H   0  0  0  0  0  0  0  0  0  0  0  0
  146.7255  133.5859  150.6542 H   0  0  0  0  0  0  0  0  0  0  0  0
  145.9928  132.3107  151.6369 H   0  0  0  0  0  0  0  0  0  0  0  0
  144.9082  132.9850  149.2125 H   0  0  0  0  0  0  0  0  0  0  0  0
  143.8507  132.6142  150.5768 H   0  0  0  0  0  0  0  0  0  0  0  0
  148.0751  137.6214  153.7842 H   0  0  0  0  0  0  0  0  0  0  0  0
  1  2  1  0  0  0  0
  1 20  1  0  0  0  0
  1 21  1  0  0  0  0
  1 22  1  0  0  0  0
  2  3  1  0  0  0  0
  3 19  1  0  0  0  0
  3  4  2  0  0  0  0
  4  5  1  0  0  0  0
  4 23  1  0  0  0  0
  5  6  2  0  0  0  0
  5 24  1  0  0  0  0
  6  7  1  0  0  0  0
  6 18  1  0  0  0  0
  7  8  1  0  0  0  0
  7 25  1  0  0  0  0
  8  9  2  0  0  0  0
  8 10  1  0  0  0  0
 10 11  1  0  0  0  0
 10 26  1  0  0  0  0
 11 12  1  0  0  0  0
 11 13  1  0  0  0  0
 11 27  1  0  0  0  0
 12 28  1  0  0  0  0
 12 29  1  0  0  0  0
 12 30  1  0  0  0  0
 13 17  1  0  0  0  0
 13 14  1  0  0  0  0
 13 31  1  0  0  0  0
 14 15  1  0  0  0  0
 14 32  1  0  0  0  0
 14 33  1  0  0  0  0
 15 16  1  0  0  0  0
 15 34  1  0  0  0  0
 15 35  1  0  0  0  0
 16 17  1  0  0  0  0
 16 36  1  0  0  0  0
 16 37  1  0  0  0  0
 18 19  2  0  0  0  0
 18 38  1  0  0  0  0
M  END
> <s_m_source_file>
AV-unprocessed.smi

> <i_m_source_file_index>
1791

> <i_lp_mmshare_version>
43012

> <i_f3d_flags>
0

> <s_epik_input>
W0NIM11PYzFbY0hdW2NIXWMoW2NIXW4xKVtOSF1DKD1PKVtOSF1bQ0BIXShbQ0gzXSlbQ0BASF0yW0NIMl1bQ0gyXVtDSDJdTzI=

> <s_epik_cmdline>
J2VwaWtfcHl0aG9uJywgJy1waCcsICc3LjAnLCAnLXRuJywgJzgnLCAnLW1hJywgJzIwMCcsICctbWV0YWxfYmluZGluZycsICctaW1hZScsICc8aW5maWxlLm1hZT4nLCAnLW9tYWUnLCAnPG91dGZpbGUubWFlPic=

> <r_lp_tautomer_probability>
1

> <r_epik_Ionization_Penalty>
9.18737e-05

> <r_epik_Ionization_Penalty_Charging>
0

> <r_epik_Ionization_Penalty_Neutral>
9.18737e-05

> <r_epik_State_Penalty>
-0

> <r_epik_Charging_Adjusted_Penalty>
0

> <i_epik_Tot_Q>
0

> <i_epik_Tot_abs_Q>
0

> <r_epik_Metal_State_Penalty>
-0

> <b_epik_Metal_Only>
0

> <s_lp_Force_Field>
OPLS_2005

> <r_lp_Energy>
21.9226

> <b_lp_Chiralities_Consistent>
1

> <s_lp_Variant>
AV-unprocessed.smi:1791-3

> <Gold.Version>
5.8.1

> <Gold.Id.Protein>
6NUR|6NUR_protein|mol2

> <Gold.PLP.Fitness>
38.7777

> <Gold.PLP.PLP>
-31.3588

> <Gold.PLP.part.hbond>
-4.0000

> <Gold.PLP.part.metal>
0.0000

> <Gold.PLP.part.buried>
-6.0585

> <Gold.PLP.part.nonpolar>
-23.8593

> <Gold.PLP.part.repulsive>
2.1603

> <Gold.PLP.ligand.clash>
0.0000

> <Gold.PLP.ligand.torsion>
1.5573

> <Gold.PLP.Chemscore.Hbond>
2.5033

> <Gold.PLP.Chemscore.CHOScore>
1.0000

> <Gold.PLP.Chemscore.Metal>
0.0000

> <Gold.Chemscore.Hbonds>
donor molecule, donor type, donor heavy atom, donor atom, acceptor molecule, acceptor atom, score
      L1  H     7    25       P1 10175  1.00
      L1  H    10    26       P1 10175  0.98
      P1  H  7989  7998       L1     2  0.27
      L1  C    18    38       P1  7948  1.00

> <Gold.PLP.Chemscore.Internal.Correction>
0.0235

> <Gold.Rescore>
     Score         DG    S(hbond)    S(metal)    S(lipo)     H(rot)  DE(clash)    DE(int)     intcor
      9.52     -15.62       1.97        0.00      62.57       1.47       0.32       5.78       ----

> <Gold.Chemscore.Fitness>
9.5197

> <Gold.Chemscore.DG>
-15.6201

> <Gold.Chemscore.ZeroCoef>
-5.4800

> <Gold.Chemscore.Hbond>
1.9701

> <Gold.Chemscore.Metal>
0.0000

> <Gold.Chemscore.Lipo>
62.5748

> <Gold.Chemscore.Internal_Hbond>
0.0000

> <Gold.Chemscore.DEClash>
0.3248

> <Gold.Chemscore.DEInternal>
5.7756

> <Gold.Chemscore.Rot>
1.4693

> <Gold.Chemscore.Internal.Correction>
   9.000000E+99

> <Gold.Chemscore.Hbonds>
donor molecule, donor type, donor heavy atom, donor atom, acceptor molecule, acceptor atom, score
      L1  H     7    25       P1 10175  1.00
      L1  H    10    26       P1 10175  0.88
      P1  H  7989  7998       L1     2  0.02

> <Gold.Chemscore.Hbond.Weighted>
-6.5801

> <Gold.Chemscore.Metal.Weighted>
-0.0000

> <Gold.Chemscore.Lipo.Weighted>
-7.3212

> <Gold.Chemscore.Internal_Hbond.Weighted>
0.0000

> <Gold.Chemscore.DEClash.Weighted>
0.3248

> <Gold.Chemscore.DEInternal.Weighted>
5.7756

> <Gold.Chemscore.Rot.Weighted>
3.7613

> <Gold.Chemscore.Internal.Correction.Weighted>
   9.000000E+99

> <Gold.Protein.RotatedTorsions>
[ 6907 6896 6895 6894 ] final -161.48 input  -60.11 | X-H torsion
[ 7974 7965 7964 7962 ] final    2.43 input  175.53 | X-H torsion
[ 8008 7997 7996 7995 ] final   86.05 input   59.86 | X-H torsion
[ 10167 10162 10161 10158 ] final  -26.23 input  -65.29 | X-H torsion
[ 10718 10713 10712 10709 ] final   45.47 input   66.30 | X-H torsion
[ 10763 10752 10751 10750 ] final  114.95 input  -60.55 | X-H torsion
[ 11005 11000 10999 10996 ] final -105.78 input  -57.11 | X-H torsion

> <Gold.Protein.ActiveResidues>
 VAL166  LYS551  ARG553  GLY616  TRP617  ASP618  TYR619  PRO620  LYS621  CYS622 
 ASP623  PHE694  ASN695  SER759  ASP760  ASP761  ALA762  ILE779  LEU786  VAL792 
 PHE793  MET794  SER795  GLU796  ALA797  LYS798  CYS799  TRP800  GLU811  SER814 

> <Gold.Protein.RotatedAtoms>
  151.3652  133.3875  159.2693 H   0  0  0  0  0  0  0  0  0  0  0  0  # atno 6907 bound_to 6896
  150.9694  134.9070  159.7789 H   0  0  0  0  0  0  0  0  0  0  0  0  # atno 6908 bound_to 6896
  152.5179  134.3614  159.9338 H   0  0  0  0  0  0  0  0  0  0  0  0  # atno 6909 bound_to 6896
  146.2444  140.0838  142.8355 H   0  0  0  0  0  0  0  0  0  0  0  0  # atno 7974 bound_to 7965
  155.9579  140.3396  155.6465 H   0  0  0  0  0  0  0  0  0  0  0  0  # atno 8008 bound_to 7997
  155.6836  140.0740  157.2493 H   0  0  0  0  0  0  0  0  0  0  0  0  # atno 8009 bound_to 7997
  154.4136  140.1670  156.1997 H   0  0  0  0  0  0  0  0  0  0  0  0  # atno 8010 bound_to 7997
  140.7283  143.4196  151.0972 H   0  0  0  0  0  0  0  0  0  0  0  0  # atno 10167 bound_to 10162
  157.4379  130.8063  149.7665 H   0  0  0  0  0  0  0  0  0  0  0  0  # atno 10718 bound_to 10713
  153.5149  135.3610  155.2604 H   0  0  0  0  0  0  0  0  0  0  0  0  # atno 10763 bound_to 10752
  154.8739  135.4031  154.3326 H   0  0  0  0  0  0  0  0  0  0  0  0  # atno 10764 bound_to 10752
  153.3986  135.7074  153.6509 H   0  0  0  0  0  0  0  0  0  0  0  0  # atno 10765 bound_to 10752
  141.1037  133.8837  157.1776 H   0  0  0  0  0  0  0  0  0  0  0  0  # atno 11005 bound_to 11000
  145.0710  140.9155  143.4882 LP  0  0  0  0  0  0  0  0  0  0  0  0  # atno 17320 bound_to 7965
  145.0972  139.2848  143.5705 LP  0  0  0  0  0  0  0  0  0  0  0  0  # atno 17321 bound_to 7965
  139.7840  143.8314  152.3142 LP  0  0  0  0  0  0  0  0  0  0  0  0  # atno 17342 bound_to 10162
  139.8275  144.7269  150.9493 LP  0  0  0  0  0  0  0  0  0  0  0  0  # atno 17343 bound_to 10162
  155.9937  130.3922  150.2888 LP  0  0  0  0  0  0  0  0  0  0  0  0  # atno 17370 bound_to 10713
  157.1050  131.0206  151.3070 LP  0  0  0  0  0  0  0  0  0  0  0  0  # atno 17371 bound_to 10713
  139.9898  135.0069  156.9948 LP  0  0  0  0  0  0  0  0  0  0  0  0  # atno 17394 bound_to 11000
  140.4958  134.1147  155.7241 LP  0  0  0  0  0  0  0  0  0  0  0  0  # atno 17395 bound_to 11000

$$$$
