AV-unprocessed.smi:3255|AV-procd|sdf|12457|dock5
  -GOLD-   2272018353D 1   1.00000     0.00000
 Structure written by MMmdl.
 39 40  0  0  0  0  0  0  0  0  2 V2000
  150.3815  145.2191  159.8933 C   0  0  0  0  0  0  0  0  0  0  0  0
  149.4809  144.0096  159.5982 C   0  0  2  0  0  0  0  0  0  0  0  0
  149.6994  143.5972  158.2140 N   0  0  0  0  0  0  0  0  0  0  0  0
  149.8502  142.3327  157.7971 C   0  0  0  0  0  0  0  0  0  0  0  0
  149.8650  141.3541  158.5443 O   0  0  0  0  0  0  0  0  0  0  0  0
  149.9458  142.2572  156.4623 N   0  0  0  0  0  0  0  0  0  0  0  0
  150.0265  141.0167  155.6961 C   0  0  0  0  0  0  0  0  0  0  0  0
  149.4265  141.1673  154.2843 C   0  0  0  0  0  0  0  0  0  0  0  0
  147.9685  141.3262  154.2948 N   0  0  0  0  0  0  0  0  0  0  0  0
  147.2224  142.1158  155.1325 C   0  0  0  0  0  0  0  0  0  0  0  0
  145.9108  141.9277  154.7811 C   0  0  0  0  0  0  0  0  0  0  0  0
  145.9116  141.0358  153.7426 N   0  3  0  0  0  0  0  0  0  0  0  0
  147.1640  140.6743  153.4456 C   0  0  0  0  0  0  0  0  0  0  0  0
  147.9862  144.3252  159.8247 C   0  0  2  0  0  0  0  0  0  0  0  0
  147.7002  145.2422  161.0163 C   0  0  0  0  0  0  0  0  0  0  0  0
  146.2857  144.8709  161.4358 C   0  0  0  0  0  0  0  0  0  0  0  0
  145.9979  143.5749  160.6755 C   0  0  0  0  0  0  0  0  0  0  0  0
  147.2593  143.1566  160.1771 O   0  0  0  0  0  0  0  0  0  0  0  0
  150.3033  145.5291  160.9355 H   0  0  0  0  0  0  0  0  0  0  0  0
  150.1155  146.0742  159.2710 H   0  0  0  0  0  0  0  0  0  0  0  0
  151.4294  144.9830  159.7043 H   0  0  0  0  0  0  0  0  0  0  0  0
  149.7797  143.2023  160.2693 H   0  0  0  0  0  0  0  0  0  0  0  0
  149.6998  144.3296  157.5194 H   0  0  0  0  0  0  0  0  0  0  0  0
  149.9301  143.1183  155.9351 H   0  0  0  0  0  0  0  0  0  0  0  0
  151.0809  140.7536  155.6111 H   0  0  0  0  0  0  0  0  0  0  0  0
  149.5527  140.1929  156.2329 H   0  0  0  0  0  0  0  0  0  0  0  0
  149.8599  142.0263  153.7700 H   0  0  0  0  0  0  0  0  0  0  0  0
  149.6582  140.2883  153.6814 H   0  0  0  0  0  0  0  0  0  0  0  0
  147.6673  142.7281  155.9032 H   0  0  0  0  0  0  0  0  0  0  0  0
  145.0007  142.3476  155.1843 H   0  0  0  0  0  0  0  0  0  0  0  0
  147.4646  139.9824  152.6789 H   0  0  0  0  0  0  0  0  0  0  0  0
  147.5469  144.7489  158.9191 H   0  0  0  0  0  0  0  0  0  0  0  0
  148.3894  145.0268  161.8339 H   0  0  0  0  0  0  0  0  0  0  0  0
  147.8005  146.2984  160.7640 H   0  0  0  0  0  0  0  0  0  0  0  0
  146.2315  144.7221  162.5149 H   0  0  0  0  0  0  0  0  0  0  0  0
  145.5671  145.6457  161.1668 H   0  0  0  0  0  0  0  0  0  0  0  0
  145.5489  142.8085  161.3072 H   0  0  0  0  0  0  0  0  0  0  0  0
  145.3260  143.7618  159.8365 H   0  0  0  0  0  0  0  0  0  0  0  0
  145.0849  140.6934  153.2691 H   0  0  0  0  0  0  0  0  0  0  0  0
  1  2  1  0  0  0  0
  1 19  1  0  0  0  0
  1 20  1  0  0  0  0
  1 21  1  0  0  0  0
  2  3  1  0  0  0  0
  2 14  1  0  0  0  0
  2 22  1  0  0  0  0
  3  4  1  0  0  0  0
  3 23  1  0  0  0  0
  4  5  2  0  0  0  0
  4  6  1  0  0  0  0
  6  7  1  0  0  0  0
  6 24  1  0  0  0  0
  7  8  1  0  0  0  0
  7 25  1  0  0  0  0
  7 26  1  0  0  0  0
  8  9  1  0  0  0  0
  8 27  1  0  0  0  0
  8 28  1  0  0  0  0
  9 13  1  0  0  0  0
  9 10  1  0  0  0  0
 10 11  2  0  0  0  0
 10 29  1  0  0  0  0
 11 12  1  0  0  0  0
 11 30  1  0  0  0  0
 12 13  2  0  0  0  0
 12 39  1  0  0  0  0
 13 31  1  0  0  0  0
 14 18  1  0  0  0  0
 14 15  1  0  0  0  0
 14 32  1  0  0  0  0
 15 16  1  0  0  0  0
 15 33  1  0  0  0  0
 15 34  1  0  0  0  0
 16 17  1  0  0  0  0
 16 35  1  0  0  0  0
 16 36  1  0  0  0  0
 17 18  1  0  0  0  0
 17 37  1  0  0  0  0
 17 38  1  0  0  0  0
M  CHG  1  12   1
M  END
> <s_m_source_file>
AV-unprocessed.smi

> <i_m_source_file_index>
3255

> <i_lp_mmshare_version>
43012

> <i_f3d_flags>
0

> <s_epik_input>
TzFbQ0gyXVtDSDJdW0NIMl1bQ0BIXTFbQ0BIXShbQ0gzXSlbTkhdQyg9TylbTkhdW0NIMl1bQ0gyXW4yW2NIXVtjSF1uW2NIXTI=

> <s_epik_cmdline>
J2VwaWtfcHl0aG9uJywgJy1waCcsICc3LjAnLCAnLXRuJywgJzgnLCAnLW1hJywgJzIwMCcsICctbWV0YWxfYmluZGluZycsICctaW1hZScsICc8aW5maWxlLm1hZT4nLCAnLW9tYWUnLCAnPG91dGZpbGUubWFlPic=

> <r_lp_tautomer_probability>
1

> <r_epik_Ionization_Penalty>
0.256241

> <r_epik_Ionization_Penalty_Charging>
0

> <r_epik_Ionization_Penalty_Neutral>
0.256241

> <r_epik_State_Penalty>
0.247735

> <r_epik_Charging_Adjusted_Penalty>
0.247735

> <i_epik_Tot_Q>
1

> <i_epik_Tot_abs_Q>
1

> <r_epik_Metal_State_Penalty>
0.537184

> <b_epik_Metal_Only>
0

> <s_lp_Force_Field>
OPLS_2005

> <r_lp_Energy>
16.926

> <b_lp_Chiralities_Consistent>
1

> <s_lp_Variant>
AV-unprocessed.smi:3255-1

> <Gold.Version>
5.8.1

> <Gold.Id.Protein>
6NUR|6NUR_protein|mol2

> <Gold.PLP.Fitness>
50.0611

> <Gold.PLP.PLP>
-32.1614

> <Gold.PLP.part.hbond>
-5.7710

> <Gold.PLP.part.metal>
0.0000

> <Gold.PLP.part.buried>
-0.8586

> <Gold.PLP.part.nonpolar>
-27.2146

> <Gold.PLP.part.repulsive>
0.1789

> <Gold.PLP.ligand.clash>
0.0000

> <Gold.PLP.ligand.torsion>
1.2016

> <Gold.PLP.Chemscore.Hbond>
4.8002

> <Gold.PLP.Chemscore.CHOScore>
1.9437

> <Gold.PLP.Chemscore.Metal>
0.0000

> <Gold.Chemscore.Hbonds>
donor molecule, donor type, donor heavy atom, donor atom, acceptor molecule, acceptor atom, score
      L1  H     3    23       P1  8028  0.67
      L1  H     6    24       P1  8028  0.85
      L1  H    12    39       P1 10175  2.00
      P1  H  6933  6944       L1    18  1.00
      P1  H  6934  6946       L1    18  0.08
      L1  C    10    29       P1  8028  0.96
      L1  C    13    31       P1  7957  0.79

> <Gold.PLP.Chemscore.Internal.Correction>
0.0711

> <Gold.Rescore>
     Score         DG    S(hbond)    S(metal)    S(lipo)     H(rot)  DE(clash)    DE(int)     intcor
     13.35     -15.92       2.90        0.00      55.99       2.26       0.24       2.33       ----

> <Gold.Chemscore.Fitness>
13.3528

> <Gold.Chemscore.DG>
-15.9218

> <Gold.Chemscore.ZeroCoef>
-5.4800

> <Gold.Chemscore.Hbond>
2.9002

> <Gold.Chemscore.Metal>
0.0000

> <Gold.Chemscore.Lipo>
55.9911

> <Gold.Chemscore.Internal_Hbond>
0.0000

> <Gold.Chemscore.DEClash>
0.2416

> <Gold.Chemscore.DEInternal>
2.3274

> <Gold.Chemscore.Rot>
2.2640

> <Gold.Chemscore.Internal.Correction>
   9.000000E+99

> <Gold.Chemscore.Hbonds>
donor molecule, donor type, donor heavy atom, donor atom, acceptor molecule, acceptor atom, score
      L1  H     3    23       P1  8028  0.11
      L1  H     6    24       P1  8028  0.84
      L1  H    12    39       P1 10175  0.87
      P1  H  6933  6944       L1    18  0.23
      P1  H  6934  6946       L1    18  0.01

> <Gold.Chemscore.Hbond.Weighted>
-9.6866

> <Gold.Chemscore.Metal.Weighted>
-0.0000

> <Gold.Chemscore.Lipo.Weighted>
-6.5510

> <Gold.Chemscore.Internal_Hbond.Weighted>
0.0000

> <Gold.Chemscore.DEClash.Weighted>
0.2416

> <Gold.Chemscore.DEInternal.Weighted>
2.3274

> <Gold.Chemscore.Rot.Weighted>
5.7958

> <Gold.Chemscore.Internal.Correction.Weighted>
   9.000000E+99

> <Gold.Protein.RotatedTorsions>
[ 6907 6896 6895 6894 ] final  -52.18 input  -60.11 | X-H torsion
[ 7974 7965 7964 7962 ] final   15.00 input  175.53 | X-H torsion
[ 8008 7997 7996 7995 ] final -140.69 input   59.86 | X-H torsion
[ 10167 10162 10161 10158 ] final -143.15 input  -65.29 | X-H torsion
[ 10718 10713 10712 10709 ] final  120.98 input   66.30 | X-H torsion
[ 10763 10752 10751 10750 ] final  -14.53 input  -60.55 | X-H torsion
[ 11005 11000 10999 10996 ] final   88.46 input  -57.11 | X-H torsion

> <Gold.Protein.ActiveResidues>
 VAL166  LYS551  ARG553  GLY616  TRP617  ASP618  TYR619  PRO620  LYS621  CYS622 
 ASP623  PHE694  ASN695  SER759  ASP760  ASP761  ALA762  ILE779  LEU786  VAL792 
 PHE793  MET794  SER795  GLU796  ALA797  LYS798  CYS799  TRP800  GLU811  SER814 

> <Gold.Protein.RotatedAtoms>
  150.8542  134.7875  159.7031 H   0  0  0  0  0  0  0  0  0  0  0  0  # atno 6907 bound_to 6896
  152.4598  134.5207  159.9791 H   0  0  0  0  0  0  0  0  0  0  0  0  # atno 6908 bound_to 6896
  151.5322  133.3409  159.2956 H   0  0  0  0  0  0  0  0  0  0  0  0  # atno 6909 bound_to 6896
  146.2290  139.8958  142.8547 H   0  0  0  0  0  0  0  0  0  0  0  0  # atno 7974 bound_to 7965
  155.4655  140.0549  157.2986 H   0  0  0  0  0  0  0  0  0  0  0  0  # atno 8008 bound_to 7997
  154.4720  140.2044  155.9926 H   0  0  0  0  0  0  0  0  0  0  0  0  # atno 8009 bound_to 7997
  156.1071  140.3210  155.8025 H   0  0  0  0  0  0  0  0  0  0  0  0  # atno 8010 bound_to 7997
  139.8021  143.7819  152.2659 H   0  0  0  0  0  0  0  0  0  0  0  0  # atno 10167 bound_to 10162
  157.5851  131.1071  150.8111 H   0  0  0  0  0  0  0  0  0  0  0  0  # atno 10718 bound_to 10713
  153.5296  135.7015  153.5690 H   0  0  0  0  0  0  0  0  0  0  0  0  # atno 10763 bound_to 10752
  153.3703  135.3946  155.1783 H   0  0  0  0  0  0  0  0  0  0  0  0  # atno 10764 bound_to 10752
  154.8686  135.3810  154.4792 H   0  0  0  0  0  0  0  0  0  0  0  0  # atno 10765 bound_to 10752
  139.8896  134.8489  156.3003 H   0  0  0  0  0  0  0  0  0  0  0  0  # atno 11005 bound_to 11000
  145.2372  140.9995  143.3956 LP  0  0  0  0  0  0  0  0  0  0  0  0  # atno 17320 bound_to 7965
  144.9481  139.4113  143.6416 LP  0  0  0  0  0  0  0  0  0  0  0  0  # atno 17321 bound_to 7965
  139.7942  144.7398  150.9912 LP  0  0  0  0  0  0  0  0  0  0  0  0  # atno 17342 bound_to 10162
  140.7820  143.4410  151.0551 LP  0  0  0  0  0  0  0  0  0  0  0  0  # atno 17343 bound_to 10162
  156.8547  130.5092  149.5309 LP  0  0  0  0  0  0  0  0  0  0  0  0  # atno 17370 bound_to 10713
  156.0899  130.5888  150.9715 LP  0  0  0  0  0  0  0  0  0  0  0  0  # atno 17371 bound_to 10713
  140.9918  133.7204  156.0825 LP  0  0  0  0  0  0  0  0  0  0  0  0  # atno 17394 bound_to 11000
  140.7615  134.3933  157.5524 LP  0  0  0  0  0  0  0  0  0  0  0  0  # atno 17395 bound_to 11000

$$$$
