AV-unprocessed.smi:1434|AV-procd|sdf|5850|dock7
  -GOLD-   22720 5523D 1   1.00000     0.00000
 Structure written by MMmdl.
 44 45  0  0  0  0  0  0  0  0  1 V2000
  155.0443  138.4707  163.5732 C   0  0  0  0  0  0  0  0  0  0  0  0
  156.1931  139.8849  163.3371 S   0  0  0  0  0  0  0  0  0  0  0  0
  155.8250  140.9641  164.2657 O   0  0  0  0  0  0  0  0  0  0  0  0
  157.5717  139.3725  163.3117 O   0  0  0  0  0  0  0  0  0  0  0  0
  155.8077  140.4200  161.7443 N   0  0  0  0  0  0  0  0  0  0  0  0
  154.4321  140.8387  161.4801 C   0  0  1  0  0  0  0  0  0  0  0  0
  154.0061  141.9569  162.4547 C   0  0  0  0  0  0  0  0  0  0  0  0
  152.6180  142.5266  162.0960 C   0  0  0  0  0  0  0  0  0  0  0  0
  152.5246  142.8651  160.5954 C   0  0  0  0  0  0  0  0  0  0  0  0
  152.8747  141.6639  159.8199 N   0  0  0  0  0  0  0  0  0  0  0  0
  152.0077  140.8238  159.2023 C   0  0  0  0  0  0  0  0  0  0  0  0
  150.7918  140.8519  159.3966 O   0  0  0  0  0  0  0  0  0  0  0  0
  152.5690  140.0162  158.2846 N   0  0  0  0  0  0  0  0  0  0  0  0
  151.8388  139.2001  157.3162 C   0  0  0  0  0  0  0  0  0  0  0  0
  151.7925  139.8545  155.9188 C   0  0  0  0  0  0  0  0  0  0  0  0
  150.4745  140.5440  155.6000 C   0  0  0  0  0  0  0  0  0  0  0  0
  149.6984  141.1259  156.6260 C   0  0  0  0  0  0  0  0  0  0  0  0
  148.4643  141.7120  156.2849 C   0  0  0  0  0  0  0  0  0  0  0  0
  148.0547  141.6935  154.9384 C   0  0  0  0  0  0  0  0  0  0  0  0
  148.9059  141.0968  153.9872 C   0  0  0  0  0  0  0  0  0  0  0  0
  150.0941  140.5371  154.3026 N   0  0  0  0  0  0  0  0  0  0  0  0
  154.2810  141.2975  160.0177 C   0  0  0  0  0  0  0  0  0  0  0  0
  155.2018  138.0388  164.5613 H   0  0  0  0  0  0  0  0  0  0  0  0
  155.2355  137.7144  162.8124 H   0  0  0  0  0  0  0  0  0  0  0  0
  154.0150  138.8189  163.4906 H   0  0  0  0  0  0  0  0  0  0  0  0
  156.1300  139.7533  161.0433 H   0  0  0  0  0  0  0  0  0  0  0  0
  153.7780  139.9790  161.6297 H   0  0  0  0  0  0  0  0  0  0  0  0
  154.0045  141.5871  163.4809 H   0  0  0  0  0  0  0  0  0  0  0  0
  154.7379  142.7651  162.4187 H   0  0  0  0  0  0  0  0  0  0  0  0
  151.8494  141.7965  162.3505 H   0  0  0  0  0  0  0  0  0  0  0  0
  152.4115  143.4130  162.6961 H   0  0  0  0  0  0  0  0  0  0  0  0
  151.5393  143.2640  160.3525 H   0  0  0  0  0  0  0  0  0  0  0  0
  153.2255  143.6651  160.3524 H   0  0  0  0  0  0  0  0  0  0  0  0
  153.5727  140.0518  158.1816 H   0  0  0  0  0  0  0  0  0  0  0  0
  152.3237  138.2264  157.2494 H   0  0  0  0  0  0  0  0  0  0  0  0
  150.8234  139.0067  157.6660 H   0  0  0  0  0  0  0  0  0  0  0  0
  152.5983  140.5850  155.8374 H   0  0  0  0  0  0  0  0  0  0  0  0
  151.9916  139.1027  155.1542 H   0  0  0  0  0  0  0  0  0  0  0  0
  150.0326  141.1126  157.6528 H   0  0  0  0  0  0  0  0  0  0  0  0
  147.8381  142.1572  157.0441 H   0  0  0  0  0  0  0  0  0  0  0  0
  147.1099  142.1248  154.6420 H   0  0  0  0  0  0  0  0  0  0  0  0
  148.6247  141.0671  152.9452 H   0  0  0  0  0  0  0  0  0  0  0  0
  154.9212  142.1574  159.8143 H   0  0  0  0  0  0  0  0  0  0  0  0
  154.6121  140.5115  159.3368 H   0  0  0  0  0  0  0  0  0  0  0  0
  1  2  1  0  0  0  0
  1 23  1  0  0  0  0
  1 24  1  0  0  0  0
  1 25  1  0  0  0  0
  2  3  2  0  0  0  0
  2  4  2  0  0  0  0
  2  5  1  0  0  0  0
  5  6  1  0  0  0  0
  5 26  1  0  0  0  0
  6 22  1  0  0  0  0
  6  7  1  0  0  0  0
  6 27  1  0  0  0  0
  7  8  1  0  0  0  0
  7 28  1  0  0  0  0
  7 29  1  0  0  0  0
  8  9  1  0  0  0  0
  8 30  1  0  0  0  0
  8 31  1  0  0  0  0
  9 10  1  0  0  0  0
  9 32  1  0  0  0  0
  9 33  1  0  0  0  0
 10 11  1  0  0  0  0
 10 22  1  0  0  0  0
 11 12  2  0  0  0  0
 11 13  1  0  0  0  0
 13 14  1  0  0  0  0
 13 34  1  0  0  0  0
 14 15  1  0  0  0  0
 14 35  1  0  0  0  0
 14 36  1  0  0  0  0
 15 16  1  0  0  0  0
 15 37  1  0  0  0  0
 15 38  1  0  0  0  0
 16 21  1  0  0  0  0
 16 17  2  0  0  0  0
 17 18  1  0  0  0  0
 17 39  1  0  0  0  0
 18 19  2  0  0  0  0
 18 40  1  0  0  0  0
 19 20  1  0  0  0  0
 19 41  1  0  0  0  0
 20 21  2  0  0  0  0
 20 42  1  0  0  0  0
 22 43  1  0  0  0  0
 22 44  1  0  0  0  0
M  END
> <s_m_source_file>
AV-unprocessed.smi

> <i_m_source_file_index>
1434

> <i_lp_mmshare_version>
43012

> <i_f3d_flags>
0

> <s_epik_input>
W0NIM11TKD1PKSg9TylbTkhdW0NAQEhdMVtDSDJdW0NIMl1bQ0gyXU4oW0NIMl0xKUMoPU8pW05IXVtDSDJdW0NIMl1jMltjSF1bY0hdW2NIXVtjSF1uMg==

> <s_epik_cmdline>
J2VwaWtfcHl0aG9uJywgJy1waCcsICc3LjAnLCAnLXRuJywgJzgnLCAnLW1hJywgJzIwMCcsICctbWV0YWxfYmluZGluZycsICctaW1hZScsICc8aW5maWxlLm1hZT4nLCAnLW9tYWUnLCAnPG91dGZpbGUubWFlPic=

> <r_epik_Ionization_Penalty>
0.0449488

> <r_epik_Ionization_Penalty_Charging>
0

> <r_epik_Ionization_Penalty_Neutral>
0.0449488

> <r_epik_State_Penalty>
0.0380669

> <r_epik_Charging_Adjusted_Penalty>
0.0380669

> <i_epik_Tot_Q>
0

> <i_epik_Tot_abs_Q>
0

> <r_epik_Metal_State_Penalty>
0.0441384

> <b_epik_Metal_Only>
0

> <s_lp_Force_Field>
OPLS_2005

> <r_lp_Energy>
20.2695

> <b_lp_Chiralities_Consistent>
1

> <s_lp_Variant>
AV-unprocessed.smi:1434-2

> <Gold.Version>
5.8.1

> <Gold.Id.Protein>
6NUR|6NUR_protein|mol2

> <Gold.PLP.Fitness>
44.0557

> <Gold.PLP.PLP>
-40.4835

> <Gold.PLP.part.hbond>
-4.2272

> <Gold.PLP.part.metal>
0.0000

> <Gold.PLP.part.buried>
1.2543

> <Gold.PLP.part.nonpolar>
-37.3059

> <Gold.PLP.part.repulsive>
0.2187

> <Gold.PLP.ligand.clash>
0.0000

> <Gold.PLP.ligand.torsion>
1.0466

> <Gold.PLP.Chemscore.Hbond>
0.8320

> <Gold.PLP.Chemscore.CHOScore>
1.0000

> <Gold.PLP.Chemscore.Metal>
0.0000

> <Gold.Chemscore.Hbonds>
donor molecule, donor type, donor heavy atom, donor atom, acceptor molecule, acceptor atom, score
      P1  H  7989  7998       L1    21  0.83
      L1  C    20    42       P1  7957  1.00

> <Gold.PLP.Chemscore.Internal.Correction>
0.1693

> <Gold.Rescore>
     Score         DG    S(hbond)    S(metal)    S(lipo)     H(rot)  DE(clash)    DE(int)     intcor
      9.00     -12.33       0.17        0.00      98.05       2.03       0.84       2.49       ----

> <Gold.Chemscore.Fitness>
8.9995

> <Gold.Chemscore.DG>
-12.3275

> <Gold.Chemscore.ZeroCoef>
-5.4800

> <Gold.Chemscore.Hbond>
0.1745

> <Gold.Chemscore.Metal>
0.0000

> <Gold.Chemscore.Lipo>
98.0486

> <Gold.Chemscore.Internal_Hbond>
0.0000

> <Gold.Chemscore.DEClash>
0.8417

> <Gold.Chemscore.DEInternal>
2.4863

> <Gold.Chemscore.Rot>
2.0340

> <Gold.Chemscore.Internal.Correction>
   9.000000E+99

> <Gold.Chemscore.Hbonds>
donor molecule, donor type, donor heavy atom, donor atom, acceptor molecule, acceptor atom, score
      P1  H  7989  7998       L1    21  0.28

> <Gold.Chemscore.Hbond.Weighted>
-0.5829

> <Gold.Chemscore.Metal.Weighted>
-0.0000

> <Gold.Chemscore.Lipo.Weighted>
-11.4717

> <Gold.Chemscore.Internal_Hbond.Weighted>
0.0000

> <Gold.Chemscore.DEClash.Weighted>
0.8417

> <Gold.Chemscore.DEInternal.Weighted>
2.4863

> <Gold.Chemscore.Rot.Weighted>
5.2071

> <Gold.Chemscore.Internal.Correction.Weighted>
   9.000000E+99

> <Gold.Protein.RotatedTorsions>
[ 6907 6896 6895 6894 ] final   50.82 input  -60.11 | X-H torsion
[ 7974 7965 7964 7962 ] final  159.08 input  175.53 | X-H torsion
[ 8008 7997 7996 7995 ] final  170.64 input   59.86 | X-H torsion
[ 10167 10162 10161 10158 ] final   -4.27 input  -65.29 | X-H torsion
[ 10718 10713 10712 10709 ] final   98.06 input   66.30 | X-H torsion
[ 10763 10752 10751 10750 ] final   30.66 input  -60.55 | X-H torsion
[ 11005 11000 10999 10996 ] final  -32.51 input  -57.11 | X-H torsion

> <Gold.Protein.ActiveResidues>
 VAL166  LYS551  ARG553  GLY616  TRP617  ASP618  TYR619  PRO620  LYS621  CYS622 
 ASP623  PHE694  ASN695  SER759  ASP760  ASP761  ALA762  ILE779  LEU786  VAL792 
 PHE793  MET794  SER795  GLU796  ALA797  LYS798  CYS799  TRP800  GLU811  SER814 

> <Gold.Protein.RotatedAtoms>
  152.3060  134.7554  160.0346 H   0  0  0  0  0  0  0  0  0  0  0  0  # atno 6907 bound_to 6896
  151.8051  133.3369  159.3547 H   0  0  0  0  0  0  0  0  0  0  0  0  # atno 6908 bound_to 6896
  150.7297  134.5647  159.5904 H   0  0  0  0  0  0  0  0  0  0  0  0  # atno 6909 bound_to 6896
  144.7810  139.7567  143.6260 H   0  0  0  0  0  0  0  0  0  0  0  0  # atno 7974 bound_to 7965
  156.1347  140.1533  156.9013 H   0  0  0  0  0  0  0  0  0  0  0  0  # atno 8008 bound_to 7997
  154.4937  140.0844  156.7690 H   0  0  0  0  0  0  0  0  0  0  0  0  # atno 8009 bound_to 7997
  155.4191  140.3422  155.4272 H   0  0  0  0  0  0  0  0  0  0  0  0  # atno 8010 bound_to 7997
  140.6921  143.6443  150.8407 H   0  0  0  0  0  0  0  0  0  0  0  0  # atno 10167 bound_to 10162
  157.6902  131.0628  150.4738 H   0  0  0  0  0  0  0  0  0  0  0  0  # atno 10718 bound_to 10713
  153.0359  135.6458  154.1079 H   0  0  0  0  0  0  0  0  0  0  0  0  # atno 10763 bound_to 10752
  154.0794  135.2874  155.3295 H   0  0  0  0  0  0  0  0  0  0  0  0  # atno 10764 bound_to 10752
  154.6540  135.5415  153.8001 H   0  0  0  0  0  0  0  0  0  0  0  0  # atno 10765 bound_to 10752
  140.9558  133.7194  156.1291 H   0  0  0  0  0  0  0  0  0  0  0  0  # atno 11005 bound_to 11000
  146.2018  139.5317  142.9738 LP  0  0  0  0  0  0  0  0  0  0  0  0  # atno 17320 bound_to 7965
  145.6051  141.0349  143.1997 LP  0  0  0  0  0  0  0  0  0  0  0  0  # atno 17321 bound_to 7965
  140.0157  143.5596  152.2821 LP  0  0  0  0  0  0  0  0  0  0  0  0  # atno 17342 bound_to 10162
  139.6335  144.7647  151.2485 LP  0  0  0  0  0  0  0  0  0  0  0  0  # atno 17343 bound_to 10162
  156.5074  130.4131  149.6319 LP  0  0  0  0  0  0  0  0  0  0  0  0  # atno 17370 bound_to 10713
  156.3272  130.7312  151.2235 LP  0  0  0  0  0  0  0  0  0  0  0  0  # atno 17371 bound_to 10713
  140.7538  134.4015  157.5537 LP  0  0  0  0  0  0  0  0  0  0  0  0  # atno 17394 bound_to 11000
  139.8862  134.8917  156.2600 LP  0  0  0  0  0  0  0  0  0  0  0  0  # atno 17395 bound_to 11000

$$$$
