AV-unprocessed.smi:12|AV-procd|sdf|66|dock5
  -GOLD-   2262015183D 1   1.00000     0.00000
 Structure written by MMmdl.
 41 44  0  0  0  0  0  0  0  0  1 V2000
  151.9213  143.1617  159.1448 C   0  0  0  0  0  0  0  0  0  0  0  0
  151.5961  142.0997  158.1098 C   0  0  0  0  0  0  0  0  0  0  0  0
  150.7923  142.3598  157.0517 C   0  0  0  0  0  0  0  0  0  0  0  0
  150.5282  141.3668  156.1502 N   0  0  0  0  0  0  0  0  0  0  0  0
  151.1075  140.0912  156.3230 C   0  0  0  0  0  0  0  0  0  0  0  0
  151.8853  139.7642  157.3078 N   0  0  0  0  0  0  0  0  0  0  0  0
  152.1796  140.7445  158.2750 C   0  0  0  0  0  0  0  0  0  0  0  0
  152.9064  140.4789  159.2314 O   0  0  0  0  0  0  0  0  0  0  0  0
  150.7281  139.2894  155.2899 O   0  0  0  0  0  0  0  0  0  0  0  0
  149.8901  140.0238  154.3871 C   0  0  1  0  0  0  0  0  0  0  0  0
  148.4736  139.4565  154.3638 C   0  0  2  0  0  0  0  0  0  0  0  0
  148.2158  138.8027  153.1375 O   0  0  0  0  0  0  0  0  0  0  0  0
  147.5881  140.6951  154.5317 C   0  0  1  0  0  0  0  0  0  0  0  0
  146.2353  140.4226  155.2012 C   0  0  0  0  0  0  0  0  0  0  0  0
  145.4412  141.5966  155.1488 O   0  0  0  0  0  0  0  0  0  0  0  0
  145.5234  142.5138  156.1317 C   0  0  0  0  0  0  0  0  0  0  0  0
  146.0996  142.3158  157.2032 O   0  0  0  0  0  0  0  0  0  0  0  0
  144.8460  143.7966  155.7849 C   0  0  0  0  0  0  0  0  0  0  0  0
  144.5886  144.1001  154.4273 C   0  0  0  0  0  0  0  0  0  0  0  0
  143.9466  145.3017  154.0700 C   0  0  0  0  0  0  0  0  0  0  0  0
  143.5548  146.2154  155.0658 C   0  0  0  0  0  0  0  0  0  0  0  0
  143.8076  145.9268  156.4196 C   0  0  0  0  0  0  0  0  0  0  0  0
  144.4490  144.7252  156.7789 C   0  0  0  0  0  0  0  0  0  0  0  0
  148.3662  141.5528  155.3506 O   0  0  0  0  0  0  0  0  0  0  0  0
  149.6942  141.4437  154.9520 C   0  0  1  0  0  0  0  0  0  0  0  0
  151.4290  144.1064  158.9112 H   0  0  0  0  0  0  0  0  0  0  0  0
  152.9961  143.3418  159.1821 H   0  0  0  0  0  0  0  0  0  0  0  0
  151.5903  142.8449  160.1341 H   0  0  0  0  0  0  0  0  0  0  0  0
  150.3537  143.3371  156.9121 H   0  0  0  0  0  0  0  0  0  0  0  0
  150.3419  140.0954  153.3965 H   0  0  0  0  0  0  0  0  0  0  0  0
  148.3275  138.7670  155.1968 H   0  0  0  0  0  0  0  0  0  0  0  0
  148.3863  139.4093  152.4330 H   0  0  0  0  0  0  0  0  0  0  0  0
  147.4443  141.1982  153.5732 H   0  0  0  0  0  0  0  0  0  0  0  0
  145.7235  139.5945  154.7090 H   0  0  0  0  0  0  0  0  0  0  0  0
  146.3906  140.1398  156.2433 H   0  0  0  0  0  0  0  0  0  0  0  0
  144.8792  143.4137  153.6450 H   0  0  0  0  0  0  0  0  0  0  0  0
  143.7541  145.5217  153.0301 H   0  0  0  0  0  0  0  0  0  0  0  0
  143.0614  147.1363  154.7916 H   0  0  0  0  0  0  0  0  0  0  0  0
  143.5087  146.6278  157.1850 H   0  0  0  0  0  0  0  0  0  0  0  0
  144.6272  144.5354  157.8274 H   0  0  0  0  0  0  0  0  0  0  0  0
  150.0791  142.2622  154.3427 H   0  0  0  0  0  0  0  0  0  0  0  0
  1  2  1  0  0  0  0
  1 26  1  0  0  0  0
  1 27  1  0  0  0  0
  1 28  1  0  0  0  0
  2  7  1  0  0  0  0
  2  3  2  0  0  0  0
  3  4  1  0  0  0  0
  3 29  1  0  0  0  0
  4 25  1  0  0  0  0
  4  5  1  0  0  0  0
  5  6  2  0  0  0  0
  5  9  1  0  0  0  0
  6  7  1  0  0  0  0
  7  8  2  0  0  0  0
  9 10  1  0  0  0  0
 10 25  1  0  0  0  0
 10 11  1  0  0  0  0
 10 30  1  0  0  0  0
 11 12  1  0  0  0  0
 11 13  1  0  0  0  0
 11 31  1  0  0  0  0
 12 32  1  0  0  0  0
 13 14  1  0  0  0  0
 13 24  1  0  0  0  0
 13 33  1  0  0  0  0
 14 15  1  0  0  0  0
 14 34  1  0  0  0  0
 14 35  1  0  0  0  0
 15 16  1  0  0  0  0
 16 17  2  0  0  0  0
 16 18  1  0  0  0  0
 18 23  1  0  0  0  0
 18 19  2  0  0  0  0
 19 20  1  0  0  0  0
 19 36  1  0  0  0  0
 20 21  2  0  0  0  0
 20 37  1  0  0  0  0
 21 22  1  0  0  0  0
 21 38  1  0  0  0  0
 22 23  2  0  0  0  0
 22 39  1  0  0  0  0
 23 40  1  0  0  0  0
 24 25  1  0  0  0  0
 25 41  1  0  0  0  0
M  END
> <s_m_source_file>
AV-unprocessed.smi

> <i_m_source_file_index>
12

> <i_lp_mmshare_version>
43012

> <i_f3d_flags>
0

> <s_epik_input>
W0NIM11jKFtjSF0xKWMoPU8pbmMobjEyKU9bQ0BIXTNbQ0BASF0yT1tDQEBIXShbQ0BASF0zW09IXSlbQ0gyXU9DKD1PKWM0W2NIXVtjSF1bY0hdW2NIXVtjSF00

> <s_epik_cmdline>
J2VwaWtfcHl0aG9uJywgJy1waCcsICc3LjAnLCAnLXRuJywgJzgnLCAnLW1hJywgJzIwMCcsICctbWV0YWxfYmluZGluZycsICctaW1hZScsICc8aW5maWxlLm1hZT4nLCAnLW9tYWUnLCAnPG91dGZpbGUubWFlPic=

> <r_lp_tautomer_probability>
0.933681

> <r_epik_Ionization_Penalty>
0.00399549

> <r_epik_Ionization_Penalty_Charging>
3.09373e-09

> <r_epik_Ionization_Penalty_Neutral>
0.00399549

> <r_epik_State_Penalty>
0.00284953

> <r_epik_Charging_Adjusted_Penalty>
0.00284953

> <i_epik_Tot_Q>
0

> <i_epik_Tot_abs_Q>
0

> <r_epik_Metal_State_Penalty>
-0

> <b_epik_Metal_Only>
0

> <s_epik_Chemistry_Notes>
This compound has an ester and may undergo hydrolysis at high or low pH. This compound contains an acetal/aminal-like group ( X-CH(R)-Y where X, Y are N, S, or O) that may be acid/base labile, releasing an aldehyde.

> <s_lp_Force_Field>
OPLS_2005

> <r_lp_Energy>
41.0284

> <b_lp_Chiralities_Consistent>
1

> <s_lp_Variant>
AV-unprocessed.smi:12-6

> <Gold.Version>
5.8.1

> <Gold.Id.Protein>
6NUR|6NUR_protein|mol2

> <Gold.PLP.Fitness>
45.6953

> <Gold.PLP.PLP>
-40.7234

> <Gold.PLP.part.hbond>
-2.0000

> <Gold.PLP.part.metal>
0.0000

> <Gold.PLP.part.buried>
-4.3738

> <Gold.PLP.part.nonpolar>
-34.8247

> <Gold.PLP.part.repulsive>
0.4196

> <Gold.PLP.ligand.clash>
0.0000

> <Gold.PLP.ligand.torsion>
0.5181

> <Gold.PLP.Chemscore.Hbond>
1.0000

> <Gold.PLP.Chemscore.CHOScore>
1.0000

> <Gold.PLP.Chemscore.Metal>
0.0000

> <Gold.Chemscore.Hbonds>
donor molecule, donor type, donor heavy atom, donor atom, acceptor molecule, acceptor atom, score
      L1  H    12    32       P1  7957  0.94
      L1  C     3    29       P1  8028  1.00

> <Gold.PLP.Chemscore.Internal.Correction>
0.0080

> <Gold.Rescore>
     Score         DG    S(hbond)    S(metal)    S(lipo)     H(rot)  DE(clash)    DE(int)     intcor
     12.56     -13.30       1.00        0.00      86.02       2.18       0.23       0.51       ----

> <Gold.Chemscore.Fitness>
12.5622

> <Gold.Chemscore.DG>
-13.3018

> <Gold.Chemscore.ZeroCoef>
-5.4800

> <Gold.Chemscore.Hbond>
0.9994

> <Gold.Chemscore.Metal>
0.0000

> <Gold.Chemscore.Lipo>
86.0201

> <Gold.Chemscore.Internal_Hbond>
0.0000

> <Gold.Chemscore.DEClash>
0.2328

> <Gold.Chemscore.DEInternal>
0.5068

> <Gold.Chemscore.Rot>
2.1800

> <Gold.Chemscore.Internal.Correction>
   9.000000E+99

> <Gold.Chemscore.Hbonds>
donor molecule, donor type, donor heavy atom, donor atom, acceptor molecule, acceptor atom, score
      L1  H    12    32       P1  7957  0.91

> <Gold.Chemscore.Hbond.Weighted>
-3.3381

> <Gold.Chemscore.Metal.Weighted>
-0.0000

> <Gold.Chemscore.Lipo.Weighted>
-10.0644

> <Gold.Chemscore.Internal_Hbond.Weighted>
0.0000

> <Gold.Chemscore.DEClash.Weighted>
0.2328

> <Gold.Chemscore.DEInternal.Weighted>
0.5068

> <Gold.Chemscore.Rot.Weighted>
5.5807

> <Gold.Chemscore.Internal.Correction.Weighted>
   9.000000E+99

> <Gold.Protein.RotatedTorsions>
[ 6907 6896 6895 6894 ] final -137.74 input  -60.11 | X-H torsion
[ 7974 7965 7964 7962 ] final   34.07 input  175.53 | X-H torsion
[ 8008 7997 7996 7995 ] final  -84.28 input   59.86 | X-H torsion
[ 10167 10162 10161 10158 ] final -173.61 input  -65.29 | X-H torsion
[ 10718 10713 10712 10709 ] final   85.59 input   66.30 | X-H torsion
[ 10763 10752 10751 10750 ] final  -54.42 input  -60.55 | X-H torsion
[ 11005 11000 10999 10996 ] final    7.92 input  -57.11 | X-H torsion

> <Gold.Protein.ActiveResidues>
 VAL166  LYS551  ARG553  GLY616  TRP617  ASP618  TYR619  PRO620  LYS621  CYS622 
 ASP623  PHE694  ASN695  SER759  ASP760  ASP761  ALA762  ILE779  LEU786  VAL792 
 PHE793  MET794  SER795  GLU796  ALA797  LYS798  CYS799  TRP800  GLU811  SER814 

> <Gold.Protein.RotatedAtoms>
  151.0262  133.5831  159.2665 H   0  0  0  0  0  0  0  0  0  0  0  0  # atno 6907 bound_to 6896
  151.2930  135.0746  159.9221 H   0  0  0  0  0  0  0  0  0  0  0  0  # atno 6908 bound_to 6896
  152.5334  133.9957  159.7925 H   0  0  0  0  0  0  0  0  0  0  0  0  # atno 6909 bound_to 6896
  146.1378  139.6315  142.9184 H   0  0  0  0  0  0  0  0  0  0  0  0  # atno 7974 bound_to 7965
  154.6281  140.0607  156.9698 H   0  0  0  0  0  0  0  0  0  0  0  0  # atno 8008 bound_to 7997
  155.1709  140.3291  155.4374 H   0  0  0  0  0  0  0  0  0  0  0  0  # atno 8009 bound_to 7997
  156.2468  140.1914  156.6811 H   0  0  0  0  0  0  0  0  0  0  0  0  # atno 8010 bound_to 7997
  139.5679  144.1711  152.1340 H   0  0  0  0  0  0  0  0  0  0  0  0  # atno 10167 bound_to 10162
  157.6917  131.0181  150.2845 H   0  0  0  0  0  0  0  0  0  0  0  0  # atno 10718 bound_to 10713
  154.1745  135.6453  153.5018 H   0  0  0  0  0  0  0  0  0  0  0  0  # atno 10763 bound_to 10752
  153.0075  135.5391  154.6578 H   0  0  0  0  0  0  0  0  0  0  0  0  # atno 10764 bound_to 10752
  154.5926  135.2935  155.0592 H   0  0  0  0  0  0  0  0  0  0  0  0  # atno 10765 bound_to 10752
  140.5429  134.0357  155.7910 H   0  0  0  0  0  0  0  0  0  0  0  0  # atno 11005 bound_to 11000
  145.5117  141.0435  143.2484 LP  0  0  0  0  0  0  0  0  0  0  0  0  # atno 17320 bound_to 7965
  144.7758  139.6633  143.7175 LP  0  0  0  0  0  0  0  0  0  0  0  0  # atno 17321 bound_to 7965
  140.1238  144.5349  150.6846 LP  0  0  0  0  0  0  0  0  0  0  0  0  # atno 17342 bound_to 10162
  140.6963  143.2406  151.4991 LP  0  0  0  0  0  0  0  0  0  0  0  0  # atno 17343 bound_to 10162
  156.3386  130.3812  149.7428 LP  0  0  0  0  0  0  0  0  0  0  0  0  # atno 17370 bound_to 10713
  156.4944  130.8100  151.3108 LP  0  0  0  0  0  0  0  0  0  0  0  0  # atno 17371 bound_to 10713
  141.1217  133.9450  157.2717 LP  0  0  0  0  0  0  0  0  0  0  0  0  # atno 17394 bound_to 11000
  139.9495  135.0178  156.8951 LP  0  0  0  0  0  0  0  0  0  0  0  0  # atno 17395 bound_to 11000

$$$$
