AV-unprocessed.smi:454|AV-procd|sdf|2613|dock9
  -GOLD-   2262023 13D 1   1.00000     0.00000
 Structure written by MMmdl.
 44 45  0  0  0  0  0  0  0  0  2 V2000
  151.8062  145.3678  159.4724 C   0  0  0  0  0  0  0  0  0  0  0  0
  152.2821  144.0864  159.1019 O   0  0  0  0  0  0  0  0  0  0  0  0
  152.7553  143.3368  160.2090 C   0  0  0  0  0  0  0  0  0  0  0  0
  153.1013  141.9064  159.7670 C   0  0  0  0  0  0  0  0  0  0  0  0
  152.4493  141.5355  158.5158 N   0  0  0  0  0  0  0  0  0  0  0  0
  152.2106  140.1904  158.1984 C   0  0  0  0  0  0  0  0  0  0  0  0
  150.8870  139.7043  158.2770 C   0  0  0  0  0  0  0  0  0  0  0  0
  150.6333  138.3599  157.9414 C   0  0  0  0  0  0  0  0  0  0  0  0
  151.7187  137.5566  157.5438 C   0  0  0  0  0  0  0  0  0  0  0  0
  151.4718  135.8597  157.0472 S   0  0  0  0  0  0  0  0  0  0  0  0
  152.7812  135.1913  157.0933 O   0  0  0  0  0  0  0  0  0  0  0  0
  150.3266  135.2958  157.7784 O   0  0  0  0  0  0  0  0  0  0  0  0
  151.0176  136.0264  155.3786 N   0  0  0  0  0  0  0  0  0  0  0  0
  149.7848  135.3611  154.9234 C   0  0  0  0  0  0  0  0  0  0  0  0
  148.5674  136.2665  155.1792 C   0  0  0  0  0  0  0  0  0  0  0  0
  148.7380  137.5684  154.4909 N   0  3  0  0  0  0  0  0  0  0  0  0
  147.5446  138.4335  154.6063 C   0  0  0  0  0  0  0  0  0  0  0  0
  149.9765  138.2432  154.9472 C   0  0  0  0  0  0  0  0  0  0  0  0
  151.2071  137.3389  154.7328 C   0  0  0  0  0  0  0  0  0  0  0  0
  153.0087  138.1193  157.5067 C   0  0  0  0  0  0  0  0  0  0  0  0
  153.2530  139.4067  157.8292 N   0  0  0  0  0  0  0  0  0  0  0  0
  151.4576  145.8983  158.5865 H   0  0  0  0  0  0  0  0  0  0  0  0
  152.5951  145.9637  159.9332 H   0  0  0  0  0  0  0  0  0  0  0  0
  150.9707  145.2915  160.1697 H   0  0  0  0  0  0  0  0  0  0  0  0
  153.6533  143.8166  160.6008 H   0  0  0  0  0  0  0  0  0  0  0  0
  152.0187  143.3227  161.0143 H   0  0  0  0  0  0  0  0  0  0  0  0
  154.1810  141.7631  159.7147 H   0  0  0  0  0  0  0  0  0  0  0  0
  152.7433  141.2098  160.5251 H   0  0  0  0  0  0  0  0  0  0  0  0
  152.4712  142.2063  157.7617 H   0  0  0  0  0  0  0  0  0  0  0  0
  150.0760  140.3508  158.5795 H   0  0  0  0  0  0  0  0  0  0  0  0
  149.6288  137.9661  157.9810 H   0  0  0  0  0  0  0  0  0  0  0  0
  149.8722  135.1449  153.8576 H   0  0  0  0  0  0  0  0  0  0  0  0
  149.6648  134.4001  155.4230 H   0  0  0  0  0  0  0  0  0  0  0  0
  147.6660  135.7756  154.8108 H   0  0  0  0  0  0  0  0  0  0  0  0
  148.4282  136.4255  156.2499 H   0  0  0  0  0  0  0  0  0  0  0  0
  147.3438  138.6871  155.6482 H   0  0  0  0  0  0  0  0  0  0  0  0
  146.6656  137.9318  154.2004 H   0  0  0  0  0  0  0  0  0  0  0  0
  147.6859  139.3604  154.0493 H   0  0  0  0  0  0  0  0  0  0  0  0
  150.1092  139.1714  154.3901 H   0  0  0  0  0  0  0  0  0  0  0  0
  149.8778  138.5225  155.9965 H   0  0  0  0  0  0  0  0  0  0  0  0
  152.1065  137.8187  155.1194 H   0  0  0  0  0  0  0  0  0  0  0  0
  151.3730  137.1839  153.6659 H   0  0  0  0  0  0  0  0  0  0  0  0
  153.8608  137.5299  157.2017 H   0  0  0  0  0  0  0  0  0  0  0  0
  148.8591  137.3670  153.5085 H   0  0  0  0  0  0  0  0  0  0  0  0
  1  2  1  0  0  0  0
  1 22  1  0  0  0  0
  1 23  1  0  0  0  0
  1 24  1  0  0  0  0
  2  3  1  0  0  0  0
  3  4  1  0  0  0  0
  3 25  1  0  0  0  0
  3 26  1  0  0  0  0
  4  5  1  0  0  0  0
  4 27  1  0  0  0  0
  4 28  1  0  0  0  0
  5  6  1  0  0  0  0
  5 29  1  0  0  0  0
  6 21  1  0  0  0  0
  6  7  2  0  0  0  0
  7  8  1  0  0  0  0
  7 30  1  0  0  0  0
  8  9  2  0  0  0  0
  8 31  1  0  0  0  0
  9 10  1  0  0  0  0
  9 20  1  0  0  0  0
 10 11  2  0  0  0  0
 10 12  2  0  0  0  0
 10 13  1  0  0  0  0
 13 19  1  0  0  0  0
 13 14  1  0  0  0  0
 14 15  1  0  0  0  0
 14 32  1  0  0  0  0
 14 33  1  0  0  0  0
 15 16  1  0  0  0  0
 15 34  1  0  0  0  0
 15 35  1  0  0  0  0
 16 17  1  0  0  0  0
 16 18  1  0  0  0  0
 16 44  1  0  0  0  0
 17 36  1  0  0  0  0
 17 37  1  0  0  0  0
 17 38  1  0  0  0  0
 18 19  1  0  0  0  0
 18 39  1  0  0  0  0
 18 40  1  0  0  0  0
 19 41  1  0  0  0  0
 19 42  1  0  0  0  0
 20 21  2  0  0  0  0
 20 43  1  0  0  0  0
M  CHG  1  16   1
M  END
> <s_m_source_file>
AV-unprocessed.smi

> <i_m_source_file_index>
454

> <i_lp_mmshare_version>
43012

> <i_f3d_flags>
0

> <s_epik_input>
W0NIM11PW0NIMl1bQ0gyXVtOSF1jMVtjSF1bY0hdYyhbY0hdbjEpUyg9TykoPU8pTjJbQ0gyXVtDSDJdTihbQ0gzXSlbQ0gyXVtDSDJdMg==

> <s_epik_cmdline>
J2VwaWtfcHl0aG9uJywgJy1waCcsICc3LjAnLCAnLXRuJywgJzgnLCAnLW1hJywgJzIwMCcsICctbWV0YWxfYmluZGluZycsICctaW1hZScsICc8aW5maWxlLm1hZT4nLCAnLW9tYWUnLCAnPG91dGZpbGUubWFlPic=

> <r_lp_tautomer_probability>
1

> <r_epik_Ionization_Penalty>
1.23801

> <r_epik_Ionization_Penalty_Charging>
1.23786

> <r_epik_Ionization_Penalty_Neutral>
0.00015121

> <r_epik_State_Penalty>
1.30655

> <r_epik_Charging_Adjusted_Penalty>
2.54442

> <i_epik_Tot_Q>
1

> <i_epik_Tot_abs_Q>
1

> <r_epik_Metal_State_Penalty>
1.30672

> <b_epik_Metal_Only>
0

> <s_lp_Force_Field>
OPLS_2005

> <r_lp_Energy>
1.84277

> <b_lp_Chiralities_Consistent>
1

> <s_lp_Variant>
AV-unprocessed.smi:454-2

> <Gold.Version>
5.8.1

> <Gold.Id.Protein>
6NUR|6NUR_protein|mol2

> <Gold.PLP.Fitness>
43.8597

> <Gold.PLP.PLP>
-32.3735

> <Gold.PLP.part.hbond>
-5.1753

> <Gold.PLP.part.metal>
0.0000

> <Gold.PLP.part.buried>
-5.0170

> <Gold.PLP.part.nonpolar>
-23.0326

> <Gold.PLP.part.repulsive>
0.1997

> <Gold.PLP.ligand.clash>
0.0000

> <Gold.PLP.ligand.torsion>
2.4833

> <Gold.PLP.Chemscore.Hbond>
4.5900

> <Gold.PLP.Chemscore.CHOScore>
0.0000

> <Gold.PLP.Chemscore.Metal>
0.0000

> <Gold.Chemscore.Hbonds>
donor molecule, donor type, donor heavy atom, donor atom, acceptor molecule, acceptor atom, score
      L1  H    16    44       P1  7948  2.00
      P1  H  6896  6908       L1    12  0.62
      P1  H  7997  8009       L1    21  1.00
      P1  H 10752 10764       L1    11  0.95

> <Gold.PLP.Chemscore.Internal.Correction>
2.6827

> <Gold.Rescore>
     Score         DG    S(hbond)    S(metal)    S(lipo)     H(rot)  DE(clash)    DE(int)     intcor
     17.72     -20.41       3.27        0.00      70.19       1.65       0.10       2.59       ----

> <Gold.Chemscore.Fitness>
17.7164

> <Gold.Chemscore.DG>
-20.4051

> <Gold.Chemscore.ZeroCoef>
-5.4800

> <Gold.Chemscore.Hbond>
3.2738

> <Gold.Chemscore.Metal>
0.0000

> <Gold.Chemscore.Lipo>
70.1901

> <Gold.Chemscore.Internal_Hbond>
0.0000

> <Gold.Chemscore.DEClash>
0.1019

> <Gold.Chemscore.DEInternal>
2.5868

> <Gold.Chemscore.Rot>
1.6491

> <Gold.Chemscore.Internal.Correction>
   9.000000E+99

> <Gold.Chemscore.Hbonds>
donor molecule, donor type, donor heavy atom, donor atom, acceptor molecule, acceptor atom, score
      L1  H    16    44       P1  7948  0.96
      P1  H  6896  6908       L1    12  0.56
      P1  H  7997  8009       L1    21  0.71
      P1  H 10752 10764       L1    11  0.21

> <Gold.Chemscore.Hbond.Weighted>
-10.9346

> <Gold.Chemscore.Metal.Weighted>
-0.0000

> <Gold.Chemscore.Lipo.Weighted>
-8.2122

> <Gold.Chemscore.Internal_Hbond.Weighted>
0.0000

> <Gold.Chemscore.DEClash.Weighted>
0.1019

> <Gold.Chemscore.DEInternal.Weighted>
2.5868

> <Gold.Chemscore.Rot.Weighted>
4.2218

> <Gold.Chemscore.Internal.Correction.Weighted>
   9.000000E+99

> <Gold.Protein.RotatedTorsions>
[ 6907 6896 6895 6894 ] final  175.65 input  -60.11 | X-H torsion
[ 7974 7965 7964 7962 ] final  162.45 input  175.53 | X-H torsion
[ 8008 7997 7996 7995 ] final  173.85 input   59.86 | X-H torsion
[ 10167 10162 10161 10158 ] final  115.99 input  -65.29 | X-H torsion
[ 10718 10713 10712 10709 ] final  121.15 input   66.30 | X-H torsion
[ 10763 10752 10751 10750 ] final  -17.40 input  -60.55 | X-H torsion
[ 11005 11000 10999 10996 ] final   -3.93 input  -57.11 | X-H torsion

> <Gold.Protein.ActiveResidues>
 VAL166  LYS551  ARG553  GLY616  TRP617  ASP618  TYR619  PRO620  LYS621  CYS622 
 ASP623  PHE694  ASN695  SER759  ASP760  ASP761  ALA762  ILE779  LEU786  VAL792 
 PHE793  MET794  SER795  GLU796  ALA797  LYS798  CYS799  TRP800  GLU811  SER814 

> <Gold.Protein.RotatedAtoms>
  151.7328  133.3318  159.3344 H   0  0  0  0  0  0  0  0  0  0  0  0  # atno 6907 bound_to 6896
  150.7605  134.6348  159.6215 H   0  0  0  0  0  0  0  0  0  0  0  0  # atno 6908 bound_to 6896
  152.3581  134.6914  160.0267 H   0  0  0  0  0  0  0  0  0  0  0  0  # atno 6909 bound_to 6896
  144.7636  139.8042  143.6323 H   0  0  0  0  0  0  0  0  0  0  0  0  # atno 7974 bound_to 7965
  156.1033  140.1449  156.9438 H   0  0  0  0  0  0  0  0  0  0  0  0  # atno 8008 bound_to 7997
  154.4717  140.0907  156.7206 H   0  0  0  0  0  0  0  0  0  0  0  0  # atno 8009 bound_to 7997
  155.4722  140.3442  155.4329 H   0  0  0  0  0  0  0  0  0  0  0  0  # atno 8010 bound_to 7997
  139.6278  144.7111  151.2496 H   0  0  0  0  0  0  0  0  0  0  0  0  # atno 10167 bound_to 10162
  157.5838  131.1072  150.8134 H   0  0  0  0  0  0  0  0  0  0  0  0  # atno 10718 bound_to 10713
  153.5733  135.7007  153.5495 H   0  0  0  0  0  0  0  0  0  0  0  0  # atno 10763 bound_to 10752
  153.3325  135.4043  155.1507 H   0  0  0  0  0  0  0  0  0  0  0  0  # atno 10764 bound_to 10752
  154.8629  135.3722  154.5257 H   0  0  0  0  0  0  0  0  0  0  0  0  # atno 10765 bound_to 10752
  140.6747  133.9205  155.8517 H   0  0  0  0  0  0  0  0  0  0  0  0  # atno 11005 bound_to 11000
  146.1723  139.4878  142.9920 LP  0  0  0  0  0  0  0  0  0  0  0  0  # atno 17320 bound_to 7965
  145.6541  141.0256  143.1744 LP  0  0  0  0  0  0  0  0  0  0  0  0  # atno 17321 bound_to 7965
  140.7421  143.6535  150.8227 LP  0  0  0  0  0  0  0  0  0  0  0  0  # atno 17342 bound_to 10162
  140.0156  143.5597  152.2821 LP  0  0  0  0  0  0  0  0  0  0  0  0  # atno 17343 bound_to 10162
  156.8573  130.5101  149.5306 LP  0  0  0  0  0  0  0  0  0  0  0  0  # atno 17370 bound_to 10713
  156.0886  130.5878  150.9693 LP  0  0  0  0  0  0  0  0  0  0  0  0  # atno 17371 bound_to 10713
  141.0364  134.0683  157.3954 LP  0  0  0  0  0  0  0  0  0  0  0  0  # atno 17394 bound_to 11000
  139.8970  135.0148  156.7080 LP  0  0  0  0  0  0  0  0  0  0  0  0  # atno 17395 bound_to 11000

$$$$
