AV-unprocessed.smi:1063|AV-procd|sdf|4663|dock4
  -GOLD-   22720 3173D 1   1.00000     0.00000
 Structure written by MMmdl.
 38 39  0  0  0  0  0  0  0  0  1 V2000
  151.0899  143.2763  159.0899 C   0  0  0  0  0  0  0  0  0  0  0  0
  150.3687  142.2652  158.1952 C   0  0  0  0  0  0  0  0  0  0  0  0
  150.9972  142.3149  156.4920 S   0  0  0  0  0  0  0  0  0  0  0  0
  150.0998  141.1074  155.5637 C   0  0  0  0  0  0  0  0  0  0  0  0
  148.7061  141.2258  155.4028 C   0  0  0  0  0  0  0  0  0  0  0  0
  148.0384  140.2407  154.6506 C   0  0  0  0  0  0  0  0  0  0  0  0
  148.7804  139.1761  154.0980 C   0  0  0  0  0  0  0  0  0  0  0  0
  148.0851  138.2097  153.3224 N   0  0  0  0  0  0  0  0  0  0  0  0
  146.7592  138.0123  153.2284 C   0  0  0  0  0  0  0  0  0  0  0  0
  145.8973  138.7117  153.7596 O   0  0  0  0  0  0  0  0  0  0  0  0
  146.4815  136.9517  152.4571 N   0  0  0  0  0  0  0  0  0  0  0  0
  145.1439  136.4525  152.1542 C   0  0  0  0  0  0  0  0  0  0  0  0
  145.1860  135.2463  151.1998 C   0  0  1  0  0  0  0  0  0  0  0  0
  146.0831  134.0912  151.6448 C   0  0  0  0  0  0  0  0  0  0  0  0
  145.4796  132.8834  150.9458 C   0  0  0  0  0  0  0  0  0  0  0  0
  144.0896  133.3581  150.5108 C   0  0  0  0  0  0  0  0  0  0  0  0
  143.9131  134.6254  151.1298 O   0  0  0  0  0  0  0  0  0  0  0  0
  150.1812  139.1630  154.3145 C   0  0  0  0  0  0  0  0  0  0  0  0
  150.8303  140.1040  155.0330 N   0  0  0  0  0  0  0  0  0  0  0  0
  150.6999  143.2406  160.1072 H   0  0  0  0  0  0  0  0  0  0  0  0
  150.9599  144.2932  158.7190 H   0  0  0  0  0  0  0  0  0  0  0  0
  152.1590  143.0680  159.1356 H   0  0  0  0  0  0  0  0  0  0  0  0
  150.4985  141.2586  158.5935 H   0  0  0  0  0  0  0  0  0  0  0  0
  149.2988  142.4742  158.1847 H   0  0  0  0  0  0  0  0  0  0  0  0
  148.1628  142.0497  155.8415 H   0  0  0  0  0  0  0  0  0  0  0  0
  146.9700  140.3030  154.5036 H   0  0  0  0  0  0  0  0  0  0  0  0
  148.6651  137.6159  152.7479 H   0  0  0  0  0  0  0  0  0  0  0  0
  147.2550  136.4415  152.0565 H   0  0  0  0  0  0  0  0  0  0  0  0
  144.6012  136.2031  153.0678 H   0  0  0  0  0  0  0  0  0  0  0  0
  144.5890  137.2646  151.6841 H   0  0  0  0  0  0  0  0  0  0  0  0
  145.4670  135.5711  150.1959 H   0  0  0  0  0  0  0  0  0  0  0  0
  147.1320  134.2489  151.3917 H   0  0  0  0  0  0  0  0  0  0  0  0
  146.0140  133.9562  152.7251 H   0  0  0  0  0  0  0  0  0  0  0  0
  146.0720  132.5877  150.0792 H   0  0  0  0  0  0  0  0  0  0  0  0
  145.4241  132.0296  151.6217 H   0  0  0  0  0  0  0  0  0  0  0  0
  144.0486  133.4794  149.4275 H   0  0  0  0  0  0  0  0  0  0  0  0
  143.2998  132.6664  150.8049 H   0  0  0  0  0  0  0  0  0  0  0  0
  150.8186  138.4026  153.8912 H   0  0  0  0  0  0  0  0  0  0  0  0
  1  2  1  0  0  0  0
  1 20  1  0  0  0  0
  1 21  1  0  0  0  0
  1 22  1  0  0  0  0
  2  3  1  0  0  0  0
  2 23  1  0  0  0  0
  2 24  1  0  0  0  0
  3  4  1  0  0  0  0
  4 19  1  0  0  0  0
  4  5  2  0  0  0  0
  5  6  1  0  0  0  0
  5 25  1  0  0  0  0
  6  7  2  0  0  0  0
  6 26  1  0  0  0  0
  7  8  1  0  0  0  0
  7 18  1  0  0  0  0
  8  9  1  0  0  0  0
  8 27  1  0  0  0  0
  9 10  2  0  0  0  0
  9 11  1  0  0  0  0
 11 12  1  0  0  0  0
 11 28  1  0  0  0  0
 12 13  1  0  0  0  0
 12 29  1  0  0  0  0
 12 30  1  0  0  0  0
 13 17  1  0  0  0  0
 13 14  1  0  0  0  0
 13 31  1  0  0  0  0
 14 15  1  0  0  0  0
 14 32  1  0  0  0  0
 14 33  1  0  0  0  0
 15 16  1  0  0  0  0
 15 34  1  0  0  0  0
 15 35  1  0  0  0  0
 16 17  1  0  0  0  0
 16 36  1  0  0  0  0
 16 37  1  0  0  0  0
 18 19  2  0  0  0  0
 18 38  1  0  0  0  0
M  END
> <s_m_source_file>
AV-unprocessed.smi

> <i_m_source_file_index>
1063

> <i_lp_mmshare_version>
43012

> <i_f3d_flags>
0

> <s_epik_input>
W0NIM11bQ0gyXVNjMVtjSF1bY0hdYyhbY0hdbjEpW05IXUMoPU8pW05IXVtDSDJdW0NAQEhdMltDSDJdW0NIMl1bQ0gyXU8y

> <s_epik_cmdline>
J2VwaWtfcHl0aG9uJywgJy1waCcsICc3LjAnLCAnLXRuJywgJzgnLCAnLW1hJywgJzIwMCcsICctbWV0YWxfYmluZGluZycsICctaW1hZScsICc8aW5maWxlLm1hZT4nLCAnLW9tYWUnLCAnPG91dGZpbGUubWFlPic=

> <r_lp_tautomer_probability>
1

> <r_epik_Ionization_Penalty>
0.000426617

> <r_epik_Ionization_Penalty_Charging>
0

> <r_epik_Ionization_Penalty_Neutral>
0.000426617

> <r_epik_State_Penalty>
0.000241115

> <r_epik_Charging_Adjusted_Penalty>
0.000241115

> <i_epik_Tot_Q>
0

> <i_epik_Tot_abs_Q>
0

> <r_epik_Metal_State_Penalty>
-0

> <b_epik_Metal_Only>
0

> <s_lp_Force_Field>
OPLS_2005

> <r_lp_Energy>
18.8486

> <b_lp_Chiralities_Consistent>
1

> <s_lp_Variant>
AV-unprocessed.smi:1063-2

> <Gold.Version>
5.8.1

> <Gold.Id.Protein>
6NUR|6NUR_protein|mol2

> <Gold.PLP.Fitness>
40.7450

> <Gold.PLP.PLP>
-32.7839

> <Gold.PLP.part.hbond>
-3.4386

> <Gold.PLP.part.metal>
0.0000

> <Gold.PLP.part.buried>
-5.9216

> <Gold.PLP.part.nonpolar>
-25.4556

> <Gold.PLP.part.repulsive>
0.6559

> <Gold.PLP.ligand.clash>
0.0000

> <Gold.PLP.ligand.torsion>
0.0851

> <Gold.PLP.Chemscore.Hbond>
2.7000

> <Gold.PLP.Chemscore.CHOScore>
0.0000

> <Gold.PLP.Chemscore.Metal>
0.0000

> <Gold.Chemscore.Hbonds>
donor molecule, donor type, donor heavy atom, donor atom, acceptor molecule, acceptor atom, score
      L1  H     8    27       P1  7948  1.00
      L1  H    11    28       P1  7948  1.00
      P1  H  7989  7998       L1    19  0.65

> <Gold.PLP.Chemscore.Internal.Correction>
0.0314

> <Gold.Rescore>
     Score         DG    S(hbond)    S(metal)    S(lipo)     H(rot)  DE(clash)    DE(int)     intcor
     16.76     -18.26       1.97        0.00      85.05       1.47       0.01       1.49       ----

> <Gold.Chemscore.Fitness>
16.7582

> <Gold.Chemscore.DG>
-18.2585

> <Gold.Chemscore.ZeroCoef>
-5.4800

> <Gold.Chemscore.Hbond>
1.9719

> <Gold.Chemscore.Metal>
0.0000

> <Gold.Chemscore.Lipo>
85.0496

> <Gold.Chemscore.Internal_Hbond>
0.0000

> <Gold.Chemscore.DEClash>
0.0058

> <Gold.Chemscore.DEInternal>
1.4945

> <Gold.Chemscore.Rot>
1.4681

> <Gold.Chemscore.Internal.Correction>
   9.000000E+99

> <Gold.Chemscore.Hbonds>
donor molecule, donor type, donor heavy atom, donor atom, acceptor molecule, acceptor atom, score
      L1  H     8    27       P1  7948  0.97
      L1  H    11    28       P1  7948  0.95
      P1  H  7989  7998       L1    19  0.03

> <Gold.Chemscore.Hbond.Weighted>
-6.5860

> <Gold.Chemscore.Metal.Weighted>
-0.0000

> <Gold.Chemscore.Lipo.Weighted>
-9.9508

> <Gold.Chemscore.Internal_Hbond.Weighted>
0.0000

> <Gold.Chemscore.DEClash.Weighted>
0.0058

> <Gold.Chemscore.DEInternal.Weighted>
1.4945

> <Gold.Chemscore.Rot.Weighted>
3.7584

> <Gold.Chemscore.Internal.Correction.Weighted>
   9.000000E+99

> <Gold.Protein.RotatedTorsions>
[ 6907 6896 6895 6894 ] final  -53.66 input  -60.11 | X-H torsion
[ 7974 7965 7964 7962 ] final   88.82 input  175.53 | X-H torsion
[ 8008 7997 7996 7995 ] final  -91.72 input   59.86 | X-H torsion
[ 10167 10162 10161 10158 ] final  -86.22 input  -65.29 | X-H torsion
[ 10718 10713 10712 10709 ] final   -2.71 input   66.30 | X-H torsion
[ 10763 10752 10751 10750 ] final  111.08 input  -60.55 | X-H torsion
[ 11005 11000 10999 10996 ] final    6.00 input  -57.11 | X-H torsion

> <Gold.Protein.ActiveResidues>
 VAL166  LYS551  ARG553  GLY616  TRP617  ASP618  TYR619  PRO620  LYS621  CYS622 
 ASP623  PHE694  ASN695  SER759  ASP760  ASP761  ALA762  ILE779  LEU786  VAL792 
 PHE793  MET794  SER795  GLU796  ALA797  LYS798  CYS799  TRP800  GLU811  SER814 

> <Gold.Protein.RotatedAtoms>
  150.8406  134.7697  159.6929 H   0  0  0  0  0  0  0  0  0  0  0  0  # atno 6907 bound_to 6896
  152.4494  134.5422  159.9852 H   0  0  0  0  0  0  0  0  0  0  0  0  # atno 6908 bound_to 6896
  151.5562  133.3372  159.2998 H   0  0  0  0  0  0  0  0  0  0  0  0  # atno 6909 bound_to 6896
  145.5406  139.2288  143.2568 H   0  0  0  0  0  0  0  0  0  0  0  0  # atno 7974 bound_to 7965
  154.7142  140.0516  157.0579 H   0  0  0  0  0  0  0  0  0  0  0  0  # atno 8008 bound_to 7997
  155.0513  140.3179  155.4672 H   0  0  0  0  0  0  0  0  0  0  0  0  # atno 8009 bound_to 7997
  156.2798  140.2115  156.5639 H   0  0  0  0  0  0  0  0  0  0  0  0  # atno 8010 bound_to 7997
  140.3962  143.2682  151.9201 H   0  0  0  0  0  0  0  0  0  0  0  0  # atno 10167 bound_to 10162
  156.7868  130.5348  149.5742 H   0  0  0  0  0  0  0  0  0  0  0  0  # atno 10718 bound_to 10713
  153.4582  135.3728  155.2323 H   0  0  0  0  0  0  0  0  0  0  0  0  # atno 10763 bound_to 10752
  154.8757  135.3902  154.3957 H   0  0  0  0  0  0  0  0  0  0  0  0  # atno 10764 bound_to 10752
  153.4526  135.7086  153.6163 H   0  0  0  0  0  0  0  0  0  0  0  0  # atno 10765 bound_to 10752
  140.5644  134.0161  155.7984 H   0  0  0  0  0  0  0  0  0  0  0  0  # atno 11005 bound_to 11000
  146.1983  140.6226  142.9114 LP  0  0  0  0  0  0  0  0  0  0  0  0  # atno 17320 bound_to 7965
  144.7579  140.5351  143.6756 LP  0  0  0  0  0  0  0  0  0  0  0  0  # atno 17321 bound_to 7965
  139.4786  144.5679  151.8136 LP  0  0  0  0  0  0  0  0  0  0  0  0  # atno 17342 bound_to 10162
  140.4788  144.1480  150.5929 LP  0  0  0  0  0  0  0  0  0  0  0  0  # atno 17343 bound_to 10162
  156.1183  130.6091  151.0155 LP  0  0  0  0  0  0  0  0  0  0  0  0  # atno 17370 bound_to 10713
  157.6620  131.0879  150.7817 LP  0  0  0  0  0  0  0  0  0  0  0  0  # atno 17371 bound_to 10713
  141.1095  133.9640  157.2937 LP  0  0  0  0  0  0  0  0  0  0  0  0  # atno 17394 bound_to 11000
  139.9392  135.0193  156.8654 LP  0  0  0  0  0  0  0  0  0  0  0  0  # atno 17395 bound_to 11000

$$$$
