AV-unprocessed.smi:487|AV-procd|sdf|2699|dock6
  -GOLD-   2262023133D 1   1.00000     0.00000
 Structure written by MMmdl.
 41 42  0  0  0  0  0  0  0  0  1 V2000
  152.6218  139.8746  155.3614 O   0  0  0  0  0  0  0  0  0  0  0  0
  151.4749  139.7791  155.7966 C   0  0  0  0  0  0  0  0  0  0  0  0
  150.5124  138.7666  155.1520 C   0  0  0  0  0  0  0  0  0  0  0  0
  150.0926  137.6680  156.0380 N   0  0  0  0  0  0  0  0  0  0  0  0
  149.3327  137.9351  157.1680 C   0  0  0  0  0  0  0  0  0  0  0  0
  148.9246  136.9787  158.0355 C   0  0  0  0  0  0  0  0  0  0  0  0
  149.2773  135.5807  157.8129 C   0  0  0  0  0  0  0  0  0  0  0  0
  148.9564  134.6438  158.5405 O   0  0  0  0  0  0  0  0  0  0  0  0
  150.0431  135.3526  156.6663 N   0  0  0  0  0  0  0  0  0  0  0  0
  150.4681  136.3333  155.7691 C   0  0  0  0  0  0  0  0  0  0  0  0
  151.1498  136.0243  154.7927 O   0  0  0  0  0  0  0  0  0  0  0  0
  151.0168  140.5287  156.8145 N   0  0  0  0  0  0  0  0  0  0  0  0
  151.7806  141.5290  157.5578 C   0  0  0  0  0  0  0  0  0  0  0  0
  151.8822  141.0248  159.0205 C   0  0  0  0  0  0  0  0  0  0  0  0
  153.0752  141.5554  159.8348 C   0  0  0  0  0  0  0  0  0  0  0  0
  152.8162  142.8011  160.7062 C   0  0  0  0  0  0  0  0  0  0  0  0
  152.2457  144.0431  159.9994 C   0  0  0  0  0  0  0  0  0  0  0  0
  152.8925  144.3554  158.6380 C   0  0  0  0  0  0  0  0  0  0  0  0
  151.9667  144.1537  157.4258 C   0  0  0  0  0  0  0  0  0  0  0  0
  151.0723  142.8963  157.4040 C   0  0  0  0  0  0  0  0  0  0  0  0
  150.3127  134.3992  156.4719 H   0  0  0  0  0  0  0  0  0  0  0  0
  149.6351  139.3136  154.8033 H   0  0  0  0  0  0  0  0  0  0  0  0
  150.9760  138.3716  154.2461 H   0  0  0  0  0  0  0  0  0  0  0  0
  149.0525  138.9582  157.3750 H   0  0  0  0  0  0  0  0  0  0  0  0
  148.3354  137.2499  158.8997 H   0  0  0  0  0  0  0  0  0  0  0  0
  150.0610  140.3837  157.1061 H   0  0  0  0  0  0  0  0  0  0  0  0
  152.7817  141.5812  157.1261 H   0  0  0  0  0  0  0  0  0  0  0  0
  150.9465  141.1840  159.5579 H   0  0  0  0  0  0  0  0  0  0  0  0
  152.0057  139.9407  158.9874 H   0  0  0  0  0  0  0  0  0  0  0  0
  153.3855  140.7628  160.5169 H   0  0  0  0  0  0  0  0  0  0  0  0
  153.9376  141.7004  159.1845 H   0  0  0  0  0  0  0  0  0  0  0  0
  152.1500  142.5336  161.5272 H   0  0  0  0  0  0  0  0  0  0  0  0
  153.7607  143.0768  161.1764 H   0  0  0  0  0  0  0  0  0  0  0  0
  151.1640  143.9560  159.9090 H   0  0  0  0  0  0  0  0  0  0  0  0
  152.3924  144.8982  160.6603 H   0  0  0  0  0  0  0  0  0  0  0  0
  153.2159  145.3970  158.6369 H   0  0  0  0  0  0  0  0  0  0  0  0
  153.8132  143.7907  158.5005 H   0  0  0  0  0  0  0  0  0  0  0  0
  151.3112  145.0222  157.3509 H   0  0  0  0  0  0  0  0  0  0  0  0
  152.5753  144.1722  156.5211 H   0  0  0  0  0  0  0  0  0  0  0  0
  150.5574  142.9248  156.4423 H   0  0  0  0  0  0  0  0  0  0  0  0
  150.2690  142.9799  158.1356 H   0  0  0  0  0  0  0  0  0  0  0  0
  1  2  2  0  0  0  0
  2  3  1  0  0  0  0
  2 12  1  0  0  0  0
  3  4  1  0  0  0  0
  3 22  1  0  0  0  0
  3 23  1  0  0  0  0
  4 10  1  0  0  0  0
  4  5  1  0  0  0  0
  5  6  2  0  0  0  0
  5 24  1  0  0  0  0
  6  7  1  0  0  0  0
  6 25  1  0  0  0  0
  7  8  2  0  0  0  0
  7  9  1  0  0  0  0
  9 21  1  0  0  0  0
  9 10  1  0  0  0  0
 10 11  2  0  0  0  0
 12 13  1  0  0  0  0
 12 26  1  0  0  0  0
 13 20  1  0  0  0  0
 13 14  1  0  0  0  0
 13 27  1  0  0  0  0
 14 15  1  0  0  0  0
 14 28  1  0  0  0  0
 14 29  1  0  0  0  0
 15 16  1  0  0  0  0
 15 30  1  0  0  0  0
 15 31  1  0  0  0  0
 16 17  1  0  0  0  0
 16 32  1  0  0  0  0
 16 33  1  0  0  0  0
 17 18  1  0  0  0  0
 17 34  1  0  0  0  0
 17 35  1  0  0  0  0
 18 19  1  0  0  0  0
 18 36  1  0  0  0  0
 18 37  1  0  0  0  0
 19 20  1  0  0  0  0
 19 38  1  0  0  0  0
 19 39  1  0  0  0  0
 20 40  1  0  0  0  0
 20 41  1  0  0  0  0
M  END
> <s_m_source_file>
AV-unprocessed.smi

> <i_m_source_file_index>
487

> <i_lp_mmshare_version>
43012

> <i_f3d_flags>
0

> <s_epik_input>
Tz1jMVtuSF1jKD1PKVtjSF1bY0hdbjFbQ0gyXUMoPU8pW05IXVtDSF0yW0NIMl1bQ0gyXVtDSDJdW0NIMl1bQ0gyXVtDSDJdW0NIMl0y

> <s_epik_cmdline>
J2VwaWtfcHl0aG9uJywgJy1waCcsICc3LjAnLCAnLXRuJywgJzgnLCAnLW1hJywgJzIwMCcsICctbWV0YWxfYmluZGluZycsICctaW1hZScsICc8aW5maWxlLm1hZT4nLCAnLW9tYWUnLCAnPG91dGZpbGUubWFlPic=

> <r_lp_tautomer_probability>
0.999537

> <r_epik_Ionization_Penalty>
0.00321433

> <r_epik_Ionization_Penalty_Charging>
0.00321431

> <r_epik_Ionization_Penalty_Neutral>
2.02148e-08

> <r_epik_State_Penalty>
0.00226744

> <r_epik_Charging_Adjusted_Penalty>
0.00548175

> <i_epik_Tot_Q>
0

> <i_epik_Tot_abs_Q>
0

> <r_epik_Metal_State_Penalty>
0.364272

> <b_epik_Metal_Only>
0

> <s_lp_Force_Field>
OPLS_2005

> <r_lp_Energy>
21.4809

> <b_lp_Chiralities_Consistent>
1

> <s_lp_Variant>
AV-unprocessed.smi:487-1

> <Gold.Version>
5.8.1

> <Gold.Id.Protein>
6NUR|6NUR_protein|mol2

> <Gold.PLP.Fitness>
48.0208

> <Gold.PLP.PLP>
-38.6180

> <Gold.PLP.part.hbond>
-4.0000

> <Gold.PLP.part.metal>
0.0000

> <Gold.PLP.part.buried>
-4.8062

> <Gold.PLP.part.nonpolar>
-30.3667

> <Gold.PLP.part.repulsive>
0.3423

> <Gold.PLP.ligand.clash>
0.0000

> <Gold.PLP.ligand.torsion>
0.0638

> <Gold.PLP.Chemscore.Hbond>
3.1740

> <Gold.PLP.Chemscore.CHOScore>
0.0000

> <Gold.PLP.Chemscore.Metal>
0.0000

> <Gold.Chemscore.Hbonds>
donor molecule, donor type, donor heavy atom, donor atom, acceptor molecule, acceptor atom, score
      P1  H  6896  6908       L1     8  1.00
      P1  H  7989  7998       L1     1  0.06
      P1  H  7997  8009       L1     1  1.00
      P1  H 10752 10763       L1    11  1.00

> <Gold.PLP.Chemscore.Internal.Correction>
0.0084

> <Gold.Rescore>
     Score         DG    S(hbond)    S(metal)    S(lipo)     H(rot)  DE(clash)    DE(int)     intcor
     21.16     -22.09       2.88        0.00      96.29       1.68       0.83       0.10       ----

> <Gold.Chemscore.Fitness>
21.1556

> <Gold.Chemscore.DG>
-22.0893

> <Gold.Chemscore.ZeroCoef>
-5.4800

> <Gold.Chemscore.Hbond>
2.8847

> <Gold.Chemscore.Metal>
0.0000

> <Gold.Chemscore.Lipo>
96.2883

> <Gold.Chemscore.Internal_Hbond>
0.0000

> <Gold.Chemscore.DEClash>
0.8302

> <Gold.Chemscore.DEInternal>
0.1035

> <Gold.Chemscore.Rot>
1.6763

> <Gold.Chemscore.Internal.Correction>
   9.000000E+99

> <Gold.Chemscore.Hbonds>
donor molecule, donor type, donor heavy atom, donor atom, acceptor molecule, acceptor atom, score
      P1  H  6896  6908       L1     8  0.39
      P1  H  7997  8009       L1     1  0.99
      P1  H 10752 10763       L1    11  1.00

> <Gold.Chemscore.Hbond.Weighted>
-9.6349

> <Gold.Chemscore.Metal.Weighted>
-0.0000

> <Gold.Chemscore.Lipo.Weighted>
-11.2657

> <Gold.Chemscore.Internal_Hbond.Weighted>
0.0000

> <Gold.Chemscore.DEClash.Weighted>
0.8302

> <Gold.Chemscore.DEInternal.Weighted>
0.1035

> <Gold.Chemscore.Rot.Weighted>
4.2914

> <Gold.Chemscore.Internal.Correction.Weighted>
   9.000000E+99

> <Gold.Protein.RotatedTorsions>
[ 6907 6896 6895 6894 ] final  142.79 input  -60.11 | X-H torsion
[ 7974 7965 7964 7962 ] final   26.58 input  175.53 | X-H torsion
[ 8008 7997 7996 7995 ] final -154.09 input   59.86 | X-H torsion
[ 10167 10162 10161 10158 ] final  151.01 input  -65.29 | X-H torsion
[ 10718 10713 10712 10709 ] final -168.05 input   66.30 | X-H torsion
[ 10763 10752 10751 10750 ] final   45.72 input  -60.55 | X-H torsion
[ 11005 11000 10999 10996 ] final   76.28 input  -57.11 | X-H torsion

> <Gold.Protein.ActiveResidues>
 VAL166  LYS551  ARG553  GLY616  TRP617  ASP618  TYR619  PRO620  LYS621  CYS622 
 ASP623  PHE694  ASN695  SER759  ASP760  ASP761  ALA762  ILE779  LEU786  VAL792 
 PHE793  MET794  SER795  GLU796  ALA797  LYS798  CYS799  TRP800  GLU811  SER814 

> <Gold.Protein.RotatedAtoms>
  152.2143  133.4935  159.5127 H   0  0  0  0  0  0  0  0  0  0  0  0  # atno 6907 bound_to 6896
  150.6997  134.1425  159.4119 H   0  0  0  0  0  0  0  0  0  0  0  0  # atno 6908 bound_to 6896
  151.9345  135.0241  160.0582 H   0  0  0  0  0  0  0  0  0  0  0  0  # atno 6909 bound_to 6896
  146.1830  139.7308  142.8887 H   0  0  0  0  0  0  0  0  0  0  0  0  # atno 7974 bound_to 7965
  155.6810  140.0744  157.2484 H   0  0  0  0  0  0  0  0  0  0  0  0  # atno 8008 bound_to 7997
  154.4105  140.1682  156.2034 H   0  0  0  0  0  0  0  0  0  0  0  0  # atno 8009 bound_to 7997
  155.9534  140.3375  155.6431 H   0  0  0  0  0  0  0  0  0  0  0  0  # atno 8010 bound_to 7997
  139.4844  144.5476  151.7457 H   0  0  0  0  0  0  0  0  0  0  0  0  # atno 10167 bound_to 10162
  156.6913  130.9160  151.3069 H   0  0  0  0  0  0  0  0  0  0  0  0  # atno 10718 bound_to 10713
  152.9820  135.6030  154.3483 H   0  0  0  0  0  0  0  0  0  0  0  0  # atno 10763 bound_to 10752
  154.3174  135.2770  155.2538 H   0  0  0  0  0  0  0  0  0  0  0  0  # atno 10764 bound_to 10752
  154.4720  135.5939  153.6384 H   0  0  0  0  0  0  0  0  0  0  0  0  # atno 10765 bound_to 10752
  139.9305  134.7588  156.1376 H   0  0  0  0  0  0  0  0  0  0  0  0  # atno 11005 bound_to 11000
  145.4021  141.0386  143.3064 LP  0  0  0  0  0  0  0  0  0  0  0  0  # atno 17320 bound_to 7965
  144.8347  139.5569  143.6927 LP  0  0  0  0  0  0  0  0  0  0  0  0  # atno 17321 bound_to 7965
  140.5025  144.1148  150.5974 LP  0  0  0  0  0  0  0  0  0  0  0  0  # atno 17342 bound_to 10162
  140.4046  143.2687  151.9907 LP  0  0  0  0  0  0  0  0  0  0  0  0  # atno 17343 bound_to 10162
  157.7008  130.9330  150.0778 LP  0  0  0  0  0  0  0  0  0  0  0  0  # atno 17370 bound_to 10713
  156.1795  130.3649  149.9054 LP  0  0  0  0  0  0  0  0  0  0  0  0  # atno 17371 bound_to 10713
  141.0891  133.6722  156.2500 LP  0  0  0  0  0  0  0  0  0  0  0  0  # atno 17394 bound_to 11000
  140.6215  134.5357  157.5548 LP  0  0  0  0  0  0  0  0  0  0  0  0  # atno 17395 bound_to 11000

$$$$
