AV-unprocessed.smi:2079|AV-procd|sdf|8486|dock4
  -GOLD-   2272011193D 1   1.00000     0.00000
 Structure written by MMmdl.
 41 42  0  0  0  0  0  0  0  0  3 V2000
  155.8219  133.6314  159.9159 C   0  0  0  0  0  0  0  0  0  0  0  0
  155.0289  134.5839  159.0887 C   0  0  0  0  0  0  0  0  0  0  0  0
  155.0550  135.9433  158.9543 C   0  0  0  0  0  0  0  0  0  0  0  0
  154.0340  136.1917  157.9989 C   0  0  0  0  0  0  0  0  0  0  0  0
  153.7402  137.5167  157.5810 N   0  0  0  0  0  0  0  0  0  0  0  0
  152.9121  137.9276  156.6034 C   0  0  0  0  0  0  0  0  0  0  0  0
  152.2878  137.1028  155.9251 O   0  0  0  0  0  0  0  0  0  0  0  0
  152.8729  139.2849  156.4962 N   0  5  0  0  0  0  0  0  0  0  0  0
  151.6548  140.0715  156.3090 C   0  0  0  0  0  0  0  0  0  0  0  0
  151.1715  140.6426  157.6576 C   0  0  0  0  0  0  0  0  0  0  0  0
  151.8725  141.9165  157.9870 N   0  3  1  0  0  0  0  0  0  0  0  0
  151.1196  143.0926  157.4647 C   0  0  0  0  0  0  0  0  0  0  0  0
  151.8892  144.4046  157.6598 C   0  0  0  0  0  0  0  0  0  0  0  0
  152.2101  144.6139  159.1398 C   0  0  0  0  0  0  0  0  0  0  0  0
  152.9969  143.4088  159.6617 C   0  0  0  0  0  0  0  0  0  0  0  0
  152.2535  142.0737  159.4292 C   0  0  2  0  0  0  0  0  0  0  0  0
  153.1492  140.9247  159.9399 C   0  0  0  0  0  0  0  0  0  0  0  0
  153.4379  135.0820  157.5883 N   0  0  0  0  0  0  0  0  0  0  0  0
  154.0730  134.0465  158.2838 O   0  0  0  0  0  0  0  0  0  0  0  0
  156.2994  134.1453  160.7504 H   0  0  0  0  0  0  0  0  0  0  0  0
  156.6013  133.1591  159.3181 H   0  0  0  0  0  0  0  0  0  0  0  0
  155.1844  132.8467  160.3235 H   0  0  0  0  0  0  0  0  0  0  0  0
  155.7014  136.6458  159.4584 H   0  0  0  0  0  0  0  0  0  0  0  0
  154.2179  138.2485  158.0854 H   0  0  0  0  0  0  0  0  0  0  0  0
  151.8264  140.8995  155.6207 H   0  0  0  0  0  0  0  0  0  0  0  0
  150.8514  139.4857  155.8599 H   0  0  0  0  0  0  0  0  0  0  0  0
  150.0941  140.8110  157.6095 H   0  0  0  0  0  0  0  0  0  0  0  0
  151.2944  139.9039  158.4489 H   0  0  0  0  0  0  0  0  0  0  0  0
  150.9198  142.9535  156.4010 H   0  0  0  0  0  0  0  0  0  0  0  0
  150.1507  143.1532  157.9633 H   0  0  0  0  0  0  0  0  0  0  0  0
  152.8108  144.3845  157.0765 H   0  0  0  0  0  0  0  0  0  0  0  0
  151.3003  145.2419  157.2841 H   0  0  0  0  0  0  0  0  0  0  0  0
  152.7869  145.5293  159.2756 H   0  0  0  0  0  0  0  0  0  0  0  0
  151.2881  144.7341  159.7102 H   0  0  0  0  0  0  0  0  0  0  0  0
  153.9700  143.3778  159.1689 H   0  0  0  0  0  0  0  0  0  0  0  0
  153.1981  143.5437  160.7252 H   0  0  0  0  0  0  0  0  0  0  0  0
  151.3346  142.0836  160.0179 H   0  0  0  0  0  0  0  0  0  0  0  0
  153.4651  141.1070  160.9675 H   0  0  0  0  0  0  0  0  0  0  0  0
  154.0503  140.8267  159.3336 H   0  0  0  0  0  0  0  0  0  0  0  0
  152.6433  139.9603  159.9405 H   0  0  0  0  0  0  0  0  0  0  0  0
  152.7399  141.8871  157.4704 H   0  0  0  0  0  0  0  0  0  0  0  0
  1  2  1  0  0  0  0
  1 20  1  0  0  0  0
  1 21  1  0  0  0  0
  1 22  1  0  0  0  0
  2 19  1  0  0  0  0
  2  3  2  0  0  0  0
  3  4  1  0  0  0  0
  3 23  1  0  0  0  0
  4  5  1  0  0  0  0
  4 18  2  0  0  0  0
  5  6  1  0  0  0  0
  5 24  1  0  0  0  0
  6  7  2  0  0  0  0
  6  8  1  0  0  0  0
  8  9  1  0  0  0  0
  9 10  1  0  0  0  0
  9 25  1  0  0  0  0
  9 26  1  0  0  0  0
 10 11  1  0  0  0  0
 10 27  1  0  0  0  0
 10 28  1  0  0  0  0
 11 16  1  0  0  0  0
 11 12  1  0  0  0  0
 11 41  1  0  0  0  0
 12 13  1  0  0  0  0
 12 29  1  0  0  0  0
 12 30  1  0  0  0  0
 13 14  1  0  0  0  0
 13 31  1  0  0  0  0
 13 32  1  0  0  0  0
 14 15  1  0  0  0  0
 14 33  1  0  0  0  0
 14 34  1  0  0  0  0
 15 16  1  0  0  0  0
 15 35  1  0  0  0  0
 15 36  1  0  0  0  0
 16 17  1  0  0  0  0
 16 37  1  0  0  0  0
 17 38  1  0  0  0  0
 17 39  1  0  0  0  0
 17 40  1  0  0  0  0
 18 19  1  0  0  0  0
M  CHG  1   8  -1
M  CHG  1  11   1
M  END
> <s_m_source_file>
AV-unprocessed.smi

> <i_m_source_file_index>
2079

> <i_lp_mmshare_version>
43012

> <i_f3d_flags>
0

> <s_epik_input>
W0NIM11jMVtjSF1jKG5vMSlbTkhdQyg9TylbTkhdW0NIMl1bQ0gyXU4yW0NIMl1bQ0gyXVtDSDJdW0NIMl1bQ0BIXTJbQ0gzXQ==

> <s_epik_cmdline>
J2VwaWtfcHl0aG9uJywgJy1waCcsICc3LjAnLCAnLXRuJywgJzgnLCAnLW1hJywgJzIwMCcsICctbWV0YWxfYmluZGluZycsICctaW1hZScsICc8aW5maWxlLm1hZT4nLCAnLW9tYWUnLCAnPG91dGZpbGUubWFlPic=

> <r_epik_Ionization_Penalty>
6.7666

> <r_epik_Ionization_Penalty_Charging>
6.7666

> <r_epik_Ionization_Penalty_Neutral>
5.77131e-06

> <r_epik_State_Penalty>
6.79217

> <r_epik_Charging_Adjusted_Penalty>
13.5588

> <i_epik_Tot_Q>
0

> <i_epik_Tot_abs_Q>
2

> <r_epik_Metal_State_Penalty>
2.72569

> <b_epik_Metal_Only>
1

> <s_lp_Force_Field>
OPLS_2005

> <r_lp_Energy>
14.3166

> <b_lp_Chiralities_Consistent>
1

> <s_lp_Variant>
AV-unprocessed.smi:2079-12

> <Gold.Version>
5.8.1

> <Gold.Id.Protein>
6NUR|6NUR_protein|mol2

> <Gold.PLP.Fitness>
43.2789

> <Gold.PLP.PLP>
-34.6363

> <Gold.PLP.part.hbond>
-4.3226

> <Gold.PLP.part.metal>
0.0000

> <Gold.PLP.part.buried>
-4.4553

> <Gold.PLP.part.nonpolar>
-26.8550

> <Gold.PLP.part.repulsive>
0.2360

> <Gold.PLP.ligand.clash>
0.0000

> <Gold.PLP.ligand.torsion>
1.1251

> <Gold.PLP.Chemscore.Hbond>
3.6128

> <Gold.PLP.Chemscore.CHOScore>
0.0000

> <Gold.PLP.Chemscore.Metal>
0.0000

> <Gold.Chemscore.Hbonds>
donor molecule, donor type, donor heavy atom, donor atom, acceptor molecule, acceptor atom, score
      P1  H  6896  6908       L1    19  0.54
      P1  H  7997  8010       L1     8  2.00
      P1  H 10752 10765       L1     7  0.91

> <Gold.PLP.Chemscore.Internal.Correction>
0.0544

> <Gold.Rescore>
     Score         DG    S(hbond)    S(metal)    S(lipo)     H(rot)  DE(clash)    DE(int)     intcor
     15.75     -18.17       1.87        0.00      88.75       1.54       0.03       2.39       ----

> <Gold.Chemscore.Fitness>
15.7452

> <Gold.Chemscore.DG>
-18.1672

> <Gold.Chemscore.ZeroCoef>
-5.4800

> <Gold.Chemscore.Hbond>
1.8708

> <Gold.Chemscore.Metal>
0.0000

> <Gold.Chemscore.Lipo>
88.7480

> <Gold.Chemscore.Internal_Hbond>
0.0000

> <Gold.Chemscore.DEClash>
0.0288

> <Gold.Chemscore.DEInternal>
2.3932

> <Gold.Chemscore.Rot>
1.5409

> <Gold.Chemscore.Internal.Correction>
   9.000000E+99

> <Gold.Chemscore.Hbonds>
donor molecule, donor type, donor heavy atom, donor atom, acceptor molecule, acceptor atom, score
      P1  H  6896  6908       L1    19  0.03
      P1  H  7997  8010       L1     8  0.86
      P1  H 10752 10765       L1     7  0.83

> <Gold.Chemscore.Hbond.Weighted>
-6.2483

> <Gold.Chemscore.Metal.Weighted>
-0.0000

> <Gold.Chemscore.Lipo.Weighted>
-10.3835

> <Gold.Chemscore.Internal_Hbond.Weighted>
0.0000

> <Gold.Chemscore.DEClash.Weighted>
0.0288

> <Gold.Chemscore.DEInternal.Weighted>
2.3932

> <Gold.Chemscore.Rot.Weighted>
3.9446

> <Gold.Chemscore.Internal.Correction.Weighted>
   9.000000E+99

> <Gold.Protein.RotatedTorsions>
[ 6907 6896 6895 6894 ] final    1.89 input  -60.11 | X-H torsion
[ 7974 7965 7964 7962 ] final -103.73 input  175.53 | X-H torsion
[ 8008 7997 7996 7995 ] final   55.54 input   59.86 | X-H torsion
[ 10167 10162 10161 10158 ] final -103.47 input  -65.29 | X-H torsion
[ 10718 10713 10712 10709 ] final  -78.44 input   66.30 | X-H torsion
[ 10763 10752 10751 10750 ] final -160.19 input  -60.55 | X-H torsion
[ 11005 11000 10999 10996 ] final  -10.09 input  -57.11 | X-H torsion

> <Gold.Protein.ActiveResidues>
 VAL166  LYS551  ARG553  GLY616  TRP617  ASP618  TYR619  PRO620  LYS621  CYS622 
 ASP623  PHE694  ASN695  SER759  ASP760  ASP761  ALA762  ILE779  LEU786  VAL792 
 PHE793  MET794  SER795  GLU796  ALA797  LYS798  CYS799  TRP800  GLU811  SER814 

> <Gold.Protein.RotatedAtoms>
  151.5999  135.1048  160.0057 H   0  0  0  0  0  0  0  0  0  0  0  0  # atno 6907 bound_to 6896
  152.4263  133.7196  159.6536 H   0  0  0  0  0  0  0  0  0  0  0  0  # atno 6908 bound_to 6896
  150.8152  133.8278  159.3186 H   0  0  0  0  0  0  0  0  0  0  0  0  # atno 6909 bound_to 6896
  145.2522  140.9242  143.3089 H   0  0  0  0  0  0  0  0  0  0  0  0  # atno 7974 bound_to 7965
  155.5027  140.3475  155.4374 H   0  0  0  0  0  0  0  0  0  0  0  0  # atno 8008 bound_to 7997
  156.0903  140.1409  156.9629 H   0  0  0  0  0  0  0  0  0  0  0  0  # atno 8009 bound_to 7997
  154.4631  140.0927  156.6923 H   0  0  0  0  0  0  0  0  0  0  0  0  # atno 8010 bound_to 7997
  140.2196  143.3686  152.0981 H   0  0  0  0  0  0  0  0  0  0  0  0  # atno 10167 bound_to 10162
  156.0117  130.4518  150.3497 H   0  0  0  0  0  0  0  0  0  0  0  0  # atno 10718 bound_to 10713
  154.7411  135.3069  154.8726 H   0  0  0  0  0  0  0  0  0  0  0  0  # atno 10763 bound_to 10752
  153.9540  135.6760  153.4748 H   0  0  0  0  0  0  0  0  0  0  0  0  # atno 10764 bound_to 10752
  153.1010  135.4912  154.8792 H   0  0  0  0  0  0  0  0  0  0  0  0  # atno 10765 bound_to 10752
  140.7410  133.8670  155.8968 H   0  0  0  0  0  0  0  0  0  0  0  0  # atno 11005 bound_to 11000
  144.9493  139.4101  143.6410 LP  0  0  0  0  0  0  0  0  0  0  0  0  # atno 17320 bound_to 7965
  146.3299  139.8492  142.8876 LP  0  0  0  0  0  0  0  0  0  0  0  0  # atno 17321 bound_to 7965
  139.5149  144.6955  151.5643 LP  0  0  0  0  0  0  0  0  0  0  0  0  # atno 17342 bound_to 10162
  140.6265  143.9159  150.6569 LP  0  0  0  0  0  0  0  0  0  0  0  0  # atno 17343 bound_to 10162
  157.1590  131.0340  151.2850 LP  0  0  0  0  0  0  0  0  0  0  0  0  # atno 17370 bound_to 10713
  157.4327  130.7500  149.7003 LP  0  0  0  0  0  0  0  0  0  0  0  0  # atno 17371 bound_to 10713
  140.9836  134.1372  157.4472 LP  0  0  0  0  0  0  0  0  0  0  0  0  # atno 17394 bound_to 11000
  139.8806  135.0018  156.6091 LP  0  0  0  0  0  0  0  0  0  0  0  0  # atno 17395 bound_to 11000

$$$$
