AV-unprocessed.smi:740|AV-procd|sdf|3548|dock9
  -GOLD-   22720 0543D 1   1.00000     0.00000
 Structure written by MMmdl.
 44 46  0  0  0  0  0  0  0  0  1 V2000
  153.4304  142.3272  160.9453 C   0  0  0  0  0  0  0  0  0  0  0  0
  152.5271  142.0786  159.7500 C   0  0  0  0  0  0  0  0  0  0  0  0
  152.3994  140.7644  159.2469 C   0  0  0  0  0  0  0  0  0  0  0  0
  151.5723  140.4913  158.1355 C   0  0  0  0  0  0  0  0  0  0  0  0
  151.3060  139.2982  157.4857 N   0  0  0  0  0  0  0  0  0  0  0  0
  150.4681  139.6944  156.5321 C   0  0  0  0  0  0  0  0  0  0  0  0
  150.1576  141.0042  156.4886 N   0  0  0  0  0  0  0  0  0  0  0  0
  149.2735  141.6585  155.5406 C   0  0  0  0  0  0  0  0  0  0  0  0
  148.8323  140.7177  154.4029 C   0  0  2  0  0  0  0  0  0  0  0  0
  149.7965  140.7739  153.3691 O   0  0  0  0  0  0  0  0  0  0  0  0
  147.4604  141.1235  153.8256 C   0  0  0  0  0  0  0  0  0  0  0  0
  146.6575  141.8732  154.7984 N   0  0  0  0  0  0  0  0  0  0  0  0
  146.3209  141.4096  156.0099 C   0  0  0  0  0  0  0  0  0  0  0  0
  146.6378  140.3202  156.4868 O   0  0  0  0  0  0  0  0  0  0  0  0
  145.4604  142.4163  156.7603 C   0  0  0  0  0  0  0  0  0  0  0  0
  145.3297  143.5797  155.7657 C   0  0  2  0  0  0  0  0  0  0  0  0
  143.8771  143.9060  155.3815 C   0  0  0  0  0  0  0  0  0  0  0  0
  146.1369  143.0865  154.5664 C   0  0  0  0  0  0  0  0  0  0  0  0
  146.2669  143.7466  153.5354 O   0  0  0  0  0  0  0  0  0  0  0  0
  150.8688  141.5774  157.5374 C   0  0  0  0  0  0  0  0  0  0  0  0
  150.9871  142.8893  158.0294 C   0  0  0  0  0  0  0  0  0  0  0  0
  151.8195  143.1450  159.1392 C   0  0  0  0  0  0  0  0  0  0  0  0
  151.9439  144.5658  159.6601 C   0  0  0  0  0  0  0  0  0  0  0  0
  153.8681  141.3991  161.3137 H   0  0  0  0  0  0  0  0  0  0  0  0
  152.8685  142.7789  161.7631 H   0  0  0  0  0  0  0  0  0  0  0  0
  154.2460  142.9975  160.6731 H   0  0  0  0  0  0  0  0  0  0  0  0
  152.9391  139.9521  159.7111 H   0  0  0  0  0  0  0  0  0  0  0  0
  150.0560  138.9924  155.8218 H   0  0  0  0  0  0  0  0  0  0  0  0
  148.4015  142.0196  156.0876 H   0  0  0  0  0  0  0  0  0  0  0  0
  149.7756  142.5402  155.1402 H   0  0  0  0  0  0  0  0  0  0  0  0
  148.7925  139.6977  154.7878 H   0  0  0  0  0  0  0  0  0  0  0  0
  149.5596  140.1489  152.7011 H   0  0  0  0  0  0  0  0  0  0  0  0
  147.6077  141.7592  152.9506 H   0  0  0  0  0  0  0  0  0  0  0  0
  146.9230  140.2492  153.4535 H   0  0  0  0  0  0  0  0  0  0  0  0
  144.4974  141.9709  157.0125 H   0  0  0  0  0  0  0  0  0  0  0  0
  145.9524  142.7250  157.6832 H   0  0  0  0  0  0  0  0  0  0  0  0
  145.8136  144.4706  156.1682 H   0  0  0  0  0  0  0  0  0  0  0  0
  143.8321  144.7284  154.6667 H   0  0  0  0  0  0  0  0  0  0  0  0
  143.3016  144.2028  156.2585 H   0  0  0  0  0  0  0  0  0  0  0  0
  143.3777  143.0462  154.9328 H   0  0  0  0  0  0  0  0  0  0  0  0
  150.4442  143.6926  157.5537 H   0  0  0  0  0  0  0  0  0  0  0  0
  151.3517  145.2609  159.0641 H   0  0  0  0  0  0  0  0  0  0  0  0
  152.9822  144.8966  159.6253 H   0  0  0  0  0  0  0  0  0  0  0  0
  151.5943  144.6265  160.6908 H   0  0  0  0  0  0  0  0  0  0  0  0
  1  2  1  0  0  0  0
  1 24  1  0  0  0  0
  1 25  1  0  0  0  0
  1 26  1  0  0  0  0
  2 22  1  0  0  0  0
  2  3  2  0  0  0  0
  3  4  1  0  0  0  0
  3 27  1  0  0  0  0
  4 20  2  0  0  0  0
  4  5  1  0  0  0  0
  5  6  2  0  0  0  0
  6  7  1  0  0  0  0
  6 28  1  0  0  0  0
  7  8  1  0  0  0  0
  7 20  1  0  0  0  0
  8  9  1  0  0  0  0
  8 29  1  0  0  0  0
  8 30  1  0  0  0  0
  9 10  1  0  0  0  0
  9 11  1  0  0  0  0
  9 31  1  0  0  0  0
 10 32  1  0  0  0  0
 11 12  1  0  0  0  0
 11 33  1  0  0  0  0
 11 34  1  0  0  0  0
 12 18  1  0  0  0  0
 12 13  1  0  0  0  0
 13 14  2  0  0  0  0
 13 15  1  0  0  0  0
 15 16  1  0  0  0  0
 15 35  1  0  0  0  0
 15 36  1  0  0  0  0
 16 17  1  0  0  0  0
 16 18  1  0  0  0  0
 16 37  1  0  0  0  0
 17 38  1  0  0  0  0
 17 39  1  0  0  0  0
 17 40  1  0  0  0  0
 18 19  2  0  0  0  0
 20 21  1  0  0  0  0
 21 22  2  0  0  0  0
 21 41  1  0  0  0  0
 22 23  1  0  0  0  0
 23 42  1  0  0  0  0
 23 43  1  0  0  0  0
 23 44  1  0  0  0  0
M  END
> <s_m_source_file>
AV-unprocessed.smi

> <i_m_source_file_index>
740

> <i_lp_mmshare_version>
43012

> <i_f3d_flags>
0

> <s_epik_input>
W0NIM11jKFtjSF0xKWMoW0NIM10pW2NIXWMoYzEyKW4oW2NIXW4yKVtDSDJdW0NASF0oW09IXSlbQ0gyXU4zQyg9TylbQ0gyXVtDQEBIXShbQ0gzXSlDMz1P

> <s_epik_cmdline>
J2VwaWtfcHl0aG9uJywgJy1waCcsICc3LjAnLCAnLXRuJywgJzgnLCAnLW1hJywgJzIwMCcsICctbWV0YWxfYmluZGluZycsICctaW1hZScsICc8aW5maWxlLm1hZT4nLCAnLW9tYWUnLCAnPG91dGZpbGUubWFlPic=

> <r_lp_tautomer_probability>
1

> <r_epik_Ionization_Penalty>
0.104021

> <r_epik_Ionization_Penalty_Charging>
0

> <r_epik_Ionization_Penalty_Neutral>
0.104021

> <r_epik_State_Penalty>
0.0939354

> <r_epik_Charging_Adjusted_Penalty>
0.0939354

> <i_epik_Tot_Q>
0

> <i_epik_Tot_abs_Q>
0

> <r_epik_Metal_State_Penalty>
0.000101783

> <b_epik_Metal_Only>
0

> <s_lp_Force_Field>
OPLS_2005

> <r_lp_Energy>
16.7866

> <b_lp_Chiralities_Consistent>
1

> <s_lp_Variant>
AV-unprocessed.smi:740-3

> <Gold.Version>
5.8.1

> <Gold.Id.Protein>
6NUR|6NUR_protein|mol2

> <Gold.PLP.Fitness>
48.5082

> <Gold.PLP.PLP>
-44.0282

> <Gold.PLP.part.hbond>
-2.9047

> <Gold.PLP.part.metal>
0.0000

> <Gold.PLP.part.buried>
-2.7323

> <Gold.PLP.part.nonpolar>
-38.3665

> <Gold.PLP.part.repulsive>
0.2274

> <Gold.PLP.ligand.clash>
0.0000

> <Gold.PLP.ligand.torsion>
0.8745

> <Gold.PLP.Chemscore.Hbond>
2.0720

> <Gold.PLP.Chemscore.CHOScore>
0.0000

> <Gold.PLP.Chemscore.Metal>
0.0000

> <Gold.Chemscore.Hbonds>
donor molecule, donor type, donor heavy atom, donor atom, acceptor molecule, acceptor atom, score
      L1  H    10    32       P1  7957  0.75
      P1  H  7989  7998       L1    10  0.30
      P1  H  8011  8017       L1    10  1.00

> <Gold.PLP.Chemscore.Internal.Correction>
0.0130

> <Gold.Rescore>
     Score         DG    S(hbond)    S(metal)    S(lipo)     H(rot)  DE(clash)    DE(int)     intcor
     15.41     -16.27       1.32        0.00     105.15       2.31       0.06       0.80       ----

> <Gold.Chemscore.Fitness>
15.4109

> <Gold.Chemscore.DG>
-16.2679

> <Gold.Chemscore.ZeroCoef>
-5.4800

> <Gold.Chemscore.Hbond>
1.3208

> <Gold.Chemscore.Metal>
0.0000

> <Gold.Chemscore.Lipo>
105.1452

> <Gold.Chemscore.Internal_Hbond>
0.0000

> <Gold.Chemscore.DEClash>
0.0606

> <Gold.Chemscore.DEInternal>
0.7964

> <Gold.Chemscore.Rot>
2.3147

> <Gold.Chemscore.Internal.Correction>
   9.000000E+99

> <Gold.Chemscore.Hbonds>
donor molecule, donor type, donor heavy atom, donor atom, acceptor molecule, acceptor atom, score
      L1  H    10    32       P1  7957  0.72
      P1  H  7989  7998       L1    10  0.21
      P1  H  8011  8017       L1    10  0.23

> <Gold.Chemscore.Hbond.Weighted>
-4.4115

> <Gold.Chemscore.Metal.Weighted>
-0.0000

> <Gold.Chemscore.Lipo.Weighted>
-12.3020

> <Gold.Chemscore.Internal_Hbond.Weighted>
0.0000

> <Gold.Chemscore.DEClash.Weighted>
0.0606

> <Gold.Chemscore.DEInternal.Weighted>
0.7964

> <Gold.Chemscore.Rot.Weighted>
5.9256

> <Gold.Chemscore.Internal.Correction.Weighted>
   9.000000E+99

> <Gold.Protein.RotatedTorsions>
[ 6907 6896 6895 6894 ] final  141.75 input  -60.11 | X-H torsion
[ 7974 7965 7964 7962 ] final   60.65 input  175.53 | X-H torsion
[ 8008 7997 7996 7995 ] final  -24.56 input   59.86 | X-H torsion
[ 10167 10162 10161 10158 ] final  113.56 input  -65.29 | X-H torsion
[ 10718 10713 10712 10709 ] final -109.38 input   66.30 | X-H torsion
[ 10763 10752 10751 10750 ] final  -16.76 input  -60.55 | X-H torsion
[ 11005 11000 10999 10996 ] final    3.88 input  -57.11 | X-H torsion

> <Gold.Protein.ActiveResidues>
 VAL166  LYS551  ARG553  GLY616  TRP617  ASP618  TYR619  PRO620  LYS621  CYS622 
 ASP623  PHE694  ASN695  SER759  ASP760  ASP761  ALA762  ILE779  LEU786  VAL792 
 PHE793  MET794  SER795  GLU796  ALA797  LYS798  CYS799  TRP800  GLU811  SER814 

> <Gold.Protein.RotatedAtoms>
  152.2272  133.5029  159.5195 H   0  0  0  0  0  0  0  0  0  0  0  0  # atno 6907 bound_to 6896
  150.7028  134.1264  159.4063 H   0  0  0  0  0  0  0  0  0  0  0  0  # atno 6908 bound_to 6896
  151.9185  135.0308  160.0571 H   0  0  0  0  0  0  0  0  0  0  0  0  # atno 6909 bound_to 6896
  145.8937  139.3530  143.0634 H   0  0  0  0  0  0  0  0  0  0  0  0  # atno 7974 bound_to 7965
  154.4523  140.1950  156.0483 H   0  0  0  0  0  0  0  0  0  0  0  0  # atno 8008 bound_to 7997
  156.0673  140.3289  155.7506 H   0  0  0  0  0  0  0  0  0  0  0  0  # atno 8009 bound_to 7997
  155.5318  140.0578  157.2878 H   0  0  0  0  0  0  0  0  0  0  0  0  # atno 8010 bound_to 7997
  139.6452  144.7126  151.2156 H   0  0  0  0  0  0  0  0  0  0  0  0  # atno 10167 bound_to 10162
  156.0534  130.5761  150.8091 H   0  0  0  0  0  0  0  0  0  0  0  0  # atno 10718 bound_to 10713
  153.5634  135.7009  153.5537 H   0  0  0  0  0  0  0  0  0  0  0  0  # atno 10763 bound_to 10752
  153.3409  135.4021  155.1570 H   0  0  0  0  0  0  0  0  0  0  0  0  # atno 10764 bound_to 10752
  154.8644  135.3742  154.5153 H   0  0  0  0  0  0  0  0  0  0  0  0  # atno 10765 bound_to 10752
  140.5882  133.9949  155.8077 H   0  0  0  0  0  0  0  0  0  0  0  0  # atno 11005 bound_to 11000
  145.8877  140.9323  143.0568 LP  0  0  0  0  0  0  0  0  0  0  0  0  # atno 17320 bound_to 7965
  144.6732  140.0864  143.7467 LP  0  0  0  0  0  0  0  0  0  0  0  0  # atno 17321 bound_to 7965
  140.7511  143.6243  150.8484 LP  0  0  0  0  0  0  0  0  0  0  0  0  # atno 17342 bound_to 10162
  139.9885  143.5873  152.2918 LP  0  0  0  0  0  0  0  0  0  0  0  0  # atno 17343 bound_to 10162
  157.5482  131.0943  150.9733 LP  0  0  0  0  0  0  0  0  0  0  0  0  # atno 17370 bound_to 10713
  157.0000  130.5596  149.5310 LP  0  0  0  0  0  0  0  0  0  0  0  0  # atno 17371 bound_to 10713
  141.0952  133.9854  157.3171 LP  0  0  0  0  0  0  0  0  0  0  0  0  # atno 17394 bound_to 11000
  139.9286  135.0201  156.8322 LP  0  0  0  0  0  0  0  0  0  0  0  0  # atno 17395 bound_to 11000

$$$$
