AV-unprocessed.smi:2926|AV-procd|sdf|11227|dock10
  -GOLD-   2272016123D 1   1.00000     0.00000
 Structure written by MMmdl.
 32 32  0  0  0  0  0  0  0  0  1 V2000
  146.7139  140.1268  154.3215 C   0  0  0  0  0  0  0  0  0  0  0  0
  147.5038  141.3884  154.7106 C   0  0  0  0  0  0  0  0  0  0  0  0
  146.9001  142.6418  154.0487 C   0  0  0  0  0  0  0  0  0  0  0  0
  149.0256  141.2132  154.4578 C   0  0  2  0  0  0  0  0  0  0  0  0
  149.5512  139.7826  154.7071 C   0  0  0  0  0  0  0  0  0  0  0  0
  150.9611  139.7448  154.6483 O   0  0  0  0  0  0  0  0  0  0  0  0
  149.7793  142.1710  155.2774 N   0  0  0  0  0  0  0  0  0  0  0  0
  150.0969  141.8128  156.9369 S   0  0  0  0  0  0  0  0  0  0  0  0
  148.8051  141.7833  157.6399 O   0  0  0  0  0  0  0  0  0  0  0  0
  150.9905  140.6450  156.9881 O   0  0  0  0  0  0  0  0  0  0  0  0
  151.0436  143.2947  157.4852 C   0  0  0  0  0  0  0  0  0  0  0  0
  151.4386  143.1326  158.9251 C   0  0  0  0  0  0  0  0  0  0  0  0
  152.7432  143.1571  159.4915 C   0  0  0  0  0  0  0  0  0  0  0  0
  152.5157  142.9639  160.8235 C   0  0  0  0  0  0  0  0  0  0  0  0
  151.1872  142.8262  161.0635 O   0  0  0  0  0  0  0  0  0  0  0  0
  150.5077  142.9334  159.8447 N   0  0  0  0  0  0  0  0  0  0  0  0
  149.2103  141.4532  153.4098 H   0  0  0  0  0  0  0  0  0  0  0  0
  146.7593  139.9387  153.2483 H   0  0  0  0  0  0  0  0  0  0  0  0
  145.6626  140.2230  154.5944 H   0  0  0  0  0  0  0  0  0  0  0  0
  147.1036  139.2449  154.8305 H   0  0  0  0  0  0  0  0  0  0  0  0
  147.3650  141.5056  155.7858 H   0  0  0  0  0  0  0  0  0  0  0  0
  146.9921  142.6097  152.9630 H   0  0  0  0  0  0  0  0  0  0  0  0
  147.3802  143.5548  154.3995 H   0  0  0  0  0  0  0  0  0  0  0  0
  145.8390  142.7303  154.2833 H   0  0  0  0  0  0  0  0  0  0  0  0
  149.2574  139.4326  155.6968 H   0  0  0  0  0  0  0  0  0  0  0  0
  149.1397  139.0730  153.9896 H   0  0  0  0  0  0  0  0  0  0  0  0
  151.2811  139.2905  155.4130 H   0  0  0  0  0  0  0  0  0  0  0  0
  149.4066  143.1143  155.1711 H   0  0  0  0  0  0  0  0  0  0  0  0
  151.9156  143.4043  156.8395 H   0  0  0  0  0  0  0  0  0  0  0  0
  150.4157  144.1749  157.3499 H   0  0  0  0  0  0  0  0  0  0  0  0
  153.6937  143.2991  158.9991 H   0  0  0  0  0  0  0  0  0  0  0  0
  153.1629  142.9018  161.6858 H   0  0  0  0  0  0  0  0  0  0  0  0
  1  2  1  0  0  0  0
  1 18  1  0  0  0  0
  1 19  1  0  0  0  0
  1 20  1  0  0  0  0
  2  3  1  0  0  0  0
  2  4  1  0  0  0  0
  2 21  1  0  0  0  0
  3 22  1  0  0  0  0
  3 23  1  0  0  0  0
  3 24  1  0  0  0  0
  4 17  1  0  0  0  0
  4  5  1  0  0  0  0
  4  7  1  0  0  0  0
  5  6  1  0  0  0  0
  5 25  1  0  0  0  0
  5 26  1  0  0  0  0
  6 27  1  0  0  0  0
  7  8  1  0  0  0  0
  7 28  1  0  0  0  0
  8  9  2  0  0  0  0
  8 10  2  0  0  0  0
  8 11  1  0  0  0  0
 11 12  1  0  0  0  0
 11 29  1  0  0  0  0
 11 30  1  0  0  0  0
 12 16  2  0  0  0  0
 12 13  1  0  0  0  0
 13 14  2  0  0  0  0
 13 31  1  0  0  0  0
 14 15  1  0  0  0  0
 14 32  1  0  0  0  0
 15 16  1  0  0  0  0
M  END
> <s_m_source_file>
AV-unprocessed.smi

> <i_m_source_file_index>
2926

> <i_lp_mmshare_version>
43012

> <i_f3d_flags>
0

> <s_epik_input>
W0NIM11bQ0hdKFtDSDNdKVtDQEBIXShbQ0gyXVtPSF0pW05IXVMoPU8pKD1PKVtDSDJdYzFbY0hdW2NIXW9uMQ==

> <s_epik_cmdline>
J2VwaWtfcHl0aG9uJywgJy1waCcsICc3LjAnLCAnLXRuJywgJzgnLCAnLW1hJywgJzIwMCcsICctbWV0YWxfYmluZGluZycsICctaW1hZScsICc8aW5maWxlLm1hZT4nLCAnLW9tYWUnLCAnPG91dGZpbGUubWFlPic=

> <r_lp_tautomer_probability>
1

> <r_epik_Ionization_Penalty>
0.000193122

> <r_epik_Ionization_Penalty_Charging>
0

> <r_epik_Ionization_Penalty_Neutral>
0.000193122

> <r_epik_State_Penalty>
-0

> <r_epik_Charging_Adjusted_Penalty>
0

> <i_epik_Tot_Q>
0

> <i_epik_Tot_abs_Q>
0

> <r_epik_Metal_State_Penalty>
0.130256

> <b_epik_Metal_Only>
0

> <s_lp_Force_Field>
OPLS_2005

> <r_lp_Energy>
0.568984

> <b_lp_Chiralities_Consistent>
1

> <s_lp_Variant>
AV-unprocessed.smi:2926-2

> <Gold.Version>
5.8.1

> <Gold.Id.Protein>
6NUR|6NUR_protein|mol2

> <Gold.PLP.Fitness>
38.7026

> <Gold.PLP.PLP>
-33.3232

> <Gold.PLP.part.hbond>
-4.1148

> <Gold.PLP.part.metal>
0.0000

> <Gold.PLP.part.buried>
-3.4324

> <Gold.PLP.part.nonpolar>
-25.6573

> <Gold.PLP.part.repulsive>
0.1895

> <Gold.PLP.ligand.clash>
0.0000

> <Gold.PLP.ligand.torsion>
0.6793

> <Gold.PLP.Chemscore.Hbond>
2.1732

> <Gold.PLP.Chemscore.CHOScore>
0.0000

> <Gold.PLP.Chemscore.Metal>
0.0000

> <Gold.Chemscore.Hbonds>
donor molecule, donor type, donor heavy atom, donor atom, acceptor molecule, acceptor atom, score
      L1  H     7    28       P1  8028  1.00
      P1  H  6933  6945       L1    15  0.22
      P1  H  7989  7998       L1     6  1.00

> <Gold.PLP.Chemscore.Internal.Correction>
0.2185

> <Gold.Rescore>
     Score         DG    S(hbond)    S(metal)    S(lipo)     H(rot)  DE(clash)    DE(int)     intcor
     10.19     -13.34       2.01        0.00      74.45       2.96       0.03       3.13       ----

> <Gold.Chemscore.Fitness>
10.1869

> <Gold.Chemscore.DG>
-13.3430

> <Gold.Chemscore.ZeroCoef>
-5.4800

> <Gold.Chemscore.Hbond>
2.0123

> <Gold.Chemscore.Metal>
0.0000

> <Gold.Chemscore.Lipo>
74.4487

> <Gold.Chemscore.Internal_Hbond>
0.0000

> <Gold.Chemscore.DEClash>
0.0252

> <Gold.Chemscore.DEInternal>
3.1309

> <Gold.Chemscore.Rot>
2.9564

> <Gold.Chemscore.Internal.Correction>
   9.000000E+99

> <Gold.Chemscore.Hbonds>
donor molecule, donor type, donor heavy atom, donor atom, acceptor molecule, acceptor atom, score
      L1  H     7    28       P1  8028  0.99
      P1  H  6933  6945       L1    15  0.11
      P1  H  7989  7998       L1     6  0.85

> <Gold.Chemscore.Hbond.Weighted>
-6.7210

> <Gold.Chemscore.Metal.Weighted>
-0.0000

> <Gold.Chemscore.Lipo.Weighted>
-8.7105

> <Gold.Chemscore.Internal_Hbond.Weighted>
0.0000

> <Gold.Chemscore.DEClash.Weighted>
0.0252

> <Gold.Chemscore.DEInternal.Weighted>
3.1309

> <Gold.Chemscore.Rot.Weighted>
7.5685

> <Gold.Chemscore.Internal.Correction.Weighted>
   9.000000E+99

> <Gold.Protein.RotatedTorsions>
[ 6907 6896 6895 6894 ] final  -93.47 input  -60.11 | X-H torsion
[ 7974 7965 7964 7962 ] final -147.33 input  175.53 | X-H torsion
[ 8008 7997 7996 7995 ] final   99.62 input   59.86 | X-H torsion
[ 10167 10162 10161 10158 ] final  -79.03 input  -65.29 | X-H torsion
[ 10718 10713 10712 10709 ] final   12.06 input   66.30 | X-H torsion
[ 10763 10752 10751 10750 ] final   -5.24 input  -60.55 | X-H torsion
[ 11005 11000 10999 10996 ] final  -50.33 input  -57.11 | X-H torsion

> <Gold.Protein.ActiveResidues>
 VAL166  LYS551  ARG553  GLY616  TRP617  ASP618  TYR619  PRO620  LYS621  CYS622 
 ASP623  PHE694  ASN695  SER759  ASP760  ASP761  ALA762  ILE779  LEU786  VAL792 
 PHE793  MET794  SER795  GLU796  ALA797  LYS798  CYS799  TRP800  GLU811  SER814 

> <Gold.Protein.RotatedAtoms>
  150.6923  134.1962  159.4304 H   0  0  0  0  0  0  0  0  0  0  0  0  # atno 6907 bound_to 6896
  151.9931  134.9966  160.0571 H   0  0  0  0  0  0  0  0  0  0  0  0  # atno 6908 bound_to 6896
  152.1649  133.4571  159.4916 H   0  0  0  0  0  0  0  0  0  0  0  0  # atno 6909 bound_to 6896
  144.8101  140.5341  143.5648 H   0  0  0  0  0  0  0  0  0  0  0  0  # atno 7974 bound_to 7965
  156.1123  140.3226  155.8089 H   0  0  0  0  0  0  0  0  0  0  0  0  # atno 8008 bound_to 7997
  155.4652  140.0542  157.3003 H   0  0  0  0  0  0  0  0  0  0  0  0  # atno 8009 bound_to 7997
  154.4768  140.2036  155.9873 H   0  0  0  0  0  0  0  0  0  0  0  0  # atno 8010 bound_to 7997
  140.4630  143.2448  151.8320 H   0  0  0  0  0  0  0  0  0  0  0  0  # atno 10167 bound_to 10162
  157.0046  130.6093  149.5700 H   0  0  0  0  0  0  0  0  0  0  0  0  # atno 10718 bound_to 10713
  153.3958  135.7003  153.6462 H   0  0  0  0  0  0  0  0  0  0  0  0  # atno 10763 bound_to 10752
  153.5016  135.3651  155.2543 H   0  0  0  0  0  0  0  0  0  0  0  0  # atno 10764 bound_to 10752
  154.8706  135.4113  154.3283 H   0  0  0  0  0  0  0  0  0  0  0  0  # atno 10765 bound_to 10752
  141.0810  133.6653  156.3716 H   0  0  0  0  0  0  0  0  0  0  0  0  # atno 11005 bound_to 11000
  145.5345  139.1475  143.3481 LP  0  0  0  0  0  0  0  0  0  0  0  0  # atno 17320 bound_to 7965
  146.2398  140.5485  142.8939 LP  0  0  0  0  0  0  0  0  0  0  0  0  # atno 17321 bound_to 7965
  139.4808  144.4985  151.9092 LP  0  0  0  0  0  0  0  0  0  0  0  0  # atno 17342 bound_to 10162
  140.4070  144.2418  150.5890 LP  0  0  0  0  0  0  0  0  0  0  0  0  # atno 17343 bound_to 10162
  156.0158  130.5252  150.8131 LP  0  0  0  0  0  0  0  0  0  0  0  0  # atno 17370 bound_to 10713
  157.5365  131.0939  150.9885 LP  0  0  0  0  0  0  0  0  0  0  0  0  # atno 17371 bound_to 10713
  140.5468  134.6066  157.5396 LP  0  0  0  0  0  0  0  0  0  0  0  0  # atno 17394 bound_to 11000
  139.9624  134.7430  156.0209 LP  0  0  0  0  0  0  0  0  0  0  0  0  # atno 17395 bound_to 11000

$$$$
