AV-unprocessed.smi:1295|AV-procd|sdf|5410|dock3
  -GOLD-   22720 4563D 1   1.00000     0.00000
 Structure written by MMmdl.
 42 43  0  0  0  0  0  0  0  0  2 V2000
  153.3242  137.4700  160.9754 C   0  0  0  0  0  0  0  0  0  0  0  0
  152.7401  137.5012  159.5794 C   0  0  0  0  0  0  0  0  0  0  0  0
  151.5319  137.1239  159.3992 N   0  0  0  0  0  0  0  0  0  0  0  0
  150.9833  137.1553  158.1060 C   0  0  0  0  0  0  0  0  0  0  0  0
  149.5391  136.6990  157.9875 C   0  0  0  0  0  0  0  0  0  0  0  0
  151.7186  137.5772  157.0373 C   0  0  0  0  0  0  0  0  0  0  0  0
  151.1623  137.6401  155.6151 C   0  0  0  0  0  0  0  0  0  0  0  0
  150.9224  139.0448  155.0580 C   0  0  0  0  0  0  0  0  0  0  0  0
  151.8712  139.7976  154.8386 O   0  0  0  0  0  0  0  0  0  0  0  0
  149.6424  139.3776  154.8300 N   0  0  0  0  0  0  0  0  0  0  0  0
  149.1622  140.6340  154.2524 C   0  0  1  0  0  0  0  0  0  0  0  0
  147.7676  140.4166  153.6317 C   0  0  0  0  0  0  0  0  0  0  0  0
  146.6859  140.1813  154.7009 C   0  0  0  0  0  0  0  0  0  0  0  0
  146.6602  141.3247  155.7263 C   0  0  0  0  0  0  0  0  0  0  0  0
  148.0427  141.5362  156.3642 C   0  0  0  0  0  0  0  0  0  0  0  0
  149.1303  141.7793  155.2970 C   0  0  1  0  0  0  0  0  0  0  0  0
  150.5016  142.0517  155.9384 C   0  0  0  0  0  0  0  0  0  0  0  0
  153.1099  137.9956  157.2865 C   0  0  0  0  0  0  0  0  0  0  0  0
  153.8225  138.3708  156.3562 O   0  0  0  0  0  0  0  0  0  0  0  0
  153.5647  137.9468  158.5711 N   0  5  0  0  0  0  0  0  0  0  0  0
  152.6666  136.9383  161.6645 H   0  0  0  0  0  0  0  0  0  0  0  0
  153.4624  138.4854  161.3472 H   0  0  0  0  0  0  0  0  0  0  0  0
  154.2919  136.9673  160.9723 H   0  0  0  0  0  0  0  0  0  0  0  0
  148.9065  137.5170  157.6426 H   0  0  0  0  0  0  0  0  0  0  0  0
  149.1527  136.3591  158.9491 H   0  0  0  0  0  0  0  0  0  0  0  0
  149.4529  135.8710  157.2838 H   0  0  0  0  0  0  0  0  0  0  0  0
  151.8565  137.1120  154.9604 H   0  0  0  0  0  0  0  0  0  0  0  0
  150.2304  137.0802  155.5342 H   0  0  0  0  0  0  0  0  0  0  0  0
  148.9376  138.6901  155.0535 H   0  0  0  0  0  0  0  0  0  0  0  0
  149.8301  140.9331  153.4428 H   0  0  0  0  0  0  0  0  0  0  0  0
  147.4988  141.2936  153.0414 H   0  0  0  0  0  0  0  0  0  0  0  0
  147.7918  139.5789  152.9334 H   0  0  0  0  0  0  0  0  0  0  0  0
  145.7094  140.0872  154.2255 H   0  0  0  0  0  0  0  0  0  0  0  0
  146.8695  139.2352  155.2119 H   0  0  0  0  0  0  0  0  0  0  0  0
  146.3383  142.2454  155.2383 H   0  0  0  0  0  0  0  0  0  0  0  0
  145.9226  141.1125  156.5008 H   0  0  0  0  0  0  0  0  0  0  0  0
  147.9988  142.3836  157.0491 H   0  0  0  0  0  0  0  0  0  0  0  0
  148.3029  140.6670  156.9698 H   0  0  0  0  0  0  0  0  0  0  0  0
  148.8544  142.6883  154.7602 H   0  0  0  0  0  0  0  0  0  0  0  0
  150.8346  141.2143  156.5518 H   0  0  0  0  0  0  0  0  0  0  0  0
  150.4650  142.9325  156.5798 H   0  0  0  0  0  0  0  0  0  0  0  0
  151.2613  142.2302  155.1770 H   0  0  0  0  0  0  0  0  0  0  0  0
  1  2  1  0  0  0  0
  1 21  1  0  0  0  0
  1 22  1  0  0  0  0
  1 23  1  0  0  0  0
  2 20  1  0  0  0  0
  2  3  2  0  0  0  0
  3  4  1  0  0  0  0
  4  5  1  0  0  0  0
  4  6  2  0  0  0  0
  5 24  1  0  0  0  0
  5 25  1  0  0  0  0
  5 26  1  0  0  0  0
  6  7  1  0  0  0  0
  6 18  1  0  0  0  0
  7  8  1  0  0  0  0
  7 27  1  0  0  0  0
  7 28  1  0  0  0  0
  8  9  2  0  0  0  0
  8 10  1  0  0  0  0
 10 11  1  0  0  0  0
 10 29  1  0  0  0  0
 11 16  1  0  0  0  0
 11 12  1  0  0  0  0
 11 30  1  0  0  0  0
 12 13  1  0  0  0  0
 12 31  1  0  0  0  0
 12 32  1  0  0  0  0
 13 14  1  0  0  0  0
 13 33  1  0  0  0  0
 13 34  1  0  0  0  0
 14 15  1  0  0  0  0
 14 35  1  0  0  0  0
 14 36  1  0  0  0  0
 15 16  1  0  0  0  0
 15 37  1  0  0  0  0
 15 38  1  0  0  0  0
 16 17  1  0  0  0  0
 16 39  1  0  0  0  0
 17 40  1  0  0  0  0
 17 41  1  0  0  0  0
 17 42  1  0  0  0  0
 18 19  2  0  0  0  0
 18 20  1  0  0  0  0
M  CHG  1  20  -1
M  END
> <s_m_source_file>
AV-unprocessed.smi

> <i_m_source_file_index>
1295

> <i_lp_mmshare_version>
43012

> <i_f3d_flags>
0

> <s_epik_input>
W0NIM11jMW5jKFtDSDNdKWMoYyg9TylbbkhdMSlbQ0gyXUMoPU8pW05IXVtDQEBIXTJbQ0gyXVtDSDJdW0NIMl1bQ0gyXVtDQEhdMltDSDNd

> <s_epik_cmdline>
J2VwaWtfcHl0aG9uJywgJy1waCcsICc3LjAnLCAnLXRuJywgJzgnLCAnLW1hJywgJzIwMCcsICctbWV0YWxfYmluZGluZycsICctaW1hZScsICc8aW5maWxlLm1hZT4nLCAnLW9tYWUnLCAnPG91dGZpbGUubWFlPic=

> <r_lp_tautomer_probability>
0.839158

> <r_epik_Ionization_Penalty>
6.67742

> <r_epik_Ionization_Penalty_Charging>
7.78154e-08

> <r_epik_Ionization_Penalty_Neutral>
6.67742

> <r_epik_State_Penalty>
4.51991

> <r_epik_Charging_Adjusted_Penalty>
4.51991

> <i_epik_Tot_Q>
-1

> <i_epik_Tot_abs_Q>
1

> <r_epik_Metal_State_Penalty>
0.853272

> <b_epik_Metal_Only>
1

> <s_lp_Force_Field>
OPLS_2005

> <r_lp_Energy>
15.7399

> <b_lp_Chiralities_Consistent>
1

> <s_lp_Variant>
AV-unprocessed.smi:1295-10

> <Gold.Version>
5.8.1

> <Gold.Id.Protein>
6NUR|6NUR_protein|mol2

> <Gold.PLP.Fitness>
32.4156

> <Gold.PLP.PLP>
-25.6963

> <Gold.PLP.part.hbond>
-3.0000

> <Gold.PLP.part.metal>
0.0000

> <Gold.PLP.part.buried>
-2.3445

> <Gold.PLP.part.nonpolar>
-19.6818

> <Gold.PLP.part.repulsive>
0.1245

> <Gold.PLP.ligand.clash>
0.0000

> <Gold.PLP.ligand.torsion>
0.4481

> <Gold.PLP.Chemscore.Hbond>
2.5360

> <Gold.PLP.Chemscore.CHOScore>
0.0000

> <Gold.PLP.Chemscore.Metal>
0.0000

> <Gold.Chemscore.Hbonds>
donor molecule, donor type, donor heavy atom, donor atom, acceptor molecule, acceptor atom, score
      P1  H  6896  6907       L1     3  0.93
      P1  H  7989  7998       L1     9  0.96
      P1  H  7997  8009       L1    19  0.61

> <Gold.PLP.Chemscore.Internal.Correction>
0.0075

> <Gold.Rescore>
     Score         DG    S(hbond)    S(metal)    S(lipo)     H(rot)  DE(clash)    DE(int)     intcor
     13.47     -16.85       2.39        0.00      60.63       1.45       0.21       3.17       ----

> <Gold.Chemscore.Fitness>
13.4683

> <Gold.Chemscore.DG>
-16.8462

> <Gold.Chemscore.ZeroCoef>
-5.4800

> <Gold.Chemscore.Hbond>
2.3868

> <Gold.Chemscore.Metal>
0.0000

> <Gold.Chemscore.Lipo>
60.6278

> <Gold.Chemscore.Internal_Hbond>
0.0000

> <Gold.Chemscore.DEClash>
0.2114

> <Gold.Chemscore.DEInternal>
3.1664

> <Gold.Chemscore.Rot>
1.4450

> <Gold.Chemscore.Internal.Correction>
   9.000000E+99

> <Gold.Chemscore.Hbonds>
donor molecule, donor type, donor heavy atom, donor atom, acceptor molecule, acceptor atom, score
      P1  H  6896  6907       L1     3  0.24
      P1  H  7989  7998       L1     9  0.84
      P1  H  7997  8009       L1    19  0.59

> <Gold.Chemscore.Hbond.Weighted>
-7.9719

> <Gold.Chemscore.Metal.Weighted>
-0.0000

> <Gold.Chemscore.Lipo.Weighted>
-7.0935

> <Gold.Chemscore.Internal_Hbond.Weighted>
0.0000

> <Gold.Chemscore.DEClash.Weighted>
0.2114

> <Gold.Chemscore.DEInternal.Weighted>
3.1664

> <Gold.Chemscore.Rot.Weighted>
3.6992

> <Gold.Chemscore.Internal.Correction.Weighted>
   9.000000E+99

> <Gold.Protein.RotatedTorsions>
[ 6907 6896 6895 6894 ] final  -17.41 input  -60.11 | X-H torsion
[ 7974 7965 7964 7962 ] final  -54.02 input  175.53 | X-H torsion
[ 8008 7997 7996 7995 ] final -166.28 input   59.86 | X-H torsion
[ 10167 10162 10161 10158 ] final   35.96 input  -65.29 | X-H torsion
[ 10718 10713 10712 10709 ] final  168.80 input   66.30 | X-H torsion
[ 10763 10752 10751 10750 ] final -118.59 input  -60.55 | X-H torsion
[ 11005 11000 10999 10996 ] final  -81.36 input  -57.11 | X-H torsion

> <Gold.Protein.ActiveResidues>
 VAL166  LYS551  ARG553  GLY616  TRP617  ASP618  TYR619  PRO620  LYS621  CYS622 
 ASP623  PHE694  ASN695  SER759  ASP760  ASP761  ALA762  ILE779  LEU786  VAL792 
 PHE793  MET794  SER795  GLU796  ALA797  LYS798  CYS799  TRP800  GLU811  SER814 

> <Gold.Protein.RotatedAtoms>
  151.2938  135.0749  159.9213 H   0  0  0  0  0  0  0  0  0  0  0  0  # atno 6907 bound_to 6896
  152.5311  133.9904  159.7858 H   0  0  0  0  0  0  0  0  0  0  0  0  # atno 6908 bound_to 6896
  151.0179  133.5853  159.2705 H   0  0  0  0  0  0  0  0  0  0  0  0  # atno 6909 bound_to 6896
  145.8903  140.8076  142.9795 H   0  0  0  0  0  0  0  0  0  0  0  0  # atno 7974 bound_to 7965
  155.8616  140.0979  157.1610 H   0  0  0  0  0  0  0  0  0  0  0  0  # atno 8008 bound_to 7997
  154.3991  140.1364  156.4030 H   0  0  0  0  0  0  0  0  0  0  0  0  # atno 8009 bound_to 7997
  155.7850  140.3457  155.5320 H   0  0  0  0  0  0  0  0  0  0  0  0  # atno 8010 bound_to 7997
  140.4173  144.1509  150.6144 H   0  0  0  0  0  0  0  0  0  0  0  0  # atno 10167 bound_to 10162
  157.0319  131.0262  151.2742 H   0  0  0  0  0  0  0  0  0  0  0  0  # atno 10718 bound_to 10713
  154.8592  135.4268  154.2163 H   0  0  0  0  0  0  0  0  0  0  0  0  # atno 10763 bound_to 10752
  153.3178  135.6980  153.7064 H   0  0  0  0  0  0  0  0  0  0  0  0  # atno 10764 bound_to 10752
  153.6131  135.3515  155.2959 H   0  0  0  0  0  0  0  0  0  0  0  0  # atno 10765 bound_to 10752
  141.1666  133.7193  156.8411 H   0  0  0  0  0  0  0  0  0  0  0  0  # atno 11005 bound_to 11000
  144.6730  140.1519  143.7429 LP  0  0  0  0  0  0  0  0  0  0  0  0  # atno 17320 bound_to 7965
  145.8916  139.2379  143.1546 LP  0  0  0  0  0  0  0  0  0  0  0  0  # atno 17321 bound_to 7965
  140.4573  143.2463  151.9268 LP  0  0  0  0  0  0  0  0  0  0  0  0  # atno 17342 bound_to 10162
  139.4782  144.5503  151.8396 LP  0  0  0  0  0  0  0  0  0  0  0  0  # atno 17343 bound_to 10162
  157.5171  130.7975  149.7768 LP  0  0  0  0  0  0  0  0  0  0  0  0  # atno 17370 bound_to 10713
  156.0067  130.3852  150.2407 LP  0  0  0  0  0  0  0  0  0  0  0  0  # atno 17371 bound_to 10713
  140.1982  134.8916  157.3139 LP  0  0  0  0  0  0  0  0  0  0  0  0  # atno 17394 bound_to 11000
  140.2216  134.4017  155.7563 LP  0  0  0  0  0  0  0  0  0  0  0  0  # atno 17395 bound_to 11000

$$$$
