AV-unprocessed.smi:1768|AV-procd|sdf|7148|dock8
  -GOLD-   22720 8383D 1   1.00000     0.00000
 Structure written by MMmdl.
 32 33  0  0  0  0  0  0  0  0  2 V2000
  146.8812  135.5067  162.2623 C   0  0  0  0  0  0  0  0  0  0  0  0
  147.6150  135.9257  161.0348 C   0  0  0  0  0  0  0  0  0  0  0  0
  148.0675  137.1688  160.8533 N   0  0  0  0  0  0  0  0  0  0  0  0
  148.7152  137.3161  159.6353 N   0  0  0  0  0  0  0  0  0  0  0  0
  148.7327  136.1895  158.9089 C   0  0  0  0  0  0  0  0  0  0  0  0
  149.3133  136.1217  157.6995 N   0  5  0  0  0  0  0  0  0  0  0  0
  150.4635  136.7931  157.4627 C   0  0  0  0  0  0  0  0  0  0  0  0
  151.5135  136.6901  158.1011 O   0  0  0  0  0  0  0  0  0  0  0  0
  150.3921  137.6340  156.4206 N   0  0  0  0  0  0  0  0  0  0  0  0
  151.4661  138.4942  155.9286 C   0  0  1  0  0  0  0  0  0  0  0  0
  151.9117  138.0204  154.5335 C   0  0  0  0  0  0  0  0  0  0  0  0
  150.9755  139.9548  155.9172 C   0  0  2  0  0  0  0  0  0  0  0  0
  149.9827  140.3079  157.0265 C   0  0  0  0  0  0  0  0  0  0  0  0
  149.1857  141.4668  156.4465 C   0  0  0  0  0  0  0  0  0  0  0  0
  149.5346  141.4519  154.9564 C   0  0  0  0  0  0  0  0  0  0  0  0
  150.2117  140.2210  154.7504 O   0  0  0  0  0  0  0  0  0  0  0  0
  147.9503  134.8259  159.7083 S   0  0  0  0  0  0  0  0  0  0  0  0
  145.8501  135.8575  162.2167 H   0  0  0  0  0  0  0  0  0  0  0  0
  147.3573  135.9260  163.1490 H   0  0  0  0  0  0  0  0  0  0  0  0
  146.8781  134.4202  162.3500 H   0  0  0  0  0  0  0  0  0  0  0  0
  149.5104  137.6875  155.9323 H   0  0  0  0  0  0  0  0  0  0  0  0
  152.3165  138.4261  156.6097 H   0  0  0  0  0  0  0  0  0  0  0  0
  152.7408  138.6190  154.1565 H   0  0  0  0  0  0  0  0  0  0  0  0
  151.0961  138.0887  153.8130 H   0  0  0  0  0  0  0  0  0  0  0  0
  152.2480  136.9835  154.5565 H   0  0  0  0  0  0  0  0  0  0  0  0
  151.8234  140.6424  155.9471 H   0  0  0  0  0  0  0  0  0  0  0  0
  149.3147  139.4666  157.2164 H   0  0  0  0  0  0  0  0  0  0  0  0
  150.4761  140.5631  157.9647 H   0  0  0  0  0  0  0  0  0  0  0  0
  148.1175  141.3219  156.6105 H   0  0  0  0  0  0  0  0  0  0  0  0
  149.4693  142.4173  156.8996 H   0  0  0  0  0  0  0  0  0  0  0  0
  148.6541  141.5282  154.3182 H   0  0  0  0  0  0  0  0  0  0  0  0
  150.2062  142.2756  154.7109 H   0  0  0  0  0  0  0  0  0  0  0  0
  1  2  1  0  0  0  0
  1 18  1  0  0  0  0
  1 19  1  0  0  0  0
  1 20  1  0  0  0  0
  2 17  1  0  0  0  0
  2  3  2  0  0  0  0
  3  4  1  0  0  0  0
  4  5  2  0  0  0  0
  5  6  1  0  0  0  0
  5 17  1  0  0  0  0
  6  7  1  0  0  0  0
  7  8  2  0  0  0  0
  7  9  1  0  0  0  0
  9 10  1  0  0  0  0
  9 21  1  0  0  0  0
 10 11  1  0  0  0  0
 10 12  1  0  0  0  0
 10 22  1  0  0  0  0
 11 23  1  0  0  0  0
 11 24  1  0  0  0  0
 11 25  1  0  0  0  0
 12 16  1  0  0  0  0
 12 13  1  0  0  0  0
 12 26  1  0  0  0  0
 13 14  1  0  0  0  0
 13 27  1  0  0  0  0
 13 28  1  0  0  0  0
 14 15  1  0  0  0  0
 14 29  1  0  0  0  0
 14 30  1  0  0  0  0
 15 16  1  0  0  0  0
 15 31  1  0  0  0  0
 15 32  1  0  0  0  0
M  CHG  1   6  -1
M  END
> <s_m_source_file>
AV-unprocessed.smi

> <i_m_source_file_index>
1768

> <i_lp_mmshare_version>
43012

> <i_f3d_flags>
0

> <s_epik_input>
W0NIM11jMW5uYyhzMSlbTkhdQyg9TylbTkhdW0NASF0oW0NIM10pW0NAQEhdMltDSDJdW0NIMl1bQ0gyXU8y

> <s_epik_cmdline>
J2VwaWtfcHl0aG9uJywgJy1waCcsICc3LjAnLCAnLXRuJywgJzgnLCAnLW1hJywgJzIwMCcsICctbWV0YWxfYmluZGluZycsICctaW1hZScsICc8aW5maWxlLm1hZT4nLCAnLW9tYWUnLCAnPG91dGZpbGUubWFlPic=

> <r_lp_tautomer_probability>
1

> <r_epik_Ionization_Penalty>
4.3376

> <r_epik_Ionization_Penalty_Charging>
4.19392

> <r_epik_Ionization_Penalty_Neutral>
0.143681

> <r_epik_State_Penalty>
4.19342

> <r_epik_Charging_Adjusted_Penalty>
8.38735

> <i_epik_Tot_Q>
-1

> <i_epik_Tot_abs_Q>
1

> <r_epik_Metal_State_Penalty>
0.686065

> <b_epik_Metal_Only>
1

> <s_lp_Force_Field>
OPLS_2005

> <r_lp_Energy>
16.4206

> <b_lp_Chiralities_Consistent>
1

> <s_lp_Variant>
AV-unprocessed.smi:1768-6

> <Gold.Version>
5.8.1

> <Gold.Id.Protein>
6NUR|6NUR_protein|mol2

> <Gold.PLP.Fitness>
32.5105

> <Gold.PLP.PLP>
-27.6347

> <Gold.PLP.part.hbond>
-4.7906

> <Gold.PLP.part.metal>
0.0000

> <Gold.PLP.part.buried>
-3.5644

> <Gold.PLP.part.nonpolar>
-19.8634

> <Gold.PLP.part.repulsive>
0.0941

> <Gold.PLP.ligand.clash>
0.0000

> <Gold.PLP.ligand.torsion>
1.3478

> <Gold.PLP.Chemscore.Hbond>
2.5115

> <Gold.PLP.Chemscore.CHOScore>
0.0000

> <Gold.PLP.Chemscore.Metal>
0.0000

> <Gold.Chemscore.Hbonds>
donor molecule, donor type, donor heavy atom, donor atom, acceptor molecule, acceptor atom, score
      P1  H  6931  6943       L1     3  0.90
      P1  H  6934  6947       L1     3  0.62
      P1  H  7989  7998       L1    16  0.90

> <Gold.PLP.Chemscore.Internal.Correction>
0.0369

> <Gold.Rescore>
     Score         DG    S(hbond)    S(metal)    S(lipo)     H(rot)  DE(clash)    DE(int)     intcor
     11.48     -12.43       0.99        0.00      59.15       1.28       0.03       0.92       ----

> <Gold.Chemscore.Fitness>
11.4834

> <Gold.Chemscore.DG>
-12.4327

> <Gold.Chemscore.ZeroCoef>
-5.4800

> <Gold.Chemscore.Hbond>
0.9887

> <Gold.Chemscore.Metal>
0.0000

> <Gold.Chemscore.Lipo>
59.1541

> <Gold.Chemscore.Internal_Hbond>
0.0000

> <Gold.Chemscore.DEClash>
0.0255

> <Gold.Chemscore.DEInternal>
0.9238

> <Gold.Chemscore.Rot>
1.2776

> <Gold.Chemscore.Internal.Correction>
   9.000000E+99

> <Gold.Chemscore.Hbonds>
donor molecule, donor type, donor heavy atom, donor atom, acceptor molecule, acceptor atom, score
      P1  H  6931  6943       L1     3  0.26
      P1  H  6934  6947       L1     3  0.12
      P1  H  7989  7998       L1    16  0.06

> <Gold.Chemscore.Hbond.Weighted>
-3.3022

> <Gold.Chemscore.Metal.Weighted>
-0.0000

> <Gold.Chemscore.Lipo.Weighted>
-6.9210

> <Gold.Chemscore.Internal_Hbond.Weighted>
0.0000

> <Gold.Chemscore.DEClash.Weighted>
0.0255

> <Gold.Chemscore.DEInternal.Weighted>
0.9238

> <Gold.Chemscore.Rot.Weighted>
3.2706

> <Gold.Chemscore.Internal.Correction.Weighted>
   9.000000E+99

> <Gold.Protein.RotatedTorsions>
[ 6907 6896 6895 6894 ] final   59.56 input  -60.11 | X-H torsion
[ 7974 7965 7964 7962 ] final    9.64 input  175.53 | X-H torsion
[ 8008 7997 7996 7995 ] final  -77.11 input   59.86 | X-H torsion
[ 10167 10162 10161 10158 ] final   43.77 input  -65.29 | X-H torsion
[ 10718 10713 10712 10709 ] final   18.23 input   66.30 | X-H torsion
[ 10763 10752 10751 10750 ] final  145.12 input  -60.55 | X-H torsion
[ 11005 11000 10999 10996 ] final  101.33 input  -57.11 | X-H torsion

> <Gold.Protein.ActiveResidues>
 VAL166  LYS551  ARG553  GLY616  TRP617  ASP618  TYR619  PRO620  LYS621  CYS622 
 ASP623  PHE694  ASN695  SER759  ASP760  ASP761  ALA762  ILE779  LEU786  VAL792 
 PHE793  MET794  SER795  GLU796  ALA797  LYS798  CYS799  TRP800  GLU811  SER814 

> <Gold.Protein.RotatedAtoms>
  152.3925  134.6418  160.0101 H   0  0  0  0  0  0  0  0  0  0  0  0  # atno 6907 bound_to 6896
  151.6648  133.3310  159.3190 H   0  0  0  0  0  0  0  0  0  0  0  0  # atno 6908 bound_to 6896
  150.7838  134.6850  159.6510 H   0  0  0  0  0  0  0  0  0  0  0  0  # atno 6909 bound_to 6896
  146.2400  139.9754  142.8442 H   0  0  0  0  0  0  0  0  0  0  0  0  # atno 7974 bound_to 7965
  154.5566  140.0716  156.8753 H   0  0  0  0  0  0  0  0  0  0  0  0  # atno 8008 bound_to 7997
  155.2891  140.3377  155.4235 H   0  0  0  0  0  0  0  0  0  0  0  0  # atno 8009 bound_to 7997
  156.2007  140.1720  156.7891 H   0  0  0  0  0  0  0  0  0  0  0  0  # atno 8010 bound_to 7997
  140.3411  144.2469  150.6155 H   0  0  0  0  0  0  0  0  0  0  0  0  # atno 10167 bound_to 10162
  157.0934  130.6437  149.5854 H   0  0  0  0  0  0  0  0  0  0  0  0  # atno 10718 bound_to 10713
  154.0002  135.2924  155.3403 H   0  0  0  0  0  0  0  0  0  0  0  0  # atno 10763 bound_to 10752
  154.7164  135.5128  153.8747 H   0  0  0  0  0  0  0  0  0  0  0  0  # atno 10764 bound_to 10752
  153.0769  135.6666  154.0244 H   0  0  0  0  0  0  0  0  0  0  0  0  # atno 10765 bound_to 10752
  139.8773  134.9178  156.4890 H   0  0  0  0  0  0  0  0  0  0  0  0  # atno 11005 bound_to 11000
  145.1642  140.9688  143.4359 LP  0  0  0  0  0  0  0  0  0  0  0  0  # atno 17320 bound_to 7965
  145.0088  139.3529  143.6130 LP  0  0  0  0  0  0  0  0  0  0  0  0  # atno 17321 bound_to 7965
  140.5308  143.2244  151.8241 LP  0  0  0  0  0  0  0  0  0  0  0  0  # atno 17342 bound_to 10162
  139.4840  144.4722  151.9411 LP  0  0  0  0  0  0  0  0  0  0  0  0  # atno 17343 bound_to 10162
  155.9892  130.4938  150.7204 LP  0  0  0  0  0  0  0  0  0  0  0  0  # atno 17370 bound_to 10713
  157.4702  131.0892  151.0651 LP  0  0  0  0  0  0  0  0  0  0  0  0  # atno 17371 bound_to 10713
  140.8672  133.8015  155.9326 LP  0  0  0  0  0  0  0  0  0  0  0  0  # atno 17394 bound_to 11000
  140.8989  134.2402  157.5053 LP  0  0  0  0  0  0  0  0  0  0  0  0  # atno 17395 bound_to 11000

$$$$
