AV-unprocessed.smi:3152|AV-procd|sdf|12017|dock4
  -GOLD-   2272017423D 1   1.00000     0.00000
 Structure written by MMmdl.
 41 42  0  0  0  0  0  0  0  0  2 V2000
  145.5904  133.0072  150.1851 C   0  0  0  0  0  0  0  0  0  0  0  0
  145.3317  134.3684  150.7636 C   0  0  0  0  0  0  0  0  0  0  0  0
  144.1703  135.1769  150.6058 C   0  0  0  0  0  0  0  0  0  0  0  0
  144.2546  136.3293  151.2504 N   0  0  0  0  0  0  0  0  0  0  0  0
  145.4673  136.2971  151.8417 N   0  0  0  0  0  0  0  0  0  0  0  0
  145.9002  137.4201  152.6503 C   0  0  0  0  0  0  0  0  0  0  0  0
  146.6648  138.4561  151.8142 C   0  0  0  0  0  0  0  0  0  0  0  0
  147.9762  138.7637  152.4159 N   0  3  0  0  0  0  0  0  0  0  0  0
  147.8946  139.3035  153.7898 C   0  0  0  0  0  0  0  0  0  0  0  0
  149.2623  139.7946  154.3144 C   0  0  0  0  0  0  0  0  0  0  0  0
  149.7163  140.8010  153.4267 O   0  0  0  0  0  0  0  0  0  0  0  0
  149.1570  140.3770  155.7459 C   0  0  0  0  0  0  0  0  0  0  0  0
  150.5256  140.7439  156.3471 C   0  0  0  0  0  0  0  0  0  0  0  0
  151.4905  139.5507  156.3161 C   0  0  0  0  0  0  0  0  0  0  0  0
  151.6469  139.0086  154.8888 C   0  0  0  0  0  0  0  0  0  0  0  0
  150.2834  138.6325  154.2814 C   0  0  0  0  0  0  0  0  0  0  0  0
  146.1403  135.1263  151.5631 C   0  0  0  0  0  0  0  0  0  0  0  0
  145.1228  132.8880  149.2075 H   0  0  0  0  0  0  0  0  0  0  0  0
  145.1986  132.2182  150.8270 H   0  0  0  0  0  0  0  0  0  0  0  0
  146.6562  132.8174  150.0553 H   0  0  0  0  0  0  0  0  0  0  0  0
  143.2727  134.9606  150.0451 H   0  0  0  0  0  0  0  0  0  0  0  0
  145.0232  137.8750  153.1128 H   0  0  0  0  0  0  0  0  0  0  0  0
  146.5264  137.0421  153.4598 H   0  0  0  0  0  0  0  0  0  0  0  0
  146.8195  138.0814  150.8014 H   0  0  0  0  0  0  0  0  0  0  0  0
  146.0809  139.3740  151.7333 H   0  0  0  0  0  0  0  0  0  0  0  0
  148.5306  137.9194  152.4408 H   0  0  0  0  0  0  0  0  0  0  0  0
  147.1776  140.1259  153.8016 H   0  0  0  0  0  0  0  0  0  0  0  0
  147.4956  138.5297  154.4476 H   0  0  0  0  0  0  0  0  0  0  0  0
  149.5314  140.5251  152.5412 H   0  0  0  0  0  0  0  0  0  0  0  0
  148.5138  141.2578  155.7571 H   0  0  0  0  0  0  0  0  0  0  0  0
  148.6766  139.6442  156.3960 H   0  0  0  0  0  0  0  0  0  0  0  0
  150.9594  141.5796  155.7967 H   0  0  0  0  0  0  0  0  0  0  0  0
  150.3972  141.0879  157.3738 H   0  0  0  0  0  0  0  0  0  0  0  0
  152.4629  139.8475  156.7105 H   0  0  0  0  0  0  0  0  0  0  0  0
  151.1192  138.7606  156.9702 H   0  0  0  0  0  0  0  0  0  0  0  0
  152.1394  139.7548  154.2645 H   0  0  0  0  0  0  0  0  0  0  0  0
  152.3011  138.1362  154.8952 H   0  0  0  0  0  0  0  0  0  0  0  0
  149.8804  137.7852  154.8381 H   0  0  0  0  0  0  0  0  0  0  0  0
  150.4238  138.2796  153.2586 H   0  0  0  0  0  0  0  0  0  0  0  0
  147.1277  134.9290  151.9538 H   0  0  0  0  0  0  0  0  0  0  0  0
  148.4471  139.4412  151.8334 H   0  0  0  0  0  0  0  0  0  0  0  0
  1  2  1  0  0  0  0
  1 18  1  0  0  0  0
  1 19  1  0  0  0  0
  1 20  1  0  0  0  0
  2 17  2  0  0  0  0
  2  3  1  0  0  0  0
  3  4  2  0  0  0  0
  3 21  1  0  0  0  0
  4  5  1  0  0  0  0
  5  6  1  0  0  0  0
  5 17  1  0  0  0  0
  6  7  1  0  0  0  0
  6 22  1  0  0  0  0
  6 23  1  0  0  0  0
  7  8  1  0  0  0  0
  7 24  1  0  0  0  0
  7 25  1  0  0  0  0
  8  9  1  0  0  0  0
  8 26  1  0  0  0  0
  8 41  1  0  0  0  0
  9 10  1  0  0  0  0
  9 27  1  0  0  0  0
  9 28  1  0  0  0  0
 10 16  1  0  0  0  0
 10 11  1  0  0  0  0
 10 12  1  0  0  0  0
 11 29  1  0  0  0  0
 12 13  1  0  0  0  0
 12 30  1  0  0  0  0
 12 31  1  0  0  0  0
 13 14  1  0  0  0  0
 13 32  1  0  0  0  0
 13 33  1  0  0  0  0
 14 15  1  0  0  0  0
 14 34  1  0  0  0  0
 14 35  1  0  0  0  0
 15 16  1  0  0  0  0
 15 36  1  0  0  0  0
 15 37  1  0  0  0  0
 16 38  1  0  0  0  0
 16 39  1  0  0  0  0
 17 40  1  0  0  0  0
M  CHG  1   8   1
M  END
> <s_m_source_file>
AV-unprocessed.smi

> <i_m_source_file_index>
3152

> <i_lp_mmshare_version>
43012

> <i_f3d_flags>
0

> <s_epik_input>
W0NIM11jMVtjSF1ubihbY0hdMSlbQ0gyXVtDSDJdW05IXVtDSDJdQzIoW09IXSlbQ0gyXVtDSDJdW0NIMl1bQ0gyXVtDSDJdMg==

> <s_epik_cmdline>
J2VwaWtfcHl0aG9uJywgJy1waCcsICc3LjAnLCAnLXRuJywgJzgnLCAnLW1hJywgJzIwMCcsICctbWV0YWxfYmluZGluZycsICctaW1hZScsICc8aW5maWxlLm1hZT4nLCAnLW9tYWUnLCAnPG91dGZpbGUubWFlPic=

> <r_lp_tautomer_probability>
1

> <r_epik_Ionization_Penalty>
0.0240188

> <r_epik_Ionization_Penalty_Charging>
0.0240119

> <r_epik_Ionization_Penalty_Neutral>
6.9154e-06

> <r_epik_State_Penalty>
0.0194671

> <r_epik_Charging_Adjusted_Penalty>
0.043479

> <i_epik_Tot_Q>
1

> <i_epik_Tot_abs_Q>
1

> <r_epik_Metal_State_Penalty>
0.0195537

> <b_epik_Metal_Only>
0

> <s_lp_Force_Field>
OPLS_2005

> <r_lp_Energy>
14.7618

> <b_lp_Chiralities_Consistent>
1

> <s_lp_Variant>
AV-unprocessed.smi:3152-1

> <Gold.Version>
5.8.1

> <Gold.Id.Protein>
6NUR|6NUR_protein|mol2

> <Gold.PLP.Fitness>
52.8025

> <Gold.PLP.PLP>
-35.3684

> <Gold.PLP.part.hbond>
-4.7477

> <Gold.PLP.part.metal>
0.0000

> <Gold.PLP.part.buried>
-2.5332

> <Gold.PLP.part.nonpolar>
-29.2309

> <Gold.PLP.part.repulsive>
1.5298

> <Gold.PLP.ligand.clash>
0.0000

> <Gold.PLP.ligand.torsion>
0.7547

> <Gold.PLP.Chemscore.Hbond>
4.3120

> <Gold.PLP.Chemscore.CHOScore>
2.0000

> <Gold.PLP.Chemscore.Metal>
0.0000

> <Gold.Chemscore.Hbonds>
donor molecule, donor type, donor heavy atom, donor atom, acceptor molecule, acceptor atom, score
      L1  H     8    26       P1  7948  2.00
      L1  H     8    41       P1  7957  0.78
      L1  H    11    29       P1  7957  0.83
      P1  H  7989  7998       L1    11  0.32
      L1  C     3    21       P1 10186  1.00
      L1  C    17    40       P1  7948  0.97

> <Gold.PLP.Chemscore.Internal.Correction>
0.0075

> <Gold.Rescore>
     Score         DG    S(hbond)    S(metal)    S(lipo)     H(rot)  DE(clash)    DE(int)     intcor
     19.49     -20.22       3.34        0.00      78.16       2.17       0.01       0.73       ----

> <Gold.Chemscore.Fitness>
19.4865

> <Gold.Chemscore.DG>
-20.2180

> <Gold.Chemscore.ZeroCoef>
-5.4800

> <Gold.Chemscore.Hbond>
3.3368

> <Gold.Chemscore.Metal>
0.0000

> <Gold.Chemscore.Lipo>
78.1582

> <Gold.Chemscore.Internal_Hbond>
0.0000

> <Gold.Chemscore.DEClash>
0.0052

> <Gold.Chemscore.DEInternal>
0.7262

> <Gold.Chemscore.Rot>
2.1685

> <Gold.Chemscore.Internal.Correction>
   9.000000E+99

> <Gold.Chemscore.Hbonds>
donor molecule, donor type, donor heavy atom, donor atom, acceptor molecule, acceptor atom, score
      L1  H     8    26       P1  7948  0.96
      L1  H     8    41       P1  7957  0.76
      L1  H    11    29       P1  7957  0.80
      P1  H  7989  7998       L1    11  0.10

> <Gold.Chemscore.Hbond.Weighted>
-11.1449

> <Gold.Chemscore.Metal.Weighted>
-0.0000

> <Gold.Chemscore.Lipo.Weighted>
-9.1445

> <Gold.Chemscore.Internal_Hbond.Weighted>
0.0000

> <Gold.Chemscore.DEClash.Weighted>
0.0052

> <Gold.Chemscore.DEInternal.Weighted>
0.7262

> <Gold.Chemscore.Rot.Weighted>
5.5514

> <Gold.Chemscore.Internal.Correction.Weighted>
   9.000000E+99

> <Gold.Protein.RotatedTorsions>
[ 6907 6896 6895 6894 ] final   12.19 input  -60.11 | X-H torsion
[ 7974 7965 7964 7962 ] final   55.83 input  175.53 | X-H torsion
[ 8008 7997 7996 7995 ] final   35.93 input   59.86 | X-H torsion
[ 10167 10162 10161 10158 ] final   -4.09 input  -65.29 | X-H torsion
[ 10718 10713 10712 10709 ] final -150.39 input   66.30 | X-H torsion
[ 10763 10752 10751 10750 ] final  126.86 input  -60.55 | X-H torsion
[ 11005 11000 10999 10996 ] final -150.07 input  -57.11 | X-H torsion

> <Gold.Protein.ActiveResidues>
 VAL166  LYS551  ARG553  GLY616  TRP617  ASP618  TYR619  PRO620  LYS621  CYS622 
 ASP623  PHE694  ASN695  SER759  ASP760  ASP761  ALA762  ILE779  LEU786  VAL792 
 PHE793  MET794  SER795  GLU796  ALA797  LYS798  CYS799  TRP800  GLU811  SER814 

> <Gold.Protein.RotatedAtoms>
  151.7664  135.0797  160.0353 H   0  0  0  0  0  0  0  0  0  0  0  0  # atno 6907 bound_to 6896
  152.3318  133.5963  159.5823 H   0  0  0  0  0  0  0  0  0  0  0  0  # atno 6908 bound_to 6896
  150.7427  133.9772  159.3606 H   0  0  0  0  0  0  0  0  0  0  0  0  # atno 6909 bound_to 6896
  145.9463  139.3932  143.0333 H   0  0  0  0  0  0  0  0  0  0  0  0  # atno 7974 bound_to 7965
  155.1791  140.3298  155.4378 H   0  0  0  0  0  0  0  0  0  0  0  0  # atno 8008 bound_to 7997
  156.2483  140.1930  156.6841 H   0  0  0  0  0  0  0  0  0  0  0  0  # atno 8009 bound_to 7997
  154.6284  140.0586  156.9687 H   0  0  0  0  0  0  0  0  0  0  0  0  # atno 8010 bound_to 7997
  140.6914  143.6464  150.8389 H   0  0  0  0  0  0  0  0  0  0  0  0  # atno 10167 bound_to 10162
  156.4455  130.8143  151.2373 H   0  0  0  0  0  0  0  0  0  0  0  0  # atno 10718 bound_to 10713
  153.7002  135.3285  155.3223 H   0  0  0  0  0  0  0  0  0  0  0  0  # atno 10763 bound_to 10752
  154.8415  135.4452  154.1419 H   0  0  0  0  0  0  0  0  0  0  0  0  # atno 10764 bound_to 10752
  153.2484  135.6978  153.7784 H   0  0  0  0  0  0  0  0  0  0  0  0  # atno 10765 bound_to 10752
  140.7441  134.3481  157.5141 H   0  0  0  0  0  0  0  0  0  0  0  0  # atno 11005 bound_to 11000
  145.8232  140.9668  143.0888 LP  0  0  0  0  0  0  0  0  0  0  0  0  # atno 17320 bound_to 7965
  144.6787  140.0068  143.7484 LP  0  0  0  0  0  0  0  0  0  0  0  0  # atno 17321 bound_to 7965
  140.0178  143.5575  152.2813 LP  0  0  0  0  0  0  0  0  0  0  0  0  # atno 17342 bound_to 10162
  139.6322  144.7645  151.2513 LP  0  0  0  0  0  0  0  0  0  0  0  0  # atno 17343 bound_to 10162
  157.7505  131.0154  150.3504 LP  0  0  0  0  0  0  0  0  0  0  0  0  # atno 17370 bound_to 10713
  156.3871  130.3891  149.7057 LP  0  0  0  0  0  0  0  0  0  0  0  0  # atno 17371 bound_to 10713
  139.8800  134.9099  156.3002 LP  0  0  0  0  0  0  0  0  0  0  0  0  # atno 17394 bound_to 11000
  140.9810  133.7267  156.0673 LP  0  0  0  0  0  0  0  0  0  0  0  0  # atno 17395 bound_to 11000

$$$$
