AV-unprocessed.smi:2627|AV-procd|sdf|10240|dock5
  -GOLD-   2272014243D 1   1.00000     0.00000
 Structure written by MMmdl.
 39 41  0  0  0  0  0  0  0  0  1 V2000
  152.1572  138.0871  159.5716 C   0  0  0  0  0  0  0  0  0  0  0  0
  153.3035  139.0936  159.3973 C   0  0  1  0  0  0  0  0  0  0  0  0
  154.0277  138.7534  158.2337 O   0  0  0  0  0  0  0  0  0  0  0  0
  152.8063  140.5129  159.3501 C   0  0  0  0  0  0  0  0  0  0  0  0
  153.2458  141.4256  160.2204 N   0  0  0  0  0  0  0  0  0  0  0  0
  152.5692  142.5665  159.8407 C   0  0  0  0  0  0  0  0  0  0  0  0
  152.6122  143.8774  160.3669 C   0  0  0  0  0  0  0  0  0  0  0  0
  151.8189  144.8986  159.8044 C   0  0  0  0  0  0  0  0  0  0  0  0
  150.9730  144.6236  158.7105 C   0  0  0  0  0  0  0  0  0  0  0  0
  150.9142  143.3235  158.1729 C   0  0  0  0  0  0  0  0  0  0  0  0
  151.7086  142.3073  158.7380 C   0  0  0  0  0  0  0  0  0  0  0  0
  151.8789  140.9544  158.4577 N   0  0  0  0  0  0  0  0  0  0  0  0
  151.1749  140.2202  157.4139 C   0  0  0  0  0  0  0  0  0  0  0  0
  151.3182  140.8771  156.0338 C   0  0  0  0  0  0  0  0  0  0  0  0
  150.8622  139.9887  155.0226 O   0  0  0  0  0  0  0  0  0  0  0  0
  149.5871  140.1632  154.5282 C   0  0  0  0  0  0  0  0  0  0  0  0
  149.0662  141.4740  154.5441 C   0  0  0  0  0  0  0  0  0  0  0  0
  147.7715  141.7424  154.0595 C   0  0  0  0  0  0  0  0  0  0  0  0
  146.9805  140.6965  153.5499 C   0  0  0  0  0  0  0  0  0  0  0  0
  147.4873  139.3839  153.5262 C   0  0  0  0  0  0  0  0  0  0  0  0
  148.7819  139.1153  154.0126 C   0  0  0  0  0  0  0  0  0  0  0  0
  151.5764  138.3079  160.4667 H   0  0  0  0  0  0  0  0  0  0  0  0
  152.5378  137.0698  159.6658 H   0  0  0  0  0  0  0  0  0  0  0  0
  151.4726  138.1089  158.7231 H   0  0  0  0  0  0  0  0  0  0  0  0
  153.9842  138.9604  160.2348 H   0  0  0  0  0  0  0  0  0  0  0  0
  154.2241  137.8294  158.2680 H   0  0  0  0  0  0  0  0  0  0  0  0
  153.2575  144.0978  161.2045 H   0  0  0  0  0  0  0  0  0  0  0  0
  151.8600  145.8973  160.2138 H   0  0  0  0  0  0  0  0  0  0  0  0
  150.3690  145.4113  158.2847 H   0  0  0  0  0  0  0  0  0  0  0  0
  150.2671  143.1113  157.3351 H   0  0  0  0  0  0  0  0  0  0  0  0
  151.5082  139.1835  157.3947 H   0  0  0  0  0  0  0  0  0  0  0  0
  150.1190  140.1784  157.6823 H   0  0  0  0  0  0  0  0  0  0  0  0
  150.7303  141.7958  156.0133 H   0  0  0  0  0  0  0  0  0  0  0  0
  152.3629  141.1425  155.8634 H   0  0  0  0  0  0  0  0  0  0  0  0
  149.6666  142.2853  154.9284 H   0  0  0  0  0  0  0  0  0  0  0  0
  147.3864  142.7514  154.0777 H   0  0  0  0  0  0  0  0  0  0  0  0
  145.9876  140.9006  153.1771 H   0  0  0  0  0  0  0  0  0  0  0  0
  146.8814  138.5802  153.1345 H   0  0  0  0  0  0  0  0  0  0  0  0
  149.1336  138.0954  153.9797 H   0  0  0  0  0  0  0  0  0  0  0  0
  1  2  1  0  0  0  0
  1 22  1  0  0  0  0
  1 23  1  0  0  0  0
  1 24  1  0  0  0  0
  2  3  1  0  0  0  0
  2  4  1  0  0  0  0
  2 25  1  0  0  0  0
  3 26  1  0  0  0  0
  4 12  1  0  0  0  0
  4  5  2  0  0  0  0
  5  6  1  0  0  0  0
  6 11  2  0  0  0  0
  6  7  1  0  0  0  0
  7  8  2  0  0  0  0
  7 27  1  0  0  0  0
  8  9  1  0  0  0  0
  8 28  1  0  0  0  0
  9 10  2  0  0  0  0
  9 29  1  0  0  0  0
 10 11  1  0  0  0  0
 10 30  1  0  0  0  0
 11 12  1  0  0  0  0
 12 13  1  0  0  0  0
 13 14  1  0  0  0  0
 13 31  1  0  0  0  0
 13 32  1  0  0  0  0
 14 15  1  0  0  0  0
 14 33  1  0  0  0  0
 14 34  1  0  0  0  0
 15 16  1  0  0  0  0
 16 21  1  0  0  0  0
 16 17  2  0  0  0  0
 17 18  1  0  0  0  0
 17 35  1  0  0  0  0
 18 19  2  0  0  0  0
 18 36  1  0  0  0  0
 19 20  1  0  0  0  0
 19 37  1  0  0  0  0
 20 21  2  0  0  0  0
 20 38  1  0  0  0  0
 21 39  1  0  0  0  0
M  END
> <s_m_source_file>
AV-unprocessed.smi

> <i_m_source_file_index>
2627

> <i_lp_mmshare_version>
43012

> <i_f3d_flags>
0

> <s_epik_input>
W2NIXTFbY0hdW2NIXVtjSF1jKGMxMiluKGMobjIpW0NASF0oW0NIM10pW09IXSlbQ0gyXVtDSDJdT2MzW2NIXVtjSF1bY0hdW2NIXVtjSF0z

> <s_epik_cmdline>
J2VwaWtfcHl0aG9uJywgJy1waCcsICc3LjAnLCAnLXRuJywgJzgnLCAnLW1hJywgJzIwMCcsICctbWV0YWxfYmluZGluZycsICctaW1hZScsICc8aW5maWxlLm1hZT4nLCAnLW9tYWUnLCAnPG91dGZpbGUubWFlPic=

> <r_lp_tautomer_probability>
1

> <r_epik_Ionization_Penalty>
0.0472514

> <r_epik_Ionization_Penalty_Charging>
0

> <r_epik_Ionization_Penalty_Neutral>
0.0472514

> <r_epik_State_Penalty>
0.040225

> <r_epik_Charging_Adjusted_Penalty>
0.040225

> <i_epik_Tot_Q>
0

> <i_epik_Tot_abs_Q>
0

> <r_epik_Metal_State_Penalty>
4.16204e-05

> <b_epik_Metal_Only>
0

> <s_lp_Force_Field>
OPLS_2005

> <r_lp_Energy>
14.021

> <b_lp_Chiralities_Consistent>
1

> <s_lp_Variant>
AV-unprocessed.smi:2627-2

> <Gold.Version>
5.8.1

> <Gold.Id.Protein>
6NUR|6NUR_protein|mol2

> <Gold.PLP.Fitness>
52.3138

> <Gold.PLP.PLP>
-48.3679

> <Gold.PLP.part.hbond>
-2.0000

> <Gold.PLP.part.metal>
0.0000

> <Gold.PLP.part.buried>
-4.7147

> <Gold.PLP.part.nonpolar>
-41.3834

> <Gold.PLP.part.repulsive>
0.0519

> <Gold.PLP.ligand.clash>
0.0000

> <Gold.PLP.ligand.torsion>
0.7575

> <Gold.PLP.Chemscore.Hbond>
1.8000

> <Gold.PLP.Chemscore.CHOScore>
0.0000

> <Gold.PLP.Chemscore.Metal>
0.0000

> <Gold.Chemscore.Hbonds>
donor molecule, donor type, donor heavy atom, donor atom, acceptor molecule, acceptor atom, score
      P1  H  7989  7998       L1    15  0.54
      P1  H  7997  8010       L1     3  1.00

> <Gold.PLP.Chemscore.Internal.Correction>
0.0610

> <Gold.Rescore>
     Score         DG    S(hbond)    S(metal)    S(lipo)     H(rot)  DE(clash)    DE(int)     intcor
     18.29     -19.17       0.98        0.00     133.99       2.06       0.11       0.77       ----

> <Gold.Chemscore.Fitness>
18.2949

> <Gold.Chemscore.DG>
-19.1741

> <Gold.Chemscore.ZeroCoef>
-5.4800

> <Gold.Chemscore.Hbond>
0.9835

> <Gold.Chemscore.Metal>
0.0000

> <Gold.Chemscore.Lipo>
133.9931

> <Gold.Chemscore.Internal_Hbond>
0.0000

> <Gold.Chemscore.DEClash>
0.1061

> <Gold.Chemscore.DEInternal>
0.7732

> <Gold.Chemscore.Rot>
2.0577

> <Gold.Chemscore.Internal.Correction>
   9.000000E+99

> <Gold.Chemscore.Hbonds>
donor molecule, donor type, donor heavy atom, donor atom, acceptor molecule, acceptor atom, score
      P1  H  7989  7998       L1    15  0.01
      P1  H  7997  8010       L1     3  0.99

> <Gold.Chemscore.Hbond.Weighted>
-3.2848

> <Gold.Chemscore.Metal.Weighted>
-0.0000

> <Gold.Chemscore.Lipo.Weighted>
-15.6772

> <Gold.Chemscore.Internal_Hbond.Weighted>
0.0000

> <Gold.Chemscore.DEClash.Weighted>
0.1061

> <Gold.Chemscore.DEInternal.Weighted>
0.7732

> <Gold.Chemscore.Rot.Weighted>
5.2678

> <Gold.Chemscore.Internal.Correction.Weighted>
   9.000000E+99

> <Gold.Protein.RotatedTorsions>
[ 6907 6896 6895 6894 ] final   80.34 input  -60.11 | X-H torsion
[ 7974 7965 7964 7962 ] final  -53.90 input  175.53 | X-H torsion
[ 8008 7997 7996 7995 ] final   19.89 input   59.86 | X-H torsion
[ 10167 10162 10161 10158 ] final   -1.80 input  -65.29 | X-H torsion
[ 10718 10713 10712 10709 ] final -111.27 input   66.30 | X-H torsion
[ 10763 10752 10751 10750 ] final  -11.60 input  -60.55 | X-H torsion
[ 11005 11000 10999 10996 ] final   29.56 input  -57.11 | X-H torsion

> <Gold.Protein.ActiveResidues>
 VAL166  LYS551  ARG553  GLY616  TRP617  ASP618  TYR619  PRO620  LYS621  CYS622 
 ASP623  PHE694  ASN695  SER759  ASP760  ASP761  ALA762  ILE779  LEU786  VAL792 
 PHE793  MET794  SER795  GLU796  ALA797  LYS798  CYS799  TRP800  GLU811  SER814 

> <Gold.Protein.RotatedAtoms>
  152.5231  134.3373  159.9204 H   0  0  0  0  0  0  0  0  0  0  0  0  # atno 6907 bound_to 6896
  151.3323  133.3989  159.2671 H   0  0  0  0  0  0  0  0  0  0  0  0  # atno 6908 bound_to 6896
  150.9871  134.9231  159.7935 H   0  0  0  0  0  0  0  0  0  0  0  0  # atno 6909 bound_to 6896
  145.8917  140.8065  142.9788 H   0  0  0  0  0  0  0  0  0  0  0  0  # atno 7974 bound_to 7965
  154.9274  140.3035  155.5185 H   0  0  0  0  0  0  0  0  0  0  0  0  # atno 8008 bound_to 7997
  156.3006  140.2360  156.4267 H   0  0  0  0  0  0  0  0  0  0  0  0  # atno 8009 bound_to 7997
  154.8271  140.0420  157.1440 H   0  0  0  0  0  0  0  0  0  0  0  0  # atno 8010 bound_to 7997
  140.6825  143.6733  150.8167 H   0  0  0  0  0  0  0  0  0  0  0  0  # atno 10167 bound_to 10162
  156.0637  130.5859  150.8351 H   0  0  0  0  0  0  0  0  0  0  0  0  # atno 10718 bound_to 10713
  153.4862  135.7017  153.5910 H   0  0  0  0  0  0  0  0  0  0  0  0  # atno 10763 bound_to 10752
  153.4102  135.3850  155.2045 H   0  0  0  0  0  0  0  0  0  0  0  0  # atno 10764 bound_to 10752
  154.8719  135.3902  154.4317 H   0  0  0  0  0  0  0  0  0  0  0  0  # atno 10765 bound_to 10752
  140.3036  134.2728  155.7748 H   0  0  0  0  0  0  0  0  0  0  0  0  # atno 11005 bound_to 11000
  144.6731  140.1539  143.7428 LP  0  0  0  0  0  0  0  0  0  0  0  0  # atno 17320 bound_to 7965
  145.8900  139.2371  143.1555 LP  0  0  0  0  0  0  0  0  0  0  0  0  # atno 17321 bound_to 7965
  140.0435  143.5322  152.2707 LP  0  0  0  0  0  0  0  0  0  0  0  0  # atno 17342 bound_to 10162
  139.6158  144.7619  151.2850 LP  0  0  0  0  0  0  0  0  0  0  0  0  # atno 17343 bound_to 10162
  157.5665  131.0946  150.9482 LP  0  0  0  0  0  0  0  0  0  0  0  0  # atno 17370 bound_to 10713
  156.9708  130.5490  149.5290 LP  0  0  0  0  0  0  0  0  0  0  0  0  # atno 17371 bound_to 10713
  141.2123  133.7662  156.9804 LP  0  0  0  0  0  0  0  0  0  0  0  0  # atno 17394 bound_to 11000
  140.1087  134.9490  157.2033 LP  0  0  0  0  0  0  0  0  0  0  0  0  # atno 17395 bound_to 11000

$$$$
