AV-unprocessed.smi:3039|AV-procd|sdf|11592|dock8
  -GOLD-   2272016563D 1   1.00000     0.00000
 Structure written by MMmdl.
 38 39  0  0  0  0  0  0  0  0  1 V2000
  147.2009  136.8277  158.0828 O   0  0  0  0  0  0  0  0  0  0  0  0
  148.3855  137.1546  158.1500 C   0  0  0  0  0  0  0  0  0  0  0  0
  149.1657  136.9487  159.4489 C   0  0  0  0  0  0  0  0  0  0  0  0
  148.2718  136.3526  160.5039 C   0  0  0  0  0  0  0  0  0  0  0  0
  147.9113  134.9886  160.6876 C   0  0  0  0  0  0  0  0  0  0  0  0
  147.0962  135.0184  161.7823 C   0  0  0  0  0  0  0  0  0  0  0  0
  146.9594  136.2889  162.2392 O   0  0  0  0  0  0  0  0  0  0  0  0
  147.7105  137.1344  161.4151 N   0  0  0  0  0  0  0  0  0  0  0  0
  149.0657  137.6975  157.1283 N   0  0  0  0  0  0  0  0  0  0  0  0
  148.5470  137.9439  155.7820 C   0  0  1  0  0  0  0  0  0  0  0  0
  147.4495  139.0350  155.7934 C   0  0  0  0  0  0  0  0  0  0  0  0
  147.8581  140.3662  156.4555 C   0  0  0  0  0  0  0  0  0  0  0  0
  148.6044  141.3601  155.5490 C   0  0  0  0  0  0  0  0  0  0  0  0
  149.5707  140.7611  154.5131 C   0  0  0  0  0  0  0  0  0  0  0  0
  150.4095  139.5645  154.9944 C   0  0  0  0  0  0  0  0  0  0  0  0
  149.7046  138.2016  154.7845 C   0  0  1  0  0  0  0  0  0  0  0  0
  150.7199  137.0347  154.8039 C   0  0  0  0  0  0  0  0  0  0  0  0
  151.6589  137.1591  153.7557 O   0  0  0  0  0  0  0  0  0  0  0  0
  150.0253  136.3055  159.2544 H   0  0  0  0  0  0  0  0  0  0  0  0
  149.5650  137.9056  159.7875 H   0  0  0  0  0  0  0  0  0  0  0  0
  148.2070  134.1257  160.1092 H   0  0  0  0  0  0  0  0  0  0  0  0
  146.5621  134.2566  162.3306 H   0  0  0  0  0  0  0  0  0  0  0  0
  150.0341  137.9369  157.2864 H   0  0  0  0  0  0  0  0  0  0  0  0
  148.0625  137.0270  155.4407 H   0  0  0  0  0  0  0  0  0  0  0  0
  147.0766  139.2123  154.7840 H   0  0  0  0  0  0  0  0  0  0  0  0
  146.5981  138.6381  156.3480 H   0  0  0  0  0  0  0  0  0  0  0  0
  146.9585  140.8640  156.8190 H   0  0  0  0  0  0  0  0  0  0  0  0
  148.4505  140.1813  157.3511 H   0  0  0  0  0  0  0  0  0  0  0  0
  147.8753  141.9698  155.0142 H   0  0  0  0  0  0  0  0  0  0  0  0
  149.1511  142.0556  156.1869 H   0  0  0  0  0  0  0  0  0  0  0  0
  149.0172  140.4820  153.6157 H   0  0  0  0  0  0  0  0  0  0  0  0
  150.2446  141.5563  154.1924 H   0  0  0  0  0  0  0  0  0  0  0  0
  151.3296  139.5714  154.4096 H   0  0  0  0  0  0  0  0  0  0  0  0
  150.7243  139.6970  156.0300 H   0  0  0  0  0  0  0  0  0  0  0  0
  149.2610  138.2044  153.7875 H   0  0  0  0  0  0  0  0  0  0  0  0
  151.2510  136.9889  155.7557 H   0  0  0  0  0  0  0  0  0  0  0  0
  150.2074  136.0804  154.6774 H   0  0  0  0  0  0  0  0  0  0  0  0
  151.2361  136.9231  152.9440 H   0  0  0  0  0  0  0  0  0  0  0  0
  1  2  2  0  0  0  0
  2  3  1  0  0  0  0
  2  9  1  0  0  0  0
  3  4  1  0  0  0  0
  3 19  1  0  0  0  0
  3 20  1  0  0  0  0
  4  8  2  0  0  0  0
  4  5  1  0  0  0  0
  5  6  2  0  0  0  0
  5 21  1  0  0  0  0
  6  7  1  0  0  0  0
  6 22  1  0  0  0  0
  7  8  1  0  0  0  0
  9 10  1  0  0  0  0
  9 23  1  0  0  0  0
 10 16  1  0  0  0  0
 10 11  1  0  0  0  0
 10 24  1  0  0  0  0
 11 12  1  0  0  0  0
 11 25  1  0  0  0  0
 11 26  1  0  0  0  0
 12 13  1  0  0  0  0
 12 27  1  0  0  0  0
 12 28  1  0  0  0  0
 13 14  1  0  0  0  0
 13 29  1  0  0  0  0
 13 30  1  0  0  0  0
 14 15  1  0  0  0  0
 14 31  1  0  0  0  0
 14 32  1  0  0  0  0
 15 16  1  0  0  0  0
 15 33  1  0  0  0  0
 15 34  1  0  0  0  0
 16 17  1  0  0  0  0
 16 35  1  0  0  0  0
 17 18  1  0  0  0  0
 17 36  1  0  0  0  0
 17 37  1  0  0  0  0
 18 38  1  0  0  0  0
M  END
> <s_m_source_file>
AV-unprocessed.smi

> <i_m_source_file_index>
3039

> <i_lp_mmshare_version>
43012

> <i_f3d_flags>
0

> <s_epik_input>
bjFvW2NIXVtjSF1jMVtDSDJdQyg9TylbTkhdW0NAQEhdMltDSDJdW0NIMl1bQ0gyXVtDSDJdW0NIMl1bQ0BIXTJbQ0gyXVtPSF0=

> <s_epik_cmdline>
J2VwaWtfcHl0aG9uJywgJy1waCcsICc3LjAnLCAnLXRuJywgJzgnLCAnLW1hJywgJzIwMCcsICctbWV0YWxfYmluZGluZycsICctaW1hZScsICc8aW5maWxlLm1hZT4nLCAnLW9tYWUnLCAnPG91dGZpbGUubWFlPic=

> <r_lp_tautomer_probability>
1

> <r_epik_Ionization_Penalty>
3.05817e-07

> <r_epik_Ionization_Penalty_Charging>
0

> <r_epik_Ionization_Penalty_Neutral>
3.05817e-07

> <r_epik_State_Penalty>
-0

> <r_epik_Charging_Adjusted_Penalty>
0

> <i_epik_Tot_Q>
0

> <i_epik_Tot_abs_Q>
0

> <r_epik_Metal_State_Penalty>
-0

> <b_epik_Metal_Only>
0

> <s_lp_Force_Field>
OPLS_2005

> <r_lp_Energy>
19.8887

> <b_lp_Chiralities_Consistent>
1

> <s_lp_Variant>
AV-unprocessed.smi:3039-2

> <Gold.Version>
5.8.1

> <Gold.Id.Protein>
6NUR|6NUR_protein|mol2

> <Gold.PLP.Fitness>
36.8249

> <Gold.PLP.PLP>
-26.2404

> <Gold.PLP.part.hbond>
-4.0000

> <Gold.PLP.part.metal>
0.0000

> <Gold.PLP.part.buried>
-3.7135

> <Gold.PLP.part.nonpolar>
-19.0183

> <Gold.PLP.part.repulsive>
0.0091

> <Gold.PLP.ligand.clash>
0.0000

> <Gold.PLP.ligand.torsion>
0.4599

> <Gold.PLP.Chemscore.Hbond>
3.8160

> <Gold.PLP.Chemscore.CHOScore>
0.0000

> <Gold.PLP.Chemscore.Metal>
0.0000

> <Gold.Chemscore.Hbonds>
donor molecule, donor type, donor heavy atom, donor atom, acceptor molecule, acceptor atom, score
      L1  H    18    38       P1  7949  1.00
      P1  H  6931  6943       L1     8  1.00
      P1  H  6934  6947       L1     8  0.80
      P1  H 10752 10764       L1    18  1.00

> <Gold.PLP.Chemscore.Internal.Correction>
0.0564

> <Gold.Rescore>
     Score         DG    S(hbond)    S(metal)    S(lipo)     H(rot)  DE(clash)    DE(int)     intcor
     15.58     -17.39       3.13        0.00      61.89       2.26       1.44       0.37       ----

> <Gold.Chemscore.Fitness>
15.5814

> <Gold.Chemscore.DG>
-17.3908

> <Gold.Chemscore.ZeroCoef>
-5.4800

> <Gold.Chemscore.Hbond>
3.1314

> <Gold.Chemscore.Metal>
0.0000

> <Gold.Chemscore.Lipo>
61.8946

> <Gold.Chemscore.Internal_Hbond>
0.0000

> <Gold.Chemscore.DEClash>
1.4374

> <Gold.Chemscore.DEInternal>
0.3720

> <Gold.Chemscore.Rot>
2.2616

> <Gold.Chemscore.Internal.Correction>
   9.000000E+99

> <Gold.Chemscore.Hbonds>
donor molecule, donor type, donor heavy atom, donor atom, acceptor molecule, acceptor atom, score
      L1  H    18    38       P1  7949  0.58
      P1  H  6931  6943       L1     8  0.43
      P1  H  6934  6947       L1     8  0.74
      P1  H 10752 10764       L1    18  0.15

> <Gold.Chemscore.Hbond.Weighted>
-10.4587

> <Gold.Chemscore.Metal.Weighted>
-0.0000

> <Gold.Chemscore.Lipo.Weighted>
-7.2417

> <Gold.Chemscore.Internal_Hbond.Weighted>
0.0000

> <Gold.Chemscore.DEClash.Weighted>
1.4374

> <Gold.Chemscore.DEInternal.Weighted>
0.3720

> <Gold.Chemscore.Rot.Weighted>
5.7896

> <Gold.Chemscore.Internal.Correction.Weighted>
   9.000000E+99

> <Gold.Protein.RotatedTorsions>
[ 6907 6896 6895 6894 ] final  121.54 input  -60.11 | X-H torsion
[ 7974 7965 7964 7962 ] final  106.43 input  175.53 | X-H torsion
[ 8008 7997 7996 7995 ] final -129.79 input   59.86 | X-H torsion
[ 10167 10162 10161 10158 ] final -131.45 input  -65.29 | X-H torsion
[ 10718 10713 10712 10709 ] final  116.25 input   66.30 | X-H torsion
[ 10763 10752 10751 10750 ] final  -78.99 input  -60.55 | X-H torsion
[ 11005 11000 10999 10996 ] final -101.17 input  -57.11 | X-H torsion

> <Gold.Protein.ActiveResidues>
 VAL166  LYS551  ARG553  GLY616  TRP617  ASP618  TYR619  PRO620  LYS621  CYS622 
 ASP623  PHE694  ASN695  SER759  ASP760  ASP761  ALA762  ILE779  LEU786  VAL792 
 PHE793  MET794  SER795  GLU796  ALA797  LYS798  CYS799  TRP800  GLU811  SER814 

> <Gold.Protein.RotatedAtoms>
  152.4314  133.7284  159.6572 H   0  0  0  0  0  0  0  0  0  0  0  0  # atno 6907 bound_to 6896
  150.8193  133.8270  159.3152 H   0  0  0  0  0  0  0  0  0  0  0  0  # atno 6908 bound_to 6896
  151.5957  135.1053  160.0100 H   0  0  0  0  0  0  0  0  0  0  0  0  # atno 6909 bound_to 6896
  145.3068  139.2552  143.3784 H   0  0  0  0  0  0  0  0  0  0  0  0  # atno 7974 bound_to 7965
  155.2850  140.0446  157.3018 H   0  0  0  0  0  0  0  0  0  0  0  0  # atno 8008 bound_to 7997
  154.5575  140.2336  155.8356 H   0  0  0  0  0  0  0  0  0  0  0  0  # atno 8009 bound_to 7997
  156.2019  140.3023  155.9552 H   0  0  0  0  0  0  0  0  0  0  0  0  # atno 8010 bound_to 7997
  139.9187  143.6407  152.2558 H   0  0  0  0  0  0  0  0  0  0  0  0  # atno 10167 bound_to 10162
  157.6172  131.1023  150.7446 H   0  0  0  0  0  0  0  0  0  0  0  0  # atno 10718 bound_to 10713
  154.5329  135.5711  153.6774 H   0  0  0  0  0  0  0  0  0  0  0  0  # atno 10763 bound_to 10752
  152.9944  135.6209  154.2604 H   0  0  0  0  0  0  0  0  0  0  0  0  # atno 10764 bound_to 10752
  154.2532  135.2858  155.2788 H   0  0  0  0  0  0  0  0  0  0  0  0  # atno 10765 bound_to 10752
  141.1241  133.8457  157.1197 H   0  0  0  0  0  0  0  0  0  0  0  0  # atno 11005 bound_to 11000
  146.3132  140.3594  142.8663 LP  0  0  0  0  0  0  0  0  0  0  0  0  # atno 17320 bound_to 7965
  144.9049  140.7687  143.5844 LP  0  0  0  0  0  0  0  0  0  0  0  0  # atno 17321 bound_to 7965
  139.6880  144.7650  151.1490 LP  0  0  0  0  0  0  0  0  0  0  0  0  # atno 17342 bound_to 10162
  140.7667  143.5630  150.9078 LP  0  0  0  0  0  0  0  0  0  0  0  0  # atno 17343 bound_to 10162
  156.7811  130.4859  149.5401 LP  0  0  0  0  0  0  0  0  0  0  0  0  # atno 17370 bound_to 10713
  156.1299  130.6171  151.0319 LP  0  0  0  0  0  0  0  0  0  0  0  0  # atno 17371 bound_to 10713
  140.0224  134.9939  157.0619 LP  0  0  0  0  0  0  0  0  0  0  0  0  # atno 17394 bound_to 11000
  140.4418  134.1673  155.7174 LP  0  0  0  0  0  0  0  0  0  0  0  0  # atno 17395 bound_to 11000

$$$$
