AV-unprocessed.smi:1600|AV-procd|sdf|6429|dock5
  -GOLD-   22720 7 73D 1   1.00000     0.00000
 Structure written by MMmdl.
 46 47  0  0  0  0  0  0  0  0  2 V2000
  153.7743  141.6561  160.6280 C   0  0  0  0  0  0  0  0  0  0  0  0
  152.7445  142.2616  159.7204 C   0  0  0  0  0  0  0  0  0  0  0  0
  152.1011  141.6610  158.5994 C   0  0  0  0  0  0  0  0  0  0  0  0
  151.2726  142.6567  158.1587 C   0  0  0  0  0  0  0  0  0  0  0  0
  150.4134  142.6501  157.1046 N   0  0  0  0  0  0  0  0  0  0  0  0
  150.1889  141.6711  156.2108 C   0  0  0  0  0  0  0  0  0  0  0  0
  150.7523  140.5765  156.1918 O   0  0  0  0  0  0  0  0  0  0  0  0
  149.2554  142.0329  155.3188 N   0  0  0  0  0  0  0  0  0  0  0  0
  148.7650  141.1895  154.2334 C   0  0  0  0  0  0  0  0  0  0  0  0
  147.2329  141.2610  154.0844 C   0  0  2  0  0  0  0  0  0  0  0  0
  146.6384  142.6621  154.2196 C   0  0  0  0  0  0  0  0  0  0  0  0
  145.1944  142.4297  154.6856 C   0  0  0  0  0  0  0  0  0  0  0  0
  145.0911  141.0080  155.1030 N   0  3  2  0  0  0  0  0  0  0  0  0
  144.2623  140.7612  156.3169 C   0  0  0  0  0  0  0  0  0  0  0  0
  142.8037  141.2152  156.1150 C   0  0  0  0  0  0  0  0  0  0  0  0
  144.8561  141.4725  157.5478 C   0  0  0  0  0  0  0  0  0  0  0  0
  146.4718  140.4801  155.1529 C   0  0  0  0  0  0  0  0  0  0  0  0
  151.4298  143.7583  158.9705 N   0  0  0  0  0  0  0  0  0  0  0  0
  150.7783  145.0521  158.9064 C   0  0  0  0  0  0  0  0  0  0  0  0
  152.3420  143.5093  159.9347 N   0  0  0  0  0  0  0  0  0  0  0  0
  153.9834  140.6222  160.3524 H   0  0  0  0  0  0  0  0  0  0  0  0
  153.4361  141.6608  161.6645 H   0  0  0  0  0  0  0  0  0  0  0  0
  154.7133  142.2081  160.5798 H   0  0  0  0  0  0  0  0  0  0  0  0
  152.2407  140.6666  158.2034 H   0  0  0  0  0  0  0  0  0  0  0  0
  149.8631  143.4890  156.9949 H   0  0  0  0  0  0  0  0  0  0  0  0
  148.8423  142.9500  155.4066 H   0  0  0  0  0  0  0  0  0  0  0  0
  149.2488  141.4753  153.2979 H   0  0  0  0  0  0  0  0  0  0  0  0
  149.0750  140.1642  154.4374 H   0  0  0  0  0  0  0  0  0  0  0  0
  146.9454  140.8602  153.1107 H   0  0  0  0  0  0  0  0  0  0  0  0
  147.1792  143.2268  154.9805 H   0  0  0  0  0  0  0  0  0  0  0  0
  146.6909  143.2283  153.2889 H   0  0  0  0  0  0  0  0  0  0  0  0
  144.9583  143.1129  155.5028 H   0  0  0  0  0  0  0  0  0  0  0  0
  144.4833  142.6164  153.8803 H   0  0  0  0  0  0  0  0  0  0  0  0
  144.2567  139.6872  156.5106 H   0  0  0  0  0  0  0  0  0  0  0  0
  142.2218  141.0734  157.0263 H   0  0  0  0  0  0  0  0  0  0  0  0
  142.3019  140.6465  155.3318 H   0  0  0  0  0  0  0  0  0  0  0  0
  142.7493  142.2720  155.8506 H   0  0  0  0  0  0  0  0  0  0  0  0
  144.2383  141.3051  158.4307 H   0  0  0  0  0  0  0  0  0  0  0  0
  144.9191  142.5499  157.3902 H   0  0  0  0  0  0  0  0  0  0  0  0
  145.8560  141.1129  157.7896 H   0  0  0  0  0  0  0  0  0  0  0  0
  146.5019  139.4053  154.9706 H   0  0  0  0  0  0  0  0  0  0  0  0
  146.9029  140.6721  156.1373 H   0  0  0  0  0  0  0  0  0  0  0  0
  149.7010  144.9172  158.8056 H   0  0  0  0  0  0  0  0  0  0  0  0
  151.1521  145.6073  158.0455 H   0  0  0  0  0  0  0  0  0  0  0  0
  150.9759  145.6262  159.8129 H   0  0  0  0  0  0  0  0  0  0  0  0
  144.6428  140.5263  154.3365 H   0  0  0  0  0  0  0  0  0  0  0  0
  1  2  1  0  0  0  0
  1 21  1  0  0  0  0
  1 22  1  0  0  0  0
  1 23  1  0  0  0  0
  2 20  2  0  0  0  0
  2  3  1  0  0  0  0
  3  4  2  0  0  0  0
  3 24  1  0  0  0  0
  4  5  1  0  0  0  0
  4 18  1  0  0  0  0
  5  6  1  0  0  0  0
  5 25  1  0  0  0  0
  6  7  2  0  0  0  0
  6  8  1  0  0  0  0
  8  9  1  0  0  0  0
  8 26  1  0  0  0  0
  9 10  1  0  0  0  0
  9 27  1  0  0  0  0
  9 28  1  0  0  0  0
 10 17  1  0  0  0  0
 10 11  1  0  0  0  0
 10 29  1  0  0  0  0
 11 12  1  0  0  0  0
 11 30  1  0  0  0  0
 11 31  1  0  0  0  0
 12 13  1  0  0  0  0
 12 32  1  0  0  0  0
 12 33  1  0  0  0  0
 13 14  1  0  0  0  0
 13 17  1  0  0  0  0
 13 46  1  0  0  0  0
 14 15  1  0  0  0  0
 14 16  1  0  0  0  0
 14 34  1  0  0  0  0
 15 35  1  0  0  0  0
 15 36  1  0  0  0  0
 15 37  1  0  0  0  0
 16 38  1  0  0  0  0
 16 39  1  0  0  0  0
 16 40  1  0  0  0  0
 17 41  1  0  0  0  0
 17 42  1  0  0  0  0
 18 19  1  0  0  0  0
 18 20  1  0  0  0  0
 19 43  1  0  0  0  0
 19 44  1  0  0  0  0
 19 45  1  0  0  0  0
M  CHG  1  13   1
M  END
> <s_m_source_file>
AV-unprocessed.smi

> <i_m_source_file_index>
1600

> <i_lp_mmshare_version>
43012

> <i_f3d_flags>
0

> <s_epik_input>
W0NIM11jMVtjSF1jKG4objEpW0NIM10pW05IXUMoPU8pW05IXVtDSDJdW0NAQEhdMltDSDJdW0NIMl1OKFtDSDJdMilbQ0hdKFtDSDNdKVtDSDNd

> <s_epik_cmdline>
J2VwaWtfcHl0aG9uJywgJy1waCcsICc3LjAnLCAnLXRuJywgJzgnLCAnLW1hJywgJzIwMCcsICctbWV0YWxfYmluZGluZycsICctaW1hZScsICc8aW5maWxlLm1hZT4nLCAnLW9tYWUnLCAnPG91dGZpbGUubWFlPic=

> <r_lp_tautomer_probability>
1

> <r_epik_Ionization_Penalty>
0.000297652

> <r_epik_Ionization_Penalty_Charging>
0.000213653

> <r_epik_Ionization_Penalty_Neutral>
8.3999e-05

> <r_epik_State_Penalty>
-0

> <r_epik_Charging_Adjusted_Penalty>
0.000213653

> <i_epik_Tot_Q>
1

> <i_epik_Tot_abs_Q>
1

> <r_epik_Metal_State_Penalty>
-0

> <b_epik_Metal_Only>
0

> <s_lp_Force_Field>
OPLS_2005

> <r_lp_Energy>
32.0246

> <b_lp_Chiralities_Consistent>
1

> <s_lp_Variant>
AV-unprocessed.smi:1600-3

> <Gold.Version>
5.8.1

> <Gold.Id.Protein>
6NUR|6NUR_protein|mol2

> <Gold.PLP.Fitness>
51.6733

> <Gold.PLP.PLP>
-40.1559

> <Gold.PLP.part.hbond>
-3.0000

> <Gold.PLP.part.metal>
0.0000

> <Gold.PLP.part.buried>
-5.1375

> <Gold.PLP.part.nonpolar>
-32.2760

> <Gold.PLP.part.repulsive>
0.2470

> <Gold.PLP.ligand.clash>
0.0000

> <Gold.PLP.ligand.torsion>
0.2626

> <Gold.PLP.Chemscore.Hbond>
4.0000

> <Gold.PLP.Chemscore.CHOScore>
0.0000

> <Gold.PLP.Chemscore.Metal>
0.0000

> <Gold.Chemscore.Hbonds>
donor molecule, donor type, donor heavy atom, donor atom, acceptor molecule, acceptor atom, score
      L1  H     5    25       P1  8028  0.87
      L1  H     8    26       P1  8028  1.00
      L1  H    13    46       P1 10175  1.76

> <Gold.PLP.Chemscore.Internal.Correction>
0.0426

> <Gold.Rescore>
     Score         DG    S(hbond)    S(metal)    S(lipo)     H(rot)  DE(clash)    DE(int)     intcor
     19.01     -20.51       2.94        0.00      75.84       1.44       0.01       1.48       ----

> <Gold.Chemscore.Fitness>
19.0130

> <Gold.Chemscore.DG>
-20.5052

> <Gold.Chemscore.ZeroCoef>
-5.4800

> <Gold.Chemscore.Hbond>
2.9431

> <Gold.Chemscore.Metal>
0.0000

> <Gold.Chemscore.Lipo>
75.8436

> <Gold.Chemscore.Internal_Hbond>
0.0000

> <Gold.Chemscore.DEClash>
0.0126

> <Gold.Chemscore.DEInternal>
1.4796

> <Gold.Chemscore.Rot>
1.4369

> <Gold.Chemscore.Internal.Correction>
   9.000000E+99

> <Gold.Chemscore.Hbonds>
donor molecule, donor type, donor heavy atom, donor atom, acceptor molecule, acceptor atom, score
      L1  H     5    25       P1  8028  0.80
      L1  H     8    26       P1  8028  0.98
      L1  H    13    46       P1 10175  0.82

> <Gold.Chemscore.Hbond.Weighted>
-9.8300

> <Gold.Chemscore.Metal.Weighted>
-0.0000

> <Gold.Chemscore.Lipo.Weighted>
-8.8737

> <Gold.Chemscore.Internal_Hbond.Weighted>
0.0000

> <Gold.Chemscore.DEClash.Weighted>
0.0126

> <Gold.Chemscore.DEInternal.Weighted>
1.4796

> <Gold.Chemscore.Rot.Weighted>
3.6785

> <Gold.Chemscore.Internal.Correction.Weighted>
   9.000000E+99

> <Gold.Protein.RotatedTorsions>
[ 6907 6896 6895 6894 ] final  172.51 input  -60.11 | X-H torsion
[ 7974 7965 7964 7962 ] final -104.02 input  175.53 | X-H torsion
[ 8008 7997 7996 7995 ] final  -38.71 input   59.86 | X-H torsion
[ 10167 10162 10161 10158 ] final -170.25 input  -65.29 | X-H torsion
[ 10718 10713 10712 10709 ] final   65.42 input   66.30 | X-H torsion
[ 10763 10752 10751 10750 ] final -178.98 input  -60.55 | X-H torsion
[ 11005 11000 10999 10996 ] final   87.01 input  -57.11 | X-H torsion

> <Gold.Protein.ActiveResidues>
 VAL166  LYS551  ARG553  GLY616  TRP617  ASP618  TYR619  PRO620  LYS621  CYS622 
 ASP623  PHE694  ASN695  SER759  ASP760  ASP761  ALA762  ILE779  LEU786  VAL792 
 PHE793  MET794  SER795  GLU796  ALA797  LYS798  CYS799  TRP800  GLU811  SER814 

> <Gold.Protein.RotatedAtoms>
  151.7831  133.3351  159.3476 H   0  0  0  0  0  0  0  0  0  0  0  0  # atno 6907 bound_to 6896
  150.7419  134.5913  159.5998 H   0  0  0  0  0  0  0  0  0  0  0  0  # atno 6908 bound_to 6896
  152.3262  134.7319  160.0352 H   0  0  0  0  0  0  0  0  0  0  0  0  # atno 6909 bound_to 6896
  145.2485  140.9230  143.3109 H   0  0  0  0  0  0  0  0  0  0  0  0  # atno 7974 bound_to 7965
  154.4033  140.1570  156.2745 H   0  0  0  0  0  0  0  0  0  0  0  0  # atno 8008 bound_to 7997
  155.8924  140.3438  155.5944 H   0  0  0  0  0  0  0  0  0  0  0  0  # atno 8009 bound_to 7997
  155.7543  140.0809  157.2177 H   0  0  0  0  0  0  0  0  0  0  0  0  # atno 8010 bound_to 7997
  139.5873  144.1290  152.1591 H   0  0  0  0  0  0  0  0  0  0  0  0  # atno 10167 bound_to 10162
  157.6104  130.9213  149.9974 H   0  0  0  0  0  0  0  0  0  0  0  0  # atno 10718 bound_to 10713
  154.5409  135.2806  155.1096 H   0  0  0  0  0  0  0  0  0  0  0  0  # atno 10763 bound_to 10752
  154.2580  135.6327  153.5268 H   0  0  0  0  0  0  0  0  0  0  0  0  # atno 10764 bound_to 10752
  152.9978  135.5598  154.5948 H   0  0  0  0  0  0  0  0  0  0  0  0  # atno 10765 bound_to 10752
  139.8930  134.8394  156.2801 H   0  0  0  0  0  0  0  0  0  0  0  0  # atno 11005 bound_to 11000
  144.9524  139.4068  143.6396 LP  0  0  0  0  0  0  0  0  0  0  0  0  # atno 17320 bound_to 7965
  146.3309  139.8538  142.8868 LP  0  0  0  0  0  0  0  0  0  0  0  0  # atno 17321 bound_to 7965
  140.0856  144.5664  150.7091 LP  0  0  0  0  0  0  0  0  0  0  0  0  # atno 17342 bound_to 10162
  140.7143  143.2531  151.4484 LP  0  0  0  0  0  0  0  0  0  0  0  0  # atno 17343 bound_to 10162
  156.1205  130.3646  149.9895 LP  0  0  0  0  0  0  0  0  0  0  0  0  # atno 17370 bound_to 10713
  156.7976  130.9279  151.3646 LP  0  0  0  0  0  0  0  0  0  0  0  0  # atno 17371 bound_to 10713
  141.0044  133.7132  156.1012 LP  0  0  0  0  0  0  0  0  0  0  0  0  # atno 17394 bound_to 11000
  140.7453  134.4105  157.5549 LP  0  0  0  0  0  0  0  0  0  0  0  0  # atno 17395 bound_to 11000

$$$$
