AV-unprocessed.smi:2655|AV-procd|sdf|10300|dock8
  -GOLD-   2272014313D 1   1.00000     0.00000
 Structure written by MMmdl.
 34 35  0  0  0  0  0  0  0  0  1 V2000
  144.0738  134.4635  152.9180 C   0  0  0  0  0  0  0  0  0  0  0  0
  144.6740  135.3097  151.8319 C   0  0  0  0  0  0  0  0  0  0  0  0
  144.3706  135.0385  150.5663 N   0  0  0  0  0  0  0  0  0  0  0  0
  145.0443  135.9621  149.8554 N   0  0  0  0  0  0  0  0  0  0  0  0
  145.7600  136.8027  150.6678 C   0  0  0  0  0  0  0  0  0  0  0  0
  146.5051  137.8132  150.1453 O   0  0  0  0  0  0  0  0  0  0  0  0
  145.5601  136.4249  151.9637 C   0  0  0  0  0  0  0  0  0  0  0  0
  146.1226  137.0332  153.2198 C   0  0  0  0  0  0  0  0  0  0  0  0
  146.3613  138.5428  153.0537 C   0  0  0  0  0  0  0  0  0  0  0  0
  147.7833  138.8658  153.0390 N   0  0  0  0  0  0  0  0  0  0  0  0
  148.6238  138.6761  154.0667 C   0  0  0  0  0  0  0  0  0  0  0  0
  148.2755  138.2055  155.1501 O   0  0  0  0  0  0  0  0  0  0  0  0
  149.8724  139.0654  153.7566 N   0  0  0  0  0  0  0  0  0  0  0  0
  151.0216  139.0242  154.5872 C   0  0  0  0  0  0  0  0  0  0  0  0
  151.4153  137.8199  155.2291 C   0  0  0  0  0  0  0  0  0  0  0  0
  152.5394  138.1889  155.9130 C   0  0  0  0  0  0  0  0  0  0  0  0
  153.4791  137.4449  156.7986 C   0  0  0  0  0  0  0  0  0  0  0  0
  152.8073  139.5071  155.7084 O   0  0  0  0  0  0  0  0  0  0  0  0
  151.8306  140.0371  154.8571 N   0  0  0  0  0  0  0  0  0  0  0  0
  144.5939  134.6022  153.8656 H   0  0  0  0  0  0  0  0  0  0  0  0
  144.1251  133.4035  152.6677 H   0  0  0  0  0  0  0  0  0  0  0  0
  143.0257  134.7187  153.0757 H   0  0  0  0  0  0  0  0  0  0  0  0
  145.0028  136.0027  148.8470 H   0  0  0  0  0  0  0  0  0  0  0  0
  147.0588  136.5437  153.4907 H   0  0  0  0  0  0  0  0  0  0  0  0
  145.4508  136.8632  154.0617 H   0  0  0  0  0  0  0  0  0  0  0  0
  145.8863  138.9063  152.1407 H   0  0  0  0  0  0  0  0  0  0  0  0
  145.9008  139.0854  153.8797 H   0  0  0  0  0  0  0  0  0  0  0  0
  148.1520  139.2590  152.1853 H   0  0  0  0  0  0  0  0  0  0  0  0
  150.0158  139.4350  152.8285 H   0  0  0  0  0  0  0  0  0  0  0  0
  150.9534  136.8444  155.1943 H   0  0  0  0  0  0  0  0  0  0  0  0
  153.2720  136.3748  156.7766 H   0  0  0  0  0  0  0  0  0  0  0  0
  153.3888  137.7865  157.8298 H   0  0  0  0  0  0  0  0  0  0  0  0
  154.5110  137.5953  156.4809 H   0  0  0  0  0  0  0  0  0  0  0  0
  145.9227  138.5321  149.9526 H   0  0  0  0  0  0  0  0  0  0  0  0
  1 20  1  0  0  0  0
  1 21  1  0  0  0  0
  1 22  1  0  0  0  0
  1  2  1  0  0  0  0
  2  7  1  0  0  0  0
  2  3  2  0  0  0  0
  3  4  1  0  0  0  0
  4 23  1  0  0  0  0
  4  5  1  0  0  0  0
  5  7  2  0  0  0  0
  5  6  1  0  0  0  0
  6 34  1  0  0  0  0
  7  8  1  0  0  0  0
  8  9  1  0  0  0  0
  8 24  1  0  0  0  0
  8 25  1  0  0  0  0
  9 10  1  0  0  0  0
  9 26  1  0  0  0  0
  9 27  1  0  0  0  0
 10 11  1  0  0  0  0
 10 28  1  0  0  0  0
 11 12  2  0  0  0  0
 11 13  1  0  0  0  0
 13 14  1  0  0  0  0
 13 29  1  0  0  0  0
 14 19  2  0  0  0  0
 14 15  1  0  0  0  0
 15 16  2  0  0  0  0
 15 30  1  0  0  0  0
 16 17  1  0  0  0  0
 16 18  1  0  0  0  0
 17 31  1  0  0  0  0
 17 32  1  0  0  0  0
 17 33  1  0  0  0  0
 18 19  1  0  0  0  0
M  END
> <s_m_source_file>
AV-unprocessed.smi

> <i_m_source_file_index>
2655

> <i_lp_mmshare_version>
43012

> <i_f3d_flags>
0

> <s_epik_input>
W0NIM11DMT1OW05IXUMoPU8pW0NASF0xW0NIMl1bQ0gyXVtOSF1DKD1PKVtOSF1jMltjSF1jKFtDSDNdKW9uMg==

> <s_epik_cmdline>
J2VwaWtfcHl0aG9uJywgJy1waCcsICc3LjAnLCAnLXRuJywgJzgnLCAnLW1hJywgJzIwMCcsICctbWV0YWxfYmluZGluZycsICctaW1hZScsICc8aW5maWxlLm1hZT4nLCAnLW9tYWUnLCAnPG91dGZpbGUubWFlPic=

> <r_lp_tautomer_probability>
0.0227396

> <r_epik_Ionization_Penalty>
3.51829

> <r_epik_Ionization_Penalty_Charging>
0

> <r_epik_Ionization_Penalty_Neutral>
3.51829

> <r_epik_State_Penalty>
1.61027

> <r_epik_Charging_Adjusted_Penalty>
1.61027

> <i_epik_Tot_Q>
0

> <i_epik_Tot_abs_Q>
0

> <r_epik_Metal_State_Penalty>
3.01397

> <b_epik_Metal_Only>
0

> <s_lp_Force_Field>
OPLS_2005

> <r_lp_Energy>
-1.25166

> <b_lp_Chiralities_Consistent>
1

> <s_lp_Variant>
AV-unprocessed.smi:2655-3

> <Gold.Version>
5.8.1

> <Gold.Id.Protein>
6NUR|6NUR_protein|mol2

> <Gold.PLP.Fitness>
44.8833

> <Gold.PLP.PLP>
-29.8134

> <Gold.PLP.part.hbond>
-8.5101

> <Gold.PLP.part.metal>
0.0000

> <Gold.PLP.part.buried>
-3.5498

> <Gold.PLP.part.nonpolar>
-19.5113

> <Gold.PLP.part.repulsive>
0.6375

> <Gold.PLP.ligand.clash>
0.0000

> <Gold.PLP.ligand.torsion>
1.2192

> <Gold.PLP.Chemscore.Hbond>
5.8320

> <Gold.PLP.Chemscore.CHOScore>
0.0000

> <Gold.PLP.Chemscore.Metal>
0.0000

> <Gold.Chemscore.Hbonds>
donor molecule, donor type, donor heavy atom, donor atom, acceptor molecule, acceptor atom, score
      L1  H     4    23       P1  7921  0.48
      L1  H     6    34       P1 10171  0.64
      L1  H    10    28       P1  7957  1.00
      L1  H    13    29       P1  7957  1.00
      P1  H  7954  7966       L1     6  0.72
      P1  H  7989  7998       L1    19  0.90
      P1  H  7997  8009       L1    18  1.00

> <Gold.PLP.Chemscore.Internal.Correction>
0.0122

> <Gold.Rescore>
     Score         DG    S(hbond)    S(metal)    S(lipo)     H(rot)  DE(clash)    DE(int)     intcor
     18.87     -21.13       5.34        0.00      36.61       2.53       0.06       2.21       ----

> <Gold.Chemscore.Fitness>
18.8654

> <Gold.Chemscore.DG>
-21.1334

> <Gold.Chemscore.ZeroCoef>
-5.4800

> <Gold.Chemscore.Hbond>
5.3448

> <Gold.Chemscore.Metal>
0.0000

> <Gold.Chemscore.Lipo>
36.6090

> <Gold.Chemscore.Internal_Hbond>
0.0000

> <Gold.Chemscore.DEClash>
0.0575

> <Gold.Chemscore.DEInternal>
2.2105

> <Gold.Chemscore.Rot>
2.5318

> <Gold.Chemscore.Internal.Correction>
   9.000000E+99

> <Gold.Chemscore.Hbonds>
donor molecule, donor type, donor heavy atom, donor atom, acceptor molecule, acceptor atom, score
      L1  H     4    23       P1  7921  0.45
      L1  H     6    34       P1 10171  0.60
      L1  H    10    28       P1  7957  0.96
      L1  H    13    29       P1  7957  0.96
      P1  H  7954  7966       L1     6  0.71
      P1  H  7989  7998       L1    19  0.19
      P1  H  7997  8009       L1    18  0.96

> <Gold.Chemscore.Hbond.Weighted>
-17.8516

> <Gold.Chemscore.Metal.Weighted>
-0.0000

> <Gold.Chemscore.Lipo.Weighted>
-4.2833

> <Gold.Chemscore.Internal_Hbond.Weighted>
0.0000

> <Gold.Chemscore.DEClash.Weighted>
0.0575

> <Gold.Chemscore.DEInternal.Weighted>
2.2105

> <Gold.Chemscore.Rot.Weighted>
6.4815

> <Gold.Chemscore.Internal.Correction.Weighted>
   9.000000E+99

> <Gold.Protein.RotatedTorsions>
[ 6907 6896 6895 6894 ] final -115.39 input  -60.11 | X-H torsion
[ 7974 7965 7964 7962 ] final -147.01 input  175.53 | X-H torsion
[ 8008 7997 7996 7995 ] final -132.72 input   59.86 | X-H torsion
[ 10167 10162 10161 10158 ] final -117.79 input  -65.29 | X-H torsion
[ 10718 10713 10712 10709 ] final  -20.58 input   66.30 | X-H torsion
[ 10763 10752 10751 10750 ] final -178.11 input  -60.55 | X-H torsion
[ 11005 11000 10999 10996 ] final  152.50 input  -57.11 | X-H torsion

> <Gold.Protein.ActiveResidues>
 VAL166  LYS551  ARG553  GLY616  TRP617  ASP618  TYR619  PRO620  LYS621  CYS622 
 ASP623  PHE694  ASN695  SER759  ASP760  ASP761  ALA762  ILE779  LEU786  VAL792 
 PHE793  MET794  SER795  GLU796  ALA797  LYS798  CYS799  TRP800  GLU811  SER814 

> <Gold.Protein.RotatedAtoms>
  150.7974  133.8665  159.3246 H   0  0  0  0  0  0  0  0  0  0  0  0  # atno 6907 bound_to 6896
  151.6487  135.1002  160.0165 H   0  0  0  0  0  0  0  0  0  0  0  0  # atno 6908 bound_to 6896
  152.4058  133.6847  159.6390 H   0  0  0  0  0  0  0  0  0  0  0  0  # atno 6909 bound_to 6896
  144.8121  140.5382  143.5635 H   0  0  0  0  0  0  0  0  0  0  0  0  # atno 7974 bound_to 7965
  155.3335  140.0468  157.3043 H   0  0  0  0  0  0  0  0  0  0  0  0  # atno 8008 bound_to 7997
  154.5315  140.2258  155.8761 H   0  0  0  0  0  0  0  0  0  0  0  0  # atno 8009 bound_to 7997
  156.1793  140.3077  155.9125 H   0  0  0  0  0  0  0  0  0  0  0  0  # atno 8010 bound_to 7997
  140.0645  143.4936  152.2013 H   0  0  0  0  0  0  0  0  0  0  0  0  # atno 10167 bound_to 10162
  156.5299  130.4652  149.6552 H   0  0  0  0  0  0  0  0  0  0  0  0  # atno 10718 bound_to 10713
  154.5518  135.2813  155.1002 H   0  0  0  0  0  0  0  0  0  0  0  0  # atno 10763 bound_to 10752
  154.2444  135.6351  153.5222 H   0  0  0  0  0  0  0  0  0  0  0  0  # atno 10764 bound_to 10752
  153.0005  135.5568  154.6086 H   0  0  0  0  0  0  0  0  0  0  0  0  # atno 10765 bound_to 10752
  140.1313  134.8800  157.2208 H   0  0  0  0  0  0  0  0  0  0  0  0  # atno 11005 bound_to 11000
  145.5298  139.1475  143.3506 LP  0  0  0  0  0  0  0  0  0  0  0  0  # atno 17320 bound_to 7965
  146.2421  140.5439  142.8929 LP  0  0  0  0  0  0  0  0  0  0  0  0  # atno 17321 bound_to 7965
  139.5873  144.7536  151.3488 LP  0  0  0  0  0  0  0  0  0  0  0  0  # atno 17342 bound_to 10162
  140.7156  143.7276  150.7648 LP  0  0  0  0  0  0  0  0  0  0  0  0  # atno 17343 bound_to 10162
  156.3070  130.7208  151.2092 LP  0  0  0  0  0  0  0  0  0  0  0  0  # atno 17370 bound_to 10713
  157.7423  131.0491  150.5031 LP  0  0  0  0  0  0  0  0  0  0  0  0  # atno 17371 bound_to 10713
  140.2838  134.3319  155.7335 LP  0  0  0  0  0  0  0  0  0  0  0  0  # atno 17394 bound_to 11000
  141.2171  133.7494  156.9403 LP  0  0  0  0  0  0  0  0  0  0  0  0  # atno 17395 bound_to 11000

$$$$
