AV-unprocessed.smi:1807|AV-procd|sdf|7302|dock6
  -GOLD-   22720 8563D 1   1.00000     0.00000
 Structure written by MMmdl.
 44 45  0  0  0  0  0  0  0  0  1 V2000
  148.0268  140.0946  154.5129 C   0  0  0  0  0  0  0  0  0  0  0  0
  149.5536  140.1918  154.6728 C   0  0  1  0  0  0  0  0  0  0  0  0
  149.9455  140.7025  156.0747 C   0  0  0  0  0  0  0  0  0  0  0  0
  151.4678  140.8652  156.2113 C   0  0  0  0  0  0  0  0  0  0  0  0
  152.2024  139.5570  155.8826 C   0  0  0  0  0  0  0  0  0  0  0  0
  151.8156  139.0347  154.4878 C   0  0  0  0  0  0  0  0  0  0  0  0
  150.2906  138.8719  154.3265 C   0  0  1  0  0  0  0  0  0  0  0  0
  149.8222  137.7520  155.1464 N   0  0  0  0  0  0  0  0  0  0  0  0
  150.4278  136.5628  155.2880 C   0  0  0  0  0  0  0  0  0  0  0  0
  151.4834  136.2679  154.7246 O   0  0  0  0  0  0  0  0  0  0  0  0
  149.7207  135.5696  156.2142 C   0  0  0  0  0  0  0  0  0  0  0  0
  150.4734  134.3328  156.3737 N   0  0  0  0  0  0  0  0  0  0  0  0
  150.1234  133.2063  155.6224 C   0  0  0  0  0  0  0  0  0  0  0  0
  149.0458  133.2201  154.6959 C   0  0  0  0  0  0  0  0  0  0  0  0
  149.0534  131.9511  154.1904 C   0  0  0  0  0  0  0  0  0  0  0  0
  150.0832  131.2644  154.8045 N   0  0  0  0  0  0  0  0  0  0  0  0
  150.4971  129.8878  154.5989 C   0  0  0  0  0  0  0  0  0  0  0  0
  151.8945  129.6374  155.1709 C   0  0  0  0  0  0  0  0  0  0  0  0
  152.7699  129.0039  154.3866 N   0  0  0  0  0  0  0  0  0  0  0  0
  152.1825  130.0124  156.3055 O   0  0  0  0  0  0  0  0  0  0  0  0
  150.7433  132.0383  155.6944 N   0  0  0  0  0  0  0  0  0  0  0  0
  147.5859  139.4157  155.2432 H   0  0  0  0  0  0  0  0  0  0  0  0
  147.7595  139.7351  153.5188 H   0  0  0  0  0  0  0  0  0  0  0  0
  147.5577  141.0694  154.6472 H   0  0  0  0  0  0  0  0  0  0  0  0
  149.8918  140.9399  153.9542 H   0  0  0  0  0  0  0  0  0  0  0  0
  149.4605  141.6592  156.2709 H   0  0  0  0  0  0  0  0  0  0  0  0
  149.5814  140.0134  156.8379 H   0  0  0  0  0  0  0  0  0  0  0  0
  151.8118  141.6546  155.5419 H   0  0  0  0  0  0  0  0  0  0  0  0
  151.7178  141.1875  157.2224 H   0  0  0  0  0  0  0  0  0  0  0  0
  153.2800  139.7150  155.9324 H   0  0  0  0  0  0  0  0  0  0  0  0
  151.9678  138.8055  156.6375 H   0  0  0  0  0  0  0  0  0  0  0  0
  152.1812  139.7331  153.7339 H   0  0  0  0  0  0  0  0  0  0  0  0
  152.3196  138.0876  154.2905 H   0  0  0  0  0  0  0  0  0  0  0  0
  150.1036  138.6469  153.2751 H   0  0  0  0  0  0  0  0  0  0  0  0
  148.9592  137.8970  155.6497 H   0  0  0  0  0  0  0  0  0  0  0  0
  149.5771  136.0391  157.1883 H   0  0  0  0  0  0  0  0  0  0  0  0
  148.7336  135.3413  155.8091 H   0  0  0  0  0  0  0  0  0  0  0  0
  151.1861  134.2779  157.0875 H   0  0  0  0  0  0  0  0  0  0  0  0
  148.3772  134.0289  154.4405 H   0  0  0  0  0  0  0  0  0  0  0  0
  148.4208  131.4843  153.4502 H   0  0  0  0  0  0  0  0  0  0  0  0
  149.7830  129.2162  155.0783 H   0  0  0  0  0  0  0  0  0  0  0  0
  150.4711  129.6728  153.5296 H   0  0  0  0  0  0  0  0  0  0  0  0
  153.7052  128.8182  154.7184 H   0  0  0  0  0  0  0  0  0  0  0  0
  152.4919  128.7147  153.4598 H   0  0  0  0  0  0  0  0  0  0  0  0
  1  2  1  0  0  0  0
  1 22  1  0  0  0  0
  1 23  1  0  0  0  0
  1 24  1  0  0  0  0
  2  7  1  0  0  0  0
  2  3  1  0  0  0  0
  2 25  1  0  0  0  0
  3  4  1  0  0  0  0
  3 26  1  0  0  0  0
  3 27  1  0  0  0  0
  4  5  1  0  0  0  0
  4 28  1  0  0  0  0
  4 29  1  0  0  0  0
  5  6  1  0  0  0  0
  5 30  1  0  0  0  0
  5 31  1  0  0  0  0
  6  7  1  0  0  0  0
  6 32  1  0  0  0  0
  6 33  1  0  0  0  0
  7  8  1  0  0  0  0
  7 34  1  0  0  0  0
  8  9  1  0  0  0  0
  8 35  1  0  0  0  0
  9 10  2  0  0  0  0
  9 11  1  0  0  0  0
 11 12  1  0  0  0  0
 11 36  1  0  0  0  0
 11 37  1  0  0  0  0
 12 13  1  0  0  0  0
 12 38  1  0  0  0  0
 13 21  2  0  0  0  0
 13 14  1  0  0  0  0
 14 15  2  0  0  0  0
 14 39  1  0  0  0  0
 15 16  1  0  0  0  0
 15 40  1  0  0  0  0
 16 17  1  0  0  0  0
 16 21  1  0  0  0  0
 17 18  1  0  0  0  0
 17 41  1  0  0  0  0
 17 42  1  0  0  0  0
 18 19  1  0  0  0  0
 18 20  2  0  0  0  0
 19 43  1  0  0  0  0
 19 44  1  0  0  0  0
M  END
> <s_m_source_file>
AV-unprocessed.smi

> <i_m_source_file_index>
1807

> <i_lp_mmshare_version>
43012

> <i_f3d_flags>
0

> <s_epik_input>
W0NIM11bQ0BASF0xW0NIMl1bQ0gyXVtDSDJdW0NIMl1bQ0BIXTFbTkhdQyg9TylbQ0gyXVtOSF1jMltjSF1bY0hdbihuMilbQ0gyXUMoPU8pW05IMl0=

> <s_epik_cmdline>
J2VwaWtfcHl0aG9uJywgJy1waCcsICc3LjAnLCAnLXRuJywgJzgnLCAnLW1hJywgJzIwMCcsICctbWV0YWxfYmluZGluZycsICctaW1hZScsICc8aW5maWxlLm1hZT4nLCAnLW9tYWUnLCAnPG91dGZpbGUubWFlPic=

> <r_lp_tautomer_probability>
1

> <r_epik_Ionization_Penalty>
0.000167642

> <r_epik_Ionization_Penalty_Charging>
0

> <r_epik_Ionization_Penalty_Neutral>
0.000167642

> <r_epik_State_Penalty>
-0

> <r_epik_Charging_Adjusted_Penalty>
0

> <i_epik_Tot_Q>
0

> <i_epik_Tot_abs_Q>
0

> <r_epik_Metal_State_Penalty>
-0

> <b_epik_Metal_Only>
0

> <s_lp_Force_Field>
OPLS_2005

> <r_lp_Energy>
4.94833

> <b_lp_Chiralities_Consistent>
1

> <s_lp_Variant>
AV-unprocessed.smi:1807-2

> <Gold.Version>
5.8.1

> <Gold.Id.Protein>
6NUR|6NUR_protein|mol2

> <Gold.PLP.Fitness>
44.6170

> <Gold.PLP.PLP>
-37.0405

> <Gold.PLP.part.hbond>
-2.0000

> <Gold.PLP.part.metal>
0.0000

> <Gold.PLP.part.buried>
-2.7817

> <Gold.PLP.part.nonpolar>
-31.0032

> <Gold.PLP.part.repulsive>
0.3068

> <Gold.PLP.ligand.clash>
0.0000

> <Gold.PLP.ligand.torsion>
0.7038

> <Gold.PLP.Chemscore.Hbond>
2.0000

> <Gold.PLP.Chemscore.CHOScore>
0.9901

> <Gold.PLP.Chemscore.Metal>
0.0000

> <Gold.Chemscore.Hbonds>
donor molecule, donor type, donor heavy atom, donor atom, acceptor molecule, acceptor atom, score
      L1  H    19    44       P1 10737  0.85
      P1  H 10752 10764       L1    10  1.00

> <Gold.PLP.Chemscore.Internal.Correction>
0.0137

> <Gold.Rescore>
     Score         DG    S(hbond)    S(metal)    S(lipo)     H(rot)  DE(clash)    DE(int)     intcor
      9.17     -13.31       1.94        0.00      69.17       2.64       0.02       4.12       ----

> <Gold.Chemscore.Fitness>
9.1656

> <Gold.Chemscore.DG>
-13.3068

> <Gold.Chemscore.ZeroCoef>
-5.4800

> <Gold.Chemscore.Hbond>
1.9416

> <Gold.Chemscore.Metal>
0.0000

> <Gold.Chemscore.Lipo>
69.1652

> <Gold.Chemscore.Internal_Hbond>
0.0000

> <Gold.Chemscore.DEClash>
0.0234

> <Gold.Chemscore.DEInternal>
4.1178

> <Gold.Chemscore.Rot>
2.6369

> <Gold.Chemscore.Internal.Correction>
   9.000000E+99

> <Gold.Chemscore.Hbonds>
donor molecule, donor type, donor heavy atom, donor atom, acceptor molecule, acceptor atom, score
      L1  H    19    44       P1 10737  0.14
      P1  H 10752 10764       L1    10  0.98

> <Gold.Chemscore.Hbond.Weighted>
-6.4848

> <Gold.Chemscore.Metal.Weighted>
-0.0000

> <Gold.Chemscore.Lipo.Weighted>
-8.0923

> <Gold.Chemscore.Internal_Hbond.Weighted>
0.0000

> <Gold.Chemscore.DEClash.Weighted>
0.0234

> <Gold.Chemscore.DEInternal.Weighted>
4.1178

> <Gold.Chemscore.Rot.Weighted>
6.7504

> <Gold.Chemscore.Internal.Correction.Weighted>
   9.000000E+99

> <Gold.Protein.RotatedTorsions>
[ 6907 6896 6895 6894 ] final  158.30 input  -60.11 | X-H torsion
[ 7974 7965 7964 7962 ] final  -97.01 input  175.53 | X-H torsion
[ 8008 7997 7996 7995 ] final  -60.16 input   59.86 | X-H torsion
[ 10167 10162 10161 10158 ] final   34.11 input  -65.29 | X-H torsion
[ 10718 10713 10712 10709 ] final   17.37 input   66.30 | X-H torsion
[ 10763 10752 10751 10750 ] final  -65.18 input  -60.55 | X-H torsion
[ 11005 11000 10999 10996 ] final   66.82 input  -57.11 | X-H torsion

> <Gold.Protein.ActiveResidues>
 VAL166  LYS551  ARG553  GLY616  TRP617  ASP618  TYR619  PRO620  LYS621  CYS622 
 ASP623  PHE694  ASN695  SER759  ASP760  ASP761  ALA762  ILE779  LEU786  VAL792 
 PHE793  MET794  SER795  GLU796  ALA797  LYS798  CYS799  TRP800  GLU811  SER814 

> <Gold.Protein.RotatedAtoms>
  152.0024  133.3830  159.4186 H   0  0  0  0  0  0  0  0  0  0  0  0  # atno 6907 bound_to 6896
  150.6908  134.3819  159.5047 H   0  0  0  0  0  0  0  0  0  0  0  0  # atno 6908 bound_to 6896
  152.1568  134.8944  160.0595 H   0  0  0  0  0  0  0  0  0  0  0  0  # atno 6909 bound_to 6896
  145.3393  140.9457  143.2617 H   0  0  0  0  0  0  0  0  0  0  0  0  # atno 7974 bound_to 7965
  154.4386  140.1045  156.6230 H   0  0  0  0  0  0  0  0  0  0  0  0  # atno 8008 bound_to 7997
  155.5687  140.3489  155.4491 H   0  0  0  0  0  0  0  0  0  0  0  0  # atno 8009 bound_to 7997
  156.0406  140.1281  157.0149 H   0  0  0  0  0  0  0  0  0  0  0  0  # atno 8010 bound_to 7997
  140.4345  144.1277  150.6164 H   0  0  0  0  0  0  0  0  0  0  0  0  # atno 10167 bound_to 10162
  157.0812  130.6388  149.5827 H   0  0  0  0  0  0  0  0  0  0  0  0  # atno 10718 bound_to 10713
  154.3412  135.6156  153.5597 H   0  0  0  0  0  0  0  0  0  0  0  0  # atno 10763 bound_to 10752
  152.9804  135.5770  154.4850 H   0  0  0  0  0  0  0  0  0  0  0  0  # atno 10764 bound_to 10752
  154.4555  135.2854  155.1728 H   0  0  0  0  0  0  0  0  0  0  0  0  # atno 10765 bound_to 10752
  139.9808  134.6747  156.0266 H   0  0  0  0  0  0  0  0  0  0  0  0  # atno 11005 bound_to 11000
  144.8803  139.4914  143.6726 LP  0  0  0  0  0  0  0  0  0  0  0  0  # atno 17320 bound_to 7965
  146.3014  139.7438  142.9088 LP  0  0  0  0  0  0  0  0  0  0  0  0  # atno 17321 bound_to 7965
  140.4389  143.2535  151.9499 LP  0  0  0  0  0  0  0  0  0  0  0  0  # atno 17342 bound_to 10162
  139.4786  144.5673  151.8144 LP  0  0  0  0  0  0  0  0  0  0  0  0  # atno 17343 bound_to 10162
  155.9923  130.4980  150.7335 LP  0  0  0  0  0  0  0  0  0  0  0  0  # atno 17370 bound_to 10713
  157.4798  131.0901  151.0548 LP  0  0  0  0  0  0  0  0  0  0  0  0  # atno 17371 bound_to 10713
  141.1480  133.6553  156.3927 LP  0  0  0  0  0  0  0  0  0  0  0  0  # atno 17394 bound_to 11000
  140.5100  134.6404  157.5281 LP  0  0  0  0  0  0  0  0  0  0  0  0  # atno 17395 bound_to 11000

$$$$
