AV-unprocessed.smi:2530|AV-procd|sdf|9962|dock6
  -GOLD-   2272014 03D 1   1.00000     0.00000
 Structure written by MMmdl.
 44 46  0  0  0  0  0  0  0  0  1 V2000
  149.4981  132.6386  153.8236 C   0  0  0  0  0  0  0  0  0  0  0  0
  149.4627  133.7117  154.8918 C   0  0  0  0  0  0  0  0  0  0  0  0
  148.9262  133.4326  156.1616 C   0  0  0  0  0  0  0  0  0  0  0  0
  148.8819  134.4405  157.1412 C   0  0  0  0  0  0  0  0  0  0  0  0
  149.3637  135.7390  156.8670 C   0  0  0  0  0  0  0  0  0  0  0  0
  149.2634  136.7802  157.9702 C   0  0  0  0  0  0  0  0  0  0  0  0
  149.9125  136.0268  155.5851 C   0  0  0  0  0  0  0  0  0  0  0  0
  150.4279  137.4107  155.1729 C   0  0  2  0  0  0  0  0  0  0  0  0
  150.7314  137.5182  153.7978 O   0  0  0  0  0  0  0  0  0  0  0  0
  151.6317  137.9142  156.0090 C   0  0  0  0  0  0  0  0  0  0  0  0
  151.5231  139.3391  156.3711 N   0  0  0  0  0  0  0  0  0  0  0  0
  151.8207  139.6835  157.7047 C   0  0  0  0  0  0  0  0  0  0  0  0
  151.6927  140.8962  158.1394 N   0  0  0  0  0  0  0  0  0  0  0  0
  151.2486  141.9044  157.2750 C   0  0  0  0  0  0  0  0  0  0  0  0
  151.1122  143.3250  157.8094 C   0  0  0  0  0  0  0  0  0  0  0  0
  152.2713  143.8939  158.6496 C   0  0  0  0  0  0  0  0  0  0  0  0
  151.2096  144.5271  159.5572 C   0  0  0  0  0  0  0  0  0  0  0  0
  150.2324  143.4552  159.0598 C   0  0  0  0  0  0  0  0  0  0  0  0
  150.9882  141.6281  155.9758 C   0  0  0  0  0  0  0  0  0  0  0  0
  151.1211  140.2676  155.4556 C   0  0  0  0  0  0  0  0  0  0  0  0
  150.8724  139.9780  154.2853 O   0  0  0  0  0  0  0  0  0  0  0  0
  149.9555  135.0005  154.6135 C   0  0  0  0  0  0  0  0  0  0  0  0
  149.5013  131.6430  154.2683 H   0  0  0  0  0  0  0  0  0  0  0  0
  150.3922  132.7362  153.2074 H   0  0  0  0  0  0  0  0  0  0  0  0
  148.6241  132.7244  153.1777 H   0  0  0  0  0  0  0  0  0  0  0  0
  148.5435  132.4479  156.3875 H   0  0  0  0  0  0  0  0  0  0  0  0
  148.4646  134.2100  158.1107 H   0  0  0  0  0  0  0  0  0  0  0  0
  150.2511  137.0146  158.3669 H   0  0  0  0  0  0  0  0  0  0  0  0
  148.6552  136.4179  158.7996 H   0  0  0  0  0  0  0  0  0  0  0  0
  148.8018  137.6977  157.6113 H   0  0  0  0  0  0  0  0  0  0  0  0
  149.6096  138.1152  155.3260 H   0  0  0  0  0  0  0  0  0  0  0  0
  149.9736  137.2457  153.3030 H   0  0  0  0  0  0  0  0  0  0  0  0
  151.7452  137.3037  156.9051 H   0  0  0  0  0  0  0  0  0  0  0  0
  152.5564  137.7452  155.4542 H   0  0  0  0  0  0  0  0  0  0  0  0
  152.1513  138.8612  158.3414 H   0  0  0  0  0  0  0  0  0  0  0  0
  150.8075  144.0278  157.0310 H   0  0  0  0  0  0  0  0  0  0  0  0
  152.8673  143.1519  159.1822 H   0  0  0  0  0  0  0  0  0  0  0  0
  152.9032  144.6108  158.1245 H   0  0  0  0  0  0  0  0  0  0  0  0
  151.4328  144.4818  160.6235 H   0  0  0  0  0  0  0  0  0  0  0  0
  150.9291  145.5340  159.2434 H   0  0  0  0  0  0  0  0  0  0  0  0
  149.2198  143.8121  158.8698 H   0  0  0  0  0  0  0  0  0  0  0  0
  150.2344  142.5609  159.6857 H   0  0  0  0  0  0  0  0  0  0  0  0
  150.6636  142.4155  155.3109 H   0  0  0  0  0  0  0  0  0  0  0  0
  150.3550  135.2079  153.6312 H   0  0  0  0  0  0  0  0  0  0  0  0
  1  2  1  0  0  0  0
  1 23  1  0  0  0  0
  1 24  1  0  0  0  0
  1 25  1  0  0  0  0
  2 22  1  0  0  0  0
  2  3  2  0  0  0  0
  3  4  1  0  0  0  0
  3 26  1  0  0  0  0
  4  5  2  0  0  0  0
  4 27  1  0  0  0  0
  5  6  1  0  0  0  0
  5  7  1  0  0  0  0
  6 28  1  0  0  0  0
  6 29  1  0  0  0  0
  6 30  1  0  0  0  0
  7  8  1  0  0  0  0
  7 22  2  0  0  0  0
  8  9  1  0  0  0  0
  8 10  1  0  0  0  0
  8 31  1  0  0  0  0
  9 32  1  0  0  0  0
 10 11  1  0  0  0  0
 10 33  1  0  0  0  0
 10 34  1  0  0  0  0
 11 20  1  0  0  0  0
 11 12  1  0  0  0  0
 12 13  2  0  0  0  0
 12 35  1  0  0  0  0
 13 14  1  0  0  0  0
 14 15  1  0  0  0  0
 14 19  2  0  0  0  0
 15 18  1  0  0  0  0
 15 16  1  0  0  0  0
 15 36  1  0  0  0  0
 16 17  1  0  0  0  0
 16 37  1  0  0  0  0
 16 38  1  0  0  0  0
 17 18  1  0  0  0  0
 17 39  1  0  0  0  0
 17 40  1  0  0  0  0
 18 41  1  0  0  0  0
 18 42  1  0  0  0  0
 19 20  1  0  0  0  0
 19 43  1  0  0  0  0
 20 21  2  0  0  0  0
 22 44  1  0  0  0  0
M  END
> <s_m_source_file>
AV-unprocessed.smi

> <i_m_source_file_index>
2530

> <i_lp_mmshare_version>
43012

> <i_f3d_flags>
0

> <s_epik_input>
W0NIM11jMVtjSF1bY0hdYyhbQ0gzXSljKFtjSF0xKVtDQEhdKFtPSF0pW0NIMl1uMltjSF1uYyhbY0hdYzI9TylbQ0hdM1tDSDJdW0NIMl1bQ0gyXTM=

> <s_epik_cmdline>
J2VwaWtfcHl0aG9uJywgJy1waCcsICc3LjAnLCAnLXRuJywgJzgnLCAnLW1hJywgJzIwMCcsICctbWV0YWxfYmluZGluZycsICctaW1hZScsICc8aW5maWxlLm1hZT4nLCAnLW9tYWUnLCAnPG91dGZpbGUubWFlPic=

> <r_lp_tautomer_probability>
1

> <r_epik_Ionization_Penalty>
2.57341e-05

> <r_epik_Ionization_Penalty_Charging>
5.39435e-08

> <r_epik_Ionization_Penalty_Neutral>
2.56801e-05

> <r_epik_State_Penalty>
-0

> <r_epik_Charging_Adjusted_Penalty>
5.39435e-08

> <i_epik_Tot_Q>
0

> <i_epik_Tot_abs_Q>
0

> <r_epik_Metal_State_Penalty>
-0

> <b_epik_Metal_Only>
0

> <s_lp_Force_Field>
OPLS_2005

> <r_lp_Energy>
27.4041

> <b_lp_Chiralities_Consistent>
1

> <s_lp_Variant>
AV-unprocessed.smi:2530-1

> <Gold.Version>
5.8.1

> <Gold.Id.Protein>
6NUR|6NUR_protein|mol2

> <Gold.PLP.Fitness>
43.7150

> <Gold.PLP.PLP>
-39.5495

> <Gold.PLP.part.hbond>
-3.0000

> <Gold.PLP.part.metal>
0.0000

> <Gold.PLP.part.buried>
-4.8893

> <Gold.PLP.part.nonpolar>
-31.6656

> <Gold.PLP.part.repulsive>
0.1189

> <Gold.PLP.ligand.clash>
0.0000

> <Gold.PLP.ligand.torsion>
0.9772

> <Gold.PLP.Chemscore.Hbond>
1.8960

> <Gold.PLP.Chemscore.CHOScore>
0.0000

> <Gold.PLP.Chemscore.Metal>
0.0000

> <Gold.Chemscore.Hbonds>
donor molecule, donor type, donor heavy atom, donor atom, acceptor molecule, acceptor atom, score
      L1  H     9    32       P1  7948  1.00
      P1  H  7989  7998       L1    21  0.70

> <Gold.PLP.Chemscore.Internal.Correction>
0.4319

> <Gold.Rescore>
     Score         DG    S(hbond)    S(metal)    S(lipo)     H(rot)  DE(clash)    DE(int)     intcor
     12.21     -16.42       1.32        0.00      98.94       1.97       0.03       4.19       ----

> <Gold.Chemscore.Fitness>
12.2079

> <Gold.Chemscore.DG>
-16.4231

> <Gold.Chemscore.ZeroCoef>
-5.4800

> <Gold.Chemscore.Hbond>
1.3194

> <Gold.Chemscore.Metal>
0.0000

> <Gold.Chemscore.Lipo>
98.9361

> <Gold.Chemscore.Internal_Hbond>
0.0000

> <Gold.Chemscore.DEClash>
0.0287

> <Gold.Chemscore.DEInternal>
4.1866

> <Gold.Chemscore.Rot>
1.9684

> <Gold.Chemscore.Internal.Correction>
   9.000000E+99

> <Gold.Chemscore.Hbonds>
donor molecule, donor type, donor heavy atom, donor atom, acceptor molecule, acceptor atom, score
      L1  H     9    32       P1  7948  0.28
      P1  H  7989  7998       L1    21  0.38

> <Gold.Chemscore.Hbond.Weighted>
-4.4067

> <Gold.Chemscore.Metal.Weighted>
-0.0000

> <Gold.Chemscore.Lipo.Weighted>
-11.5755

> <Gold.Chemscore.Internal_Hbond.Weighted>
0.0000

> <Gold.Chemscore.DEClash.Weighted>
0.0287

> <Gold.Chemscore.DEInternal.Weighted>
4.1866

> <Gold.Chemscore.Rot.Weighted>
5.0391

> <Gold.Chemscore.Internal.Correction.Weighted>
   9.000000E+99

> <Gold.Protein.RotatedTorsions>
[ 6907 6896 6895 6894 ] final    7.28 input  -60.11 | X-H torsion
[ 7974 7965 7964 7962 ] final  -40.62 input  175.53 | X-H torsion
[ 8008 7997 7996 7995 ] final   49.08 input   59.86 | X-H torsion
[ 10167 10162 10161 10158 ] final    3.33 input  -65.29 | X-H torsion
[ 10718 10713 10712 10709 ] final  -75.59 input   66.30 | X-H torsion
[ 10763 10752 10751 10750 ] final  -48.34 input  -60.55 | X-H torsion
[ 11005 11000 10999 10996 ] final -104.26 input  -57.11 | X-H torsion

> <Gold.Protein.ActiveResidues>
 VAL166  LYS551  ARG553  GLY616  TRP617  ASP618  TYR619  PRO620  LYS621  CYS622 
 ASP623  PHE694  ASN695  SER759  ASP760  ASP761  ALA762  ILE779  LEU786  VAL792 
 PHE793  MET794  SER795  GLU796  ALA797  LYS798  CYS799  TRP800  GLU811  SER814 

> <Gold.Protein.RotatedAtoms>
  151.6873  135.0952  160.0226 H   0  0  0  0  0  0  0  0  0  0  0  0  # atno 6907 bound_to 6896
  152.3799  133.6528  159.6162 H   0  0  0  0  0  0  0  0  0  0  0  0  # atno 6908 bound_to 6896
  150.7739  133.9047  159.3393 H   0  0  0  0  0  0  0  0  0  0  0  0  # atno 6909 bound_to 6896
  146.0287  140.6758  142.9143 H   0  0  0  0  0  0  0  0  0  0  0  0  # atno 7974 bound_to 7965
  155.3963  140.3436  155.4254 H   0  0  0  0  0  0  0  0  0  0  0  0  # atno 8008 bound_to 7997
  156.1529  140.1576  156.8773 H   0  0  0  0  0  0  0  0  0  0  0  0  # atno 8009 bound_to 7997
  154.5068  140.0800  156.7892 H   0  0  0  0  0  0  0  0  0  0  0  0  # atno 8010 bound_to 7997
  140.6591  143.7350  150.7706 H   0  0  0  0  0  0  0  0  0  0  0  0  # atno 10167 bound_to 10162
  156.0202  130.4444  150.3066 H   0  0  0  0  0  0  0  0  0  0  0  0  # atno 10718 bound_to 10713
  154.0762  135.6597  153.4831 H   0  0  0  0  0  0  0  0  0  0  0  0  # atno 10763 bound_to 10752
  153.0372  135.5169  154.7519 H   0  0  0  0  0  0  0  0  0  0  0  0  # atno 10764 bound_to 10752
  154.6600  135.3013  154.9847 H   0  0  0  0  0  0  0  0  0  0  0  0  # atno 10765 bound_to 10752
  141.1108  133.8708  157.1589 H   0  0  0  0  0  0  0  0  0  0  0  0  # atno 11005 bound_to 11000
  144.7021  140.3697  143.7147 LP  0  0  0  0  0  0  0  0  0  0  0  0  # atno 17320 bound_to 7965
  145.7075  139.1676  143.2557 LP  0  0  0  0  0  0  0  0  0  0  0  0  # atno 17321 bound_to 7965
  140.1016  143.4783  152.2422 LP  0  0  0  0  0  0  0  0  0  0  0  0  # atno 17342 bound_to 10162
  139.5820  144.7515  151.3615 LP  0  0  0  0  0  0  0  0  0  0  0  0  # atno 17343 bound_to 10162
  157.1169  131.0236  151.3025 LP  0  0  0  0  0  0  0  0  0  0  0  0  # atno 17370 bound_to 10713
  157.4660  130.7681  149.7279 LP  0  0  0  0  0  0  0  0  0  0  0  0  # atno 17371 bound_to 10713
  140.0002  135.0031  157.0172 LP  0  0  0  0  0  0  0  0  0  0  0  0  # atno 17394 bound_to 11000
  140.4779  134.1319  155.7212 LP  0  0  0  0  0  0  0  0  0  0  0  0  # atno 17395 bound_to 11000

$$$$
