AV-unprocessed.smi:1768|AV-procd|sdf|7149|dock5
  -GOLD-   22720 8383D 1   1.00000     0.00000
 Structure written by MMmdl.
 32 33  0  0  0  0  0  0  0  0  2 V2000
  144.7643  133.7049  163.0283 C   0  0  0  0  0  0  0  0  0  0  0  0
  145.7075  134.4886  162.1817 C   0  0  0  0  0  0  0  0  0  0  0  0
  145.5138  134.6822  160.8749 N   0  0  0  0  0  0  0  0  0  0  0  0
  146.5230  135.4448  160.3048 N   0  0  0  0  0  0  0  0  0  0  0  0
  147.4579  135.8248  161.1874 C   0  0  0  0  0  0  0  0  0  0  0  0
  148.5196  136.5686  160.8351 N   0  5  0  0  0  0  0  0  0  0  0  0
  149.1160  136.3709  159.6371 C   0  0  0  0  0  0  0  0  0  0  0  0
  148.9812  135.3850  158.9085 O   0  0  0  0  0  0  0  0  0  0  0  0
  149.9189  137.3769  159.2617 N   0  0  0  0  0  0  0  0  0  0  0  0
  150.6888  137.4514  158.0218 C   0  0  2  0  0  0  0  0  0  0  0  0
  152.1923  137.3696  158.3408 C   0  0  0  0  0  0  0  0  0  0  0  0
  150.3206  138.7496  157.2782 C   0  0  1  0  0  0  0  0  0  0  0  0
  150.7069  140.0385  158.0066 C   0  0  0  0  0  0  0  0  0  0  0  0
  150.8717  141.0541  156.8860 C   0  0  0  0  0  0  0  0  0  0  0  0
  150.9258  140.2029  155.6151 C   0  0  0  0  0  0  0  0  0  0  0  0
  151.0619  138.8659  156.0729 O   0  0  0  0  0  0  0  0  0  0  0  0
  147.1624  135.2335  162.8224 S   0  0  0  0  0  0  0  0  0  0  0  0
  143.8925  134.3118  163.2734 H   0  0  0  0  0  0  0  0  0  0  0  0
  145.2511  133.3998  163.9547 H   0  0  0  0  0  0  0  0  0  0  0  0
  144.4338  132.8116  162.4978 H   0  0  0  0  0  0  0  0  0  0  0  0
  149.9941  138.1641  159.8890 H   0  0  0  0  0  0  0  0  0  0  0  0
  150.4201  136.6071  157.3843 H   0  0  0  0  0  0  0  0  0  0  0  0
  152.7935  137.3883  157.4320 H   0  0  0  0  0  0  0  0  0  0  0  0
  152.4346  136.4463  158.8679 H   0  0  0  0  0  0  0  0  0  0  0  0
  152.5097  138.2030  158.9683 H   0  0  0  0  0  0  0  0  0  0  0  0
  149.2551  138.7645  157.0390 H   0  0  0  0  0  0  0  0  0  0  0  0
  149.9644  140.3422  158.7451 H   0  0  0  0  0  0  0  0  0  0  0  0
  151.6597  139.9091  158.5220 H   0  0  0  0  0  0  0  0  0  0  0  0
  150.0334  141.7503  156.8477 H   0  0  0  0  0  0  0  0  0  0  0  0
  151.7849  141.6348  157.0203 H   0  0  0  0  0  0  0  0  0  0  0  0
  149.9965  140.2958  155.0515 H   0  0  0  0  0  0  0  0  0  0  0  0
  151.7515  140.4794  154.9590 H   0  0  0  0  0  0  0  0  0  0  0  0
  1  2  1  0  0  0  0
  1 18  1  0  0  0  0
  1 19  1  0  0  0  0
  1 20  1  0  0  0  0
  2 17  1  0  0  0  0
  2  3  2  0  0  0  0
  3  4  1  0  0  0  0
  4  5  2  0  0  0  0
  5  6  1  0  0  0  0
  5 17  1  0  0  0  0
  6  7  1  0  0  0  0
  7  8  2  0  0  0  0
  7  9  1  0  0  0  0
  9 10  1  0  0  0  0
  9 21  1  0  0  0  0
 10 11  1  0  0  0  0
 10 12  1  0  0  0  0
 10 22  1  0  0  0  0
 11 23  1  0  0  0  0
 11 24  1  0  0  0  0
 11 25  1  0  0  0  0
 12 16  1  0  0  0  0
 12 13  1  0  0  0  0
 12 26  1  0  0  0  0
 13 14  1  0  0  0  0
 13 27  1  0  0  0  0
 13 28  1  0  0  0  0
 14 15  1  0  0  0  0
 14 29  1  0  0  0  0
 14 30  1  0  0  0  0
 15 16  1  0  0  0  0
 15 31  1  0  0  0  0
 15 32  1  0  0  0  0
M  CHG  1   6  -1
M  END
> <s_m_source_file>
AV-unprocessed.smi

> <i_m_source_file_index>
1768

> <i_lp_mmshare_version>
43012

> <i_f3d_flags>
0

> <s_epik_input>
W0NIM11jMW5uYyhzMSlbTkhdQyg9TylbTkhdW0NASF0oW0NIM10pW0NAQEhdMltDSDJdW0NIMl1bQ0gyXU8y

> <s_epik_cmdline>
J2VwaWtfcHl0aG9uJywgJy1waCcsICc3LjAnLCAnLXRuJywgJzgnLCAnLW1hJywgJzIwMCcsICctbWV0YWxfYmluZGluZycsICctaW1hZScsICc8aW5maWxlLm1hZT4nLCAnLW9tYWUnLCAnPG91dGZpbGUubWFlPic=

> <r_lp_tautomer_probability>
1

> <r_epik_Ionization_Penalty>
4.3376

> <r_epik_Ionization_Penalty_Charging>
4.19392

> <r_epik_Ionization_Penalty_Neutral>
0.143681

> <r_epik_State_Penalty>
4.19342

> <r_epik_Charging_Adjusted_Penalty>
8.38735

> <i_epik_Tot_Q>
-1

> <i_epik_Tot_abs_Q>
1

> <r_epik_Metal_State_Penalty>
0.686065

> <b_epik_Metal_Only>
1

> <s_lp_Force_Field>
OPLS_2005

> <r_lp_Energy>
16.4236

> <b_lp_Chiralities_Consistent>
1

> <s_lp_Variant>
AV-unprocessed.smi:1768-7

> <Gold.Version>
5.8.1

> <Gold.Id.Protein>
6NUR|6NUR_protein|mol2

> <Gold.PLP.Fitness>
34.8415

> <Gold.PLP.PLP>
-26.5749

> <Gold.PLP.part.hbond>
-2.0000

> <Gold.PLP.part.metal>
0.0000

> <Gold.PLP.part.buried>
-4.6216

> <Gold.PLP.part.nonpolar>
-21.6345

> <Gold.PLP.part.repulsive>
0.9043

> <Gold.PLP.ligand.clash>
0.0000

> <Gold.PLP.ligand.torsion>
0.3850

> <Gold.PLP.Chemscore.Hbond>
3.0000

> <Gold.PLP.Chemscore.CHOScore>
0.0000

> <Gold.PLP.Chemscore.Metal>
0.0000

> <Gold.Chemscore.Hbonds>
donor molecule, donor type, donor heavy atom, donor atom, acceptor molecule, acceptor atom, score
      P1  H  6896  6909       L1     8  0.90
      P1  H  6931  6943       L1     6  1.89

> <Gold.PLP.Chemscore.Internal.Correction>
0.0367

> <Gold.Rescore>
     Score         DG    S(hbond)    S(metal)    S(lipo)     H(rot)  DE(clash)    DE(int)     intcor
     12.73     -14.84       1.88        0.00      54.33       1.28       0.09       2.02       ----

> <Gold.Chemscore.Fitness>
12.7266

> <Gold.Chemscore.DG>
-14.8370

> <Gold.Chemscore.ZeroCoef>
-5.4800

> <Gold.Chemscore.Hbond>
1.8776

> <Gold.Chemscore.Metal>
0.0000

> <Gold.Chemscore.Lipo>
54.3273

> <Gold.Chemscore.Internal_Hbond>
0.0000

> <Gold.Chemscore.DEClash>
0.0922

> <Gold.Chemscore.DEInternal>
2.0182

> <Gold.Chemscore.Rot>
1.2776

> <Gold.Chemscore.Internal.Correction>
   9.000000E+99

> <Gold.Chemscore.Hbonds>
donor molecule, donor type, donor heavy atom, donor atom, acceptor molecule, acceptor atom, score
      P1  H  6896  6909       L1     8  0.17
      P1  H  6931  6943       L1     6  0.82

> <Gold.Chemscore.Hbond.Weighted>
-6.2713

> <Gold.Chemscore.Metal.Weighted>
-0.0000

> <Gold.Chemscore.Lipo.Weighted>
-6.3563

> <Gold.Chemscore.Internal_Hbond.Weighted>
0.0000

> <Gold.Chemscore.DEClash.Weighted>
0.0922

> <Gold.Chemscore.DEInternal.Weighted>
2.0182

> <Gold.Chemscore.Rot.Weighted>
3.2706

> <Gold.Chemscore.Internal.Correction.Weighted>
   9.000000E+99

> <Gold.Protein.RotatedTorsions>
[ 6907 6896 6895 6894 ] final   37.31 input  -60.11 | X-H torsion
[ 7974 7965 7964 7962 ] final    5.09 input  175.53 | X-H torsion
[ 8008 7997 7996 7995 ] final  141.51 input   59.86 | X-H torsion
[ 10167 10162 10161 10158 ] final   84.82 input  -65.29 | X-H torsion
[ 10718 10713 10712 10709 ] final  -56.46 input   66.30 | X-H torsion
[ 10763 10752 10751 10750 ] final  131.42 input  -60.55 | X-H torsion
[ 11005 11000 10999 10996 ] final -163.35 input  -57.11 | X-H torsion

> <Gold.Protein.ActiveResidues>
 VAL166  LYS551  ARG553  GLY616  TRP617  ASP618  TYR619  PRO620  LYS621  CYS622 
 ASP623  PHE694  ASN695  SER759  ASP760  ASP761  ALA762  ILE779  LEU786  VAL792 
 PHE793  MET794  SER795  GLU796  ALA797  LYS798  CYS799  TRP800  GLU811  SER814 

> <Gold.Protein.RotatedAtoms>
  152.1415  134.9059  160.0553 H   0  0  0  0  0  0  0  0  0  0  0  0  # atno 6907 bound_to 6896
  152.0125  133.3862  159.4233 H   0  0  0  0  0  0  0  0  0  0  0  0  # atno 6908 bound_to 6896
  150.6865  134.3636  159.5005 H   0  0  0  0  0  0  0  0  0  0  0  0  # atno 6909 bound_to 6896
  146.2442  140.0437  142.8380 H   0  0  0  0  0  0  0  0  0  0  0  0  # atno 7974 bound_to 7965
  156.2964  140.2313  156.4576 H   0  0  0  0  0  0  0  0  0  0  0  0  # atno 8008 bound_to 7997
  154.8047  140.0446  157.1319 H   0  0  0  0  0  0  0  0  0  0  0  0  # atno 8009 bound_to 7997
  154.9493  140.3040  155.5086 H   0  0  0  0  0  0  0  0  0  0  0  0  # atno 8010 bound_to 7997
  139.9041  144.6312  150.8606 H   0  0  0  0  0  0  0  0  0  0  0  0  # atno 10167 bound_to 10162
  156.1287  130.4161  150.0308 H   0  0  0  0  0  0  0  0  0  0  0  0  # atno 10718 bound_to 10713
  153.7740  135.3178  155.3356 H   0  0  0  0  0  0  0  0  0  0  0  0  # atno 10763 bound_to 10752
  154.8186  135.4619  154.0716 H   0  0  0  0  0  0  0  0  0  0  0  0  # atno 10764 bound_to 10752
  153.1984  135.6919  153.8347 H   0  0  0  0  0  0  0  0  0  0  0  0  # atno 10765 bound_to 10752
  140.5990  134.4966  157.5203 H   0  0  0  0  0  0  0  0  0  0  0  0  # atno 11005 bound_to 11000
  145.1046  140.9367  143.4692 LP  0  0  0  0  0  0  0  0  0  0  0  0  # atno 17320 bound_to 7965
  145.0637  139.3085  143.5867 LP  0  0  0  0  0  0  0  0  0  0  0  0  # atno 17321 bound_to 7965
  140.7700  143.3415  151.2199 LP  0  0  0  0  0  0  0  0  0  0  0  0  # atno 17342 bound_to 10162
  139.7000  143.9549  152.2901 LP  0  0  0  0  0  0  0  0  0  0  0  0  # atno 17343 bound_to 10162
  156.8226  130.9364  151.3640 LP  0  0  0  0  0  0  0  0  0  0  0  0  # atno 17370 bound_to 10713
  157.6467  130.8850  149.9552 LP  0  0  0  0  0  0  0  0  0  0  0  0  # atno 17371 bound_to 10713
  139.9240  134.8091  156.1123 LP  0  0  0  0  0  0  0  0  0  0  0  0  # atno 17394 bound_to 11000
  141.0885  133.6724  156.2488 LP  0  0  0  0  0  0  0  0  0  0  0  0  # atno 17395 bound_to 11000

$$$$
