AV-unprocessed.smi:1866|AV-procd|sdf|7557|dock1
  -GOLD-   22720 9273D 1   1.00000     0.00000
 Structure written by MMmdl.
 30 31  0  0  0  0  0  0  0  0  1 V2000
  149.1382  141.5690  155.1444 C   0  0  0  0  0  0  0  0  0  0  0  0
  148.2788  140.4777  154.6039 C   0  0  0  0  0  0  0  0  0  0  0  0
  148.4598  139.1885  154.9159 N   0  0  0  0  0  0  0  0  0  0  0  0
  147.5379  138.3612  154.2896 N   0  0  0  0  0  0  0  0  0  0  0  0
  146.6854  139.0539  153.5216 C   0  0  0  0  0  0  0  0  0  0  0  0
  145.6401  138.4588  152.7671 N   0  0  0  0  0  0  0  0  0  0  0  0
  145.3766  137.1517  152.5937 C   0  0  0  0  0  0  0  0  0  0  0  0
  146.0269  136.2236  153.0752 O   0  0  0  0  0  0  0  0  0  0  0  0
  144.2985  136.9747  151.8167 N   0  0  0  0  0  0  0  0  0  0  0  0
  143.7579  135.6837  151.3954 C   0  0  1  0  0  0  0  0  0  0  0  0
  144.8355  134.8357  150.6930 C   0  0  0  0  0  0  0  0  0  0  0  0
  144.3198  133.4149  150.4471 C   0  0  0  0  0  0  0  0  0  0  0  0
  143.9037  132.7577  151.7728 C   0  0  0  0  0  0  0  0  0  0  0  0
  143.0921  133.6323  152.6203 N   0  0  0  0  0  0  0  0  0  0  0  0
  143.0347  134.9743  152.5545 C   0  0  0  0  0  0  0  0  0  0  0  0
  142.3897  135.6272  153.3735 O   0  0  0  0  0  0  0  0  0  0  0  0
  146.9412  140.7904  153.5044 S   0  0  0  0  0  0  0  0  0  0  0  0
  149.9939  141.1565  155.6799 H   0  0  0  0  0  0  0  0  0  0  0  0
  148.5624  142.1907  155.8301 H   0  0  0  0  0  0  0  0  0  0  0  0
  149.5053  142.1929  154.3293 H   0  0  0  0  0  0  0  0  0  0  0  0
  145.0205  139.1055  152.3019 H   0  0  0  0  0  0  0  0  0  0  0  0
  143.8290  137.7946  151.4610 H   0  0  0  0  0  0  0  0  0  0  0  0
  142.9687  135.8744  150.6654 H   0  0  0  0  0  0  0  0  0  0  0  0
  145.1224  135.2950  149.7464 H   0  0  0  0  0  0  0  0  0  0  0  0
  145.7375  134.7937  151.3053 H   0  0  0  0  0  0  0  0  0  0  0  0
  143.4642  133.4517  149.7714 H   0  0  0  0  0  0  0  0  0  0  0  0
  145.0816  132.8126  149.9515 H   0  0  0  0  0  0  0  0  0  0  0  0
  143.3552  131.8355  151.5805 H   0  0  0  0  0  0  0  0  0  0  0  0
  144.7936  132.4801  152.3388 H   0  0  0  0  0  0  0  0  0  0  0  0
  142.5777  133.1838  153.3647 H   0  0  0  0  0  0  0  0  0  0  0  0
  1  2  1  0  0  0  0
  1 18  1  0  0  0  0
  1 19  1  0  0  0  0
  1 20  1  0  0  0  0
  2 17  1  0  0  0  0
  2  3  2  0  0  0  0
  3  4  1  0  0  0  0
  4  5  2  0  0  0  0
  5  6  1  0  0  0  0
  5 17  1  0  0  0  0
  6  7  1  0  0  0  0
  6 21  1  0  0  0  0
  7  8  2  0  0  0  0
  7  9  1  0  0  0  0
  9 10  1  0  0  0  0
  9 22  1  0  0  0  0
 10 15  1  0  0  0  0
 10 11  1  0  0  0  0
 10 23  1  0  0  0  0
 11 12  1  0  0  0  0
 11 24  1  0  0  0  0
 11 25  1  0  0  0  0
 12 13  1  0  0  0  0
 12 26  1  0  0  0  0
 12 27  1  0  0  0  0
 13 14  1  0  0  0  0
 13 28  1  0  0  0  0
 13 29  1  0  0  0  0
 14 15  1  0  0  0  0
 14 30  1  0  0  0  0
 15 16  2  0  0  0  0
M  END
> <s_m_source_file>
AV-unprocessed.smi

> <i_m_source_file_index>
1866

> <i_lp_mmshare_version>
43012

> <i_f3d_flags>
0

> <s_epik_input>
W0NIM11jMW5uYyhzMSlbTkhdQyg9TylbTkhdW0NAQEhdMltDSDJdW0NIMl1bQ0gyXVtOSF1DMj1P

> <s_epik_cmdline>
J2VwaWtfcHl0aG9uJywgJy1waCcsICc3LjAnLCAnLXRuJywgJzgnLCAnLW1hJywgJzIwMCcsICctbWV0YWxfYmluZGluZycsICctaW1hZScsICc8aW5maWxlLm1hZT4nLCAnLW9tYWUnLCAnPG91dGZpbGUubWFlPic=

> <r_lp_tautomer_probability>
1

> <r_epik_Ionization_Penalty>
0.00093002

> <r_epik_Ionization_Penalty_Charging>
0

> <r_epik_Ionization_Penalty_Neutral>
0.00093002

> <r_epik_State_Penalty>
-0

> <r_epik_Charging_Adjusted_Penalty>
0

> <i_epik_Tot_Q>
0

> <i_epik_Tot_abs_Q>
0

> <r_epik_Metal_State_Penalty>
0.280775

> <b_epik_Metal_Only>
0

> <s_lp_Force_Field>
OPLS_2005

> <r_lp_Energy>
8.18439

> <b_lp_Chiralities_Consistent>
1

> <s_lp_Variant>
AV-unprocessed.smi:1866-2

> <Gold.Version>
5.8.1

> <Gold.Id.Protein>
6NUR|6NUR_protein|mol2

> <Gold.PLP.Fitness>
34.8618

> <Gold.PLP.PLP>
-27.2703

> <Gold.PLP.part.hbond>
-3.0000

> <Gold.PLP.part.metal>
0.0000

> <Gold.PLP.part.buried>
-3.7832

> <Gold.PLP.part.nonpolar>
-21.3921

> <Gold.PLP.part.repulsive>
2.1399

> <Gold.PLP.ligand.clash>
0.0000

> <Gold.PLP.ligand.torsion>
0.1015

> <Gold.PLP.Chemscore.Hbond>
2.5840

> <Gold.PLP.Chemscore.CHOScore>
0.0000

> <Gold.PLP.Chemscore.Metal>
0.0000

> <Gold.Chemscore.Hbonds>
donor molecule, donor type, donor heavy atom, donor atom, acceptor molecule, acceptor atom, score
      L1  H     6    21       P1 10175  0.98
      L1  H     9    22       P1 10171  0.64
      L1  H    14    30       P1 10957  0.90

> <Gold.PLP.Chemscore.Internal.Correction>
0.0425

> <Gold.Rescore>
     Score         DG    S(hbond)    S(metal)    S(lipo)     H(rot)  DE(clash)    DE(int)     intcor
     15.48     -16.82       2.52        0.00      46.95       1.00       0.04       1.31       ----

> <Gold.Chemscore.Fitness>
15.4801

> <Gold.Chemscore.DG>
-16.8240

> <Gold.Chemscore.ZeroCoef>
-5.4800

> <Gold.Chemscore.Hbond>
2.5182

> <Gold.Chemscore.Metal>
0.0000

> <Gold.Chemscore.Lipo>
46.9518

> <Gold.Chemscore.Internal_Hbond>
0.0000

> <Gold.Chemscore.DEClash>
0.0354

> <Gold.Chemscore.DEInternal>
1.3085

> <Gold.Chemscore.Rot>
1.0000

> <Gold.Chemscore.Internal.Correction>
   9.000000E+99

> <Gold.Chemscore.Hbonds>
donor molecule, donor type, donor heavy atom, donor atom, acceptor molecule, acceptor atom, score
      L1  H     6    21       P1 10175  0.92
      L1  H     9    22       P1 10171  0.64
      L1  H    14    30       P1 10957  0.77

> <Gold.Chemscore.Hbond.Weighted>
-8.4106

> <Gold.Chemscore.Metal.Weighted>
-0.0000

> <Gold.Chemscore.Lipo.Weighted>
-5.4934

> <Gold.Chemscore.Internal_Hbond.Weighted>
0.0000

> <Gold.Chemscore.DEClash.Weighted>
0.0354

> <Gold.Chemscore.DEInternal.Weighted>
1.3085

> <Gold.Chemscore.Rot.Weighted>
2.5600

> <Gold.Chemscore.Internal.Correction.Weighted>
   9.000000E+99

> <Gold.Protein.RotatedTorsions>
[ 6907 6896 6895 6894 ] final  -53.98 input  -60.11 | X-H torsion
[ 7974 7965 7964 7962 ] final -151.69 input  175.53 | X-H torsion
[ 8008 7997 7996 7995 ] final   10.23 input   59.86 | X-H torsion
[ 10167 10162 10161 10158 ] final  146.54 input  -65.29 | X-H torsion
[ 10718 10713 10712 10709 ] final  138.83 input   66.30 | X-H torsion
[ 10763 10752 10751 10750 ] final   -2.76 input  -60.55 | X-H torsion
[ 11005 11000 10999 10996 ] final   30.21 input  -57.11 | X-H torsion

> <Gold.Protein.ActiveResidues>
 VAL166  LYS551  ARG553  GLY616  TRP617  ASP618  TYR619  PRO620  LYS621  CYS622 
 ASP623  PHE694  ASN695  SER759  ASP760  ASP761  ALA762  ILE779  LEU786  VAL792 
 PHE793  MET794  SER795  GLU796  ALA797  LYS798  CYS799  TRP800  GLU811  SER814 

> <Gold.Protein.RotatedAtoms>
  150.8379  134.7659  159.6907 H   0  0  0  0  0  0  0  0  0  0  0  0  # atno 6907 bound_to 6896
  152.4472  134.5467  159.9864 H   0  0  0  0  0  0  0  0  0  0  0  0  # atno 6908 bound_to 6896
  151.5613  133.3365  159.3007 H   0  0  0  0  0  0  0  0  0  0  0  0  # atno 6909 bound_to 6896
  144.7836  140.4764  143.5822 H   0  0  0  0  0  0  0  0  0  0  0  0  # atno 7974 bound_to 7965
  154.7906  140.2835  155.5994 H   0  0  0  0  0  0  0  0  0  0  0  0  # atno 8008 bound_to 7997
  156.2964  140.2605  156.2681 H   0  0  0  0  0  0  0  0  0  0  0  0  # atno 8009 bound_to 7997
  154.9675  140.0376  157.2208 H   0  0  0  0  0  0  0  0  0  0  0  0  # atno 8010 bound_to 7997
  139.4905  144.5822  151.6850 H   0  0  0  0  0  0  0  0  0  0  0  0  # atno 10167 bound_to 10162
  157.4210  131.1038  151.0353 H   0  0  0  0  0  0  0  0  0  0  0  0  # atno 10718 bound_to 10713
  153.3623  135.6991  153.6703 H   0  0  0  0  0  0  0  0  0  0  0  0  # atno 10763 bound_to 10752
  153.5386  135.3577  155.2709 H   0  0  0  0  0  0  0  0  0  0  0  0  # atno 10764 bound_to 10752
  154.8670  135.4198  154.2882 H   0  0  0  0  0  0  0  0  0  0  0  0  # atno 10765 bound_to 10752
  140.2968  134.2802  155.7763 H   0  0  0  0  0  0  0  0  0  0  0  0  # atno 11005 bound_to 11000
  145.5983  139.1501  143.3143 LP  0  0  0  0  0  0  0  0  0  0  0  0  # atno 17320 bound_to 7965
  146.2056  140.6106  142.9082 LP  0  0  0  0  0  0  0  0  0  0  0  0  # atno 17321 bound_to 7965
  140.5430  144.0548  150.6096 LP  0  0  0  0  0  0  0  0  0  0  0  0  # atno 17342 bound_to 10162
  140.3577  143.2926  152.0418 LP  0  0  0  0  0  0  0  0  0  0  0  0  # atno 17343 bound_to 10162
  157.1283  130.6091  149.5523 LP  0  0  0  0  0  0  0  0  0  0  0  0  # atno 17370 bound_to 10713
  155.9881  130.4923  150.7154 LP  0  0  0  0  0  0  0  0  0  0  0  0  # atno 17371 bound_to 10713
  141.2136  133.7620  156.9707 LP  0  0  0  0  0  0  0  0  0  0  0  0  # atno 17394 bound_to 11000
  140.1145  134.9456  157.2114 LP  0  0  0  0  0  0  0  0  0  0  0  0  # atno 17395 bound_to 11000

$$$$
