AV-unprocessed.smi:2475|AV-procd|sdf|9755|dock7
  -GOLD-   2272013393D 1   1.00000     0.00000
 Structure written by MMmdl.
 37 38  0  0  0  0  0  0  0  0  1 V2000
  148.8521  141.7262  154.8906 C   0  0  0  0  0  0  0  0  0  0  0  0
  150.1100  141.1248  155.4805 C   0  0  0  0  0  0  0  0  0  0  0  0
  150.6984  141.6448  156.6524 C   0  0  0  0  0  0  0  0  0  0  0  0
  151.8705  141.0105  157.1214 C   0  0  0  0  0  0  0  0  0  0  0  0
  152.4399  141.5557  158.3012 N   0  0  0  0  0  0  0  0  0  0  0  0
  152.3432  142.8149  158.7697 C   0  0  0  0  0  0  0  0  0  0  0  0
  151.6861  143.7069  158.2317 O   0  0  0  0  0  0  0  0  0  0  0  0
  153.0856  143.1101  160.0820 C   0  0  2  0  0  0  0  0  0  0  0  0
  153.9555  141.9492  160.6042 C   0  0  0  0  0  0  0  0  0  0  0  0
  153.4662  141.7259  162.0258 C   0  0  0  0  0  0  0  0  0  0  0  0
  152.7686  143.0374  162.3575 C   0  0  0  0  0  0  0  0  0  0  0  0
  152.1510  143.3726  161.1275 O   0  0  0  0  0  0  0  0  0  0  0  0
  152.3786  139.9476  156.4504 N   0  0  0  0  0  0  0  0  0  0  0  0
  151.7466  139.5341  155.3470 C   0  0  0  0  0  0  0  0  0  0  0  0
  152.3372  138.3321  154.6216 C   0  0  0  0  0  0  0  0  0  0  0  0
  151.3108  137.2007  154.4576 C   0  0  0  0  0  0  0  0  0  0  0  0
  153.6523  137.8607  155.2616 C   0  0  0  0  0  0  0  0  0  0  0  0
  150.6372  140.0675  154.8284 N   0  0  0  0  0  0  0  0  0  0  0  0
  148.4963  142.5636  155.4911 H   0  0  0  0  0  0  0  0  0  0  0  0
  148.0598  140.9786  154.8453 H   0  0  0  0  0  0  0  0  0  0  0  0
  149.0428  142.0878  153.8798 H   0  0  0  0  0  0  0  0  0  0  0  0
  150.2696  142.4924  157.1672 H   0  0  0  0  0  0  0  0  0  0  0  0
  152.9936  140.9184  158.8550 H   0  0  0  0  0  0  0  0  0  0  0  0
  153.7040  143.9983  159.9439 H   0  0  0  0  0  0  0  0  0  0  0  0
  153.8708  141.0325  160.0188 H   0  0  0  0  0  0  0  0  0  0  0  0
  155.0057  142.2429  160.6018 H   0  0  0  0  0  0  0  0  0  0  0  0
  152.7427  140.9099  162.0439 H   0  0  0  0  0  0  0  0  0  0  0  0
  154.2696  141.4839  162.7218 H   0  0  0  0  0  0  0  0  0  0  0  0
  152.0397  142.9370  163.1621 H   0  0  0  0  0  0  0  0  0  0  0  0
  153.4893  143.8091  162.6332 H   0  0  0  0  0  0  0  0  0  0  0  0
  152.5925  138.6600  153.6123 H   0  0  0  0  0  0  0  0  0  0  0  0
  150.4224  137.5524  153.9325 H   0  0  0  0  0  0  0  0  0  0  0  0
  150.9936  136.8078  155.4241 H   0  0  0  0  0  0  0  0  0  0  0  0
  151.7280  136.3728  153.8838 H   0  0  0  0  0  0  0  0  0  0  0  0
  154.3817  138.6703  155.2989 H   0  0  0  0  0  0  0  0  0  0  0  0
  154.0947  137.0430  154.6922 H   0  0  0  0  0  0  0  0  0  0  0  0
  153.4950  137.5064  156.2810 H   0  0  0  0  0  0  0  0  0  0  0  0
  1  2  1  0  0  0  0
  1 19  1  0  0  0  0
  1 20  1  0  0  0  0
  1 21  1  0  0  0  0
  2 18  1  0  0  0  0
  2  3  2  0  0  0  0
  3  4  1  0  0  0  0
  3 22  1  0  0  0  0
  4  5  1  0  0  0  0
  4 13  2  0  0  0  0
  5  6  1  0  0  0  0
  5 23  1  0  0  0  0
  6  7  2  0  0  0  0
  6  8  1  0  0  0  0
  8 12  1  0  0  0  0
  8  9  1  0  0  0  0
  8 24  1  0  0  0  0
  9 10  1  0  0  0  0
  9 25  1  0  0  0  0
  9 26  1  0  0  0  0
 10 11  1  0  0  0  0
 10 27  1  0  0  0  0
 10 28  1  0  0  0  0
 11 12  1  0  0  0  0
 11 29  1  0  0  0  0
 11 30  1  0  0  0  0
 13 14  1  0  0  0  0
 14 15  1  0  0  0  0
 14 18  2  0  0  0  0
 15 16  1  0  0  0  0
 15 17  1  0  0  0  0
 15 31  1  0  0  0  0
 16 32  1  0  0  0  0
 16 33  1  0  0  0  0
 16 34  1  0  0  0  0
 17 35  1  0  0  0  0
 17 36  1  0  0  0  0
 17 37  1  0  0  0  0
M  END
> <s_m_source_file>
AV-unprocessed.smi

> <i_m_source_file_index>
2475

> <i_lp_mmshare_version>
43012

> <i_f3d_flags>
0

> <s_epik_input>
W0NIM11bQ0hdKFtDSDNdKWMobjEpbmMoW2NIXWMxW0NIM10pW05IXUMoPU8pW0NAQEhdMltDSDJdW0NIMl1bQ0gyXU8y

> <s_epik_cmdline>
J2VwaWtfcHl0aG9uJywgJy1waCcsICc3LjAnLCAnLXRuJywgJzgnLCAnLW1hJywgJzIwMCcsICctbWV0YWxfYmluZGluZycsICctaW1hZScsICc8aW5maWxlLm1hZT4nLCAnLW9tYWUnLCAnPG91dGZpbGUubWFlPic=

> <r_lp_tautomer_probability>
1

> <r_epik_Ionization_Penalty>
1.42804e-05

> <r_epik_Ionization_Penalty_Charging>
0

> <r_epik_Ionization_Penalty_Neutral>
1.42804e-05

> <r_epik_State_Penalty>
-0

> <r_epik_Charging_Adjusted_Penalty>
0

> <i_epik_Tot_Q>
0

> <i_epik_Tot_abs_Q>
0

> <r_epik_Metal_State_Penalty>
-0

> <b_epik_Metal_Only>
0

> <s_lp_Force_Field>
OPLS_2005

> <r_lp_Energy>
10.8571

> <b_lp_Chiralities_Consistent>
1

> <s_lp_Variant>
AV-unprocessed.smi:2475-1

> <Gold.Version>
5.8.1

> <Gold.Id.Protein>
6NUR|6NUR_protein|mol2

> <Gold.PLP.Fitness>
41.8296

> <Gold.PLP.PLP>
-37.6026

> <Gold.PLP.part.hbond>
-2.0000

> <Gold.PLP.part.metal>
0.0000

> <Gold.PLP.part.buried>
1.7531

> <Gold.PLP.part.nonpolar>
-36.5642

> <Gold.PLP.part.repulsive>
0.3373

> <Gold.PLP.ligand.clash>
0.0000

> <Gold.PLP.ligand.torsion>
0.2487

> <Gold.PLP.Chemscore.Hbond>
1.5500

> <Gold.PLP.Chemscore.CHOScore>
0.0000

> <Gold.PLP.Chemscore.Metal>
0.0000

> <Gold.Chemscore.Hbonds>
donor molecule, donor type, donor heavy atom, donor atom, acceptor molecule, acceptor atom, score
      P1  H  7989  7998       L1    18  0.55
      P1  H  7997  8008       L1    13  1.00

> <Gold.PLP.Chemscore.Internal.Correction>
0.0743

> <Gold.Rescore>
     Score         DG    S(hbond)    S(metal)    S(lipo)     H(rot)  DE(clash)    DE(int)     intcor
     12.92     -15.89       0.81        0.00      91.88       1.18       1.36       1.61       ----

> <Gold.Chemscore.Fitness>
12.9161

> <Gold.Chemscore.DG>
-15.8896

> <Gold.Chemscore.ZeroCoef>
-5.4800

> <Gold.Chemscore.Hbond>
0.8056

> <Gold.Chemscore.Metal>
0.0000

> <Gold.Chemscore.Lipo>
91.8836

> <Gold.Chemscore.Internal_Hbond>
0.0000

> <Gold.Chemscore.DEClash>
1.3608

> <Gold.Chemscore.DEInternal>
1.6128

> <Gold.Chemscore.Rot>
1.1842

> <Gold.Chemscore.Internal.Correction>
   9.000000E+99

> <Gold.Chemscore.Hbonds>
donor molecule, donor type, donor heavy atom, donor atom, acceptor molecule, acceptor atom, score
      P1  H  7989  7998       L1    18  0.01
      P1  H  7997  8008       L1    13  0.65

> <Gold.Chemscore.Hbond.Weighted>
-2.6907

> <Gold.Chemscore.Metal.Weighted>
-0.0000

> <Gold.Chemscore.Lipo.Weighted>
-10.7504

> <Gold.Chemscore.Internal_Hbond.Weighted>
0.0000

> <Gold.Chemscore.DEClash.Weighted>
1.3608

> <Gold.Chemscore.DEInternal.Weighted>
1.6128

> <Gold.Chemscore.Rot.Weighted>
3.0315

> <Gold.Chemscore.Internal.Correction.Weighted>
   9.000000E+99

> <Gold.Protein.RotatedTorsions>
[ 6907 6896 6895 6894 ] final -152.33 input  -60.11 | X-H torsion
[ 7974 7965 7964 7962 ] final -150.70 input  175.53 | X-H torsion
[ 8008 7997 7996 7995 ] final  -42.84 input   59.86 | X-H torsion
[ 10167 10162 10161 10158 ] final -166.04 input  -65.29 | X-H torsion
[ 10718 10713 10712 10709 ] final  162.32 input   66.30 | X-H torsion
[ 10763 10752 10751 10750 ] final   18.87 input  -60.55 | X-H torsion
[ 11005 11000 10999 10996 ] final  -74.25 input  -57.11 | X-H torsion

> <Gold.Protein.ActiveResidues>
 VAL166  LYS551  ARG553  GLY616  TRP617  ASP618  TYR619  PRO620  LYS621  CYS622 
 ASP623  PHE694  ASN695  SER759  ASP760  ASP761  ALA762  ILE779  LEU786  VAL792 
 PHE793  MET794  SER795  GLU796  ALA797  LYS798  CYS799  TRP800  GLU811  SER814 

> <Gold.Protein.RotatedAtoms>
  151.2262  133.4475  159.2602 H   0  0  0  0  0  0  0  0  0  0  0  0  # atno 6907 bound_to 6896
  151.0838  134.9874  159.8379 H   0  0  0  0  0  0  0  0  0  0  0  0  # atno 6908 bound_to 6896
  152.5427  134.2200  159.8836 H   0  0  0  0  0  0  0  0  0  0  0  0  # atno 6909 bound_to 6896
  144.7892  140.4896  143.5784 H   0  0  0  0  0  0  0  0  0  0  0  0  # atno 7974 bound_to 7965
  154.3998  140.1463  156.3420 H   0  0  0  0  0  0  0  0  0  0  0  0  # atno 8008 bound_to 7997
  155.8347  140.3464  155.5573 H   0  0  0  0  0  0  0  0  0  0  0  0  # atno 8009 bound_to 7997
  155.8150  140.0889  157.1872 H   0  0  0  0  0  0  0  0  0  0  0  0  # atno 8010 bound_to 7997
  139.6142  144.0754  152.1871 H   0  0  0  0  0  0  0  0  0  0  0  0  # atno 10167 bound_to 10162
  157.1242  131.0500  151.2401 H   0  0  0  0  0  0  0  0  0  0  0  0  # atno 10718 bound_to 10713
  153.1211  135.6719  153.9334 H   0  0  0  0  0  0  0  0  0  0  0  0  # atno 10763 bound_to 10752
  153.8849  135.3054  155.3447 H   0  0  0  0  0  0  0  0  0  0  0  0  # atno 10764 bound_to 10752
  154.7622  135.4982  153.9566 H   0  0  0  0  0  0  0  0  0  0  0  0  # atno 10765 bound_to 10752
  141.1633  133.6905  156.7336 H   0  0  0  0  0  0  0  0  0  0  0  0  # atno 11005 bound_to 11000
  145.5839  139.1491  143.3220 LP  0  0  0  0  0  0  0  0  0  0  0  0  # atno 17320 bound_to 7965
  146.2137  140.5968  142.9048 LP  0  0  0  0  0  0  0  0  0  0  0  0  # atno 17321 bound_to 7965
  140.0380  144.6029  150.7434 LP  0  0  0  0  0  0  0  0  0  0  0  0  # atno 17342 bound_to 10162
  140.7339  143.2723  151.3850 LP  0  0  0  0  0  0  0  0  0  0  0  0  # atno 17343 bound_to 10162
  157.4449  130.7565  149.7101 LP  0  0  0  0  0  0  0  0  0  0  0  0  # atno 17370 bound_to 10713
  155.9822  130.4012  150.3431 LP  0  0  0  0  0  0  0  0  0  0  0  0  # atno 17371 bound_to 10713
  140.2726  134.8380  157.3861 LP  0  0  0  0  0  0  0  0  0  0  0  0  # atno 17394 bound_to 11000
  140.1507  134.4853  155.7963 LP  0  0  0  0  0  0  0  0  0  0  0  0  # atno 17395 bound_to 11000

$$$$
