AV-unprocessed.smi:1016|AV-procd|sdf|4437|dock8
  -GOLD-   22720 2393D 1   1.00000     0.00000
 Structure written by MMmdl.
 39 40  0  0  0  0  0  0  0  0  2 V2000
  145.5586  137.6326  162.2243 C   0  0  0  0  0  0  0  0  0  0  0  0
  146.5292  136.9264  161.3250 C   0  0  0  0  0  0  0  0  0  0  0  0
  147.0572  135.6070  161.6154 C   0  0  0  0  0  0  0  0  0  0  0  0
  147.9258  135.0373  160.7528 C   0  0  0  0  0  0  0  0  0  0  0  0
  148.3548  135.7175  159.5328 C   0  0  0  0  0  0  0  0  0  0  0  0
  149.1484  135.2273  158.7303 O   0  0  0  0  0  0  0  0  0  0  0  0
  147.7991  136.9551  159.3697 N   0  0  0  0  0  0  0  0  0  0  0  0
  148.1577  137.8080  158.2242 C   0  0  0  0  0  0  0  0  0  0  0  0
  149.5958  138.3567  158.2540 C   0  0  0  0  0  0  0  0  0  0  0  0
  150.5058  137.5901  158.5642 O   0  0  0  0  0  0  0  0  0  0  0  0
  149.7645  139.6560  157.9355 N   0  0  0  0  0  0  0  0  0  0  0  0
  150.9512  140.5213  157.8639 C   0  0  0  0  0  0  0  0  0  0  0  0
  151.6624  140.1087  156.5493 C   0  0  0  0  0  0  0  0  0  0  0  0
  151.0917  140.3646  155.4656 O   0  0  0  0  0  0  0  0  0  0  0  0
  152.7508  139.4970  156.6430 O   0  5  0  0  0  0  0  0  0  0  0  0
  150.6478  142.0536  157.8910 C   0  0  0  0  0  0  0  0  0  0  0  0
  151.9166  142.9235  157.9882 C   0  0  0  0  0  0  0  0  0  0  0  0
  152.7560  142.5441  159.2164 C   0  0  0  0  0  0  0  0  0  0  0  0
  153.0991  141.0478  159.2114 C   0  0  0  0  0  0  0  0  0  0  0  0
  151.8269  140.1842  159.1050 C   0  0  0  0  0  0  0  0  0  0  0  0
  146.8992  137.5374  160.2479 N   0  0  0  0  0  0  0  0  0  0  0  0
  145.3231  137.0301  163.1018 H   0  0  0  0  0  0  0  0  0  0  0  0
  144.6248  137.8401  161.7010 H   0  0  0  0  0  0  0  0  0  0  0  0
  145.9708  138.5806  162.5712 H   0  0  0  0  0  0  0  0  0  0  0  0
  146.7536  135.0922  162.5148 H   0  0  0  0  0  0  0  0  0  0  0  0
  148.3191  134.0552  160.9705 H   0  0  0  0  0  0  0  0  0  0  0  0
  148.0083  137.2699  157.2866 H   0  0  0  0  0  0  0  0  0  0  0  0
  147.4774  138.6599  158.1756 H   0  0  0  0  0  0  0  0  0  0  0  0
  148.9075  140.1458  157.7224 H   0  0  0  0  0  0  0  0  0  0  0  0
  150.0658  142.3581  157.0200 H   0  0  0  0  0  0  0  0  0  0  0  0
  150.0315  142.2856  158.7603 H   0  0  0  0  0  0  0  0  0  0  0  0
  152.5178  142.8191  157.0845 H   0  0  0  0  0  0  0  0  0  0  0  0
  151.6367  143.9756  158.0460 H   0  0  0  0  0  0  0  0  0  0  0  0
  153.6708  143.1368  159.2413 H   0  0  0  0  0  0  0  0  0  0  0  0
  152.2039  142.7880  160.1247 H   0  0  0  0  0  0  0  0  0  0  0  0
  153.7734  140.8280  158.3831 H   0  0  0  0  0  0  0  0  0  0  0  0
  153.6424  140.7921  160.1213 H   0  0  0  0  0  0  0  0  0  0  0  0
  151.2330  140.3331  160.0081 H   0  0  0  0  0  0  0  0  0  0  0  0
  152.1028  139.1286  159.1166 H   0  0  0  0  0  0  0  0  0  0  0  0
  1  2  1  0  0  0  0
  1 22  1  0  0  0  0
  1 23  1  0  0  0  0
  1 24  1  0  0  0  0
  2 21  2  0  0  0  0
  2  3  1  0  0  0  0
  3  4  2  0  0  0  0
  3 25  1  0  0  0  0
  4  5  1  0  0  0  0
  4 26  1  0  0  0  0
  5  6  2  0  0  0  0
  5  7  1  0  0  0  0
  7  8  1  0  0  0  0
  7 21  1  0  0  0  0
  8  9  1  0  0  0  0
  8 27  1  0  0  0  0
  8 28  1  0  0  0  0
  9 10  2  0  0  0  0
  9 11  1  0  0  0  0
 11 12  1  0  0  0  0
 11 29  1  0  0  0  0
 12 20  1  0  0  0  0
 12 13  1  0  0  0  0
 12 16  1  0  0  0  0
 13 14  2  0  0  0  0
 13 15  1  0  0  0  0
 16 17  1  0  0  0  0
 16 30  1  0  0  0  0
 16 31  1  0  0  0  0
 17 18  1  0  0  0  0
 17 32  1  0  0  0  0
 17 33  1  0  0  0  0
 18 19  1  0  0  0  0
 18 34  1  0  0  0  0
 18 35  1  0  0  0  0
 19 20  1  0  0  0  0
 19 36  1  0  0  0  0
 19 37  1  0  0  0  0
 20 38  1  0  0  0  0
 20 39  1  0  0  0  0
M  CHG  1  15  -1
M  END
> <s_m_source_file>
AV-unprocessed.smi

> <i_m_source_file_index>
1016

> <i_lp_mmshare_version>
43012

> <i_f3d_flags>
0

> <s_epik_input>
W0NIM11jMVtjSF1bY0hdYyg9TyluKG4xKVtDSDJdQyg9TylbTkhdQzIoQyg9TylbT0hdKVtDSDJdW0NIMl1bQ0gyXVtDSDJdW0NIMl0y

> <s_epik_cmdline>
J2VwaWtfcHl0aG9uJywgJy1waCcsICc3LjAnLCAnLXRuJywgJzgnLCAnLW1hJywgJzIwMCcsICctbWV0YWxfYmluZGluZycsICctaW1hZScsICc8aW5maWxlLm1hZT4nLCAnLW9tYWUnLCAnPG91dGZpbGUubWFlPic=

> <r_lp_tautomer_probability>
1

> <r_epik_Ionization_Penalty>
0.000398047

> <r_epik_Ionization_Penalty_Charging>
0.000398029

> <r_epik_Ionization_Penalty_Neutral>
1.87077e-08

> <r_epik_State_Penalty>
0.000243291

> <r_epik_Charging_Adjusted_Penalty>
0.00064132

> <i_epik_Tot_Q>
-1

> <i_epik_Tot_abs_Q>
1

> <r_epik_Metal_State_Penalty>
-0

> <b_epik_Metal_Only>
0

> <s_lp_Force_Field>
OPLS_2005

> <r_lp_Energy>
18.8649

> <b_lp_Chiralities_Consistent>
1

> <s_lp_Variant>
AV-unprocessed.smi:1016-1

> <Gold.Version>
5.8.1

> <Gold.Id.Protein>
6NUR|6NUR_protein|mol2

> <Gold.PLP.Fitness>
45.9079

> <Gold.PLP.PLP>
-33.0092

> <Gold.PLP.part.hbond>
-4.0000

> <Gold.PLP.part.metal>
0.0000

> <Gold.PLP.part.buried>
-5.5126

> <Gold.PLP.part.nonpolar>
-23.4651

> <Gold.PLP.part.repulsive>
0.1735

> <Gold.PLP.ligand.clash>
0.0000

> <Gold.PLP.ligand.torsion>
0.7614

> <Gold.PLP.Chemscore.Hbond>
4.7899

> <Gold.PLP.Chemscore.CHOScore>
0.0000

> <Gold.PLP.Chemscore.Metal>
0.0000

> <Gold.Chemscore.Hbonds>
donor molecule, donor type, donor heavy atom, donor atom, acceptor molecule, acceptor atom, score
      P1  H  6896  6908       L1     6  1.00
      P1  H  6934  6947       L1    21  0.90
      P1  H  7989  7998       L1    14  0.82
      P1  H  7997  8010       L1    15  2.00

> <Gold.PLP.Chemscore.Internal.Correction>
0.0519

> <Gold.Rescore>
     Score         DG    S(hbond)    S(metal)    S(lipo)     H(rot)  DE(clash)    DE(int)     intcor
     14.93     -20.28       3.26        0.00      79.27       2.09       0.44       4.90       ----

> <Gold.Chemscore.Fitness>
14.9305

> <Gold.Chemscore.DG>
-20.2783

> <Gold.Chemscore.ZeroCoef>
-5.4800

> <Gold.Chemscore.Hbond>
3.2572

> <Gold.Chemscore.Metal>
0.0000

> <Gold.Chemscore.Lipo>
79.2656

> <Gold.Chemscore.Internal_Hbond>
0.0000

> <Gold.Chemscore.DEClash>
0.4430

> <Gold.Chemscore.DEInternal>
4.9049

> <Gold.Chemscore.Rot>
2.0918

> <Gold.Chemscore.Internal.Correction>
   9.000000E+99

> <Gold.Chemscore.Hbonds>
donor molecule, donor type, donor heavy atom, donor atom, acceptor molecule, acceptor atom, score
      P1  H  6896  6908       L1     6  0.85
      P1  H  6934  6947       L1    21  0.18
      P1  H  7989  7998       L1    14  0.77
      P1  H  7997  8010       L1    15  1.00

> <Gold.Chemscore.Hbond.Weighted>
-10.8792

> <Gold.Chemscore.Metal.Weighted>
-0.0000

> <Gold.Chemscore.Lipo.Weighted>
-9.2741

> <Gold.Chemscore.Internal_Hbond.Weighted>
0.0000

> <Gold.Chemscore.DEClash.Weighted>
0.4430

> <Gold.Chemscore.DEInternal.Weighted>
4.9049

> <Gold.Chemscore.Rot.Weighted>
5.3549

> <Gold.Chemscore.Internal.Correction.Weighted>
   9.000000E+99

> <Gold.Protein.RotatedTorsions>
[ 6907 6896 6895 6894 ] final  169.47 input  -60.11 | X-H torsion
[ 7974 7965 7964 7962 ] final  -37.08 input  175.53 | X-H torsion
[ 8008 7997 7996 7995 ] final   68.91 input   59.86 | X-H torsion
[ 10167 10162 10161 10158 ] final -116.70 input  -65.29 | X-H torsion
[ 10718 10713 10712 10709 ] final  174.41 input   66.30 | X-H torsion
[ 10763 10752 10751 10750 ] final  -80.33 input  -60.55 | X-H torsion
[ 11005 11000 10999 10996 ] final   64.56 input  -57.11 | X-H torsion

> <Gold.Protein.ActiveResidues>
 VAL166  LYS551  ARG553  GLY616  TRP617  ASP618  TYR619  PRO620  LYS621  CYS622 
 ASP623  PHE694  ASN695  SER759  ASP760  ASP761  ALA762  ILE779  LEU786  VAL792 
 PHE793  MET794  SER795  GLU796  ALA797  LYS798  CYS799  TRP800  GLU811  SER814 

> <Gold.Protein.RotatedAtoms>
  151.8314  133.3409  159.3614 H   0  0  0  0  0  0  0  0  0  0  0  0  # atno 6907 bound_to 6896
  150.7263  134.5479  159.5789 H   0  0  0  0  0  0  0  0  0  0  0  0  # atno 6908 bound_to 6896
  152.2933  134.7697  160.0424 H   0  0  0  0  0  0  0  0  0  0  0  0  # atno 6909 bound_to 6896
  146.0606  140.6354  142.8999 H   0  0  0  0  0  0  0  0  0  0  0  0  # atno 7974 bound_to 7965
  155.7155  140.3494  155.4992 H   0  0  0  0  0  0  0  0  0  0  0  0  # atno 8008 bound_to 7997
  155.9317  140.1085  157.1149 H   0  0  0  0  0  0  0  0  0  0  0  0  # atno 8009 bound_to 7997
  154.4086  140.1230  156.4798 H   0  0  0  0  0  0  0  0  0  0  0  0  # atno 8010 bound_to 7997
  140.0764  143.4829  152.1951 H   0  0  0  0  0  0  0  0  0  0  0  0  # atno 10167 bound_to 10162
  156.9499  131.0028  151.2951 H   0  0  0  0  0  0  0  0  0  0  0  0  # atno 10718 bound_to 10713
  154.5499  135.5664  153.6913 H   0  0  0  0  0  0  0  0  0  0  0  0  # atno 10763 bound_to 10752
  152.9986  135.6248  154.2388 H   0  0  0  0  0  0  0  0  0  0  0  0  # atno 10764 bound_to 10752
  154.2322  135.2865  155.2865 H   0  0  0  0  0  0  0  0  0  0  0  0  # atno 10765 bound_to 10752
  139.9951  134.6530  156.0025 H   0  0  0  0  0  0  0  0  0  0  0  0  # atno 11005 bound_to 11000
  144.7173  140.4253  143.7035 LP  0  0  0  0  0  0  0  0  0  0  0  0  # atno 17320 bound_to 7965
  145.6567  139.1574  143.2831 LP  0  0  0  0  0  0  0  0  0  0  0  0  # atno 17321 bound_to 7965
  139.5805  144.7508  151.3652 LP  0  0  0  0  0  0  0  0  0  0  0  0  # atno 17342 bound_to 10162
  140.7100  143.7416  150.7549 LP  0  0  0  0  0  0  0  0  0  0  0  0  # atno 17343 bound_to 10162
  157.5729  130.8322  149.8415 LP  0  0  0  0  0  0  0  0  0  0  0  0  # atno 17370 bound_to 10713
  156.0367  130.3749  150.1541 LP  0  0  0  0  0  0  0  0  0  0  0  0  # atno 17371 bound_to 10713
  141.1597  133.6540  156.4279 LP  0  0  0  0  0  0  0  0  0  0  0  0  # atno 17394 bound_to 11000
  140.4834  134.6643  157.5181 LP  0  0  0  0  0  0  0  0  0  0  0  0  # atno 17395 bound_to 11000

$$$$
