AV-unprocessed.smi:2151|AV-procd|sdf|8759|dock4
  -GOLD-   2272011533D 1   1.00000     0.00000
 Structure written by MMmdl.
 39 40  0  0  0  0  0  0  0  0  1 V2000
  147.8594  141.4650  154.6186 C   0  0  0  0  0  0  0  0  0  0  0  0
  148.8117  140.2756  154.4284 C   0  0  1  0  0  0  0  0  0  0  0  0
  149.3271  139.8681  155.7345 N   0  0  0  0  0  0  0  0  0  0  0  0
  150.6103  139.9103  156.1259 C   0  0  0  0  0  0  0  0  0  0  0  0
  151.5293  140.2934  155.4009 O   0  0  0  0  0  0  0  0  0  0  0  0
  150.8894  139.4179  157.5530 C   0  0  0  0  0  0  0  0  0  0  0  0
  151.6519  140.3822  158.3637 N   0  0  0  0  0  0  0  0  0  0  0  0
  151.2397  141.7285  158.3158 C   0  0  0  0  0  0  0  0  0  0  0  0
  151.8582  142.7096  159.0007 C   0  0  0  0  0  0  0  0  0  0  0  0
  151.3508  144.1431  158.9738 C   0  0  0  0  0  0  0  0  0  0  0  0
  152.0330  144.9123  159.8228 F   0  0  0  0  0  0  0  0  0  0  0  0
  151.4904  144.6498  157.7496 F   0  0  0  0  0  0  0  0  0  0  0  0
  150.0592  144.2007  159.3012 F   0  0  0  0  0  0  0  0  0  0  0  0
  152.9737  142.3088  159.8356 C   0  0  0  0  0  0  0  0  0  0  0  0
  153.3714  141.0232  159.9040 C   0  0  0  0  0  0  0  0  0  0  0  0
  152.6999  139.9706  159.1384 C   0  0  0  0  0  0  0  0  0  0  0  0
  153.0569  138.7933  159.1896 O   0  0  0  0  0  0  0  0  0  0  0  0
  148.1186  139.0859  153.7347 C   0  0  2  0  0  0  0  0  0  0  0  0
  147.4097  139.4312  152.4230 C   0  0  0  0  0  0  0  0  0  0  0  0
  146.3921  138.3188  152.3243 C   0  0  0  0  0  0  0  0  0  0  0  0
  145.9670  138.1575  153.7803 C   0  0  0  0  0  0  0  0  0  0  0  0
  147.0910  138.5489  154.5654 O   0  0  0  0  0  0  0  0  0  0  0  0
  147.4725  141.8176  153.6621 H   0  0  0  0  0  0  0  0  0  0  0  0
  148.3698  142.3034  155.0939 H   0  0  0  0  0  0  0  0  0  0  0  0
  147.0068  141.1960  155.2433 H   0  0  0  0  0  0  0  0  0  0  0  0
  149.6306  140.6082  153.7884 H   0  0  0  0  0  0  0  0  0  0  0  0
  148.6469  139.5290  156.3993 H   0  0  0  0  0  0  0  0  0  0  0  0
  149.9452  139.1779  158.0458 H   0  0  0  0  0  0  0  0  0  0  0  0
  151.4236  138.4693  157.4850 H   0  0  0  0  0  0  0  0  0  0  0  0
  150.3775  141.9127  157.6912 H   0  0  0  0  0  0  0  0  0  0  0  0
  153.5018  143.0515  160.4154 H   0  0  0  0  0  0  0  0  0  0  0  0
  154.2068  140.7608  160.5367 H   0  0  0  0  0  0  0  0  0  0  0  0
  148.8401  138.2890  153.5455 H   0  0  0  0  0  0  0  0  0  0  0  0
  146.9033  140.3947  152.5000 H   0  0  0  0  0  0  0  0  0  0  0  0
  148.0866  139.4671  151.5688 H   0  0  0  0  0  0  0  0  0  0  0  0
  145.5603  138.5531  151.6596 H   0  0  0  0  0  0  0  0  0  0  0  0
  146.8704  137.4055  151.9674 H   0  0  0  0  0  0  0  0  0  0  0  0
  145.1358  138.8249  154.0107 H   0  0  0  0  0  0  0  0  0  0  0  0
  145.6563  137.1382  154.0104 H   0  0  0  0  0  0  0  0  0  0  0  0
  1  2  1  0  0  0  0
  1 23  1  0  0  0  0
  1 24  1  0  0  0  0
  1 25  1  0  0  0  0
  2  3  1  0  0  0  0
  2 18  1  0  0  0  0
  2 26  1  0  0  0  0
  3  4  1  0  0  0  0
  3 27  1  0  0  0  0
  4  5  2  0  0  0  0
  4  6  1  0  0  0  0
  6  7  1  0  0  0  0
  6 28  1  0  0  0  0
  6 29  1  0  0  0  0
  7 16  1  0  0  0  0
  7  8  1  0  0  0  0
  8  9  2  0  0  0  0
  8 30  1  0  0  0  0
  9 10  1  0  0  0  0
  9 14  1  0  0  0  0
 10 11  1  0  0  0  0
 10 12  1  0  0  0  0
 10 13  1  0  0  0  0
 14 15  2  0  0  0  0
 14 31  1  0  0  0  0
 15 16  1  0  0  0  0
 15 32  1  0  0  0  0
 16 17  2  0  0  0  0
 18 22  1  0  0  0  0
 18 19  1  0  0  0  0
 18 33  1  0  0  0  0
 19 20  1  0  0  0  0
 19 34  1  0  0  0  0
 19 35  1  0  0  0  0
 20 21  1  0  0  0  0
 20 36  1  0  0  0  0
 20 37  1  0  0  0  0
 21 22  1  0  0  0  0
 21 38  1  0  0  0  0
 21 39  1  0  0  0  0
M  END
> <s_m_source_file>
AV-unprocessed.smi

> <i_m_source_file_index>
2151

> <i_lp_mmshare_version>
43012

> <i_f3d_flags>
0

> <s_epik_input>
TzFbQ0gyXVtDSDJdW0NIMl1bQ0BIXTFbQ0BIXShbQ0gzXSlbTkhdQyg9TylbQ0gyXW4yW2NIXWMoQyhGKShGKUYpW2NIXVtjSF1jMj1P

> <s_epik_cmdline>
J2VwaWtfcHl0aG9uJywgJy1waCcsICc3LjAnLCAnLXRuJywgJzgnLCAnLW1hJywgJzIwMCcsICctbWV0YWxfYmluZGluZycsICctaW1hZScsICc8aW5maWxlLm1hZT4nLCAnLW9tYWUnLCAnPG91dGZpbGUubWFlPic=

> <r_lp_tautomer_probability>
1

> <r_epik_Ionization_Penalty>
4.20109e-08

> <r_epik_Ionization_Penalty_Charging>
1.89977e-08

> <r_epik_Ionization_Penalty_Neutral>
2.30132e-08

> <r_epik_State_Penalty>
-0

> <r_epik_Charging_Adjusted_Penalty>
1.89977e-08

> <i_epik_Tot_Q>
0

> <i_epik_Tot_abs_Q>
0

> <r_epik_Metal_State_Penalty>
-0

> <b_epik_Metal_Only>
0

> <s_lp_Force_Field>
OPLS_2005

> <r_lp_Energy>
30.2794

> <b_lp_Chiralities_Consistent>
1

> <s_lp_Variant>
AV-unprocessed.smi:2151-2

> <Gold.Version>
5.8.1

> <Gold.Id.Protein>
6NUR|6NUR_protein|mol2

> <Gold.PLP.Fitness>
45.7457

> <Gold.PLP.PLP>
-43.5534

> <Gold.PLP.part.hbond>
-1.0000

> <Gold.PLP.part.metal>
0.0000

> <Gold.PLP.part.buried>
-2.3316

> <Gold.PLP.part.nonpolar>
-41.5295

> <Gold.PLP.part.repulsive>
0.1560

> <Gold.PLP.ligand.clash>
0.0000

> <Gold.PLP.ligand.torsion>
0.3474

> <Gold.PLP.Chemscore.Hbond>
0.9280

> <Gold.PLP.Chemscore.CHOScore>
0.0000

> <Gold.PLP.Chemscore.Metal>
0.0000

> <Gold.Chemscore.Hbonds>
donor molecule, donor type, donor heavy atom, donor atom, acceptor molecule, acceptor atom, score
      P1  H  7989  7998       L1     5  0.91

> <Gold.PLP.Chemscore.Internal.Correction>
0.1032

> <Gold.Rescore>
     Score         DG    S(hbond)    S(metal)    S(lipo)     H(rot)  DE(clash)    DE(int)     intcor
     13.90     -14.39       0.97        0.00      88.37       1.82       0.33       0.16       ----

> <Gold.Chemscore.Fitness>
13.9001

> <Gold.Chemscore.DG>
-14.3883

> <Gold.Chemscore.ZeroCoef>
-5.4800

> <Gold.Chemscore.Hbond>
0.9688

> <Gold.Chemscore.Metal>
0.0000

> <Gold.Chemscore.Lipo>
88.3670

> <Gold.Chemscore.Internal_Hbond>
0.0000

> <Gold.Chemscore.DEClash>
0.3309

> <Gold.Chemscore.DEInternal>
0.1573

> <Gold.Chemscore.Rot>
1.8228

> <Gold.Chemscore.Internal.Correction>
   9.000000E+99

> <Gold.Chemscore.Hbonds>
donor molecule, donor type, donor heavy atom, donor atom, acceptor molecule, acceptor atom, score
      P1  H  7989  7998       L1     5  0.87

> <Gold.Chemscore.Hbond.Weighted>
-3.2358

> <Gold.Chemscore.Metal.Weighted>
-0.0000

> <Gold.Chemscore.Lipo.Weighted>
-10.3389

> <Gold.Chemscore.Internal_Hbond.Weighted>
0.0000

> <Gold.Chemscore.DEClash.Weighted>
0.3309

> <Gold.Chemscore.DEInternal.Weighted>
0.1573

> <Gold.Chemscore.Rot.Weighted>
4.6665

> <Gold.Chemscore.Internal.Correction.Weighted>
   9.000000E+99

> <Gold.Protein.RotatedTorsions>
[ 6907 6896 6895 6894 ] final   -6.20 input  -60.11 | X-H torsion
[ 7974 7965 7964 7962 ] final  133.44 input  175.53 | X-H torsion
[ 8008 7997 7996 7995 ] final  -40.02 input   59.86 | X-H torsion
[ 10167 10162 10161 10158 ] final  -99.79 input  -65.29 | X-H torsion
[ 10718 10713 10712 10709 ] final    9.79 input   66.30 | X-H torsion
[ 10763 10752 10751 10750 ] final -107.85 input  -60.55 | X-H torsion
[ 11005 11000 10999 10996 ] final -133.05 input  -57.11 | X-H torsion

> <Gold.Protein.ActiveResidues>
 VAL166  LYS551  ARG553  GLY616  TRP617  ASP618  TYR619  PRO620  LYS621  CYS622 
 ASP623  PHE694  ASN695  SER759  ASP760  ASP761  ALA762  ILE779  LEU786  VAL792 
 PHE793  MET794  SER795  GLU796  ALA797  LYS798  CYS799  TRP800  GLU811  SER814 

> <Gold.Protein.RotatedAtoms>
  151.4693  135.1044  159.9746 H   0  0  0  0  0  0  0  0  0  0  0  0  # atno 6907 bound_to 6896
  152.4823  133.8280  159.7099 H   0  0  0  0  0  0  0  0  0  0  0  0  # atno 6908 bound_to 6896
  150.8904  133.7191  159.2933 H   0  0  0  0  0  0  0  0  0  0  0  0  # atno 6909 bound_to 6896
  144.9865  139.4450  143.5360 H   0  0  0  0  0  0  0  0  0  0  0  0  # atno 7974 bound_to 7965
  154.4016  140.1536  156.2959 H   0  0  0  0  0  0  0  0  0  0  0  0  # atno 8008 bound_to 7997
  155.8744  140.3447  155.5821 H   0  0  0  0  0  0  0  0  0  0  0  0  # atno 8009 bound_to 7997
  155.7738  140.0834  157.2085 H   0  0  0  0  0  0  0  0  0  0  0  0  # atno 8010 bound_to 7997
  140.2587  143.3422  152.0646 H   0  0  0  0  0  0  0  0  0  0  0  0  # atno 10167 bound_to 10162
  156.9715  130.5971  149.5669 H   0  0  0  0  0  0  0  0  0  0  0  0  # atno 10718 bound_to 10713
  154.8100  135.4659  154.0492 H   0  0  0  0  0  0  0  0  0  0  0  0  # atno 10763 bound_to 10752
  153.1931  135.6858  153.8334 H   0  0  0  0  0  0  0  0  0  0  0  0  # atno 10764 bound_to 10752
  153.7845  135.3252  155.3347 H   0  0  0  0  0  0  0  0  0  0  0  0  # atno 10765 bound_to 10752
  140.9115  134.1561  157.4385 H   0  0  0  0  0  0  0  0  0  0  0  0  # atno 11005 bound_to 11000
  146.3421  139.9171  142.8772 LP  0  0  0  0  0  0  0  0  0  0  0  0  # atno 17320 bound_to 7965
  145.2346  140.9986  143.3971 LP  0  0  0  0  0  0  0  0  0  0  0  0  # atno 17321 bound_to 7965
  139.5023  144.6733  151.6191 LP  0  0  0  0  0  0  0  0  0  0  0  0  # atno 17342 bound_to 10162
  140.5983  143.9656  150.6369 LP  0  0  0  0  0  0  0  0  0  0  0  0  # atno 17343 bound_to 10162
  156.0281  130.5374  150.8461 LP  0  0  0  0  0  0  0  0  0  0  0  0  # atno 17370 bound_to 10713
  157.5589  131.0945  150.9588 LP  0  0  0  0  0  0  0  0  0  0  0  0  # atno 17371 bound_to 10713
  139.8758  134.9937  156.5660 LP  0  0  0  0  0  0  0  0  0  0  0  0  # atno 17394 bound_to 11000
  140.8104  133.8434  155.8805 LP  0  0  0  0  0  0  0  0  0  0  0  0  # atno 17395 bound_to 11000

$$$$
