AV-unprocessed.smi:2228|AV-procd|sdf|9024|dock2
  -GOLD-   2272012223D 1   1.00000     0.00000
 Structure written by MMmdl.
 40 41  0  0  0  0  0  0  0  0  1 V2000
  149.2056  138.1492  156.5057 C   0  0  0  0  0  0  0  0  0  0  0  0
  148.8925  139.4177  155.9539 O   0  0  0  0  0  0  0  0  0  0  0  0
  149.1445  139.5139  154.5543 C   0  0  1  0  0  0  0  0  0  0  0  0
  148.0579  138.7411  153.7987 C   0  0  0  0  0  0  0  0  0  0  0  0
  146.8816  139.7115  153.7426 C   0  0  0  0  0  0  0  0  0  0  0  0
  147.5216  141.0899  153.5580 C   0  0  0  0  0  0  0  0  0  0  0  0
  148.9670  140.9756  154.0816 C   0  0  1  0  0  0  0  0  0  0  0  0
  149.2290  141.9558  155.1336 N   0  0  0  0  0  0  0  0  0  0  0  0
  150.2214  141.8676  156.0307 C   0  0  0  0  0  0  0  0  0  0  0  0
  151.0372  140.9451  156.0499 O   0  0  0  0  0  0  0  0  0  0  0  0
  150.1963  142.9041  156.8865 N   0  0  0  0  0  0  0  0  0  0  0  0
  151.0551  143.1521  157.9898 C   0  0  0  0  0  0  0  0  0  0  0  0
  151.7492  142.0207  158.4736 C   0  0  0  0  0  0  0  0  0  0  0  0
  152.6301  142.1601  159.5650 C   0  0  0  0  0  0  0  0  0  0  0  0
  153.3854  140.9605  160.0969 C   0  0  0  0  0  0  0  0  0  0  0  0
  152.7934  143.4332  160.1438 C   0  0  0  0  0  0  0  0  0  0  0  0
  152.0645  144.5090  159.6001 C   0  0  0  0  0  0  0  0  0  0  0  0
  152.1975  145.9062  160.1684 C   0  0  0  0  0  0  0  0  0  0  0  0
  151.2207  144.3737  158.5549 N   0  0  0  0  0  0  0  0  0  0  0  0
  148.9759  138.1498  157.5711 H   0  0  0  0  0  0  0  0  0  0  0  0
  150.2672  137.9255  156.3936 H   0  0  0  0  0  0  0  0  0  0  0  0
  148.6295  137.3500  156.0392 H   0  0  0  0  0  0  0  0  0  0  0  0
  150.1482  139.1561  154.3173 H   0  0  0  0  0  0  0  0  0  0  0  0
  148.4004  138.5292  152.7851 H   0  0  0  0  0  0  0  0  0  0  0  0
  147.7944  137.7899  154.2607 H   0  0  0  0  0  0  0  0  0  0  0  0
  146.1749  139.4681  152.9491 H   0  0  0  0  0  0  0  0  0  0  0  0
  146.3403  139.6825  154.6892 H   0  0  0  0  0  0  0  0  0  0  0  0
  147.5376  141.3518  152.4995 H   0  0  0  0  0  0  0  0  0  0  0  0
  146.9426  141.8605  154.0686 H   0  0  0  0  0  0  0  0  0  0  0  0
  149.6424  141.1631  153.2445 H   0  0  0  0  0  0  0  0  0  0  0  0
  148.5990  142.7422  155.1909 H   0  0  0  0  0  0  0  0  0  0  0  0
  149.4723  143.5910  156.7375 H   0  0  0  0  0  0  0  0  0  0  0  0
  151.6095  141.0529  158.0137 H   0  0  0  0  0  0  0  0  0  0  0  0
  153.9685  141.2187  160.9813 H   0  0  0  0  0  0  0  0  0  0  0  0
  154.0673  140.5782  159.3372 H   0  0  0  0  0  0  0  0  0  0  0  0
  152.6908  140.1649  160.3674 H   0  0  0  0  0  0  0  0  0  0  0  0
  153.4608  143.5819  160.9801 H   0  0  0  0  0  0  0  0  0  0  0  0
  152.7714  145.9026  161.0954 H   0  0  0  0  0  0  0  0  0  0  0  0
  151.2145  146.3283  160.3795 H   0  0  0  0  0  0  0  0  0  0  0  0
  152.7049  146.5560  159.4548 H   0  0  0  0  0  0  0  0  0  0  0  0
  1  2  1  0  0  0  0
  1 20  1  0  0  0  0
  1 21  1  0  0  0  0
  1 22  1  0  0  0  0
  2  3  1  0  0  0  0
  3  7  1  0  0  0  0
  3  4  1  0  0  0  0
  3 23  1  0  0  0  0
  4  5  1  0  0  0  0
  4 24  1  0  0  0  0
  4 25  1  0  0  0  0
  5  6  1  0  0  0  0
  5 26  1  0  0  0  0
  5 27  1  0  0  0  0
  6  7  1  0  0  0  0
  6 28  1  0  0  0  0
  6 29  1  0  0  0  0
  7  8  1  0  0  0  0
  7 30  1  0  0  0  0
  8  9  1  0  0  0  0
  8 31  1  0  0  0  0
  9 10  2  0  0  0  0
  9 11  1  0  0  0  0
 11 12  1  0  0  0  0
 11 32  1  0  0  0  0
 12 19  1  0  0  0  0
 12 13  2  0  0  0  0
 13 14  1  0  0  0  0
 13 33  1  0  0  0  0
 14 15  1  0  0  0  0
 14 16  2  0  0  0  0
 15 34  1  0  0  0  0
 15 35  1  0  0  0  0
 15 36  1  0  0  0  0
 16 17  1  0  0  0  0
 16 37  1  0  0  0  0
 17 18  1  0  0  0  0
 17 19  2  0  0  0  0
 18 38  1  0  0  0  0
 18 39  1  0  0  0  0
 18 40  1  0  0  0  0
M  END
> <s_m_source_file>
AV-unprocessed.smi

> <i_m_source_file_index>
2228

> <i_lp_mmshare_version>
43012

> <i_f3d_flags>
0

> <s_epik_input>
W0NIM11PW0NAQEhdMVtDSDJdW0NIMl1bQ0gyXVtDQEhdMVtOSF1DKD1PKVtOSF1jMltjSF1jKFtDSDNdKVtjSF1jKG4yKVtDSDNd

> <s_epik_cmdline>
J2VwaWtfcHl0aG9uJywgJy1waCcsICc3LjAnLCAnLXRuJywgJzgnLCAnLW1hJywgJzIwMCcsICctbWV0YWxfYmluZGluZycsICctaW1hZScsICc8aW5maWxlLm1hZT4nLCAnLW9tYWUnLCAnPG91dGZpbGUubWFlPic=

> <r_lp_tautomer_probability>
1

> <r_epik_Ionization_Penalty>
0.000275391

> <r_epik_Ionization_Penalty_Charging>
0

> <r_epik_Ionization_Penalty_Neutral>
0.000275391

> <r_epik_State_Penalty>
-0

> <r_epik_Charging_Adjusted_Penalty>
0

> <i_epik_Tot_Q>
0

> <i_epik_Tot_abs_Q>
0

> <r_epik_Metal_State_Penalty>
-0

> <b_epik_Metal_Only>
0

> <s_lp_Force_Field>
OPLS_2005

> <r_lp_Energy>
22.5757

> <b_lp_Chiralities_Consistent>
1

> <s_lp_Variant>
AV-unprocessed.smi:2228-2

> <Gold.Version>
5.8.1

> <Gold.Id.Protein>
6NUR|6NUR_protein|mol2

> <Gold.PLP.Fitness>
41.7993

> <Gold.PLP.PLP>
-38.1230

> <Gold.PLP.part.hbond>
-2.0000

> <Gold.PLP.part.metal>
0.0000

> <Gold.PLP.part.buried>
-4.7993

> <Gold.PLP.part.nonpolar>
-31.3662

> <Gold.PLP.part.repulsive>
0.3793

> <Gold.PLP.ligand.clash>
0.1598

> <Gold.PLP.ligand.torsion>
0.4321

> <Gold.PLP.Chemscore.Hbond>
1.5621

> <Gold.PLP.Chemscore.CHOScore>
0.0000

> <Gold.PLP.Chemscore.Metal>
0.0000

> <Gold.Chemscore.Hbonds>
donor molecule, donor type, donor heavy atom, donor atom, acceptor molecule, acceptor atom, score
      L1  H     8    31       P1  8028  0.66
      L1  H    11    32       P1  8028  0.90

> <Gold.PLP.Chemscore.Internal.Correction>
0.0140

> <Gold.Rescore>
     Score         DG    S(hbond)    S(metal)    S(lipo)     H(rot)  DE(clash)    DE(int)     intcor
     12.73     -19.68       1.63        0.00     101.46       1.21       0.79       6.16       ----

> <Gold.Chemscore.Fitness>
12.7307

> <Gold.Chemscore.DG>
-19.6813

> <Gold.Chemscore.ZeroCoef>
-5.4800

> <Gold.Chemscore.Hbond>
1.6268

> <Gold.Chemscore.Metal>
0.0000

> <Gold.Chemscore.Lipo>
101.4551

> <Gold.Chemscore.Internal_Hbond>
0.0000

> <Gold.Chemscore.DEClash>
0.7928

> <Gold.Chemscore.DEInternal>
6.1578

> <Gold.Chemscore.Rot>
1.2119

> <Gold.Chemscore.Internal.Correction>
   9.000000E+99

> <Gold.Chemscore.Hbonds>
donor molecule, donor type, donor heavy atom, donor atom, acceptor molecule, acceptor atom, score
      L1  H     8    31       P1  8028  0.63
      L1  H    11    32       P1  8028  0.87

> <Gold.Chemscore.Hbond.Weighted>
-5.4336

> <Gold.Chemscore.Metal.Weighted>
-0.0000

> <Gold.Chemscore.Lipo.Weighted>
-11.8703

> <Gold.Chemscore.Internal_Hbond.Weighted>
0.0000

> <Gold.Chemscore.DEClash.Weighted>
0.7928

> <Gold.Chemscore.DEInternal.Weighted>
6.1578

> <Gold.Chemscore.Rot.Weighted>
3.1026

> <Gold.Chemscore.Internal.Correction.Weighted>
   9.000000E+99

> <Gold.Protein.RotatedTorsions>
[ 6907 6896 6895 6894 ] final  170.76 input  -60.11 | X-H torsion
[ 7974 7965 7964 7962 ] final  105.77 input  175.53 | X-H torsion
[ 8008 7997 7996 7995 ] final  -69.13 input   59.86 | X-H torsion
[ 10167 10162 10161 10158 ] final -150.18 input  -65.29 | X-H torsion
[ 10718 10713 10712 10709 ] final    6.79 input   66.30 | X-H torsion
[ 10763 10752 10751 10750 ] final  125.71 input  -60.55 | X-H torsion
[ 11005 11000 10999 10996 ] final -128.97 input  -57.11 | X-H torsion

> <Gold.Protein.ActiveResidues>
 VAL166  LYS551  ARG553  GLY616  TRP617  ASP618  TYR619  PRO620  LYS621  CYS622 
 ASP623  PHE694  ASN695  SER759  ASP760  ASP761  ALA762  ILE779  LEU786  VAL792 
 PHE793  MET794  SER795  GLU796  ALA797  LYS798  CYS799  TRP800  GLU811  SER814 

> <Gold.Protein.RotatedAtoms>
  151.8110  133.3382  159.3555 H   0  0  0  0  0  0  0  0  0  0  0  0  # atno 6907 bound_to 6896
  150.7326  134.5664  159.5877 H   0  0  0  0  0  0  0  0  0  0  0  0  # atno 6908 bound_to 6896
  152.3075  134.7539  160.0395 H   0  0  0  0  0  0  0  0  0  0  0  0  # atno 6909 bound_to 6896
  145.3154  139.2528  143.3741 H   0  0  0  0  0  0  0  0  0  0  0  0  # atno 7974 bound_to 7965
  154.4917  140.0859  156.7608 H   0  0  0  0  0  0  0  0  0  0  0  0  # atno 8008 bound_to 7997
  155.4215  140.3446  155.4253 H   0  0  0  0  0  0  0  0  0  0  0  0  # atno 8009 bound_to 7997
  156.1338  140.1509  156.9013 H   0  0  0  0  0  0  0  0  0  0  0  0  # atno 8010 bound_to 7997
  139.7377  143.8710  152.2553 H   0  0  0  0  0  0  0  0  0  0  0  0  # atno 10167 bound_to 10162
  156.9274  130.5813  149.5649 H   0  0  0  0  0  0  0  0  0  0  0  0  # atno 10718 bound_to 10713
  153.6817  135.3313  155.3180 H   0  0  0  0  0  0  0  0  0  0  0  0  # atno 10763 bound_to 10752
  154.8464  135.4410  154.1599 H   0  0  0  0  0  0  0  0  0  0  0  0  # atno 10764 bound_to 10752
  153.2617  135.6992  153.7648 H   0  0  0  0  0  0  0  0  0  0  0  0  # atno 10765 bound_to 10752
  140.9471  134.1115  157.4097 H   0  0  0  0  0  0  0  0  0  0  0  0  # atno 11005 bound_to 11000
  146.3102  140.3699  142.8673 LP  0  0  0  0  0  0  0  0  0  0  0  0  # atno 17320 bound_to 7965
  144.8982  140.7610  143.5883 LP  0  0  0  0  0  0  0  0  0  0  0  0  # atno 17321 bound_to 7965
  139.8651  144.7097  150.9053 LP  0  0  0  0  0  0  0  0  0  0  0  0  # atno 17342 bound_to 10162
  140.7781  143.3785  151.1520 LP  0  0  0  0  0  0  0  0  0  0  0  0  # atno 17343 bound_to 10162
  156.0463  130.5539  150.8887 LP  0  0  0  0  0  0  0  0  0  0  0  0  # atno 17370 bound_to 10713
  157.5869  131.0945  150.9182 LP  0  0  0  0  0  0  0  0  0  0  0  0  # atno 17371 bound_to 10713
  139.8837  135.0055  156.6316 LP  0  0  0  0  0  0  0  0  0  0  0  0  # atno 17394 bound_to 11000
  140.7653  133.8783  155.8450 LP  0  0  0  0  0  0  0  0  0  0  0  0  # atno 17395 bound_to 11000

$$$$
