AV-unprocessed.smi:725|AV-procd|sdf|3509|dock1
  -GOLD-   22720 0503D 1   1.00000     0.00000
 Structure written by MMmdl.
 47 48  0  0  0  0  0  0  0  0  1 V2000
  145.2227  147.0136  159.0185 C   0  0  0  0  0  0  0  0  0  0  0  0
  145.8972  145.9092  159.8399 C   0  0  0  0  0  0  0  0  0  0  0  0
  145.5965  144.5019  159.2862 C   0  0  0  0  0  0  0  0  0  0  0  0
  145.8888  143.3159  160.2399 C   0  0  2  0  0  0  0  0  0  0  0  0
  145.1941  143.4884  161.6082 C   0  0  0  0  0  0  0  0  0  0  0  0
  147.2880  143.2746  160.4485 O   0  0  0  0  0  0  0  0  0  0  0  0
  145.5002  141.9954  159.5262 C   0  0  0  0  0  0  0  0  0  0  0  0
  146.0083  141.8985  158.1588 N   0  0  0  0  0  0  0  0  0  0  0  0
  147.3026  141.8462  157.8034 C   0  0  0  0  0  0  0  0  0  0  0  0
  148.2330  141.8664  158.6098 O   0  0  0  0  0  0  0  0  0  0  0  0
  147.5507  141.7287  156.3223 C   0  0  0  0  0  0  0  0  0  0  0  0
  146.5252  142.0927  155.4187 C   0  0  0  0  0  0  0  0  0  0  0  0
  146.7631  142.0309  154.0347 C   0  0  0  0  0  0  0  0  0  0  0  0
  148.0307  141.6127  153.5969 C   0  0  0  0  0  0  0  0  0  0  0  0
  149.0232  141.2651  154.4402 N   0  0  0  0  0  0  0  0  0  0  0  0
  148.8042  141.3172  155.7781 C   0  0  0  0  0  0  0  0  0  0  0  0
  149.8669  140.9015  156.6056 N   0  0  0  0  0  0  0  0  0  0  0  0
  150.9029  141.8817  156.9154 C   0  0  0  0  0  0  0  0  0  0  0  0
  151.8306  141.3310  158.0119 C   0  0  0  0  0  0  0  0  0  0  0  0
  152.3700  140.0789  157.5970 O   0  0  0  0  0  0  0  0  0  0  0  0
  151.3537  139.1063  157.3687 C   0  0  0  0  0  0  0  0  0  0  0  0
  150.4103  139.5946  156.2564 C   0  0  0  0  0  0  0  0  0  0  0  0
  145.4473  147.9970  159.4317 H   0  0  0  0  0  0  0  0  0  0  0  0
  144.1391  146.8946  159.0134 H   0  0  0  0  0  0  0  0  0  0  0  0
  145.5666  147.0013  157.9840 H   0  0  0  0  0  0  0  0  0  0  0  0
  146.9727  146.0868  159.8526 H   0  0  0  0  0  0  0  0  0  0  0  0
  145.5565  145.9905  160.8715 H   0  0  0  0  0  0  0  0  0  0  0  0
  144.5481  144.4659  158.9871 H   0  0  0  0  0  0  0  0  0  0  0  0
  146.1690  144.3642  158.3677 H   0  0  0  0  0  0  0  0  0  0  0  0
  144.1103  143.5213  161.4945 H   0  0  0  0  0  0  0  0  0  0  0  0
  145.5031  144.4044  162.1104 H   0  0  0  0  0  0  0  0  0  0  0  0
  145.4294  142.6731  162.2922 H   0  0  0  0  0  0  0  0  0  0  0  0
  147.6444  144.1289  160.2597 H   0  0  0  0  0  0  0  0  0  0  0  0
  145.8519  141.1446  160.1121 H   0  0  0  0  0  0  0  0  0  0  0  0
  144.4149  141.8932  159.4883 H   0  0  0  0  0  0  0  0  0  0  0  0
  145.3174  141.8600  157.4235 H   0  0  0  0  0  0  0  0  0  0  0  0
  145.5624  142.4285  155.7764 H   0  0  0  0  0  0  0  0  0  0  0  0
  145.9949  142.3047  153.3268 H   0  0  0  0  0  0  0  0  0  0  0  0
  148.2543  141.5549  152.5420 H   0  0  0  0  0  0  0  0  0  0  0  0
  151.4839  142.1015  156.0185 H   0  0  0  0  0  0  0  0  0  0  0  0
  150.4447  142.8148  157.2456 H   0  0  0  0  0  0  0  0  0  0  0  0
  152.6484  142.0272  158.1972 H   0  0  0  0  0  0  0  0  0  0  0  0
  151.2920  141.2123  158.9536 H   0  0  0  0  0  0  0  0  0  0  0  0
  151.8207  138.1650  157.0794 H   0  0  0  0  0  0  0  0  0  0  0  0
  150.8015  138.9186  158.2911 H   0  0  0  0  0  0  0  0  0  0  0  0
  149.6107  138.8695  156.1038 H   0  0  0  0  0  0  0  0  0  0  0  0
  150.9528  139.6744  155.3134 H   0  0  0  0  0  0  0  0  0  0  0  0
  1  2  1  0  0  0  0
  1 23  1  0  0  0  0
  1 24  1  0  0  0  0
  1 25  1  0  0  0  0
  2  3  1  0  0  0  0
  2 26  1  0  0  0  0
  2 27  1  0  0  0  0
  3  4  1  0  0  0  0
  3 28  1  0  0  0  0
  3 29  1  0  0  0  0
  4  5  1  0  0  0  0
  4  6  1  0  0  0  0
  4  7  1  0  0  0  0
  5 30  1  0  0  0  0
  5 31  1  0  0  0  0
  5 32  1  0  0  0  0
  6 33  1  0  0  0  0
  7  8  1  0  0  0  0
  7 34  1  0  0  0  0
  7 35  1  0  0  0  0
  8  9  1  0  0  0  0
  8 36  1  0  0  0  0
  9 10  2  0  0  0  0
  9 11  1  0  0  0  0
 11 16  1  0  0  0  0
 11 12  2  0  0  0  0
 12 13  1  0  0  0  0
 12 37  1  0  0  0  0
 13 14  2  0  0  0  0
 13 38  1  0  0  0  0
 14 15  1  0  0  0  0
 14 39  1  0  0  0  0
 15 16  2  0  0  0  0
 16 17  1  0  0  0  0
 17 22  1  0  0  0  0
 17 18  1  0  0  0  0
 18 19  1  0  0  0  0
 18 40  1  0  0  0  0
 18 41  1  0  0  0  0
 19 20  1  0  0  0  0
 19 42  1  0  0  0  0
 19 43  1  0  0  0  0
 20 21  1  0  0  0  0
 21 22  1  0  0  0  0
 21 44  1  0  0  0  0
 21 45  1  0  0  0  0
 22 46  1  0  0  0  0
 22 47  1  0  0  0  0
M  END
> <s_m_source_file>
AV-unprocessed.smi

> <i_m_source_file_index>
725

> <i_lp_mmshare_version>
43012

> <i_f3d_flags>
0

> <s_epik_input>
W0NIM11bQ0gyXVtDSDJdW0NAQF0oW0NIM10pKFtPSF0pW0NIMl1bTkhdQyg9TyljMVtjSF1bY0hdW2NIXW5jMU4yW0NIMl1bQ0gyXU9bQ0gyXVtDSDJdMg==

> <s_epik_cmdline>
J2VwaWtfcHl0aG9uJywgJy1waCcsICc3LjAnLCAnLXRuJywgJzgnLCAnLW1hJywgJzIwMCcsICctbWV0YWxfYmluZGluZycsICctaW1hZScsICc8aW5maWxlLm1hZT4nLCAnLW9tYWUnLCAnPG91dGZpbGUubWFlPic=

> <r_lp_tautomer_probability>
1

> <r_epik_Ionization_Penalty>
1.23446e-05

> <r_epik_Ionization_Penalty_Charging>
0

> <r_epik_Ionization_Penalty_Neutral>
1.23446e-05

> <r_epik_State_Penalty>
-0

> <r_epik_Charging_Adjusted_Penalty>
0

> <i_epik_Tot_Q>
0

> <i_epik_Tot_abs_Q>
0

> <r_epik_Metal_State_Penalty>
-0

> <b_epik_Metal_Only>
0

> <s_lp_Force_Field>
OPLS_2005

> <r_lp_Energy>
29.6434

> <b_lp_Chiralities_Consistent>
1

> <s_lp_Variant>
AV-unprocessed.smi:725-2

> <Gold.Version>
5.8.1

> <Gold.Id.Protein>
6NUR|6NUR_protein|mol2

> <Gold.PLP.Fitness>
37.8716

> <Gold.PLP.PLP>
-30.4949

> <Gold.PLP.part.hbond>
-3.0530

> <Gold.PLP.part.metal>
0.0000

> <Gold.PLP.part.buried>
-3.6046

> <Gold.PLP.part.nonpolar>
-22.8232

> <Gold.PLP.part.repulsive>
0.3832

> <Gold.PLP.ligand.clash>
0.0000

> <Gold.PLP.ligand.torsion>
0.6821

> <Gold.PLP.Chemscore.Hbond>
1.7771

> <Gold.PLP.Chemscore.CHOScore>
1.0000

> <Gold.PLP.Chemscore.Metal>
0.0000

> <Gold.Chemscore.Hbonds>
donor molecule, donor type, donor heavy atom, donor atom, acceptor molecule, acceptor atom, score
      P1  H  6933  6944       L1     6  1.00
      P1  H  7997  8009       L1    20  0.55
      L1  C    14    39       P1  7957  1.00

> <Gold.PLP.Chemscore.Internal.Correction>
0.4095

> <Gold.Rescore>
     Score         DG    S(hbond)    S(metal)    S(lipo)     H(rot)  DE(clash)    DE(int)     intcor
      9.30     -13.64       1.77        0.00      67.15       2.19       0.47       3.87       ----

> <Gold.Chemscore.Fitness>
9.2957

> <Gold.Chemscore.DG>
-13.6375

> <Gold.Chemscore.ZeroCoef>
-5.4800

> <Gold.Chemscore.Hbond>
1.7713

> <Gold.Chemscore.Metal>
0.0000

> <Gold.Chemscore.Lipo>
67.1467

> <Gold.Chemscore.Internal_Hbond>
0.0000

> <Gold.Chemscore.DEClash>
0.4709

> <Gold.Chemscore.DEInternal>
3.8709

> <Gold.Chemscore.Rot>
2.1933

> <Gold.Chemscore.Internal.Correction>
   9.000000E+99

> <Gold.Chemscore.Hbonds>
donor molecule, donor type, donor heavy atom, donor atom, acceptor molecule, acceptor atom, score
      P1  H  6933  6944       L1     6  0.70
      P1  H  7997  8009       L1    20  0.52

> <Gold.Chemscore.Hbond.Weighted>
-5.9162

> <Gold.Chemscore.Metal.Weighted>
-0.0000

> <Gold.Chemscore.Lipo.Weighted>
-7.8562

> <Gold.Chemscore.Internal_Hbond.Weighted>
0.0000

> <Gold.Chemscore.DEClash.Weighted>
0.4709

> <Gold.Chemscore.DEInternal.Weighted>
3.8709

> <Gold.Chemscore.Rot.Weighted>
5.6149

> <Gold.Chemscore.Internal.Correction.Weighted>
   9.000000E+99

> <Gold.Protein.RotatedTorsions>
[ 6907 6896 6895 6894 ] final   98.66 input  -60.11 | X-H torsion
[ 7974 7965 7964 7962 ] final  100.22 input  175.53 | X-H torsion
[ 8008 7997 7996 7995 ] final  173.14 input   59.86 | X-H torsion
[ 10167 10162 10161 10158 ] final  151.72 input  -65.29 | X-H torsion
[ 10718 10713 10712 10709 ] final  156.55 input   66.30 | X-H torsion
[ 10763 10752 10751 10750 ] final  -54.00 input  -60.55 | X-H torsion
[ 11005 11000 10999 10996 ] final -165.56 input  -57.11 | X-H torsion

> <Gold.Protein.ActiveResidues>
 VAL166  LYS551  ARG553  GLY616  TRP617  ASP618  TYR619  PRO620  LYS621  CYS622 
 ASP623  PHE694  ASN695  SER759  ASP760  ASP761  ALA762  ILE779  LEU786  VAL792 
 PHE793  MET794  SER795  GLU796  ALA797  LYS798  CYS799  TRP800  GLU811  SER814 

> <Gold.Protein.RotatedAtoms>
  152.5405  134.0547  159.8125 H   0  0  0  0  0  0  0  0  0  0  0  0  # atno 6907 bound_to 6896
  151.0683  133.5479  159.2636 H   0  0  0  0  0  0  0  0  0  0  0  0  # atno 6908 bound_to 6896
  151.2352  135.0577  159.9057 H   0  0  0  0  0  0  0  0  0  0  0  0  # atno 6909 bound_to 6896
  145.3885  139.2367  143.3365 H   0  0  0  0  0  0  0  0  0  0  0  0  # atno 7974 bound_to 7965
  156.1105  140.1468  156.9345 H   0  0  0  0  0  0  0  0  0  0  0  0  # atno 8008 bound_to 7997
  154.4764  140.0893  156.7314 H   0  0  0  0  0  0  0  0  0  0  0  0  # atno 8009 bound_to 7997
  155.4604  140.3438  155.4314 H   0  0  0  0  0  0  0  0  0  0  0  0  # atno 8010 bound_to 7997
  139.4838  144.5417  151.7552 H   0  0  0  0  0  0  0  0  0  0  0  0  # atno 10167 bound_to 10162
  157.2034  131.0681  151.2012 H   0  0  0  0  0  0  0  0  0  0  0  0  # atno 10718 bound_to 10713
  154.1678  135.6464  153.5002 H   0  0  0  0  0  0  0  0  0  0  0  0  # atno 10763 bound_to 10752
  153.0092  135.5376  154.6644 H   0  0  0  0  0  0  0  0  0  0  0  0  # atno 10764 bound_to 10752
  154.5975  135.2940  155.0543 H   0  0  0  0  0  0  0  0  0  0  0  0  # atno 10765 bound_to 10752
  140.5744  134.5205  157.5167 H   0  0  0  0  0  0  0  0  0  0  0  0  # atno 11005 bound_to 11000
  146.2809  140.4564  142.8777 LP  0  0  0  0  0  0  0  0  0  0  0  0  # atno 17320 bound_to 7965
  144.8457  140.6925  143.6200 LP  0  0  0  0  0  0  0  0  0  0  0  0  # atno 17321 bound_to 7965
  140.4958  144.1243  150.5960 LP  0  0  0  0  0  0  0  0  0  0  0  0  # atno 17342 bound_to 10162
  140.4119  143.2653  151.9822 LP  0  0  0  0  0  0  0  0  0  0  0  0  # atno 17343 bound_to 10162
  157.3744  130.7198  149.6587 LP  0  0  0  0  0  0  0  0  0  0  0  0  # atno 17370 bound_to 10713
  155.9698  130.4190  150.4353 LP  0  0  0  0  0  0  0  0  0  0  0  0  # atno 17371 bound_to 10713
  139.9347  134.7898  156.0836 LP  0  0  0  0  0  0  0  0  0  0  0  0  # atno 17394 bound_to 11000
  141.1036  133.6668  156.2811 LP  0  0  0  0  0  0  0  0  0  0  0  0  # atno 17395 bound_to 11000

$$$$
