AV-unprocessed.smi:3058|AV-procd|sdf|11675|dock9
  -GOLD-   2272017 83D 1   1.00000     0.00000
 Structure written by MMmdl.
 39 41  0  0  0  0  0  0  0  0  2 V2000
  150.7548  140.5063  155.3776 O   0  0  0  0  0  0  0  0  0  0  0  0
  150.0251  141.4937  155.4747 C   0  0  0  0  0  0  0  0  0  0  0  0
  150.2083  142.4459  156.4025 N   0  0  0  0  0  0  0  0  0  0  0  0
  151.2779  142.4529  157.3932 C   0  0  0  0  0  0  0  0  0  0  0  0
  151.2965  143.7641  158.1963 C   0  0  0  0  0  0  0  0  0  0  0  0
  151.8571  143.5714  159.5916 C   0  0  0  0  0  0  0  0  0  0  0  0
  152.6435  142.4390  159.8988 C   0  0  0  0  0  0  0  0  0  0  0  0
  153.1549  142.2864  161.2045 C   0  0  0  0  0  0  0  0  0  0  0  0
  152.8695  143.2705  162.1732 C   0  0  0  0  0  0  0  0  0  0  0  0
  152.1142  144.3410  161.8419 N   0  3  0  0  0  0  0  0  0  0  0  0
  151.6054  144.5233  160.6034 C   0  0  0  0  0  0  0  0  0  0  0  0
  148.8167  141.6832  154.5405 C   0  0  2  0  0  0  0  0  0  0  0  0
  147.4560  141.8363  155.2649 C   0  0  0  0  0  0  0  0  0  0  0  0
  146.5783  140.7703  154.5820 C   0  0  2  0  0  0  0  0  0  0  0  0
  147.0104  139.3691  155.0530 C   0  0  0  0  0  0  0  0  0  0  0  0
  148.3422  139.1573  154.3100 C   0  0  0  0  0  0  0  0  0  0  0  0
  148.5386  140.5013  153.5739 C   0  0  1  0  0  0  0  0  0  0  0  0
  147.1032  140.8010  153.1512 C   0  0  0  0  0  0  0  0  0  0  0  0
  149.5617  143.2215  156.4201 H   0  0  0  0  0  0  0  0  0  0  0  0
  151.1716  141.5953  158.0602 H   0  0  0  0  0  0  0  0  0  0  0  0
  152.2251  142.3234  156.8692 H   0  0  0  0  0  0  0  0  0  0  0  0
  151.8922  144.5145  157.6746 H   0  0  0  0  0  0  0  0  0  0  0  0
  150.2890  144.1749  158.2768 H   0  0  0  0  0  0  0  0  0  0  0  0
  152.8545  141.6957  159.1433 H   0  0  0  0  0  0  0  0  0  0  0  0
  153.7581  141.4267  161.4585 H   0  0  0  0  0  0  0  0  0  0  0  0
  153.2200  143.2346  163.1944 H   0  0  0  0  0  0  0  0  0  0  0  0
  151.0186  145.4192  160.4608 H   0  0  0  0  0  0  0  0  0  0  0  0
  148.9864  142.5827  153.9453 H   0  0  0  0  0  0  0  0  0  0  0  0
  147.5009  141.6926  156.3453 H   0  0  0  0  0  0  0  0  0  0  0  0
  147.0486  142.8331  155.0902 H   0  0  0  0  0  0  0  0  0  0  0  0
  145.5086  140.9547  154.6855 H   0  0  0  0  0  0  0  0  0  0  0  0
  147.1267  139.3174  156.1362 H   0  0  0  0  0  0  0  0  0  0  0  0
  146.2818  138.6134  154.7571 H   0  0  0  0  0  0  0  0  0  0  0  0
  149.1628  138.8900  154.9743 H   0  0  0  0  0  0  0  0  0  0  0  0
  148.2423  138.3455  153.5883 H   0  0  0  0  0  0  0  0  0  0  0  0
  149.2445  140.4444  152.7448 H   0  0  0  0  0  0  0  0  0  0  0  0
  146.6669  140.0302  152.5130 H   0  0  0  0  0  0  0  0  0  0  0  0
  146.9854  141.7724  152.6675 H   0  0  0  0  0  0  0  0  0  0  0  0
  151.9203  145.0420  162.5576 H   0  0  0  0  0  0  0  0  0  0  0  0
  1  2  2  0  0  0  0
  2  3  1  0  0  0  0
  2 12  1  0  0  0  0
  3  4  1  0  0  0  0
  3 19  1  0  0  0  0
  4  5  1  0  0  0  0
  4 20  1  0  0  0  0
  4 21  1  0  0  0  0
  5  6  1  0  0  0  0
  5 22  1  0  0  0  0
  5 23  1  0  0  0  0
  6 11  1  0  0  0  0
  6  7  2  0  0  0  0
  7  8  1  0  0  0  0
  7 24  1  0  0  0  0
  8  9  2  0  0  0  0
  8 25  1  0  0  0  0
  9 10  1  0  0  0  0
  9 26  1  0  0  0  0
 10 11  2  0  0  0  0
 10 39  1  0  0  0  0
 11 27  1  0  0  0  0
 12 17  1  0  0  0  0
 12 13  1  0  0  0  0
 12 28  1  0  0  0  0
 13 14  1  0  0  0  0
 13 29  1  0  0  0  0
 13 30  1  0  0  0  0
 14 18  1  0  0  0  0
 14 15  1  0  0  0  0
 14 31  1  0  0  0  0
 15 16  1  0  0  0  0
 15 32  1  0  0  0  0
 15 33  1  0  0  0  0
 16 17  1  0  0  0  0
 16 34  1  0  0  0  0
 16 35  1  0  0  0  0
 17 18  1  0  0  0  0
 17 36  1  0  0  0  0
 18 37  1  0  0  0  0
 18 38  1  0  0  0  0
M  CHG  1  10   1
M  END
> <s_m_source_file>
AV-unprocessed.smi

> <i_m_source_file_index>
3058

> <i_lp_mmshare_version>
43012

> <i_f3d_flags>
0

> <s_epik_input>
W0NIMl0xW0NIMl1bQ0BIXShbQ0gyXTIpW0NAQEhdKFtDSDJdW0NAQEhdMTIpQyg9TylbTkhdW0NIMl1bQ0gyXWMzW2NIXVtjSF1bY0hdbltjSF0z

> <s_epik_cmdline>
J2VwaWtfcHl0aG9uJywgJy1waCcsICc3LjAnLCAnLXRuJywgJzgnLCAnLW1hJywgJzIwMCcsICctbWV0YWxfYmluZGluZycsICctaW1hZScsICc8aW5maWxlLm1hZT4nLCAnLW9tYWUnLCAnPG91dGZpbGUubWFlPic=

> <r_epik_Ionization_Penalty>
2.24375

> <r_epik_Ionization_Penalty_Charging>
2.24375

> <r_epik_Ionization_Penalty_Neutral>
1.89995e-08

> <r_epik_State_Penalty>
2.39035

> <r_epik_Charging_Adjusted_Penalty>
4.63411

> <i_epik_Tot_Q>
1

> <i_epik_Tot_abs_Q>
1

> <r_epik_Metal_State_Penalty>
2.40369

> <b_epik_Metal_Only>
0

> <s_lp_Force_Field>
OPLS_2005

> <r_lp_Energy>
54.0755

> <b_lp_Chiralities_Consistent>
1

> <s_lp_Variant>
AV-unprocessed.smi:3058-7

> <Gold.Version>
5.8.1

> <Gold.Id.Protein>
6NUR|6NUR_protein|mol2

> <Gold.PLP.Fitness>
47.5179

> <Gold.PLP.PLP>
-42.6368

> <Gold.PLP.part.hbond>
-3.2856

> <Gold.PLP.part.metal>
0.0000

> <Gold.PLP.part.buried>
-0.5577

> <Gold.PLP.part.nonpolar>
-37.7871

> <Gold.PLP.part.repulsive>
0.1876

> <Gold.PLP.ligand.clash>
0.0000

> <Gold.PLP.ligand.torsion>
0.4931

> <Gold.PLP.Chemscore.Hbond>
1.9520

> <Gold.PLP.Chemscore.CHOScore>
0.0000

> <Gold.PLP.Chemscore.Metal>
0.0000

> <Gold.Chemscore.Hbonds>
donor molecule, donor type, donor heavy atom, donor atom, acceptor molecule, acceptor atom, score
      L1  H     3    19       P1  8028  1.00
      P1  H  7989  7998       L1     1  0.81

> <Gold.PLP.Chemscore.Internal.Correction>
0.0113

> <Gold.Rescore>
     Score         DG    S(hbond)    S(metal)    S(lipo)     H(rot)  DE(clash)    DE(int)     intcor
     16.81     -19.96       1.36        0.00     116.87       1.45       1.68       1.48       ----

> <Gold.Chemscore.Fitness>
16.8064

> <Gold.Chemscore.DG>
-19.9610

> <Gold.Chemscore.ZeroCoef>
-5.4800

> <Gold.Chemscore.Hbond>
1.3566

> <Gold.Chemscore.Metal>
0.0000

> <Gold.Chemscore.Lipo>
116.8737

> <Gold.Chemscore.Internal_Hbond>
0.0000

> <Gold.Chemscore.DEClash>
1.6778

> <Gold.Chemscore.DEInternal>
1.4767

> <Gold.Chemscore.Rot>
1.4548

> <Gold.Chemscore.Internal.Correction>
   9.000000E+99

> <Gold.Chemscore.Hbonds>
donor molecule, donor type, donor heavy atom, donor atom, acceptor molecule, acceptor atom, score
      L1  H     3    19       P1  8028  0.94
      P1  H  7989  7998       L1     1  0.19

> <Gold.Chemscore.Hbond.Weighted>
-4.5310

> <Gold.Chemscore.Metal.Weighted>
-0.0000

> <Gold.Chemscore.Lipo.Weighted>
-13.6742

> <Gold.Chemscore.Internal_Hbond.Weighted>
0.0000

> <Gold.Chemscore.DEClash.Weighted>
1.6778

> <Gold.Chemscore.DEInternal.Weighted>
1.4767

> <Gold.Chemscore.Rot.Weighted>
3.7242

> <Gold.Chemscore.Internal.Correction.Weighted>
   9.000000E+99

> <Gold.Protein.RotatedTorsions>
[ 6907 6896 6895 6894 ] final    4.80 input  -60.11 | X-H torsion
[ 7974 7965 7964 7962 ] final  156.68 input  175.53 | X-H torsion
[ 8008 7997 7996 7995 ] final  -69.65 input   59.86 | X-H torsion
[ 10167 10162 10161 10158 ] final   62.40 input  -65.29 | X-H torsion
[ 10718 10713 10712 10709 ] final -135.96 input   66.30 | X-H torsion
[ 10763 10752 10751 10750 ] final   81.15 input  -60.55 | X-H torsion
[ 11005 11000 10999 10996 ] final -170.13 input  -57.11 | X-H torsion

> <Gold.Protein.ActiveResidues>
 VAL166  LYS551  ARG553  GLY616  TRP617  ASP618  TYR619  PRO620  LYS621  CYS622 
 ASP623  PHE694  ASN695  SER759  ASP760  ASP761  ALA762  ILE779  LEU786  VAL792 
 PHE793  MET794  SER795  GLU796  ALA797  LYS798  CYS799  TRP800  GLU811  SER814 

> <Gold.Protein.RotatedAtoms>
  151.6472  135.1006  160.0153 H   0  0  0  0  0  0  0  0  0  0  0  0  # atno 6907 bound_to 6896
  152.4021  133.6829  159.6334 H   0  0  0  0  0  0  0  0  0  0  0  0  # atno 6908 bound_to 6896
  150.7920  133.8689  159.3294 H   0  0  0  0  0  0  0  0  0  0  0  0  # atno 6909 bound_to 6896
  144.7948  139.7237  143.6206 H   0  0  0  0  0  0  0  0  0  0  0  0  # atno 7974 bound_to 7965
  154.4954  140.0849  156.7685 H   0  0  0  0  0  0  0  0  0  0  0  0  # atno 8008 bound_to 7997
  155.4129  140.3442  155.4247 H   0  0  0  0  0  0  0  0  0  0  0  0  # atno 8009 bound_to 7997
  156.1387  140.1523  156.8942 H   0  0  0  0  0  0  0  0  0  0  0  0  # atno 8010 bound_to 7997
  140.1443  144.4523  150.6794 H   0  0  0  0  0  0  0  0  0  0  0  0  # atno 10167 bound_to 10162
  156.2719  130.7270  151.1240 H   0  0  0  0  0  0  0  0  0  0  0  0  # atno 10718 bound_to 10713
  153.1093  135.4776  154.9006 H   0  0  0  0  0  0  0  0  0  0  0  0  # atno 10763 bound_to 10752
  154.7463  135.3095  154.8641 H   0  0  0  0  0  0  0  0  0  0  0  0  # atno 10764 bound_to 10752
  153.9234  135.6852  153.4800 H   0  0  0  0  0  0  0  0  0  0  0  0  # atno 10765 bound_to 10752
  140.5229  134.5691  157.5053 H   0  0  0  0  0  0  0  0  0  0  0  0  # atno 11005 bound_to 11000
  146.2213  139.5641  142.9616 LP  0  0  0  0  0  0  0  0  0  0  0  0  # atno 17320 bound_to 7965
  145.5701  141.0395  143.2179 LP  0  0  0  0  0  0  0  0  0  0  0  0  # atno 17321 bound_to 7965
  140.6741  143.2298  151.5551 LP  0  0  0  0  0  0  0  0  0  0  0  0  # atno 17342 bound_to 10162
  139.5456  144.2529  152.1436 LP  0  0  0  0  0  0  0  0  0  0  0  0  # atno 17343 bound_to 10162
  157.7286  131.0630  150.5810 LP  0  0  0  0  0  0  0  0  0  0  0  0  # atno 17370 bound_to 10713
  156.5908  130.4328  149.5937 LP  0  0  0  0  0  0  0  0  0  0  0  0  # atno 17371 bound_to 10713
  139.9596  134.7476  156.0266 LP  0  0  0  0  0  0  0  0  0  0  0  0  # atno 17394 bound_to 11000
  141.1324  133.6583  156.3500 LP  0  0  0  0  0  0  0  0  0  0  0  0  # atno 17395 bound_to 11000

$$$$
