AV-unprocessed.smi:1473|AV-procd|sdf|5966|dock3
  -GOLD-   22720 6 53D 1   1.00000     0.00000
 Structure written by MMmdl.
 34 35  0  0  0  0  0  0  0  0  1 V2000
  146.3657  140.7979  152.6646 N   0  0  0  0  0  0  0  0  0  0  0  0
  146.8614  139.1596  152.5108 S   0  0  0  0  0  0  0  0  0  0  0  0
  146.0878  138.3374  153.4533 O   0  0  0  0  0  0  0  0  0  0  0  0
  146.9455  138.8200  151.0825 O   0  0  0  0  0  0  0  0  0  0  0  0
  148.4627  139.3147  153.1198 N   0  0  0  0  0  0  0  0  0  0  0  0
  148.7704  140.3405  154.1120 C   0  0  0  0  0  0  0  0  0  0  0  0
  150.0647  140.0545  154.8442 C   0  0  0  0  0  0  0  0  0  0  0  0
  150.8988  138.9969  154.4338 C   0  0  0  0  0  0  0  0  0  0  0  0
  152.0824  138.7628  155.1576 C   0  0  0  0  0  0  0  0  0  0  0  0
  152.4563  139.5024  156.2227 N   0  0  0  0  0  0  0  0  0  0  0  0
  151.6625  140.5267  156.6240 C   0  0  0  0  0  0  0  0  0  0  0  0
  152.0691  141.2911  157.7395 N   0  0  0  0  0  0  0  0  0  0  0  0
  151.4416  142.5956  157.9440 C   0  0  0  0  0  0  0  0  0  0  0  0
  152.2061  143.3969  159.0114 C   0  0  0  0  0  0  0  0  0  0  0  0
  152.2926  142.6356  160.2111 O   0  0  0  0  0  0  0  0  0  0  0  0
  153.0042  141.4182  160.0145 C   0  0  0  0  0  0  0  0  0  0  0  0
  152.2722  140.5461  158.9797 C   0  0  0  0  0  0  0  0  0  0  0  0
  150.4505  140.8288  155.9574 C   0  0  0  0  0  0  0  0  0  0  0  0
  146.9595  141.3244  153.3050 H   0  0  0  0  0  0  0  0  0  0  0  0
  145.3697  140.8841  152.8659 H   0  0  0  0  0  0  0  0  0  0  0  0
  149.2008  139.1295  152.4411 H   0  0  0  0  0  0  0  0  0  0  0  0
  148.8597  141.3065  153.6138 H   0  0  0  0  0  0  0  0  0  0  0  0
  147.9391  140.4212  154.8132 H   0  0  0  0  0  0  0  0  0  0  0  0
  150.6375  138.3770  153.5885 H   0  0  0  0  0  0  0  0  0  0  0  0
  152.7463  137.9593  154.8752 H   0  0  0  0  0  0  0  0  0  0  0  0
  151.4278  143.1597  157.0105 H   0  0  0  0  0  0  0  0  0  0  0  0
  150.4061  142.4529  158.2555 H   0  0  0  0  0  0  0  0  0  0  0  0
  153.2057  143.6582  158.6604 H   0  0  0  0  0  0  0  0  0  0  0  0
  151.6879  144.3329  159.2207 H   0  0  0  0  0  0  0  0  0  0  0  0
  154.0249  141.6295  159.6912 H   0  0  0  0  0  0  0  0  0  0  0  0
  153.0755  140.8907  160.9658 H   0  0  0  0  0  0  0  0  0  0  0  0
  151.3003  140.2413  159.3698 H   0  0  0  0  0  0  0  0  0  0  0  0
  152.8471  139.6358  158.8162 H   0  0  0  0  0  0  0  0  0  0  0  0
  149.8109  141.6294  156.2978 H   0  0  0  0  0  0  0  0  0  0  0  0
  1  2  1  0  0  0  0
  1 19  1  0  0  0  0
  1 20  1  0  0  0  0
  2  3  2  0  0  0  0
  2  4  2  0  0  0  0
  2  5  1  0  0  0  0
  5  6  1  0  0  0  0
  5 21  1  0  0  0  0
  6  7  1  0  0  0  0
  6 22  1  0  0  0  0
  6 23  1  0  0  0  0
  7 18  1  0  0  0  0
  7  8  2  0  0  0  0
  8  9  1  0  0  0  0
  8 24  1  0  0  0  0
  9 10  2  0  0  0  0
  9 25  1  0  0  0  0
 10 11  1  0  0  0  0
 11 12  1  0  0  0  0
 11 18  2  0  0  0  0
 12 17  1  0  0  0  0
 12 13  1  0  0  0  0
 13 14  1  0  0  0  0
 13 26  1  0  0  0  0
 13 27  1  0  0  0  0
 14 15  1  0  0  0  0
 14 28  1  0  0  0  0
 14 29  1  0  0  0  0
 15 16  1  0  0  0  0
 16 17  1  0  0  0  0
 16 30  1  0  0  0  0
 16 31  1  0  0  0  0
 17 32  1  0  0  0  0
 17 33  1  0  0  0  0
 18 34  1  0  0  0  0
M  END
> <s_m_source_file>
AV-unprocessed.smi

> <i_m_source_file_index>
1473

> <i_lp_mmshare_version>
43012

> <i_f3d_flags>
0

> <s_epik_input>
W05IMl1TKD1PKSg9TylbTkhdW0NIMl1jMVtjSF1bY0hdbmMoW2NIXTEpTjJbQ0gyXVtDSDJdT1tDSDJdW0NIMl0y

> <s_epik_cmdline>
J2VwaWtfcHl0aG9uJywgJy1waCcsICc3LjAnLCAnLXRuJywgJzgnLCAnLW1hJywgJzIwMCcsICctbWV0YWxfYmluZGluZycsICctaW1hZScsICc8aW5maWxlLm1hZT4nLCAnLW9tYWUnLCAnPG91dGZpbGUubWFlPic=

> <r_lp_tautomer_probability>
1

> <r_epik_Ionization_Penalty>
0.222057

> <r_epik_Ionization_Penalty_Charging>
0

> <r_epik_Ionization_Penalty_Neutral>
0.222057

> <r_epik_State_Penalty>
0.236233

> <r_epik_Charging_Adjusted_Penalty>
0.236233

> <i_epik_Tot_Q>
0

> <i_epik_Tot_abs_Q>
0

> <r_epik_Metal_State_Penalty>
0.788435

> <b_epik_Metal_Only>
0

> <s_lp_Force_Field>
OPLS_2005

> <r_lp_Energy>
17.6675

> <b_lp_Chiralities_Consistent>
1

> <s_lp_Variant>
AV-unprocessed.smi:1473-1

> <Gold.Version>
5.8.1

> <Gold.Id.Protein>
6NUR|6NUR_protein|mol2

> <Gold.PLP.Fitness>
44.6713

> <Gold.PLP.PLP>
-34.7438

> <Gold.PLP.part.hbond>
-3.9473

> <Gold.PLP.part.metal>
0.0000

> <Gold.PLP.part.buried>
-2.5355

> <Gold.PLP.part.nonpolar>
-28.6262

> <Gold.PLP.part.repulsive>
1.7541

> <Gold.PLP.ligand.clash>
0.0000

> <Gold.PLP.ligand.torsion>
1.0181

> <Gold.PLP.Chemscore.Hbond>
3.5440

> <Gold.PLP.Chemscore.CHOScore>
0.0000

> <Gold.PLP.Chemscore.Metal>
0.0000

> <Gold.Chemscore.Hbonds>
donor molecule, donor type, donor heavy atom, donor atom, acceptor molecule, acceptor atom, score
      L1  H     1    20       P1 10175  0.99
      L1  H     5    21       P1  7957  0.56
      P1  H  7954  7966       L1     4  0.91
      P1  H  7997  8009       L1    10  1.00

> <Gold.PLP.Chemscore.Internal.Correction>
1.3318

> <Gold.Rescore>
     Score         DG    S(hbond)    S(metal)    S(lipo)     H(rot)  DE(clash)    DE(int)     intcor
     19.69     -21.02       3.50        0.00      74.58       1.90       0.34       0.99       ----

> <Gold.Chemscore.Fitness>
19.6895

> <Gold.Chemscore.DG>
-21.0218

> <Gold.Chemscore.ZeroCoef>
-5.4800

> <Gold.Chemscore.Hbond>
3.4966

> <Gold.Chemscore.Metal>
0.0000

> <Gold.Chemscore.Lipo>
74.5764

> <Gold.Chemscore.Internal_Hbond>
0.0000

> <Gold.Chemscore.DEClash>
0.3382

> <Gold.Chemscore.DEInternal>
0.9940

> <Gold.Chemscore.Rot>
1.8993

> <Gold.Chemscore.Internal.Correction>
   9.000000E+99

> <Gold.Chemscore.Hbonds>
donor molecule, donor type, donor heavy atom, donor atom, acceptor molecule, acceptor atom, score
      L1  H     1    20       P1 10175  0.28
      L1  H     5    21       P1  7957  0.55
      P1  H  7954  7966       L1     4  0.87
      P1  H  7997  8009       L1    10  0.61

> <Gold.Chemscore.Hbond.Weighted>
-11.6785

> <Gold.Chemscore.Metal.Weighted>
-0.0000

> <Gold.Chemscore.Lipo.Weighted>
-8.7254

> <Gold.Chemscore.Internal_Hbond.Weighted>
0.0000

> <Gold.Chemscore.DEClash.Weighted>
0.3382

> <Gold.Chemscore.DEInternal.Weighted>
0.9940

> <Gold.Chemscore.Rot.Weighted>
4.8622

> <Gold.Chemscore.Internal.Correction.Weighted>
   9.000000E+99

> <Gold.Protein.RotatedTorsions>
[ 6907 6896 6895 6894 ] final   65.37 input  -60.11 | X-H torsion
[ 7974 7965 7964 7962 ] final -132.12 input  175.53 | X-H torsion
[ 8008 7997 7996 7995 ] final -159.94 input   59.86 | X-H torsion
[ 10167 10162 10161 10158 ] final   47.71 input  -65.29 | X-H torsion
[ 10718 10713 10712 10709 ] final  -42.12 input   66.30 | X-H torsion
[ 10763 10752 10751 10750 ] final  164.55 input  -60.55 | X-H torsion
[ 11005 11000 10999 10996 ] final -119.97 input  -57.11 | X-H torsion

> <Gold.Protein.ActiveResidues>
 VAL166  LYS551  ARG553  GLY616  TRP617  ASP618  TYR619  PRO620  LYS621  CYS622 
 ASP623  PHE694  ASN695  SER759  ASP760  ASP761  ALA762  ILE779  LEU786  VAL792 
 PHE793  MET794  SER795  GLU796  ALA797  LYS798  CYS799  TRP800  GLU811  SER814 

> <Gold.Protein.RotatedAtoms>
  152.4402  134.5605  159.9892 H   0  0  0  0  0  0  0  0  0  0  0  0  # atno 6907 bound_to 6896
  151.5705  133.3385  159.2996 H   0  0  0  0  0  0  0  0  0  0  0  0  # atno 6908 bound_to 6896
  150.8307  134.7593  159.6915 H   0  0  0  0  0  0  0  0  0  0  0  0  # atno 6909 bound_to 6896
  144.9315  140.7134  143.4903 H   0  0  0  0  0  0  0  0  0  0  0  0  # atno 7974 bound_to 7965
  155.7701  140.0851  157.2112 H   0  0  0  0  0  0  0  0  0  0  0  0  # atno 8008 bound_to 7997
  154.3997  140.1527  156.2989 H   0  0  0  0  0  0  0  0  0  0  0  0  # atno 8009 bound_to 7997
  155.8755  140.3423  155.5854 H   0  0  0  0  0  0  0  0  0  0  0  0  # atno 8010 bound_to 7997
  140.3008  144.2936  150.6219 H   0  0  0  0  0  0  0  0  0  0  0  0  # atno 10167 bound_to 10162
  156.2630  130.4199  149.8522 H   0  0  0  0  0  0  0  0  0  0  0  0  # atno 10718 bound_to 10713
  154.3106  135.2757  155.2567 H   0  0  0  0  0  0  0  0  0  0  0  0  # atno 10763 bound_to 10752
  154.4964  135.5820  153.6501 H   0  0  0  0  0  0  0  0  0  0  0  0  # atno 10764 bound_to 10752
  152.9888  135.6147  154.3284 H   0  0  0  0  0  0  0  0  0  0  0  0  # atno 10765 bound_to 10752
  141.0177  134.0170  157.3326 H   0  0  0  0  0  0  0  0  0  0  0  0  # atno 11005 bound_to 11000
  145.3134  139.1811  143.4626 LP  0  0  0  0  0  0  0  0  0  0  0  0  # atno 17320 bound_to 7965
  146.3249  140.3142  142.8629 LP  0  0  0  0  0  0  0  0  0  0  0  0  # atno 17321 bound_to 7965
  140.5653  143.2187  151.7695 LP  0  0  0  0  0  0  0  0  0  0  0  0  # atno 17342 bound_to 10162
  139.4915  144.4293  151.9891 LP  0  0  0  0  0  0  0  0  0  0  0  0  # atno 17343 bound_to 10162
  156.6030  130.8555  151.3436 LP  0  0  0  0  0  0  0  0  0  0  0  0  # atno 17370 bound_to 10713
  157.7257  130.9619  150.1626 LP  0  0  0  0  0  0  0  0  0  0  0  0  # atno 17371 bound_to 10713
  139.9127  135.0192  156.7757 LP  0  0  0  0  0  0  0  0  0  0  0  0  # atno 17394 bound_to 11000
  140.6626  133.9631  155.7813 LP  0  0  0  0  0  0  0  0  0  0  0  0  # atno 17395 bound_to 11000

$$$$
