AV-unprocessed.smi:2058|AV-procd|sdf|8345|dock3
  -GOLD-   2272011 13D 1   1.00000     0.00000
 Structure written by MMmdl.
 42 43  0  0  0  0  0  0  0  0  1 V2000
  147.4935  133.3722  155.1395 C   0  0  0  0  0  0  0  0  0  0  0  0
  148.6973  133.4583  154.1889 C   0  0  1  0  0  0  0  0  0  0  0  0
  148.3811  132.8883  152.7916 C   0  0  0  0  0  0  0  0  0  0  0  0
  148.1703  131.4941  152.8621 O   0  0  0  0  0  0  0  0  0  0  0  0
  149.1233  134.8515  154.0859 N   0  0  0  0  0  0  0  0  0  0  0  0
  149.5389  135.6155  155.1063 C   0  0  0  0  0  0  0  0  0  0  0  0
  149.6194  135.2138  156.2667 O   0  0  0  0  0  0  0  0  0  0  0  0
  149.8691  136.8480  154.6845 N   0  0  0  0  0  0  0  0  0  0  0  0
  150.3630  137.9400  155.4474 C   0  0  0  0  0  0  0  0  0  0  0  0
  151.2850  138.8111  154.8360 C   0  0  0  0  0  0  0  0  0  0  0  0
  151.7829  139.9079  155.5638 C   0  0  0  0  0  0  0  0  0  0  0  0
  151.3372  140.1146  156.8901 C   0  0  0  0  0  0  0  0  0  0  0  0
  151.8312  141.2034  157.6402 N   0  0  0  0  0  0  0  0  0  0  0  0
  152.4486  140.8472  158.9192 C   0  0  0  0  0  0  0  0  0  0  0  0
  153.2986  142.0058  159.4675 C   0  0  0  0  0  0  0  0  0  0  0  0
  152.4800  143.3027  159.5482 C   0  0  0  0  0  0  0  0  0  0  0  0
  151.8657  143.6226  158.1776 C   0  0  0  0  0  0  0  0  0  0  0  0
  151.0396  142.4363  157.6515 C   0  0  0  0  0  0  0  0  0  0  0  0
  150.4317  139.2896  157.4705 N   0  0  0  0  0  0  0  0  0  0  0  0
  149.9591  138.2366  156.7708 C   0  0  0  0  0  0  0  0  0  0  0  0
  147.1742  132.3392  155.2797 H   0  0  0  0  0  0  0  0  0  0  0  0
  146.6419  133.9339  154.7546 H   0  0  0  0  0  0  0  0  0  0  0  0
  147.7405  133.7731  156.1231 H   0  0  0  0  0  0  0  0  0  0  0  0
  149.5155  132.8839  154.6285 H   0  0  0  0  0  0  0  0  0  0  0  0
  147.5039  133.3706  152.3592 H   0  0  0  0  0  0  0  0  0  0  0  0
  149.2119  133.0601  152.1062 H   0  0  0  0  0  0  0  0  0  0  0  0
  148.1702  131.1458  151.9837 H   0  0  0  0  0  0  0  0  0  0  0  0
  149.0953  135.2650  153.1656 H   0  0  0  0  0  0  0  0  0  0  0  0
  149.8210  137.0033  153.6882 H   0  0  0  0  0  0  0  0  0  0  0  0
  151.6129  138.6421  153.8205 H   0  0  0  0  0  0  0  0  0  0  0  0
  152.4856  140.5821  155.0972 H   0  0  0  0  0  0  0  0  0  0  0  0
  151.6580  140.5995  159.6288 H   0  0  0  0  0  0  0  0  0  0  0  0
  153.0754  139.9607  158.8311 H   0  0  0  0  0  0  0  0  0  0  0  0
  153.6893  141.7478  160.4521 H   0  0  0  0  0  0  0  0  0  0  0  0
  154.1639  142.1599  158.8213 H   0  0  0  0  0  0  0  0  0  0  0  0
  151.6883  143.1931  160.2903 H   0  0  0  0  0  0  0  0  0  0  0  0
  153.1110  144.1272  159.8814 H   0  0  0  0  0  0  0  0  0  0  0  0
  151.2388  144.5118  158.2457 H   0  0  0  0  0  0  0  0  0  0  0  0
  152.6598  143.8570  157.4675 H   0  0  0  0  0  0  0  0  0  0  0  0
  150.6870  142.6661  156.6452 H   0  0  0  0  0  0  0  0  0  0  0  0
  150.1578  142.2896  158.2771 H   0  0  0  0  0  0  0  0  0  0  0  0
  149.2265  137.6418  157.2934 H   0  0  0  0  0  0  0  0  0  0  0  0
  1  2  1  0  0  0  0
  1 21  1  0  0  0  0
  1 22  1  0  0  0  0
  1 23  1  0  0  0  0
  2  3  1  0  0  0  0
  2  5  1  0  0  0  0
  2 24  1  0  0  0  0
  3  4  1  0  0  0  0
  3 25  1  0  0  0  0
  3 26  1  0  0  0  0
  4 27  1  0  0  0  0
  5  6  1  0  0  0  0
  5 28  1  0  0  0  0
  6  7  2  0  0  0  0
  6  8  1  0  0  0  0
  8  9  1  0  0  0  0
  8 29  1  0  0  0  0
  9 20  1  0  0  0  0
  9 10  2  0  0  0  0
 10 11  1  0  0  0  0
 10 30  1  0  0  0  0
 11 12  2  0  0  0  0
 11 31  1  0  0  0  0
 12 13  1  0  0  0  0
 12 19  1  0  0  0  0
 13 18  1  0  0  0  0
 13 14  1  0  0  0  0
 14 15  1  0  0  0  0
 14 32  1  0  0  0  0
 14 33  1  0  0  0  0
 15 16  1  0  0  0  0
 15 34  1  0  0  0  0
 15 35  1  0  0  0  0
 16 17  1  0  0  0  0
 16 36  1  0  0  0  0
 16 37  1  0  0  0  0
 17 18  1  0  0  0  0
 17 38  1  0  0  0  0
 17 39  1  0  0  0  0
 18 40  1  0  0  0  0
 18 41  1  0  0  0  0
 19 20  2  0  0  0  0
 20 42  1  0  0  0  0
M  END
> <s_m_source_file>
AV-unprocessed.smi

> <i_m_source_file_index>
2058

> <i_lp_mmshare_version>
43012

> <i_f3d_flags>
0

> <s_epik_input>
W09IXVtDSDJdW0NAQEhdKFtDSDNdKVtOSF1DKD1PKVtOSF1jMVtjSF1bY0hdYyhuW2NIXTEpTjJbQ0gyXVtDSDJdW0NIMl1bQ0gyXVtDSDJdMg==

> <s_epik_cmdline>
J2VwaWtfcHl0aG9uJywgJy1waCcsICc3LjAnLCAnLXRuJywgJzgnLCAnLW1hJywgJzIwMCcsICctbWV0YWxfYmluZGluZycsICctaW1hZScsICc8aW5maWxlLm1hZT4nLCAnLW9tYWUnLCAnPG91dGZpbGUubWFlPic=

> <r_lp_tautomer_probability>
1

> <r_epik_Ionization_Penalty>
0.104828

> <r_epik_Ionization_Penalty_Charging>
0

> <r_epik_Ionization_Penalty_Neutral>
0.104828

> <r_epik_State_Penalty>
0.0887547

> <r_epik_Charging_Adjusted_Penalty>
0.0887547

> <i_epik_Tot_Q>
0

> <i_epik_Tot_abs_Q>
0

> <r_epik_Metal_State_Penalty>
0.0759464

> <b_epik_Metal_Only>
0

> <s_lp_Force_Field>
OPLS_2005

> <r_lp_Energy>
18.2312

> <b_lp_Chiralities_Consistent>
1

> <s_lp_Variant>
AV-unprocessed.smi:2058-2

> <Gold.Version>
5.8.1

> <Gold.Id.Protein>
6NUR|6NUR_protein|mol2

> <Gold.PLP.Fitness>
42.1391

> <Gold.PLP.PLP>
-35.0053

> <Gold.PLP.part.hbond>
-3.0000

> <Gold.PLP.part.metal>
0.0000

> <Gold.PLP.part.buried>
-3.2352

> <Gold.PLP.part.nonpolar>
-28.9599

> <Gold.PLP.part.repulsive>
0.0627

> <Gold.PLP.ligand.clash>
0.0000

> <Gold.PLP.ligand.torsion>
0.6517

> <Gold.PLP.Chemscore.Hbond>
2.6721

> <Gold.PLP.Chemscore.CHOScore>
0.0000

> <Gold.PLP.Chemscore.Metal>
0.0000

> <Gold.Chemscore.Hbonds>
donor molecule, donor type, donor heavy atom, donor atom, acceptor molecule, acceptor atom, score
      L1  H     4    27       P1 10747  1.00
      L1  H     5    28       P1  7948  1.00
      L1  H     8    29       P1  7948  0.66

> <Gold.PLP.Chemscore.Internal.Correction>
0.4208

> <Gold.Rescore>
     Score         DG    S(hbond)    S(metal)    S(lipo)     H(rot)  DE(clash)    DE(int)     intcor
     16.85     -17.42       2.27        0.00      82.09       2.05       0.00       0.56       ----

> <Gold.Chemscore.Fitness>
16.8486

> <Gold.Chemscore.DG>
-17.4158

> <Gold.Chemscore.ZeroCoef>
-5.4800

> <Gold.Chemscore.Hbond>
2.2657

> <Gold.Chemscore.Metal>
0.0000

> <Gold.Chemscore.Lipo>
82.0893

> <Gold.Chemscore.Internal_Hbond>
0.0000

> <Gold.Chemscore.DEClash>
0.0024

> <Gold.Chemscore.DEInternal>
0.5648

> <Gold.Chemscore.Rot>
2.0453

> <Gold.Chemscore.Internal.Correction>
   9.000000E+99

> <Gold.Chemscore.Hbonds>
donor molecule, donor type, donor heavy atom, donor atom, acceptor molecule, acceptor atom, score
      L1  H     4    27       P1 10747  0.96
      L1  H     5    28       P1  7948  0.25
      L1  H     8    29       P1  7948  0.36

> <Gold.Chemscore.Hbond.Weighted>
-7.5674

> <Gold.Chemscore.Metal.Weighted>
-0.0000

> <Gold.Chemscore.Lipo.Weighted>
-9.6044

> <Gold.Chemscore.Internal_Hbond.Weighted>
0.0000

> <Gold.Chemscore.DEClash.Weighted>
0.0024

> <Gold.Chemscore.DEInternal.Weighted>
0.5648

> <Gold.Chemscore.Rot.Weighted>
5.2360

> <Gold.Chemscore.Internal.Correction.Weighted>
   9.000000E+99

> <Gold.Protein.RotatedTorsions>
[ 6907 6896 6895 6894 ] final   -0.24 input  -60.11 | X-H torsion
[ 7974 7965 7964 7962 ] final   75.15 input  175.53 | X-H torsion
[ 8008 7997 7996 7995 ] final   87.70 input   59.86 | X-H torsion
[ 10167 10162 10161 10158 ] final -161.31 input  -65.29 | X-H torsion
[ 10718 10713 10712 10709 ] final   96.53 input   66.30 | X-H torsion
[ 10763 10752 10751 10750 ] final -114.00 input  -60.55 | X-H torsion
[ 11005 11000 10999 10996 ] final  -62.24 input  -57.11 | X-H torsion

> <Gold.Protein.ActiveResidues>
 VAL166  LYS551  ARG553  GLY616  TRP617  ASP618  TYR619  PRO620  LYS621  CYS622 
 ASP623  PHE694  ASN695  SER759  ASP760  ASP761  ALA762  ILE779  LEU786  VAL792 
 PHE793  MET794  SER795  GLU796  ALA797  LYS798  CYS799  TRP800  GLU811  SER814 

> <Gold.Protein.RotatedAtoms>
  151.5655  135.1064  159.9982 H   0  0  0  0  0  0  0  0  0  0  0  0  # atno 6907 bound_to 6896
  152.4426  133.7472  159.6684 H   0  0  0  0  0  0  0  0  0  0  0  0  # atno 6908 bound_to 6896
  150.8334  133.7984  159.3113 H   0  0  0  0  0  0  0  0  0  0  0  0  # atno 6909 bound_to 6896
  145.7193  139.2642  143.1605 H   0  0  0  0  0  0  0  0  0  0  0  0  # atno 7974 bound_to 7965
  155.9786  140.3379  155.6642 H   0  0  0  0  0  0  0  0  0  0  0  0  # atno 8008 bound_to 7997
  155.6579  140.0713  157.2582 H   0  0  0  0  0  0  0  0  0  0  0  0  # atno 8009 bound_to 7997
  154.4185  140.1714  156.1732 H   0  0  0  0  0  0  0  0  0  0  0  0  # atno 8010 bound_to 7997
  139.6474  144.0146  152.2137 H   0  0  0  0  0  0  0  0  0  0  0  0  # atno 10167 bound_to 10162
  157.6925  131.0581  150.4505 H   0  0  0  0  0  0  0  0  0  0  0  0  # atno 10718 bound_to 10713
  154.8421  135.4433  154.1438 H   0  0  0  0  0  0  0  0  0  0  0  0  # atno 10763 bound_to 10752
  153.2616  135.6936  153.7578 H   0  0  0  0  0  0  0  0  0  0  0  0  # atno 10764 bound_to 10752
  153.6853  135.3396  155.3164 H   0  0  0  0  0  0  0  0  0  0  0  0  # atno 10765 bound_to 10752
  141.1353  133.6638  156.5498 H   0  0  0  0  0  0  0  0  0  0  0  0  # atno 11005 bound_to 11000
  146.0640  140.7940  142.9720 LP  0  0  0  0  0  0  0  0  0  0  0  0  # atno 17320 bound_to 7965
  144.6921  140.3241  143.7227 LP  0  0  0  0  0  0  0  0  0  0  0  0  # atno 17321 bound_to 7965
  139.9851  144.6401  150.7865 LP  0  0  0  0  0  0  0  0  0  0  0  0  # atno 17342 bound_to 10162
  140.7521  143.2985  151.3142 LP  0  0  0  0  0  0  0  0  0  0  0  0  # atno 17343 bound_to 10162
  156.4856  130.4083  149.6436 LP  0  0  0  0  0  0  0  0  0  0  0  0  # atno 17370 bound_to 10713
  156.3465  130.7409  151.2363 LP  0  0  0  0  0  0  0  0  0  0  0  0  # atno 17371 bound_to 10713
  140.4073  134.7303  157.4815 LP  0  0  0  0  0  0  0  0  0  0  0  0  # atno 17394 bound_to 11000
  140.0453  134.6209  155.8929 LP  0  0  0  0  0  0  0  0  0  0  0  0  # atno 17395 bound_to 11000

$$$$
