AV-unprocessed.smi:951|AV-procd|sdf|4251|dock8
  -GOLD-   22720 2153D 1   1.00000     0.00000
 Structure written by MMmdl.
 51 53  0  0  0  0  0  0  0  0  1 V2000
  149.5789  141.0441  153.8166 O   0  0  0  0  0  0  0  0  0  0  0  0
  148.9695  141.0467  154.8858 C   0  0  0  0  0  0  0  0  0  0  0  0
  149.5955  141.0923  156.0733 N   0  0  0  0  0  0  0  0  0  0  0  0
  151.0378  141.1330  156.2574 C   0  0  0  0  0  0  0  0  0  0  0  0
  151.3898  140.9440  157.7393 C   0  0  0  0  0  0  0  0  0  0  0  0
  151.8258  142.2397  158.3964 C   0  0  0  0  0  0  0  0  0  0  0  0
  152.4596  142.2315  159.6575 C   0  0  0  0  0  0  0  0  0  0  0  0
  152.8514  143.4622  160.2192 C   0  0  0  0  0  0  0  0  0  0  0  0
  152.5962  144.6469  159.5021 C   0  0  0  0  0  0  0  0  0  0  0  0
  151.9584  144.5481  158.2493 C   0  0  0  0  0  0  0  0  0  0  0  0
  151.5781  143.3734  157.7021 N   0  0  0  0  0  0  0  0  0  0  0  0
  147.4244  140.9809  154.8756 C   0  0  2  0  0  0  0  0  0  0  0  0
  146.8861  141.1399  153.4457 C   0  0  0  0  0  0  0  0  0  0  0  0
  146.6486  142.6345  153.3018 C   0  0  0  0  0  0  0  0  0  0  0  0
  146.2315  143.0765  154.7051 C   0  0  0  0  0  0  0  0  0  0  0  0
  146.7745  142.0712  155.6249 N   0  0  0  0  0  0  0  0  0  0  0  0
  146.6869  142.1038  156.9767 C   0  0  0  0  0  0  0  0  0  0  0  0
  147.1267  141.1842  157.6672 O   0  0  0  0  0  0  0  0  0  0  0  0
  146.0440  143.3322  157.6635 C   0  0  0  0  0  0  0  0  0  0  0  0
  146.2056  143.2682  159.2009 C   0  0  0  0  0  0  0  0  0  0  0  0
  145.2447  142.2674  159.8655 C   0  0  0  0  0  0  0  0  0  0  0  0
  143.7865  142.5950  159.5134 C   0  0  0  0  0  0  0  0  0  0  0  0
  143.5709  142.6037  157.9931 C   0  0  0  0  0  0  0  0  0  0  0  0
  144.5572  143.5539  157.2817 C   0  0  0  0  0  0  0  0  0  0  0  0
  149.0276  141.0882  156.9082 H   0  0  0  0  0  0  0  0  0  0  0  0
  151.5047  140.3486  155.6594 H   0  0  0  0  0  0  0  0  0  0  0  0
  151.4189  142.0891  155.8952 H   0  0  0  0  0  0  0  0  0  0  0  0
  150.5299  140.5460  158.2805 H   0  0  0  0  0  0  0  0  0  0  0  0
  152.1850  140.2041  157.8423 H   0  0  0  0  0  0  0  0  0  0  0  0
  152.6443  141.3054  160.1819 H   0  0  0  0  0  0  0  0  0  0  0  0
  153.3399  143.4970  161.1817 H   0  0  0  0  0  0  0  0  0  0  0  0
  152.8829  145.6084  159.9015 H   0  0  0  0  0  0  0  0  0  0  0  0
  151.7479  145.4358  157.6712 H   0  0  0  0  0  0  0  0  0  0  0  0
  147.1222  140.0096  155.2717 H   0  0  0  0  0  0  0  0  0  0  0  0
  147.5493  140.7460  152.6739 H   0  0  0  0  0  0  0  0  0  0  0  0
  145.9362  140.6111  153.3554 H   0  0  0  0  0  0  0  0  0  0  0  0
  147.5812  143.1272  153.0232 H   0  0  0  0  0  0  0  0  0  0  0  0
  145.9043  142.8762  152.5426 H   0  0  0  0  0  0  0  0  0  0  0  0
  146.5971  144.0799  154.9253 H   0  0  0  0  0  0  0  0  0  0  0  0
  145.1435  143.0819  154.7826 H   0  0  0  0  0  0  0  0  0  0  0  0
  146.5662  144.2206  157.3116 H   0  0  0  0  0  0  0  0  0  0  0  0
  147.2318  143.0132  159.4683 H   0  0  0  0  0  0  0  0  0  0  0  0
  146.0296  144.2607  159.6176 H   0  0  0  0  0  0  0  0  0  0  0  0
  145.4830  141.2504  159.5513 H   0  0  0  0  0  0  0  0  0  0  0  0
  145.3775  142.2921  160.9473 H   0  0  0  0  0  0  0  0  0  0  0  0
  143.1186  141.8698  159.9791 H   0  0  0  0  0  0  0  0  0  0  0  0
  143.5213  143.5694  159.9258 H   0  0  0  0  0  0  0  0  0  0  0  0
  143.6690  141.5898  157.6071 H   0  0  0  0  0  0  0  0  0  0  0  0
  142.5475  142.9070  157.7703 H   0  0  0  0  0  0  0  0  0  0  0  0
  144.2869  144.5803  157.5326 H   0  0  0  0  0  0  0  0  0  0  0  0
  144.4288  143.4730  156.2014 H   0  0  0  0  0  0  0  0  0  0  0  0
  1  2  2  0  0  0  0
  2  3  1  0  0  0  0
  2 12  1  0  0  0  0
  3  4  1  0  0  0  0
  3 25  1  0  0  0  0
  4  5  1  0  0  0  0
  4 26  1  0  0  0  0
  4 27  1  0  0  0  0
  5  6  1  0  0  0  0
  5 28  1  0  0  0  0
  5 29  1  0  0  0  0
  6 11  1  0  0  0  0
  6  7  2  0  0  0  0
  7  8  1  0  0  0  0
  7 30  1  0  0  0  0
  8  9  2  0  0  0  0
  8 31  1  0  0  0  0
  9 10  1  0  0  0  0
  9 32  1  0  0  0  0
 10 11  2  0  0  0  0
 10 33  1  0  0  0  0
 12 16  1  0  0  0  0
 12 13  1  0  0  0  0
 12 34  1  0  0  0  0
 13 14  1  0  0  0  0
 13 35  1  0  0  0  0
 13 36  1  0  0  0  0
 14 15  1  0  0  0  0
 14 37  1  0  0  0  0
 14 38  1  0  0  0  0
 15 16  1  0  0  0  0
 15 39  1  0  0  0  0
 15 40  1  0  0  0  0
 16 17  1  0  0  0  0
 17 18  2  0  0  0  0
 17 19  1  0  0  0  0
 19 24  1  0  0  0  0
 19 20  1  0  0  0  0
 19 41  1  0  0  0  0
 20 21  1  0  0  0  0
 20 42  1  0  0  0  0
 20 43  1  0  0  0  0
 21 22  1  0  0  0  0
 21 44  1  0  0  0  0
 21 45  1  0  0  0  0
 22 23  1  0  0  0  0
 22 46  1  0  0  0  0
 22 47  1  0  0  0  0
 23 24  1  0  0  0  0
 23 48  1  0  0  0  0
 23 49  1  0  0  0  0
 24 50  1  0  0  0  0
 24 51  1  0  0  0  0
M  END
> <s_m_source_file>
AV-unprocessed.smi

> <i_m_source_file_index>
951

> <i_lp_mmshare_version>
43012

> <i_f3d_flags>
0

> <s_epik_input>
bjFbY0hdW2NIXVtjSF1bY0hdYzFbQ0gyXVtDSDJdW05IXUMoPU8pW0NAQEhdMltDSDJdW0NIMl1bQ0gyXU4yQyg9TylbQ0hdM1tDSDJdW0NIMl1bQ0gyXVtDSDJdW0NIMl0z

> <s_epik_cmdline>
J2VwaWtfcHl0aG9uJywgJy1waCcsICc3LjAnLCAnLXRuJywgJzgnLCAnLW1hJywgJzIwMCcsICctbWV0YWxfYmluZGluZycsICctaW1hZScsICc8aW5maWxlLm1hZT4nLCAnLW9tYWUnLCAnPG91dGZpbGUubWFlPic=

> <r_epik_Ionization_Penalty>
0.0265505

> <r_epik_Ionization_Penalty_Charging>
0

> <r_epik_Ionization_Penalty_Neutral>
0.0265505

> <r_epik_State_Penalty>
0.02168

> <r_epik_Charging_Adjusted_Penalty>
0.02168

> <i_epik_Tot_Q>
0

> <i_epik_Tot_abs_Q>
0

> <r_epik_Metal_State_Penalty>
0.020746

> <b_epik_Metal_Only>
0

> <s_lp_Force_Field>
OPLS_2005

> <r_lp_Energy>
18.972

> <b_lp_Chiralities_Consistent>
1

> <s_lp_Variant>
AV-unprocessed.smi:951-1

> <Gold.Version>
5.8.1

> <Gold.Id.Protein>
6NUR|6NUR_protein|mol2

> <Gold.PLP.Fitness>
42.5430

> <Gold.PLP.PLP>
-40.1859

> <Gold.PLP.part.hbond>
-2.0000

> <Gold.PLP.part.metal>
0.0000

> <Gold.PLP.part.buried>
-8.2226

> <Gold.PLP.part.nonpolar>
-32.5458

> <Gold.PLP.part.repulsive>
2.1521

> <Gold.PLP.ligand.clash>
0.0000

> <Gold.PLP.ligand.torsion>
0.6708

> <Gold.PLP.Chemscore.Hbond>
1.2123

> <Gold.PLP.Chemscore.CHOScore>
0.0000

> <Gold.PLP.Chemscore.Metal>
0.0000

> <Gold.Chemscore.Hbonds>
donor molecule, donor type, donor heavy atom, donor atom, acceptor molecule, acceptor atom, score
      P1  H  7989  7998       L1     1  0.33
      P1  H  8011  8017       L1     1  0.93

> <Gold.PLP.Chemscore.Internal.Correction>
0.0618

> <Gold.Rescore>
     Score         DG    S(hbond)    S(metal)    S(lipo)     H(rot)  DE(clash)    DE(int)     intcor
     12.70     -18.05       1.21        0.00     106.68       1.55       2.88       2.48       ----

> <Gold.Chemscore.Fitness>
12.6971

> <Gold.Chemscore.DG>
-18.0494

> <Gold.Chemscore.ZeroCoef>
-5.4800

> <Gold.Chemscore.Hbond>
1.2147

> <Gold.Chemscore.Metal>
0.0000

> <Gold.Chemscore.Lipo>
106.6813

> <Gold.Chemscore.Internal_Hbond>
0.0000

> <Gold.Chemscore.DEClash>
2.8752

> <Gold.Chemscore.DEInternal>
2.4771

> <Gold.Chemscore.Rot>
1.5506

> <Gold.Chemscore.Internal.Correction>
   9.000000E+99

> <Gold.Chemscore.Hbonds>
donor molecule, donor type, donor heavy atom, donor atom, acceptor molecule, acceptor atom, score
      P1  H  7989  7998       L1     1  0.32
      P1  H  8011  8017       L1     1  0.84

> <Gold.Chemscore.Hbond.Weighted>
-4.0571

> <Gold.Chemscore.Metal.Weighted>
-0.0000

> <Gold.Chemscore.Lipo.Weighted>
-12.4817

> <Gold.Chemscore.Internal_Hbond.Weighted>
0.0000

> <Gold.Chemscore.DEClash.Weighted>
2.8752

> <Gold.Chemscore.DEInternal.Weighted>
2.4771

> <Gold.Chemscore.Rot.Weighted>
3.9695

> <Gold.Chemscore.Internal.Correction.Weighted>
   9.000000E+99

> <Gold.Protein.RotatedTorsions>
[ 6907 6896 6895 6894 ] final   78.17 input  -60.11 | X-H torsion
[ 7974 7965 7964 7962 ] final  163.71 input  175.53 | X-H torsion
[ 8008 7997 7996 7995 ] final  -28.64 input   59.86 | X-H torsion
[ 10167 10162 10161 10158 ] final  -30.84 input  -65.29 | X-H torsion
[ 10718 10713 10712 10709 ] final -161.18 input   66.30 | X-H torsion
[ 10763 10752 10751 10750 ] final  131.02 input  -60.55 | X-H torsion
[ 11005 11000 10999 10996 ] final  -66.56 input  -57.11 | X-H torsion

> <Gold.Protein.ActiveResidues>
 VAL166  LYS551  ARG553  GLY616  TRP617  ASP618  TYR619  PRO620  LYS621  CYS622 
 ASP623  PHE694  ASN695  SER759  ASP760  ASP761  ALA762  ILE779  LEU786  VAL792 
 PHE793  MET794  SER795  GLU796  ALA797  LYS798  CYS799  TRP800  GLU811  SER814 

> <Gold.Protein.RotatedAtoms>
  152.5148  134.3705  159.9316 H   0  0  0  0  0  0  0  0  0  0  0  0  # atno 6907 bound_to 6896
  151.3659  133.3866  159.2702 H   0  0  0  0  0  0  0  0  0  0  0  0  # atno 6908 bound_to 6896
  150.9615  134.9022  159.7792 H   0  0  0  0  0  0  0  0  0  0  0  0  # atno 6909 bound_to 6896
  144.7578  139.8221  143.6344 H   0  0  0  0  0  0  0  0  0  0  0  0  # atno 7974 bound_to 7965
  154.4323  140.1840  156.1122 H   0  0  0  0  0  0  0  0  0  0  0  0  # atno 8008 bound_to 7997
  156.0209  140.3341  155.7012 H   0  0  0  0  0  0  0  0  0  0  0  0  # atno 8009 bound_to 7997
  155.5977  140.0637  157.2732 H   0  0  0  0  0  0  0  0  0  0  0  0  # atno 8010 bound_to 7997
  140.7244  143.3817  151.1589 H   0  0  0  0  0  0  0  0  0  0  0  0  # atno 10167 bound_to 10162
  156.5925  130.8776  151.2893 H   0  0  0  0  0  0  0  0  0  0  0  0  # atno 10718 bound_to 10713
  153.7675  135.3187  155.3347 H   0  0  0  0  0  0  0  0  0  0  0  0  # atno 10763 bound_to 10752
  154.8208  135.4604  154.0777 H   0  0  0  0  0  0  0  0  0  0  0  0  # atno 10764 bound_to 10752
  153.2026  135.6924  153.8296 H   0  0  0  0  0  0  0  0  0  0  0  0  # atno 10765 bound_to 10752
  141.1485  133.6701  156.6157 H   0  0  0  0  0  0  0  0  0  0  0  0  # atno 11005 bound_to 11000
  146.1607  139.4720  142.9990 LP  0  0  0  0  0  0  0  0  0  0  0  0  # atno 17320 bound_to 7965
  145.6722  141.0213  143.1652 LP  0  0  0  0  0  0  0  0  0  0  0  0  # atno 17321 bound_to 7965
  139.7407  143.8929  152.3049 LP  0  0  0  0  0  0  0  0  0  0  0  0  # atno 17342 bound_to 10162
  139.8749  144.7048  150.8944 LP  0  0  0  0  0  0  0  0  0  0  0  0  # atno 17343 bound_to 10162
  157.7300  130.9679  150.1812 LP  0  0  0  0  0  0  0  0  0  0  0  0  # atno 17370 bound_to 10713
  156.2537  130.3703  149.8204 LP  0  0  0  0  0  0  0  0  0  0  0  0  # atno 17371 bound_to 10713
  140.3579  134.7712  157.4513 LP  0  0  0  0  0  0  0  0  0  0  0  0  # atno 17394 bound_to 11000
  140.0808  134.5733  155.8542 LP  0  0  0  0  0  0  0  0  0  0  0  0  # atno 17395 bound_to 11000

$$$$
