AV-unprocessed.smi:1499|AV-procd|sdf|6062|dock7
  -GOLD-   22720 6183D 1   1.00000     0.00000
 Structure written by MMmdl.
 40 41  0  0  0  0  0  0  0  0  1 V2000
  150.3835  141.1391  157.6581 C   0  0  0  0  0  0  0  0  0  0  0  0
  150.6833  141.5738  156.2154 C   0  0  0  0  0  0  0  0  0  0  0  0
  151.0792  140.4498  155.3682 N   0  0  0  0  0  0  0  0  0  0  0  0
  152.2138  139.7598  155.9906 C   0  0  0  0  0  0  0  0  0  0  0  0
  152.6671  138.5739  155.1166 C   0  0  0  0  0  0  0  0  0  0  0  0
  151.5382  137.6448  154.9608 N   0  0  0  0  0  0  0  0  0  0  0  0
  151.4094  136.4227  155.5358 C   0  0  0  0  0  0  0  0  0  0  0  0
  152.0115  136.1041  156.5619 O   0  0  0  0  0  0  0  0  0  0  0  0
  150.5187  135.6178  154.9252 N   0  0  0  0  0  0  0  0  0  0  0  0
  150.1728  134.2859  155.2678 C   0  0  0  0  0  0  0  0  0  0  0  0
  150.4269  133.6831  156.5272 C   0  0  0  0  0  0  0  0  0  0  0  0
  149.9904  132.4331  156.5578 N   0  0  0  0  0  0  0  0  0  0  0  0
  149.4532  132.2181  155.3305 N   0  0  0  0  0  0  0  0  0  0  0  0
  148.8677  130.9270  155.0172 C   0  0  0  0  0  0  0  0  0  0  0  0
  147.4868  130.7789  155.6580 C   0  0  0  0  0  0  0  0  0  0  0  0
  146.8933  129.5866  155.5582 N   0  0  0  0  0  0  0  0  0  0  0  0
  146.9636  131.7288  156.2368 O   0  0  0  0  0  0  0  0  0  0  0  0
  149.5474  133.3307  154.5174 C   0  0  0  0  0  0  0  0  0  0  0  0
  150.4222  138.3253  154.2973 C   0  0  0  0  0  0  0  0  0  0  0  0
  149.9676  139.5106  155.1713 C   0  0  0  0  0  0  0  0  0  0  0  0
  149.9679  141.9712  158.2265 H   0  0  0  0  0  0  0  0  0  0  0  0
  151.2792  140.8087  158.1837 H   0  0  0  0  0  0  0  0  0  0  0  0
  149.6555  140.3275  157.6833 H   0  0  0  0  0  0  0  0  0  0  0  0
  149.7741  142.0172  155.8071 H   0  0  0  0  0  0  0  0  0  0  0  0
  151.4464  142.3534  156.1980 H   0  0  0  0  0  0  0  0  0  0  0  0
  153.0433  140.4578  156.1110 H   0  0  0  0  0  0  0  0  0  0  0  0
  151.9406  139.4101  156.9877 H   0  0  0  0  0  0  0  0  0  0  0  0
  152.9796  138.9289  154.1332 H   0  0  0  0  0  0  0  0  0  0  0  0
  153.5545  138.1215  155.5586 H   0  0  0  0  0  0  0  0  0  0  0  0
  150.0502  135.9992  154.1163 H   0  0  0  0  0  0  0  0  0  0  0  0
  150.9038  134.1010  157.4018 H   0  0  0  0  0  0  0  0  0  0  0  0
  148.7842  130.8349  153.9333 H   0  0  0  0  0  0  0  0  0  0  0  0
  149.5320  130.1300  155.3558 H   0  0  0  0  0  0  0  0  0  0  0  0
  145.9778  129.4444  155.9606 H   0  0  0  0  0  0  0  0  0  0  0  0
  147.3600  128.8333  155.0745 H   0  0  0  0  0  0  0  0  0  0  0  0
  149.1660  133.3341  153.5070 H   0  0  0  0  0  0  0  0  0  0  0  0
  150.7439  138.6790  153.3163 H   0  0  0  0  0  0  0  0  0  0  0  0
  149.5780  137.6609  154.1083 H   0  0  0  0  0  0  0  0  0  0  0  0
  149.6036  139.1501  156.1348 H   0  0  0  0  0  0  0  0  0  0  0  0
  149.1340  140.0099  154.6788 H   0  0  0  0  0  0  0  0  0  0  0  0
  1  2  1  0  0  0  0
  1 21  1  0  0  0  0
  1 22  1  0  0  0  0
  1 23  1  0  0  0  0
  2  3  1  0  0  0  0
  2 24  1  0  0  0  0
  2 25  1  0  0  0  0
  3 20  1  0  0  0  0
  3  4  1  0  0  0  0
  4  5  1  0  0  0  0
  4 26  1  0  0  0  0
  4 27  1  0  0  0  0
  5  6  1  0  0  0  0
  5 28  1  0  0  0  0
  5 29  1  0  0  0  0
  6  7  1  0  0  0  0
  6 19  1  0  0  0  0
  7  8  2  0  0  0  0
  7  9  1  0  0  0  0
  9 10  1  0  0  0  0
  9 30  1  0  0  0  0
 10 18  2  0  0  0  0
 10 11  1  0  0  0  0
 11 12  2  0  0  0  0
 11 31  1  0  0  0  0
 12 13  1  0  0  0  0
 13 14  1  0  0  0  0
 13 18  1  0  0  0  0
 14 15  1  0  0  0  0
 14 32  1  0  0  0  0
 14 33  1  0  0  0  0
 15 16  1  0  0  0  0
 15 17  2  0  0  0  0
 16 34  1  0  0  0  0
 16 35  1  0  0  0  0
 18 36  1  0  0  0  0
 19 20  1  0  0  0  0
 19 37  1  0  0  0  0
 19 38  1  0  0  0  0
 20 39  1  0  0  0  0
 20 40  1  0  0  0  0
M  END
> <s_m_source_file>
AV-unprocessed.smi

> <i_m_source_file_index>
1499

> <i_lp_mmshare_version>
43012

> <i_f3d_flags>
0

> <s_epik_input>
W0NIM11bQ0gyXU4xW0NIMl1bQ0gyXU4oW0NIMl1bQ0gyXTEpQyg9TylbTkhdYzJbY0hdbm4oW2NIXTIpW0NIMl1DKD1PKVtOSDJd

> <s_epik_cmdline>
J2VwaWtfcHl0aG9uJywgJy1waCcsICc3LjAnLCAnLXRuJywgJzgnLCAnLW1hJywgJzIwMCcsICctbWV0YWxfYmluZGluZycsICctaW1hZScsICc8aW5maWxlLm1hZT4nLCAnLW9tYWUnLCAnPG91dGZpbGUubWFlPic=

> <r_lp_tautomer_probability>
1

> <r_epik_Ionization_Penalty>
0.431808

> <r_epik_Ionization_Penalty_Charging>
0

> <r_epik_Ionization_Penalty_Neutral>
0.431808

> <r_epik_State_Penalty>
0.433198

> <r_epik_Charging_Adjusted_Penalty>
0.433198

> <i_epik_Tot_Q>
0

> <i_epik_Tot_abs_Q>
0

> <r_epik_Metal_State_Penalty>
0.433196

> <b_epik_Metal_Only>
0

> <s_lp_Force_Field>
OPLS_2005

> <r_lp_Energy>
45.1289

> <b_lp_Chiralities_Consistent>
1

> <s_lp_Variant>
AV-unprocessed.smi:1499-2

> <Gold.Version>
5.8.1

> <Gold.Id.Protein>
6NUR|6NUR_protein|mol2

> <Gold.PLP.Fitness>
46.8297

> <Gold.PLP.PLP>
-35.7292

> <Gold.PLP.part.hbond>
-4.9960

> <Gold.PLP.part.metal>
0.0000

> <Gold.PLP.part.buried>
-1.3470

> <Gold.PLP.part.nonpolar>
-30.1903

> <Gold.PLP.part.repulsive>
0.2589

> <Gold.PLP.ligand.clash>
0.0000

> <Gold.PLP.ligand.torsion>
0.6885

> <Gold.PLP.Chemscore.Hbond>
3.9680

> <Gold.PLP.Chemscore.CHOScore>
0.1711

> <Gold.PLP.Chemscore.Metal>
0.0000

> <Gold.Chemscore.Hbonds>
donor molecule, donor type, donor heavy atom, donor atom, acceptor molecule, acceptor atom, score
      P1  H  7989  7998       L1     3  0.96

> <Gold.PLP.Chemscore.Internal.Correction>
0.0602

> <Gold.Rescore>
     Score         DG    S(hbond)    S(metal)    S(lipo)     H(rot)  DE(clash)    DE(int)     intcor
     11.16     -13.18       1.48        0.00      63.57       1.83       0.07       1.95       ----

> <Gold.Chemscore.Fitness>
11.1628

> <Gold.Chemscore.DG>
-13.1815

> <Gold.Chemscore.ZeroCoef>
-5.4800

> <Gold.Chemscore.Hbond>
1.4837

> <Gold.Chemscore.Metal>
0.0000

> <Gold.Chemscore.Lipo>
63.5663

> <Gold.Chemscore.Internal_Hbond>
0.0000

> <Gold.Chemscore.DEClash>
0.0736

> <Gold.Chemscore.DEInternal>
1.9451

> <Gold.Chemscore.Rot>
1.8325

> <Gold.Chemscore.Internal.Correction>
   9.000000E+99

> <Gold.Chemscore.Hbonds>
donor molecule, donor type, donor heavy atom, donor atom, acceptor molecule, acceptor atom, score
      P1  H  7989  7998       L1     3  0.18

> <Gold.Chemscore.Hbond.Weighted>
-4.9555

> <Gold.Chemscore.Metal.Weighted>
-0.0000

> <Gold.Chemscore.Lipo.Weighted>
-7.4373

> <Gold.Chemscore.Internal_Hbond.Weighted>
0.0000

> <Gold.Chemscore.DEClash.Weighted>
0.0736

> <Gold.Chemscore.DEInternal.Weighted>
1.9451

> <Gold.Chemscore.Rot.Weighted>
4.6912

> <Gold.Chemscore.Internal.Correction.Weighted>
   9.000000E+99

> <Gold.Protein.RotatedTorsions>
[ 6907 6896 6895 6894 ] final  -25.25 input  -60.11 | X-H torsion
[ 7974 7965 7964 7962 ] final   71.25 input  175.53 | X-H torsion
[ 8008 7997 7996 7995 ] final  143.20 input   59.86 | X-H torsion
[ 10167 10162 10161 10158 ] final   87.30 input  -65.29 | X-H torsion
[ 10718 10713 10712 10709 ] final  177.69 input   66.30 | X-H torsion
[ 10763 10752 10751 10750 ] final  100.27 input  -60.55 | X-H torsion
[ 11005 11000 10999 10996 ] final    1.19 input  -57.11 | X-H torsion

> <Gold.Protein.ActiveResidues>
 VAL166  LYS551  ARG553  GLY616  TRP617  ASP618  TYR619  PRO620  LYS621  CYS622 
 ASP623  PHE694  ASN695  SER759  ASP760  ASP761  ALA762  ILE779  LEU786  VAL792 
 PHE793  MET794  SER795  GLU796  ALA797  LYS798  CYS799  TRP800  GLU811  SER814 

> <Gold.Protein.RotatedAtoms>
  151.1778  135.0347  159.8779 H   0  0  0  0  0  0  0  0  0  0  0  0  # atno 6907 bound_to 6896
  152.5446  134.1097  159.8363 H   0  0  0  0  0  0  0  0  0  0  0  0  # atno 6908 bound_to 6896
  151.1211  133.5057  159.2634 H   0  0  0  0  0  0  0  0  0  0  0  0  # atno 6909 bound_to 6896
  145.7681  139.2831  143.1337 H   0  0  0  0  0  0  0  0  0  0  0  0  # atno 7974 bound_to 7965
  156.2935  140.2268  156.4852 H   0  0  0  0  0  0  0  0  0  0  0  0  # atno 8008 bound_to 7997
  154.7819  140.0460  157.1155 H   0  0  0  0  0  0  0  0  0  0  0  0  # atno 8009 bound_to 7997
  154.9749  140.3071  155.4975 H   0  0  0  0  0  0  0  0  0  0  0  0  # atno 8010 bound_to 7997
  139.8788  144.6452  150.8866 H   0  0  0  0  0  0  0  0  0  0  0  0  # atno 10167 bound_to 10162
  156.9016  130.9880  151.3035 H   0  0  0  0  0  0  0  0  0  0  0  0  # atno 10718 bound_to 10713
  153.3118  135.4085  155.1342 H   0  0  0  0  0  0  0  0  0  0  0  0  # atno 10763 bound_to 10752
  154.8578  135.3566  154.5713 H   0  0  0  0  0  0  0  0  0  0  0  0  # atno 10764 bound_to 10752
  153.6142  135.7067  153.5393 H   0  0  0  0  0  0  0  0  0  0  0  0  # atno 10765 bound_to 10752
  140.6182  133.9686  155.8211 H   0  0  0  0  0  0  0  0  0  0  0  0  # atno 11005 bound_to 11000
  146.0197  140.8359  142.9929 LP  0  0  0  0  0  0  0  0  0  0  0  0  # atno 17320 bound_to 7965
  144.6817  140.2610  143.7319 LP  0  0  0  0  0  0  0  0  0  0  0  0  # atno 17321 bound_to 7965
  140.7748  143.3603  151.1841 LP  0  0  0  0  0  0  0  0  0  0  0  0  # atno 17342 bound_to 10162
  139.7215  143.9215  152.2987 LP  0  0  0  0  0  0  0  0  0  0  0  0  # atno 17343 bound_to 10162
  157.6023  130.8521  149.8820 LP  0  0  0  0  0  0  0  0  0  0  0  0  # atno 17370 bound_to 10713
  156.0579  130.3705  150.1048 LP  0  0  0  0  0  0  0  0  0  0  0  0  # atno 17371 bound_to 10713
  141.0761  134.0133  157.3455 LP  0  0  0  0  0  0  0  0  0  0  0  0  # atno 17394 bound_to 11000
  139.9164  135.0197  156.7898 LP  0  0  0  0  0  0  0  0  0  0  0  0  # atno 17395 bound_to 11000

$$$$
