AV-unprocessed.smi:1643|AV-procd|sdf|6574|dock5
  -GOLD-   22720 7263D 1   1.00000     0.00000
 Structure written by MMmdl.
 54 56  0  0  0  0  0  0  0  0  2 V2000
  148.0942  135.2520  159.3281 C   0  0  0  0  0  0  0  0  0  0  0  0
  148.5097  134.2679  158.2315 C   0  0  0  0  0  0  0  0  0  0  0  0
  149.3152  133.3841  158.5233 O   0  0  0  0  0  0  0  0  0  0  0  0
  147.9791  134.3918  156.9897 N   0  0  0  0  0  0  0  0  0  0  0  0
  148.2684  133.4124  155.9319 C   0  0  0  0  0  0  0  0  0  0  0  0
  149.3578  133.9072  154.9520 C   0  0  0  0  0  0  0  0  0  0  0  0
  149.7657  135.3922  155.0910 C   0  0  0  0  0  0  0  0  0  0  0  0
  148.6906  136.3854  154.7920 N   0  3  2  0  0  0  0  0  0  0  0  0
  149.0028  137.7483  155.3032 C   0  0  0  0  0  0  0  0  0  0  0  0
  150.3465  138.2957  154.7819 C   0  0  1  0  0  0  0  0  0  0  0  0
  150.3189  138.3080  153.3672 O   0  0  0  0  0  0  0  0  0  0  0  0
  150.6261  139.7199  155.2989 C   0  0  0  0  0  0  0  0  0  0  0  0
  151.1723  139.7210  156.6441 N   0  0  0  0  0  0  0  0  0  0  0  0
  151.5046  138.6505  157.3911 C   0  0  0  0  0  0  0  0  0  0  0  0
  151.9894  138.8840  158.6072 N   0  0  0  0  0  0  0  0  0  0  0  0
  151.9734  140.2674  158.6538 C   0  0  0  0  0  0  0  0  0  0  0  0
  152.3635  141.1557  159.6797 C   0  0  0  0  0  0  0  0  0  0  0  0
  152.2582  142.5543  159.5065 C   0  0  0  0  0  0  0  0  0  0  0  0
  152.6875  143.4729  160.6369 C   0  0  0  0  0  0  0  0  0  0  0  0
  151.7563  143.0841  158.2905 C   0  0  0  0  0  0  0  0  0  0  0  0
  151.6336  144.5833  158.0821 C   0  0  0  0  0  0  0  0  0  0  0  0
  151.3632  142.2109  157.2549 C   0  0  0  0  0  0  0  0  0  0  0  0
  151.4710  140.8213  157.4403 C   0  0  0  0  0  0  0  0  0  0  0  0
  147.2971  135.9661  155.1203 C   0  0  0  0  0  0  0  0  0  0  0  0
  147.0829  135.4876  156.5797 C   0  0  0  0  0  0  0  0  0  0  0  0
  147.0086  135.3309  159.3935 H   0  0  0  0  0  0  0  0  0  0  0  0
  148.5121  136.2404  159.1364 H   0  0  0  0  0  0  0  0  0  0  0  0
  148.4603  134.9190  160.3000 H   0  0  0  0  0  0  0  0  0  0  0  0
  148.5566  132.4426  156.3413 H   0  0  0  0  0  0  0  0  0  0  0  0
  147.3471  133.1998  155.3885 H   0  0  0  0  0  0  0  0  0  0  0  0
  150.2522  133.3035  155.1100 H   0  0  0  0  0  0  0  0  0  0  0  0
  149.0484  133.7015  153.9268 H   0  0  0  0  0  0  0  0  0  0  0  0
  150.1700  135.5667  156.0892 H   0  0  0  0  0  0  0  0  0  0  0  0
  150.5929  135.5765  154.4058 H   0  0  0  0  0  0  0  0  0  0  0  0
  148.2138  138.4451  155.0162 H   0  0  0  0  0  0  0  0  0  0  0  0
  149.0023  137.7262  156.3941 H   0  0  0  0  0  0  0  0  0  0  0  0
  151.1649  137.6517  155.1013 H   0  0  0  0  0  0  0  0  0  0  0  0
  149.7144  137.6454  153.0687 H   0  0  0  0  0  0  0  0  0  0  0  0
  151.3191  140.2412  154.6365 H   0  0  0  0  0  0  0  0  0  0  0  0
  149.7052  140.3042  155.3099 H   0  0  0  0  0  0  0  0  0  0  0  0
  151.3802  137.6424  157.0234 H   0  0  0  0  0  0  0  0  0  0  0  0
  152.7457  140.7521  160.6059 H   0  0  0  0  0  0  0  0  0  0  0  0
  153.4586  144.1648  160.2971 H   0  0  0  0  0  0  0  0  0  0  0  0
  153.0941  142.9083  161.4766 H   0  0  0  0  0  0  0  0  0  0  0  0
  151.8380  144.0512  161.0010 H   0  0  0  0  0  0  0  0  0  0  0  0
  151.2134  144.8159  157.1033 H   0  0  0  0  0  0  0  0  0  0  0  0
  152.6125  145.0592  158.1473 H   0  0  0  0  0  0  0  0  0  0  0  0
  150.9831  145.0232  158.8384 H   0  0  0  0  0  0  0  0  0  0  0  0
  150.9800  142.6014  156.3240 H   0  0  0  0  0  0  0  0  0  0  0  0
  146.6127  136.7891  154.9114 H   0  0  0  0  0  0  0  0  0  0  0  0
  146.9950  135.1932  154.4139 H   0  0  0  0  0  0  0  0  0  0  0  0
  146.0530  135.1511  156.7049 H   0  0  0  0  0  0  0  0  0  0  0  0
  147.1947  136.3606  157.2216 H   0  0  0  0  0  0  0  0  0  0  0  0
  148.6862  136.4797  153.7860 H   0  0  0  0  0  0  0  0  0  0  0  0
  1  2  1  0  0  0  0
  1 26  1  0  0  0  0
  1 27  1  0  0  0  0
  1 28  1  0  0  0  0
  2  3  2  0  0  0  0
  2  4  1  0  0  0  0
  4 25  1  0  0  0  0
  4  5  1  0  0  0  0
  5  6  1  0  0  0  0
  5 29  1  0  0  0  0
  5 30  1  0  0  0  0
  6  7  1  0  0  0  0
  6 31  1  0  0  0  0
  6 32  1  0  0  0  0
  7  8  1  0  0  0  0
  7 33  1  0  0  0  0
  7 34  1  0  0  0  0
  8  9  1  0  0  0  0
  8 24  1  0  0  0  0
  8 54  1  0  0  0  0
  9 10  1  0  0  0  0
  9 35  1  0  0  0  0
  9 36  1  0  0  0  0
 10 11  1  0  0  0  0
 10 12  1  0  0  0  0
 10 37  1  0  0  0  0
 11 38  1  0  0  0  0
 12 13  1  0  0  0  0
 12 39  1  0  0  0  0
 12 40  1  0  0  0  0
 13 23  1  0  0  0  0
 13 14  1  0  0  0  0
 14 15  2  0  0  0  0
 14 41  1  0  0  0  0
 15 16  1  0  0  0  0
 16 23  2  0  0  0  0
 16 17  1  0  0  0  0
 17 18  2  0  0  0  0
 17 42  1  0  0  0  0
 18 19  1  0  0  0  0
 18 20  1  0  0  0  0
 19 43  1  0  0  0  0
 19 44  1  0  0  0  0
 19 45  1  0  0  0  0
 20 21  1  0  0  0  0
 20 22  2  0  0  0  0
 21 46  1  0  0  0  0
 21 47  1  0  0  0  0
 21 48  1  0  0  0  0
 22 23  1  0  0  0  0
 22 49  1  0  0  0  0
 24 25  1  0  0  0  0
 24 50  1  0  0  0  0
 24 51  1  0  0  0  0
 25 52  1  0  0  0  0
 25 53  1  0  0  0  0
M  CHG  1   8   1
M  END
> <s_m_source_file>
AV-unprocessed.smi

> <i_m_source_file_index>
1643

> <i_lp_mmshare_version>
43012

> <i_f3d_flags>
0

> <s_epik_input>
W0NIM11DKD1PKU4xW0NIMl1bQ0gyXVtDSDJdTihbQ0gyXVtDSDJdMSlbQ0gyXVtDQEhdKFtPSF0pW0NIMl1uKFtjSF1uMiljKGMyMylbY0hdYyhbQ0gzXSljKFtjSF0zKVtDSDNd

> <s_epik_cmdline>
J2VwaWtfcHl0aG9uJywgJy1waCcsICc3LjAnLCAnLXRuJywgJzgnLCAnLW1hJywgJzIwMCcsICctbWV0YWxfYmluZGluZycsICctaW1hZScsICc8aW5maWxlLm1hZT4nLCAnLW9tYWUnLCAnPG91dGZpbGUubWFlPic=

> <r_epik_Ionization_Penalty>
0.189467

> <r_epik_Ionization_Penalty_Charging>
0.101761

> <r_epik_Ionization_Penalty_Neutral>
0.0877056

> <r_epik_State_Penalty>
0.170758

> <r_epik_Charging_Adjusted_Penalty>
0.272519

> <i_epik_Tot_Q>
1

> <i_epik_Tot_abs_Q>
1

> <r_epik_Metal_State_Penalty>
0.0948013

> <b_epik_Metal_Only>
0

> <s_lp_Force_Field>
OPLS_2005

> <r_lp_Energy>
48.7512

> <b_lp_Chiralities_Consistent>
1

> <s_lp_Variant>
AV-unprocessed.smi:1643-3

> <Gold.Version>
5.8.1

> <Gold.Id.Protein>
6NUR|6NUR_protein|mol2

> <Gold.PLP.Fitness>
51.0054

> <Gold.PLP.PLP>
-39.4592

> <Gold.PLP.part.hbond>
-4.7012

> <Gold.PLP.part.metal>
0.0000

> <Gold.PLP.part.buried>
-3.2068

> <Gold.PLP.part.nonpolar>
-31.3641

> <Gold.PLP.part.repulsive>
0.0000

> <Gold.PLP.ligand.clash>
0.0000

> <Gold.PLP.ligand.torsion>
0.2723

> <Gold.PLP.Chemscore.Hbond>
4.0000

> <Gold.PLP.Chemscore.CHOScore>
0.0000

> <Gold.PLP.Chemscore.Metal>
0.0000

> <Gold.Chemscore.Hbonds>
donor molecule, donor type, donor heavy atom, donor atom, acceptor molecule, acceptor atom, score
      L1  H     8    54       P1  7948  2.00
      L1  H    11    38       P1  7948  1.00
      P1  H  6896  6908       L1     3  1.00

> <Gold.PLP.Chemscore.Internal.Correction>
0.0908

> <Gold.Rescore>
     Score         DG    S(hbond)    S(metal)    S(lipo)     H(rot)  DE(clash)    DE(int)     intcor
     20.31     -21.70       2.69        0.00     108.21       2.12       0.91       0.49       ----

> <Gold.Chemscore.Fitness>
20.3077

> <Gold.Chemscore.DG>
-21.7047

> <Gold.Chemscore.ZeroCoef>
-5.4800

> <Gold.Chemscore.Hbond>
2.6904

> <Gold.Chemscore.Metal>
0.0000

> <Gold.Chemscore.Lipo>
108.2080

> <Gold.Chemscore.Internal_Hbond>
0.0000

> <Gold.Chemscore.DEClash>
0.9107

> <Gold.Chemscore.DEInternal>
0.4863

> <Gold.Chemscore.Rot>
2.1178

> <Gold.Chemscore.Internal.Correction>
   9.000000E+99

> <Gold.Chemscore.Hbonds>
donor molecule, donor type, donor heavy atom, donor atom, acceptor molecule, acceptor atom, score
      L1  H     8    54       P1  7948  0.99
      L1  H    11    38       P1  7948  0.63
      P1  H  6896  6908       L1     3  0.78

> <Gold.Chemscore.Hbond.Weighted>
-8.9858

> <Gold.Chemscore.Metal.Weighted>
-0.0000

> <Gold.Chemscore.Lipo.Weighted>
-12.6603

> <Gold.Chemscore.Internal_Hbond.Weighted>
0.0000

> <Gold.Chemscore.DEClash.Weighted>
0.9107

> <Gold.Chemscore.DEInternal.Weighted>
0.4863

> <Gold.Chemscore.Rot.Weighted>
5.4215

> <Gold.Chemscore.Internal.Correction.Weighted>
   9.000000E+99

> <Gold.Protein.RotatedTorsions>
[ 6907 6896 6895 6894 ] final  137.74 input  -60.11 | X-H torsion
[ 7974 7965 7964 7962 ] final -111.13 input  175.53 | X-H torsion
[ 8008 7997 7996 7995 ] final  -29.27 input   59.86 | X-H torsion
[ 10167 10162 10161 10158 ] final  119.20 input  -65.29 | X-H torsion
[ 10718 10713 10712 10709 ] final   59.59 input   66.30 | X-H torsion
[ 10763 10752 10751 10750 ] final  107.16 input  -60.55 | X-H torsion
[ 11005 11000 10999 10996 ] final  -33.91 input  -57.11 | X-H torsion

> <Gold.Protein.ActiveResidues>
 VAL166  LYS551  ARG553  GLY616  TRP617  ASP618  TYR619  PRO620  LYS621  CYS622 
 ASP623  PHE694  ASN695  SER759  ASP760  ASP761  ALA762  ILE779  LEU786  VAL792 
 PHE793  MET794  SER795  GLU796  ALA797  LYS798  CYS799  TRP800  GLU811  SER814 

> <Gold.Protein.RotatedAtoms>
  152.2746  133.5414  159.5459 H   0  0  0  0  0  0  0  0  0  0  0  0  # atno 6907 bound_to 6896
  150.7172  134.0650  159.3853 H   0  0  0  0  0  0  0  0  0  0  0  0  # atno 6908 bound_to 6896
  151.8563  135.0540  160.0515 H   0  0  0  0  0  0  0  0  0  0  0  0  # atno 6909 bound_to 6896
  145.1598  140.8872  143.3597 H   0  0  0  0  0  0  0  0  0  0  0  0  # atno 7974 bound_to 7965
  154.4297  140.1823  156.1221 H   0  0  0  0  0  0  0  0  0  0  0  0  # atno 8008 bound_to 7997
  156.0135  140.3348  155.6940 H   0  0  0  0  0  0  0  0  0  0  0  0  # atno 8009 bound_to 7997
  155.6077  140.0647  157.2706 H   0  0  0  0  0  0  0  0  0  0  0  0  # atno 8010 bound_to 7997
  139.6061  144.7070  151.2949 H   0  0  0  0  0  0  0  0  0  0  0  0  # atno 10167 bound_to 10162
  157.5687  130.8891  149.9231 H   0  0  0  0  0  0  0  0  0  0  0  0  # atno 10718 bound_to 10713
  153.4029  135.3853  155.1999 H   0  0  0  0  0  0  0  0  0  0  0  0  # atno 10763 bound_to 10752
  154.8731  135.3775  154.4597 H   0  0  0  0  0  0  0  0  0  0  0  0  # atno 10764 bound_to 10752
  153.5096  135.7087  153.5850 H   0  0  0  0  0  0  0  0  0  0  0  0  # atno 10765 bound_to 10752
  140.9673  133.7129  156.1467 H   0  0  0  0  0  0  0  0  0  0  0  0  # atno 11005 bound_to 11000
  145.0343  139.3314  143.6009 LP  0  0  0  0  0  0  0  0  0  0  0  0  # atno 17320 bound_to 7965
  146.3484  139.9692  142.8708 LP  0  0  0  0  0  0  0  0  0  0  0  0  # atno 17321 bound_to 7965
  140.7286  143.6931  150.7906 LP  0  0  0  0  0  0  0  0  0  0  0  0  # atno 17342 bound_to 10162
  140.0517  143.5243  152.2670 LP  0  0  0  0  0  0  0  0  0  0  0  0  # atno 17343 bound_to 10162
  156.0734  130.3682  150.0729 LP  0  0  0  0  0  0  0  0  0  0  0  0  # atno 17370 bound_to 10713
  156.8884  130.9580  151.3591 LP  0  0  0  0  0  0  0  0  0  0  0  0  # atno 17371 bound_to 10713
  140.7380  134.4182  157.5558 LP  0  0  0  0  0  0  0  0  0  0  0  0  # atno 17394 bound_to 11000
  139.8899  134.8818  156.2396 LP  0  0  0  0  0  0  0  0  0  0  0  0  # atno 17395 bound_to 11000

$$$$
