AV-unprocessed.smi:1970|AV-procd|sdf|7960|dock10
  -GOLD-   2272010133D 1   1.00000     0.00000
 Structure written by MMmdl.
 33 34  0  0  0  0  0  0  0  0  1 V2000
  151.3669  135.9790  156.1704 O   0  0  0  0  0  0  0  0  0  0  0  0
  150.4424  136.7636  155.9587 C   0  0  0  0  0  0  0  0  0  0  0  0
  150.2871  137.4059  154.5778 C   0  0  0  0  0  0  0  0  0  0  0  0
  150.1737  138.8617  154.6835 N   0  0  0  0  0  0  0  0  0  0  0  0
  151.2918  139.6216  155.2323 C   0  0  0  0  0  0  0  0  0  0  0  0
  150.6550  141.2728  155.6161 S   0  0  0  0  0  0  0  0  0  0  0  0
  149.2084  141.0532  154.5669 C   0  0  0  0  0  0  0  0  0  0  0  0
  149.0881  139.5613  154.3094 C   0  0  0  0  0  0  0  0  0  0  0  0
  148.0731  139.0767  153.8100 O   0  0  0  0  0  0  0  0  0  0  0  0
  149.5309  137.1020  156.8841 N   0  0  0  0  0  0  0  0  0  0  0  0
  149.5230  136.6489  158.2732 C   0  0  0  0  0  0  0  0  0  0  0  0
  148.3441  137.2316  159.0803 C   0  0  0  0  0  0  0  0  0  0  0  0
  148.1547  136.5881  160.4441 C   0  0  0  0  0  0  0  0  0  0  0  0
  148.1092  135.1839  160.5817 C   0  0  0  0  0  0  0  0  0  0  0  0
  147.8879  134.6415  161.8621 C   0  0  0  0  0  0  0  0  0  0  0  0
  147.7297  135.5188  162.9519 C   0  0  0  0  0  0  0  0  0  0  0  0
  147.8031  136.9054  162.7119 C   0  0  0  0  0  0  0  0  0  0  0  0
  148.0132  137.4359  161.4878 N   0  0  0  0  0  0  0  0  0  0  0  0
  151.1589  137.1491  153.9746 H   0  0  0  0  0  0  0  0  0  0  0  0
  149.4227  136.9925  154.0545 H   0  0  0  0  0  0  0  0  0  0  0  0
  151.6972  139.1554  156.1309 H   0  0  0  0  0  0  0  0  0  0  0  0
  152.0868  139.6949  154.4898 H   0  0  0  0  0  0  0  0  0  0  0  0
  148.3163  141.4440  155.0564 H   0  0  0  0  0  0  0  0  0  0  0  0
  149.3487  141.5792  153.6224 H   0  0  0  0  0  0  0  0  0  0  0  0
  148.8033  137.7482  156.6139 H   0  0  0  0  0  0  0  0  0  0  0  0
  149.4505  135.5612  158.2662 H   0  0  0  0  0  0  0  0  0  0  0  0
  150.4702  136.8858  158.7607 H   0  0  0  0  0  0  0  0  0  0  0  0
  148.4833  138.3059  159.2080 H   0  0  0  0  0  0  0  0  0  0  0  0
  147.4215  137.1144  158.5108 H   0  0  0  0  0  0  0  0  0  0  0  0
  148.2242  134.5369  159.7249 H   0  0  0  0  0  0  0  0  0  0  0  0
  147.8362  133.5723  162.0048 H   0  0  0  0  0  0  0  0  0  0  0  0
  147.5566  135.1388  163.9477 H   0  0  0  0  0  0  0  0  0  0  0  0
  147.6886  137.6075  163.5243 H   0  0  0  0  0  0  0  0  0  0  0  0
  1  2  2  0  0  0  0
  2  3  1  0  0  0  0
  2 10  1  0  0  0  0
  3  4  1  0  0  0  0
  3 19  1  0  0  0  0
  3 20  1  0  0  0  0
  4  8  1  0  0  0  0
  4  5  1  0  0  0  0
  5  6  1  0  0  0  0
  5 21  1  0  0  0  0
  5 22  1  0  0  0  0
  6  7  1  0  0  0  0
  7  8  1  0  0  0  0
  7 23  1  0  0  0  0
  7 24  1  0  0  0  0
  8  9  2  0  0  0  0
 10 11  1  0  0  0  0
 10 25  1  0  0  0  0
 11 12  1  0  0  0  0
 11 26  1  0  0  0  0
 11 27  1  0  0  0  0
 12 13  1  0  0  0  0
 12 28  1  0  0  0  0
 12 29  1  0  0  0  0
 13 18  1  0  0  0  0
 13 14  2  0  0  0  0
 14 15  1  0  0  0  0
 14 30  1  0  0  0  0
 15 16  2  0  0  0  0
 15 31  1  0  0  0  0
 16 17  1  0  0  0  0
 16 32  1  0  0  0  0
 17 18  2  0  0  0  0
 17 33  1  0  0  0  0
M  END
> <s_m_source_file>
AV-unprocessed.smi

> <i_m_source_file_index>
1970

> <i_lp_mmshare_version>
43012

> <i_f3d_flags>
0

> <s_epik_input>
Tz1DMVtDSDJdU1tDSDJdTjFbQ0gyXUMoPU8pW05IXVtDSDJdW0NIMl1jMltjSF1bY0hdW2NIXVtjSF1uMg==

> <s_epik_cmdline>
J2VwaWtfcHl0aG9uJywgJy1waCcsICc3LjAnLCAnLXRuJywgJzgnLCAnLW1hJywgJzIwMCcsICctbWV0YWxfYmluZGluZycsICctaW1hZScsICc8aW5maWxlLm1hZT4nLCAnLW9tYWUnLCAnPG91dGZpbGUubWFlPic=

> <r_epik_Ionization_Penalty>
0.0255556

> <r_epik_Ionization_Penalty_Charging>
0

> <r_epik_Ionization_Penalty_Neutral>
0.0255556

> <r_epik_State_Penalty>
0.0208108

> <r_epik_Charging_Adjusted_Penalty>
0.0208108

> <i_epik_Tot_Q>
0

> <i_epik_Tot_abs_Q>
0

> <r_epik_Metal_State_Penalty>
0.0199448

> <b_epik_Metal_Only>
0

> <s_epik_Chemistry_Notes>
This compound contains an acetal/aminal-like group ( X-CH(R)-Y where X, Y are N, S, or O) that may be acid/base labile, releasing an aldehyde.

> <s_lp_Force_Field>
OPLS_2005

> <r_lp_Energy>
5.35786

> <b_lp_Chiralities_Consistent>
1

> <s_lp_Variant>
AV-unprocessed.smi:1970-1

> <Gold.Version>
5.8.1

> <Gold.Id.Protein>
6NUR|6NUR_protein|mol2

> <Gold.PLP.Fitness>
46.4214

> <Gold.PLP.PLP>
-38.4506

> <Gold.PLP.part.hbond>
-2.9473

> <Gold.PLP.part.metal>
0.0000

> <Gold.PLP.part.buried>
-3.7894

> <Gold.PLP.part.nonpolar>
-31.7402

> <Gold.PLP.part.repulsive>
1.1771

> <Gold.PLP.ligand.clash>
0.0000

> <Gold.PLP.ligand.torsion>
0.2106

> <Gold.PLP.Chemscore.Hbond>
2.7913

> <Gold.PLP.Chemscore.CHOScore>
0.0000

> <Gold.PLP.Chemscore.Metal>
0.0000

> <Gold.Chemscore.Hbonds>
donor molecule, donor type, donor heavy atom, donor atom, acceptor molecule, acceptor atom, score
      P1  H  6931  6943       L1    18  0.42
      P1  H  6934  6947       L1    18  0.58
      P1  H 10752 10764       L1     1  0.71

> <Gold.PLP.Chemscore.Internal.Correction>
0.0182

> <Gold.Rescore>
     Score         DG    S(hbond)    S(metal)    S(lipo)     H(rot)  DE(clash)    DE(int)     intcor
     14.94     -15.31       1.91        0.00      71.42       1.92       0.03       0.34       ----

> <Gold.Chemscore.Fitness>
14.9443

> <Gold.Chemscore.DG>
-15.3073

> <Gold.Chemscore.ZeroCoef>
-5.4800

> <Gold.Chemscore.Hbond>
1.9133

> <Gold.Chemscore.Metal>
0.0000

> <Gold.Chemscore.Lipo>
71.4164

> <Gold.Chemscore.Internal_Hbond>
0.0000

> <Gold.Chemscore.DEClash>
0.0272

> <Gold.Chemscore.DEInternal>
0.3358

> <Gold.Chemscore.Rot>
1.9215

> <Gold.Chemscore.Internal.Correction>
   9.000000E+99

> <Gold.Chemscore.Hbonds>
donor molecule, donor type, donor heavy atom, donor atom, acceptor molecule, acceptor atom, score
      P1  H  6931  6943       L1    18  0.04
      P1  H  6934  6947       L1    18  0.45
      P1  H 10752 10764       L1     1  0.71

> <Gold.Chemscore.Hbond.Weighted>
-6.3906

> <Gold.Chemscore.Metal.Weighted>
-0.0000

> <Gold.Chemscore.Lipo.Weighted>
-8.3557

> <Gold.Chemscore.Internal_Hbond.Weighted>
0.0000

> <Gold.Chemscore.DEClash.Weighted>
0.0272

> <Gold.Chemscore.DEInternal.Weighted>
0.3358

> <Gold.Chemscore.Rot.Weighted>
4.9190

> <Gold.Chemscore.Internal.Correction.Weighted>
   9.000000E+99

> <Gold.Protein.RotatedTorsions>
[ 6907 6896 6895 6894 ] final -170.66 input  -60.11 | X-H torsion
[ 7974 7965 7964 7962 ] final   59.07 input  175.53 | X-H torsion
[ 8008 7997 7996 7995 ] final    3.44 input   59.86 | X-H torsion
[ 10167 10162 10161 10158 ] final -106.09 input  -65.29 | X-H torsion
[ 10718 10713 10712 10709 ] final -142.67 input   66.30 | X-H torsion
[ 10763 10752 10751 10750 ] final  -32.75 input  -60.55 | X-H torsion
[ 11005 11000 10999 10996 ] final  165.08 input  -57.11 | X-H torsion

> <Gold.Protein.ActiveResidues>
 VAL166  LYS551  ARG553  GLY616  TRP617  ASP618  TYR619  PRO620  LYS621  CYS622 
 ASP623  PHE694  ASN695  SER759  ASP760  ASP761  ALA762  ILE779  LEU786  VAL792 
 PHE793  MET794  SER795  GLU796  ALA797  LYS798  CYS799  TRP800  GLU811  SER814 

> <Gold.Protein.RotatedAtoms>
  151.5113  133.3484  159.2885 H   0  0  0  0  0  0  0  0  0  0  0  0  # atno 6907 bound_to 6896
  150.8710  134.8086  159.7166 H   0  0  0  0  0  0  0  0  0  0  0  0  # atno 6908 bound_to 6896
  152.4698  134.4997  159.9772 H   0  0  0  0  0  0  0  0  0  0  0  0  # atno 6909 bound_to 6896
  145.9112  139.3655  143.0534 H   0  0  0  0  0  0  0  0  0  0  0  0  # atno 7974 bound_to 7965
  154.7037  140.2678  155.6695 H   0  0  0  0  0  0  0  0  0  0  0  0  # atno 8008 bound_to 7997
  156.2773  140.2767  156.1580 H   0  0  0  0  0  0  0  0  0  0  0  0  # atno 8009 bound_to 7997
  155.0729  140.0372  157.2604 H   0  0  0  0  0  0  0  0  0  0  0  0  # atno 8010 bound_to 7997
  140.1915  143.3888  152.1202 H   0  0  0  0  0  0  0  0  0  0  0  0  # atno 10167 bound_to 10162
  156.3487  130.7676  151.1825 H   0  0  0  0  0  0  0  0  0  0  0  0  # atno 10718 bound_to 10713
  153.8189  135.6876  153.4830 H   0  0  0  0  0  0  0  0  0  0  0  0  # atno 10763 bound_to 10752
  153.1582  135.4590  154.9732 H   0  0  0  0  0  0  0  0  0  0  0  0  # atno 10764 bound_to 10752
  154.7936  135.3311  154.7663 H   0  0  0  0  0  0  0  0  0  0  0  0  # atno 10765 bound_to 10752
  140.2525  134.7966  157.3515 H   0  0  0  0  0  0  0  0  0  0  0  0  # atno 11005 bound_to 11000
  145.8669  140.9443  143.0671 LP  0  0  0  0  0  0  0  0  0  0  0  0  # atno 17320 bound_to 7965
  144.6743  140.0604  143.7476 LP  0  0  0  0  0  0  0  0  0  0  0  0  # atno 17321 bound_to 7965
  139.5254  144.7095  151.5250 LP  0  0  0  0  0  0  0  0  0  0  0  0  # atno 17342 bound_to 10162
  140.6452  143.8808  150.6730 LP  0  0  0  0  0  0  0  0  0  0  0  0  # atno 17343 bound_to 10162
  157.7458  131.0433  150.4740 LP  0  0  0  0  0  0  0  0  0  0  0  0  # atno 17370 bound_to 10713
  156.4932  130.4100  149.6395 LP  0  0  0  0  0  0  0  0  0  0  0  0  # atno 17371 bound_to 10713
  140.1544  134.4809  155.7938 LP  0  0  0  0  0  0  0  0  0  0  0  0  # atno 17394 bound_to 11000
  141.2200  133.6875  156.7435 LP  0  0  0  0  0  0  0  0  0  0  0  0  # atno 17395 bound_to 11000

$$$$
