AV-unprocessed.smi:2649|AV-procd|sdf|10289|dock4
  -GOLD-   2272014303D 1   1.00000     0.00000
 Structure written by MMmdl.
 34 35  0  0  0  0  0  0  0  0  1 V2000
  155.7382  137.9856  163.0067 C   0  0  0  0  0  0  0  0  0  0  0  0
  154.4926  138.7777  161.9528 S   0  0  0  0  0  0  0  0  0  0  0  0
  154.8173  140.5352  162.2889 C   0  0  0  0  0  0  0  0  0  0  0  0
  153.8485  141.4246  161.5259 C   0  0  0  0  0  0  0  0  0  0  0  0
  153.5285  140.9998  160.2833 N   0  0  0  0  0  0  0  0  0  0  0  0
  152.6793  141.7314  159.5215 C   0  0  0  0  0  0  0  0  0  0  0  0
  152.2887  141.3645  158.2066 N   0  0  0  0  0  0  0  0  0  0  0  0
  151.1343  141.6417  157.5699 C   0  0  0  0  0  0  0  0  0  0  0  0
  150.2068  142.2842  158.0642 O   0  0  0  0  0  0  0  0  0  0  0  0
  151.0273  141.1186  156.1296 C   0  0  2  0  0  0  0  0  0  0  0  0
  149.7161  141.5409  155.4265 C   0  0  0  0  0  0  0  0  0  0  0  0
  149.6873  140.9891  154.1164 O   0  0  0  0  0  0  0  0  0  0  0  0
  149.7500  139.5701  154.1504 C   0  0  0  0  0  0  0  0  0  0  0  0
  151.0560  139.1445  154.8410 C   0  0  0  0  0  0  0  0  0  0  0  0
  151.0886  139.6942  156.1517 O   0  0  0  0  0  0  0  0  0  0  0  0
  152.1128  142.9311  160.0049 C   0  0  0  0  0  0  0  0  0  0  0  0
  152.4366  143.3754  161.3010 C   0  0  0  0  0  0  0  0  0  0  0  0
  153.3213  142.6115  162.0838 C   0  0  0  0  0  0  0  0  0  0  0  0
  153.7292  143.1366  163.6791 Cl  0  0  0  0  0  0  0  0  0  0  0  0
  155.7314  136.9075  162.8464 H   0  0  0  0  0  0  0  0  0  0  0  0
  155.5310  138.1742  164.0598 H   0  0  0  0  0  0  0  0  0  0  0  0
  156.7332  138.3641  162.7726 H   0  0  0  0  0  0  0  0  0  0  0  0
  154.7382  140.7139  163.3622 H   0  0  0  0  0  0  0  0  0  0  0  0
  155.8426  140.7738  162.0061 H   0  0  0  0  0  0  0  0  0  0  0  0
  152.9617  140.8198  157.6871 H   0  0  0  0  0  0  0  0  0  0  0  0
  151.8831  141.5073  155.5747 H   0  0  0  0  0  0  0  0  0  0  0  0
  148.8401  141.2119  155.9889 H   0  0  0  0  0  0  0  0  0  0  0  0
  149.6554  142.6265  155.3414 H   0  0  0  0  0  0  0  0  0  0  0  0
  148.8819  139.1659  154.6735 H   0  0  0  0  0  0  0  0  0  0  0  0
  149.7182  139.1874  153.1302 H   0  0  0  0  0  0  0  0  0  0  0  0
  151.1125  138.0580  154.9087 H   0  0  0  0  0  0  0  0  0  0  0  0
  151.9247  139.4771  154.2707 H   0  0  0  0  0  0  0  0  0  0  0  0
  151.4354  143.5086  159.3926 H   0  0  0  0  0  0  0  0  0  0  0  0
  152.0107  144.2898  161.6871 H   0  0  0  0  0  0  0  0  0  0  0  0
  1  2  1  0  0  0  0
  1 20  1  0  0  0  0
  1 21  1  0  0  0  0
  1 22  1  0  0  0  0
  2  3  1  0  0  0  0
  3  4  1  0  0  0  0
  3 23  1  0  0  0  0
  3 24  1  0  0  0  0
  4 18  1  0  0  0  0
  4  5  2  0  0  0  0
  5  6  1  0  0  0  0
  6  7  1  0  0  0  0
  6 16  2  0  0  0  0
  7  8  1  0  0  0  0
  7 25  1  0  0  0  0
  8  9  2  0  0  0  0
  8 10  1  0  0  0  0
 10 15  1  0  0  0  0
 10 11  1  0  0  0  0
 10 26  1  0  0  0  0
 11 12  1  0  0  0  0
 11 27  1  0  0  0  0
 11 28  1  0  0  0  0
 12 13  1  0  0  0  0
 13 14  1  0  0  0  0
 13 29  1  0  0  0  0
 13 30  1  0  0  0  0
 14 15  1  0  0  0  0
 14 31  1  0  0  0  0
 14 32  1  0  0  0  0
 16 17  1  0  0  0  0
 16 33  1  0  0  0  0
 17 18  2  0  0  0  0
 17 34  1  0  0  0  0
 18 19  1  0  0  0  0
M  END
> <s_m_source_file>
AV-unprocessed.smi

> <i_m_source_file_index>
2649

> <i_lp_mmshare_version>
43012

> <i_f3d_flags>
0

> <s_epik_input>
W0NIM11TW0NIMl1jMW5jKFtjSF1bY0hdYzFDbClbTkhdQyg9TylbQ0BASF0yW0NIMl1PW0NIMl1bQ0gyXU8y

> <s_epik_cmdline>
J2VwaWtfcHl0aG9uJywgJy1waCcsICc3LjAnLCAnLXRuJywgJzgnLCAnLW1hJywgJzIwMCcsICctbWV0YWxfYmluZGluZycsICctaW1hZScsICc8aW5maWxlLm1hZT4nLCAnLW9tYWUnLCAnPG91dGZpbGUubWFlPic=

> <r_lp_tautomer_probability>
1

> <r_epik_Ionization_Penalty>
9.71596e-06

> <r_epik_Ionization_Penalty_Charging>
0

> <r_epik_Ionization_Penalty_Neutral>
9.71596e-06

> <r_epik_State_Penalty>
-0

> <r_epik_Charging_Adjusted_Penalty>
0

> <i_epik_Tot_Q>
0

> <i_epik_Tot_abs_Q>
0

> <r_epik_Metal_State_Penalty>
-0

> <b_epik_Metal_Only>
0

> <s_lp_Force_Field>
OPLS_2005

> <r_lp_Energy>
11.5794

> <b_lp_Chiralities_Consistent>
1

> <s_lp_Variant>
AV-unprocessed.smi:2649-1

> <Gold.Version>
5.8.1

> <Gold.Id.Protein>
6NUR|6NUR_protein|mol2

> <Gold.PLP.Fitness>
42.6604

> <Gold.PLP.PLP>
-42.0595

> <Gold.PLP.part.hbond>
-1.7639

> <Gold.PLP.part.metal>
0.0000

> <Gold.PLP.part.buried>
-2.6817

> <Gold.PLP.part.nonpolar>
-37.0595

> <Gold.PLP.part.repulsive>
0.5904

> <Gold.PLP.ligand.clash>
0.0000

> <Gold.PLP.ligand.torsion>
0.5125

> <Gold.PLP.Chemscore.Hbond>
0.5410

> <Gold.PLP.Chemscore.CHOScore>
0.0000

> <Gold.PLP.Chemscore.Metal>
0.0000

> <Gold.Chemscore.Hbonds>
donor molecule, donor type, donor heavy atom, donor atom, acceptor molecule, acceptor atom, score
      P1  H  7989  7998       L1    12  0.14
      P1  H  8011  8017       L1    12  0.31

> <Gold.PLP.Chemscore.Internal.Correction>
0.0031

> <Gold.Rescore>
     Score         DG    S(hbond)    S(metal)    S(lipo)     H(rot)  DE(clash)    DE(int)     intcor
     13.65     -17.33       0.78        0.00     108.45       1.34       1.92       1.77       ----

> <Gold.Chemscore.Fitness>
13.6484

> <Gold.Chemscore.DG>
-17.3350

> <Gold.Chemscore.ZeroCoef>
-5.4800

> <Gold.Chemscore.Hbond>
0.7782

> <Gold.Chemscore.Metal>
0.0000

> <Gold.Chemscore.Lipo>
108.4504

> <Gold.Chemscore.Internal_Hbond>
0.0000

> <Gold.Chemscore.DEClash>
1.9157

> <Gold.Chemscore.DEInternal>
1.7709

> <Gold.Chemscore.Rot>
1.3410

> <Gold.Chemscore.Internal.Correction>
   9.000000E+99

> <Gold.Chemscore.Hbonds>
donor molecule, donor type, donor heavy atom, donor atom, acceptor molecule, acceptor atom, score
      P1  H  8011  8017       L1    12  0.30

> <Gold.Chemscore.Hbond.Weighted>
-2.5993

> <Gold.Chemscore.Metal.Weighted>
-0.0000

> <Gold.Chemscore.Lipo.Weighted>
-12.6887

> <Gold.Chemscore.Internal_Hbond.Weighted>
0.0000

> <Gold.Chemscore.DEClash.Weighted>
1.9157

> <Gold.Chemscore.DEInternal.Weighted>
1.7709

> <Gold.Chemscore.Rot.Weighted>
3.4331

> <Gold.Chemscore.Internal.Correction.Weighted>
   9.000000E+99

> <Gold.Protein.RotatedTorsions>
[ 6907 6896 6895 6894 ] final  -44.68 input  -60.11 | X-H torsion
[ 7974 7965 7964 7962 ] final  -13.13 input  175.53 | X-H torsion
[ 8008 7997 7996 7995 ] final -157.55 input   59.86 | X-H torsion
[ 10167 10162 10161 10158 ] final  104.98 input  -65.29 | X-H torsion
[ 10718 10713 10712 10709 ] final   66.28 input   66.30 | X-H torsion
[ 10763 10752 10751 10750 ] final -162.42 input  -60.55 | X-H torsion
[ 11005 11000 10999 10996 ] final  -13.06 input  -57.11 | X-H torsion

> <Gold.Protein.ActiveResidues>
 VAL166  LYS551  ARG553  GLY616  TRP617  ASP618  TYR619  PRO620  LYS621  CYS622 
 ASP623  PHE694  ASN695  SER759  ASP760  ASP761  ALA762  ILE779  LEU786  VAL792 
 PHE793  MET794  SER795  GLU796  ALA797  LYS798  CYS799  TRP800  GLU811  SER814 

> <Gold.Protein.RotatedAtoms>
  150.9301  134.8717  159.7545 H   0  0  0  0  0  0  0  0  0  0  0  0  # atno 6907 bound_to 6896
  152.5034  134.4091  159.9452 H   0  0  0  0  0  0  0  0  0  0  0  0  # atno 6908 bound_to 6896
  151.4119  133.3685  159.2780 H   0  0  0  0  0  0  0  0  0  0  0  0  # atno 6909 bound_to 6896
  146.2126  140.3158  142.8386 H   0  0  0  0  0  0  0  0  0  0  0  0  # atno 7974 bound_to 7965
  155.7342  140.0806  157.2275 H   0  0  0  0  0  0  0  0  0  0  0  0  # atno 8008 bound_to 7997
  154.4029  140.1590  156.2597 H   0  0  0  0  0  0  0  0  0  0  0  0  # atno 8009 bound_to 7997
  155.9081  140.3405  155.6080 H   0  0  0  0  0  0  0  0  0  0  0  0  # atno 8010 bound_to 7997
  139.7131  144.7073  151.0994 H   0  0  0  0  0  0  0  0  0  0  0  0  # atno 10167 bound_to 10162
  157.6159  130.9259  150.0088 H   0  0  0  0  0  0  0  0  0  0  0  0  # atno 10718 bound_to 10713
  154.7215  135.3027  154.9039 H   0  0  0  0  0  0  0  0  0  0  0  0  # atno 10763 bound_to 10752
  153.9909  135.6719  153.4758 H   0  0  0  0  0  0  0  0  0  0  0  0  # atno 10764 bound_to 10752
  153.0838  135.4995  154.8474 H   0  0  0  0  0  0  0  0  0  0  0  0  # atno 10765 bound_to 10752
  140.7721  133.8430  155.9216 H   0  0  0  0  0  0  0  0  0  0  0  0  # atno 11005 bound_to 11000
  144.8955  140.7578  143.5900 LP  0  0  0  0  0  0  0  0  0  0  0  0  # atno 17320 bound_to 7965
  145.3082  139.1827  143.4653 LP  0  0  0  0  0  0  0  0  0  0  0  0  # atno 17321 bound_to 7965
  140.7738  143.5266  150.9473 LP  0  0  0  0  0  0  0  0  0  0  0  0  # atno 17342 bound_to 10162
  139.8951  143.6904  152.3139 LP  0  0  0  0  0  0  0  0  0  0  0  0  # atno 17343 bound_to 10162
  156.1281  130.3644  149.9776 LP  0  0  0  0  0  0  0  0  0  0  0  0  # atno 17370 bound_to 10713
  156.7843  130.9232  151.3646 LP  0  0  0  0  0  0  0  0  0  0  0  0  # atno 17371 bound_to 10713
  140.9563  134.1713  157.4689 LP  0  0  0  0  0  0  0  0  0  0  0  0  # atno 17394 bound_to 11000
  139.8754  134.9928  156.5615 LP  0  0  0  0  0  0  0  0  0  0  0  0  # atno 17395 bound_to 11000

$$$$
