AV-unprocessed.smi:2913|AV-procd|sdf|11182|dock4
  -GOLD-   2272016 73D 1   1.00000     0.00000
 Structure written by MMmdl.
 41 42  0  0  0  0  0  0  0  0  1 V2000
  145.5407  135.8673  151.4922 C   0  0  0  0  0  0  0  0  0  0  0  0
  145.5259  134.3491  151.4232 C   0  0  0  0  0  0  0  0  0  0  0  0
  144.5232  133.7152  150.7752 C   0  0  0  0  0  0  0  0  0  0  0  0
  144.4447  132.2574  150.6699 C   0  0  0  0  0  0  0  0  0  0  0  0
  143.5291  131.6895  150.0741 O   0  0  0  0  0  0  0  0  0  0  0  0
  145.4510  131.5703  151.2768 N   0  0  0  0  0  0  0  0  0  0  0  0
  145.4597  130.1055  151.2372 C   0  0  0  0  0  0  0  0  0  0  0  0
  146.4985  132.2163  151.9548 C   0  0  0  0  0  0  0  0  0  0  0  0
  146.5827  133.5621  152.0463 C   0  0  0  0  0  0  0  0  0  0  0  0
  147.6050  134.2487  152.7232 N   0  0  0  0  0  0  0  0  0  0  0  0
  148.1866  133.9726  153.9054 C   0  0  0  0  0  0  0  0  0  0  0  0
  147.9431  133.0002  154.6192 O   0  0  0  0  0  0  0  0  0  0  0  0
  149.1067  134.9001  154.2079 N   0  0  0  0  0  0  0  0  0  0  0  0
  149.9654  134.9065  155.3913 C   0  0  2  0  0  0  0  0  0  0  0  0
  149.1030  134.6584  156.6375 C   0  0  0  0  0  0  0  0  0  0  0  0
  150.7355  136.2391  155.4762 C   0  0  2  0  0  0  0  0  0  0  0  0
  149.8681  137.4908  155.3164 C   0  0  0  0  0  0  0  0  0  0  0  0
  150.8750  138.5010  154.8187 C   0  0  0  0  0  0  0  0  0  0  0  0
  151.7262  137.6469  153.8853 C   0  0  0  0  0  0  0  0  0  0  0  0
  151.7008  136.3297  154.4296 O   0  0  0  0  0  0  0  0  0  0  0  0
  144.6930  136.3049  150.9637 H   0  0  0  0  0  0  0  0  0  0  0  0
  146.4538  136.2585  151.0424 H   0  0  0  0  0  0  0  0  0  0  0  0
  145.4974  136.2001  152.5295 H   0  0  0  0  0  0  0  0  0  0  0  0
  143.7405  134.2983  150.3118 H   0  0  0  0  0  0  0  0  0  0  0  0
  146.3183  129.6714  151.7504 H   0  0  0  0  0  0  0  0  0  0  0  0
  145.4860  129.7502  150.2062 H   0  0  0  0  0  0  0  0  0  0  0  0
  144.5623  129.7054  151.7113 H   0  0  0  0  0  0  0  0  0  0  0  0
  147.2065  131.5337  152.3962 H   0  0  0  0  0  0  0  0  0  0  0  0
  147.9587  135.0582  152.2348 H   0  0  0  0  0  0  0  0  0  0  0  0
  149.2382  135.6604  153.5570 H   0  0  0  0  0  0  0  0  0  0  0  0
  150.6973  134.0994  155.3295 H   0  0  0  0  0  0  0  0  0  0  0  0
  149.7148  134.6227  157.5392 H   0  0  0  0  0  0  0  0  0  0  0  0
  148.5731  133.7079  156.5646 H   0  0  0  0  0  0  0  0  0  0  0  0
  148.3601  135.4453  156.7710 H   0  0  0  0  0  0  0  0  0  0  0  0
  151.2721  136.3026  156.4244 H   0  0  0  0  0  0  0  0  0  0  0  0
  149.0967  137.3314  154.5613 H   0  0  0  0  0  0  0  0  0  0  0  0
  149.3810  137.7943  156.2435 H   0  0  0  0  0  0  0  0  0  0  0  0
  150.4179  139.3555  154.3190 H   0  0  0  0  0  0  0  0  0  0  0  0
  151.4790  138.8696  155.6491 H   0  0  0  0  0  0  0  0  0  0  0  0
  151.2838  137.6169  152.8889 H   0  0  0  0  0  0  0  0  0  0  0  0
  152.7457  138.0210  153.7918 H   0  0  0  0  0  0  0  0  0  0  0  0
  1  2  1  0  0  0  0
  1 21  1  0  0  0  0
  1 22  1  0  0  0  0
  1 23  1  0  0  0  0
  2  9  1  0  0  0  0
  2  3  2  0  0  0  0
  3  4  1  0  0  0  0
  3 24  1  0  0  0  0
  4  5  2  0  0  0  0
  4  6  1  0  0  0  0
  6  7  1  0  0  0  0
  6  8  1  0  0  0  0
  7 25  1  0  0  0  0
  7 26  1  0  0  0  0
  7 27  1  0  0  0  0
  8  9  2  0  0  0  0
  8 28  1  0  0  0  0
  9 10  1  0  0  0  0
 10 11  1  0  0  0  0
 10 29  1  0  0  0  0
 11 12  2  0  0  0  0
 11 13  1  0  0  0  0
 13 14  1  0  0  0  0
 13 30  1  0  0  0  0
 14 15  1  0  0  0  0
 14 16  1  0  0  0  0
 14 31  1  0  0  0  0
 15 32  1  0  0  0  0
 15 33  1  0  0  0  0
 15 34  1  0  0  0  0
 16 20  1  0  0  0  0
 16 17  1  0  0  0  0
 16 35  1  0  0  0  0
 17 18  1  0  0  0  0
 17 36  1  0  0  0  0
 17 37  1  0  0  0  0
 18 19  1  0  0  0  0
 18 38  1  0  0  0  0
 18 39  1  0  0  0  0
 19 20  1  0  0  0  0
 19 40  1  0  0  0  0
 19 41  1  0  0  0  0
M  END
> <s_m_source_file>
AV-unprocessed.smi

> <i_m_source_file_index>
2913

> <i_lp_mmshare_version>
43012

> <i_f3d_flags>
0

> <s_epik_input>
W0NIM11jMVtjSF1jKD1PKW4oW0NIM10pW2NIXWMxW05IXUMoPU8pW05IXVtDQEhdKFtDSDNdKVtDQEBIXTJbQ0gyXVtDSDJdW0NIMl1PMg==

> <s_epik_cmdline>
J2VwaWtfcHl0aG9uJywgJy1waCcsICc3LjAnLCAnLXRuJywgJzgnLCAnLW1hJywgJzIwMCcsICctbWV0YWxfYmluZGluZycsICctaW1hZScsICc8aW5maWxlLm1hZT4nLCAnLW9tYWUnLCAnPG91dGZpbGUubWFlPic=

> <r_lp_tautomer_probability>
1

> <r_epik_Ionization_Penalty>
2.72039e-05

> <r_epik_Ionization_Penalty_Charging>
8.03976e-06

> <r_epik_Ionization_Penalty_Neutral>
1.91642e-05

> <r_epik_State_Penalty>
-0

> <r_epik_Charging_Adjusted_Penalty>
8.03976e-06

> <i_epik_Tot_Q>
0

> <i_epik_Tot_abs_Q>
0

> <r_epik_Metal_State_Penalty>
-0

> <b_epik_Metal_Only>
0

> <s_lp_Force_Field>
OPLS_2005

> <r_lp_Energy>
32.2239

> <b_lp_Chiralities_Consistent>
1

> <s_lp_Variant>
AV-unprocessed.smi:2913-1

> <Gold.Version>
5.8.1

> <Gold.Id.Protein>
6NUR|6NUR_protein|mol2

> <Gold.PLP.Fitness>
43.6675

> <Gold.PLP.PLP>
-33.2146

> <Gold.PLP.part.hbond>
-4.0000

> <Gold.PLP.part.metal>
0.0000

> <Gold.PLP.part.buried>
-5.8393

> <Gold.PLP.part.nonpolar>
-24.6432

> <Gold.PLP.part.repulsive>
0.5322

> <Gold.PLP.ligand.clash>
0.0000

> <Gold.PLP.ligand.torsion>
0.5383

> <Gold.PLP.Chemscore.Hbond>
3.8400

> <Gold.PLP.Chemscore.CHOScore>
0.0000

> <Gold.PLP.Chemscore.Metal>
0.0000

> <Gold.Chemscore.Hbonds>
donor molecule, donor type, donor heavy atom, donor atom, acceptor molecule, acceptor atom, score
      L1  H    10    29       P1  7948  1.00
      L1  H    13    30       P1  7948  0.90
      P1  H 10752 10763       L1    20  0.89
      P1  H 10785 10796       L1     5  0.87
      L1  C     8    28       P1 10747  0.11

> <Gold.PLP.Chemscore.Internal.Correction>
0.0095

> <Gold.Rescore>
     Score         DG    S(hbond)    S(metal)    S(lipo)     H(rot)  DE(clash)    DE(int)     intcor
     20.03     -21.99       3.54        0.00      66.60       1.21       0.15       1.80       ----

> <Gold.Chemscore.Fitness>
20.0320

> <Gold.Chemscore.DG>
-21.9869

> <Gold.Chemscore.ZeroCoef>
-5.4800

> <Gold.Chemscore.Hbond>
3.5366

> <Gold.Chemscore.Metal>
0.0000

> <Gold.Chemscore.Lipo>
66.6017

> <Gold.Chemscore.Internal_Hbond>
0.0000

> <Gold.Chemscore.DEClash>
0.1541

> <Gold.Chemscore.DEInternal>
1.8007

> <Gold.Chemscore.Rot>
1.2101

> <Gold.Chemscore.Internal.Correction>
   9.000000E+99

> <Gold.Chemscore.Hbonds>
donor molecule, donor type, donor heavy atom, donor atom, acceptor molecule, acceptor atom, score
      L1  H    10    29       P1  7948  0.77
      L1  H    13    30       P1  7948  0.49
      P1  H 10752 10763       L1    20  0.72
      P1  H 10785 10796       L1     5  0.82

> <Gold.Chemscore.Hbond.Weighted>
-11.8124

> <Gold.Chemscore.Metal.Weighted>
-0.0000

> <Gold.Chemscore.Lipo.Weighted>
-7.7924

> <Gold.Chemscore.Internal_Hbond.Weighted>
0.0000

> <Gold.Chemscore.DEClash.Weighted>
0.1541

> <Gold.Chemscore.DEInternal.Weighted>
1.8007

> <Gold.Chemscore.Rot.Weighted>
3.0979

> <Gold.Chemscore.Internal.Correction.Weighted>
   9.000000E+99

> <Gold.Protein.RotatedTorsions>
[ 6907 6896 6895 6894 ] final   51.65 input  -60.11 | X-H torsion
[ 7974 7965 7964 7962 ] final  -82.64 input  175.53 | X-H torsion
[ 8008 7997 7996 7995 ] final  -29.98 input   59.86 | X-H torsion
[ 10167 10162 10161 10158 ] final   90.07 input  -65.29 | X-H torsion
[ 10718 10713 10712 10709 ] final -180.00 input   66.30 | X-H torsion
[ 10763 10752 10751 10750 ] final   66.26 input  -60.55 | X-H torsion
[ 11005 11000 10999 10996 ] final   75.02 input  -57.11 | X-H torsion

> <Gold.Protein.ActiveResidues>
 VAL166  LYS551  ARG553  GLY616  TRP617  ASP618  TYR619  PRO620  LYS621  CYS622 
 ASP623  PHE694  ASN695  SER759  ASP760  ASP761  ALA762  ILE779  LEU786  VAL792 
 PHE793  MET794  SER795  GLU796  ALA797  LYS798  CYS799  TRP800  GLU811  SER814 

> <Gold.Protein.RotatedAtoms>
  152.3149  134.7452  160.0327 H   0  0  0  0  0  0  0  0  0  0  0  0  # atno 6907 bound_to 6896
  151.7920  133.3355  159.3510 H   0  0  0  0  0  0  0  0  0  0  0  0  # atno 6908 bound_to 6896
  150.7339  134.5764  159.5961 H   0  0  0  0  0  0  0  0  0  0  0  0  # atno 6909 bound_to 6896
  145.5306  140.9521  143.1605 H   0  0  0  0  0  0  0  0  0  0  0  0  # atno 7974 bound_to 7965
  154.4268  140.1803  156.1335 H   0  0  0  0  0  0  0  0  0  0  0  0  # atno 8008 bound_to 7997
  156.0049  140.3356  155.6857 H   0  0  0  0  0  0  0  0  0  0  0  0  # atno 8009 bound_to 7997
  155.6192  140.0658  157.2674 H   0  0  0  0  0  0  0  0  0  0  0  0  # atno 8010 bound_to 7997
  139.8510  144.6593  150.9170 H   0  0  0  0  0  0  0  0  0  0  0  0  # atno 10167 bound_to 10162
  156.8674  130.9772  151.3077 H   0  0  0  0  0  0  0  0  0  0  0  0  # atno 10718 bound_to 10713
  153.0132  135.5327  154.6795 H   0  0  0  0  0  0  0  0  0  0  0  0  # atno 10763 bound_to 10752
  154.5959  135.2863  155.0589 H   0  0  0  0  0  0  0  0  0  0  0  0  # atno 10764 bound_to 10752
  154.1664  135.6539  153.5051 H   0  0  0  0  0  0  0  0  0  0  0  0  # atno 10765 bound_to 10752
  139.9363  134.7482  156.1220 H   0  0  0  0  0  0  0  0  0  0  0  0  # atno 11005 bound_to 11000
  144.7628  139.6916  143.7227 LP  0  0  0  0  0  0  0  0  0  0  0  0  # atno 17320 bound_to 7965
  146.2047  139.5363  142.9720 LP  0  0  0  0  0  0  0  0  0  0  0  0  # atno 17321 bound_to 7965
  140.7787  143.3827  151.1448 LP  0  0  0  0  0  0  0  0  0  0  0  0  # atno 17342 bound_to 10162
  139.7465  143.8843  152.3065 LP  0  0  0  0  0  0  0  0  0  0  0  0  # atno 17343 bound_to 10162
  157.6215  130.8659  149.9117 LP  0  0  0  0  0  0  0  0  0  0  0  0  # atno 17370 bound_to 10713
  156.0744  130.3681  150.0707 LP  0  0  0  0  0  0  0  0  0  0  0  0  # atno 17371 bound_to 10713
  141.0978  133.6689  156.2685 LP  0  0  0  0  0  0  0  0  0  0  0  0  # atno 17394 bound_to 11000
  140.6067  134.5500  157.5527 LP  0  0  0  0  0  0  0  0  0  0  0  0  # atno 17395 bound_to 11000

$$$$
