AV-unprocessed.smi:3223|AV-procd|sdf|12307|dock2
  -GOLD-   2272018153D 1   1.00000     0.00000
 Structure written by MMmdl.
 43 43  0  0  0  0  0  0  0  0  2 V2000
  143.6173  132.0311  150.4585 C   0  0  0  0  0  0  0  0  0  0  0  0
  144.0631  133.3694  150.9731 C   0  0  0  0  0  0  0  0  0  0  0  0
  143.8269  133.9348  152.2583 C   0  0  0  0  0  0  0  0  0  0  0  0
  144.3543  135.1405  152.3931 N   0  0  0  0  0  0  0  0  0  0  0  0
  144.9510  135.3845  151.2070 N   0  0  0  0  0  0  0  0  0  0  0  0
  145.6318  136.6490  150.9840 C   0  0  0  0  0  0  0  0  0  0  0  0
  145.9308  137.4097  152.2922 C   0  0  2  0  0  0  0  0  0  0  0  0
  146.6822  138.7188  152.0002 C   0  0  0  0  0  0  0  0  0  0  0  0
  146.7060  136.5509  153.2168 N   0  3  0  0  0  0  0  0  0  0  0  0
  146.8637  137.0850  154.5853 C   0  0  0  0  0  0  0  0  0  0  0  0
  148.0173  136.3816  155.3197 C   0  0  0  0  0  0  0  0  0  0  0  0
  148.1021  134.8900  154.9838 C   0  0  0  0  0  0  0  0  0  0  0  0
  147.6750  134.0512  155.7772 O   0  0  0  0  0  0  0  0  0  0  0  0
  148.6512  134.5738  153.8004 N   0  0  0  0  0  0  0  0  0  0  0  0
  148.8321  133.2190  153.2863 C   0  0  0  0  0  0  0  0  0  0  0  0
  147.4677  132.6325  152.9001 C   0  0  0  0  0  0  0  0  0  0  0  0
  149.5537  132.3450  154.3235 C   0  0  0  0  0  0  0  0  0  0  0  0
  144.7823  134.3354  150.3279 C   0  0  0  0  0  0  0  0  0  0  0  0
  142.9931  131.5058  151.1817 H   0  0  0  0  0  0  0  0  0  0  0  0
  144.4651  131.3832  150.2358 H   0  0  0  0  0  0  0  0  0  0  0  0
  143.0347  132.1261  149.5420 H   0  0  0  0  0  0  0  0  0  0  0  0
  143.2888  133.5078  153.0917 H   0  0  0  0  0  0  0  0  0  0  0  0
  146.5556  136.4559  150.4364 H   0  0  0  0  0  0  0  0  0  0  0  0
  145.0034  137.2558  150.3304 H   0  0  0  0  0  0  0  0  0  0  0  0
  144.9803  137.6609  152.7657 H   0  0  0  0  0  0  0  0  0  0  0  0
  146.1184  139.3447  151.3078 H   0  0  0  0  0  0  0  0  0  0  0  0
  147.6570  138.5257  151.5514 H   0  0  0  0  0  0  0  0  0  0  0  0
  146.8415  139.3050  152.9051 H   0  0  0  0  0  0  0  0  0  0  0  0
  146.2148  135.6719  153.2977 H   0  0  0  0  0  0  0  0  0  0  0  0
  147.0524  138.1581  154.5438 H   0  0  0  0  0  0  0  0  0  0  0  0
  145.9263  136.9417  155.1253 H   0  0  0  0  0  0  0  0  0  0  0  0
  148.9680  136.8446  155.0525 H   0  0  0  0  0  0  0  0  0  0  0  0
  147.8992  136.5082  156.3972 H   0  0  0  0  0  0  0  0  0  0  0  0
  148.9691  135.3276  153.2083 H   0  0  0  0  0  0  0  0  0  0  0  0
  149.4420  133.2579  152.3820 H   0  0  0  0  0  0  0  0  0  0  0  0
  147.5761  131.6282  152.4897 H   0  0  0  0  0  0  0  0  0  0  0  0
  146.9763  133.2449  152.1432 H   0  0  0  0  0  0  0  0  0  0  0  0
  146.8023  132.5689  153.7620 H   0  0  0  0  0  0  0  0  0  0  0  0
  149.7034  131.3333  153.9457 H   0  0  0  0  0  0  0  0  0  0  0  0
  148.9816  132.2727  155.2492 H   0  0  0  0  0  0  0  0  0  0  0  0
  150.5356  132.7507  154.5691 H   0  0  0  0  0  0  0  0  0  0  0  0
  145.1843  134.3606  149.3257 H   0  0  0  0  0  0  0  0  0  0  0  0
  147.6159  136.3749  152.8156 H   0  0  0  0  0  0  0  0  0  0  0  0
  1  2  1  0  0  0  0
  1 19  1  0  0  0  0
  1 20  1  0  0  0  0
  1 21  1  0  0  0  0
  2 18  2  0  0  0  0
  2  3  1  0  0  0  0
  3  4  2  0  0  0  0
  3 22  1  0  0  0  0
  4  5  1  0  0  0  0
  5  6  1  0  0  0  0
  5 18  1  0  0  0  0
  6  7  1  0  0  0  0
  6 23  1  0  0  0  0
  6 24  1  0  0  0  0
  7  8  1  0  0  0  0
  7  9  1  0  0  0  0
  7 25  1  0  0  0  0
  8 26  1  0  0  0  0
  8 27  1  0  0  0  0
  8 28  1  0  0  0  0
  9 10  1  0  0  0  0
  9 29  1  0  0  0  0
  9 43  1  0  0  0  0
 10 11  1  0  0  0  0
 10 30  1  0  0  0  0
 10 31  1  0  0  0  0
 11 12  1  0  0  0  0
 11 32  1  0  0  0  0
 11 33  1  0  0  0  0
 12 13  2  0  0  0  0
 12 14  1  0  0  0  0
 14 15  1  0  0  0  0
 14 34  1  0  0  0  0
 15 16  1  0  0  0  0
 15 17  1  0  0  0  0
 15 35  1  0  0  0  0
 16 36  1  0  0  0  0
 16 37  1  0  0  0  0
 16 38  1  0  0  0  0
 17 39  1  0  0  0  0
 17 40  1  0  0  0  0
 17 41  1  0  0  0  0
 18 42  1  0  0  0  0
M  CHG  1   9   1
M  END
> <s_m_source_file>
AV-unprocessed.smi

> <i_m_source_file_index>
3223

> <i_lp_mmshare_version>
43012

> <i_f3d_flags>
0

> <s_epik_input>
W0NIM11jMVtjSF1ubihbY0hdMSlbQ0gyXVtDQEhdKFtDSDNdKVtOSF1bQ0gyXVtDSDJdQyg9TylbTkhdW0NIXShbQ0gzXSlbQ0gzXQ==

> <s_epik_cmdline>
J2VwaWtfcHl0aG9uJywgJy1waCcsICc3LjAnLCAnLXRuJywgJzgnLCAnLW1hJywgJzIwMCcsICctbWV0YWxfYmluZGluZycsICctaW1hZScsICc8aW5maWxlLm1hZT4nLCAnLW9tYWUnLCAnPG91dGZpbGUubWFlPic=

> <r_lp_tautomer_probability>
1

> <r_epik_Ionization_Penalty>
0.0057861

> <r_epik_Ionization_Penalty_Charging>
0.00577767

> <r_epik_Ionization_Penalty_Neutral>
8.4224e-06

> <r_epik_State_Penalty>
0.00424195

> <r_epik_Charging_Adjusted_Penalty>
0.0100196

> <i_epik_Tot_Q>
1

> <i_epik_Tot_abs_Q>
1

> <r_epik_Metal_State_Penalty>
-0

> <b_epik_Metal_Only>
0

> <s_lp_Force_Field>
OPLS_2005

> <r_lp_Energy>
5.53081

> <b_lp_Chiralities_Consistent>
1

> <s_lp_Variant>
AV-unprocessed.smi:3223-1

> <Gold.Version>
5.8.1

> <Gold.Id.Protein>
6NUR|6NUR_protein|mol2

> <Gold.PLP.Fitness>
45.3125

> <Gold.PLP.PLP>
-31.6012

> <Gold.PLP.part.hbond>
-2.0000

> <Gold.PLP.part.metal>
0.0000

> <Gold.PLP.part.buried>
0.6972

> <Gold.PLP.part.nonpolar>
-31.1465

> <Gold.PLP.part.repulsive>
0.1188

> <Gold.PLP.ligand.clash>
0.0000

> <Gold.PLP.ligand.torsion>
0.7647

> <Gold.PLP.Chemscore.Hbond>
3.0000

> <Gold.PLP.Chemscore.CHOScore>
2.0000

> <Gold.PLP.Chemscore.Metal>
0.0000

> <Gold.Chemscore.Hbonds>
donor molecule, donor type, donor heavy atom, donor atom, acceptor molecule, acceptor atom, score
      L1  H     9    43       P1  7948  2.00
      L1  H    14    34       P1  7948  1.00
      L1  C     3    22       P1 10957  1.00
      L1  C    18    42       P1  7921  0.90

> <Gold.PLP.Chemscore.Internal.Correction>
0.2408

> <Gold.Rescore>
     Score         DG    S(hbond)    S(metal)    S(lipo)     H(rot)  DE(clash)    DE(int)     intcor
     10.49     -14.59       1.92        0.00      70.88       2.19       1.39       2.71       ----

> <Gold.Chemscore.Fitness>
10.4904

> <Gold.Chemscore.DG>
-14.5932

> <Gold.Chemscore.ZeroCoef>
-5.4800

> <Gold.Chemscore.Hbond>
1.9203

> <Gold.Chemscore.Metal>
0.0000

> <Gold.Chemscore.Lipo>
70.8816

> <Gold.Chemscore.Internal_Hbond>
0.0000

> <Gold.Chemscore.DEClash>
1.3885

> <Gold.Chemscore.DEInternal>
2.7143

> <Gold.Chemscore.Rot>
2.1850

> <Gold.Chemscore.Internal.Correction>
   9.000000E+99

> <Gold.Chemscore.Hbonds>
donor molecule, donor type, donor heavy atom, donor atom, acceptor molecule, acceptor atom, score
      L1  H     9    43       P1  7948  1.00
      L1  H    14    34       P1  7948  0.48

> <Gold.Chemscore.Hbond.Weighted>
-6.4137

> <Gold.Chemscore.Metal.Weighted>
-0.0000

> <Gold.Chemscore.Lipo.Weighted>
-8.2931

> <Gold.Chemscore.Internal_Hbond.Weighted>
0.0000

> <Gold.Chemscore.DEClash.Weighted>
1.3885

> <Gold.Chemscore.DEInternal.Weighted>
2.7143

> <Gold.Chemscore.Rot.Weighted>
5.5936

> <Gold.Chemscore.Internal.Correction.Weighted>
   9.000000E+99

> <Gold.Protein.RotatedTorsions>
[ 6907 6896 6895 6894 ] final -120.41 input  -60.11 | X-H torsion
[ 7974 7965 7964 7962 ] final   85.32 input  175.53 | X-H torsion
[ 8008 7997 7996 7995 ] final   71.94 input   59.86 | X-H torsion
[ 10167 10162 10161 10158 ] final   55.57 input  -65.29 | X-H torsion
[ 10718 10713 10712 10709 ] final  -87.89 input   66.30 | X-H torsion
[ 10763 10752 10751 10750 ] final   -0.13 input  -60.55 | X-H torsion
[ 11005 11000 10999 10996 ] final  -55.85 input  -57.11 | X-H torsion

> <Gold.Protein.ActiveResidues>
 VAL166  LYS551  ARG553  GLY616  TRP617  ASP618  TYR619  PRO620  LYS621  CYS622 
 ASP623  PHE694  ASN695  SER759  ASP760  ASP761  ALA762  ILE779  LEU786  VAL792 
 PHE793  MET794  SER795  GLU796  ALA797  LYS798  CYS799  TRP800  GLU811  SER814 

> <Gold.Protein.RotatedAtoms>
  150.8391  133.7966  159.3067 H   0  0  0  0  0  0  0  0  0  0  0  0  # atno 6907 bound_to 6896
  151.5673  135.1062  159.9996 H   0  0  0  0  0  0  0  0  0  0  0  0  # atno 6908 bound_to 6896
  152.4458  133.7491  159.6740 H   0  0  0  0  0  0  0  0  0  0  0  0  # atno 6909 bound_to 6896
  145.5871  139.2333  143.2320 H   0  0  0  0  0  0  0  0  0  0  0  0  # atno 7974 bound_to 7965
  155.7614  140.3486  155.5200 H   0  0  0  0  0  0  0  0  0  0  0  0  # atno 8008 bound_to 7997
  155.8910  140.1018  157.1440 H   0  0  0  0  0  0  0  0  0  0  0  0  # atno 8009 bound_to 7997
  154.4033  140.1304  156.4302 H   0  0  0  0  0  0  0  0  0  0  0  0  # atno 8010 bound_to 7997
  140.2181  144.3818  150.6461 H   0  0  0  0  0  0  0  0  0  0  0  0  # atno 10167 bound_to 10162
  155.9984  130.4816  150.4935 H   0  0  0  0  0  0  0  0  0  0  0  0  # atno 10718 bound_to 10713
  153.3279  135.6973  153.6973 H   0  0  0  0  0  0  0  0  0  0  0  0  # atno 10763 bound_to 10752
  153.5787  135.3502  155.2867 H   0  0  0  0  0  0  0  0  0  0  0  0  # atno 10764 bound_to 10752
  154.8612  135.4290  154.2460 H   0  0  0  0  0  0  0  0  0  0  0  0  # atno 10765 bound_to 10752
  141.1093  133.6611  156.4531 H   0  0  0  0  0  0  0  0  0  0  0  0  # atno 11005 bound_to 11000
  146.1674  140.6697  142.9249 LP  0  0  0  0  0  0  0  0  0  0  0  0  # atno 17320 bound_to 7965
  144.7368  140.4830  143.6898 LP  0  0  0  0  0  0  0  0  0  0  0  0  # atno 17321 bound_to 7965
  140.6275  143.2183  151.6565 LP  0  0  0  0  0  0  0  0  0  0  0  0  # atno 17342 bound_to 10162
  139.5154  144.3378  152.0768 LP  0  0  0  0  0  0  0  0  0  0  0  0  # atno 17343 bound_to 10162
  157.2928  131.0629  151.2122 LP  0  0  0  0  0  0  0  0  0  0  0  0  # atno 17370 bound_to 10713
  157.3129  130.6899  149.6226 LP  0  0  0  0  0  0  0  0  0  0  0  0  # atno 17371 bound_to 10713
  140.4819  134.6657  157.5174 LP  0  0  0  0  0  0  0  0  0  0  0  0  # atno 17394 bound_to 11000
  139.9978  134.6883  155.9580 LP  0  0  0  0  0  0  0  0  0  0  0  0  # atno 17395 bound_to 11000

$$$$
