AV-unprocessed.smi:349|AV-procd|sdf|2396|dock10
  -GOLD-   2262022323D 1   1.00000     0.00000
 Structure written by MMmdl.
 43 44  0  0  0  0  0  0  0  0  1 V2000
  153.1310  142.3068  160.6712 C   0  0  0  0  0  0  0  0  0  0  0  0
  153.3187  142.9981  159.3115 C   0  0  0  0  0  0  0  0  0  0  0  0
  152.1424  143.9072  158.8905 C   0  0  2  0  0  0  0  0  0  0  0  0
  151.9878  145.0909  159.8605 C   0  0  0  0  0  0  0  0  0  0  0  0
  150.8229  143.1269  158.7937 C   0  0  0  0  0  0  0  0  0  0  0  0
  149.8874  143.3944  159.5487 O   0  0  0  0  0  0  0  0  0  0  0  0
  150.7667  142.1569  157.8678 N   0  0  0  0  0  0  0  0  0  0  0  0
  149.6226  141.2778  157.6498 C   0  0  0  0  0  0  0  0  0  0  0  0
  149.7042  140.4580  156.3603 C   0  0  0  0  0  0  0  0  0  0  0  0
  150.6780  139.4409  156.2335 C   0  0  0  0  0  0  0  0  0  0  0  0
  150.7620  138.7070  155.0371 C   0  0  0  0  0  0  0  0  0  0  0  0
  149.8693  139.0241  153.9987 C   0  0  0  0  0  0  0  0  0  0  0  0
  148.9410  139.9972  154.0964 N   0  0  0  0  0  0  0  0  0  0  0  0
  148.8534  140.7064  155.2486 C   0  0  0  0  0  0  0  0  0  0  0  0
  147.8567  141.6958  155.3166 N   0  0  0  0  0  0  0  0  0  0  0  0
  146.8821  141.4471  156.3712 C   0  0  0  0  0  0  0  0  0  0  0  0
  145.9634  142.6700  156.5350 C   0  0  0  0  0  0  0  0  0  0  0  0
  145.3506  142.9812  155.2863 O   0  0  0  0  0  0  0  0  0  0  0  0
  146.3104  143.2917  154.2794 C   0  0  0  0  0  0  0  0  0  0  0  0
  147.2317  142.0804  154.0556 C   0  0  0  0  0  0  0  0  0  0  0  0
  153.9540  141.6206  160.8716 H   0  0  0  0  0  0  0  0  0  0  0  0
  152.2056  141.7309  160.6962 H   0  0  0  0  0  0  0  0  0  0  0  0
  153.1020  143.0268  161.4892 H   0  0  0  0  0  0  0  0  0  0  0  0
  154.2479  143.5696  159.3234 H   0  0  0  0  0  0  0  0  0  0  0  0
  153.4555  142.2266  158.5530 H   0  0  0  0  0  0  0  0  0  0  0  0
  152.3703  144.3192  157.9058 H   0  0  0  0  0  0  0  0  0  0  0  0
  151.1481  145.7284  159.5803 H   0  0  0  0  0  0  0  0  0  0  0  0
  152.8827  145.7137  159.8606 H   0  0  0  0  0  0  0  0  0  0  0  0
  151.8223  144.7525  160.8844 H   0  0  0  0  0  0  0  0  0  0  0  0
  151.5781  142.0054  157.2863 H   0  0  0  0  0  0  0  0  0  0  0  0
  149.4960  140.6486  158.5306 H   0  0  0  0  0  0  0  0  0  0  0  0
  148.7287  141.8988  157.5940 H   0  0  0  0  0  0  0  0  0  0  0  0
  151.3607  139.2220  157.0411 H   0  0  0  0  0  0  0  0  0  0  0  0
  151.4947  137.9229  154.9180 H   0  0  0  0  0  0  0  0  0  0  0  0
  149.9020  138.4838  153.0641 H   0  0  0  0  0  0  0  0  0  0  0  0
  146.2907  140.5670  156.1149 H   0  0  0  0  0  0  0  0  0  0  0  0
  147.3856  141.2299  157.3133 H   0  0  0  0  0  0  0  0  0  0  0  0
  145.1865  142.4609  157.2702 H   0  0  0  0  0  0  0  0  0  0  0  0
  146.5256  143.5308  156.9008 H   0  0  0  0  0  0  0  0  0  0  0  0
  145.7891  143.5440  153.3560 H   0  0  0  0  0  0  0  0  0  0  0  0
  146.8872  144.1710  154.5711 H   0  0  0  0  0  0  0  0  0  0  0  0
  148.0002  142.3220  153.3205 H   0  0  0  0  0  0  0  0  0  0  0  0
  146.6505  141.2469  153.6586 H   0  0  0  0  0  0  0  0  0  0  0  0
  1  2  1  0  0  0  0
  1 21  1  0  0  0  0
  1 22  1  0  0  0  0
  1 23  1  0  0  0  0
  2  3  1  0  0  0  0
  2 24  1  0  0  0  0
  2 25  1  0  0  0  0
  3  4  1  0  0  0  0
  3  5  1  0  0  0  0
  3 26  1  0  0  0  0
  4 27  1  0  0  0  0
  4 28  1  0  0  0  0
  4 29  1  0  0  0  0
  5  6  2  0  0  0  0
  5  7  1  0  0  0  0
  7  8  1  0  0  0  0
  7 30  1  0  0  0  0
  8  9  1  0  0  0  0
  8 31  1  0  0  0  0
  8 32  1  0  0  0  0
  9 14  1  0  0  0  0
  9 10  2  0  0  0  0
 10 11  1  0  0  0  0
 10 33  1  0  0  0  0
 11 12  2  0  0  0  0
 11 34  1  0  0  0  0
 12 13  1  0  0  0  0
 12 35  1  0  0  0  0
 13 14  2  0  0  0  0
 14 15  1  0  0  0  0
 15 20  1  0  0  0  0
 15 16  1  0  0  0  0
 16 17  1  0  0  0  0
 16 36  1  0  0  0  0
 16 37  1  0  0  0  0
 17 18  1  0  0  0  0
 17 38  1  0  0  0  0
 17 39  1  0  0  0  0
 18 19  1  0  0  0  0
 19 20  1  0  0  0  0
 19 40  1  0  0  0  0
 19 41  1  0  0  0  0
 20 42  1  0  0  0  0
 20 43  1  0  0  0  0
M  END
> <s_m_source_file>
AV-unprocessed.smi

> <i_m_source_file_index>
349

> <i_lp_mmshare_version>
43012

> <i_f3d_flags>
0

> <s_epik_input>
W0NIM11bQ0gyXVtDQEhdKFtDSDNdKUMoPU8pW05IXVtDSDJdYzFbY0hdW2NIXVtjSF1uYzFOMltDSDJdW0NIMl1PW0NIMl1bQ0gyXTI=

> <s_epik_cmdline>
J2VwaWtfcHl0aG9uJywgJy1waCcsICc3LjAnLCAnLXRuJywgJzgnLCAnLW1hJywgJzIwMCcsICctbWV0YWxfYmluZGluZycsICctaW1hZScsICc8aW5maWxlLm1hZT4nLCAnLW9tYWUnLCAnPG91dGZpbGUubWFlPic=

> <r_lp_tautomer_probability>
1

> <r_epik_Ionization_Penalty>
0.00513869

> <r_epik_Ionization_Penalty_Charging>
0

> <r_epik_Ionization_Penalty_Neutral>
0.00513869

> <r_epik_State_Penalty>
0.00374265

> <r_epik_Charging_Adjusted_Penalty>
0.00374265

> <i_epik_Tot_Q>
0

> <i_epik_Tot_abs_Q>
0

> <r_epik_Metal_State_Penalty>
-0

> <b_epik_Metal_Only>
0

> <s_lp_Force_Field>
OPLS_2005

> <r_lp_Energy>
18.1158

> <b_lp_Chiralities_Consistent>
1

> <s_lp_Variant>
AV-unprocessed.smi:349-1

> <Gold.Version>
5.8.1

> <Gold.Id.Protein>
6NUR|6NUR_protein|mol2

> <Gold.PLP.Fitness>
41.9853

> <Gold.PLP.PLP>
-38.8845

> <Gold.PLP.part.hbond>
-0.8214

> <Gold.PLP.part.metal>
0.0000

> <Gold.PLP.part.buried>
-6.4175

> <Gold.PLP.part.nonpolar>
-34.0282

> <Gold.PLP.part.repulsive>
1.2810

> <Gold.PLP.ligand.clash>
0.0000

> <Gold.PLP.ligand.torsion>
0.3743

> <Gold.PLP.Chemscore.Hbond>
0.0000

> <Gold.PLP.Chemscore.CHOScore>
1.2181

> <Gold.PLP.Chemscore.Metal>
0.0000

> <Gold.Chemscore.Hbonds>
donor molecule, donor type, donor heavy atom, donor atom, acceptor molecule, acceptor atom, score
      L1  C    12    35       P1  7948  0.64
      L1  C    12    35       P1  7957  0.63

> <Gold.PLP.Chemscore.Internal.Correction>
0.1951

> <Gold.Rescore>
     Score         DG    S(hbond)    S(metal)    S(lipo)     H(rot)  DE(clash)    DE(int)     intcor
     12.20     -12.58       0.00        0.00      96.55       1.64       0.01       0.36       ----

> <Gold.Chemscore.Fitness>
12.2049

> <Gold.Chemscore.DG>
-12.5760

> <Gold.Chemscore.ZeroCoef>
-5.4800

> <Gold.Chemscore.Hbond>
0.0000

> <Gold.Chemscore.Metal>
0.0000

> <Gold.Chemscore.Lipo>
96.5477

> <Gold.Chemscore.Internal_Hbond>
0.0000

> <Gold.Chemscore.DEClash>
0.0101

> <Gold.Chemscore.DEInternal>
0.3610

> <Gold.Chemscore.Rot>
1.6407

> <Gold.Chemscore.Internal.Correction>
   9.000000E+99

> <Gold.Chemscore.Hbond.Weighted>
-0.0001

> <Gold.Chemscore.Metal.Weighted>
-0.0000

> <Gold.Chemscore.Lipo.Weighted>
-11.2961

> <Gold.Chemscore.Internal_Hbond.Weighted>
0.0000

> <Gold.Chemscore.DEClash.Weighted>
0.0101

> <Gold.Chemscore.DEInternal.Weighted>
0.3610

> <Gold.Chemscore.Rot.Weighted>
4.2001

> <Gold.Chemscore.Internal.Correction.Weighted>
   9.000000E+99

> <Gold.Protein.RotatedTorsions>
[ 6907 6896 6895 6894 ] final -124.60 input  -60.11 | X-H torsion
[ 7974 7965 7964 7962 ] final  -63.63 input  175.53 | X-H torsion
[ 8008 7997 7996 7995 ] final -100.61 input   59.86 | X-H torsion
[ 10167 10162 10161 10158 ] final  -69.17 input  -65.29 | X-H torsion
[ 10718 10713 10712 10709 ] final  -43.57 input   66.30 | X-H torsion
[ 10763 10752 10751 10750 ] final  137.33 input  -60.55 | X-H torsion
[ 11005 11000 10999 10996 ] final -105.43 input  -57.11 | X-H torsion

> <Gold.Protein.ActiveResidues>
 VAL166  LYS551  ARG553  GLY616  TRP617  ASP618  TYR619  PRO620  LYS621  CYS622 
 ASP623  PHE694  ASN695  SER759  ASP760  ASP761  ALA762  ILE779  LEU786  VAL792 
 PHE793  MET794  SER795  GLU796  ALA797  LYS798  CYS799  TRP800  GLU811  SER814 

> <Gold.Protein.RotatedAtoms>
  150.8784  133.7406  159.2939 H   0  0  0  0  0  0  0  0  0  0  0  0  # atno 6907 bound_to 6896
  151.4995  135.1059  159.9835 H   0  0  0  0  0  0  0  0  0  0  0  0  # atno 6908 bound_to 6896
  152.4743  133.8056  159.7032 H   0  0  0  0  0  0  0  0  0  0  0  0  # atno 6909 bound_to 6896
  145.7767  140.8784  143.0352 H   0  0  0  0  0  0  0  0  0  0  0  0  # atno 7974 bound_to 7965
  154.8310  140.0440  157.1477 H   0  0  0  0  0  0  0  0  0  0  0  0  # atno 8008 bound_to 7997
  154.9152  140.3019  155.5225 H   0  0  0  0  0  0  0  0  0  0  0  0  # atno 8009 bound_to 7997
  156.2987  140.2351  156.4196 H   0  0  0  0  0  0  0  0  0  0  0  0  # atno 8010 bound_to 7997
  140.5451  143.2313  151.7017 H   0  0  0  0  0  0  0  0  0  0  0  0  # atno 10167 bound_to 10162
  156.2476  130.4185  149.8687 H   0  0  0  0  0  0  0  0  0  0  0  0  # atno 10718 bound_to 10713
  153.8712  135.3055  155.3442 H   0  0  0  0  0  0  0  0  0  0  0  0  # atno 10763 bound_to 10752
  154.7804  135.4838  153.9836 H   0  0  0  0  0  0  0  0  0  0  0  0  # atno 10764 bound_to 10752
  153.1405  135.6823  153.9131 H   0  0  0  0  0  0  0  0  0  0  0  0  # atno 10765 bound_to 10752
  141.1054  133.8807  157.1733 H   0  0  0  0  0  0  0  0  0  0  0  0  # atno 11005 bound_to 11000
  144.6803  139.9931  143.7484 LP  0  0  0  0  0  0  0  0  0  0  0  0  # atno 17320 bound_to 7965
  146.0115  139.3174  143.0867 LP  0  0  0  0  0  0  0  0  0  0  0  0  # atno 17321 bound_to 7965
  139.5004  144.3908  152.0282 LP  0  0  0  0  0  0  0  0  0  0  0  0  # atno 17342 bound_to 10162
  140.3020  144.3636  150.6057 LP  0  0  0  0  0  0  0  0  0  0  0  0  # atno 17343 bound_to 10162
  156.6246  130.8641  151.3483 LP  0  0  0  0  0  0  0  0  0  0  0  0  # atno 17370 bound_to 10713
  157.7201  130.9548  150.1407 LP  0  0  0  0  0  0  0  0  0  0  0  0  # atno 17371 bound_to 10713
  139.9921  135.0060  157.0000 LP  0  0  0  0  0  0  0  0  0  0  0  0  # atno 17394 bound_to 11000
  140.4917  134.1187  155.7234 LP  0  0  0  0  0  0  0  0  0  0  0  0  # atno 17395 bound_to 11000

$$$$
