AV-unprocessed.smi:284|AV-procd|sdf|2164|dock4
  -GOLD-   2262021523D 1   1.00000     0.00000
 Structure written by MMmdl.
 60 62  0  0  0  0  0  0  0  0  1 V2000
  146.1450  135.9343  162.2232 C   0  0  0  0  0  0  0  0  0  0  0  0
  146.9750  135.2217  161.1670 C   0  0  0  0  0  0  0  0  0  0  0  0
  147.2116  133.8902  161.2156 C   0  0  0  0  0  0  0  0  0  0  0  0
  147.9607  133.2126  160.2702 N   0  0  0  0  0  0  0  0  0  0  0  0
  148.2140  131.7223  160.3572 C   0  0  1  0  0  0  0  0  0  0  0  0
  148.8909  131.3670  161.6901 C   0  0  0  0  0  0  0  0  0  0  0  0
  148.1062  130.1547  162.1543 C   0  0  2  0  0  0  0  0  0  0  0  0
  148.6872  128.9634  161.6573 O   0  0  0  0  0  0  0  0  0  0  0  0
  146.7208  130.4208  161.5543 C   0  0  2  0  0  0  0  0  0  0  0  0
  145.7831  129.2112  161.3966 C   0  0  0  0  0  0  0  0  0  0  0  0
  146.3634  128.2534  160.5372 O   0  0  0  0  0  0  0  0  0  0  0  0
  147.0024  131.0254  160.2959 O   0  0  0  0  0  0  0  0  0  0  0  0
  148.5331  133.9226  159.1960 C   0  0  0  0  0  0  0  0  0  0  0  0
  149.2138  133.3407  158.3480 O   0  0  0  0  0  0  0  0  0  0  0  0
  148.3077  135.3151  159.1176 N   0  0  0  0  0  0  0  0  0  0  0  0
  148.8857  136.0575  157.9753 C   0  0  0  0  0  0  0  0  0  0  0  0
  149.9093  137.1229  158.3984 C   0  0  0  0  0  0  0  0  0  0  0  0
  150.9376  136.7940  158.9907 O   0  0  0  0  0  0  0  0  0  0  0  0
  149.6018  138.3827  158.0389 N   0  0  0  0  0  0  0  0  0  0  0  0
  150.3104  139.5906  158.2883 C   0  0  0  0  0  0  0  0  0  0  0  0
  149.6751  140.7927  157.9207 C   0  0  0  0  0  0  0  0  0  0  0  0
  150.2954  142.0358  158.1498 C   0  0  0  0  0  0  0  0  0  0  0  0
  151.5703  142.1086  158.7624 C   0  0  0  0  0  0  0  0  0  0  0  0
  152.2817  143.4483  159.0334 C   0  0  0  0  0  0  0  0  0  0  0  0
  151.5521  144.2057  160.1630 C   0  0  0  0  0  0  0  0  0  0  0  0
  152.3156  144.3745  157.7966 C   0  0  0  0  0  0  0  0  0  0  0  0
  153.7405  143.1816  159.4590 C   0  0  0  0  0  0  0  0  0  0  0  0
  152.1980  140.8973  159.1371 C   0  0  0  0  0  0  0  0  0  0  0  0
  151.5788  139.6533  158.9108 C   0  0  0  0  0  0  0  0  0  0  0  0
  147.5285  136.0179  160.0690 C   0  0  0  0  0  0  0  0  0  0  0  0
  147.3383  137.2300  159.9530 O   0  0  0  0  0  0  0  0  0  0  0  0
  145.7919  135.2488  162.9941 H   0  0  0  0  0  0  0  0  0  0  0  0
  145.2713  136.4026  161.7686 H   0  0  0  0  0  0  0  0  0  0  0  0
  146.7354  136.7099  162.7123 H   0  0  0  0  0  0  0  0  0  0  0  0
  146.7867  133.3418  162.0420 H   0  0  0  0  0  0  0  0  0  0  0  0
  148.8033  131.4577  159.4778 H   0  0  0  0  0  0  0  0  0  0  0  0
  149.9592  131.1898  161.5594 H   0  0  0  0  0  0  0  0  0  0  0  0
  148.7569  132.1866  162.3982 H   0  0  0  0  0  0  0  0  0  0  0  0
  148.0681  130.0896  163.2421 H   0  0  0  0  0  0  0  0  0  0  0  0
  149.2385  129.1814  160.9214 H   0  0  0  0  0  0  0  0  0  0  0  0
  146.2222  131.1741  162.1664 H   0  0  0  0  0  0  0  0  0  0  0  0
  145.6197  128.7412  162.3668 H   0  0  0  0  0  0  0  0  0  0  0  0
  144.8038  129.5041  161.0183 H   0  0  0  0  0  0  0  0  0  0  0  0
  146.5793  128.6747  159.7192 H   0  0  0  0  0  0  0  0  0  0  0  0
  149.3689  135.3853  157.2650 H   0  0  0  0  0  0  0  0  0  0  0  0
  148.0960  136.5318  157.3896 H   0  0  0  0  0  0  0  0  0  0  0  0
  148.7652  138.4844  157.4829 H   0  0  0  0  0  0  0  0  0  0  0  0
  148.7006  140.7678  157.4547 H   0  0  0  0  0  0  0  0  0  0  0  0
  149.7627  142.9222  157.8437 H   0  0  0  0  0  0  0  0  0  0  0  0
  152.0211  145.1701  160.3613 H   0  0  0  0  0  0  0  0  0  0  0  0
  151.5573  143.6514  161.1015 H   0  0  0  0  0  0  0  0  0  0  0  0
  150.5108  144.3966  159.9008 H   0  0  0  0  0  0  0  0  0  0  0  0
  151.3112  144.6285  157.4553 H   0  0  0  0  0  0  0  0  0  0  0  0
  152.8518  143.9174  156.9639 H   0  0  0  0  0  0  0  0  0  0  0  0
  152.8216  145.3144  158.0210 H   0  0  0  0  0  0  0  0  0  0  0  0
  154.2780  144.1133  159.6398 H   0  0  0  0  0  0  0  0  0  0  0  0
  154.2831  142.6362  158.6858 H   0  0  0  0  0  0  0  0  0  0  0  0
  153.8000  142.5957  160.3763 H   0  0  0  0  0  0  0  0  0  0  0  0
  153.1675  140.9104  159.6116 H   0  0  0  0  0  0  0  0  0  0  0  0
  152.0959  138.7654  159.2382 H   0  0  0  0  0  0  0  0  0  0  0  0
  1  2  1  0  0  0  0
  1 32  1  0  0  0  0
  1 33  1  0  0  0  0
  1 34  1  0  0  0  0
  2 30  1  0  0  0  0
  2  3  2  0  0  0  0
  3  4  1  0  0  0  0
  3 35  1  0  0  0  0
  4  5  1  0  0  0  0
  4 13  1  0  0  0  0
  5 12  1  0  0  0  0
  5  6  1  0  0  0  0
  5 36  1  0  0  0  0
  6  7  1  0  0  0  0
  6 37  1  0  0  0  0
  6 38  1  0  0  0  0
  7  8  1  0  0  0  0
  7  9  1  0  0  0  0
  7 39  1  0  0  0  0
  8 40  1  0  0  0  0
  9 10  1  0  0  0  0
  9 12  1  0  0  0  0
  9 41  1  0  0  0  0
 10 11  1  0  0  0  0
 10 42  1  0  0  0  0
 10 43  1  0  0  0  0
 11 44  1  0  0  0  0
 13 14  2  0  0  0  0
 13 15  1  0  0  0  0
 15 16  1  0  0  0  0
 15 30  1  0  0  0  0
 16 17  1  0  0  0  0
 16 45  1  0  0  0  0
 16 46  1  0  0  0  0
 17 18  2  0  0  0  0
 17 19  1  0  0  0  0
 19 20  1  0  0  0  0
 19 47  1  0  0  0  0
 20 29  1  0  0  0  0
 20 21  2  0  0  0  0
 21 22  1  0  0  0  0
 21 48  1  0  0  0  0
 22 23  2  0  0  0  0
 22 49  1  0  0  0  0
 23 24  1  0  0  0  0
 23 28  1  0  0  0  0
 24 25  1  0  0  0  0
 24 26  1  0  0  0  0
 24 27  1  0  0  0  0
 25 50  1  0  0  0  0
 25 51  1  0  0  0  0
 25 52  1  0  0  0  0
 26 53  1  0  0  0  0
 26 54  1  0  0  0  0
 26 55  1  0  0  0  0
 27 56  1  0  0  0  0
 27 57  1  0  0  0  0
 27 58  1  0  0  0  0
 28 29  2  0  0  0  0
 28 59  1  0  0  0  0
 29 60  1  0  0  0  0
 30 31  2  0  0  0  0
M  END
> <s_m_source_file>
AV-unprocessed.smi

> <i_m_source_file_index>
284

> <i_lp_mmshare_version>
43012

> <i_f3d_flags>
0

> <s_epik_input>
W09IXVtDSDJdW0NAQEhdKE8xKVtDQEhdKFtPSF0pW0NIMl1bQ0BIXTFuKFtjSF1jMltDSDNdKWMoPU8pbihjMj1PKVtDSDJdQyg9TylbTkhdYzNbY0hdW2NIXWMoQyhbQ0gzXSkoW0NIM10pW0NIM10pW2NIXVtjSF0z

> <s_epik_cmdline>
J2VwaWtfcHl0aG9uJywgJy1waCcsICc3LjAnLCAnLXRuJywgJzgnLCAnLW1hJywgJzIwMCcsICctbWV0YWxfYmluZGluZycsICctaW1hZScsICc8aW5maWxlLm1hZT4nLCAnLW9tYWUnLCAnPG91dGZpbGUubWFlPic=

> <r_lp_tautomer_probability>
1

> <r_epik_Ionization_Penalty>
4.92358e-06

> <r_epik_Ionization_Penalty_Charging>
1.29777e-07

> <r_epik_Ionization_Penalty_Neutral>
4.79381e-06

> <r_epik_State_Penalty>
-0

> <r_epik_Charging_Adjusted_Penalty>
1.29777e-07

> <i_epik_Tot_Q>
0

> <i_epik_Tot_abs_Q>
0

> <r_epik_Metal_State_Penalty>
-0

> <b_epik_Metal_Only>
0

> <s_epik_Chemistry_Notes>
This compound contains an acetal/aminal-like group ( X-CH(R)-Y where X, Y are N, S, or O) that may be acid/base labile, releasing an aldehyde.

> <s_lp_Force_Field>
OPLS_2005

> <r_lp_Energy>
40.7373

> <b_lp_Chiralities_Consistent>
1

> <s_lp_Variant>
AV-unprocessed.smi:284-8

> <Gold.Version>
5.8.1

> <Gold.Id.Protein>
6NUR|6NUR_protein|mol2

> <Gold.PLP.Fitness>
52.7103

> <Gold.PLP.PLP>
-44.6938

> <Gold.PLP.part.hbond>
-3.0000

> <Gold.PLP.part.metal>
0.0000

> <Gold.PLP.part.buried>
-6.4881

> <Gold.PLP.part.nonpolar>
-34.1472

> <Gold.PLP.part.repulsive>
0.1254

> <Gold.PLP.ligand.clash>
0.0000

> <Gold.PLP.ligand.torsion>
0.3365

> <Gold.PLP.Chemscore.Hbond>
2.8500

> <Gold.PLP.Chemscore.CHOScore>
0.0000

> <Gold.PLP.Chemscore.Metal>
0.0000

> <Gold.Chemscore.Hbonds>
donor molecule, donor type, donor heavy atom, donor atom, acceptor molecule, acceptor atom, score
      P1  H  6896  6907       L1    18  1.00
      P1  H  6896  6909       L1    14  0.70
      P1  H  6934  6947       L1    31  0.97

> <Gold.PLP.Chemscore.Internal.Correction>
0.1394

> <Gold.Rescore>
     Score         DG    S(hbond)    S(metal)    S(lipo)     H(rot)  DE(clash)    DE(int)     intcor
     16.96     -19.90       2.52        0.00     123.06       3.27       0.26       2.69       ----

> <Gold.Chemscore.Fitness>
16.9552

> <Gold.Chemscore.DG>
-19.9034

> <Gold.Chemscore.ZeroCoef>
-5.4800

> <Gold.Chemscore.Hbond>
2.5166

> <Gold.Chemscore.Metal>
0.0000

> <Gold.Chemscore.Lipo>
123.0600

> <Gold.Chemscore.Internal_Hbond>
0.0000

> <Gold.Chemscore.DEClash>
0.2581

> <Gold.Chemscore.DEInternal>
2.6902

> <Gold.Chemscore.Rot>
3.2735

> <Gold.Chemscore.Internal.Correction>
   9.000000E+99

> <Gold.Chemscore.Hbonds>
donor molecule, donor type, donor heavy atom, donor atom, acceptor molecule, acceptor atom, score
      P1  H  6896  6907       L1    18  0.95
      P1  H  6896  6909       L1    14  0.07
      P1  H  6934  6947       L1    31  0.87

> <Gold.Chemscore.Hbond.Weighted>
-8.4055

> <Gold.Chemscore.Metal.Weighted>
-0.0000

> <Gold.Chemscore.Lipo.Weighted>
-14.3980

> <Gold.Chemscore.Internal_Hbond.Weighted>
0.0000

> <Gold.Chemscore.DEClash.Weighted>
0.2581

> <Gold.Chemscore.DEInternal.Weighted>
2.6902

> <Gold.Chemscore.Rot.Weighted>
8.3801

> <Gold.Chemscore.Internal.Correction.Weighted>
   9.000000E+99

> <Gold.Protein.RotatedTorsions>
[ 6907 6896 6895 6894 ] final  -10.15 input  -60.11 | X-H torsion
[ 7974 7965 7964 7962 ] final  -11.07 input  175.53 | X-H torsion
[ 8008 7997 7996 7995 ] final -110.67 input   59.86 | X-H torsion
[ 10167 10162 10161 10158 ] final   29.48 input  -65.29 | X-H torsion
[ 10718 10713 10712 10709 ] final   73.50 input   66.30 | X-H torsion
[ 10763 10752 10751 10750 ] final   91.05 input  -60.55 | X-H torsion
[ 11005 11000 10999 10996 ] final  -32.22 input  -57.11 | X-H torsion

> <Gold.Protein.ActiveResidues>
 VAL166  LYS551  ARG553  GLY616  TRP617  ASP618  TYR619  PRO620  LYS621  CYS622 
 ASP623  PHE694  ASN695  SER759  ASP760  ASP761  ALA762  ILE779  LEU786  VAL792 
 PHE793  MET794  SER795  GLU796  ALA797  LYS798  CYS799  TRP800  GLU811  SER814 

> <Gold.Protein.RotatedAtoms>
  151.4066  135.0979  159.9571 H   0  0  0  0  0  0  0  0  0  0  0  0  # atno 6907 bound_to 6896
  152.5033  133.8837  159.7370 H   0  0  0  0  0  0  0  0  0  0  0  0  # atno 6908 bound_to 6896
  150.9323  133.6696  159.2836 H   0  0  0  0  0  0  0  0  0  0  0  0  # atno 6909 bound_to 6896
  146.2200  140.2857  142.8365 H   0  0  0  0  0  0  0  0  0  0  0  0  # atno 7974 bound_to 7965
  154.9781  140.0396  157.2265 H   0  0  0  0  0  0  0  0  0  0  0  0  # atno 8008 bound_to 7997
  154.7739  140.2807  155.6094 H   0  0  0  0  0  0  0  0  0  0  0  0  # atno 8009 bound_to 7997
  156.2925  140.2604  156.2548 H   0  0  0  0  0  0  0  0  0  0  0  0  # atno 8010 bound_to 7997
  140.4762  144.0687  150.6251 H   0  0  0  0  0  0  0  0  0  0  0  0  # atno 10167 bound_to 10162
  157.6550  130.9632  150.1078 H   0  0  0  0  0  0  0  0  0  0  0  0  # atno 10718 bound_to 10713
  153.2041  135.4412  155.0301 H   0  0  0  0  0  0  0  0  0  0  0  0  # atno 10763 bound_to 10752
  154.8163  135.3317  154.7168 H   0  0  0  0  0  0  0  0  0  0  0  0  # atno 10764 bound_to 10752
  153.7611  135.6991  153.4981 H   0  0  0  0  0  0  0  0  0  0  0  0  # atno 10765 bound_to 10752
  140.9534  133.7207  156.1255 H   0  0  0  0  0  0  0  0  0  0  0  0  # atno 11005 bound_to 11000
  144.9164  140.7817  143.5776 LP  0  0  0  0  0  0  0  0  0  0  0  0  # atno 17320 bound_to 7965
  145.2791  139.1925  143.4800 LP  0  0  0  0  0  0  0  0  0  0  0  0  # atno 17321 bound_to 7965
  140.3915  143.2750  152.0054 LP  0  0  0  0  0  0  0  0  0  0  0  0  # atno 17342 bound_to 10162
  139.4826  144.6073  151.7498 LP  0  0  0  0  0  0  0  0  0  0  0  0  # atno 17343 bound_to 10162
  156.1983  130.3658  149.8821 LP  0  0  0  0  0  0  0  0  0  0  0  0  # atno 17370 bound_to 10713
  156.6731  130.8828  151.3565 LP  0  0  0  0  0  0  0  0  0  0  0  0  # atno 17371 bound_to 10713
  140.7571  134.3981  157.5532 LP  0  0  0  0  0  0  0  0  0  0  0  0  # atno 17394 bound_to 11000
  139.8854  134.8937  156.2643 LP  0  0  0  0  0  0  0  0  0  0  0  0  # atno 17395 bound_to 11000

$$$$
