AV-unprocessed.smi:101|AV-procd|sdf|938|dock4
  -GOLD-   2262017453D 1   1.00000     0.00000
 Structure written by MMmdl.
 43 45  0  0  0  0  0  0  0  0  2 V2000
  149.1622  132.3120  154.0619 C   0  0  0  0  0  0  0  0  0  0  0  0
  149.3865  133.3365  155.1604 C   0  0  0  0  0  0  0  0  0  0  0  0
  149.3270  134.6668  154.9290 C   0  0  0  0  0  0  0  0  0  0  0  0
  149.5334  135.5955  155.9343 N   0  0  0  0  0  0  0  0  0  0  0  0
  149.4432  137.0779  155.6555 C   0  0  1  0  0  0  0  0  0  0  0  0
  150.4664  137.7337  156.3443 O   0  0  0  0  0  0  0  0  0  0  0  0
  151.0744  138.6972  155.4951 C   0  0  1  0  0  0  0  0  0  0  0  0
  152.4985  139.0285  155.9633 C   0  0  0  0  0  0  0  0  0  0  0  0
  152.4361  139.7194  157.2000 O   0  0  0  0  0  0  0  0  0  0  0  0
  151.7742  140.8896  157.2850 C   0  0  0  0  0  0  0  0  0  0  0  0
  150.9667  141.2792  156.4389 O   0  0  0  0  0  0  0  0  0  0  0  0
  152.1175  141.6632  158.5132 C   0  0  0  0  0  0  0  0  0  0  0  0
  151.8456  143.0507  158.5568 C   0  0  0  0  0  0  0  0  0  0  0  0
  152.1566  143.8071  159.7034 C   0  0  0  0  0  0  0  0  0  0  0  0
  152.7433  143.1852  160.8208 C   0  0  0  0  0  0  0  0  0  0  0  0
  153.0210  141.8061  160.7893 C   0  0  0  0  0  0  0  0  0  0  0  0
  152.7113  141.0480  159.6433 C   0  0  0  0  0  0  0  0  0  0  0  0
  150.9644  138.0764  154.0979 C   0  0  1  0  0  0  0  0  0  0  0  0
  152.0156  137.1570  153.8614 O   0  0  0  0  0  0  0  0  0  0  0  0
  149.6257  137.3519  154.1515 C   0  0  2  0  0  0  0  0  0  0  0  0
  148.5957  138.1846  153.6591 O   0  0  0  0  0  0  0  0  0  0  0  0
  149.7804  135.1536  157.2594 C   0  0  0  0  0  0  0  0  0  0  0  0
  149.9126  136.0057  158.1387 O   0  0  0  0  0  0  0  0  0  0  0  0
  149.8504  133.8137  157.5009 N   0  5  0  0  0  0  0  0  0  0  0  0
  149.6733  132.8770  156.5249 C   0  0  0  0  0  0  0  0  0  0  0  0
  149.7445  131.6703  156.7563 O   0  0  0  0  0  0  0  0  0  0  0  0
  148.9661  132.7948  153.1042 H   0  0  0  0  0  0  0  0  0  0  0  0
  148.3094  131.6764  154.3018 H   0  0  0  0  0  0  0  0  0  0  0  0
  150.0427  131.6793  153.9470 H   0  0  0  0  0  0  0  0  0  0  0  0
  149.1050  135.0076  153.9287 H   0  0  0  0  0  0  0  0  0  0  0  0
  148.4835  137.4075  156.0574 H   0  0  0  0  0  0  0  0  0  0  0  0
  150.4607  139.5998  155.5162 H   0  0  0  0  0  0  0  0  0  0  0  0
  153.0935  138.1193  156.0626 H   0  0  0  0  0  0  0  0  0  0  0  0
  152.9891  139.6673  155.2276 H   0  0  0  0  0  0  0  0  0  0  0  0
  151.3944  143.5502  157.7116 H   0  0  0  0  0  0  0  0  0  0  0  0
  151.9438  144.8657  159.7250 H   0  0  0  0  0  0  0  0  0  0  0  0
  152.9806  143.7650  161.7005 H   0  0  0  0  0  0  0  0  0  0  0  0
  153.4726  141.3274  161.6457 H   0  0  0  0  0  0  0  0  0  0  0  0
  152.9394  139.9921  159.6520 H   0  0  0  0  0  0  0  0  0  0  0  0
  151.0003  138.8338  153.3136 H   0  0  0  0  0  0  0  0  0  0  0  0
  152.0042  136.9152  152.9483 H   0  0  0  0  0  0  0  0  0  0  0  0
  149.6280  136.4266  153.5724 H   0  0  0  0  0  0  0  0  0  0  0  0
  148.3373  137.8603  152.8092 H   0  0  0  0  0  0  0  0  0  0  0  0
  1  2  1  0  0  0  0
  1 27  1  0  0  0  0
  1 28  1  0  0  0  0
  1 29  1  0  0  0  0
  2 25  1  0  0  0  0
  2  3  2  0  0  0  0
  3  4  1  0  0  0  0
  3 30  1  0  0  0  0
  4  5  1  0  0  0  0
  4 22  1  0  0  0  0
  5 20  1  0  0  0  0
  5  6  1  0  0  0  0
  5 31  1  0  0  0  0
  6  7  1  0  0  0  0
  7  8  1  0  0  0  0
  7 18  1  0  0  0  0
  7 32  1  0  0  0  0
  8  9  1  0  0  0  0
  8 33  1  0  0  0  0
  8 34  1  0  0  0  0
  9 10  1  0  0  0  0
 10 11  2  0  0  0  0
 10 12  1  0  0  0  0
 12 17  1  0  0  0  0
 12 13  2  0  0  0  0
 13 14  1  0  0  0  0
 13 35  1  0  0  0  0
 14 15  2  0  0  0  0
 14 36  1  0  0  0  0
 15 16  1  0  0  0  0
 15 37  1  0  0  0  0
 16 17  2  0  0  0  0
 16 38  1  0  0  0  0
 17 39  1  0  0  0  0
 18 19  1  0  0  0  0
 18 20  1  0  0  0  0
 18 40  1  0  0  0  0
 19 41  1  0  0  0  0
 20 21  1  0  0  0  0
 20 42  1  0  0  0  0
 21 43  1  0  0  0  0
 22 23  2  0  0  0  0
 22 24  1  0  0  0  0
 24 25  1  0  0  0  0
 25 26  2  0  0  0  0
M  CHG  1  24  -1
M  END
> <s_m_source_file>
AV-unprocessed.smi

> <i_m_source_file_index>
101

> <i_lp_mmshare_version>
43012

> <i_f3d_flags>
0

> <s_epik_input>
Tz1jMVtuSF1jKD1PKW4oW2NIXWMxW0NIM10pW0NAQEhdMk9bQ0BIXShbQ0BASF0oW09IXSlbQ0BIXTJbT0hdKVtDSDJdT0MoPU8pYzNbY0hdW2NIXVtjSF1bY0hdW2NIXTM=

> <s_epik_cmdline>
J2VwaWtfcHl0aG9uJywgJy1waCcsICc3LjAnLCAnLXRuJywgJzgnLCAnLW1hJywgJzIwMCcsICctbWV0YWxfYmluZGluZycsICctaW1hZScsICc8aW5maWxlLm1hZT4nLCAnLW9tYWUnLCAnPG91dGZpbGUubWFlPic=

> <r_lp_tautomer_probability>
0.999537

> <r_epik_Ionization_Penalty>
3.21006

> <r_epik_Ionization_Penalty_Charging>
5.75142e-08

> <r_epik_Ionization_Penalty_Neutral>
3.21006

> <r_epik_State_Penalty>
3.20925

> <r_epik_Charging_Adjusted_Penalty>
3.20925

> <i_epik_Tot_Q>
-1

> <i_epik_Tot_abs_Q>
1

> <r_epik_Metal_State_Penalty>
0.119957

> <b_epik_Metal_Only>
1

> <s_epik_Chemistry_Notes>
This compound has an ester and may undergo hydrolysis at high or low pH. This compound contains an acetal/aminal-like group ( X-CH(R)-Y where X, Y are N, S, or O) that may be acid/base labile, releasing an aldehyde.

> <s_lp_Force_Field>
OPLS_2005

> <r_lp_Energy>
38.3605

> <b_lp_Chiralities_Consistent>
1

> <s_lp_Variant>
AV-unprocessed.smi:101-26

> <Gold.Version>
5.8.1

> <Gold.Id.Protein>
6NUR|6NUR_protein|mol2

> <Gold.PLP.Fitness>
55.9019

> <Gold.PLP.PLP>
-42.0574

> <Gold.PLP.part.hbond>
-6.0000

> <Gold.PLP.part.metal>
0.0000

> <Gold.PLP.part.buried>
-1.1731

> <Gold.PLP.part.nonpolar>
-35.8489

> <Gold.PLP.part.repulsive>
0.0472

> <Gold.PLP.ligand.clash>
0.0000

> <Gold.PLP.ligand.torsion>
0.9175

> <Gold.PLP.Chemscore.Hbond>
4.1856

> <Gold.PLP.Chemscore.CHOScore>
1.0000

> <Gold.PLP.Chemscore.Metal>
0.0000

> <Gold.Chemscore.Hbonds>
donor molecule, donor type, donor heavy atom, donor atom, acceptor molecule, acceptor atom, score
      L1  H    19    41       P1  7949  1.00
      L1  H    21    43       P1  7948  0.58
      P1  H  6896  6907       L1    23  0.48
      P1  H  6896  6909       L1    24  0.44
      P1  H 10752 10765       L1    19  0.56
      L1  C     3    30       P1  7948  1.00

> <Gold.PLP.Chemscore.Internal.Correction>
0.1227

> <Gold.Rescore>
     Score         DG    S(hbond)    S(metal)    S(lipo)     H(rot)  DE(clash)    DE(int)     intcor
     12.15     -18.35       2.57        0.00     108.14       3.27       1.80       4.40       ----

> <Gold.Chemscore.Fitness>
12.1468

> <Gold.Chemscore.DG>
-18.3454

> <Gold.Chemscore.ZeroCoef>
-5.4800

> <Gold.Chemscore.Hbond>
2.5666

> <Gold.Chemscore.Metal>
0.0000

> <Gold.Chemscore.Lipo>
108.1436

> <Gold.Chemscore.Internal_Hbond>
0.0000

> <Gold.Chemscore.DEClash>
1.7992

> <Gold.Chemscore.DEInternal>
4.3994

> <Gold.Chemscore.Rot>
3.2656

> <Gold.Chemscore.Internal.Correction>
   9.000000E+99

> <Gold.Chemscore.Hbonds>
donor molecule, donor type, donor heavy atom, donor atom, acceptor molecule, acceptor atom, score
      L1  H    19    41       P1  7949  0.94
      L1  H    21    43       P1  7948  0.57
      P1  H  6896  6907       L1    23  0.23
      P1  H  6896  6909       L1    24  0.16
      P1  H 10752 10765       L1    19  0.04

> <Gold.Chemscore.Hbond.Weighted>
-8.5725

> <Gold.Chemscore.Metal.Weighted>
-0.0000

> <Gold.Chemscore.Lipo.Weighted>
-12.6528

> <Gold.Chemscore.Internal_Hbond.Weighted>
0.0000

> <Gold.Chemscore.DEClash.Weighted>
1.7992

> <Gold.Chemscore.DEInternal.Weighted>
4.3994

> <Gold.Chemscore.Rot.Weighted>
8.3598

> <Gold.Chemscore.Internal.Correction.Weighted>
   9.000000E+99

> <Gold.Protein.RotatedTorsions>
[ 6907 6896 6895 6894 ] final  -37.24 input  -60.11 | X-H torsion
[ 7974 7965 7964 7962 ] final -154.12 input  175.53 | X-H torsion
[ 8008 7997 7996 7995 ] final  176.94 input   59.86 | X-H torsion
[ 10167 10162 10161 10158 ] final  -49.79 input  -65.29 | X-H torsion
[ 10718 10713 10712 10709 ] final   53.10 input   66.30 | X-H torsion
[ 10763 10752 10751 10750 ] final  164.25 input  -60.55 | X-H torsion
[ 11005 11000 10999 10996 ] final  -84.87 input  -57.11 | X-H torsion

> <Gold.Protein.ActiveResidues>
 VAL166  LYS551  ARG553  GLY616  TRP617  ASP618  TYR619  PRO620  LYS621  CYS622 
 ASP623  PHE694  ASN695  SER759  ASP760  ASP761  ALA762  ILE779  LEU786  VAL792 
 PHE793  MET794  SER795  GLU796  ALA797  LYS798  CYS799  TRP800  GLU811  SER814 

> <Gold.Protein.RotatedAtoms>
  151.0172  134.9442  159.8039 H   0  0  0  0  0  0  0  0  0  0  0  0  # atno 6907 bound_to 6896
  152.5317  134.2951  159.9067 H   0  0  0  0  0  0  0  0  0  0  0  0  # atno 6908 bound_to 6896
  151.2957  133.4103  159.2670 H   0  0  0  0  0  0  0  0  0  0  0  0  # atno 6909 bound_to 6896
  144.7705  140.4432  143.5910 H   0  0  0  0  0  0  0  0  0  0  0  0  # atno 7974 bound_to 7965
  156.0710  140.1371  156.9828 H   0  0  0  0  0  0  0  0  0  0  0  0  # atno 8008 bound_to 7997
  154.4532  140.0972  156.6731 H   0  0  0  0  0  0  0  0  0  0  0  0  # atno 8009 bound_to 7997
  155.5228  140.3456  155.4412 H   0  0  0  0  0  0  0  0  0  0  0  0  # atno 8010 bound_to 7997
  140.6669  143.2683  151.4265 H   0  0  0  0  0  0  0  0  0  0  0  0  # atno 10167 bound_to 10162
  157.5136  130.8517  149.8466 H   0  0  0  0  0  0  0  0  0  0  0  0  # atno 10718 bound_to 10713
  154.3060  135.2758  155.2588 H   0  0  0  0  0  0  0  0  0  0  0  0  # atno 10763 bound_to 10752
  154.5004  135.5809  153.6530 H   0  0  0  0  0  0  0  0  0  0  0  0  # atno 10764 bound_to 10752
  152.9894  135.6156  154.3234 H   0  0  0  0  0  0  0  0  0  0  0  0  # atno 10765 bound_to 10752
  141.1646  133.7369  156.8931 H   0  0  0  0  0  0  0  0  0  0  0  0  # atno 11005 bound_to 11000
  145.6337  139.1540  143.2954 LP  0  0  0  0  0  0  0  0  0  0  0  0  # atno 17320 bound_to 7965
  146.1848  140.6439  142.9172 LP  0  0  0  0  0  0  0  0  0  0  0  0  # atno 17321 bound_to 7965
  139.5921  144.1477  152.2100 LP  0  0  0  0  0  0  0  0  0  0  0  0  # atno 17342 bound_to 10162
  140.0835  144.5681  150.7105 LP  0  0  0  0  0  0  0  0  0  0  0  0  # atno 17343 bound_to 10162
  156.0305  130.3766  150.1701 LP  0  0  0  0  0  0  0  0  0  0  0  0  # atno 17370 bound_to 10713
  156.9890  130.9887  151.3419 LP  0  0  0  0  0  0  0  0  0  0  0  0  # atno 17371 bound_to 10713
  140.1635  134.9149  157.2744 LP  0  0  0  0  0  0  0  0  0  0  0  0  # atno 17394 bound_to 11000
  140.2584  134.3600  155.7415 LP  0  0  0  0  0  0  0  0  0  0  0  0  # atno 17395 bound_to 11000

$$$$
