AV-unprocessed.smi:2171|AV-procd|sdf|8828|dock8
  -GOLD-   2272012 23D 1   1.00000     0.00000
 Structure written by MMmdl.
 39 41  0  0  0  0  0  0  0  0  2 V2000
  153.2481  139.6497  157.3123 O   0  0  0  0  0  0  0  0  0  0  0  0
  152.3570  140.4607  157.5620 C   0  0  0  0  0  0  0  0  0  0  0  0
  151.0993  140.5070  156.6906 C   0  0  0  0  0  0  0  0  0  0  0  0
  151.0721  139.4216  155.7249 N   0  0  0  0  0  0  0  0  0  0  0  0
  151.4196  138.0994  155.9106 C   0  0  0  0  0  0  0  0  0  0  0  0
  151.2348  137.4589  154.7190 C   0  0  0  0  0  0  0  0  0  0  0  0
  150.7634  138.4849  153.8529 C   0  0  0  0  0  0  0  0  0  0  0  0
  150.6673  139.6581  154.4575 N   0  0  0  0  0  0  0  0  0  0  0  0
  152.4246  141.3421  158.5725 N   0  0  0  0  0  0  0  0  0  0  0  0
  153.5247  141.4472  159.5259 C   0  0  2  0  0  0  0  0  0  0  0  0
  154.1435  140.0825  159.8769 C   0  0  0  0  0  0  0  0  0  0  0  0
  154.4857  140.1628  161.3777 C   0  0  0  0  0  0  0  0  0  0  0  0
  154.1586  141.5439  161.7802 N   0  3  2  0  0  0  0  0  0  0  0  0
  153.8588  141.7764  163.2098 C   0  0  0  0  0  0  0  0  0  0  0  0
  153.6299  143.2834  163.4426 C   0  0  0  0  0  0  0  0  0  0  0  0
  152.5614  143.8535  162.4875 C   0  0  0  0  0  0  0  0  0  0  0  0
  152.8780  143.4989  161.0218 C   0  0  0  0  0  0  0  0  0  0  0  0
  153.0724  141.9787  160.8887 C   0  0  1  0  0  0  0  0  0  0  0  0
  150.2135  140.4418  157.3235 H   0  0  0  0  0  0  0  0  0  0  0  0
  151.0441  141.4581  156.1582 H   0  0  0  0  0  0  0  0  0  0  0  0
  151.7665  137.7290  156.8640 H   0  0  0  0  0  0  0  0  0  0  0  0
  151.4082  136.4160  154.4992 H   0  0  0  0  0  0  0  0  0  0  0  0
  150.4905  138.4128  152.8105 H   0  0  0  0  0  0  0  0  0  0  0  0
  151.6457  141.9718  158.7011 H   0  0  0  0  0  0  0  0  0  0  0  0
  154.3152  142.0884  159.1299 H   0  0  0  0  0  0  0  0  0  0  0  0
  153.4385  139.2677  159.7041 H   0  0  0  0  0  0  0  0  0  0  0  0
  155.0268  139.8840  159.2688 H   0  0  0  0  0  0  0  0  0  0  0  0
  153.8747  139.4534  161.9382 H   0  0  0  0  0  0  0  0  0  0  0  0
  155.5338  139.9396  161.5783 H   0  0  0  0  0  0  0  0  0  0  0  0
  152.9762  141.2057  163.5023 H   0  0  0  0  0  0  0  0  0  0  0  0
  154.6899  141.4230  163.8211 H   0  0  0  0  0  0  0  0  0  0  0  0
  153.3392  143.4621  164.4782 H   0  0  0  0  0  0  0  0  0  0  0  0
  154.5684  143.8181  163.2903 H   0  0  0  0  0  0  0  0  0  0  0  0
  151.5842  143.4495  162.7552 H   0  0  0  0  0  0  0  0  0  0  0  0
  152.4910  144.9352  162.6054 H   0  0  0  0  0  0  0  0  0  0  0  0
  152.0675  143.8375  160.3761 H   0  0  0  0  0  0  0  0  0  0  0  0
  153.7777  144.0235  160.6973 H   0  0  0  0  0  0  0  0  0  0  0  0
  152.1533  141.4676  161.1855 H   0  0  0  0  0  0  0  0  0  0  0  0
  154.9624  142.1089  161.5454 H   0  0  0  0  0  0  0  0  0  0  0  0
  1  2  2  0  0  0  0
  2  3  1  0  0  0  0
  2  9  1  0  0  0  0
  3  4  1  0  0  0  0
  3 19  1  0  0  0  0
  3 20  1  0  0  0  0
  4  8  1  0  0  0  0
  4  5  1  0  0  0  0
  5  6  2  0  0  0  0
  5 21  1  0  0  0  0
  6  7  1  0  0  0  0
  6 22  1  0  0  0  0
  7  8  2  0  0  0  0
  7 23  1  0  0  0  0
  9 10  1  0  0  0  0
  9 24  1  0  0  0  0
 10 18  1  0  0  0  0
 10 11  1  0  0  0  0
 10 25  1  0  0  0  0
 11 12  1  0  0  0  0
 11 26  1  0  0  0  0
 11 27  1  0  0  0  0
 12 13  1  0  0  0  0
 12 28  1  0  0  0  0
 12 29  1  0  0  0  0
 13 18  1  0  0  0  0
 13 14  1  0  0  0  0
 13 39  1  0  0  0  0
 14 15  1  0  0  0  0
 14 30  1  0  0  0  0
 14 31  1  0  0  0  0
 15 16  1  0  0  0  0
 15 32  1  0  0  0  0
 15 33  1  0  0  0  0
 16 17  1  0  0  0  0
 16 34  1  0  0  0  0
 16 35  1  0  0  0  0
 17 18  1  0  0  0  0
 17 36  1  0  0  0  0
 17 37  1  0  0  0  0
 18 38  1  0  0  0  0
M  CHG  1  13   1
M  END
> <s_m_source_file>
AV-unprocessed.smi

> <i_m_source_file_index>
2171

> <i_lp_mmshare_version>
43012

> <i_f3d_flags>
0

> <s_epik_input>
bjFbY0hdW2NIXVtjSF1uMVtDSDJdQyg9TylbTkhdW0NASF0oW0NIMl1bQ0gyXTIpW0NAQEhdKE4yMylbQ0gyXVtDSDJdW0NIMl1bQ0gyXTM=

> <s_epik_cmdline>
J2VwaWtfcHl0aG9uJywgJy1waCcsICc3LjAnLCAnLXRuJywgJzgnLCAnLW1hJywgJzIwMCcsICctbWV0YWxfYmluZGluZycsICctaW1hZScsICc8aW5maWxlLm1hZT4nLCAnLW9tYWUnLCAnPG91dGZpbGUubWFlPic=

> <r_lp_tautomer_probability>
1

> <r_epik_Ionization_Penalty>
0.00204179

> <r_epik_Ionization_Penalty_Charging>
0.00203239

> <r_epik_Ionization_Penalty_Neutral>
9.40205e-06

> <r_epik_State_Penalty>
0.00138983

> <r_epik_Charging_Adjusted_Penalty>
0.00342221

> <i_epik_Tot_Q>
1

> <i_epik_Tot_abs_Q>
1

> <r_epik_Metal_State_Penalty>
-0

> <b_epik_Metal_Only>
0

> <s_lp_Force_Field>
OPLS_2005

> <r_lp_Energy>
34.6158

> <b_lp_Chiralities_Consistent>
1

> <s_lp_Variant>
AV-unprocessed.smi:2171-3

> <Gold.Version>
5.8.1

> <Gold.Id.Protein>
6NUR|6NUR_protein|mol2

> <Gold.PLP.Fitness>
45.0344

> <Gold.PLP.PLP>
-34.9964

> <Gold.PLP.part.hbond>
-2.5436

> <Gold.PLP.part.metal>
0.0000

> <Gold.PLP.part.buried>
-2.1144

> <Gold.PLP.part.nonpolar>
-29.1807

> <Gold.PLP.part.repulsive>
0.2175

> <Gold.PLP.ligand.clash>
0.0000

> <Gold.PLP.ligand.torsion>
0.6506

> <Gold.PLP.Chemscore.Hbond>
1.9913

> <Gold.PLP.Chemscore.CHOScore>
1.7853

> <Gold.PLP.Chemscore.Metal>
0.0000

> <Gold.Chemscore.Hbonds>
donor molecule, donor type, donor heavy atom, donor atom, acceptor molecule, acceptor atom, score
      P1  H  7989  7998       L1     8  1.00
      P1  H  7997  8008       L1     1  0.67
      L1  C     7    23       P1  7948  0.22
      L1  C     7    23       P1  7949  0.10
      L1  C     7    23       P1  7957  0.80

> <Gold.PLP.Chemscore.Internal.Correction>
0.0095

> <Gold.Rescore>
     Score         DG    S(hbond)    S(metal)    S(lipo)     H(rot)  DE(clash)    DE(int)     intcor
     17.24     -20.66       1.90        0.00     107.02       1.44       0.61       2.81       ----

> <Gold.Chemscore.Fitness>
17.2368

> <Gold.Chemscore.DG>
-20.6620

> <Gold.Chemscore.ZeroCoef>
-5.4800

> <Gold.Chemscore.Hbond>
1.9012

> <Gold.Chemscore.Metal>
0.0000

> <Gold.Chemscore.Lipo>
107.0166

> <Gold.Chemscore.Internal_Hbond>
0.0000

> <Gold.Chemscore.DEClash>
0.6118

> <Gold.Chemscore.DEInternal>
2.8134

> <Gold.Chemscore.Rot>
1.4410

> <Gold.Chemscore.Internal.Correction>
   9.000000E+99

> <Gold.Chemscore.Hbonds>
donor molecule, donor type, donor heavy atom, donor atom, acceptor molecule, acceptor atom, score
      P1  H  7989  7998       L1     8  0.62
      P1  H  7997  8008       L1     1  0.65

> <Gold.Chemscore.Hbond.Weighted>
-6.3500

> <Gold.Chemscore.Metal.Weighted>
-0.0000

> <Gold.Chemscore.Lipo.Weighted>
-12.5209

> <Gold.Chemscore.Internal_Hbond.Weighted>
0.0000

> <Gold.Chemscore.DEClash.Weighted>
0.6118

> <Gold.Chemscore.DEInternal.Weighted>
2.8134

> <Gold.Chemscore.Rot.Weighted>
3.6889

> <Gold.Chemscore.Internal.Correction.Weighted>
   9.000000E+99

> <Gold.Protein.RotatedTorsions>
[ 6907 6896 6895 6894 ] final  -18.26 input  -60.11 | X-H torsion
[ 7974 7965 7964 7962 ] final   45.52 input  175.53 | X-H torsion
[ 8008 7997 7996 7995 ] final  -82.25 input   59.86 | X-H torsion
[ 10167 10162 10161 10158 ] final -171.86 input  -65.29 | X-H torsion
[ 10718 10713 10712 10709 ] final -146.75 input   66.30 | X-H torsion
[ 10763 10752 10751 10750 ] final  125.51 input  -60.55 | X-H torsion
[ 11005 11000 10999 10996 ] final  -51.80 input  -57.11 | X-H torsion

> <Gold.Protein.ActiveResidues>
 VAL166  LYS551  ARG553  GLY616  TRP617  ASP618  TYR619  PRO620  LYS621  CYS622 
 ASP623  PHE694  ASN695  SER759  ASP760  ASP761  ALA762  ILE779  LEU786  VAL792 
 PHE793  MET794  SER795  GLU796  ALA797  LYS798  CYS799  TRP800  GLU811  SER814 

> <Gold.Protein.RotatedAtoms>
  151.2808  135.0713  159.9168 H   0  0  0  0  0  0  0  0  0  0  0  0  # atno 6907 bound_to 6896
  152.5334  134.0033  159.7915 H   0  0  0  0  0  0  0  0  0  0  0  0  # atno 6908 bound_to 6896
  151.0286  133.5760  159.2694 H   0  0  0  0  0  0  0  0  0  0  0  0  # atno 6909 bound_to 6896
  146.0472  139.4955  142.9741 H   0  0  0  0  0  0  0  0  0  0  0  0  # atno 7974 bound_to 7965
  154.6066  140.0636  156.9439 H   0  0  0  0  0  0  0  0  0  0  0  0  # atno 8008 bound_to 7997
  155.2042  140.3317  155.4320 H   0  0  0  0  0  0  0  0  0  0  0  0  # atno 8009 bound_to 7997
  156.2351  140.1859  156.7123 H   0  0  0  0  0  0  0  0  0  0  0  0  # atno 8010 bound_to 7997
  139.5778  144.1493  152.1474 H   0  0  0  0  0  0  0  0  0  0  0  0  # atno 10167 bound_to 10162
  156.3988  130.7923  151.2132 H   0  0  0  0  0  0  0  0  0  0  0  0  # atno 10718 bound_to 10713
  153.6785  135.3318  155.3172 H   0  0  0  0  0  0  0  0  0  0  0  0  # atno 10763 bound_to 10752
  154.8472  135.4403  154.1631 H   0  0  0  0  0  0  0  0  0  0  0  0  # atno 10764 bound_to 10752
  153.2641  135.6994  153.7625 H   0  0  0  0  0  0  0  0  0  0  0  0  # atno 10765 bound_to 10752
  141.0890  133.6636  156.3930 H   0  0  0  0  0  0  0  0  0  0  0  0  # atno 11005 bound_to 11000
  145.6785  141.0197  143.1619 LP  0  0  0  0  0  0  0  0  0  0  0  0  # atno 17320 bound_to 7965
  144.7104  139.8394  143.7416 LP  0  0  0  0  0  0  0  0  0  0  0  0  # atno 17321 bound_to 7965
  140.1040  144.5515  150.6970 LP  0  0  0  0  0  0  0  0  0  0  0  0  # atno 17342 bound_to 10162
  140.7059  143.2467  151.4728 LP  0  0  0  0  0  0  0  0  0  0  0  0  # atno 17343 bound_to 10162
  157.7503  131.0293  150.4086 LP  0  0  0  0  0  0  0  0  0  0  0  0  # atno 17370 bound_to 10713
  156.4362  130.3982  149.6727 LP  0  0  0  0  0  0  0  0  0  0  0  0  # atno 17371 bound_to 10713
  140.5295  134.6226  157.5345 LP  0  0  0  0  0  0  0  0  0  0  0  0  # atno 17394 bound_to 11000
  139.9713  134.7288  156.0036 LP  0  0  0  0  0  0  0  0  0  0  0  0  # atno 17395 bound_to 11000

$$$$
