AV-unprocessed.smi:514|AV-procd|sdf|2776|dock9
  -GOLD-   2262023243D 1   1.00000     0.00000
 Structure written by MMmdl.
 46 48  0  0  0  0  0  0  0  0  2 V2000
  147.9029  132.8965  152.9810 C   0  0  0  0  0  0  0  0  0  0  0  0
  148.9068  131.8226  153.4047 C   0  0  0  0  0  0  0  0  0  0  0  0
  149.2148  132.0109  154.7742 O   0  0  0  0  0  0  0  0  0  0  0  0
  149.6714  133.3177  155.0740 C   0  0  0  0  0  0  0  0  0  0  0  0
  148.6783  134.0414  156.0074 C   0  0  0  0  0  0  0  0  0  0  0  0
  148.2943  135.3663  155.5210 N   0  0  0  0  0  0  0  0  0  0  0  0
  147.0666  135.8403  155.1458 C   0  0  0  0  0  0  0  0  0  0  0  0
  145.8860  135.0773  155.1335 N   0  0  0  0  0  0  0  0  0  0  0  0
  145.6556  133.9608  156.0550 C   0  0  0  0  0  0  0  0  0  0  0  0
  144.3363  134.1262  156.8316 C   0  0  0  0  0  0  0  0  0  0  0  0
  143.1979  134.2610  155.9010 N   0  3  0  0  0  0  0  0  0  0  0  0
  143.4204  135.3101  154.8861 C   0  0  0  0  0  0  0  0  0  0  0  0
  144.7729  135.0969  154.1813 C   0  0  0  0  0  0  0  0  0  0  0  0
  147.0817  137.1107  154.7289 N   0  0  0  0  0  0  0  0  0  0  0  0
  148.4110  137.4769  154.8318 C   0  0  0  0  0  0  0  0  0  0  0  0
  149.1606  136.4400  155.2788 C   0  0  0  0  0  0  0  0  0  0  0  0
  150.6227  136.5435  155.4250 C   0  0  0  0  0  0  0  0  0  0  0  0
  151.3430  135.6072  155.7632 O   0  0  0  0  0  0  0  0  0  0  0  0
  151.1021  137.7781  155.1390 N   0  0  0  0  0  0  0  0  0  0  0  0
  150.3942  138.8673  154.7125 C   0  0  0  0  0  0  0  0  0  0  0  0
  150.9730  139.9345  154.5105 O   0  0  0  0  0  0  0  0  0  0  0  0
  149.0443  138.7140  154.5254 N   0  0  0  0  0  0  0  0  0  0  0  0
  148.2215  139.8291  154.0523 C   0  0  0  0  0  0  0  0  0  0  0  0
  152.0974  137.9071  155.2475 H   0  0  0  0  0  0  0  0  0  0  0  0
  147.6379  132.7901  151.9289 H   0  0  0  0  0  0  0  0  0  0  0  0
  148.3161  133.8951  153.1240 H   0  0  0  0  0  0  0  0  0  0  0  0
  146.9859  132.8271  153.5664 H   0  0  0  0  0  0  0  0  0  0  0  0
  148.4824  130.8303  153.2468 H   0  0  0  0  0  0  0  0  0  0  0  0
  149.8111  131.8984  152.7994 H   0  0  0  0  0  0  0  0  0  0  0  0
  150.6499  133.2671  155.5535 H   0  0  0  0  0  0  0  0  0  0  0  0
  149.7990  133.8605  154.1385 H   0  0  0  0  0  0  0  0  0  0  0  0
  147.7788  133.4389  156.1252 H   0  0  0  0  0  0  0  0  0  0  0  0
  149.0791  134.1222  157.0148 H   0  0  0  0  0  0  0  0  0  0  0  0
  145.6494  133.0259  155.4926 H   0  0  0  0  0  0  0  0  0  0  0  0
  146.4747  133.8791  156.7698 H   0  0  0  0  0  0  0  0  0  0  0  0
  144.1666  133.2700  157.4846 H   0  0  0  0  0  0  0  0  0  0  0  0
  144.3841  135.0108  157.4680 H   0  0  0  0  0  0  0  0  0  0  0  0
  143.0782  133.3800  155.4219 H   0  0  0  0  0  0  0  0  0  0  0  0
  142.6050  135.2873  154.1630 H   0  0  0  0  0  0  0  0  0  0  0  0
  143.3917  136.2865  155.3710 H   0  0  0  0  0  0  0  0  0  0  0  0
  144.9139  135.8460  153.4124 H   0  0  0  0  0  0  0  0  0  0  0  0
  144.7587  134.1453  153.6479 H   0  0  0  0  0  0  0  0  0  0  0  0
  147.8958  140.4366  154.8970 H   0  0  0  0  0  0  0  0  0  0  0  0
  147.3326  139.4775  153.5282 H   0  0  0  0  0  0  0  0  0  0  0  0
  148.7595  140.4737  153.3559 H   0  0  0  0  0  0  0  0  0  0  0  0
  142.3579  134.4677  156.4223 H   0  0  0  0  0  0  0  0  0  0  0  0
  1  2  1  0  0  0  0
  1 25  1  0  0  0  0
  1 26  1  0  0  0  0
  1 27  1  0  0  0  0
  2  3  1  0  0  0  0
  2 28  1  0  0  0  0
  2 29  1  0  0  0  0
  3  4  1  0  0  0  0
  4  5  1  0  0  0  0
  4 30  1  0  0  0  0
  4 31  1  0  0  0  0
  5  6  1  0  0  0  0
  5 32  1  0  0  0  0
  5 33  1  0  0  0  0
  6 16  1  0  0  0  0
  6  7  1  0  0  0  0
  7  8  1  0  0  0  0
  7 14  2  0  0  0  0
  8 13  1  0  0  0  0
  8  9  1  0  0  0  0
  9 10  1  0  0  0  0
  9 34  1  0  0  0  0
  9 35  1  0  0  0  0
 10 11  1  0  0  0  0
 10 36  1  0  0  0  0
 10 37  1  0  0  0  0
 11 12  1  0  0  0  0
 11 38  1  0  0  0  0
 11 46  1  0  0  0  0
 12 13  1  0  0  0  0
 12 39  1  0  0  0  0
 12 40  1  0  0  0  0
 13 41  1  0  0  0  0
 13 42  1  0  0  0  0
 14 15  1  0  0  0  0
 15 22  1  0  0  0  0
 15 16  2  0  0  0  0
 16 17  1  0  0  0  0
 17 18  2  0  0  0  0
 17 19  1  0  0  0  0
 19 24  1  0  0  0  0
 19 20  1  0  0  0  0
 20 21  2  0  0  0  0
 20 22  1  0  0  0  0
 22 23  1  0  0  0  0
 23 43  1  0  0  0  0
 23 44  1  0  0  0  0
 23 45  1  0  0  0  0
M  CHG  1  11   1
M  END
> <s_m_source_file>
AV-unprocessed.smi

> <i_m_source_file_index>
514

> <i_lp_mmshare_version>
43012

> <i_f3d_flags>
0

> <s_epik_input>
W0NIM11uMWMoPU8pW25IXWMoPU8pYyhjMTIpbihbQ0gyXVtDSDJdT1tDSDJdW0NIM10pYyhuMilOM1tDSDJdW0NIMl1bTkhdW0NIMl1bQ0gyXTM=

> <s_epik_cmdline>
J2VwaWtfcHl0aG9uJywgJy1waCcsICc3LjAnLCAnLXRuJywgJzgnLCAnLW1hJywgJzIwMCcsICctbWV0YWxfYmluZGluZycsICctaW1hZScsICc8aW5maWxlLm1hZT4nLCAnLW9tYWUnLCAnPG91dGZpbGUubWFlPic=

> <r_epik_Ionization_Penalty>
0.00860326

> <r_epik_Ionization_Penalty_Charging>
0.00860166

> <r_epik_Ionization_Penalty_Neutral>
1.60107e-06

> <r_epik_State_Penalty>
0.00646614

> <r_epik_Charging_Adjusted_Penalty>
0.0150678

> <i_epik_Tot_Q>
1

> <i_epik_Tot_abs_Q>
1

> <r_epik_Metal_State_Penalty>
0.0342529

> <b_epik_Metal_Only>
0

> <s_lp_Force_Field>
OPLS_2005

> <r_lp_Energy>
46.1071

> <b_lp_Chiralities_Consistent>
1

> <s_lp_Variant>
AV-unprocessed.smi:514-1

> <Gold.Version>
5.8.1

> <Gold.Id.Protein>
6NUR|6NUR_protein|mol2

> <Gold.PLP.Fitness>
37.3942

> <Gold.PLP.PLP>
-24.7749

> <Gold.PLP.part.hbond>
-4.0000

> <Gold.PLP.part.metal>
0.0000

> <Gold.PLP.part.buried>
-5.0377

> <Gold.PLP.part.nonpolar>
-17.1592

> <Gold.PLP.part.repulsive>
0.3155

> <Gold.PLP.ligand.clash>
0.0000

> <Gold.PLP.ligand.torsion>
1.1668

> <Gold.PLP.Chemscore.Hbond>
4.9760

> <Gold.PLP.Chemscore.CHOScore>
0.0000

> <Gold.PLP.Chemscore.Metal>
0.0000

> <Gold.Chemscore.Hbonds>
donor molecule, donor type, donor heavy atom, donor atom, acceptor molecule, acceptor atom, score
      L1  H    11    38       P1 10957  2.00
      L1  H    11    46       P1 11000  0.96
      P1  H  7989  7998       L1    21  0.99
      P1  H 10752 10765       L1    18  1.00

> <Gold.PLP.Chemscore.Internal.Correction>
0.0248

> <Gold.Rescore>
     Score         DG    S(hbond)    S(metal)    S(lipo)     H(rot)  DE(clash)    DE(int)     intcor
     15.77     -17.75       3.77        0.00      35.33       1.75       0.00       1.98       ----

> <Gold.Chemscore.Fitness>
15.7702

> <Gold.Chemscore.DG>
-17.7494

> <Gold.Chemscore.ZeroCoef>
-5.4800

> <Gold.Chemscore.Hbond>
3.7743

> <Gold.Chemscore.Metal>
0.0000

> <Gold.Chemscore.Lipo>
35.3262

> <Gold.Chemscore.Internal_Hbond>
0.0000

> <Gold.Chemscore.DEClash>
0.0000

> <Gold.Chemscore.DEInternal>
1.9792

> <Gold.Chemscore.Rot>
1.7461

> <Gold.Chemscore.Internal.Correction>
   9.000000E+99

> <Gold.Chemscore.Hbonds>
donor molecule, donor type, donor heavy atom, donor atom, acceptor molecule, acceptor atom, score
      L1  H    11    38       P1 10957  1.00
      L1  H    11    46       P1 11000  0.43
      P1  H  7989  7998       L1    21  0.92
      P1  H 10752 10765       L1    18  0.92

> <Gold.Chemscore.Hbond.Weighted>
-12.6063

> <Gold.Chemscore.Metal.Weighted>
-0.0000

> <Gold.Chemscore.Lipo.Weighted>
-4.1332

> <Gold.Chemscore.Internal_Hbond.Weighted>
0.0000

> <Gold.Chemscore.DEClash.Weighted>
0.0000

> <Gold.Chemscore.DEInternal.Weighted>
1.9792

> <Gold.Chemscore.Rot.Weighted>
4.4701

> <Gold.Chemscore.Internal.Correction.Weighted>
   9.000000E+99

> <Gold.Protein.RotatedTorsions>
[ 6907 6896 6895 6894 ] final  -58.93 input  -60.11 | X-H torsion
[ 7974 7965 7964 7962 ] final   95.24 input  175.53 | X-H torsion
[ 8008 7997 7996 7995 ] final  149.96 input   59.86 | X-H torsion
[ 10167 10162 10161 10158 ] final   76.22 input  -65.29 | X-H torsion
[ 10718 10713 10712 10709 ] final -154.82 input   66.30 | X-H torsion
[ 10763 10752 10751 10750 ] final -162.54 input  -60.55 | X-H torsion
[ 11005 11000 10999 10996 ] final  117.91 input  -57.11 | X-H torsion

> <Gold.Protein.ActiveResidues>
 VAL166  LYS551  ARG553  GLY616  TRP617  ASP618  TYR619  PRO620  LYS621  CYS622 
 ASP623  PHE694  ASN695  SER759  ASP760  ASP761  ALA762  ILE779  LEU786  VAL792 
 PHE793  MET794  SER795  GLU796  ALA797  LYS798  CYS799  TRP800  GLU811  SER814 

> <Gold.Protein.RotatedAtoms>
  150.7969  134.7034  159.6562 H   0  0  0  0  0  0  0  0  0  0  0  0  # atno 6907 bound_to 6896
  152.4082  134.6167  160.0050 H   0  0  0  0  0  0  0  0  0  0  0  0  # atno 6908 bound_to 6896
  151.6418  133.3288  159.3168 H   0  0  0  0  0  0  0  0  0  0  0  0  # atno 6909 bound_to 6896
  145.4549  139.2291  143.3019 H   0  0  0  0  0  0  0  0  0  0  0  0  # atno 7974 bound_to 7965
  156.2735  140.2088  156.5941 H   0  0  0  0  0  0  0  0  0  0  0  0  # atno 8008 bound_to 7997
  154.6959  140.0525  157.0433 H   0  0  0  0  0  0  0  0  0  0  0  0  # atno 8009 bound_to 7997
  155.0802  140.3186  155.4607 H   0  0  0  0  0  0  0  0  0  0  0  0  # atno 8010 bound_to 7997
  139.9946  144.5731  150.7788 H   0  0  0  0  0  0  0  0  0  0  0  0  # atno 10167 bound_to 10162
  156.5045  130.8406  151.2622 H   0  0  0  0  0  0  0  0  0  0  0  0  # atno 10718 bound_to 10713
  154.7204  135.3024  154.9056 H   0  0  0  0  0  0  0  0  0  0  0  0  # atno 10763 bound_to 10752
  153.9929  135.6716  153.4759 H   0  0  0  0  0  0  0  0  0  0  0  0  # atno 10764 bound_to 10752
  153.0829  135.4999  154.8457 H   0  0  0  0  0  0  0  0  0  0  0  0  # atno 10765 bound_to 10752
  139.9091  134.9615  156.7423 H   0  0  0  0  0  0  0  0  0  0  0  0  # atno 11005 bound_to 11000
  146.2484  140.5312  142.8904 LP  0  0  0  0  0  0  0  0  0  0  0  0  # atno 17320 bound_to 7965
  144.8039  140.6263  143.6460 LP  0  0  0  0  0  0  0  0  0  0  0  0  # atno 17321 bound_to 7965
  140.7442  143.2857  151.3471 LP  0  0  0  0  0  0  0  0  0  0  0  0  # atno 17342 bound_to 10162
  139.6315  144.0712  152.2480 LP  0  0  0  0  0  0  0  0  0  0  0  0  # atno 17343 bound_to 10162
  157.7458  130.9970  150.2802 LP  0  0  0  0  0  0  0  0  0  0  0  0  # atno 17370 bound_to 10713
  156.3300  130.3799  149.7499 LP  0  0  0  0  0  0  0  0  0  0  0  0  # atno 17371 bound_to 10713
  140.6839  133.9450  155.7926 LP  0  0  0  0  0  0  0  0  0  0  0  0  # atno 17394 bound_to 11000
  141.0490  134.0512  157.3807 LP  0  0  0  0  0  0  0  0  0  0  0  0  # atno 17395 bound_to 11000

$$$$
