AV-unprocessed.smi:426|AV-procd|sdf|2541|dock1
  -GOLD-   2262022503D 1   1.00000     0.00000
 Structure written by MMmdl.
 37 38  0  0  0  0  0  0  0  0  1 V2000
  141.9010  137.8193  153.3258 C   0  0  0  0  0  0  0  0  0  0  0  0
  142.7414  136.6077  152.8884 C   0  0  0  0  0  0  0  0  0  0  0  0
  142.1133  135.2905  153.3735 C   0  0  0  0  0  0  0  0  0  0  0  0
  144.1864  136.7345  153.3908 C   0  0  0  0  0  0  0  0  0  0  0  0
  144.6716  135.8344  154.0759 O   0  0  0  0  0  0  0  0  0  0  0  0
  144.8284  137.8671  153.0474 N   0  0  0  0  0  0  0  0  0  0  0  0
  146.1631  138.2644  153.3348 C   0  0  0  0  0  0  0  0  0  0  0  0
  146.8518  139.3086  152.6744 C   0  0  0  0  0  0  0  0  0  0  0  0
  148.1672  139.6167  153.0712 C   0  0  0  0  0  0  0  0  0  0  0  0
  148.7641  138.8856  154.1252 C   0  0  0  0  0  0  0  0  0  0  0  0
  150.0794  139.1849  154.5437 N   0  0  0  0  0  0  0  0  0  0  0  0
  151.0732  138.1133  154.5004 C   0  0  0  0  0  0  0  0  0  0  0  0
  152.4866  138.6825  154.7107 C   0  0  0  0  0  0  0  0  0  0  0  0
  152.5299  139.4232  155.9255 O   0  0  0  0  0  0  0  0  0  0  0  0
  151.6344  140.5295  155.9019 C   0  0  0  0  0  0  0  0  0  0  0  0
  150.1898  140.0282  155.7317 C   0  0  0  0  0  0  0  0  0  0  0  0
  148.0992  137.8875  154.7577 N   0  0  0  0  0  0  0  0  0  0  0  0
  146.8392  137.5949  154.3739 C   0  0  0  0  0  0  0  0  0  0  0  0
  142.3486  138.7554  152.9891 H   0  0  0  0  0  0  0  0  0  0  0  0
  141.8007  137.8689  154.4109 H   0  0  0  0  0  0  0  0  0  0  0  0
  140.8965  137.7684  152.9052 H   0  0  0  0  0  0  0  0  0  0  0  0
  142.7564  136.5888  151.7972 H   0  0  0  0  0  0  0  0  0  0  0  0
  142.7119  134.4304  153.0705 H   0  0  0  0  0  0  0  0  0  0  0  0
  141.1156  135.1577  152.9543 H   0  0  0  0  0  0  0  0  0  0  0  0
  142.0204  135.2657  154.4601 H   0  0  0  0  0  0  0  0  0  0  0  0
  144.2762  138.5483  152.5466 H   0  0  0  0  0  0  0  0  0  0  0  0
  146.4025  139.8869  151.8829 H   0  0  0  0  0  0  0  0  0  0  0  0
  148.7014  140.4014  152.5570 H   0  0  0  0  0  0  0  0  0  0  0  0
  150.8473  137.3798  155.2757 H   0  0  0  0  0  0  0  0  0  0  0  0
  151.0318  137.5977  153.5402 H   0  0  0  0  0  0  0  0  0  0  0  0
  153.2136  137.8720  154.7627 H   0  0  0  0  0  0  0  0  0  0  0  0
  152.7787  139.3188  153.8736 H   0  0  0  0  0  0  0  0  0  0  0  0
  151.7313  141.0840  156.8352 H   0  0  0  0  0  0  0  0  0  0  0  0
  151.9051  141.2138  155.0961 H   0  0  0  0  0  0  0  0  0  0  0  0
  149.5227  140.8873  155.6823 H   0  0  0  0  0  0  0  0  0  0  0  0
  149.8921  139.4455  156.6044 H   0  0  0  0  0  0  0  0  0  0  0  0
  146.3561  136.7953  154.9167 H   0  0  0  0  0  0  0  0  0  0  0  0
  1  2  1  0  0  0  0
  1 19  1  0  0  0  0
  1 20  1  0  0  0  0
  1 21  1  0  0  0  0
  2  3  1  0  0  0  0
  2  4  1  0  0  0  0
  2 22  1  0  0  0  0
  3 23  1  0  0  0  0
  3 24  1  0  0  0  0
  3 25  1  0  0  0  0
  4  5  2  0  0  0  0
  4  6  1  0  0  0  0
  6  7  1  0  0  0  0
  6 26  1  0  0  0  0
  7 18  1  0  0  0  0
  7  8  2  0  0  0  0
  8  9  1  0  0  0  0
  8 27  1  0  0  0  0
  9 10  2  0  0  0  0
  9 28  1  0  0  0  0
 10 11  1  0  0  0  0
 10 17  1  0  0  0  0
 11 16  1  0  0  0  0
 11 12  1  0  0  0  0
 12 13  1  0  0  0  0
 12 29  1  0  0  0  0
 12 30  1  0  0  0  0
 13 14  1  0  0  0  0
 13 31  1  0  0  0  0
 13 32  1  0  0  0  0
 14 15  1  0  0  0  0
 15 16  1  0  0  0  0
 15 33  1  0  0  0  0
 15 34  1  0  0  0  0
 16 35  1  0  0  0  0
 16 36  1  0  0  0  0
 17 18  2  0  0  0  0
 18 37  1  0  0  0  0
M  END
> <s_m_source_file>
AV-unprocessed.smi

> <i_m_source_file_index>
426

> <i_lp_mmshare_version>
43012

> <i_f3d_flags>
0

> <s_epik_input>
W0NIM11bQ0hdKFtDSDNdKUMoPU8pW05IXWMxW2NIXVtjSF1jKG5bY0hdMSlOMltDSDJdW0NIMl1PW0NIMl1bQ0gyXTI=

> <s_epik_cmdline>
J2VwaWtfcHl0aG9uJywgJy1waCcsICc3LjAnLCAnLXRuJywgJzgnLCAnLW1hJywgJzIwMCcsICctbWV0YWxfYmluZGluZycsICctaW1hZScsICc8aW5maWxlLm1hZT4nLCAnLW9tYWUnLCAnPG91dGZpbGUubWFlPic=

> <r_lp_tautomer_probability>
1

> <r_epik_Ionization_Penalty>
0.000693659

> <r_epik_Ionization_Penalty_Charging>
0

> <r_epik_Ionization_Penalty_Neutral>
0.000693659

> <r_epik_State_Penalty>
0.000430321

> <r_epik_Charging_Adjusted_Penalty>
0.000430321

> <i_epik_Tot_Q>
0

> <i_epik_Tot_abs_Q>
0

> <r_epik_Metal_State_Penalty>
-0

> <b_epik_Metal_Only>
0

> <s_lp_Force_Field>
OPLS_2005

> <r_lp_Energy>
23.904

> <b_lp_Chiralities_Consistent>
1

> <s_lp_Variant>
AV-unprocessed.smi:426-1

> <Gold.Version>
5.8.1

> <Gold.Id.Protein>
6NUR|6NUR_protein|mol2

> <Gold.PLP.Fitness>
32.8891

> <Gold.PLP.PLP>
-27.3462

> <Gold.PLP.part.hbond>
-2.0000

> <Gold.PLP.part.metal>
0.0000

> <Gold.PLP.part.buried>
-0.3362

> <Gold.PLP.part.nonpolar>
-25.2117

> <Gold.PLP.part.repulsive>
0.2916

> <Gold.PLP.ligand.clash>
0.0000

> <Gold.PLP.ligand.torsion>
0.3927

> <Gold.PLP.Chemscore.Hbond>
1.9920

> <Gold.PLP.Chemscore.CHOScore>
0.0000

> <Gold.PLP.Chemscore.Metal>
0.0000

> <Gold.Chemscore.Hbonds>
donor molecule, donor type, donor heavy atom, donor atom, acceptor molecule, acceptor atom, score
      L1  H     6    26       P1 10175  0.94
      P1  H  7997  8009       L1    14  1.00

> <Gold.PLP.Chemscore.Internal.Correction>
0.3522

> <Gold.Rescore>
     Score         DG    S(hbond)    S(metal)    S(lipo)     H(rot)  DE(clash)    DE(int)     intcor
     12.51     -16.06       1.75        0.00      66.07       1.18       1.71       1.84       ----

> <Gold.Chemscore.Fitness>
12.5113

> <Gold.Chemscore.DG>
-16.0566

> <Gold.Chemscore.ZeroCoef>
-5.4800

> <Gold.Chemscore.Hbond>
1.7528

> <Gold.Chemscore.Metal>
0.0000

> <Gold.Chemscore.Lipo>
66.0715

> <Gold.Chemscore.Internal_Hbond>
0.0000

> <Gold.Chemscore.DEClash>
1.7050

> <Gold.Chemscore.DEInternal>
1.8402

> <Gold.Chemscore.Rot>
1.1750

> <Gold.Chemscore.Internal.Correction>
   9.000000E+99

> <Gold.Chemscore.Hbonds>
donor molecule, donor type, donor heavy atom, donor atom, acceptor molecule, acceptor atom, score
      L1  H     6    26       P1 10175  0.88
      P1  H  7997  8009       L1    14  0.50

> <Gold.Chemscore.Hbond.Weighted>
-5.8542

> <Gold.Chemscore.Metal.Weighted>
-0.0000

> <Gold.Chemscore.Lipo.Weighted>
-7.7304

> <Gold.Chemscore.Internal_Hbond.Weighted>
0.0000

> <Gold.Chemscore.DEClash.Weighted>
1.7050

> <Gold.Chemscore.DEInternal.Weighted>
1.8402

> <Gold.Chemscore.Rot.Weighted>
3.0080

> <Gold.Chemscore.Internal.Correction.Weighted>
   9.000000E+99

> <Gold.Protein.RotatedTorsions>
[ 6907 6896 6895 6894 ] final -114.63 input  -60.11 | X-H torsion
[ 7974 7965 7964 7962 ] final  102.91 input  175.53 | X-H torsion
[ 8008 7997 7996 7995 ] final -158.89 input   59.86 | X-H torsion
[ 10167 10162 10161 10158 ] final -178.60 input  -65.29 | X-H torsion
[ 10718 10713 10712 10709 ] final   10.07 input   66.30 | X-H torsion
[ 10763 10752 10751 10750 ] final  130.99 input  -60.55 | X-H torsion
[ 11005 11000 10999 10996 ] final   45.01 input  -57.11 | X-H torsion

> <Gold.Protein.ActiveResidues>
 VAL166  LYS551  ARG553  GLY616  TRP617  ASP618  TYR619  PRO620  LYS621  CYS622 
 ASP623  PHE694  ASN695  SER759  ASP760  ASP761  ALA762  ILE779  LEU786  VAL792 
 PHE793  MET794  SER795  GLU796  ALA797  LYS798  CYS799  TRP800  GLU811  SER814 

> <Gold.Protein.RotatedAtoms>
  150.7916  133.8774  159.3275 H   0  0  0  0  0  0  0  0  0  0  0  0  # atno 6907 bound_to 6896
  151.6610  135.0987  160.0189 H   0  0  0  0  0  0  0  0  0  0  0  0  # atno 6908 bound_to 6896
  152.3991  133.6752  159.6337 H   0  0  0  0  0  0  0  0  0  0  0  0  # atno 6909 bound_to 6896
  145.3529  139.2435  143.3548 H   0  0  0  0  0  0  0  0  0  0  0  0  # atno 7974 bound_to 7965
  155.7544  140.0831  157.2185 H   0  0  0  0  0  0  0  0  0  0  0  0  # atno 8008 bound_to 7997
  154.4009  140.1554  156.2817 H   0  0  0  0  0  0  0  0  0  0  0  0  # atno 8009 bound_to 7997
  155.8899  140.3416  155.5951 H   0  0  0  0  0  0  0  0  0  0  0  0  # atno 8010 bound_to 7997
  139.5425  144.2325  152.0923 H   0  0  0  0  0  0  0  0  0  0  0  0  # atno 10167 bound_to 10162
  156.9756  130.5986  149.5672 H   0  0  0  0  0  0  0  0  0  0  0  0  # atno 10718 bound_to 10713
  153.7670  135.3187  155.3346 H   0  0  0  0  0  0  0  0  0  0  0  0  # atno 10763 bound_to 10752
  154.8210  135.4603  154.0782 H   0  0  0  0  0  0  0  0  0  0  0  0  # atno 10764 bound_to 10752
  153.2030  135.6925  153.8292 H   0  0  0  0  0  0  0  0  0  0  0  0  # atno 10765 bound_to 10752
  140.1499  134.4475  155.8389 H   0  0  0  0  0  0  0  0  0  0  0  0  # atno 11005 bound_to 11000
  146.2960  140.4148  142.8721 LP  0  0  0  0  0  0  0  0  0  0  0  0  # atno 17320 bound_to 7965
  144.8704  140.7264  143.6050 LP  0  0  0  0  0  0  0  0  0  0  0  0  # atno 17321 bound_to 7965
  140.1806  144.4848  150.6530 LP  0  0  0  0  0  0  0  0  0  0  0  0  # atno 17342 bound_to 10162
  140.6660  143.2268  151.5741 LP  0  0  0  0  0  0  0  0  0  0  0  0  # atno 17343 bound_to 10162
  156.0265  130.5358  150.8420 LP  0  0  0  0  0  0  0  0  0  0  0  0  # atno 17370 bound_to 10713
  157.5562  131.0945  150.9625 LP  0  0  0  0  0  0  0  0  0  0  0  0  # atno 17371 bound_to 10713
  141.2197  133.6868  156.7402 LP  0  0  0  0  0  0  0  0  0  0  0  0  # atno 17394 bound_to 11000
  140.2618  134.8461  157.3765 LP  0  0  0  0  0  0  0  0  0  0  0  0  # atno 17395 bound_to 11000

$$$$
