AV-unprocessed.smi:826|AV-procd|sdf|3855|dock7
  -GOLD-   22720 1303D 1   1.00000     0.00000
 Structure written by MMmdl.
 38 39  0  0  0  0  0  0  0  0  2 V2000
  146.9046  133.8207  162.2160 C   0  0  0  0  0  0  0  0  0  0  0  0
  147.3389  135.0086  161.4281 C   0  0  0  0  0  0  0  0  0  0  0  0
  147.1564  136.2631  161.8473 N   0  0  0  0  0  0  0  0  0  0  0  0
  147.6495  137.1933  160.9435 N   0  0  0  0  0  0  0  0  0  0  0  0
  148.2073  136.6308  159.8619 C   0  0  0  0  0  0  0  0  0  0  0  0
  148.7462  137.3574  158.8690 N   0  5  0  0  0  0  0  0  0  0  0  0
  150.0723  137.6240  158.8719 C   0  0  0  0  0  0  0  0  0  0  0  0
  150.9658  136.8778  159.2796 O   0  0  0  0  0  0  0  0  0  0  0  0
  150.3849  138.8266  158.3654 N   0  0  0  0  0  0  0  0  0  0  0  0
  151.7340  139.3745  158.2293 C   0  0  1  0  0  0  0  0  0  0  0  0
  152.0343  139.5339  156.7292 C   0  0  0  0  0  0  0  0  0  0  0  0
  151.8174  140.7605  158.8877 C   0  0  0  0  0  0  0  0  0  0  0  0
  150.7948  141.4019  159.1348 O   0  0  0  0  0  0  0  0  0  0  0  0
  153.0519  141.2170  159.1467 N   0  0  0  0  0  0  0  0  0  0  0  0
  153.3608  142.5102  159.7493 C   0  0  0  0  0  0  0  0  0  0  0  0
  152.6470  142.6873  161.1061 C   0  0  0  0  0  0  0  0  0  0  0  0
  151.9138  144.0286  161.0319 C   0  0  0  0  0  0  0  0  0  0  0  0
  151.6252  144.2240  159.5466 C   0  0  0  0  0  0  0  0  0  0  0  0
  152.8621  143.6560  158.8512 C   0  0  0  0  0  0  0  0  0  0  0  0
  148.1392  134.8685  159.8724 S   0  0  0  0  0  0  0  0  0  0  0  0
  147.7356  133.4500  162.8164 H   0  0  0  0  0  0  0  0  0  0  0  0
  146.5737  133.0268  161.5465 H   0  0  0  0  0  0  0  0  0  0  0  0
  146.0802  134.0827  162.8800 H   0  0  0  0  0  0  0  0  0  0  0  0
  149.6230  139.4101  158.0529 H   0  0  0  0  0  0  0  0  0  0  0  0
  152.4630  138.6937  158.6738 H   0  0  0  0  0  0  0  0  0  0  0  0
  153.0323  139.9427  156.5666 H   0  0  0  0  0  0  0  0  0  0  0  0
  151.3188  140.1940  156.2365 H   0  0  0  0  0  0  0  0  0  0  0  0
  151.9931  138.5698  156.2217 H   0  0  0  0  0  0  0  0  0  0  0  0
  153.8333  140.6213  158.9156 H   0  0  0  0  0  0  0  0  0  0  0  0
  154.4413  142.6055  159.8731 H   0  0  0  0  0  0  0  0  0  0  0  0
  151.9180  141.8909  161.2652 H   0  0  0  0  0  0  0  0  0  0  0  0
  153.3451  142.6534  161.9430 H   0  0  0  0  0  0  0  0  0  0  0  0
  151.0102  144.0471  161.6417 H   0  0  0  0  0  0  0  0  0  0  0  0
  152.5696  144.8257  161.3845 H   0  0  0  0  0  0  0  0  0  0  0  0
  150.7451  143.6456  159.2628 H   0  0  0  0  0  0  0  0  0  0  0  0
  151.4392  145.2666  159.2871 H   0  0  0  0  0  0  0  0  0  0  0  0
  153.6291  144.4300  158.8000 H   0  0  0  0  0  0  0  0  0  0  0  0
  152.6539  143.3457  157.8262 H   0  0  0  0  0  0  0  0  0  0  0  0
  1  2  1  0  0  0  0
  1 21  1  0  0  0  0
  1 22  1  0  0  0  0
  1 23  1  0  0  0  0
  2 20  1  0  0  0  0
  2  3  2  0  0  0  0
  3  4  1  0  0  0  0
  4  5  2  0  0  0  0
  5  6  1  0  0  0  0
  5 20  1  0  0  0  0
  6  7  1  0  0  0  0
  7  8  2  0  0  0  0
  7  9  1  0  0  0  0
  9 10  1  0  0  0  0
  9 24  1  0  0  0  0
 10 11  1  0  0  0  0
 10 12  1  0  0  0  0
 10 25  1  0  0  0  0
 11 26  1  0  0  0  0
 11 27  1  0  0  0  0
 11 28  1  0  0  0  0
 12 13  2  0  0  0  0
 12 14  1  0  0  0  0
 14 15  1  0  0  0  0
 14 29  1  0  0  0  0
 15 19  1  0  0  0  0
 15 16  1  0  0  0  0
 15 30  1  0  0  0  0
 16 17  1  0  0  0  0
 16 31  1  0  0  0  0
 16 32  1  0  0  0  0
 17 18  1  0  0  0  0
 17 33  1  0  0  0  0
 17 34  1  0  0  0  0
 18 19  1  0  0  0  0
 18 35  1  0  0  0  0
 18 36  1  0  0  0  0
 19 37  1  0  0  0  0
 19 38  1  0  0  0  0
M  CHG  1   6  -1
M  END
> <s_m_source_file>
AV-unprocessed.smi

> <i_m_source_file_index>
826

> <i_lp_mmshare_version>
43012

> <i_f3d_flags>
0

> <s_epik_input>
W0NIM11jMW5uYyhzMSlbTkhdQyg9TylbTkhdW0NASF0oW0NIM10pQyg9TylbTkhdW0NIXTJbQ0gyXVtDSDJdW0NIMl1bQ0gyXTI=

> <s_epik_cmdline>
J2VwaWtfcHl0aG9uJywgJy1waCcsICc3LjAnLCAnLXRuJywgJzgnLCAnLW1hJywgJzIwMCcsICctbWV0YWxfYmluZGluZycsICctaW1hZScsICc8aW5maWxlLm1hZT4nLCAnLW9tYWUnLCAnPG91dGZpbGUubWFlPic=

> <r_lp_tautomer_probability>
1

> <r_epik_Ionization_Penalty>
3.15008

> <r_epik_Ionization_Penalty_Charging>
3.01509

> <r_epik_Ionization_Penalty_Neutral>
0.134987

> <r_epik_State_Penalty>
3.01143

> <r_epik_Charging_Adjusted_Penalty>
6.02652

> <i_epik_Tot_Q>
-1

> <i_epik_Tot_abs_Q>
1

> <r_epik_Metal_State_Penalty>
0.454645

> <b_epik_Metal_Only>
1

> <s_lp_Force_Field>
OPLS_2005

> <r_lp_Energy>
16.5176

> <b_lp_Chiralities_Consistent>
1

> <s_lp_Variant>
AV-unprocessed.smi:826-4

> <Gold.Version>
5.8.1

> <Gold.Id.Protein>
6NUR|6NUR_protein|mol2

> <Gold.PLP.Fitness>
46.9742

> <Gold.PLP.PLP>
-41.7555

> <Gold.PLP.part.hbond>
-3.8018

> <Gold.PLP.part.metal>
0.0000

> <Gold.PLP.part.buried>
-5.4649

> <Gold.PLP.part.nonpolar>
-32.8219

> <Gold.PLP.part.repulsive>
0.2279

> <Gold.PLP.ligand.clash>
0.0000

> <Gold.PLP.ligand.torsion>
1.5387

> <Gold.PLP.Chemscore.Hbond>
2.7520

> <Gold.PLP.Chemscore.CHOScore>
0.0000

> <Gold.PLP.Chemscore.Metal>
0.0000

> <Gold.Chemscore.Hbonds>
donor molecule, donor type, donor heavy atom, donor atom, acceptor molecule, acceptor atom, score
      P1  H  6896  6909       L1     8  1.00
      P1  H  6931  6943       L1     4  0.86
      P1  H  6934  6947       L1     4  0.93

> <Gold.PLP.Chemscore.Internal.Correction>
0.0401

> <Gold.Rescore>
     Score         DG    S(hbond)    S(metal)    S(lipo)     H(rot)  DE(clash)    DE(int)     intcor
     15.75     -18.77       1.96        0.00      93.21       1.62       0.05       2.96       ----

> <Gold.Chemscore.Fitness>
15.7532

> <Gold.Chemscore.DG>
-18.7689

> <Gold.Chemscore.ZeroCoef>
-5.4800

> <Gold.Chemscore.Hbond>
1.9553

> <Gold.Chemscore.Metal>
0.0000

> <Gold.Chemscore.Lipo>
93.2104

> <Gold.Chemscore.Internal_Hbond>
0.0000

> <Gold.Chemscore.DEClash>
0.0544

> <Gold.Chemscore.DEInternal>
2.9613

> <Gold.Chemscore.Rot>
1.6201

> <Gold.Chemscore.Internal.Correction>
   9.000000E+99

> <Gold.Chemscore.Hbonds>
donor molecule, donor type, donor heavy atom, donor atom, acceptor molecule, acceptor atom, score
      P1  H  6896  6909       L1     8  0.97
      P1  H  6931  6943       L1     4  0.35
      P1  H  6934  6947       L1     4  0.87

> <Gold.Chemscore.Hbond.Weighted>
-6.5307

> <Gold.Chemscore.Metal.Weighted>
-0.0000

> <Gold.Chemscore.Lipo.Weighted>
-10.9056

> <Gold.Chemscore.Internal_Hbond.Weighted>
0.0000

> <Gold.Chemscore.DEClash.Weighted>
0.0544

> <Gold.Chemscore.DEInternal.Weighted>
2.9613

> <Gold.Chemscore.Rot.Weighted>
4.1475

> <Gold.Chemscore.Internal.Correction.Weighted>
   9.000000E+99

> <Gold.Protein.RotatedTorsions>
[ 6907 6896 6895 6894 ] final   85.53 input  -60.11 | X-H torsion
[ 7974 7965 7964 7962 ] final   83.43 input  175.53 | X-H torsion
[ 8008 7997 7996 7995 ] final   93.58 input   59.86 | X-H torsion
[ 10167 10162 10161 10158 ] final -142.29 input  -65.29 | X-H torsion
[ 10718 10713 10712 10709 ] final  -51.13 input   66.30 | X-H torsion
[ 10763 10752 10751 10750 ] final -179.57 input  -60.55 | X-H torsion
[ 11005 11000 10999 10996 ] final  -80.26 input  -57.11 | X-H torsion

> <Gold.Protein.ActiveResidues>
 VAL166  LYS551  ARG553  GLY616  TRP617  ASP618  TYR619  PRO620  LYS621  CYS622 
 ASP623  PHE694  ASN695  SER759  ASP760  ASP761  ALA762  ILE779  LEU786  VAL792 
 PHE793  MET794  SER795  GLU796  ALA797  LYS798  CYS799  TRP800  GLU811  SER814 

> <Gold.Protein.RotatedAtoms>
  152.5376  134.2571  159.8920 H   0  0  0  0  0  0  0  0  0  0  0  0  # atno 6907 bound_to 6896
  151.2532  133.4332  159.2620 H   0  0  0  0  0  0  0  0  0  0  0  0  # atno 6908 bound_to 6896
  151.0520  134.9693  159.8272 H   0  0  0  0  0  0  0  0  0  0  0  0  # atno 6909 bound_to 6896
  145.6120  139.2370  143.2186 H   0  0  0  0  0  0  0  0  0  0  0  0  # atno 7974 bound_to 7965
  156.0483  140.3311  155.7322 H   0  0  0  0  0  0  0  0  0  0  0  0  # atno 8008 bound_to 7997
  155.5640  140.0621  157.2840 H   0  0  0  0  0  0  0  0  0  0  0  0  # atno 8009 bound_to 7997
  154.4424  140.1872  156.0800 H   0  0  0  0  0  0  0  0  0  0  0  0  # atno 8010 bound_to 7997
  139.8103  143.7712  152.2663 H   0  0  0  0  0  0  0  0  0  0  0  0  # atno 10167 bound_to 10162
  156.1737  130.4149  149.9608 H   0  0  0  0  0  0  0  0  0  0  0  0  # atno 10718 bound_to 10713
  154.5333  135.2801  155.1160 H   0  0  0  0  0  0  0  0  0  0  0  0  # atno 10763 bound_to 10752
  154.2672  135.6310  153.5300 H   0  0  0  0  0  0  0  0  0  0  0  0  # atno 10764 bound_to 10752
  152.9962  135.5619  154.5853 H   0  0  0  0  0  0  0  0  0  0  0  0  # atno 10765 bound_to 10752
  141.1668  133.7142  156.8246 H   0  0  0  0  0  0  0  0  0  0  0  0  # atno 11005 bound_to 11000
  146.1497  140.6943  142.9328 LP  0  0  0  0  0  0  0  0  0  0  0  0  # atno 17320 bound_to 7965
  144.7266  140.4543  143.6969 LP  0  0  0  0  0  0  0  0  0  0  0  0  # atno 17321 bound_to 7965
  139.7859  144.7428  151.0023 LP  0  0  0  0  0  0  0  0  0  0  0  0  # atno 17342 bound_to 10162
  140.7818  143.4493  151.0436 LP  0  0  0  0  0  0  0  0  0  0  0  0  # atno 17343 bound_to 10162
  156.7400  130.9076  151.3631 LP  0  0  0  0  0  0  0  0  0  0  0  0  # atno 17370 bound_to 10713
  157.6821  130.9150  150.0293 LP  0  0  0  0  0  0  0  0  0  0  0  0  # atno 17371 bound_to 10713
  140.2094  134.8838  157.3258 LP  0  0  0  0  0  0  0  0  0  0  0  0  # atno 17394 bound_to 11000
  140.2102  134.4147  155.7616 LP  0  0  0  0  0  0  0  0  0  0  0  0  # atno 17395 bound_to 11000

$$$$
