AV-unprocessed.smi:1398|AV-procd|sdf|5680|dock6
  -GOLD-   22720 5303D 1   1.00000     0.00000
 Structure written by MMmdl.
 41 42  0  0  0  0  0  0  0  0  1 V2000
  146.7346  132.3261  151.8634 C   0  0  0  0  0  0  0  0  0  0  0  0
  147.7439  133.1040  152.4975 O   0  0  0  0  0  0  0  0  0  0  0  0
  148.3263  132.6151  153.6513 C   0  0  0  0  0  0  0  0  0  0  0  0
  148.0990  131.3213  153.9909 N   0  0  0  0  0  0  0  0  0  0  0  0
  148.6700  130.8423  155.1152 C   0  0  0  0  0  0  0  0  0  0  0  0
  149.4961  131.6166  155.9503 C   0  0  0  0  0  0  0  0  0  0  0  0
  149.7326  132.9588  155.6008 C   0  0  0  0  0  0  0  0  0  0  0  0
  149.1276  133.4804  154.4321 C   0  0  0  0  0  0  0  0  0  0  0  0
  149.3176  134.8150  153.9804 N   0  0  0  0  0  0  0  0  0  0  0  0
  150.0468  135.7902  154.5481 C   0  0  0  0  0  0  0  0  0  0  0  0
  150.6930  135.6813  155.5902 O   0  0  0  0  0  0  0  0  0  0  0  0
  149.9642  136.9274  153.8436 N   0  0  0  0  0  0  0  0  0  0  0  0
  150.5991  138.1883  154.2090 C   0  0  0  0  0  0  0  0  0  0  0  0
  149.7986  138.9222  155.3041 C   0  0  0  0  0  0  0  0  0  0  0  0
  149.8005  140.4524  155.1535 C   0  0  0  0  0  0  0  0  0  0  0  0
  149.5360  140.9627  154.0640 O   0  0  0  0  0  0  0  0  0  0  0  0
  150.0915  141.1971  156.2403 N   0  0  0  0  0  0  0  0  0  0  0  0
  150.1113  142.6589  156.2940 C   0  0  0  0  0  0  0  0  0  0  0  0
  150.2627  143.0173  157.7729 C   0  0  0  0  0  0  0  0  0  0  0  0
  150.9395  141.7992  158.3857 C   0  0  0  0  0  0  0  0  0  0  0  0
  150.4368  140.6278  157.5415 C   0  0  0  0  0  0  0  0  0  0  0  0
  146.3808  132.8502  150.9758 H   0  0  0  0  0  0  0  0  0  0  0  0
  145.8770  132.1725  152.5199 H   0  0  0  0  0  0  0  0  0  0  0  0
  147.1197  131.3570  151.5434 H   0  0  0  0  0  0  0  0  0  0  0  0
  148.4674  129.8084  155.3523 H   0  0  0  0  0  0  0  0  0  0  0  0
  149.9425  131.1890  156.8357 H   0  0  0  0  0  0  0  0  0  0  0  0
  150.3818  133.5549  156.2235 H   0  0  0  0  0  0  0  0  0  0  0  0
  148.7669  135.0808  153.1770 H   0  0  0  0  0  0  0  0  0  0  0  0
  149.4091  136.9253  153.0003 H   0  0  0  0  0  0  0  0  0  0  0  0
  151.6264  138.0103  154.5322 H   0  0  0  0  0  0  0  0  0  0  0  0
  150.6566  138.8004  153.3080 H   0  0  0  0  0  0  0  0  0  0  0  0
  148.7657  138.5728  155.2835 H   0  0  0  0  0  0  0  0  0  0  0  0
  150.2017  138.6688  156.2851 H   0  0  0  0  0  0  0  0  0  0  0  0
  150.9660  143.0262  155.7245 H   0  0  0  0  0  0  0  0  0  0  0  0
  149.2058  143.1012  155.8766 H   0  0  0  0  0  0  0  0  0  0  0  0
  150.8258  143.9379  157.9294 H   0  0  0  0  0  0  0  0  0  0  0  0
  149.2764  143.1493  158.2199 H   0  0  0  0  0  0  0  0  0  0  0  0
  152.0211  141.8902  158.2772 H   0  0  0  0  0  0  0  0  0  0  0  0
  150.7190  141.6814  159.4470 H   0  0  0  0  0  0  0  0  0  0  0  0
  149.5415  140.1903  157.9861 H   0  0  0  0  0  0  0  0  0  0  0  0
  151.1929  139.8450  157.4607 H   0  0  0  0  0  0  0  0  0  0  0  0
  1  2  1  0  0  0  0
  1 22  1  0  0  0  0
  1 23  1  0  0  0  0
  1 24  1  0  0  0  0
  2  3  1  0  0  0  0
  3  8  1  0  0  0  0
  3  4  2  0  0  0  0
  4  5  1  0  0  0  0
  5  6  2  0  0  0  0
  5 25  1  0  0  0  0
  6  7  1  0  0  0  0
  6 26  1  0  0  0  0
  7  8  2  0  0  0  0
  7 27  1  0  0  0  0
  8  9  1  0  0  0  0
  9 10  1  0  0  0  0
  9 28  1  0  0  0  0
 10 11  2  0  0  0  0
 10 12  1  0  0  0  0
 12 13  1  0  0  0  0
 12 29  1  0  0  0  0
 13 14  1  0  0  0  0
 13 30  1  0  0  0  0
 13 31  1  0  0  0  0
 14 15  1  0  0  0  0
 14 32  1  0  0  0  0
 14 33  1  0  0  0  0
 15 16  2  0  0  0  0
 15 17  1  0  0  0  0
 17 21  1  0  0  0  0
 17 18  1  0  0  0  0
 18 19  1  0  0  0  0
 18 34  1  0  0  0  0
 18 35  1  0  0  0  0
 19 20  1  0  0  0  0
 19 36  1  0  0  0  0
 19 37  1  0  0  0  0
 20 21  1  0  0  0  0
 20 38  1  0  0  0  0
 20 39  1  0  0  0  0
 21 40  1  0  0  0  0
 21 41  1  0  0  0  0
M  END
> <s_m_source_file>
AV-unprocessed.smi

> <i_m_source_file_index>
1398

> <i_lp_mmshare_version>
43012

> <i_f3d_flags>
0

> <s_epik_input>
W0NIM11PYzFuW2NIXVtjSF1bY0hdYzFbTkhdQyg9TylbTkhdW0NIMl1bQ0gyXUMoPU8pTjJbQ0gyXVtDSDJdW0NIMl1bQ0gyXTI=

> <s_epik_cmdline>
J2VwaWtfcHl0aG9uJywgJy1waCcsICc3LjAnLCAnLXRuJywgJzgnLCAnLW1hJywgJzIwMCcsICctbWV0YWxfYmluZGluZycsICctaW1hZScsICc8aW5maWxlLm1hZT4nLCAnLW9tYWUnLCAnPG91dGZpbGUubWFlPic=

> <r_lp_tautomer_probability>
1

> <r_epik_Ionization_Penalty>
8.61088e-05

> <r_epik_Ionization_Penalty_Charging>
0

> <r_epik_Ionization_Penalty_Neutral>
8.61088e-05

> <r_epik_State_Penalty>
-0

> <r_epik_Charging_Adjusted_Penalty>
0

> <i_epik_Tot_Q>
0

> <i_epik_Tot_abs_Q>
0

> <r_epik_Metal_State_Penalty>
-0

> <b_epik_Metal_Only>
0

> <s_lp_Force_Field>
OPLS_2005

> <r_lp_Energy>
29.8369

> <b_lp_Chiralities_Consistent>
1

> <s_lp_Variant>
AV-unprocessed.smi:1398-1

> <Gold.Version>
5.8.1

> <Gold.Id.Protein>
6NUR|6NUR_protein|mol2

> <Gold.PLP.Fitness>
46.3704

> <Gold.PLP.PLP>
-37.2025

> <Gold.PLP.part.hbond>
-5.6472

> <Gold.PLP.part.metal>
0.0000

> <Gold.PLP.part.buried>
-2.5155

> <Gold.PLP.part.nonpolar>
-29.4682

> <Gold.PLP.part.repulsive>
0.7339

> <Gold.PLP.ligand.clash>
0.0000

> <Gold.PLP.ligand.torsion>
0.6277

> <Gold.PLP.Chemscore.Hbond>
3.4640

> <Gold.PLP.Chemscore.CHOScore>
0.0000

> <Gold.PLP.Chemscore.Metal>
0.0000

> <Gold.Chemscore.Hbonds>
donor molecule, donor type, donor heavy atom, donor atom, acceptor molecule, acceptor atom, score
      L1  H     9    28       P1  7948  0.69
      L1  H    12    29       P1  7948  0.59
      P1  H  7989  7998       L1    16  0.20
      P1  H  8011  8017       L1    16  0.34

> <Gold.PLP.Chemscore.Internal.Correction>
0.0313

> <Gold.Rescore>
     Score         DG    S(hbond)    S(metal)    S(lipo)     H(rot)  DE(clash)    DE(int)     intcor
     14.71     -16.75       2.28        0.00      71.10       1.83       0.04       2.01       ----

> <Gold.Chemscore.Fitness>
14.7054

> <Gold.Chemscore.DG>
-16.7530

> <Gold.Chemscore.ZeroCoef>
-5.4800

> <Gold.Chemscore.Hbond>
2.2841

> <Gold.Chemscore.Metal>
0.0000

> <Gold.Chemscore.Lipo>
71.0970

> <Gold.Chemscore.Internal_Hbond>
0.0000

> <Gold.Chemscore.DEClash>
0.0417

> <Gold.Chemscore.DEInternal>
2.0058

> <Gold.Chemscore.Rot>
1.8260

> <Gold.Chemscore.Internal.Correction>
   9.000000E+99

> <Gold.Chemscore.Hbonds>
donor molecule, donor type, donor heavy atom, donor atom, acceptor molecule, acceptor atom, score
      L1  H     9    28       P1  7948  0.35
      L1  H    12    29       P1  7948  0.49
      P1  H  7989  7998       L1    16  0.01
      P1  H  8011  8017       L1    16  0.34
      P1  H 10752 10763       L1    11  0.01

> <Gold.Chemscore.Hbond.Weighted>
-7.6291

> <Gold.Chemscore.Metal.Weighted>
-0.0000

> <Gold.Chemscore.Lipo.Weighted>
-8.3184

> <Gold.Chemscore.Internal_Hbond.Weighted>
0.0000

> <Gold.Chemscore.DEClash.Weighted>
0.0417

> <Gold.Chemscore.DEInternal.Weighted>
2.0058

> <Gold.Chemscore.Rot.Weighted>
4.6744

> <Gold.Chemscore.Internal.Correction.Weighted>
   9.000000E+99

> <Gold.Protein.RotatedTorsions>
[ 6907 6896 6895 6894 ] final -170.85 input  -60.11 | X-H torsion
[ 7974 7965 7964 7962 ] final  -33.45 input  175.53 | X-H torsion
[ 8008 7997 7996 7995 ] final   62.07 input   59.86 | X-H torsion
[ 10167 10162 10161 10158 ] final   62.83 input  -65.29 | X-H torsion
[ 10718 10713 10712 10709 ] final   -3.00 input   66.30 | X-H torsion
[ 10763 10752 10751 10750 ] final   87.07 input  -60.55 | X-H torsion
[ 11005 11000 10999 10996 ] final   38.40 input  -57.11 | X-H torsion

> <Gold.Protein.ActiveResidues>
 VAL166  LYS551  ARG553  GLY616  TRP617  ASP618  TYR619  PRO620  LYS621  CYS622 
 ASP623  PHE694  ASN695  SER759  ASP760  ASP761  ALA762  ILE779  LEU786  VAL792 
 PHE793  MET794  SER795  GLU796  ALA797  LYS798  CYS799  TRP800  GLU811  SER814 

> <Gold.Protein.RotatedAtoms>
  151.5144  133.3478  159.2890 H   0  0  0  0  0  0  0  0  0  0  0  0  # atno 6907 bound_to 6896
  150.8692  134.8064  159.7153 H   0  0  0  0  0  0  0  0  0  0  0  0  # atno 6908 bound_to 6896
  152.4686  134.5025  159.9781 H   0  0  0  0  0  0  0  0  0  0  0  0  # atno 6909 bound_to 6896
  146.0910  140.5917  142.8864 H   0  0  0  0  0  0  0  0  0  0  0  0  # atno 7974 bound_to 7965
  155.6085  140.3494  155.4615 H   0  0  0  0  0  0  0  0  0  0  0  0  # atno 8008 bound_to 7997
  156.0173  140.1246  157.0418 H   0  0  0  0  0  0  0  0  0  0  0  0  # atno 8009 bound_to 7997
  154.4302  140.1069  156.5900 H   0  0  0  0  0  0  0  0  0  0  0  0  # atno 8010 bound_to 7997
  140.1396  144.4566  150.6818 H   0  0  0  0  0  0  0  0  0  0  0  0  # atno 10167 bound_to 10162
  156.7825  130.5335  149.5748 H   0  0  0  0  0  0  0  0  0  0  0  0  # atno 10718 bound_to 10713
  153.1632  135.4557  154.9801 H   0  0  0  0  0  0  0  0  0  0  0  0  # atno 10763 bound_to 10752
  154.7913  135.3221  154.7773 H   0  0  0  0  0  0  0  0  0  0  0  0  # atno 10764 bound_to 10752
  153.8260  135.6942  153.4875 H   0  0  0  0  0  0  0  0  0  0  0  0  # atno 10765 bound_to 10752
  140.2130  134.3732  155.8040 H   0  0  0  0  0  0  0  0  0  0  0  0  # atno 11005 bound_to 11000
  144.7360  140.4809  143.6903 LP  0  0  0  0  0  0  0  0  0  0  0  0  # atno 17320 bound_to 7965
  145.6040  139.1506  143.3113 LP  0  0  0  0  0  0  0  0  0  0  0  0  # atno 17321 bound_to 7965
  140.6768  143.2309  151.5486 LP  0  0  0  0  0  0  0  0  0  0  0  0  # atno 17342 bound_to 10162
  139.5478  144.2474  152.1475 LP  0  0  0  0  0  0  0  0  0  0  0  0  # atno 17343 bound_to 10162
  156.1209  130.6109  151.0191 LP  0  0  0  0  0  0  0  0  0  0  0  0  # atno 17370 bound_to 10713
  157.6639  131.0875  150.7774 LP  0  0  0  0  0  0  0  0  0  0  0  0  # atno 17371 bound_to 10713
  141.2225  133.7153  156.8450 LP  0  0  0  0  0  0  0  0  0  0  0  0  # atno 17394 bound_to 11000
  140.1930  134.8952  157.3082 LP  0  0  0  0  0  0  0  0  0  0  0  0  # atno 17395 bound_to 11000

$$$$
