AV-unprocessed.smi:462|AV-procd|sdf|2633|dock3
  -GOLD-   2262023 43D 1   1.00000     0.00000
 Structure written by MMmdl.
 47 49  0  0  0  0  0  0  0  0  2 V2000
  154.0157  140.8213  160.9030 C   0  0  0  0  0  0  0  0  0  0  0  0
  152.8910  140.8979  160.0405 O   0  0  0  0  0  0  0  0  0  0  0  0
  152.3321  142.1366  159.8007 C   0  0  0  0  0  0  0  0  0  0  0  0
  152.7785  143.3342  160.4146 C   0  0  0  0  0  0  0  0  0  0  0  0
  152.1603  144.5622  160.1160 C   0  0  0  0  0  0  0  0  0  0  0  0
  151.0914  144.6082  159.2049 C   0  0  0  0  0  0  0  0  0  0  0  0
  150.6404  143.4263  158.5898 C   0  0  0  0  0  0  0  0  0  0  0  0
  151.2586  142.1853  158.8824 C   0  0  0  0  0  0  0  0  0  0  0  0
  150.8732  140.9885  158.3201 O   0  0  0  0  0  0  0  0  0  0  0  0
  149.9766  141.0018  157.2191 C   0  0  0  0  0  0  0  0  0  0  0  0
  150.7754  140.8261  155.9166 C   0  0  0  0  0  0  0  0  0  0  0  0
  150.1005  139.9335  154.9559 N   0  0  0  0  0  0  0  0  0  0  0  0
  150.4321  138.6831  154.5028 C   0  0  0  0  0  0  0  0  0  0  0  0
  151.6616  137.8719  154.8315 C   0  0  0  0  0  0  0  0  0  0  0  0
  152.9489  138.6525  154.5006 C   0  0  0  0  0  0  0  0  0  0  0  0
  151.6403  137.4759  156.3176 C   0  0  0  0  0  0  0  0  0  0  0  0
  151.7311  136.6821  154.0720 O   0  0  0  0  0  0  0  0  0  0  0  0
  149.4595  138.3171  153.6167 N   0  3  0  0  0  0  0  0  0  0  0  0
  148.4944  139.3170  153.5180 C   0  0  0  0  0  0  0  0  0  0  0  0
  147.3262  139.3827  152.7650 C   0  0  0  0  0  0  0  0  0  0  0  0
  146.5561  140.5569  152.8929 C   0  0  0  0  0  0  0  0  0  0  0  0
  146.9600  141.6095  153.7389 C   0  0  0  0  0  0  0  0  0  0  0  0
  148.1497  141.5318  154.4919 C   0  0  0  0  0  0  0  0  0  0  0  0
  148.9023  140.3631  154.3676 C   0  0  0  0  0  0  0  0  0  0  0  0
  154.3437  139.7842  160.9716 H   0  0  0  0  0  0  0  0  0  0  0  0
  153.7694  141.1569  161.9111 H   0  0  0  0  0  0  0  0  0  0  0  0
  154.8525  141.4066  160.5198 H   0  0  0  0  0  0  0  0  0  0  0  0
  153.5955  143.3379  161.1197 H   0  0  0  0  0  0  0  0  0  0  0  0
  152.5071  145.4699  160.5877 H   0  0  0  0  0  0  0  0  0  0  0  0
  150.6162  145.5510  158.9774 H   0  0  0  0  0  0  0  0  0  0  0  0
  149.8150  143.4959  157.8977 H   0  0  0  0  0  0  0  0  0  0  0  0
  149.2487  140.1955  157.3173 H   0  0  0  0  0  0  0  0  0  0  0  0
  149.4311  141.9457  157.1898 H   0  0  0  0  0  0  0  0  0  0  0  0
  150.9556  141.7891  155.4385 H   0  0  0  0  0  0  0  0  0  0  0  0
  151.7589  140.4124  156.1348 H   0  0  0  0  0  0  0  0  0  0  0  0
  153.0239  139.5708  155.0840 H   0  0  0  0  0  0  0  0  0  0  0  0
  152.9888  138.9251  153.4450 H   0  0  0  0  0  0  0  0  0  0  0  0
  153.8390  138.0611  154.7195 H   0  0  0  0  0  0  0  0  0  0  0  0
  151.6212  138.3578  156.9586 H   0  0  0  0  0  0  0  0  0  0  0  0
  152.5225  136.8943  156.5876 H   0  0  0  0  0  0  0  0  0  0  0  0
  150.7647  136.8749  156.5639 H   0  0  0  0  0  0  0  0  0  0  0  0
  151.5430  136.8892  153.1694 H   0  0  0  0  0  0  0  0  0  0  0  0
  147.0159  138.5775  152.1153 H   0  0  0  0  0  0  0  0  0  0  0  0
  145.6382  140.6522  152.3314 H   0  0  0  0  0  0  0  0  0  0  0  0
  146.3448  142.4942  153.8147 H   0  0  0  0  0  0  0  0  0  0  0  0
  148.4432  142.3424  155.1421 H   0  0  0  0  0  0  0  0  0  0  0  0
  149.4587  137.4364  153.1194 H   0  0  0  0  0  0  0  0  0  0  0  0
  1  2  1  0  0  0  0
  1 25  1  0  0  0  0
  1 26  1  0  0  0  0
  1 27  1  0  0  0  0
  2  3  1  0  0  0  0
  3  8  1  0  0  0  0
  3  4  2  0  0  0  0
  4  5  1  0  0  0  0
  4 28  1  0  0  0  0
  5  6  2  0  0  0  0
  5 29  1  0  0  0  0
  6  7  1  0  0  0  0
  6 30  1  0  0  0  0
  7  8  2  0  0  0  0
  7 31  1  0  0  0  0
  8  9  1  0  0  0  0
  9 10  1  0  0  0  0
 10 11  1  0  0  0  0
 10 32  1  0  0  0  0
 10 33  1  0  0  0  0
 11 12  1  0  0  0  0
 11 34  1  0  0  0  0
 11 35  1  0  0  0  0
 12 24  1  0  0  0  0
 12 13  1  0  0  0  0
 13 14  1  0  0  0  0
 13 18  2  0  0  0  0
 14 15  1  0  0  0  0
 14 16  1  0  0  0  0
 14 17  1  0  0  0  0
 15 36  1  0  0  0  0
 15 37  1  0  0  0  0
 15 38  1  0  0  0  0
 16 39  1  0  0  0  0
 16 40  1  0  0  0  0
 16 41  1  0  0  0  0
 17 42  1  0  0  0  0
 18 19  1  0  0  0  0
 18 47  1  0  0  0  0
 19 24  2  0  0  0  0
 19 20  1  0  0  0  0
 20 21  2  0  0  0  0
 20 43  1  0  0  0  0
 21 22  1  0  0  0  0
 21 44  1  0  0  0  0
 22 23  2  0  0  0  0
 22 45  1  0  0  0  0
 23 24  1  0  0  0  0
 23 46  1  0  0  0  0
M  CHG  1  18   1
M  END
> <s_m_source_file>
AV-unprocessed.smi

> <i_m_source_file_index>
462

> <i_lp_mmshare_version>
43012

> <i_f3d_flags>
0

> <s_epik_input>
W0NIM11PYzFbY0hdW2NIXVtjSF1bY0hdYzFPW0NIMl1bQ0gyXW4oYyhuMilDKFtDSDNdKShbQ0gzXSlbT0hdKWMoYzIzKVtjSF1bY0hdW2NIXVtjSF0z

> <s_epik_cmdline>
J2VwaWtfcHl0aG9uJywgJy1waCcsICc3LjAnLCAnLXRuJywgJzgnLCAnLW1hJywgJzIwMCcsICctbWV0YWxfYmluZGluZycsICctaW1hZScsICc8aW5maWxlLm1hZT4nLCAnLW9tYWUnLCAnPG91dGZpbGUubWFlPic=

> <r_lp_tautomer_probability>
1

> <r_epik_Ionization_Penalty>
1.32796

> <r_epik_Ionization_Penalty_Charging>
1.32796

> <r_epik_Ionization_Penalty_Neutral>
1.51811e-06

> <r_epik_State_Penalty>
1.40413

> <r_epik_Charging_Adjusted_Penalty>
2.73209

> <i_epik_Tot_Q>
1

> <i_epik_Tot_abs_Q>
1

> <r_epik_Metal_State_Penalty>
5.43878

> <b_epik_Metal_Only>
0

> <s_lp_Force_Field>
OPLS_2005

> <r_lp_Energy>
22.2215

> <b_lp_Chiralities_Consistent>
1

> <s_lp_Variant>
AV-unprocessed.smi:462-2

> <Gold.Version>
5.8.1

> <Gold.Id.Protein>
6NUR|6NUR_protein|mol2

> <Gold.PLP.Fitness>
63.2453

> <Gold.PLP.PLP>
-52.6945

> <Gold.PLP.part.hbond>
-3.9028

> <Gold.PLP.part.metal>
0.0000

> <Gold.PLP.part.buried>
0.5115

> <Gold.PLP.part.nonpolar>
-50.3593

> <Gold.PLP.part.repulsive>
0.0667

> <Gold.PLP.ligand.clash>
0.0000

> <Gold.PLP.ligand.torsion>
0.8129

> <Gold.PLP.Chemscore.Hbond>
3.9760

> <Gold.PLP.Chemscore.CHOScore>
0.0000

> <Gold.PLP.Chemscore.Metal>
0.0000

> <Gold.Chemscore.Hbonds>
donor molecule, donor type, donor heavy atom, donor atom, acceptor molecule, acceptor atom, score
      L1  H    17    42       P1  7949  0.80
      L1  H    18    47       P1  7948  2.00
      P1  H 10752 10763       L1    17  1.00

> <Gold.PLP.Chemscore.Internal.Correction>
0.2485

> <Gold.Rescore>
     Score         DG    S(hbond)    S(metal)    S(lipo)     H(rot)  DE(clash)    DE(int)     intcor
     22.70     -25.28       2.53        0.00     147.99       2.33       1.79       0.78       ----

> <Gold.Chemscore.Fitness>
22.7010

> <Gold.Chemscore.DG>
-25.2755

> <Gold.Chemscore.ZeroCoef>
-5.4800

> <Gold.Chemscore.Hbond>
2.5283

> <Gold.Chemscore.Metal>
0.0000

> <Gold.Chemscore.Lipo>
147.9947

> <Gold.Chemscore.Internal_Hbond>
0.0000

> <Gold.Chemscore.DEClash>
1.7925

> <Gold.Chemscore.DEInternal>
0.7820

> <Gold.Chemscore.Rot>
2.3298

> <Gold.Chemscore.Internal.Correction>
   9.000000E+99

> <Gold.Chemscore.Hbonds>
donor molecule, donor type, donor heavy atom, donor atom, acceptor molecule, acceptor atom, score
      L1  H    17    42       P1  7949  0.73
      L1  H    18    47       P1  7948  0.87
      P1  H 10752 10763       L1    17  0.76

> <Gold.Chemscore.Hbond.Weighted>
-8.4444

> <Gold.Chemscore.Metal.Weighted>
-0.0000

> <Gold.Chemscore.Lipo.Weighted>
-17.3154

> <Gold.Chemscore.Internal_Hbond.Weighted>
0.0000

> <Gold.Chemscore.DEClash.Weighted>
1.7925

> <Gold.Chemscore.DEInternal.Weighted>
0.7820

> <Gold.Chemscore.Rot.Weighted>
5.9643

> <Gold.Chemscore.Internal.Correction.Weighted>
   9.000000E+99

> <Gold.Protein.RotatedTorsions>
[ 6907 6896 6895 6894 ] final   -8.04 input  -60.11 | X-H torsion
[ 7974 7965 7964 7962 ] final -101.84 input  175.53 | X-H torsion
[ 8008 7997 7996 7995 ] final   34.83 input   59.86 | X-H torsion
[ 10167 10162 10161 10158 ] final  -48.37 input  -65.29 | X-H torsion
[ 10718 10713 10712 10709 ] final   64.83 input   66.30 | X-H torsion
[ 10763 10752 10751 10750 ] final   35.44 input  -60.55 | X-H torsion
[ 11005 11000 10999 10996 ] final  -97.62 input  -57.11 | X-H torsion

> <Gold.Protein.ActiveResidues>
 VAL166  LYS551  ARG553  GLY616  TRP617  ASP618  TYR619  PRO620  LYS621  CYS622 
 ASP623  PHE694  ASN695  SER759  ASP760  ASP761  ALA762  ILE779  LEU786  VAL792 
 PHE793  MET794  SER795  GLU796  ALA797  LYS798  CYS799  TRP800  GLU811  SER814 

> <Gold.Protein.RotatedAtoms>
  151.4400  135.1019  159.9667 H   0  0  0  0  0  0  0  0  0  0  0  0  # atno 6907 bound_to 6896
  152.4926  133.8538  159.7225 H   0  0  0  0  0  0  0  0  0  0  0  0  # atno 6908 bound_to 6896
  150.9095  133.6957  159.2886 H   0  0  0  0  0  0  0  0  0  0  0  0  # atno 6909 bound_to 6896
  145.2764  140.9314  143.2957 H   0  0  0  0  0  0  0  0  0  0  0  0  # atno 7974 bound_to 7965
  155.1612  140.3283  155.4411 H   0  0  0  0  0  0  0  0  0  0  0  0  # atno 8008 bound_to 7997
  156.2542  140.1960  156.6670 H   0  0  0  0  0  0  0  0  0  0  0  0  # atno 8009 bound_to 7997
  154.6403  140.0571  156.9824 H   0  0  0  0  0  0  0  0  0  0  0  0  # atno 8010 bound_to 7997
  140.6734  143.2743  151.4061 H   0  0  0  0  0  0  0  0  0  0  0  0  # atno 10167 bound_to 10162
  157.6065  130.9181  149.9896 H   0  0  0  0  0  0  0  0  0  0  0  0  # atno 10718 bound_to 10713
  153.0119  135.6333  154.1828 H   0  0  0  0  0  0  0  0  0  0  0  0  # atno 10763 bound_to 10752
  154.1569  135.2826  155.3121 H   0  0  0  0  0  0  0  0  0  0  0  0  # atno 10764 bound_to 10752
  154.6011  135.5587  153.7436 H   0  0  0  0  0  0  0  0  0  0  0  0  # atno 10765 bound_to 10752
  141.1373  133.8184  157.0730 H   0  0  0  0  0  0  0  0  0  0  0  0  # atno 11005 bound_to 11000
  144.9291  139.4320  143.6504 LP  0  0  0  0  0  0  0  0  0  0  0  0  # atno 17320 bound_to 7965
  146.3230  139.8192  142.8930 LP  0  0  0  0  0  0  0  0  0  0  0  0  # atno 17321 bound_to 7965
  139.6013  144.1289  152.2201 LP  0  0  0  0  0  0  0  0  0  0  0  0  # atno 17342 bound_to 10162
  140.0674  144.5807  150.7217 LP  0  0  0  0  0  0  0  0  0  0  0  0  # atno 17343 bound_to 10162
  156.1153  130.3648  149.9978 LP  0  0  0  0  0  0  0  0  0  0  0  0  # atno 17370 bound_to 10713
  156.8069  130.9310  151.3645 LP  0  0  0  0  0  0  0  0  0  0  0  0  # atno 17371 bound_to 10713
  140.0499  134.9811  157.1117 LP  0  0  0  0  0  0  0  0  0  0  0  0  # atno 17394 bound_to 11000
  140.4006  134.2087  155.7163 LP  0  0  0  0  0  0  0  0  0  0  0  0  # atno 17395 bound_to 11000

$$$$
