AV-unprocessed.smi:2216|AV-procd|sdf|8964|dock1
  -GOLD-   2272012183D 1   1.00000     0.00000
 Structure written by MMmdl.
 41 42  0  0  0  0  0  0  0  0  1 V2000
  145.7758  131.0404  150.8194 C   0  0  0  0  0  0  0  0  0  0  0  0
  145.3609  132.4981  150.7254 C   0  0  0  0  0  0  0  0  0  0  0  0
  146.1396  133.4922  151.2121 C   0  0  0  0  0  0  0  0  0  0  0  0
  145.7407  134.8935  151.1236 C   0  0  0  0  0  0  0  0  0  0  0  0
  146.4833  135.9853  151.5956 N   0  0  0  0  0  0  0  0  0  0  0  0
  146.0543  137.1150  152.1875 C   0  0  0  0  0  0  0  0  0  0  0  0
  144.8847  137.4014  152.4398 O   0  0  0  0  0  0  0  0  0  0  0  0
  147.0850  137.9199  152.4830 N   0  0  0  0  0  0  0  0  0  0  0  0
  146.9730  139.2238  153.1270 C   0  0  0  0  0  0  0  0  0  0  0  0
  148.3275  139.9519  153.1716 C   0  0  0  0  0  0  0  0  0  0  0  0
  148.9456  139.9743  154.5782 C   0  0  2  0  0  0  0  0  0  0  0  0
  148.4629  141.1841  155.4020 C   0  0  0  0  0  0  0  0  0  0  0  0
  149.1525  141.2122  156.7708 C   0  0  0  0  0  0  0  0  0  0  0  0
  150.6721  141.1463  156.5846 C   0  0  0  0  0  0  0  0  0  0  0  0
  151.0506  139.9512  155.6951 C   0  0  0  0  0  0  0  0  0  0  0  0
  150.3651  140.0371  154.4494 O   0  0  0  0  0  0  0  0  0  0  0  0
  144.5561  135.1479  150.5410 C   0  0  0  0  0  0  0  0  0  0  0  0
  143.7506  134.1232  150.0386 N   0  0  0  0  0  0  0  0  0  0  0  0
  144.0725  132.8106  150.0860 C   0  0  0  0  0  0  0  0  0  0  0  0
  143.3126  131.9654  149.6166 O   0  0  0  0  0  0  0  0  0  0  0  0
  142.8762  134.3934  149.6119 H   0  0  0  0  0  0  0  0  0  0  0  0
  146.7402  130.9312  151.3164 H   0  0  0  0  0  0  0  0  0  0  0  0
  145.8589  130.6030  149.8242 H   0  0  0  0  0  0  0  0  0  0  0  0
  145.0391  130.4697  151.3858 H   0  0  0  0  0  0  0  0  0  0  0  0
  147.0701  133.2087  151.6752 H   0  0  0  0  0  0  0  0  0  0  0  0
  147.4813  135.9010  151.4708 H   0  0  0  0  0  0  0  0  0  0  0  0
  148.0156  137.6097  152.2447 H   0  0  0  0  0  0  0  0  0  0  0  0
  146.2271  139.8329  152.6134 H   0  0  0  0  0  0  0  0  0  0  0  0
  146.5996  139.0665  154.1392 H   0  0  0  0  0  0  0  0  0  0  0  0
  149.0226  139.4837  152.4733 H   0  0  0  0  0  0  0  0  0  0  0  0
  148.1929  140.9786  152.8282 H   0  0  0  0  0  0  0  0  0  0  0  0
  148.6713  139.0534  155.0961 H   0  0  0  0  0  0  0  0  0  0  0  0
  148.6818  142.1079  154.8645 H   0  0  0  0  0  0  0  0  0  0  0  0
  147.3808  141.1470  155.5319 H   0  0  0  0  0  0  0  0  0  0  0  0
  148.8741  142.1122  157.3195 H   0  0  0  0  0  0  0  0  0  0  0  0
  148.8180  140.3631  157.3682 H   0  0  0  0  0  0  0  0  0  0  0  0
  151.0248  142.0694  156.1229 H   0  0  0  0  0  0  0  0  0  0  0  0
  151.1686  141.0703  157.5524 H   0  0  0  0  0  0  0  0  0  0  0  0
  152.1241  139.9502  155.5067 H   0  0  0  0  0  0  0  0  0  0  0  0
  150.8132  139.0071  156.1877 H   0  0  0  0  0  0  0  0  0  0  0  0
  144.1394  136.1363  150.4113 H   0  0  0  0  0  0  0  0  0  0  0  0
  1  2  1  0  0  0  0
  1 22  1  0  0  0  0
  1 23  1  0  0  0  0
  1 24  1  0  0  0  0
  2 19  1  0  0  0  0
  2  3  2  0  0  0  0
  3  4  1  0  0  0  0
  3 25  1  0  0  0  0
  4  5  1  0  0  0  0
  4 17  2  0  0  0  0
  5  6  1  0  0  0  0
  5 26  1  0  0  0  0
  6  7  2  0  0  0  0
  6  8  1  0  0  0  0
  8  9  1  0  0  0  0
  8 27  1  0  0  0  0
  9 10  1  0  0  0  0
  9 28  1  0  0  0  0
  9 29  1  0  0  0  0
 10 11  1  0  0  0  0
 10 30  1  0  0  0  0
 10 31  1  0  0  0  0
 11 16  1  0  0  0  0
 11 12  1  0  0  0  0
 11 32  1  0  0  0  0
 12 13  1  0  0  0  0
 12 33  1  0  0  0  0
 12 34  1  0  0  0  0
 13 14  1  0  0  0  0
 13 35  1  0  0  0  0
 13 36  1  0  0  0  0
 14 15  1  0  0  0  0
 14 37  1  0  0  0  0
 14 38  1  0  0  0  0
 15 16  1  0  0  0  0
 15 39  1  0  0  0  0
 15 40  1  0  0  0  0
 17 18  1  0  0  0  0
 17 41  1  0  0  0  0
 18 21  1  0  0  0  0
 18 19  1  0  0  0  0
 19 20  2  0  0  0  0
M  END
> <s_m_source_file>
AV-unprocessed.smi

> <i_m_source_file_index>
2216

> <i_lp_mmshare_version>
43012

> <i_f3d_flags>
0

> <s_epik_input>
Tz1jMVtuSF1bY0hdYyhbY0hdYzFbQ0gzXSlbTkhdQyg9TylbTkhdW0NIMl1bQ0gyXVtDQEBIXTJbQ0gyXVtDSDJdW0NIMl1bQ0gyXU8y

> <s_epik_cmdline>
J2VwaWtfcHl0aG9uJywgJy1waCcsICc3LjAnLCAnLXRuJywgJzgnLCAnLW1hJywgJzIwMCcsICctbWV0YWxfYmluZGluZycsICctaW1hZScsICc8aW5maWxlLm1hZT4nLCAnLW9tYWUnLCAnPG91dGZpbGUubWFlPic=

> <r_lp_tautomer_probability>
1

> <r_epik_Ionization_Penalty>
4.73984e-05

> <r_epik_Ionization_Penalty_Charging>
2.74455e-05

> <r_epik_Ionization_Penalty_Neutral>
1.99529e-05

> <r_epik_State_Penalty>
-0

> <r_epik_Charging_Adjusted_Penalty>
2.74455e-05

> <i_epik_Tot_Q>
0

> <i_epik_Tot_abs_Q>
0

> <r_epik_Metal_State_Penalty>
0.0206128

> <b_epik_Metal_Only>
0

> <s_lp_Force_Field>
OPLS_2005

> <r_lp_Energy>
17.2202

> <b_lp_Chiralities_Consistent>
1

> <s_lp_Variant>
AV-unprocessed.smi:2216-1

> <Gold.Version>
5.8.1

> <Gold.Id.Protein>
6NUR|6NUR_protein|mol2

> <Gold.PLP.Fitness>
49.7872

> <Gold.PLP.PLP>
-34.5490

> <Gold.PLP.part.hbond>
-4.8743

> <Gold.PLP.part.metal>
0.0000

> <Gold.PLP.part.buried>
-2.4803

> <Gold.PLP.part.nonpolar>
-31.9488

> <Gold.PLP.part.repulsive>
2.9692

> <Gold.PLP.ligand.clash>
0.0000

> <Gold.PLP.ligand.torsion>
0.9674

> <Gold.PLP.Chemscore.Hbond>
4.7212

> <Gold.PLP.Chemscore.CHOScore>
1.0000

> <Gold.PLP.Chemscore.Metal>
0.0000

> <Gold.Chemscore.Hbonds>
donor molecule, donor type, donor heavy atom, donor atom, acceptor molecule, acceptor atom, score
      L1  H     5    26       P1  7948  0.96
      L1  H     8    27       P1  7948  0.90
      L1  H    18    21       P1 10186  1.00
      P1  H  7989  7998       L1    16  0.95
      P1  H 10785 10796       L1    20  1.00
      L1  C    17    41       P1 10171  1.00

> <Gold.PLP.Chemscore.Internal.Correction>
0.0092

> <Gold.Rescore>
     Score         DG    S(hbond)    S(metal)    S(lipo)     H(rot)  DE(clash)    DE(int)     intcor
     19.94     -24.91       4.25        0.00      77.48       1.50       2.92       2.05       ----

> <Gold.Chemscore.Fitness>
19.9421

> <Gold.Chemscore.DG>
-24.9089

> <Gold.Chemscore.ZeroCoef>
-5.4800

> <Gold.Chemscore.Hbond>
4.2499

> <Gold.Chemscore.Metal>
0.0000

> <Gold.Chemscore.Lipo>
77.4801

> <Gold.Chemscore.Internal_Hbond>
0.0000

> <Gold.Chemscore.DEClash>
2.9195

> <Gold.Chemscore.DEInternal>
2.0474

> <Gold.Chemscore.Rot>
1.4964

> <Gold.Chemscore.Internal.Correction>
   9.000000E+99

> <Gold.Chemscore.Hbonds>
donor molecule, donor type, donor heavy atom, donor atom, acceptor molecule, acceptor atom, score
      L1  H     5    26       P1  7948  0.89
      L1  H     8    27       P1  7948  0.88
      L1  H    18    21       P1 10186  0.96
      P1  H  7989  7998       L1    16  0.21
      P1  H 10785 10796       L1    20  0.92

> <Gold.Chemscore.Hbond.Weighted>
-14.1946

> <Gold.Chemscore.Metal.Weighted>
-0.0000

> <Gold.Chemscore.Lipo.Weighted>
-9.0652

> <Gold.Chemscore.Internal_Hbond.Weighted>
0.0000

> <Gold.Chemscore.DEClash.Weighted>
2.9195

> <Gold.Chemscore.DEInternal.Weighted>
2.0474

> <Gold.Chemscore.Rot.Weighted>
3.8308

> <Gold.Chemscore.Internal.Correction.Weighted>
   9.000000E+99

> <Gold.Protein.RotatedTorsions>
[ 6907 6896 6895 6894 ] final  -46.08 input  -60.11 | X-H torsion
[ 7974 7965 7964 7962 ] final  108.02 input  175.53 | X-H torsion
[ 8008 7997 7996 7995 ] final -148.16 input   59.86 | X-H torsion
[ 10167 10162 10161 10158 ] final   81.74 input  -65.29 | X-H torsion
[ 10718 10713 10712 10709 ] final  144.19 input   66.30 | X-H torsion
[ 10763 10752 10751 10750 ] final  101.56 input  -60.55 | X-H torsion
[ 11005 11000 10999 10996 ] final   31.37 input  -57.11 | X-H torsion

> <Gold.Protein.ActiveResidues>
 VAL166  LYS551  ARG553  GLY616  TRP617  ASP618  TYR619  PRO620  LYS621  CYS622 
 ASP623  PHE694  ASN695  SER759  ASP760  ASP761  ALA762  ILE779  LEU786  VAL792 
 PHE793  MET794  SER795  GLU796  ALA797  LYS798  CYS799  TRP800  GLU811  SER814 

> <Gold.Protein.RotatedAtoms>
  150.9151  134.8568  159.7450 H   0  0  0  0  0  0  0  0  0  0  0  0  # atno 6907 bound_to 6896
  152.4964  134.4302  159.9519 H   0  0  0  0  0  0  0  0  0  0  0  0  # atno 6908 bound_to 6896
  151.4341  133.3622  159.2808 H   0  0  0  0  0  0  0  0  0  0  0  0  # atno 6909 bound_to 6896
  145.2861  139.2616  143.3890 H   0  0  0  0  0  0  0  0  0  0  0  0  # atno 7974 bound_to 7965
  155.5872  140.0649  157.2768 H   0  0  0  0  0  0  0  0  0  0  0  0  # atno 8008 bound_to 7997
  154.4315  140.1841  156.1084 H   0  0  0  0  0  0  0  0  0  0  0  0  # atno 8009 bound_to 7997
  156.0260  140.3311  155.7093 H   0  0  0  0  0  0  0  0  0  0  0  0  # atno 8010 bound_to 7997
  139.9360  144.6121  150.8298 H   0  0  0  0  0  0  0  0  0  0  0  0  # atno 10167 bound_to 10162
  157.3601  131.0964  151.0923 H   0  0  0  0  0  0  0  0  0  0  0  0  # atno 10718 bound_to 10713
  153.3283  135.4040  155.1474 H   0  0  0  0  0  0  0  0  0  0  0  0  # atno 10763 bound_to 10752
  154.8617  135.3604  154.5505 H   0  0  0  0  0  0  0  0  0  0  0  0  # atno 10764 bound_to 10752
  153.5942  135.7073  153.5470 H   0  0  0  0  0  0  0  0  0  0  0  0  # atno 10765 bound_to 10752
  140.2846  134.2934  155.7791 H   0  0  0  0  0  0  0  0  0  0  0  0  # atno 11005 bound_to 11000
  146.3200  140.3340  142.8642 LP  0  0  0  0  0  0  0  0  0  0  0  0  # atno 17320 bound_to 7965
  144.9212  140.7870  143.5747 LP  0  0  0  0  0  0  0  0  0  0  0  0  # atno 17321 bound_to 7965
  140.7624  143.3198  151.2649 LP  0  0  0  0  0  0  0  0  0  0  0  0  # atno 17342 bound_to 10162
  139.6743  143.9965  152.2771 LP  0  0  0  0  0  0  0  0  0  0  0  0  # atno 17343 bound_to 10162
  157.2065  130.6418  149.5758 LP  0  0  0  0  0  0  0  0  0  0  0  0  # atno 17370 bound_to 10713
  155.9736  130.4674  150.6322 LP  0  0  0  0  0  0  0  0  0  0  0  0  # atno 17371 bound_to 10713
  141.2157  133.7547  156.9532 LP  0  0  0  0  0  0  0  0  0  0  0  0  # atno 17394 bound_to 11000
  140.1252  134.9392  157.2259 LP  0  0  0  0  0  0  0  0  0  0  0  0  # atno 17395 bound_to 11000

$$$$
