AV-unprocessed.smi:1194|AV-procd|sdf|4992|dock8
  -GOLD-   22720 3593D 1   1.00000     0.00000
 Structure written by MMmdl.
 48 49  0  0  0  0  0  0  0  0  2 V2000
  152.3215  138.8805  154.9169 C   0  0  0  0  0  0  0  0  0  0  0  0
  150.8867  138.9188  154.3793 C   0  0  0  0  0  0  0  0  0  0  0  0
  149.9472  137.9674  155.1452 C   0  0  0  0  0  0  0  0  0  0  0  0
  150.3679  136.4869  155.0841 C   0  0  0  0  0  0  0  0  0  0  0  0
  151.3450  136.1865  154.3951 O   0  0  0  0  0  0  0  0  0  0  0  0
  149.6490  135.5541  155.7673 N   0  0  0  0  0  0  0  0  0  0  0  0
  148.4242  135.8801  156.5367 C   0  0  0  0  0  0  0  0  0  0  0  0
  148.3860  135.1707  157.8987 C   0  0  0  0  0  0  0  0  0  0  0  0
  148.5961  133.6639  157.7449 C   0  0  0  0  0  0  0  0  0  0  0  0
  149.9145  133.4138  157.0081 C   0  0  0  0  0  0  0  0  0  0  0  0
  149.9772  134.1078  155.6251 C   0  0  1  0  0  0  0  0  0  0  0  0
  149.1017  133.3695  154.5844 C   0  0  0  0  0  0  0  0  0  0  0  0
  149.0145  132.1423  154.6235 O   0  0  0  0  0  0  0  0  0  0  0  0
  148.5075  134.0993  153.6261 N   0  0  0  0  0  0  0  0  0  0  0  0
  147.7778  133.5672  152.4813 C   0  0  0  0  0  0  0  0  0  0  0  0
  146.4038  134.2445  152.3029 C   0  0  0  0  0  0  0  0  0  0  0  0
  145.5853  133.6576  151.1636 C   0  0  0  0  0  0  0  0  0  0  0  0
  146.1362  132.6736  150.3135 C   0  0  0  0  0  0  0  0  0  0  0  0
  145.3415  132.1241  149.2857 C   0  0  0  0  0  0  0  0  0  0  0  0
  144.0140  132.5728  149.1297 C   0  0  0  0  0  0  0  0  0  0  0  0
  143.5221  133.5180  149.9599 N   0  3  0  0  0  0  0  0  0  0  0  0
  144.2502  134.0687  150.9553 C   0  0  0  0  0  0  0  0  0  0  0  0
  152.9638  139.5621  154.3589 H   0  0  0  0  0  0  0  0  0  0  0  0
  152.7467  137.8799  154.8336 H   0  0  0  0  0  0  0  0  0  0  0  0
  152.3568  139.1742  155.9663 H   0  0  0  0  0  0  0  0  0  0  0  0
  150.5134  139.9415  154.4445 H   0  0  0  0  0  0  0  0  0  0  0  0
  150.8986  138.6582  153.3202 H   0  0  0  0  0  0  0  0  0  0  0  0
  149.9008  138.2758  156.1905 H   0  0  0  0  0  0  0  0  0  0  0  0
  148.9440  138.0654  154.7288 H   0  0  0  0  0  0  0  0  0  0  0  0
  148.3041  136.9427  156.7368 H   0  0  0  0  0  0  0  0  0  0  0  0
  147.5496  135.5933  155.9533 H   0  0  0  0  0  0  0  0  0  0  0  0
  149.1606  135.5840  158.5463 H   0  0  0  0  0  0  0  0  0  0  0  0
  147.4339  135.3648  158.3934 H   0  0  0  0  0  0  0  0  0  0  0  0
  148.6167  133.1861  158.7247 H   0  0  0  0  0  0  0  0  0  0  0  0
  147.7630  133.2208  157.1977 H   0  0  0  0  0  0  0  0  0  0  0  0
  150.7366  133.7829  157.6230 H   0  0  0  0  0  0  0  0  0  0  0  0
  150.0850  132.3406  156.9129 H   0  0  0  0  0  0  0  0  0  0  0  0
  151.0040  133.9730  155.2822 H   0  0  0  0  0  0  0  0  0  0  0  0
  148.6212  135.1020  153.6641 H   0  0  0  0  0  0  0  0  0  0  0  0
  148.3711  133.6478  151.5691 H   0  0  0  0  0  0  0  0  0  0  0  0
  147.6340  132.5018  152.6625 H   0  0  0  0  0  0  0  0  0  0  0  0
  145.8326  134.1540  153.2280 H   0  0  0  0  0  0  0  0  0  0  0  0
  146.5369  135.3137  152.1348 H   0  0  0  0  0  0  0  0  0  0  0  0
  147.1533  132.3368  150.4520 H   0  0  0  0  0  0  0  0  0  0  0  0
  145.7436  131.3674  148.6279 H   0  0  0  0  0  0  0  0  0  0  0  0
  143.3351  132.2049  148.3743 H   0  0  0  0  0  0  0  0  0  0  0  0
  143.7410  134.8050  151.5603 H   0  0  0  0  0  0  0  0  0  0  0  0
  142.5570  133.8247  149.8343 H   0  0  0  0  0  0  0  0  0  0  0  0
  1  2  1  0  0  0  0
  1 23  1  0  0  0  0
  1 24  1  0  0  0  0
  1 25  1  0  0  0  0
  2  3  1  0  0  0  0
  2 26  1  0  0  0  0
  2 27  1  0  0  0  0
  3  4  1  0  0  0  0
  3 28  1  0  0  0  0
  3 29  1  0  0  0  0
  4  5  2  0  0  0  0
  4  6  1  0  0  0  0
  6 11  1  0  0  0  0
  6  7  1  0  0  0  0
  7  8  1  0  0  0  0
  7 30  1  0  0  0  0
  7 31  1  0  0  0  0
  8  9  1  0  0  0  0
  8 32  1  0  0  0  0
  8 33  1  0  0  0  0
  9 10  1  0  0  0  0
  9 34  1  0  0  0  0
  9 35  1  0  0  0  0
 10 11  1  0  0  0  0
 10 36  1  0  0  0  0
 10 37  1  0  0  0  0
 11 12  1  0  0  0  0
 11 38  1  0  0  0  0
 12 13  2  0  0  0  0
 12 14  1  0  0  0  0
 14 15  1  0  0  0  0
 14 39  1  0  0  0  0
 15 16  1  0  0  0  0
 15 40  1  0  0  0  0
 15 41  1  0  0  0  0
 16 17  1  0  0  0  0
 16 42  1  0  0  0  0
 16 43  1  0  0  0  0
 17 22  1  0  0  0  0
 17 18  2  0  0  0  0
 18 19  1  0  0  0  0
 18 44  1  0  0  0  0
 19 20  2  0  0  0  0
 19 45  1  0  0  0  0
 20 21  1  0  0  0  0
 20 46  1  0  0  0  0
 21 22  2  0  0  0  0
 21 48  1  0  0  0  0
 22 47  1  0  0  0  0
M  CHG  1  21   1
M  END
> <s_m_source_file>
AV-unprocessed.smi

> <i_m_source_file_index>
1194

> <i_lp_mmshare_version>
43012

> <i_f3d_flags>
0

> <s_epik_input>
W0NIM11bQ0gyXVtDSDJdQyg9TylOMVtDSDJdW0NIMl1bQ0gyXVtDSDJdW0NASF0xQyg9TylbTkhdW0NIMl1bQ0gyXWMyW2NIXVtjSF1bY0hdbltjSF0y

> <s_epik_cmdline>
J2VwaWtfcHl0aG9uJywgJy1waCcsICc3LjAnLCAnLXRuJywgJzgnLCAnLW1hJywgJzIwMCcsICctbWV0YWxfYmluZGluZycsICctaW1hZScsICc8aW5maWxlLm1hZT4nLCAnLW9tYWUnLCAnPG91dGZpbGUubWFlPic=

> <r_epik_Ionization_Penalty>
2.26523

> <r_epik_Ionization_Penalty_Charging>
2.26523

> <r_epik_Ionization_Penalty_Neutral>
5.33649e-08

> <r_epik_State_Penalty>
2.41338

> <r_epik_Charging_Adjusted_Penalty>
4.67861

> <i_epik_Tot_Q>
1

> <i_epik_Tot_abs_Q>
1

> <r_epik_Metal_State_Penalty>
2.42628

> <b_epik_Metal_Only>
0

> <s_lp_Force_Field>
OPLS_2005

> <r_lp_Energy>
32.0414

> <b_lp_Chiralities_Consistent>
1

> <s_lp_Variant>
AV-unprocessed.smi:1194-3

> <Gold.Version>
5.8.1

> <Gold.Id.Protein>
6NUR|6NUR_protein|mol2

> <Gold.PLP.Fitness>
45.9774

> <Gold.PLP.PLP>
-37.6761

> <Gold.PLP.part.hbond>
-3.0000

> <Gold.PLP.part.metal>
0.0000

> <Gold.PLP.part.buried>
-4.2135

> <Gold.PLP.part.nonpolar>
-31.2771

> <Gold.PLP.part.repulsive>
1.5816

> <Gold.PLP.ligand.clash>
0.0000

> <Gold.PLP.ligand.torsion>
0.7623

> <Gold.PLP.Chemscore.Hbond>
3.2460

> <Gold.PLP.Chemscore.CHOScore>
0.0000

> <Gold.PLP.Chemscore.Metal>
0.0000

> <Gold.Chemscore.Hbonds>
donor molecule, donor type, donor heavy atom, donor atom, acceptor molecule, acceptor atom, score
      L1  H    14    39       P1  7948  0.29
      L1  H    21    48       P1 10186  2.00
      P1  H 10752 10764       L1     5  1.00

> <Gold.PLP.Chemscore.Internal.Correction>
0.0880

> <Gold.Rescore>
     Score         DG    S(hbond)    S(metal)    S(lipo)     H(rot)  DE(clash)    DE(int)     intcor
     16.67     -19.05       2.21        0.00      92.28       1.80       0.33       2.05       ----

> <Gold.Chemscore.Fitness>
16.6654

> <Gold.Chemscore.DG>
-19.0474

> <Gold.Chemscore.ZeroCoef>
-5.4800

> <Gold.Chemscore.Hbond>
2.2079

> <Gold.Chemscore.Metal>
0.0000

> <Gold.Chemscore.Lipo>
92.2818

> <Gold.Chemscore.Internal_Hbond>
0.0000

> <Gold.Chemscore.DEClash>
0.3335

> <Gold.Chemscore.DEInternal>
2.0485

> <Gold.Chemscore.Rot>
1.7985

> <Gold.Chemscore.Internal.Correction>
   9.000000E+99

> <Gold.Chemscore.Hbonds>
donor molecule, donor type, donor heavy atom, donor atom, acceptor molecule, acceptor atom, score
      L1  H    14    39       P1  7948  0.24
      L1  H    21    48       P1 10186  1.00
      P1  H 10752 10764       L1     5  1.00

> <Gold.Chemscore.Hbond.Weighted>
-7.3745

> <Gold.Chemscore.Metal.Weighted>
-0.0000

> <Gold.Chemscore.Lipo.Weighted>
-10.7970

> <Gold.Chemscore.Internal_Hbond.Weighted>
0.0000

> <Gold.Chemscore.DEClash.Weighted>
0.3335

> <Gold.Chemscore.DEInternal.Weighted>
2.0485

> <Gold.Chemscore.Rot.Weighted>
4.6041

> <Gold.Chemscore.Internal.Correction.Weighted>
   9.000000E+99

> <Gold.Protein.RotatedTorsions>
[ 6907 6896 6895 6894 ] final  -11.43 input  -60.11 | X-H torsion
[ 7974 7965 7964 7962 ] final  -36.69 input  175.53 | X-H torsion
[ 8008 7997 7996 7995 ] final  -16.98 input   59.86 | X-H torsion
[ 10167 10162 10161 10158 ] final    6.11 input  -65.29 | X-H torsion
[ 10718 10713 10712 10709 ] final  -54.42 input   66.30 | X-H torsion
[ 10763 10752 10751 10750 ] final  -77.19 input  -60.55 | X-H torsion
[ 11005 11000 10999 10996 ] final  129.57 input  -57.11 | X-H torsion

> <Gold.Protein.ActiveResidues>
 VAL166  LYS551  ARG553  GLY616  TRP617  ASP618  TYR619  PRO620  LYS621  CYS622 
 ASP623  PHE694  ASN695  SER759  ASP760  ASP761  ALA762  ILE779  LEU786  VAL792 
 PHE793  MET794  SER795  GLU796  ALA797  LYS798  CYS799  TRP800  GLU811  SER814 

> <Gold.Protein.RotatedAtoms>
  151.3863  135.0948  159.9511 H   0  0  0  0  0  0  0  0  0  0  0  0  # atno 6907 bound_to 6896
  152.5093  133.9023  159.7457 H   0  0  0  0  0  0  0  0  0  0  0  0  # atno 6908 bound_to 6896
  150.9467  133.6539  159.2808 H   0  0  0  0  0  0  0  0  0  0  0  0  # atno 6909 bound_to 6896
  146.0640  140.6308  142.8984 H   0  0  0  0  0  0  0  0  0  0  0  0  # atno 7974 bound_to 7965
  154.5012  140.2155  155.9343 H   0  0  0  0  0  0  0  0  0  0  0  0  # atno 8008 bound_to 7997
  156.1436  140.3175  155.8502 H   0  0  0  0  0  0  0  0  0  0  0  0  # atno 8009 bound_to 7997
  155.4073  140.0488  157.3024 H   0  0  0  0  0  0  0  0  0  0  0  0  # atno 8010 bound_to 7997
  140.6446  143.7694  150.7479 H   0  0  0  0  0  0  0  0  0  0  0  0  # atno 10167 bound_to 10162
  156.1452  130.4153  150.0036 H   0  0  0  0  0  0  0  0  0  0  0  0  # atno 10718 bound_to 10713
  154.5097  135.5772  153.6595 H   0  0  0  0  0  0  0  0  0  0  0  0  # atno 10763 bound_to 10752
  152.9894  135.6155  154.2895 H   0  0  0  0  0  0  0  0  0  0  0  0  # atno 10764 bound_to 10752
  154.2809  135.2851  155.2677 H   0  0  0  0  0  0  0  0  0  0  0  0  # atno 10765 bound_to 10752
  139.9623  134.9599  156.9167 H   0  0  0  0  0  0  0  0  0  0  0  0  # atno 11005 bound_to 11000
  144.7191  140.4313  143.7021 LP  0  0  0  0  0  0  0  0  0  0  0  0  # atno 17320 bound_to 7965
  145.6511  139.1565  143.2862 LP  0  0  0  0  0  0  0  0  0  0  0  0  # atno 17321 bound_to 7965
  140.1332  143.4507  152.2241 LP  0  0  0  0  0  0  0  0  0  0  0  0  # atno 17342 bound_to 10162
  139.5656  144.7433  151.4033 LP  0  0  0  0  0  0  0  0  0  0  0  0  # atno 17343 bound_to 10162
  156.7909  130.9256  151.3646 LP  0  0  0  0  0  0  0  0  0  0  0  0  # atno 17370 bound_to 10713
  157.6610  130.8966  149.9831 LP  0  0  0  0  0  0  0  0  0  0  0  0  # atno 17371 bound_to 10713
  140.5473  134.0661  155.7359 LP  0  0  0  0  0  0  0  0  0  0  0  0  # atno 17394 bound_to 11000
  141.1301  133.9317  157.2554 LP  0  0  0  0  0  0  0  0  0  0  0  0  # atno 17395 bound_to 11000

$$$$
