AV-unprocessed.smi:153|AV-procd|sdf|1260|dock10
  -GOLD-   2262018503D 1   1.00000     0.00000
 Structure written by MMmdl.
 59 62  0  0  0  0  0  0  0  0  1 V2000
  145.9403  130.4377  151.7559 C   0  0  0  0  0  0  0  0  0  0  0  0
  145.7615  131.5636  152.7932 C   0  0  2  0  0  0  0  0  0  0  0  0
  144.8204  132.4901  152.2617 O   0  0  0  0  0  0  0  0  0  0  0  0
  145.4917  133.5415  151.5726 C   0  0  0  0  0  0  0  0  0  0  0  0
  146.9776  133.4111  151.9172 C   0  0  0  0  0  0  0  0  0  0  0  0
  147.0160  132.4173  153.0748 C   0  0  2  0  0  0  0  0  0  0  0  0
  148.2025  131.6489  152.9984 O   0  0  0  0  0  0  0  0  0  0  0  0
  147.0205  133.0809  154.4799 C   0  0  0  0  0  0  0  0  0  0  0  0
  148.0639  134.0739  154.6865 N   0  0  0  0  0  0  0  0  0  0  0  0
  149.4054  133.8329  154.8630 C   0  0  0  0  0  0  0  0  0  0  0  0
  150.1372  134.8955  155.0444 N   0  0  0  0  0  0  0  0  0  0  0  0
  149.2441  135.9607  154.9749 C   0  0  0  0  0  0  0  0  0  0  0  0
  149.3559  137.3834  155.0902 C   0  0  0  0  0  0  0  0  0  0  0  0
  150.5099  138.0690  155.3537 N   0  0  0  0  0  0  0  0  0  0  0  0
  151.7869  137.3707  155.2154 C   0  0  0  0  0  0  0  0  0  0  0  0
  150.5433  139.5277  155.2556 C   0  0  0  0  0  0  0  0  0  0  0  0
  150.7399  140.2201  156.6245 C   0  0  2  0  0  0  0  0  0  0  0  0
  149.5920  140.0474  157.4302 O   0  0  0  0  0  0  0  0  0  0  0  0
  151.0728  141.7258  156.5261 C   0  0  0  0  0  0  0  0  0  0  0  0
  151.3136  142.4353  157.7854 N   0  0  0  0  0  0  0  0  0  0  0  0
  151.7541  143.8034  157.5334 C   0  0  0  0  0  0  0  0  0  0  0  0
  152.0067  144.5783  158.8380 C   0  0  0  0  0  0  0  0  0  0  0  0
  152.9623  143.8793  159.6286 O   0  0  0  0  0  0  0  0  0  0  0  0
  152.5514  142.5519  159.9380 C   0  0  0  0  0  0  0  0  0  0  0  0
  152.2979  141.7709  158.6367 C   0  0  0  0  0  0  0  0  0  0  0  0
  148.2071  138.0961  154.9273 N   0  0  0  0  0  0  0  0  0  0  0  0
  147.0434  137.4873  154.6910 C   0  0  0  0  0  0  0  0  0  0  0  0
  146.7949  136.1838  154.5785 N   0  0  0  0  0  0  0  0  0  0  0  0
  147.9340  135.4515  154.7284 C   0  0  0  0  0  0  0  0  0  0  0  0
  146.6216  129.6678  152.1185 H   0  0  0  0  0  0  0  0  0  0  0  0
  146.3323  130.8132  150.8106 H   0  0  0  0  0  0  0  0  0  0  0  0
  144.9863  129.9535  151.5471 H   0  0  0  0  0  0  0  0  0  0  0  0
  145.3699  131.1229  153.7100 H   0  0  0  0  0  0  0  0  0  0  0  0
  145.3279  133.4559  150.4983 H   0  0  0  0  0  0  0  0  0  0  0  0
  145.0858  134.4996  151.8977 H   0  0  0  0  0  0  0  0  0  0  0  0
  147.4999  133.0040  151.0499 H   0  0  0  0  0  0  0  0  0  0  0  0
  147.4475  134.3663  152.1502 H   0  0  0  0  0  0  0  0  0  0  0  0
  148.3814  131.4629  152.0891 H   0  0  0  0  0  0  0  0  0  0  0  0
  146.0599  133.5643  154.6644 H   0  0  0  0  0  0  0  0  0  0  0  0
  147.1245  132.3177  155.2523 H   0  0  0  0  0  0  0  0  0  0  0  0
  149.8272  132.8386  154.8645 H   0  0  0  0  0  0  0  0  0  0  0  0
  151.8250  136.4976  155.8678 H   0  0  0  0  0  0  0  0  0  0  0  0
  152.6212  138.0176  155.4863 H   0  0  0  0  0  0  0  0  0  0  0  0
  151.9386  137.0455  154.1855 H   0  0  0  0  0  0  0  0  0  0  0  0
  151.3168  139.8212  154.5500 H   0  0  0  0  0  0  0  0  0  0  0  0
  149.6217  139.8826  154.7927 H   0  0  0  0  0  0  0  0  0  0  0  0
  151.5651  139.7526  157.1628 H   0  0  0  0  0  0  0  0  0  0  0  0
  149.0944  139.3210  157.0878 H   0  0  0  0  0  0  0  0  0  0  0  0
  151.9058  141.8817  155.8387 H   0  0  0  0  0  0  0  0  0  0  0  0
  150.2138  142.1943  156.0432 H   0  0  0  0  0  0  0  0  0  0  0  0
  152.6688  143.7936  156.9383 H   0  0  0  0  0  0  0  0  0  0  0  0
  151.0042  144.3310  156.9429 H   0  0  0  0  0  0  0  0  0  0  0  0
  152.3867  145.5762  158.6189 H   0  0  0  0  0  0  0  0  0  0  0  0
  151.0796  144.7034  159.3993 H   0  0  0  0  0  0  0  0  0  0  0  0
  153.3291  142.0654  160.5269 H   0  0  0  0  0  0  0  0  0  0  0  0
  151.6511  142.5774  160.5541 H   0  0  0  0  0  0  0  0  0  0  0  0
  151.9581  140.7696  158.8979 H   0  0  0  0  0  0  0  0  0  0  0  0
  153.2378  141.6534  158.0952 H   0  0  0  0  0  0  0  0  0  0  0  0
  146.1890  138.1385  154.5808 H   0  0  0  0  0  0  0  0  0  0  0  0
  1  2  1  0  0  0  0
  1 30  1  0  0  0  0
  1 31  1  0  0  0  0
  1 32  1  0  0  0  0
  2  6  1  0  0  0  0
  2  3  1  0  0  0  0
  2 33  1  0  0  0  0
  3  4  1  0  0  0  0
  4  5  1  0  0  0  0
  4 34  1  0  0  0  0
  4 35  1  0  0  0  0
  5  6  1  0  0  0  0
  5 36  1  0  0  0  0
  5 37  1  0  0  0  0
  6  7  1  0  0  0  0
  6  8  1  0  0  0  0
  7 38  1  0  0  0  0
  8  9  1  0  0  0  0
  8 39  1  0  0  0  0
  8 40  1  0  0  0  0
  9 29  1  0  0  0  0
  9 10  1  0  0  0  0
 10 11  2  0  0  0  0
 10 41  1  0  0  0  0
 11 12  1  0  0  0  0
 12 29  2  0  0  0  0
 12 13  1  0  0  0  0
 13 14  1  0  0  0  0
 13 26  2  0  0  0  0
 14 15  1  0  0  0  0
 14 16  1  0  0  0  0
 15 42  1  0  0  0  0
 15 43  1  0  0  0  0
 15 44  1  0  0  0  0
 16 17  1  0  0  0  0
 16 45  1  0  0  0  0
 16 46  1  0  0  0  0
 17 18  1  0  0  0  0
 17 19  1  0  0  0  0
 17 47  1  0  0  0  0
 18 48  1  0  0  0  0
 19 20  1  0  0  0  0
 19 49  1  0  0  0  0
 19 50  1  0  0  0  0
 20 25  1  0  0  0  0
 20 21  1  0  0  0  0
 21 22  1  0  0  0  0
 21 51  1  0  0  0  0
 21 52  1  0  0  0  0
 22 23  1  0  0  0  0
 22 53  1  0  0  0  0
 22 54  1  0  0  0  0
 23 24  1  0  0  0  0
 24 25  1  0  0  0  0
 24 55  1  0  0  0  0
 24 56  1  0  0  0  0
 25 57  1  0  0  0  0
 25 58  1  0  0  0  0
 26 27  1  0  0  0  0
 27 28  2  0  0  0  0
 27 59  1  0  0  0  0
 28 29  1  0  0  0  0
M  END
> <s_m_source_file>
AV-unprocessed.smi

> <i_m_source_file_index>
153

> <i_lp_mmshare_version>
43012

> <i_f3d_flags>
0

> <s_epik_input>
W0NIMl0xW0NIMl1PW0NAQEhdKFtDSDNdKVtDQEBdMShbT0hdKVtDSDJdbihbY0hdbjIpYyhjMjMpbltjSF1uYzNOKFtDSDNdKVtDSDJdW0NASF0oW09IXSlbQ0gyXU40W0NIMl1bQ0gyXU9bQ0gyXVtDSDJdNA==

> <s_epik_cmdline>
J2VwaWtfcHl0aG9uJywgJy1waCcsICc3LjAnLCAnLXRuJywgJzgnLCAnLW1hJywgJzIwMCcsICctbWV0YWxfYmluZGluZycsICctaW1hZScsICc8aW5maWxlLm1hZT4nLCAnLW9tYWUnLCAnPG91dGZpbGUubWFlPic=

> <r_lp_tautomer_probability>
1

> <r_epik_Ionization_Penalty>
0.424123

> <r_epik_Ionization_Penalty_Charging>
0

> <r_epik_Ionization_Penalty_Neutral>
0.424123

> <r_epik_State_Penalty>
0.421495

> <r_epik_Charging_Adjusted_Penalty>
0.421495

> <i_epik_Tot_Q>
0

> <i_epik_Tot_abs_Q>
0

> <r_epik_Metal_State_Penalty>
0.421223

> <b_epik_Metal_Only>
0

> <s_lp_Force_Field>
OPLS_2005

> <r_lp_Energy>
59.2369

> <b_lp_Chiralities_Consistent>
1

> <s_lp_Variant>
AV-unprocessed.smi:153-11

> <Gold.Version>
5.8.1

> <Gold.Id.Protein>
6NUR|6NUR_protein|mol2

> <Gold.PLP.Fitness>
44.3143

> <Gold.PLP.PLP>
-41.9651

> <Gold.PLP.part.hbond>
-1.0000

> <Gold.PLP.part.metal>
0.0000

> <Gold.PLP.part.buried>
-4.0111

> <Gold.PLP.part.nonpolar>
-37.5681

> <Gold.PLP.part.repulsive>
0.5453

> <Gold.PLP.ligand.clash>
0.0000

> <Gold.PLP.ligand.torsion>
0.5816

> <Gold.PLP.Chemscore.Hbond>
1.0000

> <Gold.PLP.Chemscore.CHOScore>
0.0000

> <Gold.PLP.Chemscore.Metal>
0.0000

> <Gold.Chemscore.Hbonds>
donor molecule, donor type, donor heavy atom, donor atom, acceptor molecule, acceptor atom, score
      L1  H     7    38       P1 10747  1.00

> <Gold.PLP.Chemscore.Internal.Correction>
0.5125

> <Gold.Rescore>
     Score         DG    S(hbond)    S(metal)    S(lipo)     H(rot)  DE(clash)    DE(int)     intcor
     10.95     -12.78       1.00        0.00     110.90       3.52       0.18       1.65       ----

> <Gold.Chemscore.Fitness>
10.9470

> <Gold.Chemscore.DG>
-12.7831

> <Gold.Chemscore.ZeroCoef>
-5.4800

> <Gold.Chemscore.Hbond>
0.9974

> <Gold.Chemscore.Metal>
0.0000

> <Gold.Chemscore.Lipo>
110.9008

> <Gold.Chemscore.Internal_Hbond>
0.0000

> <Gold.Chemscore.DEClash>
0.1821

> <Gold.Chemscore.DEInternal>
1.6540

> <Gold.Chemscore.Rot>
3.5170

> <Gold.Chemscore.Internal.Correction>
   9.000000E+99

> <Gold.Chemscore.Hbonds>
donor molecule, donor type, donor heavy atom, donor atom, acceptor molecule, acceptor atom, score
      L1  H     7    38       P1 10747  0.97

> <Gold.Chemscore.Hbond.Weighted>
-3.3313

> <Gold.Chemscore.Metal.Weighted>
-0.0000

> <Gold.Chemscore.Lipo.Weighted>
-12.9754

> <Gold.Chemscore.Internal_Hbond.Weighted>
0.0000

> <Gold.Chemscore.DEClash.Weighted>
0.1821

> <Gold.Chemscore.DEInternal.Weighted>
1.6540

> <Gold.Chemscore.Rot.Weighted>
9.0036

> <Gold.Chemscore.Internal.Correction.Weighted>
   9.000000E+99

> <Gold.Protein.RotatedTorsions>
[ 6907 6896 6895 6894 ] final  -30.98 input  -60.11 | X-H torsion
[ 7974 7965 7964 7962 ] final  108.35 input  175.53 | X-H torsion
[ 8008 7997 7996 7995 ] final -135.40 input   59.86 | X-H torsion
[ 10167 10162 10161 10158 ] final   21.17 input  -65.29 | X-H torsion
[ 10718 10713 10712 10709 ] final -152.67 input   66.30 | X-H torsion
[ 10763 10752 10751 10750 ] final -146.21 input  -60.55 | X-H torsion
[ 11005 11000 10999 10996 ] final  159.57 input  -57.11 | X-H torsion

> <Gold.Protein.ActiveResidues>
 VAL166  LYS551  ARG553  GLY616  TRP617  ASP618  TYR619  PRO620  LYS621  CYS622 
 ASP623  PHE694  ASN695  SER759  ASP760  ASP761  ALA762  ILE779  LEU786  VAL792 
 PHE793  MET794  SER795  GLU796  ALA797  LYS798  CYS799  TRP800  GLU811  SER814 

> <Gold.Protein.RotatedAtoms>
  151.0982  134.9956  159.8435 H   0  0  0  0  0  0  0  0  0  0  0  0  # atno 6907 bound_to 6896
  152.5435  134.1983  159.8712 H   0  0  0  0  0  0  0  0  0  0  0  0  # atno 6908 bound_to 6896
  151.2024  133.4559  159.2630 H   0  0  0  0  0  0  0  0  0  0  0  0  # atno 6909 bound_to 6896
  145.2818  139.2630  143.3911 H   0  0  0  0  0  0  0  0  0  0  0  0  # atno 7974 bound_to 7965
  155.3781  140.0492  157.3044 H   0  0  0  0  0  0  0  0  0  0  0  0  # atno 8008 bound_to 7997
  154.5096  140.2187  155.9144 H   0  0  0  0  0  0  0  0  0  0  0  0  # atno 8009 bound_to 7997
  156.1567  140.3125  155.8743 H   0  0  0  0  0  0  0  0  0  0  0  0  # atno 8010 bound_to 7997
  140.5447  143.9615  150.6540 H   0  0  0  0  0  0  0  0  0  0  0  0  # atno 10167 bound_to 10162
  156.4756  130.8279  151.2507 H   0  0  0  0  0  0  0  0  0  0  0  0  # atno 10718 bound_to 10713
  154.8347  135.3392  154.6626 H   0  0  0  0  0  0  0  0  0  0  0  0  # atno 10763 bound_to 10752
  153.7242  135.6956  153.5009 H   0  0  0  0  0  0  0  0  0  0  0  0  # atno 10764 bound_to 10752
  153.2359  135.4401  155.0598 H   0  0  0  0  0  0  0  0  0  0  0  0  # atno 10765 bound_to 10752
  140.1974  134.8363  157.2980 H   0  0  0  0  0  0  0  0  0  0  0  0  # atno 11005 bound_to 11000
  146.3214  140.3287  142.8639 LP  0  0  0  0  0  0  0  0  0  0  0  0  # atno 17320 bound_to 7965
  144.9247  140.7907  143.5727 LP  0  0  0  0  0  0  0  0  0  0  0  0  # atno 17321 bound_to 7965
  140.3025  143.3251  152.0958 LP  0  0  0  0  0  0  0  0  0  0  0  0  # atno 17342 bound_to 10162
  139.5003  144.6688  151.6293 LP  0  0  0  0  0  0  0  0  0  0  0  0  # atno 17343 bound_to 10162
  157.7488  131.0062  150.3142 LP  0  0  0  0  0  0  0  0  0  0  0  0  # atno 17370 bound_to 10713
  156.3574  130.3841  149.7279 LP  0  0  0  0  0  0  0  0  0  0  0  0  # atno 17371 bound_to 10713
  140.2092  134.4160  155.7622 LP  0  0  0  0  0  0  0  0  0  0  0  0  # atno 17394 bound_to 11000
  141.2227  133.7110  156.8310 LP  0  0  0  0  0  0  0  0  0  0  0  0  # atno 17395 bound_to 11000

$$$$
