AV-unprocessed.smi:955|AV-procd|sdf|4259|dock3
  -GOLD-   22720 2163D 1   1.00000     0.00000
 Structure written by MMmdl.
 29 29  0  0  0  0  0  0  0  0  1 V2000
  149.3704  132.5258  153.9993 C   0  0  0  0  0  0  0  0  0  0  0  0
  148.4487  133.6752  154.4391 C   0  0  2  0  0  0  0  0  0  0  0  0
  147.8051  134.2151  153.2436 N   0  0  0  0  0  0  0  0  0  0  0  0
  146.4992  134.1113  152.9452 C   0  0  0  0  0  0  0  0  0  0  0  0
  145.6926  133.5277  153.6707 O   0  0  0  0  0  0  0  0  0  0  0  0
  146.0433  134.7838  151.6372 C   0  0  2  0  0  0  0  0  0  0  0  0
  145.0283  135.9232  151.8630 C   0  0  0  0  0  0  0  0  0  0  0  0
  145.5436  133.7943  150.6876 N   0  0  0  0  0  0  0  0  0  0  0  0
  146.1948  132.6771  150.2046 C   0  0  0  0  0  0  0  0  0  0  0  0
  145.3319  132.0269  149.3701 C   0  0  0  0  0  0  0  0  0  0  0  0
  144.1564  132.8269  149.4101 C   0  0  0  0  0  0  0  0  0  0  0  0
  144.2826  133.8786  150.2027 N   0  0  0  0  0  0  0  0  0  0  0  0
  149.3188  134.7488  155.1127 C   0  0  0  0  0  0  0  0  0  0  0  0
  149.4084  135.9270  154.4917 N   0  0  0  0  0  0  0  0  0  0  0  0
  149.8873  134.5288  156.1817 O   0  0  0  0  0  0  0  0  0  0  0  0
  149.8811  132.0774  154.8524 H   0  0  0  0  0  0  0  0  0  0  0  0
  150.1319  132.8609  153.2931 H   0  0  0  0  0  0  0  0  0  0  0  0
  148.7978  131.7349  153.5137 H   0  0  0  0  0  0  0  0  0  0  0  0
  147.6985  133.2988  155.1376 H   0  0  0  0  0  0  0  0  0  0  0  0
  148.3974  134.7181  152.5993 H   0  0  0  0  0  0  0  0  0  0  0  0
  146.9344  135.2308  151.1937 H   0  0  0  0  0  0  0  0  0  0  0  0
  145.4437  136.7001  152.5054 H   0  0  0  0  0  0  0  0  0  0  0  0
  144.1094  135.5648  152.3288 H   0  0  0  0  0  0  0  0  0  0  0  0
  144.7573  136.3943  150.9178 H   0  0  0  0  0  0  0  0  0  0  0  0
  147.2082  132.4390  150.4933 H   0  0  0  0  0  0  0  0  0  0  0  0
  145.5118  131.1166  148.8178 H   0  0  0  0  0  0  0  0  0  0  0  0
  143.2205  132.6738  148.8935 H   0  0  0  0  0  0  0  0  0  0  0  0
  149.9637  136.6678  154.8942 H   0  0  0  0  0  0  0  0  0  0  0  0
  148.9159  136.0736  153.6226 H   0  0  0  0  0  0  0  0  0  0  0  0
  1  2  1  0  0  0  0
  1 16  1  0  0  0  0
  1 17  1  0  0  0  0
  1 18  1  0  0  0  0
  2  3  1  0  0  0  0
  2 13  1  0  0  0  0
  2 19  1  0  0  0  0
  3  4  1  0  0  0  0
  3 20  1  0  0  0  0
  4  5  2  0  0  0  0
  4  6  1  0  0  0  0
  6  7  1  0  0  0  0
  6  8  1  0  0  0  0
  6 21  1  0  0  0  0
  7 22  1  0  0  0  0
  7 23  1  0  0  0  0
  7 24  1  0  0  0  0
  8 12  1  0  0  0  0
  8  9  1  0  0  0  0
  9 10  2  0  0  0  0
  9 25  1  0  0  0  0
 10 11  1  0  0  0  0
 10 26  1  0  0  0  0
 11 12  2  0  0  0  0
 11 27  1  0  0  0  0
 13 14  1  0  0  0  0
 13 15  2  0  0  0  0
 14 28  1  0  0  0  0
 14 29  1  0  0  0  0
M  END
> <s_m_source_file>
AV-unprocessed.smi

> <i_m_source_file_index>
955

> <i_lp_mmshare_version>
43012

> <i_f3d_flags>
0

> <s_epik_input>
W05IMl1DKD1PKVtDQEhdKFtDSDNdKVtOSF1DKD1PKVtDQEhdKFtDSDNdKW4xW2NIXVtjSF1bY0hdbjE=

> <s_epik_cmdline>
J2VwaWtfcHl0aG9uJywgJy1waCcsICc3LjAnLCAnLXRuJywgJzgnLCAnLW1hJywgJzIwMCcsICctbWV0YWxfYmluZGluZycsICctaW1hZScsICc8aW5maWxlLm1hZT4nLCAnLW9tYWUnLCAnPG91dGZpbGUubWFlPic=

> <r_lp_tautomer_probability>
1

> <r_epik_Ionization_Penalty>
2.8146e-05

> <r_epik_Ionization_Penalty_Charging>
0

> <r_epik_Ionization_Penalty_Neutral>
2.8146e-05

> <r_epik_State_Penalty>
-0

> <r_epik_Charging_Adjusted_Penalty>
0

> <i_epik_Tot_Q>
0

> <i_epik_Tot_abs_Q>
0

> <r_epik_Metal_State_Penalty>
-0

> <b_epik_Metal_Only>
0

> <s_lp_Force_Field>
OPLS_2005

> <r_lp_Energy>
4.37159

> <b_lp_Chiralities_Consistent>
1

> <s_lp_Variant>
AV-unprocessed.smi:955-1

> <Gold.Version>
5.8.1

> <Gold.Id.Protein>
6NUR|6NUR_protein|mol2

> <Gold.PLP.Fitness>
37.2864

> <Gold.PLP.PLP>
-26.0842

> <Gold.PLP.part.hbond>
-2.0063

> <Gold.PLP.part.metal>
0.0000

> <Gold.PLP.part.buried>
-3.7024

> <Gold.PLP.part.nonpolar>
-21.2979

> <Gold.PLP.part.repulsive>
0.3382

> <Gold.PLP.ligand.clash>
0.0000

> <Gold.PLP.ligand.torsion>
0.1981

> <Gold.PLP.Chemscore.Hbond>
1.9840

> <Gold.PLP.Chemscore.CHOScore>
1.8357

> <Gold.PLP.Chemscore.Metal>
0.0000

> <Gold.Chemscore.Hbonds>
donor molecule, donor type, donor heavy atom, donor atom, acceptor molecule, acceptor atom, score
      L1  H     3    20       P1  7948  1.00
      L1  H    14    29       P1  7948  0.96
      L1  C     9    25       P1 10747  1.00
      L1  C    11    27       P1 10186  0.08

> <Gold.PLP.Chemscore.Internal.Correction>
0.1393

> <Gold.Rescore>
     Score         DG    S(hbond)    S(metal)    S(lipo)     H(rot)  DE(clash)    DE(int)     intcor
     11.01     -11.61       1.79        0.00      51.63       2.30       0.00       0.60       ----

> <Gold.Chemscore.Fitness>
11.0064

> <Gold.Chemscore.DG>
-11.6120

> <Gold.Chemscore.ZeroCoef>
-5.4800

> <Gold.Chemscore.Hbond>
1.7882

> <Gold.Chemscore.Metal>
0.0000

> <Gold.Chemscore.Lipo>
51.6261

> <Gold.Chemscore.Internal_Hbond>
0.0000

> <Gold.Chemscore.DEClash>
0.0009

> <Gold.Chemscore.DEInternal>
0.6047

> <Gold.Chemscore.Rot>
2.2972

> <Gold.Chemscore.Internal.Correction>
   9.000000E+99

> <Gold.Chemscore.Hbonds>
donor molecule, donor type, donor heavy atom, donor atom, acceptor molecule, acceptor atom, score
      L1  H     3    20       P1  7948  0.29
      L1  H    14    29       P1  7948  0.91

> <Gold.Chemscore.Hbond.Weighted>
-5.9727

> <Gold.Chemscore.Metal.Weighted>
-0.0000

> <Gold.Chemscore.Lipo.Weighted>
-6.0403

> <Gold.Chemscore.Internal_Hbond.Weighted>
0.0000

> <Gold.Chemscore.DEClash.Weighted>
0.0009

> <Gold.Chemscore.DEInternal.Weighted>
0.6047

> <Gold.Chemscore.Rot.Weighted>
5.8809

> <Gold.Chemscore.Internal.Correction.Weighted>
   9.000000E+99

> <Gold.Protein.RotatedTorsions>
[ 6907 6896 6895 6894 ] final  110.61 input  -60.11 | X-H torsion
[ 7974 7965 7964 7962 ] final -111.41 input  175.53 | X-H torsion
[ 8008 7997 7996 7995 ] final -126.44 input   59.86 | X-H torsion
[ 10167 10162 10161 10158 ] final  147.71 input  -65.29 | X-H torsion
[ 10718 10713 10712 10709 ] final -161.62 input   66.30 | X-H torsion
[ 10763 10752 10751 10750 ] final   36.39 input  -60.55 | X-H torsion
[ 11005 11000 10999 10996 ] final   -0.68 input  -57.11 | X-H torsion

> <Gold.Protein.ActiveResidues>
 VAL166  LYS551  ARG553  GLY616  TRP617  ASP618  TYR619  PRO620  LYS621  CYS622 
 ASP623  PHE694  ASN695  SER759  ASP760  ASP761  ALA762  ILE779  LEU786  VAL792 
 PHE793  MET794  SER795  GLU796  ALA797  LYS798  CYS799  TRP800  GLU811  SER814 

> <Gold.Protein.RotatedAtoms>
  152.5011  133.8775  159.7329 H   0  0  0  0  0  0  0  0  0  0  0  0  # atno 6907 bound_to 6896
  150.9246  133.6830  159.2831 H   0  0  0  0  0  0  0  0  0  0  0  0  # atno 6908 bound_to 6896
  151.4196  135.1000  159.9662 H   0  0  0  0  0  0  0  0  0  0  0  0  # atno 6909 bound_to 6896
  145.1565  140.8856  143.3616 H   0  0  0  0  0  0  0  0  0  0  0  0  # atno 7974 bound_to 7965
  155.2297  140.0425  157.2960 H   0  0  0  0  0  0  0  0  0  0  0  0  # atno 8008 bound_to 7997
  154.5896  140.2423  155.7909 H   0  0  0  0  0  0  0  0  0  0  0  0  # atno 8009 bound_to 7997
  156.2250  140.2957  156.0053 H   0  0  0  0  0  0  0  0  0  0  0  0  # atno 8010 bound_to 7997
  139.4886  144.5735  151.7010 H   0  0  0  0  0  0  0  0  0  0  0  0  # atno 10167 bound_to 10162
  156.5988  130.8801  151.2908 H   0  0  0  0  0  0  0  0  0  0  0  0  # atno 10718 bound_to 10713
  153.0079  135.6307  154.1978 H   0  0  0  0  0  0  0  0  0  0  0  0  # atno 10763 bound_to 10752
  154.1721  135.2818  155.3079 H   0  0  0  0  0  0  0  0  0  0  0  0  # atno 10764 bound_to 10752
  154.5900  135.5620  153.7329 H   0  0  0  0  0  0  0  0  0  0  0  0  # atno 10765 bound_to 10752
  140.6390  133.9506  155.8315 H   0  0  0  0  0  0  0  0  0  0  0  0  # atno 11005 bound_to 11000
  145.0376  139.3287  143.5993 LP  0  0  0  0  0  0  0  0  0  0  0  0  # atno 17320 bound_to 7965
  146.3488  139.9737  142.8703 LP  0  0  0  0  0  0  0  0  0  0  0  0  # atno 17321 bound_to 7965
  140.5326  144.0705  150.6059 LP  0  0  0  0  0  0  0  0  0  0  0  0  # atno 17342 bound_to 10162
  140.3701  143.2859  152.0288 LP  0  0  0  0  0  0  0  0  0  0  0  0  # atno 17343 bound_to 10162
  157.7285  130.9657  150.1744 LP  0  0  0  0  0  0  0  0  0  0  0  0  # atno 17370 bound_to 10713
  156.2487  130.3698  149.8257 LP  0  0  0  0  0  0  0  0  0  0  0  0  # atno 17371 bound_to 10713
  141.0620  134.0331  157.3645 LP  0  0  0  0  0  0  0  0  0  0  0  0  # atno 17394 bound_to 11000
  139.9087  135.0185  156.7599 LP  0  0  0  0  0  0  0  0  0  0  0  0  # atno 17395 bound_to 11000

$$$$
