AV-unprocessed.smi:2856|AV-procd|sdf|10994|dock5
  -GOLD-   2272015443D 1   1.00000     0.00000
 Structure written by MMmdl.
 37 38  0  0  0  0  0  0  0  0  1 V2000
  149.2165  133.5932  153.7921 C   0  0  0  0  0  0  0  0  0  0  0  0
  147.4964  133.9811  153.3692 S   0  0  0  0  0  0  0  0  0  0  0  0
  147.0447  132.5204  152.3791 C   0  0  1  0  0  0  0  0  0  0  0  0
  147.0015  131.2575  153.2617 C   0  0  0  0  0  0  0  0  0  0  0  0
  146.6608  130.0060  152.4372 C   0  0  0  0  0  0  0  0  0  0  0  0
  145.3403  130.1842  151.6729 C   0  0  0  0  0  0  0  0  0  0  0  0
  145.3721  131.4440  150.7904 C   0  0  0  0  0  0  0  0  0  0  0  0
  145.7218  132.7135  151.5968 C   0  0  1  0  0  0  0  0  0  0  0  0
  144.6250  133.0724  152.4972 N   0  0  0  0  0  0  0  0  0  0  0  0
  143.7329  134.0504  152.2846 C   0  0  0  0  0  0  0  0  0  0  0  0
  143.7381  134.7711  151.2863 O   0  0  0  0  0  0  0  0  0  0  0  0
  142.8462  134.1282  153.2914 N   0  0  0  0  0  0  0  0  0  0  0  0
  141.7561  135.0270  153.4151 C   0  0  0  0  0  0  0  0  0  0  0  0
  141.9188  136.4123  153.1469 C   0  0  0  0  0  0  0  0  0  0  0  0
  140.6717  136.9197  153.3821 C   0  0  0  0  0  0  0  0  0  0  0  0
  140.1058  138.2963  153.3095 C   0  0  0  0  0  0  0  0  0  0  0  0
  139.8188  135.9274  153.7549 O   0  0  0  0  0  0  0  0  0  0  0  0
  140.5201  134.7160  153.7745 N   0  0  0  0  0  0  0  0  0  0  0  0
  149.6097  134.3430  154.4785 H   0  0  0  0  0  0  0  0  0  0  0  0
  149.8426  133.5874  152.9005 H   0  0  0  0  0  0  0  0  0  0  0  0
  149.2822  132.6176  154.2736 H   0  0  0  0  0  0  0  0  0  0  0  0
  147.8485  132.3815  151.6545 H   0  0  0  0  0  0  0  0  0  0  0  0
  147.9636  131.1165  153.7551 H   0  0  0  0  0  0  0  0  0  0  0  0
  146.2655  131.3825  154.0570 H   0  0  0  0  0  0  0  0  0  0  0  0
  147.4669  129.8037  151.7309 H   0  0  0  0  0  0  0  0  0  0  0  0
  146.5976  129.1358  153.0911 H   0  0  0  0  0  0  0  0  0  0  0  0
  145.1481  129.3056  151.0565 H   0  0  0  0  0  0  0  0  0  0  0  0
  144.5133  130.2494  152.3808 H   0  0  0  0  0  0  0  0  0  0  0  0
  146.1149  131.3066  150.0037 H   0  0  0  0  0  0  0  0  0  0  0  0
  144.4156  131.5669  150.2809 H   0  0  0  0  0  0  0  0  0  0  0  0
  145.8653  133.5274  150.8851 H   0  0  0  0  0  0  0  0  0  0  0  0
  144.5463  132.5343  153.3477 H   0  0  0  0  0  0  0  0  0  0  0  0
  142.9562  133.4662  154.0451 H   0  0  0  0  0  0  0  0  0  0  0  0
  142.8033  136.9491  152.8377 H   0  0  0  0  0  0  0  0  0  0  0  0
  140.8856  139.0279  153.0964 H   0  0  0  0  0  0  0  0  0  0  0  0
  139.6347  138.5703  154.2537 H   0  0  0  0  0  0  0  0  0  0  0  0
  139.3539  138.3645  152.5234 H   0  0  0  0  0  0  0  0  0  0  0  0
  1  2  1  0  0  0  0
  1 19  1  0  0  0  0
  1 20  1  0  0  0  0
  1 21  1  0  0  0  0
  2  3  1  0  0  0  0
  3  8  1  0  0  0  0
  3  4  1  0  0  0  0
  3 22  1  0  0  0  0
  4  5  1  0  0  0  0
  4 23  1  0  0  0  0
  4 24  1  0  0  0  0
  5  6  1  0  0  0  0
  5 25  1  0  0  0  0
  5 26  1  0  0  0  0
  6  7  1  0  0  0  0
  6 27  1  0  0  0  0
  6 28  1  0  0  0  0
  7  8  1  0  0  0  0
  7 29  1  0  0  0  0
  7 30  1  0  0  0  0
  8  9  1  0  0  0  0
  8 31  1  0  0  0  0
  9 10  1  0  0  0  0
  9 32  1  0  0  0  0
 10 11  2  0  0  0  0
 10 12  1  0  0  0  0
 12 13  1  0  0  0  0
 12 33  1  0  0  0  0
 13 18  2  0  0  0  0
 13 14  1  0  0  0  0
 14 15  2  0  0  0  0
 14 34  1  0  0  0  0
 15 16  1  0  0  0  0
 15 17  1  0  0  0  0
 16 35  1  0  0  0  0
 16 36  1  0  0  0  0
 16 37  1  0  0  0  0
 17 18  1  0  0  0  0
M  END
> <s_m_source_file>
AV-unprocessed.smi

> <i_m_source_file_index>
2856

> <i_lp_mmshare_version>
43012

> <i_f3d_flags>
0

> <s_epik_input>
W0NIM11TW0NAQEhdMVtDSDJdW0NIMl1bQ0gyXVtDSDJdW0NASF0xW05IXUMoPU8pW05IXWMyW2NIXWMoW0NIM10pb24y

> <s_epik_cmdline>
J2VwaWtfcHl0aG9uJywgJy1waCcsICc3LjAnLCAnLXRuJywgJzgnLCAnLW1hJywgJzIwMCcsICctbWV0YWxfYmluZGluZycsICctaW1hZScsICc8aW5maWxlLm1hZT4nLCAnLW9tYWUnLCAnPG91dGZpbGUubWFlPic=

> <r_lp_tautomer_probability>
1

> <r_epik_Ionization_Penalty>
2.20874e-05

> <r_epik_Ionization_Penalty_Charging>
0

> <r_epik_Ionization_Penalty_Neutral>
2.20874e-05

> <r_epik_State_Penalty>
-0

> <r_epik_Charging_Adjusted_Penalty>
0

> <i_epik_Tot_Q>
0

> <i_epik_Tot_abs_Q>
0

> <r_epik_Metal_State_Penalty>
-0

> <b_epik_Metal_Only>
0

> <s_lp_Force_Field>
OPLS_2005

> <r_lp_Energy>
4.92743

> <b_lp_Chiralities_Consistent>
1

> <s_lp_Variant>
AV-unprocessed.smi:2856-2

> <Gold.Version>
5.8.1

> <Gold.Id.Protein>
6NUR|6NUR_protein|mol2

> <Gold.PLP.Fitness>
39.9027

> <Gold.PLP.PLP>
-34.8742

> <Gold.PLP.part.hbond>
-3.4370

> <Gold.PLP.part.metal>
0.0000

> <Gold.PLP.part.buried>
-7.6425

> <Gold.PLP.part.nonpolar>
-24.9871

> <Gold.PLP.part.repulsive>
0.5604

> <Gold.PLP.ligand.clash>
0.0000

> <Gold.PLP.ligand.torsion>
0.6532

> <Gold.PLP.Chemscore.Hbond>
2.1067

> <Gold.PLP.Chemscore.CHOScore>
0.0000

> <Gold.PLP.Chemscore.Metal>
0.0000

> <Gold.Chemscore.Hbonds>
donor molecule, donor type, donor heavy atom, donor atom, acceptor molecule, acceptor atom, score
      L1  H    12    33       P1 10957  1.00
      P1  H 10995 11001       L1    18  0.04
      P1  H 11000 11005       L1    18  0.85

> <Gold.PLP.Chemscore.Internal.Correction>
0.0147

> <Gold.Rescore>
     Score         DG    S(hbond)    S(metal)    S(lipo)     H(rot)  DE(clash)    DE(int)     intcor
     15.64     -17.27       1.93        0.00      72.03       1.21       0.00       1.62       ----

> <Gold.Chemscore.Fitness>
15.6392

> <Gold.Chemscore.DG>
-17.2674

> <Gold.Chemscore.ZeroCoef>
-5.4800

> <Gold.Chemscore.Hbond>
1.9342

> <Gold.Chemscore.Metal>
0.0000

> <Gold.Chemscore.Lipo>
72.0281

> <Gold.Chemscore.Internal_Hbond>
0.0000

> <Gold.Chemscore.DEClash>
0.0044

> <Gold.Chemscore.DEInternal>
1.6239

> <Gold.Chemscore.Rot>
1.2109

> <Gold.Chemscore.Internal.Correction>
   9.000000E+99

> <Gold.Chemscore.Hbonds>
donor molecule, donor type, donor heavy atom, donor atom, acceptor molecule, acceptor atom, score
      L1  H    12    33       P1 10957  0.94
      P1  H 10995 11001       L1    18  0.04
      P1  H 11000 11005       L1    18  0.13

> <Gold.Chemscore.Hbond.Weighted>
-6.4602

> <Gold.Chemscore.Metal.Weighted>
-0.0000

> <Gold.Chemscore.Lipo.Weighted>
-8.4273

> <Gold.Chemscore.Internal_Hbond.Weighted>
0.0000

> <Gold.Chemscore.DEClash.Weighted>
0.0044

> <Gold.Chemscore.DEInternal.Weighted>
1.6239

> <Gold.Chemscore.Rot.Weighted>
3.1000

> <Gold.Chemscore.Internal.Correction.Weighted>
   9.000000E+99

> <Gold.Protein.RotatedTorsions>
[ 6907 6896 6895 6894 ] final -125.52 input  -60.11 | X-H torsion
[ 7974 7965 7964 7962 ] final  -36.87 input  175.53 | X-H torsion
[ 8008 7997 7996 7995 ] final   -7.23 input   59.86 | X-H torsion
[ 10167 10162 10161 10158 ] final  -49.40 input  -65.29 | X-H torsion
[ 10718 10713 10712 10709 ] final   11.34 input   66.30 | X-H torsion
[ 10763 10752 10751 10750 ] final  -14.47 input  -60.55 | X-H torsion
[ 11005 11000 10999 10996 ] final   32.55 input  -57.11 | X-H torsion

> <Gold.Protein.ActiveResidues>
 VAL166  LYS551  ARG553  GLY616  TRP617  ASP618  TYR619  PRO620  LYS621  CYS622 
 ASP623  PHE694  ASN695  SER759  ASP760  ASP761  ALA762  ILE779  LEU786  VAL792 
 PHE793  MET794  SER795  GLU796  ALA797  LYS798  CYS799  TRP800  GLU811  SER814 

> <Gold.Protein.RotatedAtoms>
  150.8876  133.7287  159.2913 H   0  0  0  0  0  0  0  0  0  0  0  0  # atno 6907 bound_to 6896
  151.4848  135.1053  159.9797 H   0  0  0  0  0  0  0  0  0  0  0  0  # atno 6908 bound_to 6896
  152.4800  133.8183  159.7096 H   0  0  0  0  0  0  0  0  0  0  0  0  # atno 6909 bound_to 6896
  146.0624  140.6329  142.8991 H   0  0  0  0  0  0  0  0  0  0  0  0  # atno 7974 bound_to 7965
  154.5859  140.2412  155.7988 H   0  0  0  0  0  0  0  0  0  0  0  0  # atno 8008 bound_to 7997
  156.2212  140.2997  155.9913 H   0  0  0  0  0  0  0  0  0  0  0  0  # atno 8009 bound_to 7997
  155.2459  140.0409  157.2971 H   0  0  0  0  0  0  0  0  0  0  0  0  # atno 8010 bound_to 7997
  140.6687  143.2699  151.4209 H   0  0  0  0  0  0  0  0  0  0  0  0  # atno 10167 bound_to 10162
  156.9942  130.6054  149.5689 H   0  0  0  0  0  0  0  0  0  0  0  0  # atno 10718 bound_to 10713
  153.5288  135.7015  153.5694 H   0  0  0  0  0  0  0  0  0  0  0  0  # atno 10763 bound_to 10752
  153.3710  135.3945  155.1788 H   0  0  0  0  0  0  0  0  0  0  0  0  # atno 10764 bound_to 10752
  154.8687  135.3812  154.4783 H   0  0  0  0  0  0  0  0  0  0  0  0  # atno 10765 bound_to 10752
  140.2723  134.3068  155.7824 H   0  0  0  0  0  0  0  0  0  0  0  0  # atno 11005 bound_to 11000
  144.7183  140.4285  143.7028 LP  0  0  0  0  0  0  0  0  0  0  0  0  # atno 17320 bound_to 7965
  145.6536  139.1569  143.2848 LP  0  0  0  0  0  0  0  0  0  0  0  0  # atno 17321 bound_to 7965
  139.5946  144.1426  152.2128 LP  0  0  0  0  0  0  0  0  0  0  0  0  # atno 17342 bound_to 10162
  140.0791  144.5716  150.7136 LP  0  0  0  0  0  0  0  0  0  0  0  0  # atno 17343 bound_to 10162
  156.0195  130.5290  150.8235 LP  0  0  0  0  0  0  0  0  0  0  0  0  # atno 17370 bound_to 10713
  157.5437  131.0941  150.9792 LP  0  0  0  0  0  0  0  0  0  0  0  0  # atno 17371 bound_to 10713
  141.2175  133.7474  156.9354 LP  0  0  0  0  0  0  0  0  0  0  0  0  # atno 17394 bound_to 11000
  140.1361  134.9324  157.2404 LP  0  0  0  0  0  0  0  0  0  0  0  0  # atno 17395 bound_to 11000

$$$$
