AV-unprocessed.smi:3306|AV-procd|sdf|12702|dock2
  -GOLD-   2272019 33D 1   1.00000     0.00000
 Structure written by MMmdl.
 45 46  0  0  0  0  0  0  0  0  3 V2000
  148.7327  133.7823  154.5040 C   0  0  0  0  0  0  0  0  0  0  0  0
  149.8756  134.6994  154.9818 C   0  0  0  0  0  0  0  0  0  0  0  0
  150.2076  134.4649  156.4649 C   0  0  0  0  0  0  0  0  0  0  0  0
  149.6364  136.1460  154.7028 N   0  3  2  0  0  0  0  0  0  0  0  0
  150.8408  137.0164  154.7820 C   0  0  0  0  0  0  0  0  0  0  0  0
  150.5329  138.4261  154.2470 C   0  0  0  0  0  0  0  0  0  0  0  0
  149.3478  139.0837  154.9854 C   0  0  2  0  0  0  0  0  0  0  0  0
  149.6827  139.4816  156.3744 N   0  3  0  0  0  0  0  0  0  0  0  0
  150.5817  140.6482  156.5016 C   0  0  0  0  0  0  0  0  0  0  0  0
  151.0657  140.8120  157.9489 C   0  0  0  0  0  0  0  0  0  0  0  0
  151.4576  142.2433  158.2639 C   0  0  0  0  0  0  0  0  0  0  0  0
  152.1804  142.5536  159.4355 C   0  0  0  0  0  0  0  0  0  0  0  0
  152.5208  143.8991  159.6761 C   0  0  0  0  0  0  0  0  0  0  0  0
  152.1288  144.8760  158.7404 C   0  0  0  0  0  0  0  0  0  0  0  0
  151.4101  144.4627  157.6009 C   0  0  0  0  0  0  0  0  0  0  0  0
  151.0790  143.1751  157.3606 N   0  0  0  0  0  0  0  0  0  0  0  0
  148.1404  138.1277  154.9673 C   0  0  0  0  0  0  0  0  0  0  0  0
  148.4988  136.7166  155.4711 C   0  0  0  0  0  0  0  0  0  0  0  0
  149.0047  132.7341  154.6326 H   0  0  0  0  0  0  0  0  0  0  0  0
  148.5100  133.9288  153.4473 H   0  0  0  0  0  0  0  0  0  0  0  0
  147.8147  133.9456  155.0688 H   0  0  0  0  0  0  0  0  0  0  0  0
  150.7722  134.4134  154.4301 H   0  0  0  0  0  0  0  0  0  0  0  0
  150.5179  133.4329  156.6325 H   0  0  0  0  0  0  0  0  0  0  0  0
  149.3519  134.6527  157.1129 H   0  0  0  0  0  0  0  0  0  0  0  0
  151.0248  135.1079  156.7931 H   0  0  0  0  0  0  0  0  0  0  0  0
  151.1892  137.0836  155.8135 H   0  0  0  0  0  0  0  0  0  0  0  0
  151.6566  136.5882  154.2004 H   0  0  0  0  0  0  0  0  0  0  0  0
  151.4250  139.0496  154.2941 H   0  0  0  0  0  0  0  0  0  0  0  0
  150.2866  138.3496  153.1869 H   0  0  0  0  0  0  0  0  0  0  0  0
  149.0599  139.9911  154.4522 H   0  0  0  0  0  0  0  0  0  0  0  0
  148.8178  139.7268  156.8357 H   0  0  0  0  0  0  0  0  0  0  0  0
  151.4410  140.5302  155.8414 H   0  0  0  0  0  0  0  0  0  0  0  0
  150.0510  141.5474  156.1854 H   0  0  0  0  0  0  0  0  0  0  0  0
  150.2834  140.5013  158.6433 H   0  0  0  0  0  0  0  0  0  0  0  0
  151.9184  140.1572  158.1340 H   0  0  0  0  0  0  0  0  0  0  0  0
  152.4678  141.7836  160.1363 H   0  0  0  0  0  0  0  0  0  0  0  0
  153.0721  144.1770  160.5624 H   0  0  0  0  0  0  0  0  0  0  0  0
  152.3724  145.9171  158.8926 H   0  0  0  0  0  0  0  0  0  0  0  0
  151.0942  145.1848  156.8624 H   0  0  0  0  0  0  0  0  0  0  0  0
  147.3210  138.5401  155.5576 H   0  0  0  0  0  0  0  0  0  0  0  0
  147.7644  138.0502  153.9461 H   0  0  0  0  0  0  0  0  0  0  0  0
  147.6236  136.0735  155.3706 H   0  0  0  0  0  0  0  0  0  0  0  0
  148.7456  136.7480  156.5330 H   0  0  0  0  0  0  0  0  0  0  0  0
  149.3404  136.1733  153.7371 H   0  0  0  0  0  0  0  0  0  0  0  0
  150.0903  138.6952  156.8595 H   0  0  0  0  0  0  0  0  0  0  0  0
  1  2  1  0  0  0  0
  1 19  1  0  0  0  0
  1 20  1  0  0  0  0
  1 21  1  0  0  0  0
  2  3  1  0  0  0  0
  2  4  1  0  0  0  0
  2 22  1  0  0  0  0
  3 23  1  0  0  0  0
  3 24  1  0  0  0  0
  3 25  1  0  0  0  0
  4 18  1  0  0  0  0
  4  5  1  0  0  0  0
  4 44  1  0  0  0  0
  5  6  1  0  0  0  0
  5 26  1  0  0  0  0
  5 27  1  0  0  0  0
  6  7  1  0  0  0  0
  6 28  1  0  0  0  0
  6 29  1  0  0  0  0
  7  8  1  0  0  0  0
  7 17  1  0  0  0  0
  7 30  1  0  0  0  0
  8  9  1  0  0  0  0
  8 31  1  0  0  0  0
  8 45  1  0  0  0  0
  9 10  1  0  0  0  0
  9 32  1  0  0  0  0
  9 33  1  0  0  0  0
 10 11  1  0  0  0  0
 10 34  1  0  0  0  0
 10 35  1  0  0  0  0
 11 16  1  0  0  0  0
 11 12  2  0  0  0  0
 12 13  1  0  0  0  0
 12 36  1  0  0  0  0
 13 14  2  0  0  0  0
 13 37  1  0  0  0  0
 14 15  1  0  0  0  0
 14 38  1  0  0  0  0
 15 16  2  0  0  0  0
 15 39  1  0  0  0  0
 17 18  1  0  0  0  0
 17 40  1  0  0  0  0
 17 41  1  0  0  0  0
 18 42  1  0  0  0  0
 18 43  1  0  0  0  0
M  CHG  1   4   1
M  CHG  1   8   1
M  END
> <s_m_source_file>
AV-unprocessed.smi

> <i_m_source_file_index>
3306

> <i_lp_mmshare_version>
43012

> <i_f3d_flags>
0

> <s_epik_input>
W0NIM11bQ0hdKFtDSDNdKU4xW0NIMl1bQ0gyXVtDSF0oW0NIMl1bQ0gyXTEpW05IXVtDSDJdW0NIMl1jMltjSF1bY0hdW2NIXVtjSF1uMg==

> <s_epik_cmdline>
J2VwaWtfcHl0aG9uJywgJy1waCcsICc3LjAnLCAnLXRuJywgJzgnLCAnLW1hJywgJzIwMCcsICctbWV0YWxfYmluZGluZycsICctaW1hZScsICc8aW5maWxlLm1hZT4nLCAnLW9tYWUnLCAnPG91dGZpbGUubWFlPic=

> <r_epik_Ionization_Penalty>
0.0800465

> <r_epik_Ionization_Penalty_Charging>
0.0790817

> <r_epik_Ionization_Penalty_Neutral>
0.000964829

> <r_epik_State_Penalty>
0.0665964

> <r_epik_Charging_Adjusted_Penalty>
0.145678

> <i_epik_Tot_Q>
2

> <i_epik_Tot_abs_Q>
2

> <r_epik_Metal_State_Penalty>
0.0683331

> <b_epik_Metal_Only>
0

> <s_lp_Force_Field>
OPLS_2005

> <r_lp_Energy>
31.8931

> <b_lp_Chiralities_Consistent>
1

> <s_lp_Variant>
AV-unprocessed.smi:3306-2

> <Gold.Version>
5.8.1

> <Gold.Id.Protein>
6NUR|6NUR_protein|mol2

> <Gold.PLP.Fitness>
44.5396

> <Gold.PLP.PLP>
-36.7491

> <Gold.PLP.part.hbond>
-1.0000

> <Gold.PLP.part.metal>
0.0000

> <Gold.PLP.part.buried>
-5.0978

> <Gold.PLP.part.nonpolar>
-32.6949

> <Gold.PLP.part.repulsive>
0.1823

> <Gold.PLP.ligand.clash>
0.0000

> <Gold.PLP.ligand.torsion>
0.5045

> <Gold.PLP.Chemscore.Hbond>
2.0000

> <Gold.PLP.Chemscore.CHOScore>
0.8945

> <Gold.PLP.Chemscore.Metal>
0.0000

> <Gold.Chemscore.Hbonds>
donor molecule, donor type, donor heavy atom, donor atom, acceptor molecule, acceptor atom, score
      L1  H     4    44       P1  7948  2.00
      L1  C    15    39       P1  8028  0.77

> <Gold.PLP.Chemscore.Internal.Correction>
0.1158

> <Gold.Rescore>
     Score         DG    S(hbond)    S(metal)    S(lipo)     H(rot)  DE(clash)    DE(int)     intcor
     17.06     -17.40       0.95        0.00     106.82       1.47       0.00       0.35       ----

> <Gold.Chemscore.Fitness>
17.0551

> <Gold.Chemscore.DG>
-17.4046

> <Gold.Chemscore.ZeroCoef>
-5.4800

> <Gold.Chemscore.Hbond>
0.9533

> <Gold.Chemscore.Metal>
0.0000

> <Gold.Chemscore.Lipo>
106.8238

> <Gold.Chemscore.Internal_Hbond>
0.0000

> <Gold.Chemscore.DEClash>
0.0000

> <Gold.Chemscore.DEInternal>
0.3494

> <Gold.Chemscore.Rot>
1.4679

> <Gold.Chemscore.Internal.Correction>
   9.000000E+99

> <Gold.Chemscore.Hbonds>
donor molecule, donor type, donor heavy atom, donor atom, acceptor molecule, acceptor atom, score
      L1  H     4    44       P1  7948  0.78

> <Gold.Chemscore.Hbond.Weighted>
-3.1841

> <Gold.Chemscore.Metal.Weighted>
-0.0000

> <Gold.Chemscore.Lipo.Weighted>
-12.4984

> <Gold.Chemscore.Internal_Hbond.Weighted>
0.0000

> <Gold.Chemscore.DEClash.Weighted>
0.0000

> <Gold.Chemscore.DEInternal.Weighted>
0.3494

> <Gold.Chemscore.Rot.Weighted>
3.7579

> <Gold.Chemscore.Internal.Correction.Weighted>
   9.000000E+99

> <Gold.Protein.RotatedTorsions>
[ 6907 6896 6895 6894 ] final -145.63 input  -60.11 | X-H torsion
[ 7974 7965 7964 7962 ] final   85.77 input  175.53 | X-H torsion
[ 8008 7997 7996 7995 ] final   15.34 input   59.86 | X-H torsion
[ 10167 10162 10161 10158 ] final  -45.85 input  -65.29 | X-H torsion
[ 10718 10713 10712 10709 ] final  -71.00 input   66.30 | X-H torsion
[ 10763 10752 10751 10750 ] final  114.65 input  -60.55 | X-H torsion
[ 11005 11000 10999 10996 ] final  -36.79 input  -57.11 | X-H torsion

> <Gold.Protein.ActiveResidues>
 VAL166  LYS551  ARG553  GLY616  TRP617  ASP618  TYR619  PRO620  LYS621  CYS622 
 ASP623  PHE694  ASN695  SER759  ASP760  ASP761  ALA762  ILE779  LEU786  VAL792 
 PHE793  MET794  SER795  GLU796  ALA797  LYS798  CYS799  TRP800  GLU811  SER814 

> <Gold.Protein.RotatedAtoms>
  151.1305  133.5040  159.2599 H   0  0  0  0  0  0  0  0  0  0  0  0  # atno 6907 bound_to 6896
  151.1763  135.0340  159.8783 H   0  0  0  0  0  0  0  0  0  0  0  0  # atno 6908 bound_to 6896
  152.5459  134.1162  159.8433 H   0  0  0  0  0  0  0  0  0  0  0  0  # atno 6909 bound_to 6896
  145.5811  139.2325  143.2352 H   0  0  0  0  0  0  0  0  0  0  0  0  # atno 7974 bound_to 7965
  154.8612  140.2944  155.5538 H   0  0  0  0  0  0  0  0  0  0  0  0  # atno 8008 bound_to 7997
  156.3020  140.2477  156.3519 H   0  0  0  0  0  0  0  0  0  0  0  0  # atno 8009 bound_to 7997
  154.8916  140.0394  157.1831 H   0  0  0  0  0  0  0  0  0  0  0  0  # atno 8010 bound_to 7997
  140.6841  143.2859  151.3698 H   0  0  0  0  0  0  0  0  0  0  0  0  # atno 10167 bound_to 10162
  156.0382  130.4342  150.2378 H   0  0  0  0  0  0  0  0  0  0  0  0  # atno 10718 bound_to 10713
  153.5104  135.3619  155.2584 H   0  0  0  0  0  0  0  0  0  0  0  0  # atno 10763 bound_to 10752
  154.8742  135.4021  154.3375 H   0  0  0  0  0  0  0  0  0  0  0  0  # atno 10764 bound_to 10752
  153.4027  135.7075  153.6481 H   0  0  0  0  0  0  0  0  0  0  0  0  # atno 10765 bound_to 10752
  140.9902  133.7009  156.1836 H   0  0  0  0  0  0  0  0  0  0  0  0  # atno 11005 bound_to 11000
  146.1715  140.6638  142.9231 LP  0  0  0  0  0  0  0  0  0  0  0  0  # atno 17320 bound_to 7965
  144.7393  140.4898  143.6881 LP  0  0  0  0  0  0  0  0  0  0  0  0  # atno 17321 bound_to 7965
  139.6186  144.0953  152.2369 LP  0  0  0  0  0  0  0  0  0  0  0  0  # atno 17342 bound_to 10162
  140.0390  144.6022  150.7426 LP  0  0  0  0  0  0  0  0  0  0  0  0  # atno 17343 bound_to 10162
  157.0476  131.0053  151.3264 LP  0  0  0  0  0  0  0  0  0  0  0  0  # atno 17370 bound_to 10713
  157.5164  130.7971  149.7761 LP  0  0  0  0  0  0  0  0  0  0  0  0  # atno 17371 bound_to 10713
  140.7052  134.4521  157.5584 LP  0  0  0  0  0  0  0  0  0  0  0  0  # atno 17394 bound_to 11000
  139.8989  134.8604  156.1983 LP  0  0  0  0  0  0  0  0  0  0  0  0  # atno 17395 bound_to 11000

$$$$
