AV-unprocessed.smi:527|AV-procd|sdf|2819|dock10
  -GOLD-   2262023303D 1   1.00000     0.00000
 Structure written by MMmdl.
 42 43  0  0  0  0  0  0  0  0  1 V2000
  149.3905  140.7414  156.1893 C   0  0  0  0  0  0  0  0  0  0  0  0
  149.2484  140.7074  154.6536 C   0  0  2  0  0  0  0  0  0  0  0  0
  148.0837  141.5960  154.1720 C   0  0  0  0  0  0  0  0  0  0  0  0
  146.7130  140.9780  154.4884 C   0  0  0  0  0  0  0  0  0  0  0  0
  146.5921  139.5653  153.9004 C   0  0  0  0  0  0  0  0  0  0  0  0
  147.7403  138.6460  154.3676 C   0  0  1  0  0  0  0  0  0  0  0  0
  147.6221  137.3413  153.7186 N   0  0  0  0  0  0  0  0  0  0  0  0
  146.5780  136.5071  153.8330 C   0  0  0  0  0  0  0  0  0  0  0  0
  145.5973  136.7426  154.5423 O   0  0  0  0  0  0  0  0  0  0  0  0
  146.7575  135.4047  153.0798 N   0  0  0  0  0  0  0  0  0  0  0  0
  146.0263  134.2714  153.0922 C   0  0  0  0  0  0  0  0  0  0  0  0
  145.0464  134.0730  153.8150 O   0  0  0  0  0  0  0  0  0  0  0  0
  146.5038  133.1902  152.1134 C   0  0  0  0  0  0  0  0  0  0  0  0
  145.4523  132.7172  151.2287 N   0  0  0  0  0  0  0  0  0  0  0  0
  144.1048  133.0532  151.2714 C   0  0  0  0  0  0  0  0  0  0  0  0
  143.4963  132.3689  150.2435 C   0  0  0  0  0  0  0  0  0  0  0  0
  144.4436  131.6109  149.5592 N   0  0  0  0  0  0  0  0  0  0  0  0
  145.5776  131.8696  150.1978 C   0  0  0  0  0  0  0  0  0  0  0  0
  149.1216  139.2795  154.0580 C   0  0  2  0  0  0  0  0  0  0  0  0
  150.3032  138.3719  154.4540 C   0  0  0  0  0  0  0  0  0  0  0  0
  148.5455  140.2726  156.6922 H   0  0  0  0  0  0  0  0  0  0  0  0
  149.4563  141.7680  156.5504 H   0  0  0  0  0  0  0  0  0  0  0  0
  150.2955  140.2318  156.5192 H   0  0  0  0  0  0  0  0  0  0  0  0
  150.1635  141.1467  154.2540 H   0  0  0  0  0  0  0  0  0  0  0  0
  148.1566  142.5894  154.6160 H   0  0  0  0  0  0  0  0  0  0  0  0
  148.1662  141.7425  153.0943 H   0  0  0  0  0  0  0  0  0  0  0  0
  146.5584  140.9420  155.5669 H   0  0  0  0  0  0  0  0  0  0  0  0
  145.9210  141.6119  154.0889 H   0  0  0  0  0  0  0  0  0  0  0  0
  145.6284  139.1383  154.1809 H   0  0  0  0  0  0  0  0  0  0  0  0
  146.5932  139.6303  152.8114 H   0  0  0  0  0  0  0  0  0  0  0  0
  147.6609  138.5047  155.4470 H   0  0  0  0  0  0  0  0  0  0  0  0
  148.4031  137.0490  153.1500 H   0  0  0  0  0  0  0  0  0  0  0  0
  147.5311  135.4277  152.4321 H   0  0  0  0  0  0  0  0  0  0  0  0
  147.3210  133.5821  151.5062 H   0  0  0  0  0  0  0  0  0  0  0  0
  146.8964  132.3408  152.6739 H   0  0  0  0  0  0  0  0  0  0  0  0
  143.7024  133.7336  152.0073 H   0  0  0  0  0  0  0  0  0  0  0  0
  142.4579  132.3636  149.9463 H   0  0  0  0  0  0  0  0  0  0  0  0
  146.5219  131.4322  149.9089 H   0  0  0  0  0  0  0  0  0  0  0  0
  149.1811  139.3952  152.9743 H   0  0  0  0  0  0  0  0  0  0  0  0
  150.2607  138.0937  155.5073 H   0  0  0  0  0  0  0  0  0  0  0  0
  151.2568  138.8697  154.2768 H   0  0  0  0  0  0  0  0  0  0  0  0
  150.3108  137.4493  153.8735 H   0  0  0  0  0  0  0  0  0  0  0  0
  1  2  1  0  0  0  0
  1 21  1  0  0  0  0
  1 22  1  0  0  0  0
  1 23  1  0  0  0  0
  2 19  1  0  0  0  0
  2  3  1  0  0  0  0
  2 24  1  0  0  0  0
  3  4  1  0  0  0  0
  3 25  1  0  0  0  0
  3 26  1  0  0  0  0
  4  5  1  0  0  0  0
  4 27  1  0  0  0  0
  4 28  1  0  0  0  0
  5  6  1  0  0  0  0
  5 29  1  0  0  0  0
  5 30  1  0  0  0  0
  6  7  1  0  0  0  0
  6 19  1  0  0  0  0
  6 31  1  0  0  0  0
  7  8  1  0  0  0  0
  7 32  1  0  0  0  0
  8  9  2  0  0  0  0
  8 10  1  0  0  0  0
 10 11  1  0  0  0  0
 10 33  1  0  0  0  0
 11 12  2  0  0  0  0
 11 13  1  0  0  0  0
 13 14  1  0  0  0  0
 13 34  1  0  0  0  0
 13 35  1  0  0  0  0
 14 18  1  0  0  0  0
 14 15  1  0  0  0  0
 15 16  2  0  0  0  0
 15 36  1  0  0  0  0
 16 17  1  0  0  0  0
 16 37  1  0  0  0  0
 17 18  2  0  0  0  0
 18 38  1  0  0  0  0
 19 20  1  0  0  0  0
 19 39  1  0  0  0  0
 20 40  1  0  0  0  0
 20 41  1  0  0  0  0
 20 42  1  0  0  0  0
M  END
> <s_m_source_file>
AV-unprocessed.smi

> <i_m_source_file_index>
527

> <i_lp_mmshare_version>
43012

> <i_f3d_flags>
0

> <s_epik_input>
W0NIM11bQ0BASF0xW0NIMl1bQ0gyXVtDSDJdW0NASF0oW0NASF0xW0NIM10pW05IXUMoPU8pW05IXUMoPU8pW0NIMl1uMltjSF1bY0hdbltjSF0y

> <s_epik_cmdline>
J2VwaWtfcHl0aG9uJywgJy1waCcsICc3LjAnLCAnLXRuJywgJzgnLCAnLW1hJywgJzIwMCcsICctbWV0YWxfYmluZGluZycsICctaW1hZScsICc8aW5maWxlLm1hZT4nLCAnLW9tYWUnLCAnPG91dGZpbGUubWFlPic=

> <r_lp_tautomer_probability>
1

> <r_epik_Ionization_Penalty>
0.172132

> <r_epik_Ionization_Penalty_Charging>
0.172105

> <r_epik_Ionization_Penalty_Neutral>
2.71747e-05

> <r_epik_State_Penalty>
0.161503

> <r_epik_Charging_Adjusted_Penalty>
0.333607

> <i_epik_Tot_Q>
0

> <i_epik_Tot_abs_Q>
0

> <r_epik_Metal_State_Penalty>
0.124763

> <b_epik_Metal_Only>
0

> <s_lp_Force_Field>
OPLS_2005

> <r_lp_Energy>
17.7357

> <b_lp_Chiralities_Consistent>
1

> <s_lp_Variant>
AV-unprocessed.smi:527-5

> <Gold.Version>
5.8.1

> <Gold.Id.Protein>
6NUR|6NUR_protein|mol2

> <Gold.PLP.Fitness>
46.3394

> <Gold.PLP.PLP>
-31.2315

> <Gold.PLP.part.hbond>
-2.9294

> <Gold.PLP.part.metal>
0.0000

> <Gold.PLP.part.buried>
-1.6134

> <Gold.PLP.part.nonpolar>
-28.2533

> <Gold.PLP.part.repulsive>
0.2998

> <Gold.PLP.ligand.clash>
0.0000

> <Gold.PLP.ligand.torsion>
0.1093

> <Gold.PLP.Chemscore.Hbond>
2.4052

> <Gold.PLP.Chemscore.CHOScore>
2.6995

> <Gold.PLP.Chemscore.Metal>
0.0000

> <Gold.Chemscore.Hbonds>
donor molecule, donor type, donor heavy atom, donor atom, acceptor molecule, acceptor atom, score
      L1  H     7    32       P1  7948  0.99
      L1  H    10    33       P1  7948  1.00
      P1  H 10785 10796       L1    17  0.42
      L1  C    16    37       P1 10186  0.91
      L1  C    16    37       P1 10952  0.79
      L1  C    18    38       P1 10747  0.99

> <Gold.PLP.Chemscore.Internal.Correction>
0.0124

> <Gold.Rescore>
     Score         DG    S(hbond)    S(metal)    S(lipo)     H(rot)  DE(clash)    DE(int)     intcor
     14.26     -17.17       2.40        0.00      67.71       1.66       0.29       2.62       ----

> <Gold.Chemscore.Fitness>
14.2592

> <Gold.Chemscore.DG>
-17.1693

> <Gold.Chemscore.ZeroCoef>
-5.4800

> <Gold.Chemscore.Hbond>
2.4024

> <Gold.Chemscore.Metal>
0.0000

> <Gold.Chemscore.Lipo>
67.7103

> <Gold.Chemscore.Internal_Hbond>
0.0000

> <Gold.Chemscore.DEClash>
0.2881

> <Gold.Chemscore.DEInternal>
2.6220

> <Gold.Chemscore.Rot>
1.6629

> <Gold.Chemscore.Internal.Correction>
   9.000000E+99

> <Gold.Chemscore.Hbonds>
donor molecule, donor type, donor heavy atom, donor atom, acceptor molecule, acceptor atom, score
      L1  H     7    32       P1  7948  0.94
      L1  H    10    33       P1  7948  0.94
      P1  H 10785 10796       L1    17  0.12

> <Gold.Chemscore.Hbond.Weighted>
-8.0241

> <Gold.Chemscore.Metal.Weighted>
-0.0000

> <Gold.Chemscore.Lipo.Weighted>
-7.9221

> <Gold.Chemscore.Internal_Hbond.Weighted>
0.0000

> <Gold.Chemscore.DEClash.Weighted>
0.2881

> <Gold.Chemscore.DEInternal.Weighted>
2.6220

> <Gold.Chemscore.Rot.Weighted>
4.2569

> <Gold.Chemscore.Internal.Correction.Weighted>
   9.000000E+99

> <Gold.Protein.RotatedTorsions>
[ 6907 6896 6895 6894 ] final   24.73 input  -60.11 | X-H torsion
[ 7974 7965 7964 7962 ] final  -32.60 input  175.53 | X-H torsion
[ 8008 7997 7996 7995 ] final   40.17 input   59.86 | X-H torsion
[ 10167 10162 10161 10158 ] final   41.58 input  -65.29 | X-H torsion
[ 10718 10713 10712 10709 ] final  -27.92 input   66.30 | X-H torsion
[ 10763 10752 10751 10750 ] final   58.98 input  -60.55 | X-H torsion
[ 11005 11000 10999 10996 ] final  142.58 input  -57.11 | X-H torsion

> <Gold.Protein.ActiveResidues>
 VAL166  LYS551  ARG553  GLY616  TRP617  ASP618  TYR619  PRO620  LYS621  CYS622 
 ASP623  PHE694  ASN695  SER759  ASP760  ASP761  ALA762  ILE779  LEU786  VAL792 
 PHE793  MET794  SER795  GLU796  ALA797  LYS798  CYS799  TRP800  GLU811  SER814 

> <Gold.Protein.RotatedAtoms>
  151.9619  135.0119  160.0547 H   0  0  0  0  0  0  0  0  0  0  0  0  # atno 6907 bound_to 6896
  152.1861  133.4736  159.4991 H   0  0  0  0  0  0  0  0  0  0  0  0  # atno 6908 bound_to 6896
  150.6926  134.1689  159.4247 H   0  0  0  0  0  0  0  0  0  0  0  0  # atno 6909 bound_to 6896
  146.0977  140.5812  142.8835 H   0  0  0  0  0  0  0  0  0  0  0  0  # atno 7974 bound_to 7965
  155.2487  140.3351  155.4284 H   0  0  0  0  0  0  0  0  0  0  0  0  # atno 8008 bound_to 7997
  156.2225  140.1815  156.7487 H   0  0  0  0  0  0  0  0  0  0  0  0  # atno 8009 bound_to 7997
  154.5847  140.0648  156.9139 H   0  0  0  0  0  0  0  0  0  0  0  0  # atno 8010 bound_to 7997
  140.3629  144.2205  150.6137 H   0  0  0  0  0  0  0  0  0  0  0  0  # atno 10167 bound_to 10162
  156.4319  130.4447  149.7112 H   0  0  0  0  0  0  0  0  0  0  0  0  # atno 10718 bound_to 10713
  152.9883  135.5588  154.5639 H   0  0  0  0  0  0  0  0  0  0  0  0  # atno 10763 bound_to 10752
  154.5053  135.2799  155.1390 H   0  0  0  0  0  0  0  0  0  0  0  0  # atno 10764 bound_to 10752
  154.2804  135.6346  153.5397 H   0  0  0  0  0  0  0  0  0  0  0  0  # atno 10765 bound_to 10752
  140.0488  134.9267  157.0978 H   0  0  0  0  0  0  0  0  0  0  0  0  # atno 11005 bound_to 11000
  144.7408  140.4937  143.6870 LP  0  0  0  0  0  0  0  0  0  0  0  0  # atno 17320 bound_to 7965
  145.5916  139.1496  143.3179 LP  0  0  0  0  0  0  0  0  0  0  0  0  # atno 17321 bound_to 7965
  140.5110  143.2291  151.8536 LP  0  0  0  0  0  0  0  0  0  0  0  0  # atno 17342 bound_to 10162
  139.4812  144.4950  151.9135 LP  0  0  0  0  0  0  0  0  0  0  0  0  # atno 17343 bound_to 10162
  156.4011  130.7675  151.2683 LP  0  0  0  0  0  0  0  0  0  0  0  0  # atno 17370 bound_to 10713
  157.7508  131.0239  150.3855 LP  0  0  0  0  0  0  0  0  0  0  0  0  # atno 17371 bound_to 10713
  140.3951  134.2143  155.7165 LP  0  0  0  0  0  0  0  0  0  0  0  0  # atno 17394 bound_to 11000
  141.1920  133.8183  157.0857 LP  0  0  0  0  0  0  0  0  0  0  0  0  # atno 17395 bound_to 11000

$$$$
