AV-unprocessed.smi:3168|AV-procd|sdf|12099|dock1
  -GOLD-   2272017533D 1   1.00000     0.00000
 Structure written by MMmdl.
 33 34  0  0  0  0  0  0  0  0  1 V2000
  150.4188  141.8912  155.9861 C   0  0  0  0  0  0  0  0  0  0  0  0
  150.6231  140.5751  156.7648 C   0  0  2  0  0  0  0  0  0  0  0  0
  151.7959  140.6393  157.7587 C   0  0  0  0  0  0  0  0  0  0  0  0
  152.8401  140.0235  157.5416 O   0  0  0  0  0  0  0  0  0  0  0  0
  151.6105  141.4048  158.8465 N   0  0  0  0  0  0  0  0  0  0  0  0
  152.5818  141.6120  159.9158 C   0  0  0  0  0  0  0  0  0  0  0  0
  152.9529  143.0963  160.0705 C   0  0  2  0  0  0  0  0  0  0  0  0
  151.9369  143.9437  160.8393 C   0  0  0  0  0  0  0  0  0  0  0  0
  152.2027  145.3215  160.2794 C   0  0  0  0  0  0  0  0  0  0  0  0
  152.4637  145.0073  158.8101 C   0  0  0  0  0  0  0  0  0  0  0  0
  153.0590  143.7123  158.7890 O   0  0  0  0  0  0  0  0  0  0  0  0
  150.7669  139.4300  155.8721 N   0  0  0  0  0  0  0  0  0  0  0  0
  150.8282  138.0933  156.2106 C   0  0  0  0  0  0  0  0  0  0  0  0
  150.9997  137.3842  155.0566 C   0  0  0  0  0  0  0  0  0  0  0  0
  151.0433  138.3863  154.0482 C   0  0  0  0  0  0  0  0  0  0  0  0
  150.9110  139.6080  154.5381 N   0  0  0  0  0  0  0  0  0  0  0  0
  150.2417  142.7268  156.6641 H   0  0  0  0  0  0  0  0  0  0  0  0
  149.5552  141.8208  155.3244 H   0  0  0  0  0  0  0  0  0  0  0  0
  151.2844  142.1423  155.3719 H   0  0  0  0  0  0  0  0  0  0  0  0
  149.7203  140.4095  157.3552 H   0  0  0  0  0  0  0  0  0  0  0  0
  150.7232  141.8761  158.9454 H   0  0  0  0  0  0  0  0  0  0  0  0
  152.1327  141.2532  160.8422 H   0  0  0  0  0  0  0  0  0  0  0  0
  153.4768  141.0075  159.7594 H   0  0  0  0  0  0  0  0  0  0  0  0
  153.9283  143.1862  160.5517 H   0  0  0  0  0  0  0  0  0  0  0  0
  150.9176  143.6370  160.5991 H   0  0  0  0  0  0  0  0  0  0  0  0
  152.0653  143.8879  161.9206 H   0  0  0  0  0  0  0  0  0  0  0  0
  151.3741  146.0144  160.4278 H   0  0  0  0  0  0  0  0  0  0  0  0
  153.0951  145.7482  160.7391 H   0  0  0  0  0  0  0  0  0  0  0  0
  151.5236  144.9636  158.2591 H   0  0  0  0  0  0  0  0  0  0  0  0
  153.1028  145.7499  158.3320 H   0  0  0  0  0  0  0  0  0  0  0  0
  150.7460  137.7613  157.2349 H   0  0  0  0  0  0  0  0  0  0  0  0
  151.0852  136.3132  154.9496 H   0  0  0  0  0  0  0  0  0  0  0  0
  151.1703  138.2633  152.9829 H   0  0  0  0  0  0  0  0  0  0  0  0
  1  2  1  0  0  0  0
  1 17  1  0  0  0  0
  1 18  1  0  0  0  0
  1 19  1  0  0  0  0
  2  3  1  0  0  0  0
  2 12  1  0  0  0  0
  2 20  1  0  0  0  0
  3  4  2  0  0  0  0
  3  5  1  0  0  0  0
  5  6  1  0  0  0  0
  5 21  1  0  0  0  0
  6  7  1  0  0  0  0
  6 22  1  0  0  0  0
  6 23  1  0  0  0  0
  7 11  1  0  0  0  0
  7  8  1  0  0  0  0
  7 24  1  0  0  0  0
  8  9  1  0  0  0  0
  8 25  1  0  0  0  0
  8 26  1  0  0  0  0
  9 10  1  0  0  0  0
  9 27  1  0  0  0  0
  9 28  1  0  0  0  0
 10 11  1  0  0  0  0
 10 29  1  0  0  0  0
 10 30  1  0  0  0  0
 12 16  1  0  0  0  0
 12 13  1  0  0  0  0
 13 14  2  0  0  0  0
 13 31  1  0  0  0  0
 14 15  1  0  0  0  0
 14 32  1  0  0  0  0
 15 16  2  0  0  0  0
 15 33  1  0  0  0  0
M  END
> <s_m_source_file>
AV-unprocessed.smi

> <i_m_source_file_index>
3168

> <i_lp_mmshare_version>
43012

> <i_f3d_flags>
0

> <s_epik_input>
bjFbY0hdW2NIXVtjSF1uMVtDQEhdKFtDSDNdKUMoPU8pW05IXVtDSDJdW0NAQEhdMltDSDJdW0NIMl1bQ0gyXU8y

> <s_epik_cmdline>
J2VwaWtfcHl0aG9uJywgJy1waCcsICc3LjAnLCAnLXRuJywgJzgnLCAnLW1hJywgJzIwMCcsICctbWV0YWxfYmluZGluZycsICctaW1hZScsICc8aW5maWxlLm1hZT4nLCAnLW9tYWUnLCAnPG91dGZpbGUubWFlPic=

> <r_lp_tautomer_probability>
1

> <r_epik_Ionization_Penalty>
4.14877e-05

> <r_epik_Ionization_Penalty_Charging>
0

> <r_epik_Ionization_Penalty_Neutral>
4.14877e-05

> <r_epik_State_Penalty>
-0

> <r_epik_Charging_Adjusted_Penalty>
0

> <i_epik_Tot_Q>
0

> <i_epik_Tot_abs_Q>
0

> <r_epik_Metal_State_Penalty>
-0

> <b_epik_Metal_Only>
0

> <s_lp_Force_Field>
OPLS_2005

> <r_lp_Energy>
21.6016

> <b_lp_Chiralities_Consistent>
1

> <s_lp_Variant>
AV-unprocessed.smi:3168-1

> <Gold.Version>
5.8.1

> <Gold.Id.Protein>
6NUR|6NUR_protein|mol2

> <Gold.PLP.Fitness>
43.9630

> <Gold.PLP.PLP>
-36.1039

> <Gold.PLP.part.hbond>
-2.0000

> <Gold.PLP.part.metal>
0.0000

> <Gold.PLP.part.buried>
-5.4461

> <Gold.PLP.part.nonpolar>
-28.7753

> <Gold.PLP.part.repulsive>
0.2428

> <Gold.PLP.ligand.clash>
0.0000

> <Gold.PLP.ligand.torsion>
0.6226

> <Gold.PLP.Chemscore.Hbond>
2.0000

> <Gold.PLP.Chemscore.CHOScore>
0.9976

> <Gold.PLP.Chemscore.Metal>
0.0000

> <Gold.Chemscore.Hbonds>
donor molecule, donor type, donor heavy atom, donor atom, acceptor molecule, acceptor atom, score
      P1  H  7989  7998       L1    16  1.00
      P1  H  7997  8009       L1     4  1.00
      L1  C    15    33       P1  7949  0.54

> <Gold.PLP.Chemscore.Internal.Correction>
0.1115

> <Gold.Rescore>
     Score         DG    S(hbond)    S(metal)    S(lipo)     H(rot)  DE(clash)    DE(int)     intcor
     17.06     -18.28       1.95        0.00      88.97       1.61       0.00       1.23       ----

> <Gold.Chemscore.Fitness>
17.0550

> <Gold.Chemscore.DG>
-18.2826

> <Gold.Chemscore.ZeroCoef>
-5.4800

> <Gold.Chemscore.Hbond>
1.9500

> <Gold.Chemscore.Metal>
0.0000

> <Gold.Chemscore.Lipo>
88.9712

> <Gold.Chemscore.Internal_Hbond>
0.0000

> <Gold.Chemscore.DEClash>
0.0000

> <Gold.Chemscore.DEInternal>
1.2275

> <Gold.Chemscore.Rot>
1.6094

> <Gold.Chemscore.Internal.Correction>
   9.000000E+99

> <Gold.Chemscore.Hbonds>
donor molecule, donor type, donor heavy atom, donor atom, acceptor molecule, acceptor atom, score
      P1  H  7989  7998       L1    16  0.85
      P1  H  7997  8009       L1     4  0.98

> <Gold.Chemscore.Hbond.Weighted>
-6.5130

> <Gold.Chemscore.Metal.Weighted>
-0.0000

> <Gold.Chemscore.Lipo.Weighted>
-10.4096

> <Gold.Chemscore.Internal_Hbond.Weighted>
0.0000

> <Gold.Chemscore.DEClash.Weighted>
0.0000

> <Gold.Chemscore.DEInternal.Weighted>
1.2275

> <Gold.Chemscore.Rot.Weighted>
4.1201

> <Gold.Chemscore.Internal.Correction.Weighted>
   9.000000E+99

> <Gold.Protein.RotatedTorsions>
[ 6907 6896 6895 6894 ] final   80.45 input  -60.11 | X-H torsion
[ 7974 7965 7964 7962 ] final -142.39 input  175.53 | X-H torsion
[ 8008 7997 7996 7995 ] final  175.63 input   59.86 | X-H torsion
[ 10167 10162 10161 10158 ] final  -96.75 input  -65.29 | X-H torsion
[ 10718 10713 10712 10709 ] final   48.62 input   66.30 | X-H torsion
[ 10763 10752 10751 10750 ] final   97.52 input  -60.55 | X-H torsion
[ 11005 11000 10999 10996 ] final  -40.40 input  -57.11 | X-H torsion

> <Gold.Protein.ActiveResidues>
 VAL166  LYS551  ARG553  GLY616  TRP617  ASP618  TYR619  PRO620  LYS621  CYS622 
 ASP623  PHE694  ASN695  SER759  ASP760  ASP761  ALA762  ILE779  LEU786  VAL792 
 PHE793  MET794  SER795  GLU796  ALA797  LYS798  CYS799  TRP800  GLU811  SER814 

> <Gold.Protein.RotatedAtoms>
  152.5235  134.3356  159.9198 H   0  0  0  0  0  0  0  0  0  0  0  0  # atno 6907 bound_to 6896
  151.3305  133.3996  159.2670 H   0  0  0  0  0  0  0  0  0  0  0  0  # atno 6908 bound_to 6896
  150.9884  134.9242  159.7943 H   0  0  0  0  0  0  0  0  0  0  0  0  # atno 6909 bound_to 6896
  144.8447  140.5964  143.5429 H   0  0  0  0  0  0  0  0  0  0  0  0  # atno 7974 bound_to 7965
  156.0850  140.1404  156.9664 H   0  0  0  0  0  0  0  0  0  0  0  0  # atno 8008 bound_to 7997
  154.4607  140.0944  156.6934 H   0  0  0  0  0  0  0  0  0  0  0  0  # atno 8009 bound_to 7997
  155.5013  140.3451  155.4374 H   0  0  0  0  0  0  0  0  0  0  0  0  # atno 8010 bound_to 7997
  140.2906  143.3224  152.0350 H   0  0  0  0  0  0  0  0  0  0  0  0  # atno 10167 bound_to 10162
  157.4704  130.8252  149.7982 H   0  0  0  0  0  0  0  0  0  0  0  0  # atno 10718 bound_to 10713
  153.2779  135.4180  155.1050 H   0  0  0  0  0  0  0  0  0  0  0  0  # atno 10763 bound_to 10752
  154.8479  135.3488  154.6153 H   0  0  0  0  0  0  0  0  0  0  0  0  # atno 10764 bound_to 10752
  153.6573  135.7050  153.5246 H   0  0  0  0  0  0  0  0  0  0  0  0  # atno 10765 bound_to 10752
  141.0172  133.6880  156.2316 H   0  0  0  0  0  0  0  0  0  0  0  0  # atno 11005 bound_to 11000
  145.4621  139.1512  143.3860 LP  0  0  0  0  0  0  0  0  0  0  0  0  # atno 17320 bound_to 7965
  146.2734  140.4751  142.8805 LP  0  0  0  0  0  0  0  0  0  0  0  0  # atno 17321 bound_to 7965
  139.4939  144.6528  151.6639 LP  0  0  0  0  0  0  0  0  0  0  0  0  # atno 17342 bound_to 10162
  140.5736  144.0067  150.6229 LP  0  0  0  0  0  0  0  0  0  0  0  0  # atno 17343 bound_to 10162
  156.0071  130.3850  150.2394 LP  0  0  0  0  0  0  0  0  0  0  0  0  # atno 17370 bound_to 10713
  157.0576  131.0080  151.3233 LP  0  0  0  0  0  0  0  0  0  0  0  0  # atno 17371 bound_to 10713
  140.6635  134.4943  157.5584 LP  0  0  0  0  0  0  0  0  0  0  0  0  # atno 17394 bound_to 11000
  139.9124  134.8317  156.1482 LP  0  0  0  0  0  0  0  0  0  0  0  0  # atno 17395 bound_to 11000

$$$$
