AV-unprocessed.smi:2032|AV-procd|sdf|8241|dock6
  -GOLD-   2272010513D 1   1.00000     0.00000
 Structure written by MMmdl.
 43 44  0  0  0  0  0  0  0  0  2 V2000
  152.5341  138.6050  154.7075 C   0  0  0  0  0  0  0  0  0  0  0  0
  151.2042  137.9085  154.3978 C   0  0  2  0  0  0  0  0  0  0  0  0
  150.0741  138.9147  154.1149 C   0  0  0  0  0  0  0  0  0  0  0  0
  148.7803  138.2191  153.8733 N   0  3  2  0  0  0  0  0  0  0  0  0
  147.6756  139.1654  153.5064 C   0  0  2  0  0  0  0  0  0  0  0  0
  147.3938  140.2313  154.5940 C   0  0  0  0  0  0  0  0  0  0  0  0
  146.3742  138.3831  153.1762 C   0  0  0  0  0  0  0  0  0  0  0  0
  146.6199  137.0791  152.5664 N   0  0  0  0  0  0  0  0  0  0  0  0
  145.6674  136.2595  152.0983 C   0  0  0  0  0  0  0  0  0  0  0  0
  144.4664  136.5296  152.1334 O   0  0  0  0  0  0  0  0  0  0  0  0
  146.1975  135.1314  151.5951 N   0  0  0  0  0  0  0  0  0  0  0  0
  145.5169  133.9998  151.0740 C   0  0  0  0  0  0  0  0  0  0  0  0
  146.0970  133.0422  150.3412 N   0  0  0  0  0  0  0  0  0  0  0  0
  145.1862  132.0571  149.9508 C   0  0  0  0  0  0  0  0  0  0  0  0
  143.9080  132.2827  150.3983 C   0  0  0  0  0  0  0  0  0  0  0  0
  143.7961  133.7513  151.3310 S   0  0  0  0  0  0  0  0  0  0  0  0
  148.4885  137.3126  155.0181 C   0  0  0  0  0  0  0  0  0  0  0  0
  149.6675  136.3593  155.2924 C   0  0  2  0  0  0  0  0  0  0  0  0
  149.4205  135.4778  156.5218 C   0  0  0  0  0  0  0  0  0  0  0  0
  150.8456  137.1196  155.5238 O   0  0  0  0  0  0  0  0  0  0  0  0
  152.8609  139.2188  153.8676 H   0  0  0  0  0  0  0  0  0  0  0  0
  153.3184  137.8750  154.9098 H   0  0  0  0  0  0  0  0  0  0  0  0
  152.4482  139.2517  155.5813 H   0  0  0  0  0  0  0  0  0  0  0  0
  151.3470  137.2604  153.5309 H   0  0  0  0  0  0  0  0  0  0  0  0
  149.9650  139.5984  154.9585 H   0  0  0  0  0  0  0  0  0  0  0  0
  150.3625  139.5188  153.2572 H   0  0  0  0  0  0  0  0  0  0  0  0
  147.9989  139.7061  152.6158 H   0  0  0  0  0  0  0  0  0  0  0  0
  146.5645  140.8822  154.3187 H   0  0  0  0  0  0  0  0  0  0  0  0
  148.2446  140.8952  154.7468 H   0  0  0  0  0  0  0  0  0  0  0  0
  147.1429  139.7699  155.5498 H   0  0  0  0  0  0  0  0  0  0  0  0
  145.7570  138.2186  154.0582 H   0  0  0  0  0  0  0  0  0  0  0  0
  145.7625  138.9637  152.4850 H   0  0  0  0  0  0  0  0  0  0  0  0
  147.5823  136.7819  152.4948 H   0  0  0  0  0  0  0  0  0  0  0  0
  147.2047  135.0661  151.5985 H   0  0  0  0  0  0  0  0  0  0  0  0
  145.5340  131.2276  149.3529 H   0  0  0  0  0  0  0  0  0  0  0  0
  143.0292  131.6767  150.2350 H   0  0  0  0  0  0  0  0  0  0  0  0
  148.2661  137.9075  155.9058 H   0  0  0  0  0  0  0  0  0  0  0  0
  147.6153  136.6955  154.8093 H   0  0  0  0  0  0  0  0  0  0  0  0
  149.8228  135.7101  154.4287 H   0  0  0  0  0  0  0  0  0  0  0  0
  148.5285  134.8646  156.3928 H   0  0  0  0  0  0  0  0  0  0  0  0
  149.2850  136.0810  157.4200 H   0  0  0  0  0  0  0  0  0  0  0  0
  150.2618  134.8066  156.6955 H   0  0  0  0  0  0  0  0  0  0  0  0
  148.9144  137.6172  153.0734 H   0  0  0  0  0  0  0  0  0  0  0  0
  1  2  1  0  0  0  0
  1 21  1  0  0  0  0
  1 22  1  0  0  0  0
  1 23  1  0  0  0  0
  2 20  1  0  0  0  0
  2  3  1  0  0  0  0
  2 24  1  0  0  0  0
  3  4  1  0  0  0  0
  3 25  1  0  0  0  0
  3 26  1  0  0  0  0
  4  5  1  0  0  0  0
  4 17  1  0  0  0  0
  4 43  1  0  0  0  0
  5  6  1  0  0  0  0
  5  7  1  0  0  0  0
  5 27  1  0  0  0  0
  6 28  1  0  0  0  0
  6 29  1  0  0  0  0
  6 30  1  0  0  0  0
  7  8  1  0  0  0  0
  7 31  1  0  0  0  0
  7 32  1  0  0  0  0
  8  9  1  0  0  0  0
  8 33  1  0  0  0  0
  9 10  2  0  0  0  0
  9 11  1  0  0  0  0
 11 12  1  0  0  0  0
 11 34  1  0  0  0  0
 12 16  1  0  0  0  0
 12 13  2  0  0  0  0
 13 14  1  0  0  0  0
 14 15  2  0  0  0  0
 14 35  1  0  0  0  0
 15 16  1  0  0  0  0
 15 36  1  0  0  0  0
 17 18  1  0  0  0  0
 17 37  1  0  0  0  0
 17 38  1  0  0  0  0
 18 19  1  0  0  0  0
 18 20  1  0  0  0  0
 18 39  1  0  0  0  0
 19 40  1  0  0  0  0
 19 41  1  0  0  0  0
 19 42  1  0  0  0  0
M  CHG  1   4   1
M  END
> <s_m_source_file>
AV-unprocessed.smi

> <i_m_source_file_index>
2032

> <i_lp_mmshare_version>
43012

> <i_f3d_flags>
0

> <s_epik_input>
W0NIM11bQ0BASF0xW0NIMl1OKFtDSDJdW0NASF0oTzEpW0NIM10pW0NASF0oW0NIM10pW0NIMl1bTkhdQyg9TylbTkhdYzJuW2NIXVtjSF1zMg==

> <s_epik_cmdline>
J2VwaWtfcHl0aG9uJywgJy1waCcsICc3LjAnLCAnLXRuJywgJzgnLCAnLW1hJywgJzIwMCcsICctbWV0YWxfYmluZGluZycsICctaW1hZScsICc8aW5maWxlLm1hZT4nLCAnLW9tYWUnLCAnPG91dGZpbGUubWFlPic=

> <r_lp_tautomer_probability>
0.999

> <r_epik_Ionization_Penalty>
0.695838

> <r_epik_Ionization_Penalty_Charging>
0.695697

> <r_epik_Ionization_Penalty_Neutral>
0.000141198

> <r_epik_State_Penalty>
0.717972

> <r_epik_Charging_Adjusted_Penalty>
1.41367

> <i_epik_Tot_Q>
1

> <i_epik_Tot_abs_Q>
1

> <r_epik_Metal_State_Penalty>
0.756405

> <b_epik_Metal_Only>
0

> <s_lp_Force_Field>
OPLS_2005

> <r_lp_Energy>
16.7575

> <b_lp_Chiralities_Consistent>
1

> <s_lp_Variant>
AV-unprocessed.smi:2032-11

> <Gold.Version>
5.8.1

> <Gold.Id.Protein>
6NUR|6NUR_protein|mol2

> <Gold.PLP.Fitness>
46.0715

> <Gold.PLP.PLP>
-33.2446

> <Gold.PLP.part.hbond>
-3.0000

> <Gold.PLP.part.metal>
0.0000

> <Gold.PLP.part.buried>
-6.0567

> <Gold.PLP.part.nonpolar>
-25.5605

> <Gold.PLP.part.repulsive>
0.8169

> <Gold.PLP.ligand.clash>
0.0000

> <Gold.PLP.ligand.torsion>
0.3457

> <Gold.PLP.Chemscore.Hbond>
3.8294

> <Gold.PLP.Chemscore.CHOScore>
0.6596

> <Gold.PLP.Chemscore.Metal>
0.0000

> <Gold.Chemscore.Hbonds>
donor molecule, donor type, donor heavy atom, donor atom, acceptor molecule, acceptor atom, score
      L1  H     4    43       P1  7948  2.00
      L1  H     8    33       P1  7948  1.00
      L1  H    11    34       P1  7948  0.79
      L1  C    15    36       P1 10952  0.67

> <Gold.PLP.Chemscore.Internal.Correction>
0.0512

> <Gold.Rescore>
     Score         DG    S(hbond)    S(metal)    S(lipo)     H(rot)  DE(clash)    DE(int)     intcor
     17.90     -19.51       2.75        0.00      76.64       1.61       0.13       1.48       ----

> <Gold.Chemscore.Fitness>
17.8965

> <Gold.Chemscore.DG>
-19.5087

> <Gold.Chemscore.ZeroCoef>
-5.4800

> <Gold.Chemscore.Hbond>
2.7502

> <Gold.Chemscore.Metal>
0.0000

> <Gold.Chemscore.Lipo>
76.6425

> <Gold.Chemscore.Internal_Hbond>
0.0000

> <Gold.Chemscore.DEClash>
0.1330

> <Gold.Chemscore.DEInternal>
1.4792

> <Gold.Chemscore.Rot>
1.6110

> <Gold.Chemscore.Internal.Correction>
   9.000000E+99

> <Gold.Chemscore.Hbonds>
donor molecule, donor type, donor heavy atom, donor atom, acceptor molecule, acceptor atom, score
      L1  H     4    43       P1  7948  1.00
      L1  H     8    33       P1  7948  0.98
      L1  H    11    34       P1  7948  0.65

> <Gold.Chemscore.Hbond.Weighted>
-9.1857

> <Gold.Chemscore.Metal.Weighted>
-0.0000

> <Gold.Chemscore.Lipo.Weighted>
-8.9672

> <Gold.Chemscore.Internal_Hbond.Weighted>
0.0000

> <Gold.Chemscore.DEClash.Weighted>
0.1330

> <Gold.Chemscore.DEInternal.Weighted>
1.4792

> <Gold.Chemscore.Rot.Weighted>
4.1242

> <Gold.Chemscore.Internal.Correction.Weighted>
   9.000000E+99

> <Gold.Protein.RotatedTorsions>
[ 6907 6896 6895 6894 ] final  152.09 input  -60.11 | X-H torsion
[ 7974 7965 7964 7962 ] final  146.12 input  175.53 | X-H torsion
[ 8008 7997 7996 7995 ] final    7.71 input   59.86 | X-H torsion
[ 10167 10162 10161 10158 ] final -142.26 input  -65.29 | X-H torsion
[ 10718 10713 10712 10709 ] final -133.66 input   66.30 | X-H torsion
[ 10763 10752 10751 10750 ] final   96.05 input  -60.55 | X-H torsion
[ 11005 11000 10999 10996 ] final   91.50 input  -57.11 | X-H torsion

> <Gold.Protein.ActiveResidues>
 VAL166  LYS551  ARG553  GLY616  TRP617  ASP618  TYR619  PRO620  LYS621  CYS622 
 ASP623  PHE694  ASN695  SER759  ASP760  ASP761  ALA762  ILE779  LEU786  VAL792 
 PHE793  MET794  SER795  GLU796  ALA797  LYS798  CYS799  TRP800  GLU811  SER814 

> <Gold.Protein.RotatedAtoms>
  152.0916  133.4203  159.4546 H   0  0  0  0  0  0  0  0  0  0  0  0  # atno 6907 bound_to 6896
  150.6862  134.2865  159.4658 H   0  0  0  0  0  0  0  0  0  0  0  0  # atno 6908 bound_to 6896
  152.0717  134.9529  160.0625 H   0  0  0  0  0  0  0  0  0  0  0  0  # atno 6909 bound_to 6896
  144.8697  139.5866  143.5892 H   0  0  0  0  0  0  0  0  0  0  0  0  # atno 7974 bound_to 7965
  154.7574  140.2778  155.6242 H   0  0  0  0  0  0  0  0  0  0  0  0  # atno 8008 bound_to 7997
  156.2908  140.2666  156.2270 H   0  0  0  0  0  0  0  0  0  0  0  0  # atno 8009 bound_to 7997
  155.0060  140.0372  157.2369 H   0  0  0  0  0  0  0  0  0  0  0  0  # atno 8010 bound_to 7997
  139.8105  143.7709  152.2663 H   0  0  0  0  0  0  0  0  0  0  0  0  # atno 10167 bound_to 10162
  156.2472  130.7131  151.1016 H   0  0  0  0  0  0  0  0  0  0  0  0  # atno 10718 bound_to 10713
  153.2604  135.4232  155.0888 H   0  0  0  0  0  0  0  0  0  0  0  0  # atno 10763 bound_to 10752
  154.8417  135.3447  154.6386 H   0  0  0  0  0  0  0  0  0  0  0  0  # atno 10764 bound_to 10752
  153.6806  135.7039  153.5176 H   0  0  0  0  0  0  0  0  0  0  0  0  # atno 10765 bound_to 10752
  139.8838  134.8678  156.3438 H   0  0  0  0  0  0  0  0  0  0  0  0  # atno 11005 bound_to 11000
  146.2921  139.7170  142.9153 LP  0  0  0  0  0  0  0  0  0  0  0  0  # atno 17320 bound_to 7965
  145.4154  141.0401  143.2994 LP  0  0  0  0  0  0  0  0  0  0  0  0  # atno 17321 bound_to 7965
  139.7856  144.7429  151.0026 LP  0  0  0  0  0  0  0  0  0  0  0  0  # atno 17342 bound_to 10162
  140.7818  143.4495  151.0433 LP  0  0  0  0  0  0  0  0  0  0  0  0  # atno 17343 bound_to 10162
  157.7200  131.0687  150.6175 LP  0  0  0  0  0  0  0  0  0  0  0  0  # atno 17370 bound_to 10713
  156.6252  130.4417  149.5807 LP  0  0  0  0  0  0  0  0  0  0  0  0  # atno 17371 bound_to 10713
  140.9641  133.7370  156.0442 LP  0  0  0  0  0  0  0  0  0  0  0  0  # atno 17394 bound_to 11000
  140.7953  134.3570  157.5454 LP  0  0  0  0  0  0  0  0  0  0  0  0  # atno 17395 bound_to 11000

$$$$
