AV-unprocessed.smi:625|AV-procd|sdf|3103|dock7
  -GOLD-   22720 0 23D 1   1.00000     0.00000
 Structure written by MMmdl.
 49 51  0  0  0  0  0  0  0  0  1 V2000
  147.0351  134.8493  161.3109 C   0  0  0  0  0  0  0  0  0  0  0  0
  147.8364  135.1702  160.1399 N   0  0  0  0  0  0  0  0  0  0  0  0
  148.2000  136.4136  159.7801 C   0  0  0  0  0  0  0  0  0  0  0  0
  147.8606  137.4000  160.4348 O   0  0  0  0  0  0  0  0  0  0  0  0
  149.0266  136.4730  158.5711 C   0  0  0  0  0  0  0  0  0  0  0  0
  149.4016  135.2415  157.9038 C   0  0  0  0  0  0  0  0  0  0  0  0
  150.1287  135.2657  156.7693 C   0  0  0  0  0  0  0  0  0  0  0  0
  150.5700  136.5249  156.1619 C   0  0  0  0  0  0  0  0  0  0  0  0
  151.2145  136.5527  155.1136 O   0  0  0  0  0  0  0  0  0  0  0  0
  150.2148  137.6621  156.8326 N   0  0  0  0  0  0  0  0  0  0  0  0
  150.5460  138.9985  156.3139 C   0  0  0  0  0  0  0  0  0  0  0  0
  151.7737  139.5700  157.0313 C   0  0  0  0  0  0  0  0  0  0  0  0
  152.8998  139.1523  156.7617 O   0  0  0  0  0  0  0  0  0  0  0  0
  151.5349  140.5436  157.9238 N   0  0  0  0  0  0  0  0  0  0  0  0
  152.5473  141.3437  158.6096 C   0  0  2  0  0  0  0  0  0  0  0  0
  153.2442  140.4560  159.6532 C   0  0  0  0  0  0  0  0  0  0  0  0
  151.8898  142.5964  159.2448 C   0  0  1  0  0  0  0  0  0  0  0  0
  152.9044  143.5440  159.9302 C   0  0  0  0  0  0  0  0  0  0  0  0
  152.6114  144.9089  159.2824 C   0  0  2  0  0  0  0  0  0  0  0  0
  151.2422  145.4249  159.7613 C   0  0  0  0  0  0  0  0  0  0  0  0
  150.2574  144.5038  159.0190 C   0  0  0  0  0  0  0  0  0  0  0  0
  151.1946  143.5588  158.2437 C   0  0  1  0  0  0  0  0  0  0  0  0
  152.3175  144.5080  157.8433 C   0  0  0  0  0  0  0  0  0  0  0  0
  149.4550  137.6286  158.0191 C   0  0  0  0  0  0  0  0  0  0  0  0
  146.8765  133.7726  161.3675 H   0  0  0  0  0  0  0  0  0  0  0  0
  146.0606  135.3363  161.2616 H   0  0  0  0  0  0  0  0  0  0  0  0
  147.5391  135.1672  162.2245 H   0  0  0  0  0  0  0  0  0  0  0  0
  148.1445  134.3978  159.5673 H   0  0  0  0  0  0  0  0  0  0  0  0
  149.1005  134.2863  158.3094 H   0  0  0  0  0  0  0  0  0  0  0  0
  150.3926  134.3334  156.2922 H   0  0  0  0  0  0  0  0  0  0  0  0
  150.7315  138.9343  155.2401 H   0  0  0  0  0  0  0  0  0  0  0  0
  149.7195  139.7025  156.4205 H   0  0  0  0  0  0  0  0  0  0  0  0
  150.5726  140.8032  158.0861 H   0  0  0  0  0  0  0  0  0  0  0  0
  153.3065  141.6713  157.8979 H   0  0  0  0  0  0  0  0  0  0  0  0
  154.0423  140.9909  160.1671 H   0  0  0  0  0  0  0  0  0  0  0  0
  153.6930  139.5800  159.1834 H   0  0  0  0  0  0  0  0  0  0  0  0
  152.5413  140.1036  160.4091 H   0  0  0  0  0  0  0  0  0  0  0  0
  151.1562  142.2538  159.9764 H   0  0  0  0  0  0  0  0  0  0  0  0
  152.7858  143.5644  161.0142 H   0  0  0  0  0  0  0  0  0  0  0  0
  153.9331  143.2508  159.7173 H   0  0  0  0  0  0  0  0  0  0  0  0
  153.4185  145.6317  159.4030 H   0  0  0  0  0  0  0  0  0  0  0  0
  151.1340  145.3643  160.8448 H   0  0  0  0  0  0  0  0  0  0  0  0
  151.0912  146.4642  159.4661 H   0  0  0  0  0  0  0  0  0  0  0  0
  149.5898  143.9698  159.6958 H   0  0  0  0  0  0  0  0  0  0  0  0
  149.6394  145.0823  158.3316 H   0  0  0  0  0  0  0  0  0  0  0  0
  150.6927  143.0744  157.4079 H   0  0  0  0  0  0  0  0  0  0  0  0
  151.9806  145.3400  157.2224 H   0  0  0  0  0  0  0  0  0  0  0  0
  153.1535  144.0102  157.3497 H   0  0  0  0  0  0  0  0  0  0  0  0
  149.2368  138.6091  158.4182 H   0  0  0  0  0  0  0  0  0  0  0  0
  1  2  1  0  0  0  0
  1 25  1  0  0  0  0
  1 26  1  0  0  0  0
  1 27  1  0  0  0  0
  2  3  1  0  0  0  0
  2 28  1  0  0  0  0
  3  4  2  0  0  0  0
  3  5  1  0  0  0  0
  5 24  2  0  0  0  0
  5  6  1  0  0  0  0
  6  7  2  0  0  0  0
  6 29  1  0  0  0  0
  7  8  1  0  0  0  0
  7 30  1  0  0  0  0
  8  9  2  0  0  0  0
  8 10  1  0  0  0  0
 10 11  1  0  0  0  0
 10 24  1  0  0  0  0
 11 12  1  0  0  0  0
 11 31  1  0  0  0  0
 11 32  1  0  0  0  0
 12 13  2  0  0  0  0
 12 14  1  0  0  0  0
 14 15  1  0  0  0  0
 14 33  1  0  0  0  0
 15 16  1  0  0  0  0
 15 17  1  0  0  0  0
 15 34  1  0  0  0  0
 16 35  1  0  0  0  0
 16 36  1  0  0  0  0
 16 37  1  0  0  0  0
 17 22  1  0  0  0  0
 17 18  1  0  0  0  0
 17 38  1  0  0  0  0
 18 19  1  0  0  0  0
 18 39  1  0  0  0  0
 18 40  1  0  0  0  0
 19 23  1  0  0  0  0
 19 20  1  0  0  0  0
 19 41  1  0  0  0  0
 20 21  1  0  0  0  0
 20 42  1  0  0  0  0
 20 43  1  0  0  0  0
 21 22  1  0  0  0  0
 21 44  1  0  0  0  0
 21 45  1  0  0  0  0
 22 23  1  0  0  0  0
 22 46  1  0  0  0  0
 23 47  1  0  0  0  0
 23 48  1  0  0  0  0
 24 49  1  0  0  0  0
M  END
> <s_m_source_file>
AV-unprocessed.smi

> <i_m_source_file_index>
625

> <i_lp_mmshare_version>
43012

> <i_f3d_flags>
0

> <s_epik_input>
W0NIM11bTkhdQyg9TyljMVtjSF1bY0hdYyg9TyluKFtjSF0xKVtDSDJdQyg9TylbTkhdW0NASF0oW0NIM10pW0NASF0oW0NIMl1bQ0BIXTIzKVtDQEhdKFtDSDJdMylbQ0gyXVtDSDJdMg==

> <s_epik_cmdline>
J2VwaWtfcHl0aG9uJywgJy1waCcsICc3LjAnLCAnLXRuJywgJzgnLCAnLW1hJywgJzIwMCcsICctbWV0YWxfYmluZGluZycsICctaW1hZScsICc8aW5maWxlLm1hZT4nLCAnLW9tYWUnLCAnPG91dGZpbGUubWFlPic=

> <r_lp_tautomer_probability>
1

> <r_epik_Ionization_Penalty>
3.7129e-07

> <r_epik_Ionization_Penalty_Charging>
5.04114e-08

> <r_epik_Ionization_Penalty_Neutral>
3.20879e-07

> <r_epik_State_Penalty>
-0

> <r_epik_Charging_Adjusted_Penalty>
5.04114e-08

> <i_epik_Tot_Q>
0

> <i_epik_Tot_abs_Q>
0

> <r_epik_Metal_State_Penalty>
-0

> <b_epik_Metal_Only>
0

> <s_lp_Force_Field>
OPLS_2005

> <r_lp_Energy>
63.7952

> <b_lp_Chiralities_Consistent>
1

> <s_lp_Variant>
AV-unprocessed.smi:625-3

> <Gold.Version>
5.8.1

> <Gold.Id.Protein>
6NUR|6NUR_protein|mol2

> <Gold.PLP.Fitness>
49.6842

> <Gold.PLP.PLP>
-41.0311

> <Gold.PLP.part.hbond>
-4.0000

> <Gold.PLP.part.metal>
0.0000

> <Gold.PLP.part.buried>
-5.2483

> <Gold.PLP.part.nonpolar>
-32.0065

> <Gold.PLP.part.repulsive>
0.2975

> <Gold.PLP.ligand.clash>
0.7111

> <Gold.PLP.ligand.torsion>
0.6539

> <Gold.PLP.Chemscore.Hbond>
3.5360

> <Gold.PLP.Chemscore.CHOScore>
0.0000

> <Gold.PLP.Chemscore.Metal>
0.0000

> <Gold.Chemscore.Hbonds>
donor molecule, donor type, donor heavy atom, donor atom, acceptor molecule, acceptor atom, score
      P1  H  6931  6943       L1     4  0.60
      P1  H  6934  6947       L1     4  0.78
      P1  H  7997  8010       L1    13  1.00
      P1  H 10752 10765       L1     9  0.98

> <Gold.PLP.Chemscore.Internal.Correction>
0.0640

> <Gold.Rescore>
     Score         DG    S(hbond)    S(metal)    S(lipo)     H(rot)  DE(clash)    DE(int)     intcor
     25.67     -26.86       3.52        0.00     118.75       1.67       0.45       0.74       ----

> <Gold.Chemscore.Fitness>
25.6709

> <Gold.Chemscore.DG>
-26.8617

> <Gold.Chemscore.ZeroCoef>
-5.4800

> <Gold.Chemscore.Hbond>
3.5226

> <Gold.Chemscore.Metal>
0.0000

> <Gold.Chemscore.Lipo>
118.7479

> <Gold.Chemscore.Internal_Hbond>
0.0000

> <Gold.Chemscore.DEClash>
0.4495

> <Gold.Chemscore.DEInternal>
0.7413

> <Gold.Chemscore.Rot>
1.6709

> <Gold.Chemscore.Internal.Correction>
   9.000000E+99

> <Gold.Chemscore.Hbonds>
donor molecule, donor type, donor heavy atom, donor atom, acceptor molecule, acceptor atom, score
      P1  H  6931  6943       L1     4  0.57
      P1  H  6934  6947       L1     4  0.78
      P1  H  7997  8010       L1    13  0.99
      P1  H 10752 10765       L1     9  0.91

> <Gold.Chemscore.Hbond.Weighted>
-11.7656

> <Gold.Chemscore.Metal.Weighted>
-0.0000

> <Gold.Chemscore.Lipo.Weighted>
-13.8935

> <Gold.Chemscore.Internal_Hbond.Weighted>
0.0000

> <Gold.Chemscore.DEClash.Weighted>
0.4495

> <Gold.Chemscore.DEInternal.Weighted>
0.7413

> <Gold.Chemscore.Rot.Weighted>
4.2774

> <Gold.Chemscore.Internal.Correction.Weighted>
   9.000000E+99

> <Gold.Protein.RotatedTorsions>
[ 6907 6896 6895 6894 ] final    2.28 input  -60.11 | X-H torsion
[ 7974 7965 7964 7962 ] final  163.47 input  175.53 | X-H torsion
[ 8008 7997 7996 7995 ] final   49.32 input   59.86 | X-H torsion
[ 10167 10162 10161 10158 ] final   53.59 input  -65.29 | X-H torsion
[ 10718 10713 10712 10709 ] final -169.32 input   66.30 | X-H torsion
[ 10763 10752 10751 10750 ] final  175.57 input  -60.55 | X-H torsion
[ 11005 11000 10999 10996 ] final  -29.35 input  -57.11 | X-H torsion

> <Gold.Protein.ActiveResidues>
 VAL166  LYS551  ARG553  GLY616  TRP617  ASP618  TYR619  PRO620  LYS621  CYS622 
 ASP623  PHE694  ASN695  SER759  ASP760  ASP761  ALA762  ILE779  LEU786  VAL792 
 PHE793  MET794  SER795  GLU796  ALA797  LYS798  CYS799  TRP800  GLU811  SER814 

> <Gold.Protein.RotatedAtoms>
  151.6063  135.1043  160.0071 H   0  0  0  0  0  0  0  0  0  0  0  0  # atno 6907 bound_to 6896
  152.4231  133.7146  159.6509 H   0  0  0  0  0  0  0  0  0  0  0  0  # atno 6908 bound_to 6896
  150.8119  133.8333  159.3200 H   0  0  0  0  0  0  0  0  0  0  0  0  # atno 6909 bound_to 6896
  144.7588  139.8187  143.6340 H   0  0  0  0  0  0  0  0  0  0  0  0  # atno 7974 bound_to 7965
  155.4002  140.3437  155.4256 H   0  0  0  0  0  0  0  0  0  0  0  0  # atno 8008 bound_to 7997
  156.1508  140.1570  156.8805 H   0  0  0  0  0  0  0  0  0  0  0  0  # atno 8009 bound_to 7997
  154.5050  140.0804  156.7858 H   0  0  0  0  0  0  0  0  0  0  0  0  # atno 8010 bound_to 7997
  140.2391  144.3603  150.6386 H   0  0  0  0  0  0  0  0  0  0  0  0  # atno 10167 bound_to 10162
  156.7098  130.9229  151.3088 H   0  0  0  0  0  0  0  0  0  0  0  0  # atno 10718 bound_to 10713
  154.4694  135.2770  155.1653 H   0  0  0  0  0  0  0  0  0  0  0  0  # atno 10763 bound_to 10752
  154.3408  135.6170  153.5599 H   0  0  0  0  0  0  0  0  0  0  0  0  # atno 10764 bound_to 10752
  152.9862  135.5788  154.5073 H   0  0  0  0  0  0  0  0  0  0  0  0  # atno 10765 bound_to 10752
  140.9288  133.7351  156.0907 H   0  0  0  0  0  0  0  0  0  0  0  0  # atno 11005 bound_to 11000
  146.1629  139.4750  142.9976 LP  0  0  0  0  0  0  0  0  0  0  0  0  # atno 17320 bound_to 7965
  145.6687  141.0222  143.1669 LP  0  0  0  0  0  0  0  0  0  0  0  0  # atno 17321 bound_to 7965
  140.6127  143.2170  151.6854 LP  0  0  0  0  0  0  0  0  0  0  0  0  # atno 17342 bound_to 10162
  139.5083  144.3615  152.0557 LP  0  0  0  0  0  0  0  0  0  0  0  0  # atno 17343 bound_to 10162
  157.6940  130.9263  150.0593 LP  0  0  0  0  0  0  0  0  0  0  0  0  # atno 17370 bound_to 10713
  156.1669  130.3645  149.9220 LP  0  0  0  0  0  0  0  0  0  0  0  0  # atno 17371 bound_to 10713
  140.7890  134.3639  157.5469 LP  0  0  0  0  0  0  0  0  0  0  0  0  # atno 17394 bound_to 11000
  139.8791  134.9128  156.3069 LP  0  0  0  0  0  0  0  0  0  0  0  0  # atno 17395 bound_to 11000

$$$$
