AV-unprocessed.smi:407|AV-procd|sdf|2502|dock5
  -GOLD-   2262022453D 1   1.00000     0.00000
 Structure written by MMmdl.
 45 47  0  0  0  0  0  0  0  0  1 V2000
  143.7755  144.9014  154.1959 C   0  0  0  0  0  0  0  0  0  0  0  0
  144.0766  144.0316  155.4154 C   0  0  0  0  0  0  0  0  0  0  0  0
  143.3658  144.1464  156.4133 O   0  0  0  0  0  0  0  0  0  0  0  0
  145.2257  143.0861  155.3287 C   0  0  0  0  0  0  0  0  0  0  0  0
  145.5919  142.2557  156.4131 C   0  0  0  0  0  0  0  0  0  0  0  0
  146.6819  141.3716  156.2983 C   0  0  0  0  0  0  0  0  0  0  0  0
  147.4283  141.2920  155.1063 C   0  0  0  0  0  0  0  0  0  0  0  0
  148.4752  140.3959  155.0811 O   0  0  0  0  0  0  0  0  0  0  0  0
  149.0889  140.0412  156.3136 C   0  0  0  0  0  0  0  0  0  0  0  0
  150.6079  140.2440  156.1873 C   0  0  1  0  0  0  0  0  0  0  0  0
  150.9679  139.8997  154.8637 O   0  0  0  0  0  0  0  0  0  0  0  0
  151.0143  141.7146  156.4172 C   0  0  0  0  0  0  0  0  0  0  0  0
  151.7244  141.8870  157.6839 N   0  0  0  0  0  0  0  0  0  0  0  0
  152.5963  141.0145  158.2434 C   0  0  0  0  0  0  0  0  0  0  0  0
  152.9273  139.9253  157.7749 O   0  0  0  0  0  0  0  0  0  0  0  0
  153.0458  141.5541  159.4003 N   0  0  0  0  0  0  0  0  0  0  0  0
  154.0076  140.9672  160.3255 C   0  0  0  0  0  0  0  0  0  0  0  0
  152.4575  142.8124  159.5796 C   0  0  0  0  0  0  0  0  0  0  0  0
  152.6084  143.7634  160.6033 C   0  0  0  0  0  0  0  0  0  0  0  0
  151.8639  144.9606  160.4870 C   0  0  0  0  0  0  0  0  0  0  0  0
  151.0069  145.1788  159.3770 C   0  0  0  0  0  0  0  0  0  0  0  0
  150.8751  144.2042  158.3601 C   0  0  0  0  0  0  0  0  0  0  0  0
  151.6245  143.0229  158.5007 C   0  0  0  0  0  0  0  0  0  0  0  0
  147.0648  142.1255  154.0204 C   0  0  0  0  0  0  0  0  0  0  0  0
  145.9757  143.0111  154.1336 C   0  0  0  0  0  0  0  0  0  0  0  0
  144.6305  145.5343  153.9576 H   0  0  0  0  0  0  0  0  0  0  0  0
  142.9182  145.5464  154.3898 H   0  0  0  0  0  0  0  0  0  0  0  0
  143.5453  144.2804  153.3300 H   0  0  0  0  0  0  0  0  0  0  0  0
  145.0495  142.2782  157.3464 H   0  0  0  0  0  0  0  0  0  0  0  0
  146.9468  140.7439  157.1366 H   0  0  0  0  0  0  0  0  0  0  0  0
  148.6872  140.6202  157.1475 H   0  0  0  0  0  0  0  0  0  0  0  0
  148.8782  138.9880  156.5066 H   0  0  0  0  0  0  0  0  0  0  0  0
  151.1218  139.5936  156.8966 H   0  0  0  0  0  0  0  0  0  0  0  0
  150.2105  139.5366  154.4310 H   0  0  0  0  0  0  0  0  0  0  0  0
  151.6015  142.0994  155.5824 H   0  0  0  0  0  0  0  0  0  0  0  0
  150.1220  142.3415  156.4566 H   0  0  0  0  0  0  0  0  0  0  0  0
  153.6556  141.0634  161.3533 H   0  0  0  0  0  0  0  0  0  0  0  0
  154.9668  141.4789  160.2428 H   0  0  0  0  0  0  0  0  0  0  0  0
  154.1694  139.9067  160.1269 H   0  0  0  0  0  0  0  0  0  0  0  0
  153.2649  143.5906  161.4433 H   0  0  0  0  0  0  0  0  0  0  0  0
  151.9498  145.7185  161.2518 H   0  0  0  0  0  0  0  0  0  0  0  0
  150.4493  146.1010  159.3067 H   0  0  0  0  0  0  0  0  0  0  0  0
  150.2270  144.3677  157.5120 H   0  0  0  0  0  0  0  0  0  0  0  0
  147.6062  142.1062  153.0870 H   0  0  0  0  0  0  0  0  0  0  0  0
  145.7231  143.6326  153.2866 H   0  0  0  0  0  0  0  0  0  0  0  0
  1  2  1  0  0  0  0
  1 26  1  0  0  0  0
  1 27  1  0  0  0  0
  1 28  1  0  0  0  0
  2  3  2  0  0  0  0
  2  4  1  0  0  0  0
  4 25  1  0  0  0  0
  4  5  2  0  0  0  0
  5  6  1  0  0  0  0
  5 29  1  0  0  0  0
  6  7  2  0  0  0  0
  6 30  1  0  0  0  0
  7  8  1  0  0  0  0
  7 24  1  0  0  0  0
  8  9  1  0  0  0  0
  9 10  1  0  0  0  0
  9 31  1  0  0  0  0
  9 32  1  0  0  0  0
 10 11  1  0  0  0  0
 10 12  1  0  0  0  0
 10 33  1  0  0  0  0
 11 34  1  0  0  0  0
 12 13  1  0  0  0  0
 12 35  1  0  0  0  0
 12 36  1  0  0  0  0
 13 23  1  0  0  0  0
 13 14  1  0  0  0  0
 14 15  2  0  0  0  0
 14 16  1  0  0  0  0
 16 17  1  0  0  0  0
 16 18  1  0  0  0  0
 17 37  1  0  0  0  0
 17 38  1  0  0  0  0
 17 39  1  0  0  0  0
 18 23  2  0  0  0  0
 18 19  1  0  0  0  0
 19 20  2  0  0  0  0
 19 40  1  0  0  0  0
 20 21  1  0  0  0  0
 20 41  1  0  0  0  0
 21 22  2  0  0  0  0
 21 42  1  0  0  0  0
 22 23  1  0  0  0  0
 22 43  1  0  0  0  0
 24 25  2  0  0  0  0
 24 44  1  0  0  0  0
 25 45  1  0  0  0  0
M  END
> <s_m_source_file>
AV-unprocessed.smi

> <i_m_source_file_index>
407

> <i_lp_mmshare_version>
43012

> <i_f3d_flags>
0

> <s_epik_input>
W0NIM11DKD1PKWMxW2NIXVtjSF1jKFtjSF1bY0hdMSlPW0NIMl1bQ0BIXShbT0hdKVtDSDJdbihjKD1PKW4yW0NIM10pYyhjMjMpW2NIXVtjSF1bY0hdW2NIXTM=

> <s_epik_cmdline>
J2VwaWtfcHl0aG9uJywgJy1waCcsICc3LjAnLCAnLXRuJywgJzgnLCAnLW1hJywgJzIwMCcsICctbWV0YWxfYmluZGluZycsICctaW1hZScsICc8aW5maWxlLm1hZT4nLCAnLW9tYWUnLCAnPG91dGZpbGUubWFlPic=

> <r_lp_tautomer_probability>
1

> <r_epik_Ionization_Penalty>
2.40123e-06

> <r_epik_Ionization_Penalty_Charging>
1.9356e-09

> <r_epik_Ionization_Penalty_Neutral>
2.3993e-06

> <r_epik_State_Penalty>
-0

> <r_epik_Charging_Adjusted_Penalty>
1.9356e-09

> <i_epik_Tot_Q>
0

> <i_epik_Tot_abs_Q>
0

> <r_epik_Metal_State_Penalty>
-0

> <b_epik_Metal_Only>
0

> <s_lp_Force_Field>
OPLS_2005

> <r_lp_Energy>
53.7359

> <b_lp_Chiralities_Consistent>
1

> <s_lp_Variant>
AV-unprocessed.smi:407-2

> <Gold.Version>
5.8.1

> <Gold.Id.Protein>
6NUR|6NUR_protein|mol2

> <Gold.PLP.Fitness>
57.6897

> <Gold.PLP.PLP>
-55.3922

> <Gold.PLP.part.hbond>
-2.0000

> <Gold.PLP.part.metal>
0.0000

> <Gold.PLP.part.buried>
-9.8642

> <Gold.PLP.part.nonpolar>
-43.8667

> <Gold.PLP.part.repulsive>
0.1295

> <Gold.PLP.ligand.clash>
0.0000

> <Gold.PLP.ligand.torsion>
1.9919

> <Gold.PLP.Chemscore.Hbond>
2.0000

> <Gold.PLP.Chemscore.CHOScore>
0.0000

> <Gold.PLP.Chemscore.Metal>
0.0000

> <Gold.Chemscore.Hbonds>
donor molecule, donor type, donor heavy atom, donor atom, acceptor molecule, acceptor atom, score
      P1  H  7989  7998       L1    11  0.95
      P1  H  7997  8010       L1    15  1.00

> <Gold.PLP.Chemscore.Internal.Correction>
0.2813

> <Gold.Rescore>
     Score         DG    S(hbond)    S(metal)    S(lipo)     H(rot)  DE(clash)    DE(int)     intcor
     16.82     -19.87       1.72        0.00     124.08       2.30       0.04       3.01       ----

> <Gold.Chemscore.Fitness>
16.8190

> <Gold.Chemscore.DG>
-19.8660

> <Gold.Chemscore.ZeroCoef>
-5.4800

> <Gold.Chemscore.Hbond>
1.7222

> <Gold.Chemscore.Metal>
0.0000

> <Gold.Chemscore.Lipo>
124.0823

> <Gold.Chemscore.Internal_Hbond>
0.0000

> <Gold.Chemscore.DEClash>
0.0356

> <Gold.Chemscore.DEInternal>
3.0114

> <Gold.Chemscore.Rot>
2.2984

> <Gold.Chemscore.Internal.Correction>
   9.000000E+99

> <Gold.Chemscore.Hbonds>
donor molecule, donor type, donor heavy atom, donor atom, acceptor molecule, acceptor atom, score
      P1  H  7989  7998       L1    11  0.22
      P1  H  7997  8010       L1    15  0.78

> <Gold.Chemscore.Hbond.Weighted>
-5.7522

> <Gold.Chemscore.Metal.Weighted>
-0.0000

> <Gold.Chemscore.Lipo.Weighted>
-14.5176

> <Gold.Chemscore.Internal_Hbond.Weighted>
0.0000

> <Gold.Chemscore.DEClash.Weighted>
0.0356

> <Gold.Chemscore.DEInternal.Weighted>
3.0114

> <Gold.Chemscore.Rot.Weighted>
5.8839

> <Gold.Chemscore.Internal.Correction.Weighted>
   9.000000E+99

> <Gold.Protein.RotatedTorsions>
[ 6907 6896 6895 6894 ] final  -33.41 input  -60.11 | X-H torsion
[ 7974 7965 7964 7962 ] final  146.18 input  175.53 | X-H torsion
[ 8008 7997 7996 7995 ] final   49.25 input   59.86 | X-H torsion
[ 10167 10162 10161 10158 ] final   39.93 input  -65.29 | X-H torsion
[ 10718 10713 10712 10709 ] final   95.08 input   66.30 | X-H torsion
[ 10763 10752 10751 10750 ] final  -79.34 input  -60.55 | X-H torsion
[ 11005 11000 10999 10996 ] final   78.09 input  -57.11 | X-H torsion

> <Gold.Protein.ActiveResidues>
 VAL166  LYS551  ARG553  GLY616  TRP617  ASP618  TYR619  PRO620  LYS621  CYS622 
 ASP623  PHE694  ASN695  SER759  ASP760  ASP761  ALA762  ILE779  LEU786  VAL792 
 PHE793  MET794  SER795  GLU796  ALA797  LYS798  CYS799  TRP800  GLU811  SER814 

> <Gold.Protein.RotatedAtoms>
  151.0660  134.9768  159.8284 H   0  0  0  0  0  0  0  0  0  0  0  0  # atno 6907 bound_to 6896
  152.5402  134.2358  159.8853 H   0  0  0  0  0  0  0  0  0  0  0  0  # atno 6908 bound_to 6896
  151.2380  133.4371  159.2640 H   0  0  0  0  0  0  0  0  0  0  0  0  # atno 6909 bound_to 6896
  144.8692  139.5874  143.5895 H   0  0  0  0  0  0  0  0  0  0  0  0  # atno 7974 bound_to 7965
  155.3991  140.3437  155.4256 H   0  0  0  0  0  0  0  0  0  0  0  0  # atno 8008 bound_to 7997
  156.1514  140.1572  156.8796 H   0  0  0  0  0  0  0  0  0  0  0  0  # atno 8009 bound_to 7997
  154.5055  140.0803  156.7867 H   0  0  0  0  0  0  0  0  0  0  0  0  # atno 8010 bound_to 7997
  140.3791  144.2003  150.6131 H   0  0  0  0  0  0  0  0  0  0  0  0  # atno 10167 bound_to 10162
  157.6942  131.0534  150.4284 H   0  0  0  0  0  0  0  0  0  0  0  0  # atno 10718 bound_to 10713
  154.5374  135.5699  153.6810 H   0  0  0  0  0  0  0  0  0  0  0  0  # atno 10763 bound_to 10752
  152.9954  135.6219  154.2548 H   0  0  0  0  0  0  0  0  0  0  0  0  # atno 10764 bound_to 10752
  154.2477  135.2860  155.2808 H   0  0  0  0  0  0  0  0  0  0  0  0  # atno 10765 bound_to 10752
  139.9227  134.7735  156.1605 H   0  0  0  0  0  0  0  0  0  0  0  0  # atno 11005 bound_to 11000
  146.2918  139.7160  142.9155 LP  0  0  0  0  0  0  0  0  0  0  0  0  # atno 17320 bound_to 7965
  145.4163  141.0402  143.2989 LP  0  0  0  0  0  0  0  0  0  0  0  0  # atno 17321 bound_to 7965
  140.4955  143.2334  151.8755 LP  0  0  0  0  0  0  0  0  0  0  0  0  # atno 17342 bound_to 10162
  139.4797  144.5118  151.8922 LP  0  0  0  0  0  0  0  0  0  0  0  0  # atno 17343 bound_to 10162
  156.4653  130.4041  149.6551 LP  0  0  0  0  0  0  0  0  0  0  0  0  # atno 17370 bound_to 10713
  156.3651  130.7501  151.2478 LP  0  0  0  0  0  0  0  0  0  0  0  0  # atno 17371 bound_to 10713
  141.0761  133.6775  156.2238 LP  0  0  0  0  0  0  0  0  0  0  0  0  # atno 17394 bound_to 11000
  140.6427  134.5149  157.5571 LP  0  0  0  0  0  0  0  0  0  0  0  0  # atno 17395 bound_to 11000

$$$$
