AV-unprocessed.smi:261|AV-procd|sdf|1983|dock4
  -GOLD-   2262021163D 1   1.00000     0.00000
 Structure written by MMmdl.
 51 54  0  0  0  0  0  0  0  0  1 V2000
  151.7455  143.2397  159.2118 C   0  0  0  0  0  0  0  0  0  0  0  0
  150.5334  143.2871  158.4775 O   0  0  0  0  0  0  0  0  0  0  0  0
  150.1812  142.0437  157.8898 C   0  0  1  0  0  0  0  0  0  0  0  0
  148.7838  142.1073  157.2861 C   0  0  0  0  0  0  0  0  0  0  0  0
  148.7930  140.9571  156.2697 C   0  0  1  0  0  0  0  0  0  0  0  0
  147.7828  141.1823  155.1359 C   0  0  0  0  0  0  0  0  0  0  0  0
  147.8524  142.3495  154.4922 N   0  0  0  0  0  0  0  0  0  0  0  0
  146.9634  140.3166  154.8326 O   0  0  0  0  0  0  0  0  0  0  0  0
  150.1732  140.9190  155.7779 N   0  0  0  0  0  0  0  0  0  0  0  0
  150.6192  139.6944  155.4206 C   0  0  0  0  0  0  0  0  0  0  0  0
  151.8709  139.6139  154.9077 N   0  0  0  0  0  0  0  0  0  0  0  0
  152.3602  138.4304  154.5251 C   0  0  0  0  0  0  0  0  0  0  0  0
  151.7740  137.2313  154.5650 N   0  0  0  0  0  0  0  0  0  0  0  0
  150.5129  137.3123  155.0788 C   0  0  0  0  0  0  0  0  0  0  0  0
  149.8626  138.4942  155.5308 C   0  0  0  0  0  0  0  0  0  0  0  0
  148.5855  138.1901  155.9873 N   0  0  0  0  0  0  0  0  0  0  0  0
  148.4857  136.9005  155.8134 C   0  0  0  0  0  0  0  0  0  0  0  0
  149.5969  136.2938  155.2731 N   0  0  0  0  0  0  0  0  0  0  0  0
  149.7507  134.8812  154.9704 C   0  0  0  0  0  0  0  0  0  0  0  0
  149.2828  133.9734  156.1279 C   0  0  2  0  0  0  0  0  0  0  0  0
  150.0473  134.2952  157.2738 O   0  0  0  0  0  0  0  0  0  0  0  0
  149.4787  132.4718  155.8362 C   0  0  2  0  0  0  0  0  0  0  0  0
  150.9380  132.0157  155.7619 C   0  0  0  0  0  0  0  0  0  0  0  0
  150.8826  130.7703  154.8926 C   0  0  0  0  0  0  0  0  0  0  0  0
  149.5318  130.8797  154.1817 C   0  0  0  0  0  0  0  0  0  0  0  0
  149.0385  132.1684  154.5203 O   0  0  0  0  0  0  0  0  0  0  0  0
  151.0408  141.6740  156.6772 C   0  0  0  0  0  0  0  0  0  0  0  0
  150.2078  141.2420  158.6307 H   0  0  0  0  0  0  0  0  0  0  0  0
  148.5528  140.0261  156.7881 H   0  0  0  0  0  0  0  0  0  0  0  0
  151.9390  144.2154  159.6570 H   0  0  0  0  0  0  0  0  0  0  0  0
  152.5927  142.9912  158.5719 H   0  0  0  0  0  0  0  0  0  0  0  0
  151.6894  142.5078  160.0186 H   0  0  0  0  0  0  0  0  0  0  0  0
  148.0011  141.9989  158.0378 H   0  0  0  0  0  0  0  0  0  0  0  0
  148.6401  143.0681  156.7877 H   0  0  0  0  0  0  0  0  0  0  0  0
  147.2113  142.5496  153.7384 H   0  0  0  0  0  0  0  0  0  0  0  0
  148.5480  143.0291  154.7636 H   0  0  0  0  0  0  0  0  0  0  0  0
  153.3647  138.4467  154.1287 H   0  0  0  0  0  0  0  0  0  0  0  0
  147.5927  136.3518  156.0760 H   0  0  0  0  0  0  0  0  0  0  0  0
  149.1799  134.6756  154.0648 H   0  0  0  0  0  0  0  0  0  0  0  0
  150.7959  134.6824  154.7292 H   0  0  0  0  0  0  0  0  0  0  0  0
  148.2310  134.1720  156.3389 H   0  0  0  0  0  0  0  0  0  0  0  0
  150.7415  134.8823  157.0162 H   0  0  0  0  0  0  0  0  0  0  0  0
  148.9386  131.8567  156.5593 H   0  0  0  0  0  0  0  0  0  0  0  0
  151.5443  132.7761  155.2672 H   0  0  0  0  0  0  0  0  0  0  0  0
  151.3720  131.8244  156.7440 H   0  0  0  0  0  0  0  0  0  0  0  0
  151.7148  130.7456  154.1882 H   0  0  0  0  0  0  0  0  0  0  0  0
  150.9238  129.8630  155.4964 H   0  0  0  0  0  0  0  0  0  0  0  0
  149.6168  130.7659  153.1009 H   0  0  0  0  0  0  0  0  0  0  0  0
  148.8405  130.1208  154.5512 H   0  0  0  0  0  0  0  0  0  0  0  0
  151.3540  142.5741  156.1470 H   0  0  0  0  0  0  0  0  0  0  0  0
  151.9462  141.1400  156.9708 H   0  0  0  0  0  0  0  0  0  0  0  0
  1  2  1  0  0  0  0
  1 30  1  0  0  0  0
  1 31  1  0  0  0  0
  1 32  1  0  0  0  0
  2  3  1  0  0  0  0
  3 28  1  0  0  0  0
  3 27  1  0  0  0  0
  3  4  1  0  0  0  0
  4  5  1  0  0  0  0
  4 33  1  0  0  0  0
  4 34  1  0  0  0  0
  5 29  1  0  0  0  0
  5  6  1  0  0  0  0
  5  9  1  0  0  0  0
  6  7  1  0  0  0  0
  6  8  2  0  0  0  0
  7 35  1  0  0  0  0
  7 36  1  0  0  0  0
  9 10  1  0  0  0  0
  9 27  1  0  0  0  0
 10 15  1  0  0  0  0
 10 11  2  0  0  0  0
 11 12  1  0  0  0  0
 12 13  2  0  0  0  0
 12 37  1  0  0  0  0
 13 14  1  0  0  0  0
 14 18  1  0  0  0  0
 14 15  2  0  0  0  0
 15 16  1  0  0  0  0
 16 17  2  0  0  0  0
 17 18  1  0  0  0  0
 17 38  1  0  0  0  0
 18 19  1  0  0  0  0
 19 20  1  0  0  0  0
 19 39  1  0  0  0  0
 19 40  1  0  0  0  0
 20 21  1  0  0  0  0
 20 22  1  0  0  0  0
 20 41  1  0  0  0  0
 21 42  1  0  0  0  0
 22 26  1  0  0  0  0
 22 23  1  0  0  0  0
 22 43  1  0  0  0  0
 23 24  1  0  0  0  0
 23 44  1  0  0  0  0
 23 45  1  0  0  0  0
 24 25  1  0  0  0  0
 24 46  1  0  0  0  0
 24 47  1  0  0  0  0
 25 26  1  0  0  0  0
 25 48  1  0  0  0  0
 25 49  1  0  0  0  0
 27 50  1  0  0  0  0
 27 51  1  0  0  0  0
M  END
> <s_m_source_file>
AV-unprocessed.smi

> <i_m_source_file_index>
261

> <i_lp_mmshare_version>
43012

> <i_f3d_flags>
0

> <s_epik_input>
W0NIM11PW0NASF0xW0NIMl1bQ0BASF0oQyg9TylbTkgyXSlOKFtDSDJdMSljKG5bY0hdbjIpYyhjMjMpbltjSF1uM1tDSDJdW0NASF0oW09IXSlbQ0BASF00W0NIMl1bQ0gyXVtDSDJdTzQ=

> <s_epik_cmdline>
J2VwaWtfcHl0aG9uJywgJy1waCcsICc3LjAnLCAnLXRuJywgJzgnLCAnLW1hJywgJzIwMCcsICctbWV0YWxfYmluZGluZycsICctaW1hZScsICc8aW5maWxlLm1hZT4nLCAnLW9tYWUnLCAnPG91dGZpbGUubWFlPic=

> <r_lp_tautomer_probability>
1

> <r_epik_Ionization_Penalty>
0.000713824

> <r_epik_Ionization_Penalty_Charging>
0

> <r_epik_Ionization_Penalty_Neutral>
0.000713824

> <r_epik_State_Penalty>
0.000402132

> <r_epik_Charging_Adjusted_Penalty>
0.000402132

> <i_epik_Tot_Q>
0

> <i_epik_Tot_abs_Q>
0

> <r_epik_Metal_State_Penalty>
-0

> <b_epik_Metal_Only>
0

> <s_lp_Force_Field>
OPLS_2005

> <r_lp_Energy>
45.6621

> <b_lp_Chiralities_Consistent>
1

> <s_lp_Variant>
AV-unprocessed.smi:261-1

> <Gold.Version>
5.8.1

> <Gold.Id.Protein>
6NUR|6NUR_protein|mol2

> <Gold.PLP.Fitness>
46.1811

> <Gold.PLP.PLP>
-35.7607

> <Gold.PLP.part.hbond>
-4.0000

> <Gold.PLP.part.metal>
0.0000

> <Gold.PLP.part.buried>
-8.1854

> <Gold.PLP.part.nonpolar>
-25.6222

> <Gold.PLP.part.repulsive>
0.6617

> <Gold.PLP.ligand.clash>
0.0000

> <Gold.PLP.ligand.torsion>
0.5133

> <Gold.PLP.Chemscore.Hbond>
3.7529

> <Gold.PLP.Chemscore.CHOScore>
0.0000

> <Gold.PLP.Chemscore.Metal>
0.0000

> <Gold.Chemscore.Hbonds>
donor molecule, donor type, donor heavy atom, donor atom, acceptor molecule, acceptor atom, score
      L1  H     7    36       P1  8028  0.91
      P1  H  6896  6907       L1    21  0.51
      P1  H  7989  7998       L1    11  0.89
      P1  H 10752 10764       L1    13  1.00

> <Gold.PLP.Chemscore.Internal.Correction>
0.1883

> <Gold.Rescore>
     Score         DG    S(hbond)    S(metal)    S(lipo)     H(rot)  DE(clash)    DE(int)     intcor
     10.75     -12.70       2.90        0.00      57.25       3.57       0.06       1.90       ----

> <Gold.Chemscore.Fitness>
10.7481

> <Gold.Chemscore.DG>
-12.7037

> <Gold.Chemscore.ZeroCoef>
-5.4800

> <Gold.Chemscore.Hbond>
2.8967

> <Gold.Chemscore.Metal>
0.0000

> <Gold.Chemscore.Lipo>
57.2489

> <Gold.Chemscore.Internal_Hbond>
0.0000

> <Gold.Chemscore.DEClash>
0.0556

> <Gold.Chemscore.DEInternal>
1.9000

> <Gold.Chemscore.Rot>
3.5740

> <Gold.Chemscore.Internal.Correction>
   9.000000E+99

> <Gold.Chemscore.Hbonds>
donor molecule, donor type, donor heavy atom, donor atom, acceptor molecule, acceptor atom, score
      L1  H     7    36       P1  8028  0.88
      P1  H  6896  6907       L1    21  0.09
      P1  H  7989  7998       L1    11  0.15
      P1  H 10752 10764       L1    13  0.89

> <Gold.Chemscore.Hbond.Weighted>
-9.6751

> <Gold.Chemscore.Metal.Weighted>
-0.0000

> <Gold.Chemscore.Lipo.Weighted>
-6.6981

> <Gold.Chemscore.Internal_Hbond.Weighted>
0.0000

> <Gold.Chemscore.DEClash.Weighted>
0.0556

> <Gold.Chemscore.DEInternal.Weighted>
1.9000

> <Gold.Chemscore.Rot.Weighted>
9.1495

> <Gold.Chemscore.Internal.Correction.Weighted>
   9.000000E+99

> <Gold.Protein.RotatedTorsions>
[ 6907 6896 6895 6894 ] final -110.34 input  -60.11 | X-H torsion
[ 7974 7965 7964 7962 ] final    7.51 input  175.53 | X-H torsion
[ 8008 7997 7996 7995 ] final -153.78 input   59.86 | X-H torsion
[ 10167 10162 10161 10158 ] final -126.86 input  -65.29 | X-H torsion
[ 10718 10713 10712 10709 ] final -137.80 input   66.30 | X-H torsion
[ 10763 10752 10751 10750 ] final  -67.98 input  -60.55 | X-H torsion
[ 11005 11000 10999 10996 ] final   31.82 input  -57.11 | X-H torsion

> <Gold.Protein.ActiveResidues>
 VAL166  LYS551  ARG553  GLY616  TRP617  ASP618  TYR619  PRO620  LYS621  CYS622 
 ASP623  PHE694  ASN695  SER759  ASP760  ASP761  ALA762  ILE779  LEU786  VAL792 
 PHE793  MET794  SER795  GLU796  ALA797  LYS798  CYS799  TRP800  GLU811  SER814 

> <Gold.Protein.RotatedAtoms>
  150.7619  133.9396  159.3451 H   0  0  0  0  0  0  0  0  0  0  0  0  # atno 6907 bound_to 6896
  151.7302  135.0874  160.0308 H   0  0  0  0  0  0  0  0  0  0  0  0  # atno 6908 bound_to 6896
  152.3594  133.6240  159.6039 H   0  0  0  0  0  0  0  0  0  0  0  0  # atno 6909 bound_to 6896
  146.2426  140.0072  142.8410 H   0  0  0  0  0  0  0  0  0  0  0  0  # atno 7974 bound_to 7965
  155.6761  140.0739  157.2502 H   0  0  0  0  0  0  0  0  0  0  0  0  # atno 8008 bound_to 7997
  154.4114  140.1690  156.1983 H   0  0  0  0  0  0  0  0  0  0  0  0  # atno 8009 bound_to 7997
  155.9575  140.3372  155.6464 H   0  0  0  0  0  0  0  0  0  0  0  0  # atno 8010 bound_to 7997
  139.9669  143.5888  152.2426 H   0  0  0  0  0  0  0  0  0  0  0  0  # atno 10167 bound_to 10162
  156.2922  130.7381  151.1410 H   0  0  0  0  0  0  0  0  0  0  0  0  # atno 10718 bound_to 10713
  154.3824  135.6071  153.5798 H   0  0  0  0  0  0  0  0  0  0  0  0  # atno 10763 bound_to 10752
  152.9788  135.5864  154.4394 H   0  0  0  0  0  0  0  0  0  0  0  0  # atno 10764 bound_to 10752
  154.4166  135.2845  155.1981 H   0  0  0  0  0  0  0  0  0  0  0  0  # atno 10765 bound_to 10752
  140.2799  134.2985  155.7803 H   0  0  0  0  0  0  0  0  0  0  0  0  # atno 11005 bound_to 11000
  145.1361  140.9545  143.4516 LP  0  0  0  0  0  0  0  0  0  0  0  0  # atno 17320 bound_to 7965
  145.0341  139.3316  143.6010 LP  0  0  0  0  0  0  0  0  0  0  0  0  # atno 17321 bound_to 7965
  139.6511  144.7660  151.2147 LP  0  0  0  0  0  0  0  0  0  0  0  0  # atno 17342 bound_to 10162
  140.7535  143.6160  150.8559 LP  0  0  0  0  0  0  0  0  0  0  0  0  # atno 17343 bound_to 10162
  157.7345  131.0581  150.5519 LP  0  0  0  0  0  0  0  0  0  0  0  0  # atno 17370 bound_to 10713
  156.5636  130.4262  149.6051 LP  0  0  0  0  0  0  0  0  0  0  0  0  # atno 17371 bound_to 10713
  141.2164  133.7519  156.9464 LP  0  0  0  0  0  0  0  0  0  0  0  0  # atno 17394 bound_to 11000
  140.1293  134.9366  157.2314 LP  0  0  0  0  0  0  0  0  0  0  0  0  # atno 17395 bound_to 11000

$$$$
