AV-unprocessed.smi:1278|AV-procd|sdf|5349|dock6
  -GOLD-   22720 4483D 1   1.00000     0.00000
 Structure written by MMmdl.
 39 40  0  0  0  0  0  0  0  0  2 V2000
  148.2519  133.0786  152.5867 C   0  0  0  0  0  0  0  0  0  0  0  0
  146.7367  133.0592  152.8553 C   0  0  2  0  0  0  0  0  0  0  0  0
  145.9159  132.6445  151.6202 C   0  0  0  0  0  0  0  0  0  0  0  0
  145.8644  133.7734  150.5812 C   0  0  0  0  0  0  0  0  0  0  0  0
  145.3729  135.0846  151.2149 C   0  0  0  0  0  0  0  0  0  0  0  0
  146.2153  135.4680  152.3773 N   0  3  1  0  0  0  0  0  0  0  0  0
  145.8590  136.8064  152.9121 C   0  0  0  0  0  0  0  0  0  0  0  0
  146.1896  137.9407  151.9229 C   0  0  0  0  0  0  0  0  0  0  0  0
  147.4078  138.6461  152.3044 N   0  0  0  0  0  0  0  0  0  0  0  0
  147.6713  139.1097  153.5348 C   0  0  0  0  0  0  0  0  0  0  0  0
  146.9012  138.9747  154.4862 O   0  0  0  0  0  0  0  0  0  0  0  0
  148.8670  139.7230  153.5808 N   0  0  0  0  0  0  0  0  0  0  0  0
  149.4948  140.3393  154.6952 C   0  0  0  0  0  0  0  0  0  0  0  0
  150.8164  140.3524  154.9049 N   0  0  0  0  0  0  0  0  0  0  0  0
  151.1539  141.0281  156.0807 C   0  0  0  0  0  0  0  0  0  0  0  0
  150.0692  141.5282  156.7570 C   0  0  0  0  0  0  0  0  0  0  0  0
  148.5716  141.1674  155.9405 S   0  0  0  0  0  0  0  0  0  0  0  0
  146.2280  134.4033  153.4173 C   0  0  0  0  0  0  0  0  0  0  0  0
  148.5255  133.8271  151.8432 H   0  0  0  0  0  0  0  0  0  0  0  0
  148.5979  132.1102  152.2246 H   0  0  0  0  0  0  0  0  0  0  0  0
  148.8063  133.3030  153.4982 H   0  0  0  0  0  0  0  0  0  0  0  0
  146.5717  132.3013  153.6224 H   0  0  0  0  0  0  0  0  0  0  0  0
  146.3238  131.7366  151.1741 H   0  0  0  0  0  0  0  0  0  0  0  0
  144.8987  132.4009  151.9307 H   0  0  0  0  0  0  0  0  0  0  0  0
  146.8515  133.9233  150.1428 H   0  0  0  0  0  0  0  0  0  0  0  0
  145.2066  133.4898  149.7593 H   0  0  0  0  0  0  0  0  0  0  0  0
  145.3987  135.8730  150.4616 H   0  0  0  0  0  0  0  0  0  0  0  0
  144.3344  134.9842  151.5342 H   0  0  0  0  0  0  0  0  0  0  0  0
  144.7875  136.8315  153.1152 H   0  0  0  0  0  0  0  0  0  0  0  0
  146.3563  136.9678  153.8697 H   0  0  0  0  0  0  0  0  0  0  0  0
  146.3459  137.5490  150.9186 H   0  0  0  0  0  0  0  0  0  0  0  0
  145.3577  138.6443  151.8558 H   0  0  0  0  0  0  0  0  0  0  0  0
  148.0936  138.8005  151.5796 H   0  0  0  0  0  0  0  0  0  0  0  0
  149.3902  139.7556  152.7183 H   0  0  0  0  0  0  0  0  0  0  0  0
  152.1939  141.1058  156.3617 H   0  0  0  0  0  0  0  0  0  0  0  0
  150.0607  142.0844  157.6826 H   0  0  0  0  0  0  0  0  0  0  0  0
  145.2174  134.2789  153.8099 H   0  0  0  0  0  0  0  0  0  0  0  0
  146.8516  134.6964  154.2611 H   0  0  0  0  0  0  0  0  0  0  0  0
  147.1583  135.5464  152.0237 H   0  0  0  0  0  0  0  0  0  0  0  0
  1  2  1  0  0  0  0
  1 19  1  0  0  0  0
  1 20  1  0  0  0  0
  1 21  1  0  0  0  0
  2 18  1  0  0  0  0
  2  3  1  0  0  0  0
  2 22  1  0  0  0  0
  3  4  1  0  0  0  0
  3 23  1  0  0  0  0
  3 24  1  0  0  0  0
  4  5  1  0  0  0  0
  4 25  1  0  0  0  0
  4 26  1  0  0  0  0
  5  6  1  0  0  0  0
  5 27  1  0  0  0  0
  5 28  1  0  0  0  0
  6  7  1  0  0  0  0
  6 18  1  0  0  0  0
  6 39  1  0  0  0  0
  7  8  1  0  0  0  0
  7 29  1  0  0  0  0
  7 30  1  0  0  0  0
  8  9  1  0  0  0  0
  8 31  1  0  0  0  0
  8 32  1  0  0  0  0
  9 10  1  0  0  0  0
  9 33  1  0  0  0  0
 10 11  2  0  0  0  0
 10 12  1  0  0  0  0
 12 13  1  0  0  0  0
 12 34  1  0  0  0  0
 13 17  1  0  0  0  0
 13 14  2  0  0  0  0
 14 15  1  0  0  0  0
 15 16  2  0  0  0  0
 15 35  1  0  0  0  0
 16 17  1  0  0  0  0
 16 36  1  0  0  0  0
 18 37  1  0  0  0  0
 18 38  1  0  0  0  0
M  CHG  1   6   1
M  END
> <s_m_source_file>
AV-unprocessed.smi

> <i_m_source_file_index>
1278

> <i_lp_mmshare_version>
43012

> <i_f3d_flags>
0

> <s_epik_input>
W0NIM11bQ0BASF0xW0NIMl1bQ0gyXVtDSDJdTihbQ0gyXTEpW0NIMl1bQ0gyXVtOSF1DKD1PKVtOSF1jMm5bY0hdW2NIXXMy

> <s_epik_cmdline>
J2VwaWtfcHl0aG9uJywgJy1waCcsICc3LjAnLCAnLXRuJywgJzgnLCAnLW1hJywgJzIwMCcsICctbWV0YWxfYmluZGluZycsICctaW1hZScsICc8aW5maWxlLm1hZT4nLCAnLW9tYWUnLCAnPG91dGZpbGUubWFlPic=

> <r_lp_tautomer_probability>
0.999

> <r_epik_Ionization_Penalty>
0.00222194

> <r_epik_Ionization_Penalty_Charging>
0.00208169

> <r_epik_Ionization_Penalty_Neutral>
0.000140251

> <r_epik_State_Penalty>
0.00142585

> <r_epik_Charging_Adjusted_Penalty>
0.00350754

> <i_epik_Tot_Q>
1

> <i_epik_Tot_abs_Q>
1

> <r_epik_Metal_State_Penalty>
0.0570424

> <b_epik_Metal_Only>
0

> <s_lp_Force_Field>
OPLS_2005

> <r_lp_Energy>
16.5942

> <b_lp_Chiralities_Consistent>
1

> <s_lp_Variant>
AV-unprocessed.smi:1278-3

> <Gold.Version>
5.8.1

> <Gold.Id.Protein>
6NUR|6NUR_protein|mol2

> <Gold.PLP.Fitness>
45.8132

> <Gold.PLP.PLP>
-32.7528

> <Gold.PLP.part.hbond>
-4.8235

> <Gold.PLP.part.metal>
0.0000

> <Gold.PLP.part.buried>
-1.5928

> <Gold.PLP.part.nonpolar>
-26.3481

> <Gold.PLP.part.repulsive>
0.4195

> <Gold.PLP.ligand.clash>
0.0000

> <Gold.PLP.ligand.torsion>
0.6562

> <Gold.PLP.Chemscore.Hbond>
4.7840

> <Gold.PLP.Chemscore.CHOScore>
0.0000

> <Gold.PLP.Chemscore.Metal>
0.0000

> <Gold.Chemscore.Hbonds>
donor molecule, donor type, donor heavy atom, donor atom, acceptor molecule, acceptor atom, score
      L1  H     6    39       P1  7948  2.00
      L1  H     9    33       P1  7957  0.82
      L1  H    12    34       P1  7957  1.00
      P1  H  7989  7998       L1    14  1.00

> <Gold.PLP.Chemscore.Internal.Correction>
0.0207

> <Gold.Rescore>
     Score         DG    S(hbond)    S(metal)    S(lipo)     H(rot)  DE(clash)    DE(int)     intcor
     18.26     -20.86       3.70        0.00      60.94       1.60       0.34       2.25       ----

> <Gold.Chemscore.Fitness>
18.2635

> <Gold.Chemscore.DG>
-20.8619

> <Gold.Chemscore.ZeroCoef>
-5.4800

> <Gold.Chemscore.Hbond>
3.6971

> <Gold.Chemscore.Metal>
0.0000

> <Gold.Chemscore.Lipo>
60.9399

> <Gold.Chemscore.Internal_Hbond>
0.0000

> <Gold.Chemscore.DEClash>
0.3449

> <Gold.Chemscore.DEInternal>
2.2535

> <Gold.Chemscore.Rot>
1.6001

> <Gold.Chemscore.Internal.Correction>
   9.000000E+99

> <Gold.Chemscore.Hbonds>
donor molecule, donor type, donor heavy atom, donor atom, acceptor molecule, acceptor atom, score
      L1  H     6    39       P1  7948  0.99
      L1  H     9    33       P1  7957  0.56
      L1  H    12    34       P1  7957  0.97
      P1  H  7989  7998       L1    14  0.67

> <Gold.Chemscore.Hbond.Weighted>
-12.3482

> <Gold.Chemscore.Metal.Weighted>
-0.0000

> <Gold.Chemscore.Lipo.Weighted>
-7.1300

> <Gold.Chemscore.Internal_Hbond.Weighted>
0.0000

> <Gold.Chemscore.DEClash.Weighted>
0.3449

> <Gold.Chemscore.DEInternal.Weighted>
2.2535

> <Gold.Chemscore.Rot.Weighted>
4.0963

> <Gold.Chemscore.Internal.Correction.Weighted>
   9.000000E+99

> <Gold.Protein.RotatedTorsions>
[ 6907 6896 6895 6894 ] final -106.09 input  -60.11 | X-H torsion
[ 7974 7965 7964 7962 ] final -179.85 input  175.53 | X-H torsion
[ 8008 7997 7996 7995 ] final -137.63 input   59.86 | X-H torsion
[ 10167 10162 10161 10158 ] final   99.84 input  -65.29 | X-H torsion
[ 10718 10713 10712 10709 ] final -153.37 input   66.30 | X-H torsion
[ 10763 10752 10751 10750 ] final   68.88 input  -60.55 | X-H torsion
[ 11005 11000 10999 10996 ] final  -75.47 input  -57.11 | X-H torsion

> <Gold.Protein.ActiveResidues>
 VAL166  LYS551  ARG553  GLY616  TRP617  ASP618  TYR619  PRO620  LYS621  CYS622 
 ASP623  PHE694  ASN695  SER759  ASP760  ASP761  ALA762  ILE779  LEU786  VAL792 
 PHE793  MET794  SER795  GLU796  ALA797  LYS798  CYS799  TRP800  GLU811  SER814 

> <Gold.Protein.RotatedAtoms>
  150.7371  134.0028  159.3643 H   0  0  0  0  0  0  0  0  0  0  0  0  # atno 6907 bound_to 6896
  151.7983  135.0714  160.0406 H   0  0  0  0  0  0  0  0  0  0  0  0  # atno 6908 bound_to 6896
  152.3158  133.5765  159.5748 H   0  0  0  0  0  0  0  0  0  0  0  0  # atno 6909 bound_to 6896
  144.7139  140.0655  143.6431 H   0  0  0  0  0  0  0  0  0  0  0  0  # atno 7974 bound_to 7965
  155.4149  140.0514  157.3029 H   0  0  0  0  0  0  0  0  0  0  0  0  # atno 8008 bound_to 7997
  154.4929  140.2127  155.9469 H   0  0  0  0  0  0  0  0  0  0  0  0  # atno 8009 bound_to 7997
  156.1366  140.3162  155.8436 H   0  0  0  0  0  0  0  0  0  0  0  0  # atno 8010 bound_to 7997
  139.7581  144.6963  151.0333 H   0  0  0  0  0  0  0  0  0  0  0  0  # atno 10167 bound_to 10162
  156.4850  130.8321  151.2546 H   0  0  0  0  0  0  0  0  0  0  0  0  # atno 10718 bound_to 10713
  153.0258  135.5231  154.7202 H   0  0  0  0  0  0  0  0  0  0  0  0  # atno 10763 bound_to 10752
  154.6260  135.2894  155.0274 H   0  0  0  0  0  0  0  0  0  0  0  0  # atno 10764 bound_to 10752
  154.1244  135.6602  153.4962 H   0  0  0  0  0  0  0  0  0  0  0  0  # atno 10765 bound_to 10752
  141.1645  133.6948  156.7521 H   0  0  0  0  0  0  0  0  0  0  0  0  # atno 11005 bound_to 11000
  145.9827  139.2954  143.1032 LP  0  0  0  0  0  0  0  0  0  0  0  0  # atno 17320 bound_to 7965
  145.8992  140.9254  143.0512 LP  0  0  0  0  0  0  0  0  0  0  0  0  # atno 17321 bound_to 7965
  140.7804  143.4730  151.0121 LP  0  0  0  0  0  0  0  0  0  0  0  0  # atno 17342 bound_to 10162
  139.8416  143.7556  152.3180 LP  0  0  0  0  0  0  0  0  0  0  0  0  # atno 17343 bound_to 10162
  157.7479  131.0032  150.3030 LP  0  0  0  0  0  0  0  0  0  0  0  0  # atno 17370 bound_to 10713
  156.3484  130.3827  149.7350 LP  0  0  0  0  0  0  0  0  0  0  0  0  # atno 17371 bound_to 10713
  140.2596  134.8477  157.3746 LP  0  0  0  0  0  0  0  0  0  0  0  0  # atno 17394 bound_to 11000
  140.1624  134.4712  155.7886 LP  0  0  0  0  0  0  0  0  0  0  0  0  # atno 17395 bound_to 11000

$$$$
