AV-unprocessed.smi:1103|AV-procd|sdf|4772|dock6
  -GOLD-   22720 3313D 1   1.00000     0.00000
 Structure written by MMmdl.
 44 45  0  0  0  0  0  0  0  0  2 V2000
  148.0467  144.8206  160.4420 C   0  0  0  0  0  0  0  0  0  0  0  0
  149.5036  145.1232  160.8193 C   0  0  0  0  0  0  0  0  0  0  0  0
  150.4737  144.2546  160.1046 N   0  3  2  0  0  0  0  0  0  0  0  0
  151.7638  144.1471  160.8349 C   0  0  0  0  0  0  0  0  0  0  0  0
  152.7185  143.1559  160.1502 C   0  0  0  0  0  0  0  0  0  0  0  0
  152.9368  143.5262  158.6760 C   0  0  0  0  0  0  0  0  0  0  0  0
  151.5956  143.6641  157.9313 C   0  0  1  0  0  0  0  0  0  0  0  0
  150.9447  142.2879  157.6551 C   0  0  0  0  0  0  0  0  0  0  0  0
  150.0946  142.2922  156.4685 N   0  0  0  0  0  0  0  0  0  0  0  0
  150.2159  141.4609  155.4219 C   0  0  0  0  0  0  0  0  0  0  0  0
  151.0529  140.5602  155.3655 O   0  0  0  0  0  0  0  0  0  0  0  0
  149.2465  141.6772  154.2592 C   0  0  0  0  0  0  0  0  0  0  0  0
  147.8775  141.4324  154.6742 N   0  0  0  0  0  0  0  0  0  0  0  0
  147.1728  142.0303  155.6978 C   0  0  0  0  0  0  0  0  0  0  0  0
  145.9264  141.4713  155.7207 C   0  0  0  0  0  0  0  0  0  0  0  0
  144.7809  141.7714  156.6439 C   0  0  0  0  0  0  0  0  0  0  0  0
  145.9678  140.5281  154.6544 C   0  0  0  0  0  0  0  0  0  0  0  0
  147.1351  140.5055  154.0314 N   0  0  0  0  0  0  0  0  0  0  0  0
  150.6827  144.6583  158.6873 C   0  0  0  0  0  0  0  0  0  0  0  0
  147.3646  145.4425  161.0219 H   0  0  0  0  0  0  0  0  0  0  0  0
  147.7959  143.7802  160.6493 H   0  0  0  0  0  0  0  0  0  0  0  0
  147.8434  145.0143  159.3891 H   0  0  0  0  0  0  0  0  0  0  0  0
  149.7382  146.1733  160.6389 H   0  0  0  0  0  0  0  0  0  0  0  0
  149.6028  144.9671  161.8944 H   0  0  0  0  0  0  0  0  0  0  0  0
  152.2287  145.1324  160.8973 H   0  0  0  0  0  0  0  0  0  0  0  0
  151.5830  143.8170  161.8586 H   0  0  0  0  0  0  0  0  0  0  0  0
  153.6755  143.1439  160.6729 H   0  0  0  0  0  0  0  0  0  0  0  0
  152.3190  142.1445  160.2288 H   0  0  0  0  0  0  0  0  0  0  0  0
  153.4768  144.4726  158.6230 H   0  0  0  0  0  0  0  0  0  0  0  0
  153.5730  142.7862  158.1892 H   0  0  0  0  0  0  0  0  0  0  0  0
  151.8153  144.1037  156.9571 H   0  0  0  0  0  0  0  0  0  0  0  0
  151.7259  141.5467  157.4836 H   0  0  0  0  0  0  0  0  0  0  0  0
  150.3884  141.9357  158.5247 H   0  0  0  0  0  0  0  0  0  0  0  0
  149.3799  143.0049  156.4232 H   0  0  0  0  0  0  0  0  0  0  0  0
  149.3274  142.7050  153.9031 H   0  0  0  0  0  0  0  0  0  0  0  0
  149.4939  141.0261  153.4187 H   0  0  0  0  0  0  0  0  0  0  0  0
  147.6140  142.7943  156.3213 H   0  0  0  0  0  0  0  0  0  0  0  0
  144.0644  140.9505  156.6804 H   0  0  0  0  0  0  0  0  0  0  0  0
  144.2353  142.6612  156.3301 H   0  0  0  0  0  0  0  0  0  0  0  0
  145.1205  141.9454  157.6652 H   0  0  0  0  0  0  0  0  0  0  0  0
  145.1878  139.8609  154.3179 H   0  0  0  0  0  0  0  0  0  0  0  0
  149.7306  144.7606  158.1698 H   0  0  0  0  0  0  0  0  0  0  0  0
  151.1370  145.6504  158.6706 H   0  0  0  0  0  0  0  0  0  0  0  0
  150.0737  143.3269  160.0926 H   0  0  0  0  0  0  0  0  0  0  0  0
  1  2  1  0  0  0  0
  1 20  1  0  0  0  0
  1 21  1  0  0  0  0
  1 22  1  0  0  0  0
  2  3  1  0  0  0  0
  2 23  1  0  0  0  0
  2 24  1  0  0  0  0
  3 19  1  0  0  0  0
  3  4  1  0  0  0  0
  3 44  1  0  0  0  0
  4  5  1  0  0  0  0
  4 25  1  0  0  0  0
  4 26  1  0  0  0  0
  5  6  1  0  0  0  0
  5 27  1  0  0  0  0
  5 28  1  0  0  0  0
  6  7  1  0  0  0  0
  6 29  1  0  0  0  0
  6 30  1  0  0  0  0
  7  8  1  0  0  0  0
  7 19  1  0  0  0  0
  7 31  1  0  0  0  0
  8  9  1  0  0  0  0
  8 32  1  0  0  0  0
  8 33  1  0  0  0  0
  9 10  1  0  0  0  0
  9 34  1  0  0  0  0
 10 11  2  0  0  0  0
 10 12  1  0  0  0  0
 12 13  1  0  0  0  0
 12 35  1  0  0  0  0
 12 36  1  0  0  0  0
 13 18  1  0  0  0  0
 13 14  1  0  0  0  0
 14 15  2  0  0  0  0
 14 37  1  0  0  0  0
 15 16  1  0  0  0  0
 15 17  1  0  0  0  0
 16 38  1  0  0  0  0
 16 39  1  0  0  0  0
 16 40  1  0  0  0  0
 17 18  2  0  0  0  0
 17 41  1  0  0  0  0
 19 42  1  0  0  0  0
 19 43  1  0  0  0  0
M  CHG  1   3   1
M  END
> <s_m_source_file>
AV-unprocessed.smi

> <i_m_source_file_index>
1103

> <i_lp_mmshare_version>
43012

> <i_f3d_flags>
0

> <s_epik_input>
W0NIM11bQ0gyXU4xW0NIMl1bQ0gyXVtDSDJdW0NASF0oW0NIMl0xKVtDSDJdW05IXUMoPU8pW0NIMl1uMltjSF1jKFtDSDNdKVtjSF1uMg==

> <s_epik_cmdline>
J2VwaWtfcHl0aG9uJywgJy1waCcsICc3LjAnLCAnLXRuJywgJzgnLCAnLW1hJywgJzIwMCcsICctbWV0YWxfYmluZGluZycsICctaW1hZScsICc8aW5maWxlLm1hZT4nLCAnLW9tYWUnLCAnPG91dGZpbGUubWFlPic=

> <r_lp_tautomer_probability>
1

> <r_epik_Ionization_Penalty>
0.000672456

> <r_epik_Ionization_Penalty_Charging>
0.000647327

> <r_epik_Ionization_Penalty_Neutral>
2.51297e-05

> <r_epik_State_Penalty>
0.000409793

> <r_epik_Charging_Adjusted_Penalty>
0.00105712

> <i_epik_Tot_Q>
1

> <i_epik_Tot_abs_Q>
1

> <r_epik_Metal_State_Penalty>
-0

> <b_epik_Metal_Only>
0

> <s_lp_Force_Field>
OPLS_2005

> <r_lp_Energy>
19.6745

> <b_lp_Chiralities_Consistent>
1

> <s_lp_Variant>
AV-unprocessed.smi:1103-2

> <Gold.Version>
5.8.1

> <Gold.Id.Protein>
6NUR|6NUR_protein|mol2

> <Gold.PLP.Fitness>
43.9399

> <Gold.PLP.PLP>
-34.7247

> <Gold.PLP.part.hbond>
-2.0000

> <Gold.PLP.part.metal>
0.0000

> <Gold.PLP.part.buried>
-0.1135

> <Gold.PLP.part.nonpolar>
-31.4439

> <Gold.PLP.part.repulsive>
0.3705

> <Gold.PLP.ligand.clash>
0.0000

> <Gold.PLP.ligand.torsion>
0.5116

> <Gold.PLP.Chemscore.Hbond>
1.7074

> <Gold.PLP.Chemscore.CHOScore>
1.6872

> <Gold.PLP.Chemscore.Metal>
0.0000

> <Gold.Chemscore.Hbonds>
donor molecule, donor type, donor heavy atom, donor atom, acceptor molecule, acceptor atom, score
      L1  H     9    34       P1  8028  0.91
      P1  H  7989  7998       L1    11  0.78
      L1  C    14    37       P1  8028  0.92
      L1  C    17    41       P1 10175  0.83

> <Gold.PLP.Chemscore.Internal.Correction>
0.0546

> <Gold.Rescore>
     Score         DG    S(hbond)    S(metal)    S(lipo)     H(rot)  DE(clash)    DE(int)     intcor
     14.02     -16.23       0.99        0.00     100.48       1.68       1.69       0.52       ----

> <Gold.Chemscore.Fitness>
14.0210

> <Gold.Chemscore.DG>
-16.2252

> <Gold.Chemscore.ZeroCoef>
-5.4800

> <Gold.Chemscore.Hbond>
0.9868

> <Gold.Chemscore.Metal>
0.0000

> <Gold.Chemscore.Lipo>
100.4764

> <Gold.Chemscore.Internal_Hbond>
0.0000

> <Gold.Chemscore.DEClash>
1.6857

> <Gold.Chemscore.DEInternal>
0.5186

> <Gold.Chemscore.Rot>
1.6823

> <Gold.Chemscore.Internal.Correction>
   9.000000E+99

> <Gold.Chemscore.Hbonds>
donor molecule, donor type, donor heavy atom, donor atom, acceptor molecule, acceptor atom, score
      L1  H     9    34       P1  8028  0.87
      P1  H  7989  7998       L1    11  0.13

> <Gold.Chemscore.Hbond.Weighted>
-3.2961

> <Gold.Chemscore.Metal.Weighted>
-0.0000

> <Gold.Chemscore.Lipo.Weighted>
-11.7557

> <Gold.Chemscore.Internal_Hbond.Weighted>
0.0000

> <Gold.Chemscore.DEClash.Weighted>
1.6857

> <Gold.Chemscore.DEInternal.Weighted>
0.5186

> <Gold.Chemscore.Rot.Weighted>
4.3066

> <Gold.Chemscore.Internal.Correction.Weighted>
   9.000000E+99

> <Gold.Protein.RotatedTorsions>
[ 6907 6896 6895 6894 ] final -171.06 input  -60.11 | X-H torsion
[ 7974 7965 7964 7962 ] final -158.97 input  175.53 | X-H torsion
[ 8008 7997 7996 7995 ] final -159.89 input   59.86 | X-H torsion
[ 10167 10162 10161 10158 ] final   46.39 input  -65.29 | X-H torsion
[ 10718 10713 10712 10709 ] final -135.15 input   66.30 | X-H torsion
[ 10763 10752 10751 10750 ] final  151.68 input  -60.55 | X-H torsion
[ 11005 11000 10999 10996 ] final   72.89 input  -57.11 | X-H torsion

> <Gold.Protein.ActiveResidues>
 VAL166  LYS551  ARG553  GLY616  TRP617  ASP618  TYR619  PRO620  LYS621  CYS622 
 ASP623  PHE694  ASN695  SER759  ASP760  ASP761  ALA762  ILE779  LEU786  VAL792 
 PHE793  MET794  SER795  GLU796  ALA797  LYS798  CYS799  TRP800  GLU811  SER814 

> <Gold.Protein.RotatedAtoms>
  151.5178  133.3472  159.2895 H   0  0  0  0  0  0  0  0  0  0  0  0  # atno 6907 bound_to 6896
  150.8672  134.8040  159.7138 H   0  0  0  0  0  0  0  0  0  0  0  0  # atno 6908 bound_to 6896
  152.4672  134.5056  159.9790 H   0  0  0  0  0  0  0  0  0  0  0  0  # atno 6909 bound_to 6896
  144.7484  140.3752  143.6067 H   0  0  0  0  0  0  0  0  0  0  0  0  # atno 7974 bound_to 7965
  155.7693  140.0850  157.2116 H   0  0  0  0  0  0  0  0  0  0  0  0  # atno 8008 bound_to 7997
  154.3997  140.1528  156.2980 H   0  0  0  0  0  0  0  0  0  0  0  0  # atno 8009 bound_to 7997
  155.8763  140.3423  155.5859 H   0  0  0  0  0  0  0  0  0  0  0  0  # atno 8010 bound_to 7997
  140.3144  144.2781  150.6194 H   0  0  0  0  0  0  0  0  0  0  0  0  # atno 10167 bound_to 10162
  156.2631  130.7221  151.1162 H   0  0  0  0  0  0  0  0  0  0  0  0  # atno 10718 bound_to 10713
  154.1078  135.2841  155.3237 H   0  0  0  0  0  0  0  0  0  0  0  0  # atno 10763 bound_to 10752
  154.6511  135.5368  153.7906 H   0  0  0  0  0  0  0  0  0  0  0  0  # atno 10764 bound_to 10752
  153.0356  135.6510  154.1238 H   0  0  0  0  0  0  0  0  0  0  0  0  # atno 10765 bound_to 10752
  139.9468  134.7299  156.0960 H   0  0  0  0  0  0  0  0  0  0  0  0  # atno 11005 bound_to 11000
  145.7036  139.1667  143.2579 LP  0  0  0  0  0  0  0  0  0  0  0  0  # atno 17320 bound_to 7965
  146.1398  140.7073  142.9372 LP  0  0  0  0  0  0  0  0  0  0  0  0  # atno 17321 bound_to 7965
  140.5539  143.2202  151.7880 LP  0  0  0  0  0  0  0  0  0  0  0  0  # atno 17342 bound_to 10162
  139.4887  144.4439  151.9732 LP  0  0  0  0  0  0  0  0  0  0  0  0  # atno 17343 bound_to 10162
  157.7258  131.0651  150.5939 LP  0  0  0  0  0  0  0  0  0  0  0  0  # atno 17370 bound_to 10713
  156.6028  130.4359  149.5890 LP  0  0  0  0  0  0  0  0  0  0  0  0  # atno 17371 bound_to 10713
  141.1120  133.6640  156.3002 LP  0  0  0  0  0  0  0  0  0  0  0  0  # atno 17394 bound_to 11000
  140.5816  134.5740  157.5480 LP  0  0  0  0  0  0  0  0  0  0  0  0  # atno 17395 bound_to 11000

$$$$
