AV-unprocessed.smi:2356|AV-procd|sdf|9398|dock5
  -GOLD-   2272013 33D 1   1.00000     0.00000
 Structure written by MMmdl.
 54 57  0  0  0  0  0  0  0  0  2 V2000
  151.6455  138.0565  154.3727 C   0  0  0  0  0  0  0  0  0  0  0  0
  150.7725  139.0378  155.1382 C   0  0  0  0  0  0  0  0  0  0  0  0
  151.4224  139.9763  155.8624 N   0  3  0  0  0  0  0  0  0  0  0  0
  150.8003  140.9232  156.5960 C   0  0  0  0  0  0  0  0  0  0  0  0
  151.6147  141.8264  157.2933 N   0  0  0  0  0  0  0  0  0  0  0  0
  152.3976  141.2421  158.3694 C   0  0  0  0  0  0  0  0  0  0  0  0
  152.8540  142.4211  159.2331 C   0  0  0  0  0  0  0  0  0  0  0  0
  151.8761  143.5549  158.9024 C   0  0  0  0  0  0  0  0  0  0  0  0
  150.9093  142.9539  157.8790 C   0  0  0  0  0  0  0  0  0  0  0  0
  149.3885  140.9593  156.6143 C   0  0  0  0  0  0  0  0  0  0  0  0
  148.6633  140.0029  155.8765 C   0  0  0  0  0  0  0  0  0  0  0  0
  149.3542  139.0110  155.1348 C   0  0  0  0  0  0  0  0  0  0  0  0
  148.6844  138.0253  154.3576 N   0  0  0  0  0  0  0  0  0  0  0  0
  147.4001  137.6223  154.4249 C   0  0  0  0  0  0  0  0  0  0  0  0
  146.5725  138.0562  155.2230 O   0  0  0  0  0  0  0  0  0  0  0  0
  147.0736  136.6677  153.5349 N   0  0  0  0  0  0  0  0  0  0  0  0
  145.7793  136.0112  153.3361 C   0  0  1  0  0  0  0  0  0  0  0  0
  144.7237  137.0591  152.9526 C   0  0  0  0  0  0  0  0  0  0  0  0
  143.3881  136.3847  152.6001 C   0  0  0  0  0  0  0  0  0  0  0  0
  143.5829  135.4353  151.5572 O   0  0  0  0  0  0  0  0  0  0  0  0
  144.4602  134.3743  151.9223 C   0  0  1  0  0  0  0  0  0  0  0  0
  144.4972  133.3763  150.7822 C   0  0  0  0  0  0  0  0  0  0  0  0
  143.4561  132.2870  150.6733 C   0  0  0  0  0  0  0  0  0  0  0  0
  144.8801  131.9360  151.0316 C   0  0  0  0  0  0  0  0  0  0  0  0
  145.8567  134.9465  152.2270 C   0  0  0  0  0  0  0  0  0  0  0  0
  151.0733  137.3493  153.7732 H   0  0  0  0  0  0  0  0  0  0  0  0
  152.2598  137.4840  155.0680 H   0  0  0  0  0  0  0  0  0  0  0  0
  152.3121  138.5965  153.6997 H   0  0  0  0  0  0  0  0  0  0  0  0
  151.7890  140.5579  158.9619 H   0  0  0  0  0  0  0  0  0  0  0  0
  153.2463  140.6814  157.9766 H   0  0  0  0  0  0  0  0  0  0  0  0
  152.8497  142.1654  160.2932 H   0  0  0  0  0  0  0  0  0  0  0  0
  153.8697  142.7168  158.9672 H   0  0  0  0  0  0  0  0  0  0  0  0
  151.3504  143.9216  159.7843 H   0  0  0  0  0  0  0  0  0  0  0  0
  152.4172  144.3947  158.4648 H   0  0  0  0  0  0  0  0  0  0  0  0
  150.6301  143.6812  157.1160 H   0  0  0  0  0  0  0  0  0  0  0  0
  149.9974  142.6201  158.3757 H   0  0  0  0  0  0  0  0  0  0  0  0
  148.8596  141.7120  157.1806 H   0  0  0  0  0  0  0  0  0  0  0  0
  147.5862  140.0609  155.8840 H   0  0  0  0  0  0  0  0  0  0  0  0
  149.2679  137.5175  153.7088 H   0  0  0  0  0  0  0  0  0  0  0  0
  147.8087  136.3752  152.9072 H   0  0  0  0  0  0  0  0  0  0  0  0
  145.4612  135.5399  154.2679 H   0  0  0  0  0  0  0  0  0  0  0  0
  144.5793  137.7687  153.7681 H   0  0  0  0  0  0  0  0  0  0  0  0
  145.0683  137.6363  152.0931 H   0  0  0  0  0  0  0  0  0  0  0  0
  142.9549  135.8973  153.4748 H   0  0  0  0  0  0  0  0  0  0  0  0
  142.6687  137.1323  152.2649 H   0  0  0  0  0  0  0  0  0  0  0  0
  144.0671  133.8730  152.8088 H   0  0  0  0  0  0  0  0  0  0  0  0
  144.8401  133.8001  149.8399 H   0  0  0  0  0  0  0  0  0  0  0  0
  142.7085  132.2196  151.4611 H   0  0  0  0  0  0  0  0  0  0  0  0
  143.1078  132.0252  149.6763 H   0  0  0  0  0  0  0  0  0  0  0  0
  145.4823  131.4385  150.2741 H   0  0  0  0  0  0  0  0  0  0  0  0
  145.0796  131.6347  152.0582 H   0  0  0  0  0  0  0  0  0  0  0  0
  146.2744  135.3880  151.3207 H   0  0  0  0  0  0  0  0  0  0  0  0
  146.5293  134.1391  152.5175 H   0  0  0  0  0  0  0  0  0  0  0  0
  152.4426  139.9689  155.8540 H   0  0  0  0  0  0  0  0  0  0  0  0
  1  2  1  0  0  0  0
  1 26  1  0  0  0  0
  1 27  1  0  0  0  0
  1 28  1  0  0  0  0
  2 12  1  0  0  0  0
  2  3  2  0  0  0  0
  3  4  1  0  0  0  0
  3 54  1  0  0  0  0
  4  5  1  0  0  0  0
  4 10  2  0  0  0  0
  5  9  1  0  0  0  0
  5  6  1  0  0  0  0
  6  7  1  0  0  0  0
  6 29  1  0  0  0  0
  6 30  1  0  0  0  0
  7  8  1  0  0  0  0
  7 31  1  0  0  0  0
  7 32  1  0  0  0  0
  8  9  1  0  0  0  0
  8 33  1  0  0  0  0
  8 34  1  0  0  0  0
  9 35  1  0  0  0  0
  9 36  1  0  0  0  0
 10 11  1  0  0  0  0
 10 37  1  0  0  0  0
 11 12  2  0  0  0  0
 11 38  1  0  0  0  0
 12 13  1  0  0  0  0
 13 14  1  0  0  0  0
 13 39  1  0  0  0  0
 14 15  2  0  0  0  0
 14 16  1  0  0  0  0
 16 17  1  0  0  0  0
 16 40  1  0  0  0  0
 17 25  1  0  0  0  0
 17 18  1  0  0  0  0
 17 41  1  0  0  0  0
 18 19  1  0  0  0  0
 18 42  1  0  0  0  0
 18 43  1  0  0  0  0
 19 20  1  0  0  0  0
 19 44  1  0  0  0  0
 19 45  1  0  0  0  0
 20 21  1  0  0  0  0
 21 22  1  0  0  0  0
 21 25  1  0  0  0  0
 21 46  1  0  0  0  0
 22 24  1  0  0  0  0
 22 23  1  0  0  0  0
 22 47  1  0  0  0  0
 23 24  1  0  0  0  0
 23 48  1  0  0  0  0
 23 49  1  0  0  0  0
 24 50  1  0  0  0  0
 24 51  1  0  0  0  0
 25 52  1  0  0  0  0
 25 53  1  0  0  0  0
M  CHG  1   3   1
M  END
> <s_m_source_file>
AV-unprocessed.smi

> <i_m_source_file_index>
2356

> <i_lp_mmshare_version>
43012

> <i_f3d_flags>
0

> <s_epik_input>
W0NIMl0xW0NIMl1bQ0gyXVtDSDJdTjFjKG5jMltDSDNdKVtjSF1bY0hdYzJbTkhdQyg9TylbTkhdW0NAQEhdM1tDSDJdW0NIMl1PW0NASF0oW0NIMl0zKVtDSF00W0NIMl1bQ0gyXTQ=

> <s_epik_cmdline>
J2VwaWtfcHl0aG9uJywgJy1waCcsICc3LjAnLCAnLXRuJywgJzgnLCAnLW1hJywgJzIwMCcsICctbWV0YWxfYmluZGluZycsICctaW1hZScsICc8aW5maWxlLm1hZT4nLCAnLW9tYWUnLCAnPG91dGZpbGUubWFlPic=

> <r_lp_tautomer_probability>
0.999994

> <r_epik_Ionization_Penalty>
0.534681

> <r_epik_Ionization_Penalty_Charging>
0.534661

> <r_epik_Ionization_Penalty_Neutral>
1.99132e-05

> <r_epik_State_Penalty>
0.543738

> <r_epik_Charging_Adjusted_Penalty>
1.0784

> <i_epik_Tot_Q>
1

> <i_epik_Tot_abs_Q>
1

> <r_epik_Metal_State_Penalty>
0.74699

> <b_epik_Metal_Only>
0

> <s_lp_Force_Field>
OPLS_2005

> <r_lp_Energy>
63.5996

> <b_lp_Chiralities_Consistent>
1

> <s_lp_Variant>
AV-unprocessed.smi:2356-6

> <Gold.Version>
5.8.1

> <Gold.Id.Protein>
6NUR|6NUR_protein|mol2

> <Gold.PLP.Fitness>
42.6780

> <Gold.PLP.PLP>
-39.3566

> <Gold.PLP.part.hbond>
-1.7734

> <Gold.PLP.part.metal>
0.0000

> <Gold.PLP.part.buried>
-6.0932

> <Gold.PLP.part.nonpolar>
-33.0164

> <Gold.PLP.part.repulsive>
0.4409

> <Gold.PLP.ligand.clash>
0.0000

> <Gold.PLP.ligand.torsion>
0.7333

> <Gold.PLP.Chemscore.Hbond>
1.2331

> <Gold.PLP.Chemscore.CHOScore>
0.0000

> <Gold.PLP.Chemscore.Metal>
0.0000

> <Gold.Chemscore.Hbonds>
donor molecule, donor type, donor heavy atom, donor atom, acceptor molecule, acceptor atom, score
      L1  H    13    39       P1  7948  0.34
      L1  H    16    40       P1  7948  1.00

> <Gold.PLP.Chemscore.Internal.Correction>
1.0890

> <Gold.Rescore>
     Score         DG    S(hbond)    S(metal)    S(lipo)     H(rot)  DE(clash)    DE(int)     intcor
     18.21     -20.53       1.61        0.00     111.21       1.31       0.34       1.98       ----

> <Gold.Chemscore.Fitness>
18.2052

> <Gold.Chemscore.DG>
-20.5262

> <Gold.Chemscore.ZeroCoef>
-5.4800

> <Gold.Chemscore.Hbond>
1.6101

> <Gold.Chemscore.Metal>
0.0000

> <Gold.Chemscore.Lipo>
111.2119

> <Gold.Chemscore.Internal_Hbond>
0.0000

> <Gold.Chemscore.DEClash>
0.3413

> <Gold.Chemscore.DEInternal>
1.9797

> <Gold.Chemscore.Rot>
1.3060

> <Gold.Chemscore.Internal.Correction>
   9.000000E+99

> <Gold.Chemscore.Hbonds>
donor molecule, donor type, donor heavy atom, donor atom, acceptor molecule, acceptor atom, score
      L1  H    13    39       P1  7948  0.34
      L1  H    16    40       P1  7948  0.96

> <Gold.Chemscore.Hbond.Weighted>
-5.3777

> <Gold.Chemscore.Metal.Weighted>
-0.0000

> <Gold.Chemscore.Lipo.Weighted>
-13.0118

> <Gold.Chemscore.Internal_Hbond.Weighted>
0.0000

> <Gold.Chemscore.DEClash.Weighted>
0.3413

> <Gold.Chemscore.DEInternal.Weighted>
1.9797

> <Gold.Chemscore.Rot.Weighted>
3.3433

> <Gold.Chemscore.Internal.Correction.Weighted>
   9.000000E+99

> <Gold.Protein.RotatedTorsions>
[ 6907 6896 6895 6894 ] final    8.59 input  -60.11 | X-H torsion
[ 7974 7965 7964 7962 ] final -157.38 input  175.53 | X-H torsion
[ 8008 7997 7996 7995 ] final  120.07 input   59.86 | X-H torsion
[ 10167 10162 10161 10158 ] final  100.38 input  -65.29 | X-H torsion
[ 10718 10713 10712 10709 ] final    6.49 input   66.30 | X-H torsion
[ 10763 10752 10751 10750 ] final -100.66 input  -60.55 | X-H torsion
[ 11005 11000 10999 10996 ] final  143.96 input  -57.11 | X-H torsion

> <Gold.Protein.ActiveResidues>
 VAL166  LYS551  ARG553  GLY616  TRP617  ASP618  TYR619  PRO620  LYS621  CYS622 
 ASP623  PHE694  ASN695  SER759  ASP760  ASP761  ALA762  ILE779  LEU786  VAL792 
 PHE793  MET794  SER795  GLU796  ALA797  LYS798  CYS799  TRP800  GLU811  SER814 

> <Gold.Protein.RotatedAtoms>
  151.7086  135.0917  160.0263 H   0  0  0  0  0  0  0  0  0  0  0  0  # atno 6907 bound_to 6896
  152.3676  133.6373  159.6071 H   0  0  0  0  0  0  0  0  0  0  0  0  # atno 6908 bound_to 6896
  150.7649  133.9239  159.3448 H   0  0  0  0  0  0  0  0  0  0  0  0  # atno 6909 bound_to 6896
  144.7551  140.3977  143.6019 H   0  0  0  0  0  0  0  0  0  0  0  0  # atno 7974 bound_to 7965
  156.2625  140.2839  156.1091 H   0  0  0  0  0  0  0  0  0  0  0  0  # atno 8008 bound_to 7997
  155.1277  140.0393  157.2784 H   0  0  0  0  0  0  0  0  0  0  0  0  # atno 8009 bound_to 7997
  154.6623  140.2569  155.7101 H   0  0  0  0  0  0  0  0  0  0  0  0  # atno 8010 bound_to 7997
  139.7532  144.6977  151.0401 H   0  0  0  0  0  0  0  0  0  0  0  0  # atno 10167 bound_to 10162
  156.9229  130.5797  149.5648 H   0  0  0  0  0  0  0  0  0  0  0  0  # atno 10718 bound_to 10713
  154.7597  135.4926  153.9441 H   0  0  0  0  0  0  0  0  0  0  0  0  # atno 10763 bound_to 10752
  153.1237  135.6737  153.9301 H   0  0  0  0  0  0  0  0  0  0  0  0  # atno 10764 bound_to 10752
  153.9025  135.3108  155.3427 H   0  0  0  0  0  0  0  0  0  0  0  0  # atno 10765 bound_to 10752
  140.0595  134.9212  157.1159 H   0  0  0  0  0  0  0  0  0  0  0  0  # atno 11005 bound_to 11000
  145.6808  139.1618  143.2702 LP  0  0  0  0  0  0  0  0  0  0  0  0  # atno 17320 bound_to 7965
  146.1550  140.6870  142.9304 LP  0  0  0  0  0  0  0  0  0  0  0  0  # atno 17321 bound_to 7965
  140.7800  143.4784  151.0051 LP  0  0  0  0  0  0  0  0  0  0  0  0  # atno 17342 bound_to 10162
  139.8471  143.7487  152.3179 LP  0  0  0  0  0  0  0  0  0  0  0  0  # atno 17343 bound_to 10162
  156.0482  130.5556  150.8930 LP  0  0  0  0  0  0  0  0  0  0  0  0  # atno 17370 bound_to 10713
  157.5896  131.0945  150.9140 LP  0  0  0  0  0  0  0  0  0  0  0  0  # atno 17371 bound_to 10713
  140.3793  134.2305  155.7172 LP  0  0  0  0  0  0  0  0  0  0  0  0  # atno 17394 bound_to 11000
  141.1967  133.8077  157.0662 LP  0  0  0  0  0  0  0  0  0  0  0  0  # atno 17395 bound_to 11000

$$$$
