AV-unprocessed.smi:211|AV-procd|sdf|1615|dock4
  -GOLD-   2262019543D 1   1.00000     0.00000
 Structure written by MMmdl.
 59 62  0  0  0  0  0  0  0  0  1 V2000
  155.0105  132.4609  157.5803 C   0  0  0  0  0  0  0  0  0  0  0  0
  153.8924  131.4396  157.7581 C   0  0  0  0  0  0  0  0  0  0  0  0
  152.8617  131.7498  158.3545 O   0  0  0  0  0  0  0  0  0  0  0  0
  154.1132  130.2246  157.2335 N   0  0  0  0  0  0  0  0  0  0  0  0
  153.1840  129.0960  157.2722 C   0  0  2  0  0  0  0  0  0  0  0  0
  153.9868  127.8078  157.5355 C   0  0  0  0  0  0  0  0  0  0  0  0
  152.3501  129.0474  155.9641 C   0  0  0  0  0  0  0  0  0  0  0  0
  151.6408  130.3912  155.6703 C   0  0  0  0  0  0  0  0  0  0  0  0
  150.8026  130.3274  154.3840 C   0  0  0  0  0  0  0  0  0  0  0  0
  149.8490  129.2222  154.4360 N   0  0  0  0  0  0  0  0  0  0  0  0
  148.8611  129.2917  153.5072 C   0  0  0  0  0  0  0  0  0  0  0  0
  148.5004  128.1782  152.8140 N   0  0  0  0  0  0  0  0  0  0  0  0
  147.5444  128.2421  151.8827 C   0  0  0  0  0  0  0  0  0  0  0  0
  146.8277  129.2980  151.4944 N   0  0  0  0  0  0  0  0  0  0  0  0
  147.1739  130.4158  152.1945 C   0  0  0  0  0  0  0  0  0  0  0  0
  148.1729  130.5011  153.2054 C   0  0  0  0  0  0  0  0  0  0  0  0
  148.2468  131.8032  153.6867 N   0  0  0  0  0  0  0  0  0  0  0  0
  147.3559  132.4529  152.9885 C   0  0  0  0  0  0  0  0  0  0  0  0
  146.6458  131.6908  152.0884 N   0  0  0  0  0  0  0  0  0  0  0  0
  145.6450  132.1527  151.1720 C   0  0  0  0  0  0  0  0  0  0  0  0
  145.8914  133.3624  150.2661 C   0  0  0  0  0  0  0  0  0  0  0  0
  144.3882  133.7148  150.3439 C   0  0  0  0  0  0  0  0  0  0  0  0
  144.0931  135.2200  150.4673 C   0  0  0  0  0  0  0  0  0  0  0  0
  144.6129  135.9526  149.3768 O   0  0  0  0  0  0  0  0  0  0  0  0
  143.5473  133.1228  149.1927 C   0  0  0  0  0  0  0  0  0  0  0  0
  143.4649  133.9961  148.0853 O   0  0  0  0  0  0  0  0  0  0  0  0
  144.4109  132.9107  151.6644 C   0  0  0  0  0  0  0  0  0  0  0  0
  150.4504  127.9133  154.6887 C   0  0  0  0  0  0  0  0  0  0  0  0
  151.2842  127.9284  155.9803 C   0  0  0  0  0  0  0  0  0  0  0  0
  155.9607  132.0534  157.9275 H   0  0  0  0  0  0  0  0  0  0  0  0
  154.8013  133.3682  158.1480 H   0  0  0  0  0  0  0  0  0  0  0  0
  155.1128  132.7311  156.5289 H   0  0  0  0  0  0  0  0  0  0  0  0
  154.9934  130.0687  156.7636 H   0  0  0  0  0  0  0  0  0  0  0  0
  152.4902  129.2392  158.1030 H   0  0  0  0  0  0  0  0  0  0  0  0
  153.3364  126.9498  157.6999 H   0  0  0  0  0  0  0  0  0  0  0  0
  154.6050  127.9057  158.4286 H   0  0  0  0  0  0  0  0  0  0  0  0
  154.6483  127.5748  156.7004 H   0  0  0  0  0  0  0  0  0  0  0  0
  153.0333  128.8450  155.1375 H   0  0  0  0  0  0  0  0  0  0  0  0
  150.9956  130.6569  156.5090 H   0  0  0  0  0  0  0  0  0  0  0  0
  152.3639  131.2007  155.5707 H   0  0  0  0  0  0  0  0  0  0  0  0
  150.2987  131.2823  154.2385 H   0  0  0  0  0  0  0  0  0  0  0  0
  151.4558  130.1860  153.5219 H   0  0  0  0  0  0  0  0  0  0  0  0
  147.3221  127.3145  151.3758 H   0  0  0  0  0  0  0  0  0  0  0  0
  147.1887  133.5122  153.1178 H   0  0  0  0  0  0  0  0  0  0  0  0
  145.3513  131.2813  150.5842 H   0  0  0  0  0  0  0  0  0  0  0  0
  146.5328  134.1095  150.7378 H   0  0  0  0  0  0  0  0  0  0  0  0
  146.2555  133.1127  149.2690 H   0  0  0  0  0  0  0  0  0  0  0  0
  143.0186  135.4022  150.4965 H   0  0  0  0  0  0  0  0  0  0  0  0
  144.4975  135.6293  151.3935 H   0  0  0  0  0  0  0  0  0  0  0  0
  144.1974  136.8009  149.3590 H   0  0  0  0  0  0  0  0  0  0  0  0
  143.9571  132.1701  148.8561 H   0  0  0  0  0  0  0  0  0  0  0  0
  142.5279  132.9127  149.5172 H   0  0  0  0  0  0  0  0  0  0  0  0
  144.3414  134.2136  147.8073 H   0  0  0  0  0  0  0  0  0  0  0  0
  143.5375  132.2819  151.8406 H   0  0  0  0  0  0  0  0  0  0  0  0
  144.6235  133.5329  152.5359 H   0  0  0  0  0  0  0  0  0  0  0  0
  149.6709  127.1545  154.7717 H   0  0  0  0  0  0  0  0  0  0  0  0
  151.0819  127.6365  153.8431 H   0  0  0  0  0  0  0  0  0  0  0  0
  151.7497  126.9505  156.0977 H   0  0  0  0  0  0  0  0  0  0  0  0
  150.6233  128.0628  156.8377 H   0  0  0  0  0  0  0  0  0  0  0  0
  1  2  1  0  0  0  0
  1 30  1  0  0  0  0
  1 31  1  0  0  0  0
  1 32  1  0  0  0  0
  2  3  2  0  0  0  0
  2  4  1  0  0  0  0
  4  5  1  0  0  0  0
  4 33  1  0  0  0  0
  5  6  1  0  0  0  0
  5  7  1  0  0  0  0
  5 34  1  0  0  0  0
  6 35  1  0  0  0  0
  6 36  1  0  0  0  0
  6 37  1  0  0  0  0
  7 29  1  0  0  0  0
  7  8  1  0  0  0  0
  7 38  1  0  0  0  0
  8  9  1  0  0  0  0
  8 39  1  0  0  0  0
  8 40  1  0  0  0  0
  9 10  1  0  0  0  0
  9 41  1  0  0  0  0
  9 42  1  0  0  0  0
 10 11  1  0  0  0  0
 10 28  1  0  0  0  0
 11 16  1  0  0  0  0
 11 12  2  0  0  0  0
 12 13  1  0  0  0  0
 13 14  2  0  0  0  0
 13 43  1  0  0  0  0
 14 15  1  0  0  0  0
 15 19  1  0  0  0  0
 15 16  2  0  0  0  0
 16 17  1  0  0  0  0
 17 18  2  0  0  0  0
 18 19  1  0  0  0  0
 18 44  1  0  0  0  0
 19 20  1  0  0  0  0
 20 27  1  0  0  0  0
 20 21  1  0  0  0  0
 20 45  1  0  0  0  0
 21 22  1  0  0  0  0
 21 46  1  0  0  0  0
 21 47  1  0  0  0  0
 22 23  1  0  0  0  0
 22 25  1  0  0  0  0
 22 27  1  0  0  0  0
 23 24  1  0  0  0  0
 23 48  1  0  0  0  0
 23 49  1  0  0  0  0
 24 50  1  0  0  0  0
 25 26  1  0  0  0  0
 25 51  1  0  0  0  0
 25 52  1  0  0  0  0
 26 53  1  0  0  0  0
 27 54  1  0  0  0  0
 27 55  1  0  0  0  0
 28 29  1  0  0  0  0
 28 56  1  0  0  0  0
 28 57  1  0  0  0  0
 29 58  1  0  0  0  0
 29 59  1  0  0  0  0
M  END
> <s_m_source_file>
AV-unprocessed.smi

> <i_m_source_file_index>
211

> <i_lp_mmshare_version>
43012

> <i_f3d_flags>
0

> <s_epik_input>
W0NIM11DKD1PKVtOSF1bQ0BIXShbQ0gzXSlbQ0hdMVtDSDJdW0NIMl1OKFtDSDJdW0NIMl0xKWMobltjSF1uMiljKGMyMyluW2NIXW4zW0NIXShbQ0gyXTQpW0NIMl1DNChbQ0gyXVtPSF0pW0NIMl1bT0hd

> <s_epik_cmdline>
J2VwaWtfcHl0aG9uJywgJy1waCcsICc3LjAnLCAnLXRuJywgJzgnLCAnLW1hJywgJzIwMCcsICctbWV0YWxfYmluZGluZycsICctaW1hZScsICc8aW5maWxlLm1hZT4nLCAnLW9tYWUnLCAnPG91dGZpbGUubWFlPic=

> <r_lp_tautomer_probability>
1

> <r_epik_Ionization_Penalty>
0.00335435

> <r_epik_Ionization_Penalty_Charging>
0

> <r_epik_Ionization_Penalty_Neutral>
0.00335435

> <r_epik_State_Penalty>
0.00231338

> <r_epik_Charging_Adjusted_Penalty>
0.00231338

> <i_epik_Tot_Q>
0

> <i_epik_Tot_abs_Q>
0

> <r_epik_Metal_State_Penalty>
-0

> <b_epik_Metal_Only>
0

> <s_lp_Force_Field>
OPLS_2005

> <r_lp_Energy>
41.9303

> <b_lp_Chiralities_Consistent>
1

> <s_lp_Variant>
AV-unprocessed.smi:211-1

> <Gold.Version>
5.8.1

> <Gold.Id.Protein>
6NUR|6NUR_protein|mol2

> <Gold.PLP.Fitness>
48.1489

> <Gold.PLP.PLP>
-37.5271

> <Gold.PLP.part.hbond>
-6.4761

> <Gold.PLP.part.metal>
0.0000

> <Gold.PLP.part.buried>
-0.6610

> <Gold.PLP.part.nonpolar>
-31.3207

> <Gold.PLP.part.repulsive>
0.3442

> <Gold.PLP.ligand.clash>
0.0000

> <Gold.PLP.ligand.torsion>
1.1290

> <Gold.PLP.Chemscore.Hbond>
3.9913

> <Gold.PLP.Chemscore.CHOScore>
0.0000

> <Gold.PLP.Chemscore.Metal>
0.0000

> <Gold.Chemscore.Hbonds>
donor molecule, donor type, donor heavy atom, donor atom, acceptor molecule, acceptor atom, score
      L1  H    24    50       P1 10171  1.00
      L1  H    26    53       P1  7921  1.00
      P1  H  6896  6907       L1     3  0.93
      P1  H 10192 10197       L1    26  0.88

> <Gold.PLP.Chemscore.Internal.Correction>
0.9059

> <Gold.Rescore>
     Score         DG    S(hbond)    S(metal)    S(lipo)     H(rot)  DE(clash)    DE(int)     intcor
     13.77     -16.49       3.71        0.00      73.90       3.92       1.01       1.71       ----

> <Gold.Chemscore.Fitness>
13.7686

> <Gold.Chemscore.DG>
-16.4895

> <Gold.Chemscore.ZeroCoef>
-5.4800

> <Gold.Chemscore.Hbond>
3.7084

> <Gold.Chemscore.Metal>
0.0000

> <Gold.Chemscore.Lipo>
73.9049

> <Gold.Chemscore.Internal_Hbond>
0.0000

> <Gold.Chemscore.DEClash>
1.0143

> <Gold.Chemscore.DEInternal>
1.7066

> <Gold.Chemscore.Rot>
3.9155

> <Gold.Chemscore.Internal.Correction>
   9.000000E+99

> <Gold.Chemscore.Hbonds>
donor molecule, donor type, donor heavy atom, donor atom, acceptor molecule, acceptor atom, score
      L1  H    24    50       P1 10171  0.99
      L1  H    26    53       P1  7921  1.00
      P1  H  6896  6907       L1     3  0.89
      P1  H 10192 10197       L1    26  0.73

> <Gold.Chemscore.Hbond.Weighted>
-12.3862

> <Gold.Chemscore.Metal.Weighted>
-0.0000

> <Gold.Chemscore.Lipo.Weighted>
-8.6469

> <Gold.Chemscore.Internal_Hbond.Weighted>
0.0000

> <Gold.Chemscore.DEClash.Weighted>
1.0143

> <Gold.Chemscore.DEInternal.Weighted>
1.7066

> <Gold.Chemscore.Rot.Weighted>
10.0236

> <Gold.Chemscore.Internal.Correction.Weighted>
   9.000000E+99

> <Gold.Protein.RotatedTorsions>
[ 6907 6896 6895 6894 ] final  159.70 input  -60.11 | X-H torsion
[ 7974 7965 7964 7962 ] final    5.29 input  175.53 | X-H torsion
[ 8008 7997 7996 7995 ] final   10.43 input   59.86 | X-H torsion
[ 10167 10162 10161 10158 ] final  -38.90 input  -65.29 | X-H torsion
[ 10718 10713 10712 10709 ] final  -95.44 input   66.30 | X-H torsion
[ 10763 10752 10751 10750 ] final    4.90 input  -60.55 | X-H torsion
[ 11005 11000 10999 10996 ] final  176.85 input  -57.11 | X-H torsion

> <Gold.Protein.ActiveResidues>
 VAL166  LYS551  ARG553  GLY616  TRP617  ASP618  TYR619  PRO620  LYS621  CYS622 
 ASP623  PHE694  ASN695  SER759  ASP760  ASP761  ALA762  ILE779  LEU786  VAL792 
 PHE793  MET794  SER795  GLU796  ALA797  LYS798  CYS799  TRP800  GLU811  SER814 

> <Gold.Protein.RotatedAtoms>
  151.9817  133.3760  159.4109 H   0  0  0  0  0  0  0  0  0  0  0  0  # atno 6907 bound_to 6896
  150.6934  134.4032  159.5137 H   0  0  0  0  0  0  0  0  0  0  0  0  # atno 6908 bound_to 6896
  152.1752  134.8801  160.0582 H   0  0  0  0  0  0  0  0  0  0  0  0  # atno 6909 bound_to 6896
  146.2441  140.0406  142.8382 H   0  0  0  0  0  0  0  0  0  0  0  0  # atno 7974 bound_to 7965
  154.7933  140.2839  155.5975 H   0  0  0  0  0  0  0  0  0  0  0  0  # atno 8008 bound_to 7997
  156.2967  140.2600  156.2714 H   0  0  0  0  0  0  0  0  0  0  0  0  # atno 8009 bound_to 7997
  154.9644  140.0377  157.2195 H   0  0  0  0  0  0  0  0  0  0  0  0  # atno 8010 bound_to 7997
  140.7079  143.3248  151.2706 H   0  0  0  0  0  0  0  0  0  0  0  0  # atno 10167 bound_to 10162
  156.0043  130.5109  150.6076 H   0  0  0  0  0  0  0  0  0  0  0  0  # atno 10718 bound_to 10713
  153.2658  135.6927  153.7531 H   0  0  0  0  0  0  0  0  0  0  0  0  # atno 10763 bound_to 10752
  153.6573  135.3366  155.3118 H   0  0  0  0  0  0  0  0  0  0  0  0  # atno 10764 bound_to 10752
  154.8446  135.4469  154.1664 H   0  0  0  0  0  0  0  0  0  0  0  0  # atno 10765 bound_to 10752
  140.3776  134.6974  157.4431 H   0  0  0  0  0  0  0  0  0  0  0  0  # atno 11005 bound_to 11000
  145.1072  140.9383  143.4677 LP  0  0  0  0  0  0  0  0  0  0  0  0  # atno 17320 bound_to 7965
  145.0612  139.3104  143.5879 LP  0  0  0  0  0  0  0  0  0  0  0  0  # atno 17321 bound_to 7965
  139.6713  144.0016  152.2754 LP  0  0  0  0  0  0  0  0  0  0  0  0  # atno 17342 bound_to 10162
  139.9615  144.6554  150.8075 LP  0  0  0  0  0  0  0  0  0  0  0  0  # atno 17343 bound_to 10162
  157.3914  131.0796  151.1390 LP  0  0  0  0  0  0  0  0  0  0  0  0  # atno 17370 bound_to 10713
  157.2080  130.6425  149.5763 LP  0  0  0  0  0  0  0  0  0  0  0  0  # atno 17371 bound_to 10713
  140.0503  134.6140  155.8870 LP  0  0  0  0  0  0  0  0  0  0  0  0  # atno 17394 bound_to 11000
  141.1934  133.6579  156.5546 LP  0  0  0  0  0  0  0  0  0  0  0  0  # atno 17395 bound_to 11000

$$$$
