AV-unprocessed.smi:2748|AV-procd|sdf|10583|dock7
  -GOLD-   2272015 33D 1   1.00000     0.00000
 Structure written by MMmdl.
 29 31  0  0  0  0  0  0  0  0  2 V2000
  150.4710  135.3209  154.6241 O   0  0  0  0  0  0  0  0  0  0  0  0
  150.6339  136.5070  154.9071 C   0  0  0  0  0  0  0  0  0  0  0  0
  151.8425  137.1323  154.7931 N   0  5  0  0  0  0  0  0  0  0  0  0
  152.0435  138.4500  155.1051 C   0  0  0  0  0  0  0  0  0  0  0  0
  153.1413  138.9950  154.9856 O   0  0  0  0  0  0  0  0  0  0  0  0
  150.9878  139.1853  155.5639 N   0  0  0  0  0  0  0  0  0  0  0  0
  151.1129  140.6049  155.9206 C   0  0  0  0  0  0  0  0  0  0  0  0
  150.7025  140.8640  157.3825 C   0  0  2  0  0  0  0  0  0  0  0  0
  150.4301  142.3654  157.6665 C   0  0  0  0  0  0  0  0  0  0  0  0
  151.4252  142.6609  158.7333 C   0  0  0  0  0  0  0  0  0  0  0  0
  151.6572  143.8767  159.3987 C   0  0  0  0  0  0  0  0  0  0  0  0
  152.6714  143.9072  160.3811 C   0  0  0  0  0  0  0  0  0  0  0  0
  153.4219  142.7427  160.6732 C   0  0  0  0  0  0  0  0  0  0  0  0
  153.1675  141.5335  159.9873 C   0  0  0  0  0  0  0  0  0  0  0  0
  152.1540  141.5187  159.0128 C   0  0  0  0  0  0  0  0  0  0  0  0
  151.7687  140.4475  158.2584 O   0  0  0  0  0  0  0  0  0  0  0  0
  149.7207  138.5921  155.6924 C   0  0  0  0  0  0  0  0  0  0  0  0
  149.5024  137.2986  155.3858 C   0  0  0  0  0  0  0  0  0  0  0  0
  147.9323  136.5966  155.5508 Cl  0  0  0  0  0  0  0  0  0  0  0  0
  152.1359  140.9482  155.7592 H   0  0  0  0  0  0  0  0  0  0  0  0
  150.5021  141.2117  155.2499 H   0  0  0  0  0  0  0  0  0  0  0  0
  149.8122  140.2855  157.6326 H   0  0  0  0  0  0  0  0  0  0  0  0
  150.6055  143.0004  156.7973 H   0  0  0  0  0  0  0  0  0  0  0  0
  149.4162  142.5338  158.0305 H   0  0  0  0  0  0  0  0  0  0  0  0
  151.0794  144.7591  159.1662 H   0  0  0  0  0  0  0  0  0  0  0  0
  152.8762  144.8248  160.9128 H   0  0  0  0  0  0  0  0  0  0  0  0
  154.1951  142.7785  161.4263 H   0  0  0  0  0  0  0  0  0  0  0  0
  153.7364  140.6420  160.2062 H   0  0  0  0  0  0  0  0  0  0  0  0
  148.9417  139.2511  156.0468 H   0  0  0  0  0  0  0  0  0  0  0  0
  1  2  2  0  0  0  0
  2 18  1  0  0  0  0
  2  3  1  0  0  0  0
  3  4  1  0  0  0  0
  4  5  2  0  0  0  0
  4  6  1  0  0  0  0
  6  7  1  0  0  0  0
  6 17  1  0  0  0  0
  7  8  1  0  0  0  0
  7 20  1  0  0  0  0
  7 21  1  0  0  0  0
  8 16  1  0  0  0  0
  8  9  1  0  0  0  0
  8 22  1  0  0  0  0
  9 10  1  0  0  0  0
  9 23  1  0  0  0  0
  9 24  1  0  0  0  0
 10 15  2  0  0  0  0
 10 11  1  0  0  0  0
 11 12  2  0  0  0  0
 11 25  1  0  0  0  0
 12 13  1  0  0  0  0
 12 26  1  0  0  0  0
 13 14  2  0  0  0  0
 13 27  1  0  0  0  0
 14 15  1  0  0  0  0
 14 28  1  0  0  0  0
 15 16  1  0  0  0  0
 17 18  2  0  0  0  0
 17 29  1  0  0  0  0
 18 19  1  0  0  0  0
M  CHG  1   3  -1
M  END
> <s_m_source_file>
AV-unprocessed.smi

> <i_m_source_file_index>
2748

> <i_lp_mmshare_version>
43012

> <i_f3d_flags>
0

> <s_epik_input>
Tz1jMVtuSF1jKD1PKW4oW2NIXWMxQ2wpW0NIMl1bQ0BIXShbQ0gyXTIpT2MoYzIzKVtjSF1bY0hdW2NIXVtjSF0z

> <s_epik_cmdline>
J2VwaWtfcHl0aG9uJywgJy1waCcsICc3LjAnLCAnLXRuJywgJzgnLCAnLW1hJywgJzIwMCcsICctbWV0YWxfYmluZGluZycsICctaW1hZScsICc8aW5maWxlLm1hZT4nLCAnLW9tYWUnLCAnPG91dGZpbGUubWFlPic=

> <r_lp_tautomer_probability>
1

> <r_epik_Ionization_Penalty>
2.00749

> <r_epik_Ionization_Penalty_Charging>
2.26533e-08

> <r_epik_Ionization_Penalty_Neutral>
2.00749

> <r_epik_State_Penalty>
2.13675

> <r_epik_Charging_Adjusted_Penalty>
2.13675

> <i_epik_Tot_Q>
-1

> <i_epik_Tot_abs_Q>
1

> <r_epik_Metal_State_Penalty>
0.0208594

> <b_epik_Metal_Only>
0

> <s_lp_Force_Field>
OPLS_2005

> <r_lp_Energy>
29.9215

> <b_lp_Chiralities_Consistent>
1

> <s_lp_Variant>
AV-unprocessed.smi:2748-3

> <Gold.Version>
5.8.1

> <Gold.Id.Protein>
6NUR|6NUR_protein|mol2

> <Gold.PLP.Fitness>
45.8165

> <Gold.PLP.PLP>
-37.2640

> <Gold.PLP.part.hbond>
-2.0000

> <Gold.PLP.part.metal>
0.0000

> <Gold.PLP.part.buried>
-5.6019

> <Gold.PLP.part.nonpolar>
-30.3454

> <Gold.PLP.part.repulsive>
0.2843

> <Gold.PLP.ligand.clash>
0.0000

> <Gold.PLP.ligand.torsion>
0.1403

> <Gold.PLP.Chemscore.Hbond>
2.9440

> <Gold.PLP.Chemscore.CHOScore>
0.0000

> <Gold.PLP.Chemscore.Metal>
0.0000

> <Gold.Chemscore.Hbonds>
donor molecule, donor type, donor heavy atom, donor atom, acceptor molecule, acceptor atom, score
      P1  H  7997  8010       L1     5  1.00
      P1  H 10752 10765       L1     3  2.00

> <Gold.PLP.Chemscore.Internal.Correction>
0.0011

> <Gold.Rescore>
     Score         DG    S(hbond)    S(metal)    S(lipo)     H(rot)  DE(clash)    DE(int)     intcor
     17.82     -18.07       1.42        0.00      95.39       1.29       0.14       0.11       ----

> <Gold.Chemscore.Fitness>
17.8206

> <Gold.Chemscore.DG>
-18.0719

> <Gold.Chemscore.ZeroCoef>
-5.4800

> <Gold.Chemscore.Hbond>
1.4205

> <Gold.Chemscore.Metal>
0.0000

> <Gold.Chemscore.Lipo>
95.3899

> <Gold.Chemscore.Internal_Hbond>
0.0000

> <Gold.Chemscore.DEClash>
0.1409

> <Gold.Chemscore.DEInternal>
0.1104

> <Gold.Chemscore.Rot>
1.2942

> <Gold.Chemscore.Internal.Correction>
   9.000000E+99

> <Gold.Chemscore.Hbonds>
donor molecule, donor type, donor heavy atom, donor atom, acceptor molecule, acceptor atom, score
      P1  H  7997  8010       L1     5  0.91
      P1  H 10752 10765       L1     3  0.25

> <Gold.Chemscore.Hbond.Weighted>
-4.7444

> <Gold.Chemscore.Metal.Weighted>
-0.0000

> <Gold.Chemscore.Lipo.Weighted>
-11.1606

> <Gold.Chemscore.Internal_Hbond.Weighted>
0.0000

> <Gold.Chemscore.DEClash.Weighted>
0.1409

> <Gold.Chemscore.DEInternal.Weighted>
0.1104

> <Gold.Chemscore.Rot.Weighted>
3.3131

> <Gold.Chemscore.Internal.Correction.Weighted>
   9.000000E+99

> <Gold.Protein.RotatedTorsions>
[ 6907 6896 6895 6894 ] final  -10.92 input  -60.11 | X-H torsion
[ 7974 7965 7964 7962 ] final    7.39 input  175.53 | X-H torsion
[ 8008 7997 7996 7995 ] final   89.67 input   59.86 | X-H torsion
[ 10167 10162 10161 10158 ] final  111.64 input  -65.29 | X-H torsion
[ 10718 10713 10712 10709 ] final   91.89 input   66.30 | X-H torsion
[ 10763 10752 10751 10750 ] final  173.15 input  -60.55 | X-H torsion
[ 11005 11000 10999 10996 ] final -160.12 input  -57.11 | X-H torsion

> <Gold.Protein.ActiveResidues>
 VAL166  LYS551  ARG553  GLY616  TRP617  ASP618  TYR619  PRO620  LYS621  CYS622 
 ASP623  PHE694  ASN695  SER759  ASP760  ASP761  ALA762  ILE779  LEU786  VAL792 
 PHE793  MET794  SER795  GLU796  ALA797  LYS798  CYS799  TRP800  GLU811  SER814 

> <Gold.Protein.RotatedAtoms>
  151.3944  135.0961  159.9536 H   0  0  0  0  0  0  0  0  0  0  0  0  # atno 6907 bound_to 6896
  152.5070  133.8948  159.7422 H   0  0  0  0  0  0  0  0  0  0  0  0  # atno 6908 bound_to 6896
  150.9409  133.6602  159.2819 H   0  0  0  0  0  0  0  0  0  0  0  0  # atno 6909 bound_to 6896
  146.2427  140.0090  142.8408 H   0  0  0  0  0  0  0  0  0  0  0  0  # atno 7974 bound_to 7965
  156.0027  140.3358  155.6862 H   0  0  0  0  0  0  0  0  0  0  0  0  # atno 8008 bound_to 7997
  155.6267  140.0681  157.2679 H   0  0  0  0  0  0  0  0  0  0  0  0  # atno 8009 bound_to 7997
  154.4254  140.1767  156.1417 H   0  0  0  0  0  0  0  0  0  0  0  0  # atno 8010 bound_to 7997
  139.6596  144.7129  151.1891 H   0  0  0  0  0  0  0  0  0  0  0  0  # atno 10167 bound_to 10162
  157.6959  131.0423  150.3798 H   0  0  0  0  0  0  0  0  0  0  0  0  # atno 10718 bound_to 10713
  154.4360  135.2761  155.1880 H   0  0  0  0  0  0  0  0  0  0  0  0  # atno 10763 bound_to 10752
  154.3766  135.6097  153.5772 H   0  0  0  0  0  0  0  0  0  0  0  0  # atno 10764 bound_to 10752
  152.9838  135.5870  154.4679 H   0  0  0  0  0  0  0  0  0  0  0  0  # atno 10765 bound_to 10752
  140.6350  134.4611  157.5231 H   0  0  0  0  0  0  0  0  0  0  0  0  # atno 11005 bound_to 11000
  145.1345  140.9537  143.4525 LP  0  0  0  0  0  0  0  0  0  0  0  0  # atno 17320 bound_to 7965
  145.0355  139.3304  143.6003 LP  0  0  0  0  0  0  0  0  0  0  0  0  # atno 17321 bound_to 7965
  140.7574  143.6016  150.8694 LP  0  0  0  0  0  0  0  0  0  0  0  0  # atno 17342 bound_to 10162
  139.9673  143.6097  152.2984 LP  0  0  0  0  0  0  0  0  0  0  0  0  # atno 17343 bound_to 10162
  156.4213  130.3953  149.6823 LP  0  0  0  0  0  0  0  0  0  0  0  0  # atno 17370 bound_to 10713
  156.4073  130.7704  151.2716 LP  0  0  0  0  0  0  0  0  0  0  0  0  # atno 17371 bound_to 10713
  139.9101  134.8362  156.1558 LP  0  0  0  0  0  0  0  0  0  0  0  0  # atno 17394 bound_to 11000
  141.0648  133.6824  156.2022 LP  0  0  0  0  0  0  0  0  0  0  0  0  # atno 17395 bound_to 11000

$$$$
