AV-unprocessed.smi:72|AV-procd|sdf|728|dock3
  -GOLD-   2262017 53D 1   1.00000     0.00000
 Structure written by MMmdl.
 28 29  0  0  0  0  0  0  0  0  2 V2000
  154.1198  138.2569  155.0070 N   0  0  0  0  0  0  0  0  0  0  0  0
  152.8750  138.4528  155.0498 C   0  0  0  0  0  0  0  0  0  0  0  0
  152.3601  139.7785  155.3153 N   0  0  0  0  0  0  0  0  0  0  0  0
  151.0718  139.9309  155.3538 C   0  0  0  0  0  0  0  0  0  0  0  0
  150.1592  138.8142  155.1438 N   0  0  0  0  0  0  0  0  0  0  0  0
  148.6506  138.9856  155.1839 C   0  0  1  0  0  0  0  0  0  0  0  0
  148.3296  140.3016  155.5423 O   0  0  0  0  0  0  0  0  0  0  0  0
  147.7095  140.9597  154.4444 C   0  0  2  0  0  0  0  0  0  0  0  0
  146.8687  142.1550  154.9271 C   0  0  0  0  0  0  0  0  0  0  0  0
  147.2018  142.5447  156.2437 O   0  0  0  0  0  0  0  0  0  0  0  0
  146.9738  139.8384  153.7107 C   0  0  1  0  0  0  0  0  0  0  0  0
  146.6429  140.1739  152.3757 O   0  0  0  0  0  0  0  0  0  0  0  0
  147.9674  138.6856  153.8245 C   0  0  1  0  0  0  0  0  0  0  0  0
  148.8720  138.6487  152.7302 O   0  0  0  0  0  0  0  0  0  0  0  0
  150.6934  137.5263  154.8752 C   0  0  0  0  0  0  0  0  0  0  0  0
  149.9041  136.6018  154.6787 O   0  0  0  0  0  0  0  0  0  0  0  0
  152.0464  137.3736  154.8359 N   0  5  0  0  0  0  0  0  0  0  0  0
  148.3016  138.3404  155.9918 H   0  0  0  0  0  0  0  0  0  0  0  0
  148.5113  141.3360  153.8066 H   0  0  0  0  0  0  0  0  0  0  0  0
  146.0632  139.5643  154.2441 H   0  0  0  0  0  0  0  0  0  0  0  0
  147.4592  137.7224  153.8789 H   0  0  0  0  0  0  0  0  0  0  0  0
  154.6538  139.0971  155.1738 H   0  0  0  0  0  0  0  0  0  0  0  0
  150.6014  140.8960  155.5414 H   0  0  0  0  0  0  0  0  0  0  0  0
  146.9883  143.0038  154.2535 H   0  0  0  0  0  0  0  0  0  0  0  0
  145.8120  141.8866  154.9168 H   0  0  0  0  0  0  0  0  0  0  0  0
  147.9643  143.1015  156.2076 H   0  0  0  0  0  0  0  0  0  0  0  0
  145.7497  140.4814  152.3594 H   0  0  0  0  0  0  0  0  0  0  0  0
  148.7055  137.8617  152.2332 H   0  0  0  0  0  0  0  0  0  0  0  0
  1  2  2  0  0  0  0
  1 22  1  0  0  0  0
  2 17  1  0  0  0  0
  2  3  1  0  0  0  0
  3  4  2  0  0  0  0
  4  5  1  0  0  0  0
  4 23  1  0  0  0  0
  5  6  1  0  0  0  0
  5 15  1  0  0  0  0
  6 18  1  0  0  0  0
  6 13  1  0  0  0  0
  6  7  1  0  0  0  0
  7  8  1  0  0  0  0
  8 19  1  0  0  0  0
  8  9  1  0  0  0  0
  8 11  1  0  0  0  0
  9 10  1  0  0  0  0
  9 24  1  0  0  0  0
  9 25  1  0  0  0  0
 10 26  1  0  0  0  0
 11 20  1  0  0  0  0
 11 12  1  0  0  0  0
 11 13  1  0  0  0  0
 12 27  1  0  0  0  0
 13 21  1  0  0  0  0
 13 14  1  0  0  0  0
 14 28  1  0  0  0  0
 15 16  2  0  0  0  0
 15 17  1  0  0  0  0
M  CHG  1  17  -1
M  END
> <s_m_source_file>
AV-unprocessed.smi

> <i_m_source_file_index>
72

> <i_lp_mmshare_version>
43012

> <i_f3d_flags>
0

> <s_epik_input>
W05IMl1jMW5bY0hdbihjKD1PKW4xKVtDQEBIXTJPW0NASF0oW0NIMl1bT0hdKVtDQEBIXShbT0hdKVtDQEhdMltPSF0=

> <s_epik_cmdline>
J2VwaWtfcHl0aG9uJywgJy1waCcsICc3LjAnLCAnLXRuJywgJzgnLCAnLW1hJywgJzIwMCcsICctbWV0YWxfYmluZGluZycsICctaW1hZScsICc8aW5maWxlLm1hZT4nLCAnLW9tYWUnLCAnPG91dGZpbGUubWFlPic=

> <r_lp_tautomer_probability>
7.17554e-07

> <r_epik_Ionization_Penalty>
12.8705

> <r_epik_Ionization_Penalty_Charging>
5.64144

> <r_epik_Ionization_Penalty_Neutral>
7.22905

> <r_epik_State_Penalty>
3.30104

> <r_epik_Charging_Adjusted_Penalty>
8.94249

> <i_epik_Tot_Q>
-1

> <i_epik_Tot_abs_Q>
1

> <r_epik_Metal_State_Penalty>
0.529074

> <b_epik_Metal_Only>
1

> <s_epik_Chemistry_Notes>
This compound contains an acetal/aminal-like group ( X-CH(R)-Y where X, Y are N, S, or O) that may be acid/base labile, releasing an aldehyde.

> <s_lp_Force_Field>
OPLS_2005

> <r_lp_Energy>
43.5119

> <b_lp_Chiralities_Consistent>
1

> <s_lp_Variant>
AV-unprocessed.smi:72-66

> <Gold.Version>
5.8.1

> <Gold.Id.Protein>
6NUR|6NUR_protein|mol2

> <Gold.PLP.Fitness>
38.5513

> <Gold.PLP.PLP>
-25.4232

> <Gold.PLP.part.hbond>
-7.2142

> <Gold.PLP.part.metal>
0.0000

> <Gold.PLP.part.buried>
-1.7679

> <Gold.PLP.part.nonpolar>
-17.6830

> <Gold.PLP.part.repulsive>
1.2341

> <Gold.PLP.ligand.clash>
0.0000

> <Gold.PLP.ligand.torsion>
0.6510

> <Gold.PLP.Chemscore.Hbond>
4.8021

> <Gold.PLP.Chemscore.CHOScore>
0.0000

> <Gold.PLP.Chemscore.Metal>
0.0000

> <Gold.Chemscore.Hbonds>
donor molecule, donor type, donor heavy atom, donor atom, acceptor molecule, acceptor atom, score
      L1  H    10    26       P1  8028  1.00
      L1  H    12    27       P1 10175  0.93
      L1  H    14    28       P1  7948  1.00
      P1  H  7997  8010       L1     3  0.12
      P1  H 10752 10765       L1    17  1.70

> <Gold.PLP.Chemscore.Internal.Correction>
0.0236

> <Gold.Rescore>
     Score         DG    S(hbond)    S(metal)    S(lipo)     H(rot)  DE(clash)    DE(int)     intcor
      5.68      -8.06       3.22        0.00      18.40       4.04       1.57       0.81       ----

> <Gold.Chemscore.Fitness>
5.6809

> <Gold.Chemscore.DG>
-8.0587

> <Gold.Chemscore.ZeroCoef>
-5.4800

> <Gold.Chemscore.Hbond>
3.2243

> <Gold.Chemscore.Metal>
0.0000

> <Gold.Chemscore.Lipo>
18.3984

> <Gold.Chemscore.Internal_Hbond>
0.0000

> <Gold.Chemscore.DEClash>
1.5669

> <Gold.Chemscore.DEInternal>
0.8109

> <Gold.Chemscore.Rot>
4.0403

> <Gold.Chemscore.Internal.Correction>
   9.000000E+99

> <Gold.Chemscore.Hbonds>
donor molecule, donor type, donor heavy atom, donor atom, acceptor molecule, acceptor atom, score
      L1  H    10    26       P1  8028  0.33
      L1  H    12    27       P1 10175  0.35
      L1  H    14    28       P1  7948  0.97
      P1  H 10752 10765       L1    17  0.75

> <Gold.Chemscore.Hbond.Weighted>
-10.7691

> <Gold.Chemscore.Metal.Weighted>
-0.0000

> <Gold.Chemscore.Lipo.Weighted>
-2.1526

> <Gold.Chemscore.Internal_Hbond.Weighted>
0.0000

> <Gold.Chemscore.DEClash.Weighted>
1.5669

> <Gold.Chemscore.DEInternal.Weighted>
0.8109

> <Gold.Chemscore.Rot.Weighted>
10.3431

> <Gold.Chemscore.Internal.Correction.Weighted>
   9.000000E+99

> <Gold.Protein.RotatedTorsions>
[ 6907 6896 6895 6894 ] final   86.04 input  -60.11 | X-H torsion
[ 7974 7965 7964 7962 ] final  121.42 input  175.53 | X-H torsion
[ 8008 7997 7996 7995 ] final   96.43 input   59.86 | X-H torsion
[ 10167 10162 10161 10158 ] final  149.84 input  -65.29 | X-H torsion
[ 10718 10713 10712 10709 ] final  -38.05 input   66.30 | X-H torsion
[ 10763 10752 10751 10750 ] final  166.39 input  -60.55 | X-H torsion
[ 11005 11000 10999 10996 ] final  108.30 input  -57.11 | X-H torsion

> <Gold.Protein.ActiveResidues>
 VAL166  LYS551  ARG553  GLY616  TRP617  ASP618  TYR619  PRO620  LYS621  CYS622 
 ASP623  PHE694  ASN695  SER759  ASP760  ASP761  ALA762  ILE779  LEU786  VAL792 
 PHE793  MET794  SER795  GLU796  ALA797  LYS798  CYS799  TRP800  GLU811  SER814 

> <Gold.Protein.RotatedAtoms>
  152.5387  134.2492  159.8891 H   0  0  0  0  0  0  0  0  0  0  0  0  # atno 6907 bound_to 6896
  151.2456  133.4370  159.2617 H   0  0  0  0  0  0  0  0  0  0  0  0  # atno 6908 bound_to 6896
  151.0586  134.9735  159.8305 H   0  0  0  0  0  0  0  0  0  0  0  0  # atno 6909 bound_to 6896
  145.1195  139.3398  143.4721 H   0  0  0  0  0  0  0  0  0  0  0  0  # atno 7974 bound_to 7965
  156.0796  140.3272  155.7677 H   0  0  0  0  0  0  0  0  0  0  0  0  # atno 8008 bound_to 7997
  155.5175  140.0582  157.2930 H   0  0  0  0  0  0  0  0  0  0  0  0  # atno 8009 bound_to 7997
  154.4574  140.1950  156.0356 H   0  0  0  0  0  0  0  0  0  0  0  0  # atno 8010 bound_to 7997
  139.4857  144.5570  151.7300 H   0  0  0  0  0  0  0  0  0  0  0  0  # atno 10167 bound_to 10162
  156.3082  130.4249  149.8076 H   0  0  0  0  0  0  0  0  0  0  0  0  # atno 10718 bound_to 10713
  154.3382  135.2754  155.2436 H   0  0  0  0  0  0  0  0  0  0  0  0  # atno 10763 bound_to 10752
  154.4718  135.5881  153.6331 H   0  0  0  0  0  0  0  0  0  0  0  0  # atno 10764 bound_to 10752
  152.9860  135.6090  154.3581 H   0  0  0  0  0  0  0  0  0  0  0  0  # atno 10765 bound_to 10752
  139.8842  134.9426  156.5951 H   0  0  0  0  0  0  0  0  0  0  0  0  # atno 11005 bound_to 11000
  146.3522  140.1148  142.8602 LP  0  0  0  0  0  0  0  0  0  0  0  0  # atno 17320 bound_to 7965
  145.0756  140.9186  143.4856 LP  0  0  0  0  0  0  0  0  0  0  0  0  # atno 17321 bound_to 7965
  140.5133  144.0992  150.6001 LP  0  0  0  0  0  0  0  0  0  0  0  0  # atno 17342 bound_to 10162
  140.3925  143.2745  152.0044 LP  0  0  0  0  0  0  0  0  0  0  0  0  # atno 17343 bound_to 10162
  156.5430  130.8308  151.3275 LP  0  0  0  0  0  0  0  0  0  0  0  0  # atno 17370 bound_to 10713
  157.7384  130.9814  150.2253 LP  0  0  0  0  0  0  0  0  0  0  0  0  # atno 17371 bound_to 10713
  140.7926  133.8570  155.8659 LP  0  0  0  0  0  0  0  0  0  0  0  0  # atno 17394 bound_to 11000
  140.9664  134.1589  157.4613 LP  0  0  0  0  0  0  0  0  0  0  0  0  # atno 17395 bound_to 11000

$$$$
