AV-unprocessed.smi:1701|AV-procd|sdf|6828|dock2
  -GOLD-   22720 8 03D 1   1.00000     0.00000
 Structure written by MMmdl.
 55 57  0  0  0  0  0  0  0  0  3 V2000
  146.0341  130.1719  152.2167 C   0  0  0  0  0  0  0  0  0  0  0  0
  145.6720  131.5928  152.6747 C   0  0  0  0  0  0  0  0  0  0  0  0
  145.1892  132.4465  151.5889 N   0  0  0  0  0  0  0  0  0  0  0  0
  145.0896  131.8982  150.2340 C   0  0  0  0  0  0  0  0  0  0  0  0
  144.0743  132.6419  149.3533 C   0  0  0  0  0  0  0  0  0  0  0  0
  144.6461  133.7231  151.8750 C   0  0  0  0  0  0  0  0  0  0  0  0
  144.9643  134.8932  151.1410 C   0  0  0  0  0  0  0  0  0  0  0  0
  144.3814  136.1275  151.4935 C   0  0  0  0  0  0  0  0  0  0  0  0
  143.4744  136.1957  152.5707 C   0  0  0  0  0  0  0  0  0  0  0  0
  142.9279  137.4679  152.8932 N   0  0  0  0  0  0  0  0  0  0  0  0
  141.7894  137.7595  153.5539 C   0  0  0  0  0  0  0  0  0  0  0  0
  140.9886  136.9274  153.9726 O   0  0  0  0  0  0  0  0  0  0  0  0
  141.5651  139.0764  153.7098 N   0  0  0  0  0  0  0  0  0  0  0  0
  140.4338  139.7266  154.3737 C   0  0  1  0  0  0  0  0  0  0  0  0
  140.5317  141.2606  154.4195 C   0  0  0  0  0  0  0  0  0  0  0  0
  139.0987  141.7719  154.1689 C   0  0  0  0  0  0  0  0  0  0  0  0
  138.2286  140.5764  154.0848 N   0  3  2  0  0  0  0  0  0  0  0  0
  137.5361  140.2960  155.3727 C   0  0  0  0  0  0  0  0  0  0  0  0
  136.8247  138.9369  155.3619 C   0  0  0  0  0  0  0  0  0  0  0  0
  137.8269  137.8186  155.0666 C   0  0  0  0  0  0  0  0  0  0  0  0
  138.5038  138.0819  153.7170 C   0  0  0  0  0  0  0  0  0  0  0  0
  139.1246  139.4933  153.6124 C   0  0  2  0  0  0  0  0  0  0  0  0
  143.1908  135.0039  153.2780 C   0  0  0  0  0  0  0  0  0  0  0  0
  143.7740  133.8439  152.9063 N   0  3  0  0  0  0  0  0  0  0  0  0
  146.3447  129.5657  153.0677 H   0  0  0  0  0  0  0  0  0  0  0  0
  146.8592  130.1758  151.5060 H   0  0  0  0  0  0  0  0  0  0  0  0
  145.1885  129.6700  151.7462 H   0  0  0  0  0  0  0  0  0  0  0  0
  144.9382  131.5597  153.4795 H   0  0  0  0  0  0  0  0  0  0  0  0
  146.5555  132.0545  153.1164 H   0  0  0  0  0  0  0  0  0  0  0  0
  146.0704  131.8967  149.7576 H   0  0  0  0  0  0  0  0  0  0  0  0
  144.8002  130.8490  150.2982 H   0  0  0  0  0  0  0  0  0  0  0  0
  144.0521  132.2128  148.3515 H   0  0  0  0  0  0  0  0  0  0  0  0
  144.3265  133.6976  149.2522 H   0  0  0  0  0  0  0  0  0  0  0  0
  143.0648  132.5761  149.7562 H   0  0  0  0  0  0  0  0  0  0  0  0
  145.6545  134.8734  150.3118 H   0  0  0  0  0  0  0  0  0  0  0  0
  144.6322  137.0163  150.9334 H   0  0  0  0  0  0  0  0  0  0  0  0
  143.4506  138.2603  152.5507 H   0  0  0  0  0  0  0  0  0  0  0  0
  142.2506  139.6966  153.3024 H   0  0  0  0  0  0  0  0  0  0  0  0
  140.3282  139.3396  155.3885 H   0  0  0  0  0  0  0  0  0  0  0  0
  140.9180  141.5987  155.3816 H   0  0  0  0  0  0  0  0  0  0  0  0
  141.2005  141.6416  153.6461 H   0  0  0  0  0  0  0  0  0  0  0  0
  138.7685  142.4779  154.9325 H   0  0  0  0  0  0  0  0  0  0  0  0
  139.0588  142.2919  153.2109 H   0  0  0  0  0  0  0  0  0  0  0  0
  138.2537  140.3204  156.1943 H   0  0  0  0  0  0  0  0  0  0  0  0
  136.8141  141.0900  155.5677 H   0  0  0  0  0  0  0  0  0  0  0  0
  136.3447  138.7610  156.3251 H   0  0  0  0  0  0  0  0  0  0  0  0
  136.0311  138.9362  154.6134 H   0  0  0  0  0  0  0  0  0  0  0  0
  138.5728  137.7634  155.8602 H   0  0  0  0  0  0  0  0  0  0  0  0
  137.3195  136.8536  155.0496 H   0  0  0  0  0  0  0  0  0  0  0  0
  139.2597  137.3208  153.5208 H   0  0  0  0  0  0  0  0  0  0  0  0
  137.7568  137.9714  152.9297 H   0  0  0  0  0  0  0  0  0  0  0  0
  139.3153  139.6884  152.5550 H   0  0  0  0  0  0  0  0  0  0  0  0
  142.5348  134.9234  154.1311 H   0  0  0  0  0  0  0  0  0  0  0  0
  137.5129  140.7313  153.3889 H   0  0  0  0  0  0  0  0  0  0  0  0
  143.5462  133.0051  153.4402 H   0  0  0  0  0  0  0  0  0  0  0  0
  1  2  1  0  0  0  0
  1 25  1  0  0  0  0
  1 26  1  0  0  0  0
  1 27  1  0  0  0  0
  2  3  1  0  0  0  0
  2 28  1  0  0  0  0
  2 29  1  0  0  0  0
  3  4  1  0  0  0  0
  3  6  1  0  0  0  0
  4  5  1  0  0  0  0
  4 30  1  0  0  0  0
  4 31  1  0  0  0  0
  5 32  1  0  0  0  0
  5 33  1  0  0  0  0
  5 34  1  0  0  0  0
  6 24  1  0  0  0  0
  6  7  2  0  0  0  0
  7  8  1  0  0  0  0
  7 35  1  0  0  0  0
  8  9  2  0  0  0  0
  8 36  1  0  0  0  0
  9 10  1  0  0  0  0
  9 23  1  0  0  0  0
 10 11  1  0  0  0  0
 10 37  1  0  0  0  0
 11 12  2  0  0  0  0
 11 13  1  0  0  0  0
 13 14  1  0  0  0  0
 13 38  1  0  0  0  0
 14 22  1  0  0  0  0
 14 15  1  0  0  0  0
 14 39  1  0  0  0  0
 15 16  1  0  0  0  0
 15 40  1  0  0  0  0
 15 41  1  0  0  0  0
 16 17  1  0  0  0  0
 16 42  1  0  0  0  0
 16 43  1  0  0  0  0
 17 22  1  0  0  0  0
 17 18  1  0  0  0  0
 17 54  1  0  0  0  0
 18 19  1  0  0  0  0
 18 44  1  0  0  0  0
 18 45  1  0  0  0  0
 19 20  1  0  0  0  0
 19 46  1  0  0  0  0
 19 47  1  0  0  0  0
 20 21  1  0  0  0  0
 20 48  1  0  0  0  0
 20 49  1  0  0  0  0
 21 22  1  0  0  0  0
 21 50  1  0  0  0  0
 21 51  1  0  0  0  0
 22 52  1  0  0  0  0
 23 24  2  0  0  0  0
 23 53  1  0  0  0  0
 24 55  1  0  0  0  0
M  CHG  1  17   1
M  CHG  1  24   1
M  END
> <s_m_source_file>
AV-unprocessed.smi

> <i_m_source_file_index>
1701

> <i_lp_mmshare_version>
43012

> <i_f3d_flags>
0

> <s_epik_input>
W0NIM11bQ0gyXU4oW0NIMl1bQ0gzXSljMVtjSF1bY0hdYyhbY0hdbjEpW05IXUMoPU8pW05IXVtDQEhdKFtDSDJdW0NIMl0yKVtDQEBIXShOMjMpW0NIMl1bQ0gyXVtDSDJdW0NIMl0z

> <s_epik_cmdline>
J2VwaWtfcHl0aG9uJywgJy1waCcsICc3LjAnLCAnLXRuJywgJzgnLCAnLW1hJywgJzIwMCcsICctbWV0YWxfYmluZGluZycsICctaW1hZScsICc8aW5maWxlLm1hZT4nLCAnLW9tYWUnLCAnPG91dGZpbGUubWFlPic=

> <r_lp_tautomer_probability>
0.999994

> <r_epik_Ionization_Penalty>
0.302862

> <r_epik_Ionization_Penalty_Charging>
0.302842

> <r_epik_Ionization_Penalty_Neutral>
1.95166e-05

> <r_epik_State_Penalty>
0.019791

> <r_epik_Charging_Adjusted_Penalty>
0.322633

> <i_epik_Tot_Q>
2

> <i_epik_Tot_abs_Q>
2

> <r_epik_Metal_State_Penalty>
0.0536763

> <b_epik_Metal_Only>
0

> <s_lp_Force_Field>
OPLS_2005

> <r_lp_Energy>
65.6354

> <b_lp_Chiralities_Consistent>
1

> <s_lp_Variant>
AV-unprocessed.smi:1701-8

> <Gold.Version>
5.8.1

> <Gold.Id.Protein>
6NUR|6NUR_protein|mol2

> <Gold.PLP.Fitness>
50.0473

> <Gold.PLP.PLP>
-41.5992

> <Gold.PLP.part.hbond>
-3.0966

> <Gold.PLP.part.metal>
0.0000

> <Gold.PLP.part.buried>
-5.7300

> <Gold.PLP.part.nonpolar>
-33.4857

> <Gold.PLP.part.repulsive>
0.1387

> <Gold.PLP.ligand.clash>
0.0000

> <Gold.PLP.ligand.torsion>
1.2890

> <Gold.PLP.Chemscore.Hbond>
3.5829

> <Gold.PLP.Chemscore.CHOScore>
0.0000

> <Gold.PLP.Chemscore.Metal>
0.0000

> <Gold.Chemscore.Hbonds>
donor molecule, donor type, donor heavy atom, donor atom, acceptor molecule, acceptor atom, score
      L1  H    10    37       P1 10175  0.58
      L1  H    13    38       P1 10175  1.00
      L1  H    24    55       P1 10957  2.00

> <Gold.PLP.Chemscore.Internal.Correction>
0.2774

> <Gold.Rescore>
     Score         DG    S(hbond)    S(metal)    S(lipo)     H(rot)  DE(clash)    DE(int)     intcor
     17.85     -21.74       2.65        0.00      91.81       1.30       0.05       3.85       ----

> <Gold.Chemscore.Fitness>
17.8451

> <Gold.Chemscore.DG>
-21.7408

> <Gold.Chemscore.ZeroCoef>
-5.4800

> <Gold.Chemscore.Hbond>
2.6504

> <Gold.Chemscore.Metal>
0.0000

> <Gold.Chemscore.Lipo>
91.8062

> <Gold.Chemscore.Internal_Hbond>
0.0000

> <Gold.Chemscore.DEClash>
0.0456

> <Gold.Chemscore.DEInternal>
3.8500

> <Gold.Chemscore.Rot>
1.3020

> <Gold.Chemscore.Internal.Correction>
   9.000000E+99

> <Gold.Chemscore.Hbonds>
donor molecule, donor type, donor heavy atom, donor atom, acceptor molecule, acceptor atom, score
      L1  H    10    37       P1 10175  0.57
      L1  H    13    38       P1 10175  0.93
      L1  H    24    55       P1 10957  0.80

> <Gold.Chemscore.Hbond.Weighted>
-8.8525

> <Gold.Chemscore.Metal.Weighted>
-0.0000

> <Gold.Chemscore.Lipo.Weighted>
-10.7413

> <Gold.Chemscore.Internal_Hbond.Weighted>
0.0000

> <Gold.Chemscore.DEClash.Weighted>
0.0456

> <Gold.Chemscore.DEInternal.Weighted>
3.8500

> <Gold.Chemscore.Rot.Weighted>
3.3330

> <Gold.Chemscore.Internal.Correction.Weighted>
   9.000000E+99

> <Gold.Protein.RotatedTorsions>
[ 6907 6896 6895 6894 ] final  118.90 input  -60.11 | X-H torsion
[ 7974 7965 7964 7962 ] final   19.32 input  175.53 | X-H torsion
[ 8008 7997 7996 7995 ] final  -21.14 input   59.86 | X-H torsion
[ 10167 10162 10161 10158 ] final -130.91 input  -65.29 | X-H torsion
[ 10718 10713 10712 10709 ] final  113.63 input   66.30 | X-H torsion
[ 10763 10752 10751 10750 ] final  -70.99 input  -60.55 | X-H torsion
[ 11005 11000 10999 10996 ] final -147.86 input  -57.11 | X-H torsion

> <Gold.Protein.ActiveResidues>
 VAL166  LYS551  ARG553  GLY616  TRP617  ASP618  TYR619  PRO620  LYS621  CYS622 
 ASP623  PHE694  ASN695  SER759  ASP760  ASP761  ALA762  ILE779  LEU786  VAL792 
 PHE793  MET794  SER795  GLU796  ALA797  LYS798  CYS799  TRP800  GLU811  SER814 

> <Gold.Protein.RotatedAtoms>
  152.4510  133.7629  159.6756 H   0  0  0  0  0  0  0  0  0  0  0  0  # atno 6907 bound_to 6896
  150.8422  133.7908  159.3063 H   0  0  0  0  0  0  0  0  0  0  0  0  # atno 6908 bound_to 6896
  151.5529  135.1070  160.0006 H   0  0  0  0  0  0  0  0  0  0  0  0  # atno 6909 bound_to 6896
  146.2153  139.8330  142.8656 H   0  0  0  0  0  0  0  0  0  0  0  0  # atno 7974 bound_to 7965
  154.4724  140.2043  155.9961 H   0  0  0  0  0  0  0  0  0  0  0  0  # atno 8008 bound_to 7997
  156.1033  140.3240  155.7942 H   0  0  0  0  0  0  0  0  0  0  0  0  # atno 8009 bound_to 7997
  155.4760  140.0535  157.2964 H   0  0  0  0  0  0  0  0  0  0  0  0  # atno 8010 bound_to 7997
  139.9244  143.6344  152.2545 H   0  0  0  0  0  0  0  0  0  0  0  0  # atno 10167 bound_to 10162
  157.6327  131.0986  150.7069 H   0  0  0  0  0  0  0  0  0  0  0  0  # atno 10718 bound_to 10713
  154.4254  135.5976  153.6036 H   0  0  0  0  0  0  0  0  0  0  0  0  # atno 10763 bound_to 10752
  152.9796  135.5962  154.3903 H   0  0  0  0  0  0  0  0  0  0  0  0  # atno 10764 bound_to 10752
  154.3734  135.2841  155.2231 H   0  0  0  0  0  0  0  0  0  0  0  0  # atno 10765 bound_to 10752
  140.7672  134.3230  157.5085 H   0  0  0  0  0  0  0  0  0  0  0  0  # atno 11005 bound_to 11000
  145.2978  141.0185  143.3626 LP  0  0  0  0  0  0  0  0  0  0  0  0  # atno 17320 bound_to 7965
  144.9029  139.4627  143.6624 LP  0  0  0  0  0  0  0  0  0  0  0  0  # atno 17321 bound_to 7965
  139.6834  144.7653  151.1567 LP  0  0  0  0  0  0  0  0  0  0  0  0  # atno 17342 bound_to 10162
  140.7654  143.5692  150.9015 LP  0  0  0  0  0  0  0  0  0  0  0  0  # atno 17343 bound_to 10162
  156.7406  130.4738  149.5478 LP  0  0  0  0  0  0  0  0  0  0  0  0  # atno 17370 bound_to 10713
  156.1542  130.6331  151.0636 LP  0  0  0  0  0  0  0  0  0  0  0  0  # atno 17371 bound_to 10713
  139.8761  134.9239  156.3335 LP  0  0  0  0  0  0  0  0  0  0  0  0  # atno 17394 bound_to 11000
  140.9607  133.7390  156.0398 LP  0  0  0  0  0  0  0  0  0  0  0  0  # atno 17395 bound_to 11000

$$$$
