AV-unprocessed.smi:2530|AV-procd|sdf|9963|dock2
  -GOLD-   2272014 03D 1   1.00000     0.00000
 Structure written by MMmdl.
 44 46  0  0  0  0  0  0  0  0  1 V2000
  152.8758  138.3312  159.7484 C   0  0  0  0  0  0  0  0  0  0  0  0
  152.7548  139.8350  159.6149 C   0  0  0  0  0  0  0  0  0  0  0  0
  153.5582  140.6827  160.3999 C   0  0  0  0  0  0  0  0  0  0  0  0
  153.4381  142.0784  160.2747 C   0  0  0  0  0  0  0  0  0  0  0  0
  152.5213  142.6430  159.3622 C   0  0  0  0  0  0  0  0  0  0  0  0
  152.4200  144.1565  159.2800 C   0  0  0  0  0  0  0  0  0  0  0  0
  151.7179  141.7938  158.5553 C   0  0  0  0  0  0  0  0  0  0  0  0
  150.7084  142.3536  157.5522 C   0  0  1  0  0  0  0  0  0  0  0  0
  151.3288  143.2174  156.6184 O   0  0  0  0  0  0  0  0  0  0  0  0
  150.0102  141.2114  156.7804 C   0  0  0  0  0  0  0  0  0  0  0  0
  148.8455  141.6787  156.0089 N   0  0  0  0  0  0  0  0  0  0  0  0
  147.7774  142.2168  156.7526 C   0  0  0  0  0  0  0  0  0  0  0  0
  146.7033  142.6608  156.1812 N   0  0  0  0  0  0  0  0  0  0  0  0
  146.5842  142.6093  154.7877 C   0  0  0  0  0  0  0  0  0  0  0  0
  145.2887  143.1207  154.1726 C   0  0  0  0  0  0  0  0  0  0  0  0
  145.4134  144.3417  153.2455 C   0  0  0  0  0  0  0  0  0  0  0  0
  144.1019  144.8546  153.8504 C   0  0  0  0  0  0  0  0  0  0  0  0
  144.4113  143.9964  155.0822 C   0  0  0  0  0  0  0  0  0  0  0  0
  147.5806  142.0921  154.0303 C   0  0  0  0  0  0  0  0  0  0  0  0
  148.8073  141.5877  154.6475 C   0  0  0  0  0  0  0  0  0  0  0  0
  149.7331  141.1147  153.9887 O   0  0  0  0  0  0  0  0  0  0  0  0
  151.8404  140.3921  158.6996 C   0  0  0  0  0  0  0  0  0  0  0  0
  153.2188  138.0544  160.7459 H   0  0  0  0  0  0  0  0  0  0  0  0
  153.5894  137.9461  159.0199 H   0  0  0  0  0  0  0  0  0  0  0  0
  151.9136  137.8479  159.5763 H   0  0  0  0  0  0  0  0  0  0  0  0
  154.2654  140.2664  161.1026 H   0  0  0  0  0  0  0  0  0  0  0  0
  154.0563  142.7166  160.8890 H   0  0  0  0  0  0  0  0  0  0  0  0
  152.7407  144.5104  158.3001 H   0  0  0  0  0  0  0  0  0  0  0  0
  153.0481  144.6385  160.0297 H   0  0  0  0  0  0  0  0  0  0  0  0
  151.3941  144.4806  159.4530 H   0  0  0  0  0  0  0  0  0  0  0  0
  149.9683  142.9572  158.0747 H   0  0  0  0  0  0  0  0  0  0  0  0
  150.6547  143.7057  156.1706 H   0  0  0  0  0  0  0  0  0  0  0  0
  150.7313  140.6815  156.1544 H   0  0  0  0  0  0  0  0  0  0  0  0
  149.6656  140.4589  157.4920 H   0  0  0  0  0  0  0  0  0  0  0  0
  147.9181  142.2286  157.8348 H   0  0  0  0  0  0  0  0  0  0  0  0
  144.7164  142.3155  153.7081 H   0  0  0  0  0  0  0  0  0  0  0  0
  146.2593  144.9893  153.4840 H   0  0  0  0  0  0  0  0  0  0  0  0
  145.3675  144.1129  152.1804 H   0  0  0  0  0  0  0  0  0  0  0  0
  144.0729  145.9286  154.0364 H   0  0  0  0  0  0  0  0  0  0  0  0
  143.2207  144.5125  153.3054 H   0  0  0  0  0  0  0  0  0  0  0  0
  143.5487  143.4869  155.5128 H   0  0  0  0  0  0  0  0  0  0  0  0
  144.9773  144.5434  155.8386 H   0  0  0  0  0  0  0  0  0  0  0  0
  147.4775  142.0482  152.9559 H   0  0  0  0  0  0  0  0  0  0  0  0
  151.2259  139.7330  158.1035 H   0  0  0  0  0  0  0  0  0  0  0  0
  1  2  1  0  0  0  0
  1 23  1  0  0  0  0
  1 24  1  0  0  0  0
  1 25  1  0  0  0  0
  2 22  1  0  0  0  0
  2  3  2  0  0  0  0
  3  4  1  0  0  0  0
  3 26  1  0  0  0  0
  4  5  2  0  0  0  0
  4 27  1  0  0  0  0
  5  6  1  0  0  0  0
  5  7  1  0  0  0  0
  6 28  1  0  0  0  0
  6 29  1  0  0  0  0
  6 30  1  0  0  0  0
  7  8  1  0  0  0  0
  7 22  2  0  0  0  0
  8  9  1  0  0  0  0
  8 10  1  0  0  0  0
  8 31  1  0  0  0  0
  9 32  1  0  0  0  0
 10 11  1  0  0  0  0
 10 33  1  0  0  0  0
 10 34  1  0  0  0  0
 11 20  1  0  0  0  0
 11 12  1  0  0  0  0
 12 13  2  0  0  0  0
 12 35  1  0  0  0  0
 13 14  1  0  0  0  0
 14 15  1  0  0  0  0
 14 19  2  0  0  0  0
 15 18  1  0  0  0  0
 15 16  1  0  0  0  0
 15 36  1  0  0  0  0
 16 17  1  0  0  0  0
 16 37  1  0  0  0  0
 16 38  1  0  0  0  0
 17 18  1  0  0  0  0
 17 39  1  0  0  0  0
 17 40  1  0  0  0  0
 18 41  1  0  0  0  0
 18 42  1  0  0  0  0
 19 20  1  0  0  0  0
 19 43  1  0  0  0  0
 20 21  2  0  0  0  0
 22 44  1  0  0  0  0
M  END
> <s_m_source_file>
AV-unprocessed.smi

> <i_m_source_file_index>
2530

> <i_lp_mmshare_version>
43012

> <i_f3d_flags>
0

> <s_epik_input>
W0NIM11jMVtjSF1bY0hdYyhbQ0gzXSljKFtjSF0xKVtDQEhdKFtPSF0pW0NIMl1uMltjSF1uYyhbY0hdYzI9TylbQ0hdM1tDSDJdW0NIMl1bQ0gyXTM=

> <s_epik_cmdline>
J2VwaWtfcHl0aG9uJywgJy1waCcsICc3LjAnLCAnLXRuJywgJzgnLCAnLW1hJywgJzIwMCcsICctbWV0YWxfYmluZGluZycsICctaW1hZScsICc8aW5maWxlLm1hZT4nLCAnLW9tYWUnLCAnPG91dGZpbGUubWFlPic=

> <r_lp_tautomer_probability>
1

> <r_epik_Ionization_Penalty>
2.57341e-05

> <r_epik_Ionization_Penalty_Charging>
5.39435e-08

> <r_epik_Ionization_Penalty_Neutral>
2.56801e-05

> <r_epik_State_Penalty>
-0

> <r_epik_Charging_Adjusted_Penalty>
5.39435e-08

> <i_epik_Tot_Q>
0

> <i_epik_Tot_abs_Q>
0

> <r_epik_Metal_State_Penalty>
-0

> <b_epik_Metal_Only>
0

> <s_lp_Force_Field>
OPLS_2005

> <r_lp_Energy>
28.9103

> <b_lp_Chiralities_Consistent>
1

> <s_lp_Variant>
AV-unprocessed.smi:2530-2

> <Gold.Version>
5.8.1

> <Gold.Id.Protein>
6NUR|6NUR_protein|mol2

> <Gold.PLP.Fitness>
52.4576

> <Gold.PLP.PLP>
-46.5160

> <Gold.PLP.part.hbond>
-3.0000

> <Gold.PLP.part.metal>
0.0000

> <Gold.PLP.part.buried>
-1.1319

> <Gold.PLP.part.nonpolar>
-42.9709

> <Gold.PLP.part.repulsive>
0.9433

> <Gold.PLP.ligand.clash>
0.0000

> <Gold.PLP.ligand.torsion>
0.3005

> <Gold.PLP.Chemscore.Hbond>
2.0496

> <Gold.PLP.Chemscore.CHOScore>
0.0000

> <Gold.PLP.Chemscore.Metal>
0.0000

> <Gold.Chemscore.Hbonds>
donor molecule, donor type, donor heavy atom, donor atom, acceptor molecule, acceptor atom, score
      L1  H     9    32       P1  8028  0.86
      P1  H  7989  7998       L1    21  0.38
      P1  H  8011  8017       L1    21  0.66

> <Gold.PLP.Chemscore.Internal.Correction>
0.3937

> <Gold.Rescore>
     Score         DG    S(hbond)    S(metal)    S(lipo)     H(rot)  DE(clash)    DE(int)     intcor
     19.47     -20.16       1.78        0.00     117.57       1.97       0.24       0.44       ----

> <Gold.Chemscore.Fitness>
19.4699

> <Gold.Chemscore.DG>
-20.1558

> <Gold.Chemscore.ZeroCoef>
-5.4800

> <Gold.Chemscore.Hbond>
1.7844

> <Gold.Chemscore.Metal>
0.0000

> <Gold.Chemscore.Lipo>
117.5654

> <Gold.Chemscore.Internal_Hbond>
0.0000

> <Gold.Chemscore.DEClash>
0.2432

> <Gold.Chemscore.DEInternal>
0.4427

> <Gold.Chemscore.Rot>
1.9684

> <Gold.Chemscore.Internal.Correction>
   9.000000E+99

> <Gold.Chemscore.Hbonds>
donor molecule, donor type, donor heavy atom, donor atom, acceptor molecule, acceptor atom, score
      L1  H     9    32       P1  8028  0.84
      P1  H  7989  7998       L1    21  0.38
      P1  H  8011  8017       L1    21  0.23

> <Gold.Chemscore.Hbond.Weighted>
-5.9598

> <Gold.Chemscore.Metal.Weighted>
-0.0000

> <Gold.Chemscore.Lipo.Weighted>
-13.7552

> <Gold.Chemscore.Internal_Hbond.Weighted>
0.0000

> <Gold.Chemscore.DEClash.Weighted>
0.2432

> <Gold.Chemscore.DEInternal.Weighted>
0.4427

> <Gold.Chemscore.Rot.Weighted>
5.0391

> <Gold.Chemscore.Internal.Correction.Weighted>
   9.000000E+99

> <Gold.Protein.RotatedTorsions>
[ 6907 6896 6895 6894 ] final  110.25 input  -60.11 | X-H torsion
[ 7974 7965 7964 7962 ] final   48.85 input  175.53 | X-H torsion
[ 8008 7997 7996 7995 ] final   52.34 input   59.86 | X-H torsion
[ 10167 10162 10161 10158 ] final  -59.16 input  -65.29 | X-H torsion
[ 10718 10713 10712 10709 ] final  134.70 input   66.30 | X-H torsion
[ 10763 10752 10751 10750 ] final  148.52 input  -60.55 | X-H torsion
[ 11005 11000 10999 10996 ] final  122.79 input  -57.11 | X-H torsion

> <Gold.Protein.ActiveResidues>
 VAL166  LYS551  ARG553  GLY616  TRP617  ASP618  TYR619  PRO620  LYS621  CYS622 
 ASP623  PHE694  ASN695  SER759  ASP760  ASP761  ALA762  ILE779  LEU786  VAL792 
 PHE793  MET794  SER795  GLU796  ALA797  LYS798  CYS799  TRP800  GLU811  SER814 

> <Gold.Protein.RotatedAtoms>
  152.5029  133.8827  159.7354 H   0  0  0  0  0  0  0  0  0  0  0  0  # atno 6907 bound_to 6896
  150.9286  133.6785  159.2822 H   0  0  0  0  0  0  0  0  0  0  0  0  # atno 6908 bound_to 6896
  151.4138  135.0993  159.9645 H   0  0  0  0  0  0  0  0  0  0  0  0  # atno 6909 bound_to 6896
  146.0165  139.4602  142.9924 H   0  0  0  0  0  0  0  0  0  0  0  0  # atno 7974 bound_to 7965
  155.4502  140.3458  155.4300 H   0  0  0  0  0  0  0  0  0  0  0  0  # atno 8008 bound_to 7997
  156.1225  140.1491  156.9214 H   0  0  0  0  0  0  0  0  0  0  0  0  # atno 8009 bound_to 7997
  154.4834  140.0863  156.7409 H   0  0  0  0  0  0  0  0  0  0  0  0  # atno 8010 bound_to 7997
  140.6152  143.2400  151.5613 H   0  0  0  0  0  0  0  0  0  0  0  0  # atno 10167 bound_to 10162
  157.4646  131.1076  150.9878 H   0  0  0  0  0  0  0  0  0  0  0  0  # atno 10718 bound_to 10713
  154.0560  135.2878  155.3332 H   0  0  0  0  0  0  0  0  0  0  0  0  # atno 10763 bound_to 10752
  154.6838  135.5253  153.8302 H   0  0  0  0  0  0  0  0  0  0  0  0  # atno 10764 bound_to 10752
  153.0541  135.6588  154.0753 H   0  0  0  0  0  0  0  0  0  0  0  0  # atno 10765 bound_to 10752
  139.9283  134.9641  156.8161 H   0  0  0  0  0  0  0  0  0  0  0  0  # atno 11005 bound_to 11000
  145.7260  141.0058  143.1377 LP  0  0  0  0  0  0  0  0  0  0  0  0  # atno 17320 bound_to 7965
  144.6973  139.8928  143.7454 LP  0  0  0  0  0  0  0  0  0  0  0  0  # atno 17321 bound_to 7965
  139.5393  144.2692  152.1318 LP  0  0  0  0  0  0  0  0  0  0  0  0  # atno 17342 bound_to 10162
  140.1900  144.4761  150.6484 LP  0  0  0  0  0  0  0  0  0  0  0  0  # atno 17343 bound_to 10162
  157.0664  130.5846  149.5394 LP  0  0  0  0  0  0  0  0  0  0  0  0  # atno 17370 bound_to 10713
  156.0044  130.5129  150.7779 LP  0  0  0  0  0  0  0  0  0  0  0  0  # atno 17371 bound_to 10713
  140.6272  133.9939  155.7645 LP  0  0  0  0  0  0  0  0  0  0  0  0  # atno 17394 bound_to 11000
  141.0856  133.9995  157.3318 LP  0  0  0  0  0  0  0  0  0  0  0  0  # atno 17395 bound_to 11000

$$$$
