AV-unprocessed.smi:72|AV-procd|sdf|743|dock1
  -GOLD-   2262017 73D 1   1.00000     0.00000
 Structure written by MMmdl.
 29 30  0  0  0  0  0  0  0  0  1 V2000
  152.4173  140.8090  158.9372 N   0  0  0  0  0  0  0  0  0  0  0  0
  151.7020  140.7040  157.7628 C   0  0  0  0  0  0  0  0  0  0  0  0
  150.3687  141.1348  157.8049 N   0  0  0  0  0  0  0  0  0  0  0  0
  149.6979  141.0517  156.7000 C   0  0  0  0  0  0  0  0  0  0  0  0
  150.3069  140.5444  155.4839 N   0  0  0  0  0  0  0  0  0  0  0  0
  149.5184  140.4477  154.1973 C   0  0  2  0  0  0  0  0  0  0  0  0
  148.8643  141.6628  153.9770 O   0  0  0  0  0  0  0  0  0  0  0  0
  147.5163  141.4231  153.5870 C   0  0  2  0  0  0  0  0  0  0  0  0
  146.6490  142.6346  153.9603 C   0  0  0  0  0  0  0  0  0  0  0  0
  146.7641  142.9029  155.3410 O   0  0  0  0  0  0  0  0  0  0  0  0
  147.1672  140.1551  154.3682 C   0  0  1  0  0  0  0  0  0  0  0  0
  146.0401  139.4749  153.8482 O   0  0  0  0  0  0  0  0  0  0  0  0
  148.4556  139.3412  154.2911 C   0  0  1  0  0  0  0  0  0  0  0  0
  148.5022  138.5004  153.1531 O   0  0  0  0  0  0  0  0  0  0  0  0
  151.6556  140.0957  155.5196 C   0  0  0  0  0  0  0  0  0  0  0  0
  152.1799  139.6191  154.5131 O   0  0  0  0  0  0  0  0  0  0  0  0
  152.3377  140.2147  156.7368 N   0  0  0  0  0  0  0  0  0  0  0  0
  150.2399  140.2981  153.3929 H   0  0  0  0  0  0  0  0  0  0  0  0
  147.4787  141.2184  152.5151 H   0  0  0  0  0  0  0  0  0  0  0  0
  146.9721  140.4118  155.4103 H   0  0  0  0  0  0  0  0  0  0  0  0
  148.5998  138.7274  155.1816 H   0  0  0  0  0  0  0  0  0  0  0  0
  153.3833  140.5292  159.0252 H   0  0  0  0  0  0  0  0  0  0  0  0
  152.0271  141.1656  159.7977 H   0  0  0  0  0  0  0  0  0  0  0  0
  148.6517  141.3483  156.6122 H   0  0  0  0  0  0  0  0  0  0  0  0
  146.9904  143.5209  153.4247 H   0  0  0  0  0  0  0  0  0  0  0  0
  145.6048  142.4739  153.6898 H   0  0  0  0  0  0  0  0  0  0  0  0
  147.6177  143.2752  155.5026 H   0  0  0  0  0  0  0  0  0  0  0  0
  145.4649  140.1093  153.4489 H   0  0  0  0  0  0  0  0  0  0  0  0
  148.9077  138.9758  152.4441 H   0  0  0  0  0  0  0  0  0  0  0  0
  1  2  1  0  0  0  0
  1 22  1  0  0  0  0
  1 23  1  0  0  0  0
  2 17  2  0  0  0  0
  2  3  1  0  0  0  0
  3  4  2  0  0  0  0
  4  5  1  0  0  0  0
  4 24  1  0  0  0  0
  5  6  1  0  0  0  0
  5 15  1  0  0  0  0
  6 18  1  0  0  0  0
  6 13  1  0  0  0  0
  6  7  1  0  0  0  0
  7  8  1  0  0  0  0
  8 19  1  0  0  0  0
  8  9  1  0  0  0  0
  8 11  1  0  0  0  0
  9 10  1  0  0  0  0
  9 25  1  0  0  0  0
  9 26  1  0  0  0  0
 10 27  1  0  0  0  0
 11 20  1  0  0  0  0
 11 12  1  0  0  0  0
 11 13  1  0  0  0  0
 12 28  1  0  0  0  0
 13 21  1  0  0  0  0
 13 14  1  0  0  0  0
 14 29  1  0  0  0  0
 15 16  2  0  0  0  0
 15 17  1  0  0  0  0
M  END
> <s_m_source_file>
AV-unprocessed.smi

> <i_m_source_file_index>
72

> <i_lp_mmshare_version>
43012

> <i_f3d_flags>
0

> <s_epik_input>
W05IMl1jMW5bY0hdbihjKD1PKW4xKVtDQEBIXTJPW0NASF0oW0NIMl1bT0hdKVtDQEBIXShbT0hdKVtDQEhdMltPSF0=

> <s_epik_cmdline>
J2VwaWtfcHl0aG9uJywgJy1waCcsICc3LjAnLCAnLXRuJywgJzgnLCAnLW1hJywgJzIwMCcsICctbWV0YWxfYmluZGluZycsICctaW1hZScsICc8aW5maWxlLm1hZT4nLCAnLW9tYWUnLCAnPG91dGZpbGUubWFlPic=

> <r_lp_tautomer_probability>
4.77166e-05

> <r_epik_Ionization_Penalty>
1.3546

> <r_epik_Ionization_Penalty_Charging>
1.46833e-10

> <r_epik_Ionization_Penalty_Neutral>
1.3546

> <r_epik_State_Penalty>
3.51908

> <r_epik_Charging_Adjusted_Penalty>
3.51908

> <i_epik_Tot_Q>
0

> <i_epik_Tot_abs_Q>
0

> <r_epik_Metal_State_Penalty>
3.44088

> <b_epik_Metal_Only>
1

> <s_epik_Chemistry_Notes>
This compound contains an acetal/aminal-like group ( X-CH(R)-Y where X, Y are N, S, or O) that may be acid/base labile, releasing an aldehyde.

> <s_lp_Force_Field>
OPLS_2005

> <r_lp_Energy>
30.18

> <b_lp_Chiralities_Consistent>
1

> <s_lp_Variant>
AV-unprocessed.smi:72-81

> <Gold.Version>
5.8.1

> <Gold.Id.Protein>
6NUR|6NUR_protein|mol2

> <Gold.PLP.Fitness>
42.1019

> <Gold.PLP.PLP>
-28.1447

> <Gold.PLP.part.hbond>
-7.0737

> <Gold.PLP.part.metal>
0.0000

> <Gold.PLP.part.buried>
-1.6750

> <Gold.PLP.part.nonpolar>
-18.2044

> <Gold.PLP.part.repulsive>
0.3919

> <Gold.PLP.ligand.clash>
0.0000

> <Gold.PLP.ligand.torsion>
0.2490

> <Gold.PLP.Chemscore.Hbond>
4.8135

> <Gold.PLP.Chemscore.CHOScore>
0.0000

> <Gold.PLP.Chemscore.Metal>
0.0000

> <Gold.Chemscore.Hbonds>
donor molecule, donor type, donor heavy atom, donor atom, acceptor molecule, acceptor atom, score
      L1  H    10    27       P1  8028  0.95
      L1  H    12    28       P1 10175  0.87
      L1  H    14    29       P1  7957  1.00
      P1  H  7989  7998       L1    16  0.58
      P1  H  7997  8008       L1    17  0.98
      P1  H  8011  8017       L1     7  0.61

> <Gold.PLP.Chemscore.Internal.Correction>
0.0148

> <Gold.Rescore>
     Score         DG    S(hbond)    S(metal)    S(lipo)     H(rot)  DE(clash)    DE(int)     intcor
      7.69      -8.33       3.13        0.00      23.87       4.06       0.46       0.18       ----

> <Gold.Chemscore.Fitness>
7.6902

> <Gold.Chemscore.DG>
-8.3314

> <Gold.Chemscore.ZeroCoef>
-5.4800

> <Gold.Chemscore.Hbond>
3.1293

> <Gold.Chemscore.Metal>
0.0000

> <Gold.Chemscore.Lipo>
23.8736

> <Gold.Chemscore.Internal_Hbond>
0.0000

> <Gold.Chemscore.DEClash>
0.4583

> <Gold.Chemscore.DEInternal>
0.1829

> <Gold.Chemscore.Rot>
4.0600

> <Gold.Chemscore.Internal.Correction>
   9.000000E+99

> <Gold.Chemscore.Hbonds>
donor molecule, donor type, donor heavy atom, donor atom, acceptor molecule, acceptor atom, score
      L1  H    10    27       P1  8028  0.21
      L1  H    12    28       P1 10175  0.82
      L1  H    14    29       P1  7957  0.99
      P1  H  7989  7998       L1    16  0.07
      P1  H  7997  8008       L1    17  0.80
      P1  H  8011  8017       L1     7  0.14

> <Gold.Chemscore.Hbond.Weighted>
-10.4517

> <Gold.Chemscore.Metal.Weighted>
-0.0000

> <Gold.Chemscore.Lipo.Weighted>
-2.7932

> <Gold.Chemscore.Internal_Hbond.Weighted>
0.0000

> <Gold.Chemscore.DEClash.Weighted>
0.4583

> <Gold.Chemscore.DEInternal.Weighted>
0.1829

> <Gold.Chemscore.Rot.Weighted>
10.3936

> <Gold.Chemscore.Internal.Correction.Weighted>
   9.000000E+99

> <Gold.Protein.RotatedTorsions>
[ 6907 6896 6895 6894 ] final   11.92 input  -60.11 | X-H torsion
[ 7974 7965 7964 7962 ] final -135.33 input  175.53 | X-H torsion
[ 8008 7997 7996 7995 ] final  -60.61 input   59.86 | X-H torsion
[ 10167 10162 10161 10158 ] final  -76.48 input  -65.29 | X-H torsion
[ 10718 10713 10712 10709 ] final -120.47 input   66.30 | X-H torsion
[ 10763 10752 10751 10750 ] final  173.79 input  -60.55 | X-H torsion
[ 11005 11000 10999 10996 ] final   37.99 input  -57.11 | X-H torsion

> <Gold.Protein.ActiveResidues>
 VAL166  LYS551  ARG553  GLY616  TRP617  ASP618  TYR619  PRO620  LYS621  CYS622 
 ASP623  PHE694  ASN695  SER759  ASP760  ASP761  ALA762  ILE779  LEU786  VAL792 
 PHE793  MET794  SER795  GLU796  ALA797  LYS798  CYS799  TRP800  GLU811  SER814 

> <Gold.Protein.RotatedAtoms>
  151.7621  135.0807  160.0346 H   0  0  0  0  0  0  0  0  0  0  0  0  # atno 6907 bound_to 6896
  152.3346  133.5993  159.5842 H   0  0  0  0  0  0  0  0  0  0  0  0  # atno 6908 bound_to 6896
  150.7443  133.9731  159.3594 H   0  0  0  0  0  0  0  0  0  0  0  0  # atno 6909 bound_to 6896
  144.9024  140.6788  143.5077 H   0  0  0  0  0  0  0  0  0  0  0  0  # atno 7974 bound_to 7965
  154.4407  140.1036  156.6301 H   0  0  0  0  0  0  0  0  0  0  0  0  # atno 8008 bound_to 7997
  155.5614  140.3487  155.4473 H   0  0  0  0  0  0  0  0  0  0  0  0  # atno 8009 bound_to 7997
  156.0457  140.1292  157.0096 H   0  0  0  0  0  0  0  0  0  0  0  0  # atno 8010 bound_to 7997
  140.4854  143.2392  151.7993 H   0  0  0  0  0  0  0  0  0  0  0  0  # atno 10167 bound_to 10162
  156.1260  130.6360  150.9544 H   0  0  0  0  0  0  0  0  0  0  0  0  # atno 10718 bound_to 10713
  154.4450  135.2763  155.1821 H   0  0  0  0  0  0  0  0  0  0  0  0  # atno 10763 bound_to 10752
  154.3672  135.6116  153.5724 H   0  0  0  0  0  0  0  0  0  0  0  0  # atno 10764 bound_to 10752
  152.9843  135.5848  154.4784 H   0  0  0  0  0  0  0  0  0  0  0  0  # atno 10765 bound_to 10752
  140.2170  134.3686  155.8022 H   0  0  0  0  0  0  0  0  0  0  0  0  # atno 11005 bound_to 11000
  145.3594  139.1685  143.4391 LP  0  0  0  0  0  0  0  0  0  0  0  0  # atno 17320 bound_to 7965
  146.3115  140.3654  142.8669 LP  0  0  0  0  0  0  0  0  0  0  0  0  # atno 17321 bound_to 7965
  139.4841  144.4719  151.9414 LP  0  0  0  0  0  0  0  0  0  0  0  0  # atno 17342 bound_to 10162
  140.3805  144.2742  150.5909 LP  0  0  0  0  0  0  0  0  0  0  0  0  # atno 17343 bound_to 10162
  157.6442  131.0906  150.8189 LP  0  0  0  0  0  0  0  0  0  0  0  0  # atno 17370 bound_to 10713
  156.8279  130.5006  149.5335 LP  0  0  0  0  0  0  0  0  0  0  0  0  # atno 17371 bound_to 10713
  141.2224  133.7173  156.8513 LP  0  0  0  0  0  0  0  0  0  0  0  0  # atno 17394 bound_to 11000
  140.1890  134.8979  157.3038 LP  0  0  0  0  0  0  0  0  0  0  0  0  # atno 17395 bound_to 11000

$$$$
