AV-unprocessed.smi:653|AV-procd|sdf|3208|dock7
  -GOLD-   22720 0143D 1   1.00000     0.00000
 Structure written by MMmdl.
 45 46  0  0  0  0  0  0  0  0  2 V2000
  151.1202  145.5553  159.1480 C   0  0  0  0  0  0  0  0  0  0  0  0
  151.4219  144.1239  158.7572 C   0  0  0  0  0  0  0  0  0  0  0  0
  152.2767  143.3001  159.5203 C   0  0  0  0  0  0  0  0  0  0  0  0
  152.5109  141.9742  159.1007 C   0  0  0  0  0  0  0  0  0  0  0  0
  151.8866  141.4977  157.9264 C   0  0  0  0  0  0  0  0  0  0  0  0
  152.1163  140.0739  157.4502 C   0  0  0  0  0  0  0  0  0  0  0  0
  151.6880  139.9168  155.9893 C   0  0  0  0  0  0  0  0  0  0  0  0
  152.5360  139.8873  155.0971 O   0  0  0  0  0  0  0  0  0  0  0  0
  150.3702  139.8151  155.7581 N   0  0  0  0  0  0  0  0  0  0  0  0
  149.7628  139.6594  154.4409 C   0  0  0  0  0  0  0  0  0  0  0  0
  148.3273  140.2196  154.3960 C   0  0  2  0  0  0  0  0  0  0  0  0
  148.2457  141.7088  154.1193 C   0  0  0  0  0  0  0  0  0  0  0  0
  146.8386  142.0395  154.6047 C   0  0  0  0  0  0  0  0  0  0  0  0
  146.5935  141.1613  155.6985 O   0  0  0  0  0  0  0  0  0  0  0  0
  147.5774  140.1285  155.7332 C   0  0  1  0  0  0  0  0  0  0  0  0
  146.9409  138.7589  156.0652 C   0  0  0  0  0  0  0  0  0  0  0  0
  146.1715  138.7465  157.3988 C   0  0  0  0  0  0  0  0  0  0  0  0
  147.9995  137.6451  156.0426 C   0  0  0  0  0  0  0  0  0  0  0  0
  151.0416  142.3678  157.2038 C   0  0  0  0  0  0  0  0  0  0  0  0
  150.8416  143.6308  157.6401 N   0  3  0  0  0  0  0  0  0  0  0  0
  151.9092  145.9588  159.7834 H   0  0  0  0  0  0  0  0  0  0  0  0
  150.1789  145.6064  159.6956 H   0  0  0  0  0  0  0  0  0  0  0  0
  151.0402  146.1898  158.2648 H   0  0  0  0  0  0  0  0  0  0  0  0
  152.7471  143.6762  160.4174 H   0  0  0  0  0  0  0  0  0  0  0  0
  153.1594  141.3306  159.6773 H   0  0  0  0  0  0  0  0  0  0  0  0
  153.1687  139.8135  157.5748 H   0  0  0  0  0  0  0  0  0  0  0  0
  151.5445  139.3777  158.0651 H   0  0  0  0  0  0  0  0  0  0  0  0
  149.7425  139.8531  156.5482 H   0  0  0  0  0  0  0  0  0  0  0  0
  150.3850  140.1475  153.6892 H   0  0  0  0  0  0  0  0  0  0  0  0
  149.7607  138.5977  154.1923 H   0  0  0  0  0  0  0  0  0  0  0  0
  147.7615  139.7059  153.6194 H   0  0  0  0  0  0  0  0  0  0  0  0
  148.9828  142.2500  154.7142 H   0  0  0  0  0  0  0  0  0  0  0  0
  148.4006  141.9607  153.0697 H   0  0  0  0  0  0  0  0  0  0  0  0
  146.7329  143.0838  154.8991 H   0  0  0  0  0  0  0  0  0  0  0  0
  146.1074  141.8315  153.8223 H   0  0  0  0  0  0  0  0  0  0  0  0
  148.2755  140.3976  156.5280 H   0  0  0  0  0  0  0  0  0  0  0  0
  146.2255  138.5274  155.2755 H   0  0  0  0  0  0  0  0  0  0  0  0
  146.8212  139.0020  158.2362 H   0  0  0  0  0  0  0  0  0  0  0  0
  145.7544  137.7591  157.5975 H   0  0  0  0  0  0  0  0  0  0  0  0
  145.3373  139.4469  157.3974 H   0  0  0  0  0  0  0  0  0  0  0  0
  148.7580  137.8029  156.8097 H   0  0  0  0  0  0  0  0  0  0  0  0
  148.5058  137.6016  155.0779 H   0  0  0  0  0  0  0  0  0  0  0  0
  147.5474  136.6685  156.2179 H   0  0  0  0  0  0  0  0  0  0  0  0
  150.5197  142.0933  156.2987 H   0  0  0  0  0  0  0  0  0  0  0  0
  150.2242  144.2399  157.1028 H   0  0  0  0  0  0  0  0  0  0  0  0
  1  2  1  0  0  0  0
  1 21  1  0  0  0  0
  1 22  1  0  0  0  0
  1 23  1  0  0  0  0
  2 20  1  0  0  0  0
  2  3  2  0  0  0  0
  3  4  1  0  0  0  0
  3 24  1  0  0  0  0
  4  5  2  0  0  0  0
  4 25  1  0  0  0  0
  5  6  1  0  0  0  0
  5 19  1  0  0  0  0
  6  7  1  0  0  0  0
  6 26  1  0  0  0  0
  6 27  1  0  0  0  0
  7  8  2  0  0  0  0
  7  9  1  0  0  0  0
  9 10  1  0  0  0  0
  9 28  1  0  0  0  0
 10 11  1  0  0  0  0
 10 29  1  0  0  0  0
 10 30  1  0  0  0  0
 11 15  1  0  0  0  0
 11 12  1  0  0  0  0
 11 31  1  0  0  0  0
 12 13  1  0  0  0  0
 12 32  1  0  0  0  0
 12 33  1  0  0  0  0
 13 14  1  0  0  0  0
 13 34  1  0  0  0  0
 13 35  1  0  0  0  0
 14 15  1  0  0  0  0
 15 16  1  0  0  0  0
 15 36  1  0  0  0  0
 16 17  1  0  0  0  0
 16 18  1  0  0  0  0
 16 37  1  0  0  0  0
 17 38  1  0  0  0  0
 17 39  1  0  0  0  0
 17 40  1  0  0  0  0
 18 41  1  0  0  0  0
 18 42  1  0  0  0  0
 18 43  1  0  0  0  0
 19 20  2  0  0  0  0
 19 44  1  0  0  0  0
 20 45  1  0  0  0  0
M  CHG  1  20   1
M  END
> <s_m_source_file>
AV-unprocessed.smi

> <i_m_source_file_index>
653

> <i_lp_mmshare_version>
43012

> <i_f3d_flags>
0

> <s_epik_input>
W0NIM11jMVtjSF1bY0hdYyhbY0hdbjEpW0NIMl1DKD1PKVtOSF1bQ0gyXVtDQEBIXTJbQ0gyXVtDSDJdT1tDQEhdMltDSF0oW0NIM10pW0NIM10=

> <s_epik_cmdline>
J2VwaWtfcHl0aG9uJywgJy1waCcsICc3LjAnLCAnLXRuJywgJzgnLCAnLW1hJywgJzIwMCcsICctbWV0YWxfYmluZGluZycsICctaW1hZScsICc8aW5maWxlLm1hZT4nLCAnLW9tYWUnLCAnPG91dGZpbGUubWFlPic=

> <r_epik_Ionization_Penalty>
2.12486

> <r_epik_Ionization_Penalty_Charging>
2.12486

> <r_epik_Ionization_Penalty_Neutral>
9.0873e-08

> <r_epik_State_Penalty>
2.26279

> <r_epik_Charging_Adjusted_Penalty>
4.38765

> <i_epik_Tot_Q>
1

> <i_epik_Tot_abs_Q>
1

> <r_epik_Metal_State_Penalty>
2.27914

> <b_epik_Metal_Only>
0

> <s_lp_Force_Field>
OPLS_2005

> <r_lp_Energy>
26.2023

> <b_lp_Chiralities_Consistent>
1

> <s_lp_Variant>
AV-unprocessed.smi:653-5

> <Gold.Version>
5.8.1

> <Gold.Id.Protein>
6NUR|6NUR_protein|mol2

> <Gold.PLP.Fitness>
44.2357

> <Gold.PLP.PLP>
-35.8059

> <Gold.PLP.part.hbond>
-2.8379

> <Gold.PLP.part.metal>
0.0000

> <Gold.PLP.part.buried>
-1.7685

> <Gold.PLP.part.nonpolar>
-30.5832

> <Gold.PLP.part.repulsive>
0.1618

> <Gold.PLP.ligand.clash>
0.0000

> <Gold.PLP.ligand.torsion>
0.9643

> <Gold.PLP.Chemscore.Hbond>
3.4451

> <Gold.PLP.Chemscore.CHOScore>
0.0000

> <Gold.PLP.Chemscore.Metal>
0.0000

> <Gold.Chemscore.Hbonds>
donor molecule, donor type, donor heavy atom, donor atom, acceptor molecule, acceptor atom, score
      L1  H    20    45       P1  8028  2.00
      P1  H  7989  7998       L1     8  0.56
      P1  H  7997  8010       L1     8  0.84

> <Gold.PLP.Chemscore.Internal.Correction>
0.0232

> <Gold.Rescore>
     Score         DG    S(hbond)    S(metal)    S(lipo)     H(rot)  DE(clash)    DE(int)     intcor
     16.03     -18.65       1.86        0.00      93.82       1.57       0.65       1.96       ----

> <Gold.Chemscore.Fitness>
16.0278

> <Gold.Chemscore.DG>
-18.6450

> <Gold.Chemscore.ZeroCoef>
-5.4800

> <Gold.Chemscore.Hbond>
1.8586

> <Gold.Chemscore.Metal>
0.0000

> <Gold.Chemscore.Lipo>
93.8185

> <Gold.Chemscore.Internal_Hbond>
0.0000

> <Gold.Chemscore.DEClash>
0.6545

> <Gold.Chemscore.DEInternal>
1.9627

> <Gold.Chemscore.Rot>
1.5701

> <Gold.Chemscore.Internal.Correction>
   9.000000E+99

> <Gold.Chemscore.Hbonds>
donor molecule, donor type, donor heavy atom, donor atom, acceptor molecule, acceptor atom, score
      L1  H    20    45       P1  8028  0.81
      P1  H  7989  7998       L1     8  0.30
      P1  H  7997  8010       L1     8  0.62

> <Gold.Chemscore.Hbond.Weighted>
-6.2078

> <Gold.Chemscore.Metal.Weighted>
-0.0000

> <Gold.Chemscore.Lipo.Weighted>
-10.9768

> <Gold.Chemscore.Internal_Hbond.Weighted>
0.0000

> <Gold.Chemscore.DEClash.Weighted>
0.6545

> <Gold.Chemscore.DEInternal.Weighted>
1.9627

> <Gold.Chemscore.Rot.Weighted>
4.0196

> <Gold.Chemscore.Internal.Correction.Weighted>
   9.000000E+99

> <Gold.Protein.RotatedTorsions>
[ 6907 6896 6895 6894 ] final   63.43 input  -60.11 | X-H torsion
[ 7974 7965 7964 7962 ] final  -99.65 input  175.53 | X-H torsion
[ 8008 7997 7996 7995 ] final  102.05 input   59.86 | X-H torsion
[ 10167 10162 10161 10158 ] final  -43.86 input  -65.29 | X-H torsion
[ 10718 10713 10712 10709 ] final   92.09 input   66.30 | X-H torsion
[ 10763 10752 10751 10750 ] final -174.15 input  -60.55 | X-H torsion
[ 11005 11000 10999 10996 ] final  138.21 input  -57.11 | X-H torsion

> <Gold.Protein.ActiveResidues>
 VAL166  LYS551  ARG553  GLY616  TRP617  ASP618  TYR619  PRO620  LYS621  CYS622 
 ASP623  PHE694  ASN695  SER759  ASP760  ASP761  ALA762  ILE779  LEU786  VAL792 
 PHE793  MET794  SER795  GLU796  ALA797  LYS798  CYS799  TRP800  GLU811  SER814 

> <Gold.Protein.RotatedAtoms>
  152.4253  134.5880  159.9966 H   0  0  0  0  0  0  0  0  0  0  0  0  # atno 6907 bound_to 6896
  151.6019  133.3350  159.3057 H   0  0  0  0  0  0  0  0  0  0  0  0  # atno 6908 bound_to 6896
  150.8142  134.7351  159.6780 H   0  0  0  0  0  0  0  0  0  0  0  0  # atno 6909 bound_to 6896
  145.3049  140.9386  143.2803 H   0  0  0  0  0  0  0  0  0  0  0  0  # atno 7974 bound_to 7965
  156.1356  140.3187  155.8416 H   0  0  0  0  0  0  0  0  0  0  0  0  # atno 8008 bound_to 7997
  155.4250  140.0515  157.3040 H   0  0  0  0  0  0  0  0  0  0  0  0  # atno 8009 bound_to 7997
  154.4934  140.2101  155.9511 H   0  0  0  0  0  0  0  0  0  0  0  0  # atno 8010 bound_to 7997
  140.6918  143.2960  151.3412 H   0  0  0  0  0  0  0  0  0  0  0  0  # atno 10167 bound_to 10162
  157.6959  131.0431  150.3829 H   0  0  0  0  0  0  0  0  0  0  0  0  # atno 10718 bound_to 10713
  154.5996  135.2853  155.0550 H   0  0  0  0  0  0  0  0  0  0  0  0  # atno 10763 bound_to 10752
  154.1819  135.6455  153.5040 H   0  0  0  0  0  0  0  0  0  0  0  0  # atno 10764 bound_to 10752
  153.0152  135.5426  154.6710 H   0  0  0  0  0  0  0  0  0  0  0  0  # atno 10765 bound_to 10752
  140.0168  134.9415  157.0392 H   0  0  0  0  0  0  0  0  0  0  0  0  # atno 11005 bound_to 11000
  144.9063  139.4585  143.6608 LP  0  0  0  0  0  0  0  0  0  0  0  0  # atno 17320 bound_to 7965
  146.3139  139.7846  142.8999 LP  0  0  0  0  0  0  0  0  0  0  0  0  # atno 17321 bound_to 7965
  139.6330  144.0685  152.2492 LP  0  0  0  0  0  0  0  0  0  0  0  0  # atno 17342 bound_to 10162
  140.0166  144.6184  150.7602 LP  0  0  0  0  0  0  0  0  0  0  0  0  # atno 17343 bound_to 10162
  156.4241  130.3959  149.6805 LP  0  0  0  0  0  0  0  0  0  0  0  0  # atno 17370 bound_to 10713
  156.4045  130.7691  151.2701 LP  0  0  0  0  0  0  0  0  0  0  0  0  # atno 17371 bound_to 10713
  140.4457  134.1635  155.7177 LP  0  0  0  0  0  0  0  0  0  0  0  0  # atno 17394 bound_to 11000
  141.1748  133.8536  157.1457 LP  0  0  0  0  0  0  0  0  0  0  0  0  # atno 17395 bound_to 11000

$$$$
