AV-unprocessed.smi:2032|AV-procd|sdf|8242|dock4
  -GOLD-   2272010513D 1   1.00000     0.00000
 Structure written by MMmdl.
 43 44  0  0  0  0  0  0  0  0  2 V2000
  148.1176  133.5884  153.5991 C   0  0  0  0  0  0  0  0  0  0  0  0
  146.5808  133.5098  153.5601 C   0  0  1  0  0  0  0  0  0  0  0  0
  145.8993  134.8801  153.3668 C   0  0  0  0  0  0  0  0  0  0  0  0
  146.0315  135.3678  151.9662 N   0  3  2  0  0  0  0  0  0  0  0  0
  145.4538  136.7228  151.6805 C   0  0  2  0  0  0  0  0  0  0  0  0
  145.9992  137.2472  150.3326 C   0  0  0  0  0  0  0  0  0  0  0  0
  145.6930  137.7573  152.8156 C   0  0  0  0  0  0  0  0  0  0  0  0
  147.0624  138.2669  152.8482 N   0  0  0  0  0  0  0  0  0  0  0  0
  147.9435  138.0601  153.8385 C   0  0  0  0  0  0  0  0  0  0  0  0
  147.6919  137.3898  154.8404 O   0  0  0  0  0  0  0  0  0  0  0  0
  149.1152  138.6679  153.5837 N   0  0  0  0  0  0  0  0  0  0  0  0
  150.2988  138.6529  154.3676 C   0  0  0  0  0  0  0  0  0  0  0  0
  150.9805  139.7474  154.7257 N   0  0  0  0  0  0  0  0  0  0  0  0
  152.1014  139.4371  155.4997 C   0  0  0  0  0  0  0  0  0  0  0  0
  152.2586  138.0919  155.7233 C   0  0  0  0  0  0  0  0  0  0  0  0
  150.9979  137.1556  154.9660 S   0  0  0  0  0  0  0  0  0  0  0  0
  145.5264  134.3251  151.0347 C   0  0  0  0  0  0  0  0  0  0  0  0
  146.2734  132.9967  151.2397 C   0  0  2  0  0  0  0  0  0  0  0  0
  145.7294  131.8864  150.3339 C   0  0  0  0  0  0  0  0  0  0  0  0
  146.1141  132.5755  152.5896 O   0  0  0  0  0  0  0  0  0  0  0  0
  148.4522  134.1893  154.4450 H   0  0  0  0  0  0  0  0  0  0  0  0
  148.5333  134.0395  152.6985 H   0  0  0  0  0  0  0  0  0  0  0  0
  148.5546  132.5956  153.7097 H   0  0  0  0  0  0  0  0  0  0  0  0
  146.2646  133.1185  154.5275 H   0  0  0  0  0  0  0  0  0  0  0  0
  144.8402  134.8043  153.6184 H   0  0  0  0  0  0  0  0  0  0  0  0
  146.3504  135.5751  154.0744 H   0  0  0  0  0  0  0  0  0  0  0  0
  144.3727  136.6050  151.5874 H   0  0  0  0  0  0  0  0  0  0  0  0
  145.5158  138.1774  150.0362 H   0  0  0  0  0  0  0  0  0  0  0  0
  145.8350  136.5531  149.5105 H   0  0  0  0  0  0  0  0  0  0  0  0
  147.0713  137.4372  150.3917 H   0  0  0  0  0  0  0  0  0  0  0  0
  145.0641  138.6350  152.6687 H   0  0  0  0  0  0  0  0  0  0  0  0
  145.4151  137.3339  153.7825 H   0  0  0  0  0  0  0  0  0  0  0  0
  147.3567  138.8288  152.0626 H   0  0  0  0  0  0  0  0  0  0  0  0
  149.1728  139.1933  152.7240 H   0  0  0  0  0  0  0  0  0  0  0  0
  152.7343  140.2382  155.8519 H   0  0  0  0  0  0  0  0  0  0  0  0
  153.0362  137.5975  156.2863 H   0  0  0  0  0  0  0  0  0  0  0  0
  144.4566  134.1818  151.1969 H   0  0  0  0  0  0  0  0  0  0  0  0
  145.6450  134.6339  149.9976 H   0  0  0  0  0  0  0  0  0  0  0  0
  147.3315  133.1297  151.0122 H   0  0  0  0  0  0  0  0  0  0  0  0
  145.8310  132.1522  149.2812 H   0  0  0  0  0  0  0  0  0  0  0  0
  144.6741  131.6967  150.5310 H   0  0  0  0  0  0  0  0  0  0  0  0
  146.2706  130.9535  150.4936 H   0  0  0  0  0  0  0  0  0  0  0  0
  147.0248  135.4517  151.8018 H   0  0  0  0  0  0  0  0  0  0  0  0
  1  2  1  0  0  0  0
  1 21  1  0  0  0  0
  1 22  1  0  0  0  0
  1 23  1  0  0  0  0
  2 20  1  0  0  0  0
  2  3  1  0  0  0  0
  2 24  1  0  0  0  0
  3  4  1  0  0  0  0
  3 25  1  0  0  0  0
  3 26  1  0  0  0  0
  4  5  1  0  0  0  0
  4 17  1  0  0  0  0
  4 43  1  0  0  0  0
  5  6  1  0  0  0  0
  5  7  1  0  0  0  0
  5 27  1  0  0  0  0
  6 28  1  0  0  0  0
  6 29  1  0  0  0  0
  6 30  1  0  0  0  0
  7  8  1  0  0  0  0
  7 31  1  0  0  0  0
  7 32  1  0  0  0  0
  8  9  1  0  0  0  0
  8 33  1  0  0  0  0
  9 10  2  0  0  0  0
  9 11  1  0  0  0  0
 11 12  1  0  0  0  0
 11 34  1  0  0  0  0
 12 16  1  0  0  0  0
 12 13  2  0  0  0  0
 13 14  1  0  0  0  0
 14 15  2  0  0  0  0
 14 35  1  0  0  0  0
 15 16  1  0  0  0  0
 15 36  1  0  0  0  0
 17 18  1  0  0  0  0
 17 37  1  0  0  0  0
 17 38  1  0  0  0  0
 18 19  1  0  0  0  0
 18 20  1  0  0  0  0
 18 39  1  0  0  0  0
 19 40  1  0  0  0  0
 19 41  1  0  0  0  0
 19 42  1  0  0  0  0
M  CHG  1   4   1
M  END
> <s_m_source_file>
AV-unprocessed.smi

> <i_m_source_file_index>
2032

> <i_lp_mmshare_version>
43012

> <i_f3d_flags>
0

> <s_epik_input>
W0NIM11bQ0BASF0xW0NIMl1OKFtDSDJdW0NASF0oTzEpW0NIM10pW0NASF0oW0NIM10pW0NIMl1bTkhdQyg9TylbTkhdYzJuW2NIXVtjSF1zMg==

> <s_epik_cmdline>
J2VwaWtfcHl0aG9uJywgJy1waCcsICc3LjAnLCAnLXRuJywgJzgnLCAnLW1hJywgJzIwMCcsICctbWV0YWxfYmluZGluZycsICctaW1hZScsICc8aW5maWxlLm1hZT4nLCAnLW9tYWUnLCAnPG91dGZpbGUubWFlPic=

> <r_lp_tautomer_probability>
0.999

> <r_epik_Ionization_Penalty>
0.695838

> <r_epik_Ionization_Penalty_Charging>
0.695697

> <r_epik_Ionization_Penalty_Neutral>
0.000141198

> <r_epik_State_Penalty>
0.717972

> <r_epik_Charging_Adjusted_Penalty>
1.41367

> <i_epik_Tot_Q>
1

> <i_epik_Tot_abs_Q>
1

> <r_epik_Metal_State_Penalty>
0.756405

> <b_epik_Metal_Only>
0

> <s_lp_Force_Field>
OPLS_2005

> <r_lp_Energy>
21.4223

> <b_lp_Chiralities_Consistent>
1

> <s_lp_Variant>
AV-unprocessed.smi:2032-12

> <Gold.Version>
5.8.1

> <Gold.Id.Protein>
6NUR|6NUR_protein|mol2

> <Gold.PLP.Fitness>
42.1781

> <Gold.PLP.PLP>
-31.6503

> <Gold.PLP.part.hbond>
-5.0000

> <Gold.PLP.part.metal>
0.0000

> <Gold.PLP.part.buried>
5.4387

> <Gold.PLP.part.nonpolar>
-32.3243

> <Gold.PLP.part.repulsive>
0.4540

> <Gold.PLP.ligand.clash>
0.0000

> <Gold.PLP.ligand.torsion>
0.7659

> <Gold.PLP.Chemscore.Hbond>
4.0000

> <Gold.PLP.Chemscore.CHOScore>
0.0000

> <Gold.PLP.Chemscore.Metal>
0.0000

> <Gold.Chemscore.Hbonds>
donor molecule, donor type, donor heavy atom, donor atom, acceptor molecule, acceptor atom, score
      L1  H     4    43       P1  7948  1.92
      L1  H    11    34       P1  7957  1.00
      P1  H  7989  7998       L1    13  1.00

> <Gold.PLP.Chemscore.Internal.Correction>
0.0596

> <Gold.Rescore>
     Score         DG    S(hbond)    S(metal)    S(lipo)     H(rot)  DE(clash)    DE(int)     intcor
     16.58     -18.97       2.90        0.00      67.86       1.61       1.58       0.81       ----

> <Gold.Chemscore.Fitness>
16.5824

> <Gold.Chemscore.DG>
-18.9737

> <Gold.Chemscore.ZeroCoef>
-5.4800

> <Gold.Chemscore.Hbond>
2.8975

> <Gold.Chemscore.Metal>
0.0000

> <Gold.Chemscore.Lipo>
67.8641

> <Gold.Chemscore.Internal_Hbond>
0.0000

> <Gold.Chemscore.DEClash>
1.5823

> <Gold.Chemscore.DEInternal>
0.8090

> <Gold.Chemscore.Rot>
1.6110

> <Gold.Chemscore.Internal.Correction>
   9.000000E+99

> <Gold.Chemscore.Hbonds>
donor molecule, donor type, donor heavy atom, donor atom, acceptor molecule, acceptor atom, score
      L1  H     4    43       P1  7948  0.91
      L1  H    11    34       P1  7957  1.00
      P1  H  7989  7998       L1    13  0.39

> <Gold.Chemscore.Hbond.Weighted>
-9.6777

> <Gold.Chemscore.Metal.Weighted>
-0.0000

> <Gold.Chemscore.Lipo.Weighted>
-7.9401

> <Gold.Chemscore.Internal_Hbond.Weighted>
0.0000

> <Gold.Chemscore.DEClash.Weighted>
1.5823

> <Gold.Chemscore.DEInternal.Weighted>
0.8090

> <Gold.Chemscore.Rot.Weighted>
4.1242

> <Gold.Chemscore.Internal.Correction.Weighted>
   9.000000E+99

> <Gold.Protein.RotatedTorsions>
[ 6907 6896 6895 6894 ] final  -35.00 input  -60.11 | X-H torsion
[ 7974 7965 7964 7962 ] final   60.41 input  175.53 | X-H torsion
[ 8008 7997 7996 7995 ] final   96.16 input   59.86 | X-H torsion
[ 10167 10162 10161 10158 ] final   29.84 input  -65.29 | X-H torsion
[ 10718 10713 10712 10709 ] final   58.54 input   66.30 | X-H torsion
[ 10763 10752 10751 10750 ] final  155.12 input  -60.55 | X-H torsion
[ 11005 11000 10999 10996 ] final   -3.71 input  -57.11 | X-H torsion

> <Gold.Protein.ActiveResidues>
 VAL166  LYS551  ARG553  GLY616  TRP617  ASP618  TYR619  PRO620  LYS621  CYS622 
 ASP623  PHE694  ASN695  SER759  ASP760  ASP761  ALA762  ILE779  LEU786  VAL792 
 PHE793  MET794  SER795  GLU796  ALA797  LYS798  CYS799  TRP800  GLU811  SER814 

> <Gold.Protein.RotatedAtoms>
  151.0454  134.9636  159.8183 H   0  0  0  0  0  0  0  0  0  0  0  0  # atno 6907 bound_to 6896
  152.5371  134.2605  159.8943 H   0  0  0  0  0  0  0  0  0  0  0  0  # atno 6908 bound_to 6896
  151.2619  133.4255  159.2650 H   0  0  0  0  0  0  0  0  0  0  0  0  # atno 6909 bound_to 6896
  145.8964  139.3548  143.0619 H   0  0  0  0  0  0  0  0  0  0  0  0  # atno 7974 bound_to 7965
  156.0767  140.3276  155.7642 H   0  0  0  0  0  0  0  0  0  0  0  0  # atno 8008 bound_to 7997
  155.5219  140.0586  157.2922 H   0  0  0  0  0  0  0  0  0  0  0  0  # atno 8009 bound_to 7997
  154.4559  140.1942  156.0399 H   0  0  0  0  0  0  0  0  0  0  0  0  # atno 8010 bound_to 7997
  140.4730  144.0733  150.6243 H   0  0  0  0  0  0  0  0  0  0  0  0  # atno 10167 bound_to 10162
  157.5605  130.8832  149.9103 H   0  0  0  0  0  0  0  0  0  0  0  0  # atno 10718 bound_to 10713
  154.1633  135.2808  155.3102 H   0  0  0  0  0  0  0  0  0  0  0  0  # atno 10763 bound_to 10752
  154.6130  135.5492  153.7497 H   0  0  0  0  0  0  0  0  0  0  0  0  # atno 10764 bound_to 10752
  153.0186  135.6420  154.1774 H   0  0  0  0  0  0  0  0  0  0  0  0  # atno 10765 bound_to 10752
  140.6723  133.9225  155.8502 H   0  0  0  0  0  0  0  0  0  0  0  0  # atno 11005 bound_to 11000
  145.8846  140.9342  143.0584 LP  0  0  0  0  0  0  0  0  0  0  0  0  # atno 17320 bound_to 7965
  144.6733  140.0824  143.7468 LP  0  0  0  0  0  0  0  0  0  0  0  0  # atno 17321 bound_to 7965
  140.3953  143.2731  152.0012 LP  0  0  0  0  0  0  0  0  0  0  0  0  # atno 17342 bound_to 10162
  139.4821  144.6043  151.7549 LP  0  0  0  0  0  0  0  0  0  0  0  0  # atno 17343 bound_to 10162
  156.0658  130.3692  150.0882 LP  0  0  0  0  0  0  0  0  0  0  0  0  # atno 17370 bound_to 10713
  156.9046  130.9632  151.3571 LP  0  0  0  0  0  0  0  0  0  0  0  0  # atno 17371 bound_to 10713
  141.0382  134.0659  157.3934 LP  0  0  0  0  0  0  0  0  0  0  0  0  # atno 17394 bound_to 11000
  139.8977  135.0151  156.7116 LP  0  0  0  0  0  0  0  0  0  0  0  0  # atno 17395 bound_to 11000

$$$$
