AV-unprocessed.smi:1443|AV-procd|sdf|5878|dock5
  -GOLD-   22720 5553D 1   1.00000     0.00000
 Structure written by MMmdl.
 27 28  0  0  0  0  0  0  0  0  1 V2000
  151.2933  142.4685  157.7788 C   0  0  0  0  0  0  0  0  0  0  0  0
  151.9605  140.8258  158.1545 S   0  0  0  0  0  0  0  0  0  0  0  0
  151.9210  139.9195  156.6415 C   0  0  0  0  0  0  0  0  0  0  0  0
  153.0467  139.3697  156.1513 N   0  0  0  0  0  0  0  0  0  0  0  0
  152.6727  138.5692  154.7112 S   0  0  0  0  0  0  0  0  0  0  0  0
  151.0007  139.0230  154.8576 C   0  0  0  0  0  0  0  0  0  0  0  0
  150.0220  138.6328  153.8981 N   0  0  0  0  0  0  0  0  0  0  0  0
  148.7614  139.0654  153.6825 C   0  0  0  0  0  0  0  0  0  0  0  0
  148.2687  139.9509  154.3794 O   0  0  0  0  0  0  0  0  0  0  0  0
  148.0968  138.4756  152.6765 N   0  0  0  0  0  0  0  0  0  0  0  0
  146.7701  138.7909  152.2536 C   0  0  1  0  0  0  0  0  0  0  0  0
  146.1986  137.9771  151.1127 C   0  0  0  0  0  0  0  0  0  0  0  0
  145.6591  137.7881  152.5055 C   0  0  1  0  0  0  0  0  0  0  0  0
  145.8975  136.4949  153.2593 C   0  0  0  0  0  0  0  0  0  0  0  0
  150.7775  139.7503  155.9529 N   0  0  0  0  0  0  0  0  0  0  0  0
  151.2391  143.0685  158.6868 H   0  0  0  0  0  0  0  0  0  0  0  0
  150.2919  142.3896  157.3553 H   0  0  0  0  0  0  0  0  0  0  0  0
  151.9374  142.9812  157.0653 H   0  0  0  0  0  0  0  0  0  0  0  0
  150.3123  137.8795  153.2916 H   0  0  0  0  0  0  0  0  0  0  0  0
  148.5780  137.7538  152.1590 H   0  0  0  0  0  0  0  0  0  0  0  0
  146.4803  139.8405  152.2754 H   0  0  0  0  0  0  0  0  0  0  0  0
  145.5654  138.4953  150.3953 H   0  0  0  0  0  0  0  0  0  0  0  0
  146.8164  137.1834  150.6965 H   0  0  0  0  0  0  0  0  0  0  0  0
  144.6790  138.2203  152.6982 H   0  0  0  0  0  0  0  0  0  0  0  0
  146.8614  136.0603  152.9977 H   0  0  0  0  0  0  0  0  0  0  0  0
  145.1173  135.7730  153.0174 H   0  0  0  0  0  0  0  0  0  0  0  0
  145.8800  136.6796  154.3333 H   0  0  0  0  0  0  0  0  0  0  0  0
  1  2  1  0  0  0  0
  1 16  1  0  0  0  0
  1 17  1  0  0  0  0
  1 18  1  0  0  0  0
  2  3  1  0  0  0  0
  3 15  1  0  0  0  0
  3  4  2  0  0  0  0
  4  5  1  0  0  0  0
  5  6  1  0  0  0  0
  6  7  1  0  0  0  0
  6 15  2  0  0  0  0
  7  8  1  0  0  0  0
  7 19  1  0  0  0  0
  8  9  2  0  0  0  0
  8 10  1  0  0  0  0
 10 11  1  0  0  0  0
 10 20  1  0  0  0  0
 11 13  1  0  0  0  0
 11 12  1  0  0  0  0
 11 21  1  0  0  0  0
 12 13  1  0  0  0  0
 12 22  1  0  0  0  0
 12 23  1  0  0  0  0
 13 14  1  0  0  0  0
 13 24  1  0  0  0  0
 14 25  1  0  0  0  0
 14 26  1  0  0  0  0
 14 27  1  0  0  0  0
M  END
> <s_m_source_file>
AV-unprocessed.smi

> <i_m_source_file_index>
1443

> <i_lp_mmshare_version>
43012

> <i_f3d_flags>
0

> <s_epik_input>
W0NIM11TYzFuc2MobjEpW05IXUMoPU8pW05IXVtDQEBIXTJbQ0gyXVtDQEhdMltDSDNd

> <s_epik_cmdline>
J2VwaWtfcHl0aG9uJywgJy1waCcsICc3LjAnLCAnLXRuJywgJzgnLCAnLW1hJywgJzIwMCcsICctbWV0YWxfYmluZGluZycsICctaW1hZScsICc8aW5maWxlLm1hZT4nLCAnLW9tYWUnLCAnPG91dGZpbGUubWFlPic=

> <r_lp_tautomer_probability>
1

> <r_epik_Ionization_Penalty>
2.74658e-05

> <r_epik_Ionization_Penalty_Charging>
0

> <r_epik_Ionization_Penalty_Neutral>
2.74658e-05

> <r_epik_State_Penalty>
-0

> <r_epik_Charging_Adjusted_Penalty>
0

> <i_epik_Tot_Q>
0

> <i_epik_Tot_abs_Q>
0

> <r_epik_Metal_State_Penalty>
-0

> <b_epik_Metal_Only>
0

> <s_lp_Force_Field>
OPLS_2005

> <r_lp_Energy>
21.211

> <b_lp_Chiralities_Consistent>
1

> <s_lp_Variant>
AV-unprocessed.smi:1443-2

> <Gold.Version>
5.8.1

> <Gold.Id.Protein>
6NUR|6NUR_protein|mol2

> <Gold.PLP.Fitness>
31.9033

> <Gold.PLP.PLP>
-26.0753

> <Gold.PLP.part.hbond>
-3.7637

> <Gold.PLP.part.metal>
0.0000

> <Gold.PLP.part.buried>
1.4863

> <Gold.PLP.part.nonpolar>
-25.5357

> <Gold.PLP.part.repulsive>
0.2440

> <Gold.PLP.ligand.clash>
0.0000

> <Gold.PLP.ligand.torsion>
0.1054

> <Gold.PLP.Chemscore.Hbond>
2.0000

> <Gold.PLP.Chemscore.CHOScore>
0.0000

> <Gold.PLP.Chemscore.Metal>
0.0000

> <Gold.Chemscore.Hbonds>
donor molecule, donor type, donor heavy atom, donor atom, acceptor molecule, acceptor atom, score
      L1  H    10    20       P1  7948  1.00
      P1  H  7997  8010       L1     4  1.00

> <Gold.PLP.Chemscore.Internal.Correction>
0.0387

> <Gold.Rescore>
     Score         DG    S(hbond)    S(metal)    S(lipo)     H(rot)  DE(clash)    DE(int)     intcor
     11.94     -13.86       1.75        0.00      49.41       1.27       0.69       1.23       ----

> <Gold.Chemscore.Fitness>
11.9377

> <Gold.Chemscore.DG>
-13.8584

> <Gold.Chemscore.ZeroCoef>
-5.4800

> <Gold.Chemscore.Hbond>
1.7512

> <Gold.Chemscore.Metal>
0.0000

> <Gold.Chemscore.Lipo>
49.4053

> <Gold.Chemscore.Internal_Hbond>
0.0000

> <Gold.Chemscore.DEClash>
0.6872

> <Gold.Chemscore.DEInternal>
1.2336

> <Gold.Chemscore.Rot>
1.2699

> <Gold.Chemscore.Internal.Correction>
   9.000000E+99

> <Gold.Chemscore.Hbonds>
donor molecule, donor type, donor heavy atom, donor atom, acceptor molecule, acceptor atom, score
      L1  H    10    20       P1  7948  0.94
      P1  H  7997  8010       L1     4  0.79

> <Gold.Chemscore.Hbond.Weighted>
-5.8489

> <Gold.Chemscore.Metal.Weighted>
-0.0000

> <Gold.Chemscore.Lipo.Weighted>
-5.7804

> <Gold.Chemscore.Internal_Hbond.Weighted>
0.0000

> <Gold.Chemscore.DEClash.Weighted>
0.6872

> <Gold.Chemscore.DEInternal.Weighted>
1.2336

> <Gold.Chemscore.Rot.Weighted>
3.2509

> <Gold.Chemscore.Internal.Correction.Weighted>
   9.000000E+99

> <Gold.Protein.RotatedTorsions>
[ 6907 6896 6895 6894 ] final  -50.86 input  -60.11 | X-H torsion
[ 7974 7965 7964 7962 ] final  -42.03 input  175.53 | X-H torsion
[ 8008 7997 7996 7995 ] final   94.08 input   59.86 | X-H torsion
[ 10167 10162 10161 10158 ] final   47.02 input  -65.29 | X-H torsion
[ 10718 10713 10712 10709 ] final   37.79 input   66.30 | X-H torsion
[ 10763 10752 10751 10750 ] final  113.26 input  -60.55 | X-H torsion
[ 11005 11000 10999 10996 ] final -125.16 input  -57.11 | X-H torsion

> <Gold.Protein.ActiveResidues>
 VAL166  LYS551  ARG553  GLY616  TRP617  ASP618  TYR619  PRO620  LYS621  CYS622 
 ASP623  PHE694  ASN695  SER759  ASP760  ASP761  ALA762  ILE779  LEU786  VAL792 
 PHE793  MET794  SER795  GLU796  ALA797  LYS798  CYS799  TRP800  GLU811  SER814 

> <Gold.Protein.RotatedAtoms>
  150.8667  134.8032  159.7123 H   0  0  0  0  0  0  0  0  0  0  0  0  # atno 6907 bound_to 6896
  152.4686  134.5012  159.9735 H   0  0  0  0  0  0  0  0  0  0  0  0  # atno 6908 bound_to 6896
  151.5107  133.3447  159.2920 H   0  0  0  0  0  0  0  0  0  0  0  0  # atno 6909 bound_to 6896
  146.0155  140.6913  142.9203 H   0  0  0  0  0  0  0  0  0  0  0  0  # atno 7974 bound_to 7965
  156.0539  140.3304  155.7383 H   0  0  0  0  0  0  0  0  0  0  0  0  # atno 8008 bound_to 7997
  155.5559  140.0614  157.2857 H   0  0  0  0  0  0  0  0  0  0  0  0  # atno 8009 bound_to 7997
  154.4449  140.1886  156.0721 H   0  0  0  0  0  0  0  0  0  0  0  0  # atno 8010 bound_to 7997
  140.3079  144.2856  150.6205 H   0  0  0  0  0  0  0  0  0  0  0  0  # atno 10167 bound_to 10162
  157.3511  130.7599  149.6979 H   0  0  0  0  0  0  0  0  0  0  0  0  # atno 10718 bound_to 10713
  153.4899  135.3661  155.2486 H   0  0  0  0  0  0  0  0  0  0  0  0  # atno 10763 bound_to 10752
  154.8752  135.3974  154.3601 H   0  0  0  0  0  0  0  0  0  0  0  0  # atno 10764 bound_to 10752
  153.4219  135.7080  153.6354 H   0  0  0  0  0  0  0  0  0  0  0  0  # atno 10765 bound_to 10752
  140.9784  134.0708  157.3793 H   0  0  0  0  0  0  0  0  0  0  0  0  # atno 11005 bound_to 11000
  144.6969  140.3473  143.7188 LP  0  0  0  0  0  0  0  0  0  0  0  0  # atno 17320 bound_to 7965
  145.7275  139.1727  143.2449 LP  0  0  0  0  0  0  0  0  0  0  0  0  # atno 17321 bound_to 7965
  140.5594  143.2194  151.7791 LP  0  0  0  0  0  0  0  0  0  0  0  0  # atno 17342 bound_to 10162
  139.4900  144.4369  151.9808 LP  0  0  0  0  0  0  0  0  0  0  0  0  # atno 17343 bound_to 10162
  155.9722  130.4140  150.4111 LP  0  0  0  0  0  0  0  0  0  0  0  0  # atno 17370 bound_to 10713
  157.2174  131.0474  151.2565 LP  0  0  0  0  0  0  0  0  0  0  0  0  # atno 17371 bound_to 10713
  139.8940  135.0133  156.6927 LP  0  0  0  0  0  0  0  0  0  0  0  0  # atno 17394 bound_to 11000
  140.7224  133.9129  155.8155 LP  0  0  0  0  0  0  0  0  0  0  0  0  # atno 17395 bound_to 11000

$$$$
