AV-unprocessed.smi:3330|AV-procd|sdf|12812|dock4
  -GOLD-   2272019183D 1   1.00000     0.00000
 Structure written by MMmdl.
 38 39  0  0  0  0  0  0  0  0  3 V2000
  149.3991  139.2823  153.9861 C   0  0  0  0  0  0  0  0  0  0  0  0
  149.8463  138.2736  155.0597 C   0  0  1  0  0  0  0  0  0  0  0  0
  150.1068  136.9589  154.4315 N   0  3  0  0  0  0  0  0  0  0  0  0
  149.9586  135.7849  155.3162 C   0  0  0  0  0  0  0  0  0  0  0  0
  150.3130  134.4773  154.5831 C   0  0  0  0  0  0  0  0  0  0  0  0
  150.8632  133.4565  155.4863 N   0  0  0  0  0  0  0  0  0  0  0  0
  150.5323  132.1609  155.4603 C   0  0  0  0  0  0  0  0  0  0  0  0
  149.7478  131.5975  154.6973 O   0  0  0  0  0  0  0  0  0  0  0  0
  151.3313  131.4635  156.5352 C   0  0  0  0  0  0  0  0  0  0  0  0
  152.1200  132.5442  157.0808 N   0  5  0  0  0  0  0  0  0  0  0  0
  151.7971  133.6849  156.4291 C   0  0  0  0  0  0  0  0  0  0  0  0
  152.2711  134.8034  156.6233 O   0  0  0  0  0  0  0  0  0  0  0  0
  151.1102  138.7354  155.8339 C   0  0  1  0  0  0  0  0  0  0  0  0
  152.3523  138.8885  154.9365 C   0  0  0  0  0  0  0  0  0  0  0  0
  150.8679  139.9827  156.5524 N   0  0  0  0  0  0  0  0  0  0  0  0
  151.7250  140.6653  157.3908 C   0  0  0  0  0  0  0  0  0  0  0  0
  151.0658  141.7762  157.8325 C   0  0  0  0  0  0  0  0  0  0  0  0
  149.7938  141.6888  157.2026 C   0  0  0  0  0  0  0  0  0  0  0  0
  149.6810  140.6198  156.4316 N   0  0  0  0  0  0  0  0  0  0  0  0
  149.1162  140.2386  154.4250 H   0  0  0  0  0  0  0  0  0  0  0  0
  148.5288  138.9202  153.4386 H   0  0  0  0  0  0  0  0  0  0  0  0
  150.1920  139.4685  153.2613 H   0  0  0  0  0  0  0  0  0  0  0  0
  149.0343  138.1572  155.7793 H   0  0  0  0  0  0  0  0  0  0  0  0
  149.5244  136.8499  153.6139 H   0  0  0  0  0  0  0  0  0  0  0  0
  150.6184  135.9031  156.1766 H   0  0  0  0  0  0  0  0  0  0  0  0
  148.9404  135.7345  155.7014 H   0  0  0  0  0  0  0  0  0  0  0  0
  149.4271  134.0825  154.0835 H   0  0  0  0  0  0  0  0  0  0  0  0
  151.0245  134.6930  153.7843 H   0  0  0  0  0  0  0  0  0  0  0  0
  150.6577  131.0119  157.2641 H   0  0  0  0  0  0  0  0  0  0  0  0
  151.9329  130.6680  156.0949 H   0  0  0  0  0  0  0  0  0  0  0  0
  151.3400  137.9789  156.5862 H   0  0  0  0  0  0  0  0  0  0  0  0
  152.6617  137.9358  154.5084 H   0  0  0  0  0  0  0  0  0  0  0  0
  153.1994  139.2705  155.5072 H   0  0  0  0  0  0  0  0  0  0  0  0
  152.1684  139.5812  154.1145 H   0  0  0  0  0  0  0  0  0  0  0  0
  152.7206  140.3065  157.6058 H   0  0  0  0  0  0  0  0  0  0  0  0
  151.4325  142.5333  158.5098 H   0  0  0  0  0  0  0  0  0  0  0  0
  148.9555  142.3652  157.2820 H   0  0  0  0  0  0  0  0  0  0  0  0
  151.0728  136.9653  154.1348 H   0  0  0  0  0  0  0  0  0  0  0  0
  1  2  1  0  0  0  0
  1 20  1  0  0  0  0
  1 21  1  0  0  0  0
  1 22  1  0  0  0  0
  2  3  1  0  0  0  0
  2 13  1  0  0  0  0
  2 23  1  0  0  0  0
  3  4  1  0  0  0  0
  3 24  1  0  0  0  0
  3 38  1  0  0  0  0
  4  5  1  0  0  0  0
  4 25  1  0  0  0  0
  4 26  1  0  0  0  0
  5  6  1  0  0  0  0
  5 27  1  0  0  0  0
  5 28  1  0  0  0  0
  6 11  1  0  0  0  0
  6  7  1  0  0  0  0
  7  8  2  0  0  0  0
  7  9  1  0  0  0  0
  9 10  1  0  0  0  0
  9 29  1  0  0  0  0
  9 30  1  0  0  0  0
 10 11  1  0  0  0  0
 11 12  2  0  0  0  0
 13 14  1  0  0  0  0
 13 15  1  0  0  0  0
 13 31  1  0  0  0  0
 14 32  1  0  0  0  0
 14 33  1  0  0  0  0
 14 34  1  0  0  0  0
 15 19  1  0  0  0  0
 15 16  1  0  0  0  0
 16 17  2  0  0  0  0
 16 35  1  0  0  0  0
 17 18  1  0  0  0  0
 17 36  1  0  0  0  0
 18 19  2  0  0  0  0
 18 37  1  0  0  0  0
M  CHG  1   3   1
M  CHG  1  10  -1
M  END
> <s_m_source_file>
AV-unprocessed.smi

> <i_m_source_file_index>
3330

> <i_lp_mmshare_version>
43012

> <i_f3d_flags>
0

> <s_epik_input>
bjFbY0hdW2NIXVtjSF1uMVtDQEBIXShbQ0gzXSlbQ0BIXShbQ0gzXSlbTkhdW0NIMl1bQ0gyXU4yQyg9TylbQ0gyXVtOSF1DMj1P

> <s_epik_cmdline>
J2VwaWtfcHl0aG9uJywgJy1waCcsICc3LjAnLCAnLXRuJywgJzgnLCAnLW1hJywgJzIwMCcsICctbWV0YWxfYmluZGluZycsICctaW1hZScsICc8aW5maWxlLm1hZT4nLCAnLW9tYWUnLCAnPG91dGZpbGUubWFlPic=

> <r_lp_tautomer_probability>
1

> <r_epik_Ionization_Penalty>
5.18149

> <r_epik_Ionization_Penalty_Charging>
5.18148

> <r_epik_Ionization_Penalty_Neutral>
9.83265e-06

> <r_epik_State_Penalty>
5.18201

> <r_epik_Charging_Adjusted_Penalty>
10.3635

> <i_epik_Tot_Q>
0

> <i_epik_Tot_abs_Q>
2

> <r_epik_Metal_State_Penalty>
1.25422

> <b_epik_Metal_Only>
1

> <s_lp_Force_Field>
OPLS_2005

> <r_lp_Energy>
19.5827

> <b_lp_Chiralities_Consistent>
1

> <s_lp_Variant>
AV-unprocessed.smi:3330-12

> <Gold.Version>
5.8.1

> <Gold.Id.Protein>
6NUR|6NUR_protein|mol2

> <Gold.PLP.Fitness>
45.0555

> <Gold.PLP.PLP>
-28.3150

> <Gold.PLP.part.hbond>
-3.4158

> <Gold.PLP.part.metal>
0.0000

> <Gold.PLP.part.buried>
-1.2995

> <Gold.PLP.part.nonpolar>
-23.9451

> <Gold.PLP.part.repulsive>
0.0993

> <Gold.PLP.ligand.clash>
0.0000

> <Gold.PLP.ligand.torsion>
0.6834

> <Gold.PLP.Chemscore.Hbond>
5.0000

> <Gold.PLP.Chemscore.CHOScore>
1.0000

> <Gold.PLP.Chemscore.Metal>
0.0000

> <Gold.Chemscore.Hbonds>
donor molecule, donor type, donor heavy atom, donor atom, acceptor molecule, acceptor atom, score
      L1  H     3    24       P1  7948  2.00
      P1  H  6896  6909       L1    10  0.30
      P1  H 10752 10764       L1    12  0.96
      L1  C    18    37       P1  8028  0.15

> <Gold.PLP.Chemscore.Internal.Correction>
0.1073

> <Gold.Rescore>
     Score         DG    S(hbond)    S(metal)    S(lipo)     H(rot)  DE(clash)    DE(int)     intcor
      9.41     -13.89       2.41        0.00      59.80       2.59       1.40       3.08       ----

> <Gold.Chemscore.Fitness>
9.4069

> <Gold.Chemscore.DG>
-13.8896

> <Gold.Chemscore.ZeroCoef>
-5.4800

> <Gold.Chemscore.Hbond>
2.4085

> <Gold.Chemscore.Metal>
0.0000

> <Gold.Chemscore.Lipo>
59.7979

> <Gold.Chemscore.Internal_Hbond>
0.0000

> <Gold.Chemscore.DEClash>
1.4024

> <Gold.Chemscore.DEInternal>
3.0803

> <Gold.Chemscore.Rot>
2.5903

> <Gold.Chemscore.Internal.Correction>
   9.000000E+99

> <Gold.Chemscore.Hbonds>
donor molecule, donor type, donor heavy atom, donor atom, acceptor molecule, acceptor atom, score
      L1  H     3    24       P1  7948  0.81
      P1  H  6896  6909       L1    10  0.02
      P1  H 10752 10764       L1    12  0.79

> <Gold.Chemscore.Hbond.Weighted>
-8.0443

> <Gold.Chemscore.Metal.Weighted>
-0.0000

> <Gold.Chemscore.Lipo.Weighted>
-6.9964

> <Gold.Chemscore.Internal_Hbond.Weighted>
0.0000

> <Gold.Chemscore.DEClash.Weighted>
1.4024

> <Gold.Chemscore.DEInternal.Weighted>
3.0803

> <Gold.Chemscore.Rot.Weighted>
6.6311

> <Gold.Chemscore.Internal.Correction.Weighted>
   9.000000E+99

> <Gold.Protein.RotatedTorsions>
[ 6907 6896 6895 6894 ] final  -53.01 input  -60.11 | X-H torsion
[ 7974 7965 7964 7962 ] final -101.51 input  175.53 | X-H torsion
[ 8008 7997 7996 7995 ] final -160.02 input   59.86 | X-H torsion
[ 10167 10162 10161 10158 ] final  -76.13 input  -65.29 | X-H torsion
[ 10718 10713 10712 10709 ] final  -60.15 input   66.30 | X-H torsion
[ 10763 10752 10751 10750 ] final  -13.23 input  -60.55 | X-H torsion
[ 11005 11000 10999 10996 ] final   26.41 input  -57.11 | X-H torsion

> <Gold.Protein.ActiveResidues>
 VAL166  LYS551  ARG553  GLY616  TRP617  ASP618  TYR619  PRO620  LYS621  CYS622 
 ASP623  PHE694  ASN695  SER759  ASP760  ASP761  ALA762  ILE779  LEU786  VAL792 
 PHE793  MET794  SER795  GLU796  ALA797  LYS798  CYS799  TRP800  GLU811  SER814 

> <Gold.Protein.RotatedAtoms>
  150.8465  134.7776  159.6974 H   0  0  0  0  0  0  0  0  0  0  0  0  # atno 6907 bound_to 6896
  152.4541  134.5328  159.9826 H   0  0  0  0  0  0  0  0  0  0  0  0  # atno 6908 bound_to 6896
  151.5457  133.3387  159.2979 H   0  0  0  0  0  0  0  0  0  0  0  0  # atno 6909 bound_to 6896
  145.2806  140.9325  143.2934 H   0  0  0  0  0  0  0  0  0  0  0  0  # atno 7974 bound_to 7965
  155.7712  140.0852  157.2107 H   0  0  0  0  0  0  0  0  0  0  0  0  # atno 8008 bound_to 7997
  154.3996  140.1525  156.3001 H   0  0  0  0  0  0  0  0  0  0  0  0  # atno 8009 bound_to 7997
  155.8745  140.3424  155.5847 H   0  0  0  0  0  0  0  0  0  0  0  0  # atno 8010 bound_to 7997
  140.4883  143.2386  151.7947 H   0  0  0  0  0  0  0  0  0  0  0  0  # atno 10167 bound_to 10162
  156.1011  130.4186  150.0813 H   0  0  0  0  0  0  0  0  0  0  0  0  # atno 10718 bound_to 10713
  153.5102  135.7016  153.5785 H   0  0  0  0  0  0  0  0  0  0  0  0  # atno 10763 bound_to 10752
  153.3879  135.3903  155.1902 H   0  0  0  0  0  0  0  0  0  0  0  0  # atno 10764 bound_to 10752
  154.8704  135.3851  154.4581 H   0  0  0  0  0  0  0  0  0  0  0  0  # atno 10765 bound_to 10752
  140.3373  134.2372  155.7694 H   0  0  0  0  0  0  0  0  0  0  0  0  # atno 11005 bound_to 11000
  144.9256  139.4359  143.6520 LP  0  0  0  0  0  0  0  0  0  0  0  0  # atno 17320 bound_to 7965
  146.3217  139.8140  142.8940 LP  0  0  0  0  0  0  0  0  0  0  0  0  # atno 17321 bound_to 7965
  139.4846  144.4682  151.9458 LP  0  0  0  0  0  0  0  0  0  0  0  0  # atno 17342 bound_to 10162
  140.3768  144.2786  150.5913 LP  0  0  0  0  0  0  0  0  0  0  0  0  # atno 17343 bound_to 10162
  156.8800  130.9553  151.3600 LP  0  0  0  0  0  0  0  0  0  0  0  0  # atno 17370 bound_to 10713
  157.6181  130.8634  149.9063 LP  0  0  0  0  0  0  0  0  0  0  0  0  # atno 17371 bound_to 10713
  141.2048  133.7877  157.0269 LP  0  0  0  0  0  0  0  0  0  0  0  0  # atno 17394 bound_to 11000
  140.0810  134.9648  157.1624 LP  0  0  0  0  0  0  0  0  0  0  0  0  # atno 17395 bound_to 11000

$$$$
