AV-unprocessed.smi:1619|AV-procd|sdf|6488|dock7
  -GOLD-   22720 7153D 1   1.00000     0.00000
 Structure written by MMmdl.
 44 46  0  0  0  0  0  0  0  0  2 V2000
  147.0711  128.6141  152.7728 C   0  0  0  0  0  0  0  0  0  0  0  0
  146.3372  129.9192  152.5197 C   0  0  0  0  0  0  0  0  0  0  0  0
  145.3706  129.9753  151.4907 C   0  0  0  0  0  0  0  0  0  0  0  0
  144.6676  131.1698  151.2218 C   0  0  0  0  0  0  0  0  0  0  0  0
  143.6940  131.4464  150.2777 N   0  0  0  0  0  0  0  0  0  0  0  0
  143.4367  132.7272  150.5243 C   0  0  0  0  0  0  0  0  0  0  0  0
  144.1200  133.3114  151.5278 N   0  0  0  0  0  0  0  0  0  0  0  0
  144.0051  134.6859  151.9805 C   0  0  0  0  0  0  0  0  0  0  0  0
  145.3732  135.3343  152.2719 C   0  0  1  0  0  0  0  0  0  0  0  0
  146.2547  134.9703  151.2292 O   0  0  0  0  0  0  0  0  0  0  0  0
  145.3212  136.8750  152.3656 C   0  0  0  0  0  0  0  0  0  0  0  0
  146.5804  137.4461  152.8987 N   0  3  0  0  0  0  0  0  0  0  0  0
  146.8089  138.8572  152.5299 C   0  0  0  0  0  0  0  0  0  0  0  0
  147.7839  139.3828  153.5777 C   0  0  0  0  0  0  0  0  0  0  0  0
  147.3265  138.6771  154.8504 C   0  0  0  0  0  0  0  0  0  0  0  0
  146.7564  137.3362  154.3677 C   0  0  0  0  0  0  0  0  0  0  0  0
  144.9596  132.3163  152.0175 C   0  0  0  0  0  0  0  0  0  0  0  0
  145.9206  132.2734  153.0431 C   0  0  0  0  0  0  0  0  0  0  0  0
  146.6127  131.0712  153.2994 C   0  0  0  0  0  0  0  0  0  0  0  0
  147.6470  131.0341  154.4107 C   0  0  0  0  0  0  0  0  0  0  0  0
  146.7547  127.8373  152.0763 H   0  0  0  0  0  0  0  0  0  0  0  0
  146.8760  128.2562  153.7838 H   0  0  0  0  0  0  0  0  0  0  0  0
  148.1462  128.7505  152.6548 H   0  0  0  0  0  0  0  0  0  0  0  0
  145.1615  129.0980  150.8961 H   0  0  0  0  0  0  0  0  0  0  0  0
  142.7029  133.2703  149.9465 H   0  0  0  0  0  0  0  0  0  0  0  0
  143.4712  135.2517  151.2157 H   0  0  0  0  0  0  0  0  0  0  0  0
  143.3805  134.7035  152.8752 H   0  0  0  0  0  0  0  0  0  0  0  0
  145.7648  134.9194  153.2007 H   0  0  0  0  0  0  0  0  0  0  0  0
  147.1008  135.3565  151.4002 H   0  0  0  0  0  0  0  0  0  0  0  0
  145.1292  137.2906  151.3751 H   0  0  0  0  0  0  0  0  0  0  0  0
  144.4984  137.2025  153.0027 H   0  0  0  0  0  0  0  0  0  0  0  0
  147.1924  138.9517  151.5136 H   0  0  0  0  0  0  0  0  0  0  0  0
  145.8708  139.4118  152.5913 H   0  0  0  0  0  0  0  0  0  0  0  0
  148.8003  139.0761  153.3268 H   0  0  0  0  0  0  0  0  0  0  0  0
  147.7699  140.4698  153.6649 H   0  0  0  0  0  0  0  0  0  0  0  0
  148.1323  138.5559  155.5751 H   0  0  0  0  0  0  0  0  0  0  0  0
  146.5374  139.2603  155.3275 H   0  0  0  0  0  0  0  0  0  0  0  0
  145.8172  137.1173  154.8788 H   0  0  0  0  0  0  0  0  0  0  0  0
  147.4448  136.5169  154.5779 H   0  0  0  0  0  0  0  0  0  0  0  0
  146.1254  133.1583  153.6273 H   0  0  0  0  0  0  0  0  0  0  0  0
  147.7040  131.9891  154.9339 H   0  0  0  0  0  0  0  0  0  0  0  0
  148.6351  130.8145  154.0054 H   0  0  0  0  0  0  0  0  0  0  0  0
  147.3950  130.2673  155.1437 H   0  0  0  0  0  0  0  0  0  0  0  0
  147.3392  136.9250  152.4823 H   0  0  0  0  0  0  0  0  0  0  0  0
  1  2  1  0  0  0  0
  1 21  1  0  0  0  0
  1 22  1  0  0  0  0
  1 23  1  0  0  0  0
  2 19  1  0  0  0  0
  2  3  2  0  0  0  0
  3  4  1  0  0  0  0
  3 24  1  0  0  0  0
  4 17  2  0  0  0  0
  4  5  1  0  0  0  0
  5  6  2  0  0  0  0
  6  7  1  0  0  0  0
  6 25  1  0  0  0  0
  7  8  1  0  0  0  0
  7 17  1  0  0  0  0
  8  9  1  0  0  0  0
  8 26  1  0  0  0  0
  8 27  1  0  0  0  0
  9 10  1  0  0  0  0
  9 11  1  0  0  0  0
  9 28  1  0  0  0  0
 10 29  1  0  0  0  0
 11 12  1  0  0  0  0
 11 30  1  0  0  0  0
 11 31  1  0  0  0  0
 12 16  1  0  0  0  0
 12 13  1  0  0  0  0
 12 44  1  0  0  0  0
 13 14  1  0  0  0  0
 13 32  1  0  0  0  0
 13 33  1  0  0  0  0
 14 15  1  0  0  0  0
 14 34  1  0  0  0  0
 14 35  1  0  0  0  0
 15 16  1  0  0  0  0
 15 36  1  0  0  0  0
 15 37  1  0  0  0  0
 16 38  1  0  0  0  0
 16 39  1  0  0  0  0
 17 18  1  0  0  0  0
 18 19  2  0  0  0  0
 18 40  1  0  0  0  0
 19 20  1  0  0  0  0
 20 41  1  0  0  0  0
 20 42  1  0  0  0  0
 20 43  1  0  0  0  0
M  CHG  1  12   1
M  END
> <s_m_source_file>
AV-unprocessed.smi

> <i_m_source_file_index>
1619

> <i_lp_mmshare_version>
43012

> <i_f3d_flags>
0

> <s_epik_input>
W0NIM11jKFtjSF0xKWMoW0NIM10pW2NIXWMoYzEyKW4oW2NIXW4yKVtDSDJdW0NASF0oW09IXSlbQ0gyXU4zW0NIMl1bQ0gyXVtDSDJdW0NIMl0z

> <s_epik_cmdline>
J2VwaWtfcHl0aG9uJywgJy1waCcsICc3LjAnLCAnLXRuJywgJzgnLCAnLW1hJywgJzIwMCcsICctbWV0YWxfYmluZGluZycsICctaW1hZScsICc8aW5maWxlLm1hZT4nLCAnLW9tYWUnLCAnPG91dGZpbGUubWFlPic=

> <r_epik_Ionization_Penalty>
0.0947557

> <r_epik_Ionization_Penalty_Charging>
0.00674132

> <r_epik_Ionization_Penalty_Neutral>
0.0880144

> <r_epik_State_Penalty>
0.0806172

> <r_epik_Charging_Adjusted_Penalty>
0.0873585

> <i_epik_Tot_Q>
1

> <i_epik_Tot_abs_Q>
1

> <r_epik_Metal_State_Penalty>
8.03852e-05

> <b_epik_Metal_Only>
0

> <s_lp_Force_Field>
OPLS_2005

> <r_lp_Energy>
32.1533

> <b_lp_Chiralities_Consistent>
1

> <s_lp_Variant>
AV-unprocessed.smi:1619-2

> <Gold.Version>
5.8.1

> <Gold.Id.Protein>
6NUR|6NUR_protein|mol2

> <Gold.PLP.Fitness>
46.7949

> <Gold.PLP.PLP>
-33.7263

> <Gold.PLP.part.hbond>
-3.0000

> <Gold.PLP.part.metal>
0.0000

> <Gold.PLP.part.buried>
-3.1197

> <Gold.PLP.part.nonpolar>
-27.1568

> <Gold.PLP.part.repulsive>
0.1933

> <Gold.PLP.ligand.clash>
0.0000

> <Gold.PLP.ligand.torsion>
0.6244

> <Gold.PLP.Chemscore.Hbond>
3.7644

> <Gold.PLP.Chemscore.CHOScore>
1.0000

> <Gold.PLP.Chemscore.Metal>
0.0000

> <Gold.Chemscore.Hbonds>
donor molecule, donor type, donor heavy atom, donor atom, acceptor molecule, acceptor atom, score
      L1  H    10    29       P1  7948  0.94
      L1  H    12    44       P1  7948  2.00
      P1  H 10785 10796       L1     5  0.74
      L1  C     6    25       P1 10186  1.00

> <Gold.PLP.Chemscore.Internal.Correction>
0.0241

> <Gold.Rescore>
     Score         DG    S(hbond)    S(metal)    S(lipo)     H(rot)  DE(clash)    DE(int)     intcor
     18.35     -19.29       2.65        0.00      86.77       2.02       0.38       0.56       ----

> <Gold.Chemscore.Fitness>
18.3528

> <Gold.Chemscore.DG>
-19.2905

> <Gold.Chemscore.ZeroCoef>
-5.4800

> <Gold.Chemscore.Hbond>
2.6457

> <Gold.Chemscore.Metal>
0.0000

> <Gold.Chemscore.Lipo>
86.7681

> <Gold.Chemscore.Internal_Hbond>
0.0000

> <Gold.Chemscore.DEClash>
0.3754

> <Gold.Chemscore.DEInternal>
0.5623

> <Gold.Chemscore.Rot>
2.0227

> <Gold.Chemscore.Internal.Correction>
   9.000000E+99

> <Gold.Chemscore.Hbonds>
donor molecule, donor type, donor heavy atom, donor atom, acceptor molecule, acceptor atom, score
      L1  H    10    29       P1  7948  0.83
      L1  H    12    44       P1  7948  1.00
      P1  H 10785 10796       L1     5  0.70

> <Gold.Chemscore.Hbond.Weighted>
-8.8366

> <Gold.Chemscore.Metal.Weighted>
-0.0000

> <Gold.Chemscore.Lipo.Weighted>
-10.1519

> <Gold.Chemscore.Internal_Hbond.Weighted>
0.0000

> <Gold.Chemscore.DEClash.Weighted>
0.3754

> <Gold.Chemscore.DEInternal.Weighted>
0.5623

> <Gold.Chemscore.Rot.Weighted>
5.1780

> <Gold.Chemscore.Internal.Correction.Weighted>
   9.000000E+99

> <Gold.Protein.RotatedTorsions>
[ 6907 6896 6895 6894 ] final -137.98 input  -60.11 | X-H torsion
[ 7974 7965 7964 7962 ] final -169.65 input  175.53 | X-H torsion
[ 8008 7997 7996 7995 ] final   60.42 input   59.86 | X-H torsion
[ 10167 10162 10161 10158 ] final  -76.78 input  -65.29 | X-H torsion
[ 10718 10713 10712 10709 ] final   47.63 input   66.30 | X-H torsion
[ 10763 10752 10751 10750 ] final  115.43 input  -60.55 | X-H torsion
[ 11005 11000 10999 10996 ] final -130.21 input  -57.11 | X-H torsion

> <Gold.Protein.ActiveResidues>
 VAL166  LYS551  ARG553  GLY616  TRP617  ASP618  TYR619  PRO620  LYS621  CYS622 
 ASP623  PHE694  ASN695  SER759  ASP760  ASP761  ALA762  ILE779  LEU786  VAL792 
 PHE793  MET794  SER795  GLU796  ALA797  LYS798  CYS799  TRP800  GLU811  SER814 

> <Gold.Protein.RotatedAtoms>
  151.0293  133.5805  159.2662 H   0  0  0  0  0  0  0  0  0  0  0  0  # atno 6907 bound_to 6896
  151.2893  135.0736  159.9208 H   0  0  0  0  0  0  0  0  0  0  0  0  # atno 6908 bound_to 6896
  152.5341  133.9994  159.7942 H   0  0  0  0  0  0  0  0  0  0  0  0  # atno 6909 bound_to 6896
  144.7182  140.2189  143.6318 H   0  0  0  0  0  0  0  0  0  0  0  0  # atno 7974 bound_to 7965
  155.5821  140.3491  155.4543 H   0  0  0  0  0  0  0  0  0  0  0  0  # atno 8008 bound_to 7997
  156.0366  140.1286  157.0226 H   0  0  0  0  0  0  0  0  0  0  0  0  # atno 8009 bound_to 7997
  154.4374  140.1032  156.6161 H   0  0  0  0  0  0  0  0  0  0  0  0  # atno 8010 bound_to 7997
  140.4827  143.2398  151.8032 H   0  0  0  0  0  0  0  0  0  0  0  0  # atno 10167 bound_to 10162
  157.4604  130.8193  149.7881 H   0  0  0  0  0  0  0  0  0  0  0  0  # atno 10718 bound_to 10713
  153.5220  135.3596  155.2636 H   0  0  0  0  0  0  0  0  0  0  0  0  # atno 10763 bound_to 10752
  154.8734  135.4048  154.3248 H   0  0  0  0  0  0  0  0  0  0  0  0  # atno 10764 bound_to 10752
  153.3921  135.7072  153.6554 H   0  0  0  0  0  0  0  0  0  0  0  0  # atno 10765 bound_to 10752
  140.9365  134.1249  157.4188 H   0  0  0  0  0  0  0  0  0  0  0  0  # atno 11005 bound_to 11000
  145.8519  139.2180  143.1767 LP  0  0  0  0  0  0  0  0  0  0  0  0  # atno 17320 bound_to 7965
  146.0252  140.8310  142.9903 LP  0  0  0  0  0  0  0  0  0  0  0  0  # atno 17321 bound_to 7965
  139.4836  144.4751  151.9377 LP  0  0  0  0  0  0  0  0  0  0  0  0  # atno 17342 bound_to 10162
  140.3837  144.2704  150.5906 LP  0  0  0  0  0  0  0  0  0  0  0  0  # atno 17343 bound_to 10162
  156.0026  130.3872  150.2548 LP  0  0  0  0  0  0  0  0  0  0  0  0  # atno 17370 bound_to 10713
  157.0725  131.0121  151.3185 LP  0  0  0  0  0  0  0  0  0  0  0  0  # atno 17371 bound_to 10713
  139.8809  135.0023  156.6116 LP  0  0  0  0  0  0  0  0  0  0  0  0  # atno 17394 bound_to 11000
  140.7791  133.8674  155.8553 LP  0  0  0  0  0  0  0  0  0  0  0  0  # atno 17395 bound_to 11000

$$$$
