AV-unprocessed.smi:239|AV-procd|sdf|1822|dock9
  -GOLD-   2262020423D 1   1.00000     0.00000
 Structure written by MMmdl.
 54 58  0  0  0  0  0  0  0  0  1 V2000
  154.4860  140.1449  161.0548 C   0  0  0  0  0  0  0  0  0  0  0  0
  153.2746  140.7846  160.3687 C   0  0  2  0  0  0  0  0  0  0  0  0
  153.1544  140.3595  158.8931 C   0  0  0  0  0  0  0  0  0  0  0  0
  152.0612  141.0805  158.2450 N   0  0  0  0  0  0  0  0  0  0  0  0
  151.6579  140.6624  157.0176 C   0  0  0  0  0  0  0  0  0  0  0  0
  152.4832  139.8926  156.2577 N   0  0  0  0  0  0  0  0  0  0  0  0
  152.1014  139.4848  155.0439 C   0  0  0  0  0  0  0  0  0  0  0  0
  150.9539  139.7226  154.4067 N   0  0  0  0  0  0  0  0  0  0  0  0
  150.1156  140.4837  155.1666 C   0  0  0  0  0  0  0  0  0  0  0  0
  150.3857  140.9929  156.4687 C   0  0  0  0  0  0  0  0  0  0  0  0
  149.2914  141.7180  156.9262 N   0  0  0  0  0  0  0  0  0  0  0  0
  148.4316  141.6531  155.9467 C   0  0  0  0  0  0  0  0  0  0  0  0
  148.8390  140.9191  154.8558 N   0  0  0  0  0  0  0  0  0  0  0  0
  148.0861  140.6807  153.6341 C   0  0  0  0  0  0  0  0  0  0  0  0
  147.6734  139.2033  153.4106 C   0  0  0  0  0  0  0  0  0  0  0  0
  148.8777  138.5211  153.1099 O   0  0  0  0  0  0  0  0  0  0  0  0
  147.0440  138.5538  154.6623 C   0  0  0  0  0  0  0  0  0  0  0  0
  146.5632  137.1184  154.3827 C   0  0  0  0  0  0  0  0  0  0  0  0
  145.6520  137.1143  153.2895 O   0  0  0  0  0  0  0  0  0  0  0  0
  146.2418  137.5632  152.0749 C   0  0  0  0  0  0  0  0  0  0  0  0
  146.7049  139.0241  152.2215 C   0  0  0  0  0  0  0  0  0  0  0  0
  152.1618  142.5277  158.4014 C   0  0  0  0  0  0  0  0  0  0  0  0
  152.2972  142.8896  159.8909 C   0  0  2  0  0  0  0  0  0  0  0  0
  152.5069  144.3762  160.0930 C   0  0  0  0  0  0  0  0  0  0  0  0
  151.3277  145.3149  160.1997 C   0  0  0  0  0  0  0  0  0  0  0  0
  152.2149  145.3542  158.9788 C   0  0  0  0  0  0  0  0  0  0  0  0
  153.4188  142.2006  160.4363 O   0  0  0  0  0  0  0  0  0  0  0  0
  154.4127  139.0572  161.0464 H   0  0  0  0  0  0  0  0  0  0  0  0
  154.5590  140.4656  162.0943 H   0  0  0  0  0  0  0  0  0  0  0  0
  155.4145  140.4222  160.5546 H   0  0  0  0  0  0  0  0  0  0  0  0
  152.3735  140.4919  160.9103 H   0  0  0  0  0  0  0  0  0  0  0  0
  154.0868  140.5683  158.3662 H   0  0  0  0  0  0  0  0  0  0  0  0
  152.9796  139.2842  158.8349 H   0  0  0  0  0  0  0  0  0  0  0  0
  152.8192  138.8829  154.5066 H   0  0  0  0  0  0  0  0  0  0  0  0
  147.4660  142.1350  155.9971 H   0  0  0  0  0  0  0  0  0  0  0  0
  147.2006  141.3178  153.6559 H   0  0  0  0  0  0  0  0  0  0  0  0
  148.6887  141.0316  152.7948 H   0  0  0  0  0  0  0  0  0  0  0  0
  148.6702  137.6239  152.8978 H   0  0  0  0  0  0  0  0  0  0  0  0
  147.7489  138.5608  155.4945 H   0  0  0  0  0  0  0  0  0  0  0  0
  146.1808  139.1347  154.9869 H   0  0  0  0  0  0  0  0  0  0  0  0
  147.4027  136.4537  154.1739 H   0  0  0  0  0  0  0  0  0  0  0  0
  146.0569  136.7178  155.2610 H   0  0  0  0  0  0  0  0  0  0  0  0
  147.0713  136.9113  151.7971 H   0  0  0  0  0  0  0  0  0  0  0  0
  145.5019  137.4861  151.2781 H   0  0  0  0  0  0  0  0  0  0  0  0
  145.8179  139.6397  152.3694 H   0  0  0  0  0  0  0  0  0  0  0  0
  147.1670  139.3677  151.2952 H   0  0  0  0  0  0  0  0  0  0  0  0
  153.0330  142.8816  157.8482 H   0  0  0  0  0  0  0  0  0  0  0  0
  151.2955  143.0377  157.9831 H   0  0  0  0  0  0  0  0  0  0  0  0
  151.3938  142.5903  160.4260 H   0  0  0  0  0  0  0  0  0  0  0  0
  153.3644  144.6164  160.7192 H   0  0  0  0  0  0  0  0  0  0  0  0
  150.3311  144.8936  160.0829 H   0  0  0  0  0  0  0  0  0  0  0  0
  151.4054  146.1384  160.9064 H   0  0  0  0  0  0  0  0  0  0  0  0
  152.8835  146.2057  158.8700 H   0  0  0  0  0  0  0  0  0  0  0  0
  151.8086  144.9579  158.0500 H   0  0  0  0  0  0  0  0  0  0  0  0
  1  2  1  0  0  0  0
  1 28  1  0  0  0  0
  1 29  1  0  0  0  0
  1 30  1  0  0  0  0
  2 27  1  0  0  0  0
  2  3  1  0  0  0  0
  2 31  1  0  0  0  0
  3  4  1  0  0  0  0
  3 32  1  0  0  0  0
  3 33  1  0  0  0  0
  4  5  1  0  0  0  0
  4 22  1  0  0  0  0
  5 10  1  0  0  0  0
  5  6  2  0  0  0  0
  6  7  1  0  0  0  0
  7  8  2  0  0  0  0
  7 34  1  0  0  0  0
  8  9  1  0  0  0  0
  9 13  1  0  0  0  0
  9 10  2  0  0  0  0
 10 11  1  0  0  0  0
 11 12  2  0  0  0  0
 12 13  1  0  0  0  0
 12 35  1  0  0  0  0
 13 14  1  0  0  0  0
 14 15  1  0  0  0  0
 14 36  1  0  0  0  0
 14 37  1  0  0  0  0
 15 21  1  0  0  0  0
 15 16  1  0  0  0  0
 15 17  1  0  0  0  0
 16 38  1  0  0  0  0
 17 18  1  0  0  0  0
 17 39  1  0  0  0  0
 17 40  1  0  0  0  0
 18 19  1  0  0  0  0
 18 41  1  0  0  0  0
 18 42  1  0  0  0  0
 19 20  1  0  0  0  0
 20 21  1  0  0  0  0
 20 43  1  0  0  0  0
 20 44  1  0  0  0  0
 21 45  1  0  0  0  0
 21 46  1  0  0  0  0
 22 23  1  0  0  0  0
 22 47  1  0  0  0  0
 22 48  1  0  0  0  0
 23 24  1  0  0  0  0
 23 27  1  0  0  0  0
 23 49  1  0  0  0  0
 24 26  1  0  0  0  0
 24 25  1  0  0  0  0
 24 50  1  0  0  0  0
 25 26  1  0  0  0  0
 25 51  1  0  0  0  0
 25 52  1  0  0  0  0
 26 53  1  0  0  0  0
 26 54  1  0  0  0  0
M  END
> <s_m_source_file>
AV-unprocessed.smi

> <i_m_source_file_index>
239

> <i_lp_mmshare_version>
43012

> <i_f3d_flags>
0

> <s_epik_input>
W0NIMl0xW0NIMl1bQ0hdMVtDQEBIXShPMilbQ0gyXU4oW0NIMl1bQ0BIXTJbQ0gzXSljKG5bY0hdbjMpYyhjMzQpbltjSF1uNFtDSDJdQzUoW09IXSlbQ0gyXVtDSDJdT1tDSDJdW0NIMl01

> <s_epik_cmdline>
J2VwaWtfcHl0aG9uJywgJy1waCcsICc3LjAnLCAnLXRuJywgJzgnLCAnLW1hJywgJzIwMCcsICctbWV0YWxfYmluZGluZycsICctaW1hZScsICc8aW5maWxlLm1hZT4nLCAnLW9tYWUnLCAnPG91dGZpbGUubWFlPic=

> <r_lp_tautomer_probability>
1

> <r_epik_Ionization_Penalty>
9.13091e-05

> <r_epik_Ionization_Penalty_Charging>
0

> <r_epik_Ionization_Penalty_Neutral>
9.13091e-05

> <r_epik_State_Penalty>
-0

> <r_epik_Charging_Adjusted_Penalty>
0

> <i_epik_Tot_Q>
0

> <i_epik_Tot_abs_Q>
0

> <r_epik_Metal_State_Penalty>
-0

> <b_epik_Metal_Only>
0

> <s_lp_Force_Field>
OPLS_2005

> <r_lp_Energy>
38.8789

> <b_lp_Chiralities_Consistent>
1

> <s_lp_Variant>
AV-unprocessed.smi:239-3

> <Gold.Version>
5.8.1

> <Gold.Id.Protein>
6NUR|6NUR_protein|mol2

> <Gold.PLP.Fitness>
57.2368

> <Gold.PLP.PLP>
-50.7697

> <Gold.PLP.part.hbond>
-4.0000

> <Gold.PLP.part.metal>
0.0000

> <Gold.PLP.part.buried>
1.4467

> <Gold.PLP.part.nonpolar>
-45.9705

> <Gold.PLP.part.repulsive>
0.4008

> <Gold.PLP.ligand.clash>
0.0000

> <Gold.PLP.ligand.torsion>
1.3475

> <Gold.PLP.Chemscore.Hbond>
2.5940

> <Gold.PLP.Chemscore.CHOScore>
0.0000

> <Gold.PLP.Chemscore.Metal>
0.0000

> <Gold.Chemscore.Hbonds>
donor molecule, donor type, donor heavy atom, donor atom, acceptor molecule, acceptor atom, score
      L1  H    16    38       P1  7948  0.93
      P1  H  7989  7998       L1     8  0.60
      P1  H  7997  8009       L1     6  1.00

> <Gold.PLP.Chemscore.Internal.Correction>
1.3801

> <Gold.Rescore>
     Score         DG    S(hbond)    S(metal)    S(lipo)     H(rot)  DE(clash)    DE(int)     intcor
     18.37     -19.88       1.86        0.00     118.86       2.24       0.10       1.41       ----

> <Gold.Chemscore.Fitness>
18.3658

> <Gold.Chemscore.DG>
-19.8766

> <Gold.Chemscore.ZeroCoef>
-5.4800

> <Gold.Chemscore.Hbond>
1.8626

> <Gold.Chemscore.Metal>
0.0000

> <Gold.Chemscore.Lipo>
118.8598

> <Gold.Chemscore.Internal_Hbond>
0.0000

> <Gold.Chemscore.DEClash>
0.1029

> <Gold.Chemscore.DEInternal>
1.4078

> <Gold.Chemscore.Rot>
2.2387

> <Gold.Chemscore.Internal.Correction>
   9.000000E+99

> <Gold.Chemscore.Hbonds>
donor molecule, donor type, donor heavy atom, donor atom, acceptor molecule, acceptor atom, score
      L1  H    16    38       P1  7948  0.91
      P1  H  7989  7998       L1     8  0.01
      P1  H  7997  8009       L1     6  0.73

> <Gold.Chemscore.Hbond.Weighted>
-6.2211

> <Gold.Chemscore.Metal.Weighted>
-0.0000

> <Gold.Chemscore.Lipo.Weighted>
-13.9066

> <Gold.Chemscore.Internal_Hbond.Weighted>
0.0000

> <Gold.Chemscore.DEClash.Weighted>
0.1029

> <Gold.Chemscore.DEInternal.Weighted>
1.4078

> <Gold.Chemscore.Rot.Weighted>
5.7311

> <Gold.Chemscore.Internal.Correction.Weighted>
   9.000000E+99

> <Gold.Protein.RotatedTorsions>
[ 6907 6896 6895 6894 ] final  -50.12 input  -60.11 | X-H torsion
[ 7974 7965 7964 7962 ] final -170.10 input  175.53 | X-H torsion
[ 8008 7997 7996 7995 ] final -160.44 input   59.86 | X-H torsion
[ 10167 10162 10161 10158 ] final  142.40 input  -65.29 | X-H torsion
[ 10718 10713 10712 10709 ] final  -11.20 input   66.30 | X-H torsion
[ 10763 10752 10751 10750 ] final   20.23 input  -60.55 | X-H torsion
[ 11005 11000 10999 10996 ] final  -89.05 input  -57.11 | X-H torsion

> <Gold.Protein.ActiveResidues>
 VAL166  LYS551  ARG553  GLY616  TRP617  ASP618  TYR619  PRO620  LYS621  CYS622 
 ASP623  PHE694  ASN695  SER759  ASP760  ASP761  ALA762  ILE779  LEU786  VAL792 
 PHE793  MET794  SER795  GLU796  ALA797  LYS798  CYS799  TRP800  GLU811  SER814 

> <Gold.Protein.RotatedAtoms>
  150.8738  134.8117  159.7174 H   0  0  0  0  0  0  0  0  0  0  0  0  # atno 6907 bound_to 6896
  152.4732  134.4905  159.9703 H   0  0  0  0  0  0  0  0  0  0  0  0  # atno 6908 bound_to 6896
  151.4989  133.3470  159.2901 H   0  0  0  0  0  0  0  0  0  0  0  0  # atno 6909 bound_to 6896
  144.7175  140.2123  143.6326 H   0  0  0  0  0  0  0  0  0  0  0  0  # atno 7974 bound_to 7965
  155.7775  140.0860  157.2076 H   0  0  0  0  0  0  0  0  0  0  0  0  # atno 8008 bound_to 7997
  154.3992  140.1514  156.3070 H   0  0  0  0  0  0  0  0  0  0  0  0  # atno 8009 bound_to 7997
  155.8687  140.3426  155.5808 H   0  0  0  0  0  0  0  0  0  0  0  0  # atno 8010 bound_to 7997
  139.4995  144.6109  151.6273 H   0  0  0  0  0  0  0  0  0  0  0  0  # atno 10167 bound_to 10162
  156.6625  130.4986  149.6026 H   0  0  0  0  0  0  0  0  0  0  0  0  # atno 10718 bound_to 10713
  153.1095  135.6693  153.9527 H   0  0  0  0  0  0  0  0  0  0  0  0  # atno 10763 bound_to 10752
  153.9074  135.3029  155.3450 H   0  0  0  0  0  0  0  0  0  0  0  0  # atno 10764 bound_to 10752
  154.7515  135.5032  153.9374 H   0  0  0  0  0  0  0  0  0  0  0  0  # atno 10765 bound_to 10752
  141.1591  133.7607  156.9540 H   0  0  0  0  0  0  0  0  0  0  0  0  # atno 11005 bound_to 11000
  145.8579  139.2208  143.1733 LP  0  0  0  0  0  0  0  0  0  0  0  0  # atno 17320 bound_to 7965
  146.0200  140.8357  142.9928 LP  0  0  0  0  0  0  0  0  0  0  0  0  # atno 17321 bound_to 7965
  140.5784  143.9989  150.6254 LP  0  0  0  0  0  0  0  0  0  0  0  0  # atno 17342 bound_to 10162
  140.3130  143.3186  152.0860 LP  0  0  0  0  0  0  0  0  0  0  0  0  # atno 17343 bound_to 10162
  156.2000  130.6614  151.1157 LP  0  0  0  0  0  0  0  0  0  0  0  0  # atno 17370 bound_to 10713
  157.7105  131.0736  150.6518 LP  0  0  0  0  0  0  0  0  0  0  0  0  # atno 17371 bound_to 10713
  140.1238  134.9400  157.2241 LP  0  0  0  0  0  0  0  0  0  0  0  0  # atno 17394 bound_to 11000
  140.3038  134.3101  155.7283 LP  0  0  0  0  0  0  0  0  0  0  0  0  # atno 17395 bound_to 11000

$$$$
