AV-unprocessed.smi:2095|AV-procd|sdf|8558|dock3
  -GOLD-   2272011283D 1   1.00000     0.00000
 Structure written by MMmdl.
 42 43  0  0  0  0  0  0  0  0  2 V2000
  144.4189  135.3800  150.8862 C   0  0  0  0  0  0  0  0  0  0  0  0
  145.7242  134.7457  151.3869 C   0  0  2  0  0  0  0  0  0  0  0  0
  145.7404  133.2309  151.1361 C   0  0  0  0  0  0  0  0  0  0  0  0
  147.0463  132.6285  151.6623 C   0  0  0  0  0  0  0  0  0  0  0  0
  147.2636  132.9736  153.1449 C   0  0  0  0  0  0  0  0  0  0  0  0
  147.2385  134.4481  153.3722 N   0  3  2  0  0  0  0  0  0  0  0  0
  147.5736  134.9114  154.7597 C   0  0  1  0  0  0  0  0  0  0  0  0
  146.8209  134.1524  155.8803 C   0  0  0  0  0  0  0  0  0  0  0  0
  149.1028  134.8213  154.9818 C   0  0  0  0  0  0  0  0  0  0  0  0
  149.8027  135.9979  154.4802 N   0  0  0  0  0  0  0  0  0  0  0  0
  150.9403  136.4830  154.9987 C   0  0  0  0  0  0  0  0  0  0  0  0
  151.5157  135.9759  155.9609 O   0  0  0  0  0  0  0  0  0  0  0  0
  151.5201  137.7285  154.3286 C   0  0  0  0  0  0  0  0  0  0  0  0
  151.5544  138.8446  155.2540 N   0  0  0  0  0  0  0  0  0  0  0  0
  152.1764  138.9945  156.4252 C   0  0  0  0  0  0  0  0  0  0  0  0
  151.9547  140.1918  156.9460 N   0  0  0  0  0  0  0  0  0  0  0  0
  151.1362  140.7974  156.0071 N   0  0  0  0  0  0  0  0  0  0  0  0
  150.8958  140.0032  155.0002 N   0  0  0  0  0  0  0  0  0  0  0  0
  145.9574  135.0348  152.8828 C   0  0  0  0  0  0  0  0  0  0  0  0
  143.5534  134.9754  151.4119 H   0  0  0  0  0  0  0  0  0  0  0  0
  144.2768  135.1957  149.8210 H   0  0  0  0  0  0  0  0  0  0  0  0
  144.4236  136.4602  151.0348 H   0  0  0  0  0  0  0  0  0  0  0  0
  146.5439  135.1938  150.8231 H   0  0  0  0  0  0  0  0  0  0  0  0
  144.8914  132.7592  151.6329 H   0  0  0  0  0  0  0  0  0  0  0  0
  145.6364  133.0207  150.0709 H   0  0  0  0  0  0  0  0  0  0  0  0
  147.0356  131.5461  151.5298 H   0  0  0  0  0  0  0  0  0  0  0  0
  147.8847  133.0024  151.0729 H   0  0  0  0  0  0  0  0  0  0  0  0
  146.5022  132.4931  153.7615 H   0  0  0  0  0  0  0  0  0  0  0  0
  148.2271  132.5515  153.4283 H   0  0  0  0  0  0  0  0  0  0  0  0
  147.2725  135.9573  154.8425 H   0  0  0  0  0  0  0  0  0  0  0  0
  147.0949  134.5182  156.8696 H   0  0  0  0  0  0  0  0  0  0  0  0
  147.0417  133.0845  155.8581 H   0  0  0  0  0  0  0  0  0  0  0  0
  145.7409  134.2822  155.8080 H   0  0  0  0  0  0  0  0  0  0  0  0
  149.3105  134.7050  156.0472 H   0  0  0  0  0  0  0  0  0  0  0  0
  149.5271  133.9491  154.4853 H   0  0  0  0  0  0  0  0  0  0  0  0
  149.3994  136.4727  153.6853 H   0  0  0  0  0  0  0  0  0  0  0  0
  152.5283  137.5296  153.9616 H   0  0  0  0  0  0  0  0  0  0  0  0
  150.9119  138.0055  153.4665 H   0  0  0  0  0  0  0  0  0  0  0  0
  152.7890  138.2355  156.8890 H   0  0  0  0  0  0  0  0  0  0  0  0
  145.9498  136.1133  153.0346 H   0  0  0  0  0  0  0  0  0  0  0  0
  145.1307  134.6355  153.4733 H   0  0  0  0  0  0  0  0  0  0  0  0
  147.9689  134.8181  152.7808 H   0  0  0  0  0  0  0  0  0  0  0  0
  1  2  1  0  0  0  0
  1 20  1  0  0  0  0
  1 21  1  0  0  0  0
  1 22  1  0  0  0  0
  2 19  1  0  0  0  0
  2  3  1  0  0  0  0
  2 23  1  0  0  0  0
  3  4  1  0  0  0  0
  3 24  1  0  0  0  0
  3 25  1  0  0  0  0
  4  5  1  0  0  0  0
  4 26  1  0  0  0  0
  4 27  1  0  0  0  0
  5  6  1  0  0  0  0
  5 28  1  0  0  0  0
  5 29  1  0  0  0  0
  6  7  1  0  0  0  0
  6 19  1  0  0  0  0
  6 42  1  0  0  0  0
  7  8  1  0  0  0  0
  7  9  1  0  0  0  0
  7 30  1  0  0  0  0
  8 31  1  0  0  0  0
  8 32  1  0  0  0  0
  8 33  1  0  0  0  0
  9 10  1  0  0  0  0
  9 34  1  0  0  0  0
  9 35  1  0  0  0  0
 10 11  1  0  0  0  0
 10 36  1  0  0  0  0
 11 12  2  0  0  0  0
 11 13  1  0  0  0  0
 13 14  1  0  0  0  0
 13 37  1  0  0  0  0
 13 38  1  0  0  0  0
 14 18  1  0  0  0  0
 14 15  1  0  0  0  0
 15 16  2  0  0  0  0
 15 39  1  0  0  0  0
 16 17  1  0  0  0  0
 17 18  2  0  0  0  0
 19 40  1  0  0  0  0
 19 41  1  0  0  0  0
M  CHG  1   6   1
M  END
> <s_m_source_file>
AV-unprocessed.smi

> <i_m_source_file_index>
2095

> <i_lp_mmshare_version>
43012

> <i_f3d_flags>
0

> <s_epik_input>
W0NIM11bQ0BASF0xW0NIMl1bQ0gyXVtDSDJdTihbQ0gyXTEpW0NASF0oW0NIM10pW0NIMl1bTkhdQyg9TylbQ0gyXW4yW2NIXW5ubjI=

> <s_epik_cmdline>
J2VwaWtfcHl0aG9uJywgJy1waCcsICc3LjAnLCAnLXRuJywgJzgnLCAnLW1hJywgJzIwMCcsICctbWV0YWxfYmluZGluZycsICctaW1hZScsICc8aW5maWxlLm1hZT4nLCAnLW9tYWUnLCAnPG91dGZpbGUubWFlPic=

> <r_lp_tautomer_probability>
1

> <r_epik_Ionization_Penalty>
0.00268321

> <r_epik_Ionization_Penalty_Charging>
0.00267875

> <r_epik_Ionization_Penalty_Neutral>
4.46125e-06

> <r_epik_State_Penalty>
0.00186642

> <r_epik_Charging_Adjusted_Penalty>
0.00454517

> <i_epik_Tot_Q>
1

> <i_epik_Tot_abs_Q>
1

> <r_epik_Metal_State_Penalty>
-0

> <b_epik_Metal_Only>
0

> <s_lp_Force_Field>
OPLS_2005

> <r_lp_Energy>
25.5327

> <b_lp_Chiralities_Consistent>
1

> <s_lp_Variant>
AV-unprocessed.smi:2095-5

> <Gold.Version>
5.8.1

> <Gold.Id.Protein>
6NUR|6NUR_protein|mol2

> <Gold.PLP.Fitness>
42.0191

> <Gold.PLP.PLP>
-29.2325

> <Gold.PLP.part.hbond>
-5.5363

> <Gold.PLP.part.metal>
0.0000

> <Gold.PLP.part.buried>
-0.9760

> <Gold.PLP.part.nonpolar>
-22.8856

> <Gold.PLP.part.repulsive>
0.2115

> <Gold.PLP.ligand.clash>
0.0000

> <Gold.PLP.ligand.torsion>
0.8545

> <Gold.PLP.Chemscore.Hbond>
4.8000

> <Gold.PLP.Chemscore.CHOScore>
0.0000

> <Gold.PLP.Chemscore.Metal>
0.0000

> <Gold.Chemscore.Hbonds>
donor molecule, donor type, donor heavy atom, donor atom, acceptor molecule, acceptor atom, score
      L1  H     6    42       P1  7948  2.00
      L1  H    10    36       P1  7948  0.83
      P1  H  7989  7998       L1    18  1.00
      P1  H 10752 10765       L1    12  0.95

> <Gold.PLP.Chemscore.Internal.Correction>
0.0957

> <Gold.Rescore>
     Score         DG    S(hbond)    S(metal)    S(lipo)     H(rot)  DE(clash)    DE(int)     intcor
     13.60     -14.84       3.22        0.00      45.94       2.64       0.60       0.65       ----

> <Gold.Chemscore.Fitness>
13.5984

> <Gold.Chemscore.DG>
-14.8432

> <Gold.Chemscore.ZeroCoef>
-5.4800

> <Gold.Chemscore.Hbond>
3.2205

> <Gold.Chemscore.Metal>
0.0000

> <Gold.Chemscore.Lipo>
45.9424

> <Gold.Chemscore.Internal_Hbond>
0.0000

> <Gold.Chemscore.DEClash>
0.5977

> <Gold.Chemscore.DEInternal>
0.6471

> <Gold.Chemscore.Rot>
2.6439

> <Gold.Chemscore.Internal.Correction>
   9.000000E+99

> <Gold.Chemscore.Hbonds>
donor molecule, donor type, donor heavy atom, donor atom, acceptor molecule, acceptor atom, score
      L1  H     6    42       P1  7948  0.84
      L1  H    10    36       P1  7948  0.71
      P1  H  7989  7998       L1    18  0.39
      P1  H 10752 10765       L1    12  0.21

> <Gold.Chemscore.Hbond.Weighted>
-10.7564

> <Gold.Chemscore.Metal.Weighted>
-0.0000

> <Gold.Chemscore.Lipo.Weighted>
-5.3753

> <Gold.Chemscore.Internal_Hbond.Weighted>
0.0000

> <Gold.Chemscore.DEClash.Weighted>
0.5977

> <Gold.Chemscore.DEInternal.Weighted>
0.6471

> <Gold.Chemscore.Rot.Weighted>
6.7685

> <Gold.Chemscore.Internal.Correction.Weighted>
   9.000000E+99

> <Gold.Protein.RotatedTorsions>
[ 6907 6896 6895 6894 ] final   -0.06 input  -60.11 | X-H torsion
[ 7974 7965 7964 7962 ] final  112.80 input  175.53 | X-H torsion
[ 8008 7997 7996 7995 ] final  148.03 input   59.86 | X-H torsion
[ 10167 10162 10161 10158 ] final  -58.18 input  -65.29 | X-H torsion
[ 10718 10713 10712 10709 ] final  -21.09 input   66.30 | X-H torsion
[ 10763 10752 10751 10750 ] final -147.05 input  -60.55 | X-H torsion
[ 11005 11000 10999 10996 ] final -126.95 input  -57.11 | X-H torsion

> <Gold.Protein.ActiveResidues>
 VAL166  LYS551  ARG553  GLY616  TRP617  ASP618  TYR619  PRO620  LYS621  CYS622 
 ASP623  PHE694  ASN695  SER759  ASP760  ASP761  ALA762  ILE779  LEU786  VAL792 
 PHE793  MET794  SER795  GLU796  ALA797  LYS798  CYS799  TRP800  GLU811  SER814 

> <Gold.Protein.RotatedAtoms>
  151.5684  135.1063  159.9989 H   0  0  0  0  0  0  0  0  0  0  0  0  # atno 6907 bound_to 6896
  152.4413  133.7449  159.6672 H   0  0  0  0  0  0  0  0  0  0  0  0  # atno 6908 bound_to 6896
  150.8319  133.8009  159.3119 H   0  0  0  0  0  0  0  0  0  0  0  0  # atno 6909 bound_to 6896
  145.2250  139.2845  143.4198 H   0  0  0  0  0  0  0  0  0  0  0  0  # atno 7974 bound_to 7965
  156.2805  140.2139  156.5633 H   0  0  0  0  0  0  0  0  0  0  0  0  # atno 8008 bound_to 7997
  154.7195  140.0505  157.0649 H   0  0  0  0  0  0  0  0  0  0  0  0  # atno 8009 bound_to 7997
  155.0497  140.3155  155.4699 H   0  0  0  0  0  0  0  0  0  0  0  0  # atno 8010 bound_to 7997
  140.6213  143.2420  151.5474 H   0  0  0  0  0  0  0  0  0  0  0  0  # atno 10167 bound_to 10162
  156.5229  130.4636  149.6587 H   0  0  0  0  0  0  0  0  0  0  0  0  # atno 10718 bound_to 10713
  154.8305  135.3370  154.6757 H   0  0  0  0  0  0  0  0  0  0  0  0  # atno 10763 bound_to 10752
  153.7377  135.6948  153.4978 H   0  0  0  0  0  0  0  0  0  0  0  0  # atno 10764 bound_to 10752
  153.2266  135.4430  155.0500 H   0  0  0  0  0  0  0  0  0  0  0  0  # atno 10765 bound_to 10752
  140.9640  134.0898  157.3939 H   0  0  0  0  0  0  0  0  0  0  0  0  # atno 11005 bound_to 11000
  146.3367  140.2567  142.8600 LP  0  0  0  0  0  0  0  0  0  0  0  0  # atno 17320 bound_to 7965
  144.9730  140.8387  143.5444 LP  0  0  0  0  0  0  0  0  0  0  0  0  # atno 17321 bound_to 7965
  139.5441  144.2568  152.1408 LP  0  0  0  0  0  0  0  0  0  0  0  0  # atno 17342 bound_to 10162
  140.1789  144.4863  150.6539 LP  0  0  0  0  0  0  0  0  0  0  0  0  # atno 17343 bound_to 10162
  156.3132  130.7240  151.2137 LP  0  0  0  0  0  0  0  0  0  0  0  0  # atno 17370 bound_to 10713
  157.7434  131.0475  150.4950 LP  0  0  0  0  0  0  0  0  0  0  0  0  # atno 17371 bound_to 10713
  139.8888  135.0100  156.6640 LP  0  0  0  0  0  0  0  0  0  0  0  0  # atno 17394 bound_to 11000
  140.7427  133.8964  155.8289 LP  0  0  0  0  0  0  0  0  0  0  0  0  # atno 17395 bound_to 11000

$$$$
