AV-unprocessed.smi:3308|AV-procd|sdf|12711|dock6
  -GOLD-   2272019 43D 1   1.00000     0.00000
 Structure written by MMmdl.
 41 42  0  0  0  0  0  0  0  0  2 V2000
  150.2841  141.7398  157.3063 C   0  0  0  0  0  0  0  0  0  0  0  0
  149.5602  142.7128  158.2576 C   0  0  1  0  0  0  0  0  0  0  0  0
  149.9921  144.1099  158.0155 N   0  3  0  0  0  0  0  0  0  0  0  0
  151.4218  144.3929  158.2683 C   0  0  0  0  0  0  0  0  0  0  0  0
  151.6879  144.7796  159.7300 C   0  0  0  0  0  0  0  0  0  0  0  0
  151.3785  145.9031  160.1299 O   0  0  0  0  0  0  0  0  0  0  0  0
  152.2626  143.8636  160.5367 N   0  0  0  0  0  0  0  0  0  0  0  0
  152.5666  144.1050  161.9460 C   0  0  0  0  0  0  0  0  0  0  0  0
  152.9532  142.7442  162.5256 C   0  0  0  0  0  0  0  0  0  0  0  0
  153.4616  141.9585  161.3248 C   0  0  0  0  0  0  0  0  0  0  0  0
  152.6590  142.5107  160.1462 C   0  0  0  0  0  0  0  0  0  0  0  0
  148.0173  142.5819  158.1603 C   0  0  1  0  0  0  0  0  0  0  0  0
  147.5525  141.1520  157.8248 C   0  0  0  0  0  0  0  0  0  0  0  0
  147.3219  143.1185  159.3266 N   0  0  0  0  0  0  0  0  0  0  0  0
  147.4149  144.3870  159.8632 C   0  0  0  0  0  0  0  0  0  0  0  0
  146.5995  144.4307  160.9574 C   0  0  0  0  0  0  0  0  0  0  0  0
  146.0428  143.1232  161.0167 C   0  0  0  0  0  0  0  0  0  0  0  0
  146.4801  142.3398  160.0443 N   0  0  0  0  0  0  0  0  0  0  0  0
  149.9203  140.7208  157.4414 H   0  0  0  0  0  0  0  0  0  0  0  0
  151.3583  141.7198  157.4888 H   0  0  0  0  0  0  0  0  0  0  0  0
  150.1318  142.0097  156.2607 H   0  0  0  0  0  0  0  0  0  0  0  0
  149.8391  142.4542  159.2802 H   0  0  0  0  0  0  0  0  0  0  0  0
  149.7661  144.3619  157.0633 H   0  0  0  0  0  0  0  0  0  0  0  0
  152.0097  143.5092  158.0168 H   0  0  0  0  0  0  0  0  0  0  0  0
  151.7530  145.2089  157.6266 H   0  0  0  0  0  0  0  0  0  0  0  0
  153.4033  144.8018  162.0140 H   0  0  0  0  0  0  0  0  0  0  0  0
  151.7205  144.5379  162.4823 H   0  0  0  0  0  0  0  0  0  0  0  0
  153.6906  142.8192  163.3254 H   0  0  0  0  0  0  0  0  0  0  0  0
  152.0674  142.2554  162.9335 H   0  0  0  0  0  0  0  0  0  0  0  0
  154.5217  142.1684  161.1754 H   0  0  0  0  0  0  0  0  0  0  0  0
  153.3487  140.8806  161.4460 H   0  0  0  0  0  0  0  0  0  0  0  0
  151.7634  141.9097  159.9817 H   0  0  0  0  0  0  0  0  0  0  0  0
  153.2530  142.4972  159.2315 H   0  0  0  0  0  0  0  0  0  0  0  0
  147.7072  143.2000  157.3161 H   0  0  0  0  0  0  0  0  0  0  0  0
  148.0111  140.7985  156.9010 H   0  0  0  0  0  0  0  0  0  0  0  0
  146.4713  141.1169  157.6867 H   0  0  0  0  0  0  0  0  0  0  0  0
  147.8064  140.4422  158.6124 H   0  0  0  0  0  0  0  0  0  0  0  0
  148.0476  145.1461  159.4272 H   0  0  0  0  0  0  0  0  0  0  0  0
  146.4269  145.2693  161.6159 H   0  0  0  0  0  0  0  0  0  0  0  0
  145.3414  142.7223  161.7335 H   0  0  0  0  0  0  0  0  0  0  0  0
  149.4571  144.7070  158.6300 H   0  0  0  0  0  0  0  0  0  0  0  0
  1  2  1  0  0  0  0
  1 19  1  0  0  0  0
  1 20  1  0  0  0  0
  1 21  1  0  0  0  0
  2  3  1  0  0  0  0
  2 12  1  0  0  0  0
  2 22  1  0  0  0  0
  3  4  1  0  0  0  0
  3 23  1  0  0  0  0
  3 41  1  0  0  0  0
  4  5  1  0  0  0  0
  4 24  1  0  0  0  0
  4 25  1  0  0  0  0
  5  6  2  0  0  0  0
  5  7  1  0  0  0  0
  7 11  1  0  0  0  0
  7  8  1  0  0  0  0
  8  9  1  0  0  0  0
  8 26  1  0  0  0  0
  8 27  1  0  0  0  0
  9 10  1  0  0  0  0
  9 28  1  0  0  0  0
  9 29  1  0  0  0  0
 10 11  1  0  0  0  0
 10 30  1  0  0  0  0
 10 31  1  0  0  0  0
 11 32  1  0  0  0  0
 11 33  1  0  0  0  0
 12 13  1  0  0  0  0
 12 14  1  0  0  0  0
 12 34  1  0  0  0  0
 13 35  1  0  0  0  0
 13 36  1  0  0  0  0
 13 37  1  0  0  0  0
 14 18  1  0  0  0  0
 14 15  1  0  0  0  0
 15 16  2  0  0  0  0
 15 38  1  0  0  0  0
 16 17  1  0  0  0  0
 16 39  1  0  0  0  0
 17 18  2  0  0  0  0
 17 40  1  0  0  0  0
M  CHG  1   3   1
M  END
> <s_m_source_file>
AV-unprocessed.smi

> <i_m_source_file_index>
3308

> <i_lp_mmshare_version>
43012

> <i_f3d_flags>
0

> <s_epik_input>
bjFbY0hdW2NIXVtjSF1uMVtDQEBIXShbQ0gzXSlbQ0BIXShbQ0gzXSlbTkhdW0NIMl1DKD1PKU4yW0NIMl1bQ0gyXVtDSDJdW0NIMl0y

> <s_epik_cmdline>
J2VwaWtfcHl0aG9uJywgJy1waCcsICc3LjAnLCAnLXRuJywgJzgnLCAnLW1hJywgJzIwMCcsICctbWV0YWxfYmluZGluZycsICctaW1hZScsICc8aW5maWxlLm1hZT4nLCAnLW9tYWUnLCAnPG91dGZpbGUubWFlPic=

> <r_lp_tautomer_probability>
1

> <r_epik_Ionization_Penalty>
0.141739

> <r_epik_Ionization_Penalty_Charging>
0.141731

> <r_epik_Ionization_Penalty_Neutral>
8.82171e-06

> <r_epik_State_Penalty>
0.131043

> <r_epik_Charging_Adjusted_Penalty>
0.272773

> <i_epik_Tot_Q>
1

> <i_epik_Tot_abs_Q>
1

> <r_epik_Metal_State_Penalty>
0.131385

> <b_epik_Metal_Only>
0

> <s_lp_Force_Field>
OPLS_2005

> <r_lp_Energy>
32.7398

> <b_lp_Chiralities_Consistent>
1

> <s_lp_Variant>
AV-unprocessed.smi:3308-4

> <Gold.Version>
5.8.1

> <Gold.Id.Protein>
6NUR|6NUR_protein|mol2

> <Gold.PLP.Fitness>
53.7572

> <Gold.PLP.PLP>
-43.4394

> <Gold.PLP.part.hbond>
-4.4885

> <Gold.PLP.part.metal>
0.0000

> <Gold.PLP.part.buried>
-4.2379

> <Gold.PLP.part.nonpolar>
-35.3327

> <Gold.PLP.part.repulsive>
0.2986

> <Gold.PLP.ligand.clash>
0.0000

> <Gold.PLP.ligand.torsion>
0.8760

> <Gold.PLP.Chemscore.Hbond>
3.0562

> <Gold.PLP.Chemscore.CHOScore>
0.9079

> <Gold.PLP.Chemscore.Metal>
0.0000

> <Gold.Chemscore.Hbonds>
donor molecule, donor type, donor heavy atom, donor atom, acceptor molecule, acceptor atom, score
      L1  H     3    23       P1  8028  2.00
      L1  H     3    41       P1  8029  0.02
      P1  H  6934  6946       L1    18  1.00
      L1  C    15    38       P1  8029  0.91

> <Gold.PLP.Chemscore.Internal.Correction>
0.1776

> <Gold.Rescore>
     Score         DG    S(hbond)    S(metal)    S(lipo)     H(rot)  DE(clash)    DE(int)     intcor
     12.75     -13.56       0.96        0.00      80.73       1.78       0.04       0.77       ----

> <Gold.Chemscore.Fitness>
12.7502

> <Gold.Chemscore.DG>
-13.5605

> <Gold.Chemscore.ZeroCoef>
-5.4800

> <Gold.Chemscore.Hbond>
0.9584

> <Gold.Chemscore.Metal>
0.0000

> <Gold.Chemscore.Lipo>
80.7301

> <Gold.Chemscore.Internal_Hbond>
0.0000

> <Gold.Chemscore.DEClash>
0.0445

> <Gold.Chemscore.DEInternal>
0.7659

> <Gold.Chemscore.Rot>
1.7836

> <Gold.Chemscore.Internal.Correction>
   9.000000E+99

> <Gold.Chemscore.Hbonds>
donor molecule, donor type, donor heavy atom, donor atom, acceptor molecule, acceptor atom, score
      L1  H     3    23       P1  8028  0.50
      L1  H     3    41       P1  8029  0.01
      P1  H  6934  6946       L1    18  0.65

> <Gold.Chemscore.Hbond.Weighted>
-3.2011

> <Gold.Chemscore.Metal.Weighted>
-0.0000

> <Gold.Chemscore.Lipo.Weighted>
-9.4454

> <Gold.Chemscore.Internal_Hbond.Weighted>
0.0000

> <Gold.Chemscore.DEClash.Weighted>
0.0445

> <Gold.Chemscore.DEInternal.Weighted>
0.7659

> <Gold.Chemscore.Rot.Weighted>
4.5660

> <Gold.Chemscore.Internal.Correction.Weighted>
   9.000000E+99

> <Gold.Protein.RotatedTorsions>
[ 6907 6896 6895 6894 ] final  -57.69 input  -60.11 | X-H torsion
[ 7974 7965 7964 7962 ] final   60.13 input  175.53 | X-H torsion
[ 8008 7997 7996 7995 ] final  -34.09 input   59.86 | X-H torsion
[ 10167 10162 10161 10158 ] final  134.70 input  -65.29 | X-H torsion
[ 10718 10713 10712 10709 ] final  -24.35 input   66.30 | X-H torsion
[ 10763 10752 10751 10750 ] final  161.90 input  -60.55 | X-H torsion
[ 11005 11000 10999 10996 ] final -118.11 input  -57.11 | X-H torsion

> <Gold.Protein.ActiveResidues>
 VAL166  LYS551  ARG553  GLY616  TRP617  ASP618  TYR619  PRO620  LYS621  CYS622 
 ASP623  PHE694  ASN695  SER759  ASP760  ASP761  ALA762  ILE779  LEU786  VAL792 
 PHE793  MET794  SER795  GLU796  ALA797  LYS798  CYS799  TRP800  GLU811  SER814 

> <Gold.Protein.RotatedAtoms>
  150.8066  134.7195  159.6649 H   0  0  0  0  0  0  0  0  0  0  0  0  # atno 6907 bound_to 6896
  152.4185  134.5994  160.0005 H   0  0  0  0  0  0  0  0  0  0  0  0  # atno 6908 bound_to 6896
  151.6216  133.3301  159.3125 H   0  0  0  0  0  0  0  0  0  0  0  0  # atno 6909 bound_to 6896
  145.8995  139.3570  143.0601 H   0  0  0  0  0  0  0  0  0  0  0  0  # atno 7974 bound_to 7965
  154.4130  140.1693  156.1994 H   0  0  0  0  0  0  0  0  0  0  0  0  # atno 8008 bound_to 7997
  155.9537  140.3399  155.6406 H   0  0  0  0  0  0  0  0  0  0  0  0  # atno 8009 bound_to 7997
  155.6838  140.0725  157.2465 H   0  0  0  0  0  0  0  0  0  0  0  0  # atno 8010 bound_to 7997
  139.5246  144.6554  151.5177 H   0  0  0  0  0  0  0  0  0  0  0  0  # atno 10167 bound_to 10162
  156.4788  130.4540  149.6824 H   0  0  0  0  0  0  0  0  0  0  0  0  # atno 10718 bound_to 10713
  154.2700  135.2766  155.2742 H   0  0  0  0  0  0  0  0  0  0  0  0  # atno 10763 bound_to 10752
  154.5309  135.5730  153.6762 H   0  0  0  0  0  0  0  0  0  0  0  0  # atno 10764 bound_to 10752
  152.9947  135.6227  154.2854 H   0  0  0  0  0  0  0  0  0  0  0  0  # atno 10765 bound_to 10752
  141.0309  133.9983  157.3145 H   0  0  0  0  0  0  0  0  0  0  0  0  # atno 11005 bound_to 11000
  145.8809  140.9363  143.0602 LP  0  0  0  0  0  0  0  0  0  0  0  0  # atno 17320 bound_to 7965
  144.6735  140.0778  143.7470 LP  0  0  0  0  0  0  0  0  0  0  0  0  # atno 17321 bound_to 7965
  140.6377  143.8950  150.6663 LP  0  0  0  0  0  0  0  0  0  0  0  0  # atno 17342 bound_to 10162
  140.2275  143.3761  152.1593 LP  0  0  0  0  0  0  0  0  0  0  0  0  # atno 17343 bound_to 10162
  156.3543  130.7448  151.2412 LP  0  0  0  0  0  0  0  0  0  0  0  0  # atno 17370 bound_to 10713
  157.7485  131.0368  150.4427 LP  0  0  0  0  0  0  0  0  0  0  0  0  # atno 17371 bound_to 10713
  139.9207  135.0200  156.8052 LP  0  0  0  0  0  0  0  0  0  0  0  0  # atno 17394 bound_to 11000
  140.6409  133.9819  155.7707 LP  0  0  0  0  0  0  0  0  0  0  0  0  # atno 17395 bound_to 11000

$$$$
