AV-unprocessed.smi:1403|AV-procd|sdf|5701|dock1
  -GOLD-   22720 5333D 1   1.00000     0.00000
 Structure written by MMmdl.
 35 36  0  0  0  0  0  0  0  0  2 V2000
  153.7561  141.6709  161.4796 C   0  0  0  0  0  0  0  0  0  0  0  0
  152.5097  142.1620  160.7299 C   0  0  2  0  0  0  0  0  0  0  0  0
  152.0796  141.1385  159.7798 N   0  0  0  0  0  0  0  0  0  0  0  0
  152.8835  140.3405  159.0607 C   0  0  0  0  0  0  0  0  0  0  0  0
  154.1095  140.4449  159.0414 O   0  0  0  0  0  0  0  0  0  0  0  0
  152.1882  139.2399  158.2555 C   0  0  0  0  0  0  0  0  0  0  0  0
  151.4563  139.8173  157.1181 N   0  0  0  0  0  0  0  0  0  0  0  0
  150.2722  140.5182  157.4093 C   0  0  0  0  0  0  0  0  0  0  0  0
  149.5023  141.0491  156.4412 C   0  0  0  0  0  0  0  0  0  0  0  0
  149.9261  140.8854  155.0566 C   0  0  0  0  0  0  0  0  0  0  0  0
  149.2361  141.3642  154.1589 O   0  0  0  0  0  0  0  0  0  0  0  0
  151.0832  140.1990  154.8241 N   0  5  0  0  0  0  0  0  0  0  0  0
  151.8532  139.6581  155.8194 C   0  0  0  0  0  0  0  0  0  0  0  0
  152.8875  139.0335  155.5843 O   0  0  0  0  0  0  0  0  0  0  0  0
  152.7592  143.5034  160.0053 C   0  0  2  0  0  0  0  0  0  0  0  0
  151.9005  144.6839  160.4782 C   0  0  0  0  0  0  0  0  0  0  0  0
  151.8452  145.5459  159.2383 C   0  0  0  0  0  0  0  0  0  0  0  0
  151.7432  144.4917  158.1423 C   0  0  0  0  0  0  0  0  0  0  0  0
  152.5134  143.3856  158.6030 O   0  0  0  0  0  0  0  0  0  0  0  0
  154.0886  142.4073  162.2117 H   0  0  0  0  0  0  0  0  0  0  0  0
  154.5848  141.4835  160.7961 H   0  0  0  0  0  0  0  0  0  0  0  0
  153.5507  140.7441  162.0163 H   0  0  0  0  0  0  0  0  0  0  0  0
  151.7328  142.3272  161.4782 H   0  0  0  0  0  0  0  0  0  0  0  0
  151.0855  140.9721  159.7217 H   0  0  0  0  0  0  0  0  0  0  0  0
  152.9225  138.5148  157.9001 H   0  0  0  0  0  0  0  0  0  0  0  0
  151.5268  138.6770  158.9160 H   0  0  0  0  0  0  0  0  0  0  0  0
  150.0267  140.5863  158.4592 H   0  0  0  0  0  0  0  0  0  0  0  0
  148.5924  141.5782  156.6830 H   0  0  0  0  0  0  0  0  0  0  0  0
  153.8072  143.7845  160.1192 H   0  0  0  0  0  0  0  0  0  0  0  0
  150.8898  144.3728  160.7414 H   0  0  0  0  0  0  0  0  0  0  0  0
  152.3270  145.1993  161.3389 H   0  0  0  0  0  0  0  0  0  0  0  0
  151.0074  146.2440  159.2372 H   0  0  0  0  0  0  0  0  0  0  0  0
  152.7698  146.1146  159.1328 H   0  0  0  0  0  0  0  0  0  0  0  0
  150.7086  144.1687  158.0230 H   0  0  0  0  0  0  0  0  0  0  0  0
  152.0985  144.8537  157.1774 H   0  0  0  0  0  0  0  0  0  0  0  0
  1  2  1  0  0  0  0
  1 20  1  0  0  0  0
  1 21  1  0  0  0  0
  1 22  1  0  0  0  0
  2  3  1  0  0  0  0
  2 15  1  0  0  0  0
  2 23  1  0  0  0  0
  3  4  1  0  0  0  0
  3 24  1  0  0  0  0
  4  5  2  0  0  0  0
  4  6  1  0  0  0  0
  6  7  1  0  0  0  0
  6 25  1  0  0  0  0
  6 26  1  0  0  0  0
  7 13  1  0  0  0  0
  7  8  1  0  0  0  0
  8  9  2  0  0  0  0
  8 27  1  0  0  0  0
  9 10  1  0  0  0  0
  9 28  1  0  0  0  0
 10 11  2  0  0  0  0
 10 12  1  0  0  0  0
 12 13  1  0  0  0  0
 13 14  2  0  0  0  0
 15 19  1  0  0  0  0
 15 16  1  0  0  0  0
 15 29  1  0  0  0  0
 16 17  1  0  0  0  0
 16 30  1  0  0  0  0
 16 31  1  0  0  0  0
 17 18  1  0  0  0  0
 17 32  1  0  0  0  0
 17 33  1  0  0  0  0
 18 19  1  0  0  0  0
 18 34  1  0  0  0  0
 18 35  1  0  0  0  0
M  CHG  1  12  -1
M  END
> <s_m_source_file>
AV-unprocessed.smi

> <i_m_source_file_index>
1403

> <i_lp_mmshare_version>
43012

> <i_f3d_flags>
0

> <s_epik_input>
TzFbQ0gyXVtDSDJdW0NIMl1bQ0BIXTFbQ0BIXShbQ0gzXSlbTkhdQyg9TylbQ0gyXW4yW2NIXVtjSF1jKD1PKVtuSF1jMj1P

> <s_epik_cmdline>
J2VwaWtfcHl0aG9uJywgJy1waCcsICc3LjAnLCAnLXRuJywgJzgnLCAnLW1hJywgJzIwMCcsICctbWV0YWxfYmluZGluZycsICctaW1hZScsICc8aW5maWxlLm1hZT4nLCAnLW9tYWUnLCAnPG91dGZpbGUubWFlPic=

> <r_lp_tautomer_probability>
0.999537

> <r_epik_Ionization_Penalty>
3.07438

> <r_epik_Ionization_Penalty_Charging>
2.82466e-08

> <r_epik_Ionization_Penalty_Neutral>
3.07438

> <r_epik_State_Penalty>
3.07341

> <r_epik_Charging_Adjusted_Penalty>
3.07341

> <i_epik_Tot_Q>
-1

> <i_epik_Tot_abs_Q>
1

> <r_epik_Metal_State_Penalty>
0.45947

> <b_epik_Metal_Only>
1

> <s_lp_Force_Field>
OPLS_2005

> <r_lp_Energy>
29.4252

> <b_lp_Chiralities_Consistent>
1

> <s_lp_Variant>
AV-unprocessed.smi:1403-5

> <Gold.Version>
5.8.1

> <Gold.Id.Protein>
6NUR|6NUR_protein|mol2

> <Gold.PLP.Fitness>
47.5878

> <Gold.PLP.PLP>
-43.2555

> <Gold.PLP.part.hbond>
-4.9249

> <Gold.PLP.part.metal>
0.0000

> <Gold.PLP.part.buried>
-2.6932

> <Gold.PLP.part.nonpolar>
-34.8568

> <Gold.PLP.part.repulsive>
0.4136

> <Gold.PLP.ligand.clash>
0.0000

> <Gold.PLP.ligand.torsion>
2.0807

> <Gold.PLP.Chemscore.Hbond>
2.8139

> <Gold.PLP.Chemscore.CHOScore>
0.0000

> <Gold.PLP.Chemscore.Metal>
0.0000

> <Gold.Chemscore.Hbonds>
donor molecule, donor type, donor heavy atom, donor atom, acceptor molecule, acceptor atom, score
      P1  H  7989  7998       L1    12  1.00
      P1  H  7997  8009       L1     5  0.80
      P1  H  7997  8010       L1    14  0.33
      P1  H  8011  8017       L1    11  0.45

> <Gold.PLP.Chemscore.Internal.Correction>
0.0520

> <Gold.Rescore>
     Score         DG    S(hbond)    S(metal)    S(lipo)     H(rot)  DE(clash)    DE(int)     intcor
     14.02     -17.82       2.35        0.00      81.99       1.99       0.06       3.74       ----

> <Gold.Chemscore.Fitness>
14.0171

> <Gold.Chemscore.DG>
-17.8174

> <Gold.Chemscore.ZeroCoef>
-5.4800

> <Gold.Chemscore.Hbond>
2.3502

> <Gold.Chemscore.Metal>
0.0000

> <Gold.Chemscore.Lipo>
81.9861

> <Gold.Chemscore.Internal_Hbond>
0.0000

> <Gold.Chemscore.DEClash>
0.0578

> <Gold.Chemscore.DEInternal>
3.7426

> <Gold.Chemscore.Rot>
1.9940

> <Gold.Chemscore.Internal.Correction>
   9.000000E+99

> <Gold.Chemscore.Hbonds>
donor molecule, donor type, donor heavy atom, donor atom, acceptor molecule, acceptor atom, score
      P1  H  7989  7998       L1    12  0.39
      P1  H  7997  8009       L1     5  0.70
      P1  H  7997  8010       L1    14  0.31
      P1  H  8011  8017       L1    11  0.44

> <Gold.Chemscore.Hbond.Weighted>
-7.8498

> <Gold.Chemscore.Metal.Weighted>
-0.0000

> <Gold.Chemscore.Lipo.Weighted>
-9.5924

> <Gold.Chemscore.Internal_Hbond.Weighted>
0.0000

> <Gold.Chemscore.DEClash.Weighted>
0.0578

> <Gold.Chemscore.DEInternal.Weighted>
3.7426

> <Gold.Chemscore.Rot.Weighted>
5.1047

> <Gold.Chemscore.Internal.Correction.Weighted>
   9.000000E+99

> <Gold.Protein.RotatedTorsions>
[ 6907 6896 6895 6894 ] final  139.40 input  -60.11 | X-H torsion
[ 7974 7965 7964 7962 ] final -135.79 input  175.53 | X-H torsion
[ 8008 7997 7996 7995 ] final  128.93 input   59.86 | X-H torsion
[ 10167 10162 10161 10158 ] final -175.03 input  -65.29 | X-H torsion
[ 10718 10713 10712 10709 ] final  -87.46 input   66.30 | X-H torsion
[ 10763 10752 10751 10750 ] final -127.65 input  -60.55 | X-H torsion
[ 11005 11000 10999 10996 ] final  -46.10 input  -57.11 | X-H torsion

> <Gold.Protein.ActiveResidues>
 VAL166  LYS551  ARG553  GLY616  TRP617  ASP618  TYR619  PRO620  LYS621  CYS622 
 ASP623  PHE694  ASN695  SER759  ASP760  ASP761  ALA762  ILE779  LEU786  VAL792 
 PHE793  MET794  SER795  GLU796  ALA797  LYS798  CYS799  TRP800  GLU811  SER814 

> <Gold.Protein.RotatedAtoms>
  152.2554  133.5250  159.5349 H   0  0  0  0  0  0  0  0  0  0  0  0  # atno 6907 bound_to 6896
  150.7107  134.0903  159.3938 H   0  0  0  0  0  0  0  0  0  0  0  0  # atno 6908 bound_to 6896
  151.8822  135.0449  160.0540 H   0  0  0  0  0  0  0  0  0  0  0  0  # atno 6909 bound_to 6896
  144.8983  140.6737  143.5101 H   0  0  0  0  0  0  0  0  0  0  0  0  # atno 7974 bound_to 7965
  156.2925  140.2633  156.2516 H   0  0  0  0  0  0  0  0  0  0  0  0  # atno 8008 bound_to 7997
  154.9877  140.0389  157.2324 H   0  0  0  0  0  0  0  0  0  0  0  0  # atno 8009 bound_to 7997
  154.7714  140.2779  155.6140 H   0  0  0  0  0  0  0  0  0  0  0  0  # atno 8010 bound_to 7997
  139.5602  144.1888  152.1227 H   0  0  0  0  0  0  0  0  0  0  0  0  # atno 10167 bound_to 10162
  155.9985  130.4800  150.4870 H   0  0  0  0  0  0  0  0  0  0  0  0  # atno 10718 bound_to 10713
  154.8753  135.3955  154.3628 H   0  0  0  0  0  0  0  0  0  0  0  0  # atno 10763 bound_to 10752
  153.4398  135.7026  153.6181 H   0  0  0  0  0  0  0  0  0  0  0  0  # atno 10764 bound_to 10752
  153.4767  135.3778  155.2389 H   0  0  0  0  0  0  0  0  0  0  0  0  # atno 10765 bound_to 10752
  141.0558  133.6726  156.3107 H   0  0  0  0  0  0  0  0  0  0  0  0  # atno 11005 bound_to 11000
  145.3661  139.1670  143.4357 LP  0  0  0  0  0  0  0  0  0  0  0  0  # atno 17320 bound_to 7965
  146.3094  140.3728  142.8676 LP  0  0  0  0  0  0  0  0  0  0  0  0  # atno 17321 bound_to 7965
  140.1400  144.5211  150.6750 LP  0  0  0  0  0  0  0  0  0  0  0  0  # atno 17342 bound_to 10162
  140.6881  143.2361  151.5205 LP  0  0  0  0  0  0  0  0  0  0  0  0  # atno 17343 bound_to 10162
  157.2869  131.0618  151.2160 LP  0  0  0  0  0  0  0  0  0  0  0  0  # atno 17370 bound_to 10713
  157.3186  130.6926  149.6256 LP  0  0  0  0  0  0  0  0  0  0  0  0  # atno 17371 bound_to 10713
  140.5967  134.5596  157.5510 LP  0  0  0  0  0  0  0  0  0  0  0  0  # atno 17394 bound_to 11000
  139.9388  134.7824  156.0731 LP  0  0  0  0  0  0  0  0  0  0  0  0  # atno 17395 bound_to 11000

$$$$
