AV-unprocessed.smi:2855|AV-procd|sdf|10981|dock5
  -GOLD-   2272015433D 1   1.00000     0.00000
 Structure written by MMmdl.
 47 48  0  0  0  0  0  0  0  0  1 V2000
  151.3773  145.0935  159.4734 C   0  0  0  0  0  0  0  0  0  0  0  0
  151.6462  143.6273  159.8409 C   0  0  2  0  0  0  0  0  0  0  0  0
  152.8112  143.5004  160.8370 C   0  0  0  0  0  0  0  0  0  0  0  0
  153.0789  142.0338  161.2087 C   0  0  0  0  0  0  0  0  0  0  0  0
  153.3627  141.1642  159.9610 C   0  0  1  0  0  0  0  0  0  0  0  0
  153.7362  139.6907  160.3071 C   0  0  0  0  0  0  0  0  0  0  0  0
  154.4029  139.5170  161.6842 C   0  0  0  0  0  0  0  0  0  0  0  0
  154.5801  139.0237  159.2075 C   0  0  0  0  0  0  0  0  0  0  0  0
  152.1913  141.2993  158.9485 C   0  0  2  0  0  0  0  0  0  0  0  0
  152.4761  140.5603  157.7196 N   0  0  0  0  0  0  0  0  0  0  0  0
  151.6145  140.3423  156.7140 C   0  0  0  0  0  0  0  0  0  0  0  0
  150.4732  140.8042  156.6832 O   0  0  0  0  0  0  0  0  0  0  0  0
  152.1293  139.4716  155.5604 C   0  0  0  0  0  0  0  0  0  0  0  0
  151.4716  138.1579  155.5134 N   0  0  0  0  0  0  0  0  0  0  0  0
  151.8168  137.1662  156.4206 C   0  0  0  0  0  0  0  0  0  0  0  0
  151.2584  135.9325  156.4246 C   0  0  0  0  0  0  0  0  0  0  0  0
  150.2370  135.5805  155.4437 C   0  0  0  0  0  0  0  0  0  0  0  0
  149.6718  134.4919  155.3679 O   0  0  0  0  0  0  0  0  0  0  0  0
  149.9189  136.6038  154.5469 N   0  0  0  0  0  0  0  0  0  0  0  0
  150.4913  137.8767  154.5360 C   0  0  0  0  0  0  0  0  0  0  0  0
  150.1404  138.7055  153.6966 O   0  0  0  0  0  0  0  0  0  0  0  0
  151.9245  142.7742  158.5908 C   0  0  0  0  0  0  0  0  0  0  0  0
  149.2181  136.4057  153.8477 H   0  0  0  0  0  0  0  0  0  0  0  0
  152.2424  145.5461  158.9879 H   0  0  0  0  0  0  0  0  0  0  0  0
  151.1462  145.6842  160.3602 H   0  0  0  0  0  0  0  0  0  0  0  0
  150.5304  145.1781  158.7917 H   0  0  0  0  0  0  0  0  0  0  0  0
  150.7470  143.2387  160.3216 H   0  0  0  0  0  0  0  0  0  0  0  0
  153.7144  143.9376  160.4089 H   0  0  0  0  0  0  0  0  0  0  0  0
  152.5922  144.0701  161.7409 H   0  0  0  0  0  0  0  0  0  0  0  0
  153.9196  142.0002  161.9005 H   0  0  0  0  0  0  0  0  0  0  0  0
  152.2173  141.6432  161.7507 H   0  0  0  0  0  0  0  0  0  0  0  0
  154.2406  141.5936  159.4750 H   0  0  0  0  0  0  0  0  0  0  0  0
  152.8105  139.1161  160.3379 H   0  0  0  0  0  0  0  0  0  0  0  0
  155.3692  140.0185  161.7328 H   0  0  0  0  0  0  0  0  0  0  0  0
  154.5738  138.4618  161.8990 H   0  0  0  0  0  0  0  0  0  0  0  0
  153.7805  139.9073  162.4883 H   0  0  0  0  0  0  0  0  0  0  0  0
  155.5830  139.4461  159.1502 H   0  0  0  0  0  0  0  0  0  0  0  0
  154.1125  139.1331  158.2285 H   0  0  0  0  0  0  0  0  0  0  0  0
  154.6899  137.9557  159.3977 H   0  0  0  0  0  0  0  0  0  0  0  0
  151.2853  140.9134  159.4179 H   0  0  0  0  0  0  0  0  0  0  0  0
  153.3942  140.1469  157.6464 H   0  0  0  0  0  0  0  0  0  0  0  0
  151.9689  140.0152  154.6285 H   0  0  0  0  0  0  0  0  0  0  0  0
  153.2111  139.3413  155.6370 H   0  0  0  0  0  0  0  0  0  0  0  0
  152.5725  137.3799  157.1629 H   0  0  0  0  0  0  0  0  0  0  0  0
  151.5699  135.2017  157.1568 H   0  0  0  0  0  0  0  0  0  0  0  0
  151.0749  142.8369  157.9092 H   0  0  0  0  0  0  0  0  0  0  0  0
  152.7810  143.1839  158.0527 H   0  0  0  0  0  0  0  0  0  0  0  0
  1  2  1  0  0  0  0
  1 24  1  0  0  0  0
  1 25  1  0  0  0  0
  1 26  1  0  0  0  0
  2 22  1  0  0  0  0
  2  3  1  0  0  0  0
  2 27  1  0  0  0  0
  3  4  1  0  0  0  0
  3 28  1  0  0  0  0
  3 29  1  0  0  0  0
  4  5  1  0  0  0  0
  4 30  1  0  0  0  0
  4 31  1  0  0  0  0
  5  6  1  0  0  0  0
  5  9  1  0  0  0  0
  5 32  1  0  0  0  0
  6  7  1  0  0  0  0
  6  8  1  0  0  0  0
  6 33  1  0  0  0  0
  7 34  1  0  0  0  0
  7 35  1  0  0  0  0
  7 36  1  0  0  0  0
  8 37  1  0  0  0  0
  8 38  1  0  0  0  0
  8 39  1  0  0  0  0
  9 10  1  0  0  0  0
  9 22  1  0  0  0  0
  9 40  1  0  0  0  0
 10 11  1  0  0  0  0
 10 41  1  0  0  0  0
 11 12  2  0  0  0  0
 11 13  1  0  0  0  0
 13 14  1  0  0  0  0
 13 42  1  0  0  0  0
 13 43  1  0  0  0  0
 14 20  1  0  0  0  0
 14 15  1  0  0  0  0
 15 16  2  0  0  0  0
 15 44  1  0  0  0  0
 16 17  1  0  0  0  0
 16 45  1  0  0  0  0
 17 18  2  0  0  0  0
 17 19  1  0  0  0  0
 19 23  1  0  0  0  0
 19 20  1  0  0  0  0
 20 21  2  0  0  0  0
 22 46  1  0  0  0  0
 22 47  1  0  0  0  0
M  END
> <s_m_source_file>
AV-unprocessed.smi

> <i_m_source_file_index>
2855

> <i_lp_mmshare_version>
43012

> <i_f3d_flags>
0

> <s_epik_input>
W0NIM11bQ0BASF0xW0NIMl1bQ0gyXVtDQEBIXShbQ0hdKFtDSDNdKVtDSDNdKVtDQEhdKFtDSDJdMSlbTkhdQyg9TylbQ0gyXW4yW2NIXVtjSF1jKD1PKVtuSF1jMj1P

> <s_epik_cmdline>
J2VwaWtfcHl0aG9uJywgJy1waCcsICc3LjAnLCAnLXRuJywgJzgnLCAnLW1hJywgJzIwMCcsICctbWV0YWxfYmluZGluZycsICctaW1hZScsICc8aW5maWxlLm1hZT4nLCAnLW9tYWUnLCAnPG91dGZpbGUubWFlPic=

> <r_lp_tautomer_probability>
0.999537

> <r_epik_Ionization_Penalty>
0.00306256

> <r_epik_Ionization_Penalty_Charging>
0.00306254

> <r_epik_Ionization_Penalty_Neutral>
2.0223e-08

> <r_epik_State_Penalty>
0.0021533

> <r_epik_Charging_Adjusted_Penalty>
0.00521583

> <i_epik_Tot_Q>
0

> <i_epik_Tot_abs_Q>
0

> <r_epik_Metal_State_Penalty>
0.362116

> <b_epik_Metal_Only>
0

> <s_lp_Force_Field>
OPLS_2005

> <r_lp_Energy>
14.402

> <b_lp_Chiralities_Consistent>
1

> <s_lp_Variant>
AV-unprocessed.smi:2855-5

> <Gold.Version>
5.8.1

> <Gold.Id.Protein>
6NUR|6NUR_protein|mol2

> <Gold.PLP.Fitness>
40.0809

> <Gold.PLP.PLP>
-39.2395

> <Gold.PLP.part.hbond>
-1.0000

> <Gold.PLP.part.metal>
0.0000

> <Gold.PLP.part.buried>
-5.1756

> <Gold.PLP.part.nonpolar>
-33.8106

> <Gold.PLP.part.repulsive>
2.1653

> <Gold.PLP.ligand.clash>
0.0000

> <Gold.PLP.ligand.torsion>
0.9048

> <Gold.PLP.Chemscore.Hbond>
0.8640

> <Gold.PLP.Chemscore.CHOScore>
0.0000

> <Gold.PLP.Chemscore.Metal>
0.0000

> <Gold.Chemscore.Hbonds>
donor molecule, donor type, donor heavy atom, donor atom, acceptor molecule, acceptor atom, score
      L1  H    19    23       P1  7948  0.82

> <Gold.PLP.Chemscore.Internal.Correction>
0.0589

> <Gold.Rescore>
     Score         DG    S(hbond)    S(metal)    S(lipo)     H(rot)  DE(clash)    DE(int)     intcor
     15.22     -19.02       1.59        0.00     110.96       1.85       2.04       1.76       ----

> <Gold.Chemscore.Fitness>
15.2237

> <Gold.Chemscore.DG>
-19.0207

> <Gold.Chemscore.ZeroCoef>
-5.4800

> <Gold.Chemscore.Hbond>
1.5882

> <Gold.Chemscore.Metal>
0.0000

> <Gold.Chemscore.Lipo>
110.9588

> <Gold.Chemscore.Internal_Hbond>
0.0000

> <Gold.Chemscore.DEClash>
2.0362

> <Gold.Chemscore.DEInternal>
1.7607

> <Gold.Chemscore.Rot>
1.8539

> <Gold.Chemscore.Internal.Correction>
   9.000000E+99

> <Gold.Chemscore.Hbonds>
donor molecule, donor type, donor heavy atom, donor atom, acceptor molecule, acceptor atom, score
      L1  H    19    23       P1  7948  0.75

> <Gold.Chemscore.Hbond.Weighted>
-5.3045

> <Gold.Chemscore.Metal.Weighted>
-0.0000

> <Gold.Chemscore.Lipo.Weighted>
-12.9822

> <Gold.Chemscore.Internal_Hbond.Weighted>
0.0000

> <Gold.Chemscore.DEClash.Weighted>
2.0362

> <Gold.Chemscore.DEInternal.Weighted>
1.7607

> <Gold.Chemscore.Rot.Weighted>
4.7460

> <Gold.Chemscore.Internal.Correction.Weighted>
   9.000000E+99

> <Gold.Protein.RotatedTorsions>
[ 6907 6896 6895 6894 ] final -109.76 input  -60.11 | X-H torsion
[ 7974 7965 7964 7962 ] final   67.76 input  175.53 | X-H torsion
[ 8008 7997 7996 7995 ] final -134.19 input   59.86 | X-H torsion
[ 10167 10162 10161 10158 ] final  -79.35 input  -65.29 | X-H torsion
[ 10718 10713 10712 10709 ] final  151.12 input   66.30 | X-H torsion
[ 10763 10752 10751 10750 ] final  138.72 input  -60.55 | X-H torsion
[ 11005 11000 10999 10996 ] final  148.79 input  -57.11 | X-H torsion

> <Gold.Protein.ActiveResidues>
 VAL166  LYS551  ARG553  GLY616  TRP617  ASP618  TYR619  PRO620  LYS621  CYS622 
 ASP623  PHE694  ASN695  SER759  ASP760  ASP761  ALA762  ILE779  LEU786  VAL792 
 PHE793  MET794  SER795  GLU796  ALA797  LYS798  CYS799  TRP800  GLU811  SER814 

> <Gold.Protein.RotatedAtoms>
  150.7582  133.9482  159.3477 H   0  0  0  0  0  0  0  0  0  0  0  0  # atno 6907 bound_to 6896
  151.7397  135.0855  160.0323 H   0  0  0  0  0  0  0  0  0  0  0  0  # atno 6908 bound_to 6896
  152.3537  133.6173  159.5999 H   0  0  0  0  0  0  0  0  0  0  0  0  # atno 6909 bound_to 6896
  145.8108  139.3031  143.1100 H   0  0  0  0  0  0  0  0  0  0  0  0  # atno 7974 bound_to 7965
  155.3579  140.0481  157.3046 H   0  0  0  0  0  0  0  0  0  0  0  0  # atno 8008 bound_to 7997
  154.5193  140.2219  155.8970 H   0  0  0  0  0  0  0  0  0  0  0  0  # atno 8009 bound_to 7997
  156.1672  140.3104  155.8915 H   0  0  0  0  0  0  0  0  0  0  0  0  # atno 8010 bound_to 7997
  140.4601  143.2456  151.8361 H   0  0  0  0  0  0  0  0  0  0  0  0  # atno 10167 bound_to 10162
  157.2748  131.0824  151.1574 H   0  0  0  0  0  0  0  0  0  0  0  0  # atno 10718 bound_to 10713
  153.8942  135.3029  155.3448 H   0  0  0  0  0  0  0  0  0  0  0  0  # atno 10763 bound_to 10752
  154.7702  135.4890  153.9636 H   0  0  0  0  0  0  0  0  0  0  0  0  # atno 10764 bound_to 10752
  153.1281  135.6797  153.9323 H   0  0  0  0  0  0  0  0  0  0  0  0  # atno 10765 bound_to 10752
  140.0990  134.8995  157.1767 H   0  0  0  0  0  0  0  0  0  0  0  0  # atno 11005 bound_to 11000
  145.9779  140.8707  143.0129 LP  0  0  0  0  0  0  0  0  0  0  0  0  # atno 17320 bound_to 7965
  144.6757  140.2038  143.7384 LP  0  0  0  0  0  0  0  0  0  0  0  0  # atno 17321 bound_to 7965
  139.4805  144.5017  151.9051 LP  0  0  0  0  0  0  0  0  0  0  0  0  # atno 17342 bound_to 10162
  140.4103  144.2377  150.5889 LP  0  0  0  0  0  0  0  0  0  0  0  0  # atno 17343 bound_to 10162
  157.3032  130.6853  149.6175 LP  0  0  0  0  0  0  0  0  0  0  0  0  # atno 17370 bound_to 10713
  155.9663  130.4386  150.5223 LP  0  0  0  0  0  0  0  0  0  0  0  0  # atno 17371 bound_to 10713
  140.3246  134.2877  155.7239 LP  0  0  0  0  0  0  0  0  0  0  0  0  # atno 17394 bound_to 11000
  141.2100  133.7732  156.9959 LP  0  0  0  0  0  0  0  0  0  0  0  0  # atno 17395 bound_to 11000

$$$$
