AV-unprocessed.smi:1042|AV-procd|sdf|4536|dock6
  -GOLD-   22720 2563D 1   1.00000     0.00000
 Structure written by MMmdl.
 40 42  0  0  0  0  0  0  0  0  2 V2000
  150.6410  140.6162  156.4399 O   0  0  0  0  0  0  0  0  0  0  0  0
  150.2656  141.7634  156.1963 C   0  0  0  0  0  0  0  0  0  0  0  0
  149.4531  142.0731  155.1751 N   0  0  0  0  0  0  0  0  0  0  0  0
  148.8983  141.1217  154.2165 C   0  0  0  0  0  0  0  0  0  0  0  0
  147.4111  141.3978  153.9212 C   0  0  2  0  0  0  0  0  0  0  0  0
  147.0303  142.8744  153.8051 C   0  0  0  0  0  0  0  0  0  0  0  0
  145.5237  142.8999  154.0827 C   0  0  0  0  0  0  0  0  0  0  0  0
  145.2011  141.6458  154.8022 N   0  3  2  0  0  0  0  0  0  0  0  0
  144.3993  141.8402  156.0289 C   0  0  0  0  0  0  0  0  0  0  0  0
  143.3328  142.8999  155.8916 C   0  0  0  0  0  0  0  0  0  0  0  0
  144.5966  143.1920  156.6718 C   0  0  0  0  0  0  0  0  0  0  0  0
  146.4675  140.9174  155.0239 C   0  0  0  0  0  0  0  0  0  0  0  0
  150.5997  142.8581  156.9024 N   0  0  0  0  0  0  0  0  0  0  0  0
  151.3953  142.9361  158.0766 C   0  0  0  0  0  0  0  0  0  0  0  0
  151.5717  144.2390  158.5948 C   0  0  0  0  0  0  0  0  0  0  0  0
  152.3396  144.4232  159.7608 C   0  0  0  0  0  0  0  0  0  0  0  0
  152.9132  143.2981  160.3793 C   0  0  0  0  0  0  0  0  0  0  0  0
  152.6891  142.0362  159.7986 C   0  0  0  0  0  0  0  0  0  0  0  0
  151.9523  141.8573  158.6817 N   0  0  0  0  0  0  0  0  0  0  0  0
  149.2009  143.0425  155.0487 H   0  0  0  0  0  0  0  0  0  0  0  0
  149.4735  141.2106  153.2947 H   0  0  0  0  0  0  0  0  0  0  0  0
  149.0394  140.0964  154.5631 H   0  0  0  0  0  0  0  0  0  0  0  0
  147.1324  140.8964  152.9926 H   0  0  0  0  0  0  0  0  0  0  0  0
  147.5479  143.4535  154.5712 H   0  0  0  0  0  0  0  0  0  0  0  0
  147.2849  143.3035  152.8356 H   0  0  0  0  0  0  0  0  0  0  0  0
  145.2448  143.7894  154.6497 H   0  0  0  0  0  0  0  0  0  0  0  0
  144.9602  142.9143  153.1495 H   0  0  0  0  0  0  0  0  0  0  0  0
  144.2286  140.9574  156.6428 H   0  0  0  0  0  0  0  0  0  0  0  0
  143.2135  143.3897  154.9267 H   0  0  0  0  0  0  0  0  0  0  0  0
  142.4155  142.7647  156.4608 H   0  0  0  0  0  0  0  0  0  0  0  0
  144.5108  143.2499  157.7550 H   0  0  0  0  0  0  0  0  0  0  0  0
  145.3177  143.8742  156.2256 H   0  0  0  0  0  0  0  0  0  0  0  0
  146.3141  139.8380  155.0036 H   0  0  0  0  0  0  0  0  0  0  0  0
  146.8756  141.1801  156.0018 H   0  0  0  0  0  0  0  0  0  0  0  0
  150.2279  143.7364  156.5724 H   0  0  0  0  0  0  0  0  0  0  0  0
  151.1233  145.0928  158.1075 H   0  0  0  0  0  0  0  0  0  0  0  0
  152.4853  145.4108  160.1730 H   0  0  0  0  0  0  0  0  0  0  0  0
  153.5086  143.3992  161.2745 H   0  0  0  0  0  0  0  0  0  0  0  0
  153.1115  141.1469  160.2423 H   0  0  0  0  0  0  0  0  0  0  0  0
  144.6526  141.0868  154.1645 H   0  0  0  0  0  0  0  0  0  0  0  0
  1  2  2  0  0  0  0
  2  3  1  0  0  0  0
  2 13  1  0  0  0  0
  3  4  1  0  0  0  0
  3 20  1  0  0  0  0
  4  5  1  0  0  0  0
  4 21  1  0  0  0  0
  4 22  1  0  0  0  0
  5 12  1  0  0  0  0
  5  6  1  0  0  0  0
  5 23  1  0  0  0  0
  6  7  1  0  0  0  0
  6 24  1  0  0  0  0
  6 25  1  0  0  0  0
  7  8  1  0  0  0  0
  7 26  1  0  0  0  0
  7 27  1  0  0  0  0
  8  9  1  0  0  0  0
  8 12  1  0  0  0  0
  8 40  1  0  0  0  0
  9 11  1  0  0  0  0
  9 10  1  0  0  0  0
  9 28  1  0  0  0  0
 10 11  1  0  0  0  0
 10 29  1  0  0  0  0
 10 30  1  0  0  0  0
 11 31  1  0  0  0  0
 11 32  1  0  0  0  0
 12 33  1  0  0  0  0
 12 34  1  0  0  0  0
 13 14  1  0  0  0  0
 13 35  1  0  0  0  0
 14 19  1  0  0  0  0
 14 15  2  0  0  0  0
 15 16  1  0  0  0  0
 15 36  1  0  0  0  0
 16 17  2  0  0  0  0
 16 37  1  0  0  0  0
 17 18  1  0  0  0  0
 17 38  1  0  0  0  0
 18 19  2  0  0  0  0
 18 39  1  0  0  0  0
M  CHG  1   8   1
M  END
> <s_m_source_file>
AV-unprocessed.smi

> <i_m_source_file_index>
1042

> <i_lp_mmshare_version>
43012

> <i_f3d_flags>
0

> <s_epik_input>
bjFbY0hdW2NIXVtjSF1bY0hdYzFbTkhdQyg9TylbTkhdW0NIMl1bQ0BASF0yW0NIMl1bQ0gyXU4oW0NIMl0yKVtDSF0zW0NIMl1bQ0gyXTM=

> <s_epik_cmdline>
J2VwaWtfcHl0aG9uJywgJy1waCcsICc3LjAnLCAnLXRuJywgJzgnLCAnLW1hJywgJzIwMCcsICctbWV0YWxfYmluZGluZycsICctaW1hZScsICc8aW5maWxlLm1hZT4nLCAnLW9tYWUnLCAnPG91dGZpbGUubWFlPic=

> <r_lp_tautomer_probability>
1

> <r_epik_Ionization_Penalty>
0.000244736

> <r_epik_Ionization_Penalty_Charging>
0.000203384

> <r_epik_Ionization_Penalty_Neutral>
4.13519e-05

> <r_epik_State_Penalty>
-0

> <r_epik_Charging_Adjusted_Penalty>
0.000203384

> <i_epik_Tot_Q>
1

> <i_epik_Tot_abs_Q>
1

> <r_epik_Metal_State_Penalty>
-0

> <b_epik_Metal_Only>
0

> <s_lp_Force_Field>
OPLS_2005

> <r_lp_Energy>
38.723

> <b_lp_Chiralities_Consistent>
1

> <s_lp_Variant>
AV-unprocessed.smi:1042-1

> <Gold.Version>
5.8.1

> <Gold.Id.Protein>
6NUR|6NUR_protein|mol2

> <Gold.PLP.Fitness>
49.6612

> <Gold.PLP.PLP>
-38.2481

> <Gold.PLP.part.hbond>
-3.0000

> <Gold.PLP.part.metal>
0.0000

> <Gold.PLP.part.buried>
-4.7483

> <Gold.PLP.part.nonpolar>
-31.7117

> <Gold.PLP.part.repulsive>
0.2579

> <Gold.PLP.ligand.clash>
0.0000

> <Gold.PLP.ligand.torsion>
0.9235

> <Gold.PLP.Chemscore.Hbond>
4.0000

> <Gold.PLP.Chemscore.CHOScore>
0.0000

> <Gold.PLP.Chemscore.Metal>
0.0000

> <Gold.Chemscore.Hbonds>
donor molecule, donor type, donor heavy atom, donor atom, acceptor molecule, acceptor atom, score
      L1  H     3    20       P1  8028  1.00
      L1  H     8    40       P1 10175  2.00
      L1  H    13    35       P1  8028  1.00

> <Gold.PLP.Chemscore.Internal.Correction>
1.2602

> <Gold.Rescore>
     Score         DG    S(hbond)    S(metal)    S(lipo)     H(rot)  DE(clash)    DE(int)     intcor
     18.75     -21.27       2.89        0.00      84.65       1.47       0.17       2.35       ----

> <Gold.Chemscore.Fitness>
18.7485

> <Gold.Chemscore.DG>
-21.2678

> <Gold.Chemscore.ZeroCoef>
-5.4800

> <Gold.Chemscore.Hbond>
2.8889

> <Gold.Chemscore.Metal>
0.0000

> <Gold.Chemscore.Lipo>
84.6490

> <Gold.Chemscore.Internal_Hbond>
0.0000

> <Gold.Chemscore.DEClash>
0.1723

> <Gold.Chemscore.DEInternal>
2.3470

> <Gold.Chemscore.Rot>
1.4707

> <Gold.Chemscore.Internal.Correction>
   9.000000E+99

> <Gold.Chemscore.Hbonds>
donor molecule, donor type, donor heavy atom, donor atom, acceptor molecule, acceptor atom, score
      L1  H     3    20       P1  8028  0.98
      L1  H     8    40       P1 10175  0.77
      L1  H    13    35       P1  8028  0.95

> <Gold.Chemscore.Hbond.Weighted>
-9.6489

> <Gold.Chemscore.Metal.Weighted>
-0.0000

> <Gold.Chemscore.Lipo.Weighted>
-9.9039

> <Gold.Chemscore.Internal_Hbond.Weighted>
0.0000

> <Gold.Chemscore.DEClash.Weighted>
0.1723

> <Gold.Chemscore.DEInternal.Weighted>
2.3470

> <Gold.Chemscore.Rot.Weighted>
3.7650

> <Gold.Chemscore.Internal.Correction.Weighted>
   9.000000E+99

> <Gold.Protein.RotatedTorsions>
[ 6907 6896 6895 6894 ] final -160.74 input  -60.11 | X-H torsion
[ 7974 7965 7964 7962 ] final -148.97 input  175.53 | X-H torsion
[ 8008 7997 7996 7995 ] final -168.18 input   59.86 | X-H torsion
[ 10167 10162 10161 10158 ] final -178.34 input  -65.29 | X-H torsion
[ 10718 10713 10712 10709 ] final  -73.80 input   66.30 | X-H torsion
[ 10763 10752 10751 10750 ] final   72.74 input  -60.55 | X-H torsion
[ 11005 11000 10999 10996 ] final -144.27 input  -57.11 | X-H torsion

> <Gold.Protein.ActiveResidues>
 VAL166  LYS551  ARG553  GLY616  TRP617  ASP618  TYR619  PRO620  LYS621  CYS622 
 ASP623  PHE694  ASN695  SER759  ASP760  ASP761  ALA762  ILE779  LEU786  VAL792 
 PHE793  MET794  SER795  GLU796  ALA797  LYS798  CYS799  TRP800  GLU811  SER814 

> <Gold.Protein.RotatedAtoms>
  151.3537  133.3915  159.2682 H   0  0  0  0  0  0  0  0  0  0  0  0  # atno 6907 bound_to 6896
  150.9781  134.9142  159.7838 H   0  0  0  0  0  0  0  0  0  0  0  0  # atno 6908 bound_to 6896
  152.5207  134.3500  159.9300 H   0  0  0  0  0  0  0  0  0  0  0  0  # atno 6909 bound_to 6896
  144.7996  140.5127  143.5716 H   0  0  0  0  0  0  0  0  0  0  0  0  # atno 7974 bound_to 7965
  155.8879  140.1020  157.1439 H   0  0  0  0  0  0  0  0  0  0  0  0  # atno 8008 bound_to 7997
  154.4012  140.1316  156.4343 H   0  0  0  0  0  0  0  0  0  0  0  0  # atno 8009 bound_to 7997
  155.7567  140.3464  155.5180 H   0  0  0  0  0  0  0  0  0  0  0  0  # atno 8010 bound_to 7997
  139.5437  144.2293  152.0946 H   0  0  0  0  0  0  0  0  0  0  0  0  # atno 10167 bound_to 10162
  156.0266  130.4402  150.2796 H   0  0  0  0  0  0  0  0  0  0  0  0  # atno 10718 bound_to 10713
  153.0477  135.5089  154.7789 H   0  0  0  0  0  0  0  0  0  0  0  0  # atno 10763 bound_to 10752
  154.6675  135.2948  154.9788 H   0  0  0  0  0  0  0  0  0  0  0  0  # atno 10764 bound_to 10752
  154.0617  135.6690  153.4865 H   0  0  0  0  0  0  0  0  0  0  0  0  # atno 10765 bound_to 10752
  140.8041  134.2822  157.4967 H   0  0  0  0  0  0  0  0  0  0  0  0  # atno 11005 bound_to 11000
  145.5585  139.1478  143.3354 LP  0  0  0  0  0  0  0  0  0  0  0  0  # atno 17320 bound_to 7965
  146.2274  140.5722  142.8990 LP  0  0  0  0  0  0  0  0  0  0  0  0  # atno 17321 bound_to 7965
  140.1776  144.4875  150.6545 LP  0  0  0  0  0  0  0  0  0  0  0  0  # atno 17342 bound_to 10162
  140.6677  143.2274  151.5702 LP  0  0  0  0  0  0  0  0  0  0  0  0  # atno 17343 bound_to 10162
  157.0900  131.0167  151.3125 LP  0  0  0  0  0  0  0  0  0  0  0  0  # atno 17370 bound_to 10713
  157.4862  130.7794  149.7462 LP  0  0  0  0  0  0  0  0  0  0  0  0  # atno 17371 bound_to 10713
  139.8719  134.9446  156.3886 LP  0  0  0  0  0  0  0  0  0  0  0  0  # atno 17394 bound_to 11000
  140.9265  133.7609  155.9971 LP  0  0  0  0  0  0  0  0  0  0  0  0  # atno 17395 bound_to 11000

$$$$
