AV-unprocessed.smi:1082|AV-procd|sdf|4713|dock3
  -GOLD-   22720 3233D 1   1.00000     0.00000
 Structure written by MMmdl.
 49 51  0  0  0  0  0  0  0  0  3 V2000
  145.4585  138.0847  152.9571 O   0  0  0  0  0  0  0  0  0  0  0  0
  146.5279  137.4788  153.0198 C   0  0  0  0  0  0  0  0  0  0  0  0
  146.6557  136.1759  152.7367 N   0  0  0  0  0  0  0  0  0  0  0  0
  145.5566  135.3127  152.3258 C   0  0  0  0  0  0  0  0  0  0  0  0
  145.3604  135.3803  150.8029 C   0  0  0  0  0  0  0  0  0  0  0  0
  145.2773  134.0358  150.1842 N   0  3  0  0  0  0  0  0  0  0  0  0
  146.4336  133.1570  150.4869 C   0  0  0  0  0  0  0  0  0  0  0  0
  145.8638  131.8044  150.9290 C   0  0  0  0  0  0  0  0  0  0  0  0
  144.4382  131.8074  150.3920 C   0  0  0  0  0  0  0  0  0  0  0  0
  144.0453  133.2775  150.4970 C   0  0  0  0  0  0  0  0  0  0  0  0
  147.7019  138.0143  153.3942 N   0  0  0  0  0  0  0  0  0  0  0  0
  147.9663  139.3516  153.8050 C   0  0  0  0  0  0  0  0  0  0  0  0
  147.1021  140.4323  153.4938 C   0  0  0  0  0  0  0  0  0  0  0  0
  147.4341  141.7355  153.9146 C   0  0  0  0  0  0  0  0  0  0  0  0
  148.6269  141.9411  154.6325 C   0  0  0  0  0  0  0  0  0  0  0  0
  149.4350  140.8942  154.9008 N   0  3  0  0  0  0  0  0  0  0  0  0
  149.1632  139.6229  154.5156 C   0  0  0  0  0  0  0  0  0  0  0  0
  150.0735  138.6057  154.8515 N   0  0  0  0  0  0  0  0  0  0  0  0
  151.3708  138.6987  154.1877 C   0  0  0  0  0  0  0  0  0  0  0  0
  152.4032  138.2117  155.2040 C   0  0  0  0  0  0  0  0  0  0  0  0
  151.7829  138.6246  156.5324 C   0  0  0  0  0  0  0  0  0  0  0  0
  150.2866  138.4280  156.2851 C   0  0  0  0  0  0  0  0  0  0  0  0
  147.5691  135.7533  152.8163 H   0  0  0  0  0  0  0  0  0  0  0  0
  145.7755  134.2913  152.6409 H   0  0  0  0  0  0  0  0  0  0  0  0
  144.6422  135.6204  152.8360 H   0  0  0  0  0  0  0  0  0  0  0  0
  144.4338  135.9161  150.5904 H   0  0  0  0  0  0  0  0  0  0  0  0
  146.1667  135.9490  150.3368 H   0  0  0  0  0  0  0  0  0  0  0  0
  147.0267  133.0468  149.5786 H   0  0  0  0  0  0  0  0  0  0  0  0
  147.0857  133.5722  151.2569 H   0  0  0  0  0  0  0  0  0  0  0  0
  146.4509  130.9594  150.5682 H   0  0  0  0  0  0  0  0  0  0  0  0
  145.8425  131.7542  152.0185 H   0  0  0  0  0  0  0  0  0  0  0  0
  144.4325  131.4917  149.3479 H   0  0  0  0  0  0  0  0  0  0  0  0
  143.7713  131.1489  150.9493 H   0  0  0  0  0  0  0  0  0  0  0  0
  143.7228  133.4939  151.5170 H   0  0  0  0  0  0  0  0  0  0  0  0
  143.2287  133.5386  149.8231 H   0  0  0  0  0  0  0  0  0  0  0  0
  148.4753  137.3721  153.4856 H   0  0  0  0  0  0  0  0  0  0  0  0
  146.1952  140.2865  152.9268 H   0  0  0  0  0  0  0  0  0  0  0  0
  146.7835  142.5667  153.6851 H   0  0  0  0  0  0  0  0  0  0  0  0
  148.9595  142.9039  154.9926 H   0  0  0  0  0  0  0  0  0  0  0  0
  151.3862  138.0897  153.2835 H   0  0  0  0  0  0  0  0  0  0  0  0
  151.5917  139.7266  153.8959 H   0  0  0  0  0  0  0  0  0  0  0  0
  152.4889  137.1249  155.1576 H   0  0  0  0  0  0  0  0  0  0  0  0
  153.3939  138.6376  155.0425 H   0  0  0  0  0  0  0  0  0  0  0  0
  152.1539  138.0444  157.3775 H   0  0  0  0  0  0  0  0  0  0  0  0
  151.9919  139.6777  156.7262 H   0  0  0  0  0  0  0  0  0  0  0  0
  149.6872  139.1050  156.8957 H   0  0  0  0  0  0  0  0  0  0  0  0
  149.9934  137.4103  156.5445 H   0  0  0  0  0  0  0  0  0  0  0  0
  145.2875  134.1657  149.1824 H   0  0  0  0  0  0  0  0  0  0  0  0
  150.2961  141.0698  155.4191 H   0  0  0  0  0  0  0  0  0  0  0  0
  1  2  2  0  0  0  0
  2  3  1  0  0  0  0
  2 11  1  0  0  0  0
  3  4  1  0  0  0  0
  3 23  1  0  0  0  0
  4  5  1  0  0  0  0
  4 24  1  0  0  0  0
  4 25  1  0  0  0  0
  5  6  1  0  0  0  0
  5 26  1  0  0  0  0
  5 27  1  0  0  0  0
  6 10  1  0  0  0  0
  6  7  1  0  0  0  0
  6 48  1  0  0  0  0
  7  8  1  0  0  0  0
  7 28  1  0  0  0  0
  7 29  1  0  0  0  0
  8  9  1  0  0  0  0
  8 30  1  0  0  0  0
  8 31  1  0  0  0  0
  9 10  1  0  0  0  0
  9 32  1  0  0  0  0
  9 33  1  0  0  0  0
 10 34  1  0  0  0  0
 10 35  1  0  0  0  0
 11 12  1  0  0  0  0
 11 36  1  0  0  0  0
 12 17  1  0  0  0  0
 12 13  2  0  0  0  0
 13 14  1  0  0  0  0
 13 37  1  0  0  0  0
 14 15  2  0  0  0  0
 14 38  1  0  0  0  0
 15 16  1  0  0  0  0
 15 39  1  0  0  0  0
 16 17  2  0  0  0  0
 16 49  1  0  0  0  0
 17 18  1  0  0  0  0
 18 22  1  0  0  0  0
 18 19  1  0  0  0  0
 19 20  1  0  0  0  0
 19 40  1  0  0  0  0
 19 41  1  0  0  0  0
 20 21  1  0  0  0  0
 20 42  1  0  0  0  0
 20 43  1  0  0  0  0
 21 22  1  0  0  0  0
 21 44  1  0  0  0  0
 21 45  1  0  0  0  0
 22 46  1  0  0  0  0
 22 47  1  0  0  0  0
M  CHG  1   6   1
M  CHG  1  16   1
M  END
> <s_m_source_file>
AV-unprocessed.smi

> <i_m_source_file_index>
1082

> <i_lp_mmshare_version>
43012

> <i_f3d_flags>
0

> <s_epik_input>
W0NIMl0xW0NIMl1bQ0gyXVtDSDJdTjFbQ0gyXVtDSDJdW05IXUMoPU8pW05IXWMyW2NIXVtjSF1bY0hdbmMyTjNbQ0gyXVtDSDJdW0NIMl1bQ0gyXTM=

> <s_epik_cmdline>
J2VwaWtfcHl0aG9uJywgJy1waCcsICc3LjAnLCAnLXRuJywgJzgnLCAnLW1hJywgJzIwMCcsICctbWV0YWxfYmluZGluZycsICctaW1hZScsICc8aW5maWxlLm1hZT4nLCAnLW9tYWUnLCAnPG91dGZpbGUubWFlPic=

> <r_lp_tautomer_probability>
0.999994

> <r_epik_Ionization_Penalty>
1.21588

> <r_epik_Ionization_Penalty_Charging>
1.21586

> <r_epik_Ionization_Penalty_Neutral>
1.99004e-05

> <r_epik_State_Penalty>
1.28011

> <r_epik_Charging_Adjusted_Penalty>
2.49596

> <i_epik_Tot_Q>
2

> <i_epik_Tot_abs_Q>
2

> <r_epik_Metal_State_Penalty>
1.35385

> <b_epik_Metal_Only>
0

> <s_lp_Force_Field>
OPLS_2005

> <r_lp_Energy>
65.6653

> <b_lp_Chiralities_Consistent>
1

> <s_lp_Variant>
AV-unprocessed.smi:1082-2

> <Gold.Version>
5.8.1

> <Gold.Id.Protein>
6NUR|6NUR_protein|mol2

> <Gold.PLP.Fitness>
40.3688

> <Gold.PLP.PLP>
-36.1365

> <Gold.PLP.part.hbond>
-2.7293

> <Gold.PLP.part.metal>
0.0000

> <Gold.PLP.part.buried>
-2.2851

> <Gold.PLP.part.nonpolar>
-31.4633

> <Gold.PLP.part.repulsive>
1.3877

> <Gold.PLP.ligand.clash>
0.0000

> <Gold.PLP.ligand.torsion>
0.6834

> <Gold.PLP.Chemscore.Hbond>
1.8289

> <Gold.PLP.Chemscore.CHOScore>
0.0000

> <Gold.PLP.Chemscore.Metal>
0.0000

> <Gold.Chemscore.Hbonds>
donor molecule, donor type, donor heavy atom, donor atom, acceptor molecule, acceptor atom, score
      L1  H     3    23       P1  7948  0.48
      L1  H     6    48       P1  7921  1.00
      L1  H    11    36       P1  7948  0.35

> <Gold.PLP.Chemscore.Internal.Correction>
0.1124

> <Gold.Rescore>
     Score         DG    S(hbond)    S(metal)    S(lipo)     H(rot)  DE(clash)    DE(int)     intcor
     15.73     -18.87       1.90        0.00      95.98       1.63       1.20       1.93       ----

> <Gold.Chemscore.Fitness>
15.7297

> <Gold.Chemscore.DG>
-18.8671

> <Gold.Chemscore.ZeroCoef>
-5.4800

> <Gold.Chemscore.Hbond>
1.8970

> <Gold.Chemscore.Metal>
0.0000

> <Gold.Chemscore.Lipo>
95.9799

> <Gold.Chemscore.Internal_Hbond>
0.0000

> <Gold.Chemscore.DEClash>
1.2028

> <Gold.Chemscore.DEInternal>
1.9346

> <Gold.Chemscore.Rot>
1.6323

> <Gold.Chemscore.Internal.Correction>
   9.000000E+99

> <Gold.Chemscore.Hbonds>
donor molecule, donor type, donor heavy atom, donor atom, acceptor molecule, acceptor atom, score
      L1  H     3    23       P1  7948  0.48
      L1  H     6    48       P1  7921  0.90
      L1  H    11    36       P1  7948  0.33

> <Gold.Chemscore.Hbond.Weighted>
-6.3360

> <Gold.Chemscore.Metal.Weighted>
-0.0000

> <Gold.Chemscore.Lipo.Weighted>
-11.2296

> <Gold.Chemscore.Internal_Hbond.Weighted>
0.0000

> <Gold.Chemscore.DEClash.Weighted>
1.2028

> <Gold.Chemscore.DEInternal.Weighted>
1.9346

> <Gold.Chemscore.Rot.Weighted>
4.1786

> <Gold.Chemscore.Internal.Correction.Weighted>
   9.000000E+99

> <Gold.Protein.RotatedTorsions>
[ 6907 6896 6895 6894 ] final  166.97 input  -60.11 | X-H torsion
[ 7974 7965 7964 7962 ] final  -20.05 input  175.53 | X-H torsion
[ 8008 7997 7996 7995 ] final -161.66 input   59.86 | X-H torsion
[ 10167 10162 10161 10158 ] final -147.94 input  -65.29 | X-H torsion
[ 10718 10713 10712 10709 ] final   48.15 input   66.30 | X-H torsion
[ 10763 10752 10751 10750 ] final   30.59 input  -60.55 | X-H torsion
[ 11005 11000 10999 10996 ] final  134.84 input  -57.11 | X-H torsion

> <Gold.Protein.ActiveResidues>
 VAL166  LYS551  ARG553  GLY616  TRP617  ASP618  TYR619  PRO620  LYS621  CYS622 
 ASP623  PHE694  ASN695  SER759  ASP760  ASP761  ALA762  ILE779  LEU786  VAL792 
 PHE793  MET794  SER795  GLU796  ALA797  LYS798  CYS799  TRP800  GLU811  SER814 

> <Gold.Protein.RotatedAtoms>
  151.8706  133.3475  159.3733 H   0  0  0  0  0  0  0  0  0  0  0  0  # atno 6907 bound_to 6896
  150.7154  134.5117  159.5620 H   0  0  0  0  0  0  0  0  0  0  0  0  # atno 6908 bound_to 6896
  152.2649  134.7996  160.0475 H   0  0  0  0  0  0  0  0  0  0  0  0  # atno 6909 bound_to 6896
  146.1809  140.4148  142.8495 H   0  0  0  0  0  0  0  0  0  0  0  0  # atno 7974 bound_to 7965
  155.7954  140.0884  157.1986 H   0  0  0  0  0  0  0  0  0  0  0  0  # atno 8008 bound_to 7997
  154.3984  140.1482  156.3270 H   0  0  0  0  0  0  0  0  0  0  0  0  # atno 8009 bound_to 7997
  155.8516  140.3434  155.5700 H   0  0  0  0  0  0  0  0  0  0  0  0  # atno 8010 bound_to 7997
  139.7577  143.8424  152.2600 H   0  0  0  0  0  0  0  0  0  0  0  0  # atno 10167 bound_to 10162
  157.4658  130.8224  149.7934 H   0  0  0  0  0  0  0  0  0  0  0  0  # atno 10718 bound_to 10713
  153.0363  135.6460  154.1068 H   0  0  0  0  0  0  0  0  0  0  0  0  # atno 10763 bound_to 10752
  154.0782  135.2875  155.3297 H   0  0  0  0  0  0  0  0  0  0  0  0  # atno 10764 bound_to 10752
  154.6548  135.5413  153.8010 H   0  0  0  0  0  0  0  0  0  0  0  0  # atno 10765 bound_to 10752
  139.9941  134.9504  156.9923 H   0  0  0  0  0  0  0  0  0  0  0  0  # atno 11005 bound_to 11000
  144.8313  140.6712  143.6289 LP  0  0  0  0  0  0  0  0  0  0  0  0  # atno 17320 bound_to 7965
  145.4079  139.1585  143.4142 LP  0  0  0  0  0  0  0  0  0  0  0  0  # atno 17321 bound_to 7965
  139.8421  144.7205  150.9318 LP  0  0  0  0  0  0  0  0  0  0  0  0  # atno 17342 bound_to 10162
  140.7804  143.3974  151.1206 LP  0  0  0  0  0  0  0  0  0  0  0  0  # atno 17343 bound_to 10162
  156.0049  130.3860  150.2466 LP  0  0  0  0  0  0  0  0  0  0  0  0  # atno 17370 bound_to 10713
  157.0646  131.0099  151.3211 LP  0  0  0  0  0  0  0  0  0  0  0  0  # atno 17371 bound_to 10713
  140.4853  134.1248  155.7223 LP  0  0  0  0  0  0  0  0  0  0  0  0  # atno 17394 bound_to 11000
  141.1590  133.8829  157.1901 LP  0  0  0  0  0  0  0  0  0  0  0  0  # atno 17395 bound_to 11000

$$$$
