AV-unprocessed.smi:1119|AV-procd|sdf|4817|dock5
  -GOLD-   22720 3373D 1   1.00000     0.00000
 Structure written by MMmdl.
 31 32  0  0  0  0  0  0  0  0  1 V2000
  147.5316  141.4826  153.0841 C   0  0  0  0  0  0  0  0  0  0  0  0
  148.3624  141.6608  154.2263 O   0  0  0  0  0  0  0  0  0  0  0  0
  149.3235  140.7058  154.4979 C   0  0  0  0  0  0  0  0  0  0  0  0
  149.3334  139.5707  153.7545 N   0  0  0  0  0  0  0  0  0  0  0  0
  150.2688  138.6359  154.0202 C   0  0  0  0  0  0  0  0  0  0  0  0
  151.2319  138.7770  155.0361 C   0  0  0  0  0  0  0  0  0  0  0  0
  151.2245  139.9535  155.8080 C   0  0  0  0  0  0  0  0  0  0  0  0
  150.2581  140.9504  155.5310 C   0  0  0  0  0  0  0  0  0  0  0  0
  150.1511  142.1619  156.2677 N   0  0  0  0  0  0  0  0  0  0  0  0
  150.4618  142.3818  157.5563 C   0  0  0  0  0  0  0  0  0  0  0  0
  150.9338  141.5449  158.3260 O   0  0  0  0  0  0  0  0  0  0  0  0
  150.2124  143.6515  157.9051 N   0  0  0  0  0  0  0  0  0  0  0  0
  150.4715  144.2213  159.2210 C   0  0  0  0  0  0  0  0  0  0  0  0
  151.9329  144.4982  159.5162 C   0  0  0  0  0  0  0  0  0  0  0  0
  152.9423  144.6498  158.4018 C   0  0  0  0  0  0  0  0  0  0  0  0
  152.9750  143.4282  159.2875 C   0  0  0  0  0  0  0  0  0  0  0  0
  146.8404  142.3216  153.0069 H   0  0  0  0  0  0  0  0  0  0  0  0
  146.9378  140.5708  153.1616 H   0  0  0  0  0  0  0  0  0  0  0  0
  148.1179  141.4522  152.1644 H   0  0  0  0  0  0  0  0  0  0  0  0
  150.2446  137.7462  153.4085 H   0  0  0  0  0  0  0  0  0  0  0  0
  151.9569  137.9986  155.2224 H   0  0  0  0  0  0  0  0  0  0  0  0
  151.9455  140.0622  156.6034 H   0  0  0  0  0  0  0  0  0  0  0  0
  149.8692  142.9698  155.7319 H   0  0  0  0  0  0  0  0  0  0  0  0
  149.8261  144.2708  157.2078 H   0  0  0  0  0  0  0  0  0  0  0  0
  149.9293  145.1649  159.2832 H   0  0  0  0  0  0  0  0  0  0  0  0
  150.0538  143.5795  159.9988 H   0  0  0  0  0  0  0  0  0  0  0  0
  152.0901  145.1199  160.3959 H   0  0  0  0  0  0  0  0  0  0  0  0
  152.5930  144.5200  157.3792 H   0  0  0  0  0  0  0  0  0  0  0  0
  153.7274  145.3914  158.5352 H   0  0  0  0  0  0  0  0  0  0  0  0
  153.7850  143.3526  160.0102 H   0  0  0  0  0  0  0  0  0  0  0  0
  152.6493  142.4854  158.8519 H   0  0  0  0  0  0  0  0  0  0  0  0
  1  2  1  0  0  0  0
  1 17  1  0  0  0  0
  1 18  1  0  0  0  0
  1 19  1  0  0  0  0
  2  3  1  0  0  0  0
  3  8  1  0  0  0  0
  3  4  2  0  0  0  0
  4  5  1  0  0  0  0
  5  6  2  0  0  0  0
  5 20  1  0  0  0  0
  6  7  1  0  0  0  0
  6 21  1  0  0  0  0
  7  8  2  0  0  0  0
  7 22  1  0  0  0  0
  8  9  1  0  0  0  0
  9 10  1  0  0  0  0
  9 23  1  0  0  0  0
 10 11  2  0  0  0  0
 10 12  1  0  0  0  0
 12 13  1  0  0  0  0
 12 24  1  0  0  0  0
 13 14  1  0  0  0  0
 13 25  1  0  0  0  0
 13 26  1  0  0  0  0
 14 16  1  0  0  0  0
 14 15  1  0  0  0  0
 14 27  1  0  0  0  0
 15 16  1  0  0  0  0
 15 28  1  0  0  0  0
 15 29  1  0  0  0  0
 16 30  1  0  0  0  0
 16 31  1  0  0  0  0
M  END
> <s_m_source_file>
AV-unprocessed.smi

> <i_m_source_file_index>
1119

> <i_lp_mmshare_version>
43012

> <i_f3d_flags>
0

> <s_epik_input>
W0NIM11PYzFuW2NIXVtjSF1bY0hdYzFbTkhdQyg9TylbTkhdW0NIMl1bQ0hdMltDSDJdW0NIMl0y

> <s_epik_cmdline>
J2VwaWtfcHl0aG9uJywgJy1waCcsICc3LjAnLCAnLXRuJywgJzgnLCAnLW1hJywgJzIwMCcsICctbWV0YWxfYmluZGluZycsICctaW1hZScsICc8aW5maWxlLm1hZT4nLCAnLW9tYWUnLCAnPG91dGZpbGUubWFlPic=

> <r_lp_tautomer_probability>
1

> <r_epik_Ionization_Penalty>
9.92152e-05

> <r_epik_Ionization_Penalty_Charging>
0

> <r_epik_Ionization_Penalty_Neutral>
9.92152e-05

> <r_epik_State_Penalty>
-0

> <r_epik_Charging_Adjusted_Penalty>
0

> <i_epik_Tot_Q>
0

> <i_epik_Tot_abs_Q>
0

> <r_epik_Metal_State_Penalty>
-0

> <b_epik_Metal_Only>
0

> <s_lp_Force_Field>
OPLS_2005

> <r_lp_Energy>
14.7926

> <b_lp_Chiralities_Consistent>
1

> <s_lp_Variant>
AV-unprocessed.smi:1119-1

> <Gold.Version>
5.8.1

> <Gold.Id.Protein>
6NUR|6NUR_protein|mol2

> <Gold.PLP.Fitness>
45.0274

> <Gold.PLP.PLP>
-36.5096

> <Gold.PLP.part.hbond>
-2.0988

> <Gold.PLP.part.metal>
0.0000

> <Gold.PLP.part.buried>
-6.3539

> <Gold.PLP.part.nonpolar>
-30.6178

> <Gold.PLP.part.repulsive>
2.4168

> <Gold.PLP.ligand.clash>
0.0000

> <Gold.PLP.ligand.torsion>
0.6356

> <Gold.PLP.Chemscore.Hbond>
2.0000

> <Gold.PLP.Chemscore.CHOScore>
1.0822

> <Gold.PLP.Chemscore.Metal>
0.0000

> <Gold.Chemscore.Hbonds>
donor molecule, donor type, donor heavy atom, donor atom, acceptor molecule, acceptor atom, score
      L1  H     9    23       P1  8028  0.98
      L1  H    12    24       P1  8028  1.00
      L1  C     5    20       P1  7948  0.98
      L1  C     5    20       P1  7949  0.14

> <Gold.PLP.Chemscore.Internal.Correction>
0.5426

> <Gold.Rescore>
     Score         DG    S(hbond)    S(metal)    S(lipo)     H(rot)  DE(clash)    DE(int)     intcor
     14.14     -16.30       1.51        0.00      81.09       1.45       0.23       1.92       ----

> <Gold.Chemscore.Fitness>
14.1442

> <Gold.Chemscore.DG>
-16.2975

> <Gold.Chemscore.ZeroCoef>
-5.4800

> <Gold.Chemscore.Hbond>
1.5092

> <Gold.Chemscore.Metal>
0.0000

> <Gold.Chemscore.Lipo>
81.0938

> <Gold.Chemscore.Internal_Hbond>
0.0000

> <Gold.Chemscore.DEClash>
0.2309

> <Gold.Chemscore.DEInternal>
1.9225

> <Gold.Chemscore.Rot>
1.4497

> <Gold.Chemscore.Internal.Correction>
   9.000000E+99

> <Gold.Chemscore.Hbonds>
donor molecule, donor type, donor heavy atom, donor atom, acceptor molecule, acceptor atom, score
      L1  H     9    23       P1  8028  0.89
      L1  H    12    24       P1  8028  0.50

> <Gold.Chemscore.Hbond.Weighted>
-5.0407

> <Gold.Chemscore.Metal.Weighted>
-0.0000

> <Gold.Chemscore.Lipo.Weighted>
-9.4880

> <Gold.Chemscore.Internal_Hbond.Weighted>
0.0000

> <Gold.Chemscore.DEClash.Weighted>
0.2309

> <Gold.Chemscore.DEInternal.Weighted>
1.9225

> <Gold.Chemscore.Rot.Weighted>
3.7111

> <Gold.Chemscore.Internal.Correction.Weighted>
   9.000000E+99

> <Gold.Protein.RotatedTorsions>
[ 6907 6896 6895 6894 ] final   29.74 input  -60.11 | X-H torsion
[ 7974 7965 7964 7962 ] final  120.97 input  175.53 | X-H torsion
[ 8008 7997 7996 7995 ] final -170.79 input   59.86 | X-H torsion
[ 10167 10162 10161 10158 ] final   15.72 input  -65.29 | X-H torsion
[ 10718 10713 10712 10709 ] final -128.35 input   66.30 | X-H torsion
[ 10763 10752 10751 10750 ] final  -95.47 input  -60.55 | X-H torsion
[ 11005 11000 10999 10996 ] final  -94.01 input  -57.11 | X-H torsion

> <Gold.Protein.ActiveResidues>
 VAL166  LYS551  ARG553  GLY616  TRP617  ASP618  TYR619  PRO620  LYS621  CYS622 
 ASP623  PHE694  ASN695  SER759  ASP760  ASP761  ALA762  ILE779  LEU786  VAL792 
 PHE793  MET794  SER795  GLU796  ALA797  LYS798  CYS799  TRP800  GLU811  SER814 

> <Gold.Protein.RotatedAtoms>
  152.0359  134.9740  160.0573 H   0  0  0  0  0  0  0  0  0  0  0  0  # atno 6907 bound_to 6896
  152.1199  133.4342  159.4679 H   0  0  0  0  0  0  0  0  0  0  0  0  # atno 6908 bound_to 6896
  150.6848  134.2466  159.4537 H   0  0  0  0  0  0  0  0  0  0  0  0  # atno 6909 bound_to 6896
  145.1249  139.3365  143.4695 H   0  0  0  0  0  0  0  0  0  0  0  0  # atno 7974 bound_to 7965
  155.9230  140.1077  157.1192 H   0  0  0  0  0  0  0  0  0  0  0  0  # atno 8008 bound_to 7997
  154.4057  140.1252  156.4770 H   0  0  0  0  0  0  0  0  0  0  0  0  # atno 8009 bound_to 7997
  155.7172  140.3470  155.5002 H   0  0  0  0  0  0  0  0  0  0  0  0  # atno 8010 bound_to 7997
  140.5847  143.8912  150.6820 H   0  0  0  0  0  0  0  0  0  0  0  0  # atno 10167 bound_to 10162
  156.1942  130.6815  151.0462 H   0  0  0  0  0  0  0  0  0  0  0  0  # atno 10718 bound_to 10713
  154.7151  135.5119  153.8725 H   0  0  0  0  0  0  0  0  0  0  0  0  # atno 10763 bound_to 10752
  153.0813  135.6632  154.0047 H   0  0  0  0  0  0  0  0  0  0  0  0  # atno 10764 bound_to 10752
  153.9881  135.3022  155.3394 H   0  0  0  0  0  0  0  0  0  0  0  0  # atno 10765 bound_to 10752
  141.1482  133.7927  157.0239 H   0  0  0  0  0  0  0  0  0  0  0  0  # atno 11005 bound_to 11000
  146.3518  140.1223  142.8600 LP  0  0  0  0  0  0  0  0  0  0  0  0  # atno 17320 bound_to 7965
  145.0700  140.9148  143.4888 LP  0  0  0  0  0  0  0  0  0  0  0  0  # atno 17321 bound_to 7965
  140.2420  143.3656  152.1478 LP  0  0  0  0  0  0  0  0  0  0  0  0  # atno 17342 bound_to 10162
  139.5190  144.7014  151.5482 LP  0  0  0  0  0  0  0  0  0  0  0  0  # atno 17343 bound_to 10162
  157.6948  131.0798  150.7002 LP  0  0  0  0  0  0  0  0  0  0  0  0  # atno 17370 bound_to 10713
  156.7059  130.4637  149.5560 LP  0  0  0  0  0  0  0  0  0  0  0  0  # atno 17371 bound_to 10713
  140.0798  134.9655  157.1605 LP  0  0  0  0  0  0  0  0  0  0  0  0  # atno 17394 bound_to 11000
  140.3593  134.2512  155.7189 LP  0  0  0  0  0  0  0  0  0  0  0  0  # atno 17395 bound_to 11000

$$$$
