AV-unprocessed.smi:1880|AV-procd|sdf|7635|dock6
  -GOLD-   22720 9363D 1   1.00000     0.00000
 Structure written by MMmdl.
 36 38  0  0  0  0  0  0  0  0  1 V2000
  152.4054  140.4409  157.2607 O   0  0  0  0  0  0  0  0  0  0  0  0
  151.1251  141.0419  157.2600 C   0  0  2  0  0  0  0  0  0  0  0  0
  150.3017  140.4242  156.1197 C   0  0  0  0  0  0  0  0  0  0  0  0
  149.3925  141.3989  155.6375 O   0  0  0  0  0  0  0  0  0  0  0  0
  148.8816  141.0884  154.3531 C   0  0  0  0  0  0  0  0  0  0  0  0
  147.4999  141.6449  154.3037 C   0  0  0  0  0  0  0  0  0  0  0  0
  146.8711  142.5290  153.4712 C   0  0  0  0  0  0  0  0  0  0  0  0
  145.5359  142.6468  153.9469 C   0  0  0  0  0  0  0  0  0  0  0  0
  145.4505  141.8265  155.0357 C   0  0  0  0  0  0  0  0  0  0  0  0
  146.6404  141.2080  155.2672 O   0  0  0  0  0  0  0  0  0  0  0  0
  151.2863  142.5659  157.0993 C   0  0  0  0  0  0  0  0  0  0  0  0
  151.1254  143.2736  158.3573 N   0  0  0  0  0  0  0  0  0  0  0  0
  150.3429  144.3455  158.5865 C   0  0  0  0  0  0  0  0  0  0  0  0
  150.3344  144.8416  159.8204 N   0  0  0  0  0  0  0  0  0  0  0  0
  151.2131  143.9912  160.4692 C   0  0  0  0  0  0  0  0  0  0  0  0
  151.6446  143.9720  161.8146 C   0  0  0  0  0  0  0  0  0  0  0  0
  152.5590  142.9940  162.2582 C   0  0  0  0  0  0  0  0  0  0  0  0
  152.9610  142.9893  163.5513 F   0  0  0  0  0  0  0  0  0  0  0  0
  153.0557  142.0223  161.3642 C   0  0  0  0  0  0  0  0  0  0  0  0
  153.9329  141.0868  161.7987 F   0  0  0  0  0  0  0  0  0  0  0  0
  152.6402  142.0215  160.0187 C   0  0  0  0  0  0  0  0  0  0  0  0
  151.7276  142.9992  159.5807 C   0  0  0  0  0  0  0  0  0  0  0  0
  152.3730  139.6718  157.8096 H   0  0  0  0  0  0  0  0  0  0  0  0
  150.6369  140.8364  158.2138 H   0  0  0  0  0  0  0  0  0  0  0  0
  150.9624  140.1379  155.2996 H   0  0  0  0  0  0  0  0  0  0  0  0
  149.7842  139.5212  156.4495 H   0  0  0  0  0  0  0  0  0  0  0  0
  149.4996  141.5330  153.5715 H   0  0  0  0  0  0  0  0  0  0  0  0
  148.8621  140.0087  154.1973 H   0  0  0  0  0  0  0  0  0  0  0  0
  147.3169  143.0263  152.6225 H   0  0  0  0  0  0  0  0  0  0  0  0
  144.7391  143.2538  153.5432 H   0  0  0  0  0  0  0  0  0  0  0  0
  144.6587  141.5758  155.7263 H   0  0  0  0  0  0  0  0  0  0  0  0
  152.2644  142.8081  156.6817 H   0  0  0  0  0  0  0  0  0  0  0  0
  150.5451  142.9504  156.3977 H   0  0  0  0  0  0  0  0  0  0  0  0
  149.7430  144.7848  157.8027 H   0  0  0  0  0  0  0  0  0  0  0  0
  151.2707  144.7103  162.5083 H   0  0  0  0  0  0  0  0  0  0  0  0
  153.0150  141.2764  159.3330 H   0  0  0  0  0  0  0  0  0  0  0  0
  1  2  1  0  0  0  0
  1 23  1  0  0  0  0
  2  3  1  0  0  0  0
  2 11  1  0  0  0  0
  2 24  1  0  0  0  0
  3  4  1  0  0  0  0
  3 25  1  0  0  0  0
  3 26  1  0  0  0  0
  4  5  1  0  0  0  0
  5  6  1  0  0  0  0
  5 27  1  0  0  0  0
  5 28  1  0  0  0  0
  6 10  1  0  0  0  0
  6  7  2  0  0  0  0
  7  8  1  0  0  0  0
  7 29  1  0  0  0  0
  8  9  2  0  0  0  0
  8 30  1  0  0  0  0
  9 10  1  0  0  0  0
  9 31  1  0  0  0  0
 11 12  1  0  0  0  0
 11 32  1  0  0  0  0
 11 33  1  0  0  0  0
 12 22  1  0  0  0  0
 12 13  1  0  0  0  0
 13 14  2  0  0  0  0
 13 34  1  0  0  0  0
 14 15  1  0  0  0  0
 15 22  2  0  0  0  0
 15 16  1  0  0  0  0
 16 17  2  0  0  0  0
 16 35  1  0  0  0  0
 17 18  1  0  0  0  0
 17 19  1  0  0  0  0
 19 20  1  0  0  0  0
 19 21  2  0  0  0  0
 21 22  1  0  0  0  0
 21 36  1  0  0  0  0
M  END
> <s_m_source_file>
AV-unprocessed.smi

> <i_m_source_file_index>
1880

> <i_lp_mmshare_version>
43012

> <i_f3d_flags>
0

> <s_epik_input>
W2NIXTFjKEYpYyhGKVtjSF1jKGMxMiluKFtjSF1uMilbQ0gyXVtDQEhdKFtPSF0pW0NIMl1PW0NIMl1jM1tjSF1bY0hdW2NIXW8z

> <s_epik_cmdline>
J2VwaWtfcHl0aG9uJywgJy1waCcsICc3LjAnLCAnLXRuJywgJzgnLCAnLW1hJywgJzIwMCcsICctbWV0YWxfYmluZGluZycsICctaW1hZScsICc8aW5maWxlLm1hZT4nLCAnLW9tYWUnLCAnPG91dGZpbGUubWFlPic=

> <r_epik_Ionization_Penalty>
0.0152348

> <r_epik_Ionization_Penalty_Charging>
0

> <r_epik_Ionization_Penalty_Neutral>
0.0152348

> <r_epik_State_Penalty>
0.0119607

> <r_epik_Charging_Adjusted_Penalty>
0.0119607

> <i_epik_Tot_Q>
0

> <i_epik_Tot_abs_Q>
0

> <r_epik_Metal_State_Penalty>
1.20821e-05

> <b_epik_Metal_Only>
0

> <s_lp_Force_Field>
OPLS_2005

> <r_lp_Energy>
7.92035

> <b_lp_Chiralities_Consistent>
1

> <s_lp_Variant>
AV-unprocessed.smi:1880-1

> <Gold.Version>
5.8.1

> <Gold.Id.Protein>
6NUR|6NUR_protein|mol2

> <Gold.PLP.Fitness>
57.2900

> <Gold.PLP.PLP>
-53.8674

> <Gold.PLP.part.hbond>
-1.0000

> <Gold.PLP.part.metal>
0.0000

> <Gold.PLP.part.buried>
-7.0197

> <Gold.PLP.part.nonpolar>
-46.0575

> <Gold.PLP.part.repulsive>
0.3243

> <Gold.PLP.ligand.clash>
0.0000

> <Gold.PLP.ligand.torsion>
1.3868

> <Gold.PLP.Chemscore.Hbond>
0.9920

> <Gold.PLP.Chemscore.CHOScore>
1.0517

> <Gold.PLP.Chemscore.Metal>
0.0000

> <Gold.Chemscore.Hbonds>
donor molecule, donor type, donor heavy atom, donor atom, acceptor molecule, acceptor atom, score
      P1  H  7997  8008       L1     1  0.61
      L1  C    13    34       P1  8028  0.37
      L1  C    13    34       P1  8029  0.45

> <Gold.PLP.Chemscore.Internal.Correction>
0.0650

> <Gold.Rescore>
     Score         DG    S(hbond)    S(metal)    S(lipo)     H(rot)  DE(clash)    DE(int)     intcor
      9.93     -11.59       0.04        0.00     113.52       2.85       0.20       1.47       ----

> <Gold.Chemscore.Fitness>
9.9274

> <Gold.Chemscore.DG>
-11.5923

> <Gold.Chemscore.ZeroCoef>
-5.4800

> <Gold.Chemscore.Hbond>
0.0393

> <Gold.Chemscore.Metal>
0.0000

> <Gold.Chemscore.Lipo>
113.5188

> <Gold.Chemscore.Internal_Hbond>
0.0000

> <Gold.Chemscore.DEClash>
0.1980

> <Gold.Chemscore.DEInternal>
1.4669

> <Gold.Chemscore.Rot>
2.8518

> <Gold.Chemscore.Internal.Correction>
   9.000000E+99

> <Gold.Chemscore.Hbonds>
donor molecule, donor type, donor heavy atom, donor atom, acceptor molecule, acceptor atom, score
      P1  H  7997  8008       L1     1  0.10

> <Gold.Chemscore.Hbond.Weighted>
-0.1312

> <Gold.Chemscore.Metal.Weighted>
-0.0000

> <Gold.Chemscore.Lipo.Weighted>
-13.2817

> <Gold.Chemscore.Internal_Hbond.Weighted>
0.0000

> <Gold.Chemscore.DEClash.Weighted>
0.1980

> <Gold.Chemscore.DEInternal.Weighted>
1.4669

> <Gold.Chemscore.Rot.Weighted>
7.3005

> <Gold.Chemscore.Internal.Correction.Weighted>
   9.000000E+99

> <Gold.Protein.RotatedTorsions>
[ 6907 6896 6895 6894 ] final  126.45 input  -60.11 | X-H torsion
[ 7974 7965 7964 7962 ] final  -62.80 input  175.53 | X-H torsion
[ 8008 7997 7996 7995 ] final  -51.03 input   59.86 | X-H torsion
[ 10167 10162 10161 10158 ] final   11.18 input  -65.29 | X-H torsion
[ 10718 10713 10712 10709 ] final   84.46 input   66.30 | X-H torsion
[ 10763 10752 10751 10750 ] final  -88.50 input  -60.55 | X-H torsion
[ 11005 11000 10999 10996 ] final  121.41 input  -57.11 | X-H torsion

> <Gold.Protein.ActiveResidues>
 VAL166  LYS551  ARG553  GLY616  TRP617  ASP618  TYR619  PRO620  LYS621  CYS622 
 ASP623  PHE694  ASN695  SER759  ASP760  ASP761  ALA762  ILE779  LEU786  VAL792 
 PHE793  MET794  SER795  GLU796  ALA797  LYS798  CYS799  TRP800  GLU811  SER814 

> <Gold.Protein.RotatedAtoms>
  152.3902  133.6668  159.6230 H   0  0  0  0  0  0  0  0  0  0  0  0  # atno 6907 bound_to 6896
  150.7812  133.8967  159.3338 H   0  0  0  0  0  0  0  0  0  0  0  0  # atno 6908 bound_to 6896
  151.6755  135.0971  160.0257 H   0  0  0  0  0  0  0  0  0  0  0  0  # atno 6909 bound_to 6896
  145.7869  140.8731  143.0301 H   0  0  0  0  0  0  0  0  0  0  0  0  # atno 7974 bound_to 7965
  154.4074  140.1258  156.4762 H   0  0  0  0  0  0  0  0  0  0  0  0  # atno 8008 bound_to 7997
  155.7130  140.3493  155.4962 H   0  0  0  0  0  0  0  0  0  0  0  0  # atno 8009 bound_to 7997
  155.9283  140.1065  157.1143 H   0  0  0  0  0  0  0  0  0  0  0  0  # atno 8010 bound_to 7997
  140.6148  143.8331  150.7106 H   0  0  0  0  0  0  0  0  0  0  0  0  # atno 10167 bound_to 10162
  157.6898  131.0134  150.2675 H   0  0  0  0  0  0  0  0  0  0  0  0  # atno 10718 bound_to 10713
  154.6452  135.5375  153.7836 H   0  0  0  0  0  0  0  0  0  0  0  0  # atno 10763 bound_to 10752
  153.0355  135.6469  154.1100 H   0  0  0  0  0  0  0  0  0  0  0  0  # atno 10764 bound_to 10752
  154.1022  135.2932  155.3229 H   0  0  0  0  0  0  0  0  0  0  0  0  # atno 10765 bound_to 10752
  139.9225  134.9638  156.7954 H   0  0  0  0  0  0  0  0  0  0  0  0  # atno 11005 bound_to 11000
  144.6787  140.0068  143.7484 LP  0  0  0  0  0  0  0  0  0  0  0  0  # atno 17320 bound_to 7965
  146.0017  139.3096  143.0924 LP  0  0  0  0  0  0  0  0  0  0  0  0  # atno 17321 bound_to 7965
  140.1908  143.4038  152.1864 LP  0  0  0  0  0  0  0  0  0  0  0  0  # atno 17342 bound_to 10162
  139.5390  144.7238  151.4798 LP  0  0  0  0  0  0  0  0  0  0  0  0  # atno 17343 bound_to 10162
  156.3244  130.3791  149.7546 LP  0  0  0  0  0  0  0  0  0  0  0  0  # atno 17370 bound_to 10713
  156.5106  130.8170  151.3167 LP  0  0  0  0  0  0  0  0  0  0  0  0  # atno 17371 bound_to 10713
  140.6433  133.9798  155.7718 LP  0  0  0  0  0  0  0  0  0  0  0  0  # atno 17394 bound_to 11000
  141.0757  134.0139  157.3461 LP  0  0  0  0  0  0  0  0  0  0  0  0  # atno 17395 bound_to 11000

$$$$
