AV-unprocessed.smi:3140|AV-procd|sdf|11961|dock9
  -GOLD-   2272017363D 1   1.00000     0.00000
 Structure written by MMmdl.
 37 38  0  0  0  0  0  0  0  0  1 V2000
  149.6069  142.2819  157.7392 C   0  0  0  0  0  0  0  0  0  0  0  0
  150.2689  140.9770  157.2626 C   0  0  1  0  0  0  0  0  0  0  0  0
  150.0980  140.7972  155.7405 C   0  0  0  0  0  0  0  0  0  0  0  0
  150.7841  139.6185  155.2393 N   0  0  0  0  0  0  0  0  0  0  0  0
  150.3397  138.3131  155.2248 C   0  0  0  0  0  0  0  0  0  0  0  0
  151.3238  137.5542  154.6590 C   0  0  0  0  0  0  0  0  0  0  0  0
  152.3432  138.4983  154.3519 C   0  0  0  0  0  0  0  0  0  0  0  0
  152.0163  139.7332  154.6973 N   0  0  0  0  0  0  0  0  0  0  0  0
  151.6929  140.9921  157.5811 N   0  0  0  0  0  0  0  0  0  0  0  0
  151.9440  141.1724  159.0026 C   0  0  0  0  0  0  0  0  0  0  0  0
  152.8589  142.3890  159.2072 C   0  0  0  0  0  0  0  0  0  0  0  0
  152.9162  142.7796  160.6126 N   0  0  0  0  0  0  0  0  0  0  0  0
  153.7092  142.0179  161.5627 C   0  0  0  0  0  0  0  0  0  0  0  0
  153.3558  142.6052  162.9367 C   0  0  0  0  0  0  0  0  0  0  0  0
  152.6314  143.9256  162.6519 C   0  0  0  0  0  0  0  0  0  0  0  0
  152.3245  143.8447  161.1661 C   0  0  0  0  0  0  0  0  0  0  0  0
  151.6214  144.6695  160.5839 O   0  0  0  0  0  0  0  0  0  0  0  0
  148.5521  142.3034  157.4645 H   0  0  0  0  0  0  0  0  0  0  0  0
  150.0810  143.1558  157.2907 H   0  0  0  0  0  0  0  0  0  0  0  0
  149.6548  142.3943  158.8219 H   0  0  0  0  0  0  0  0  0  0  0  0
  149.7942  140.1317  157.7629 H   0  0  0  0  0  0  0  0  0  0  0  0
  149.0407  140.6884  155.4962 H   0  0  0  0  0  0  0  0  0  0  0  0
  150.4498  141.6791  155.2018 H   0  0  0  0  0  0  0  0  0  0  0  0
  149.3718  138.0371  155.6163 H   0  0  0  0  0  0  0  0  0  0  0  0
  151.3164  136.4876  154.4899 H   0  0  0  0  0  0  0  0  0  0  0  0
  153.3038  138.3242  153.8896 H   0  0  0  0  0  0  0  0  0  0  0  0
  152.1651  141.7036  157.0415 H   0  0  0  0  0  0  0  0  0  0  0  0
  151.0054  141.3179  159.5362 H   0  0  0  0  0  0  0  0  0  0  0  0
  152.4177  140.2772  159.4074 H   0  0  0  0  0  0  0  0  0  0  0  0
  153.8665  142.1640  158.8540 H   0  0  0  0  0  0  0  0  0  0  0  0
  152.5054  143.2345  158.6141 H   0  0  0  0  0  0  0  0  0  0  0  0
  153.4821  140.9525  161.5066 H   0  0  0  0  0  0  0  0  0  0  0  0
  154.7679  142.1551  161.3389 H   0  0  0  0  0  0  0  0  0  0  0  0
  152.6910  141.9274  163.4737 H   0  0  0  0  0  0  0  0  0  0  0  0
  154.2431  142.7508  163.5536 H   0  0  0  0  0  0  0  0  0  0  0  0
  151.7208  144.0322  163.2420 H   0  0  0  0  0  0  0  0  0  0  0  0
  153.2768  144.7835  162.8432 H   0  0  0  0  0  0  0  0  0  0  0  0
  1  2  1  0  0  0  0
  1 18  1  0  0  0  0
  1 19  1  0  0  0  0
  1 20  1  0  0  0  0
  2  3  1  0  0  0  0
  2  9  1  0  0  0  0
  2 21  1  0  0  0  0
  3  4  1  0  0  0  0
  3 22  1  0  0  0  0
  3 23  1  0  0  0  0
  4  8  1  0  0  0  0
  4  5  1  0  0  0  0
  5  6  2  0  0  0  0
  5 24  1  0  0  0  0
  6  7  1  0  0  0  0
  6 25  1  0  0  0  0
  7  8  2  0  0  0  0
  7 26  1  0  0  0  0
  9 10  1  0  0  0  0
  9 27  1  0  0  0  0
 10 11  1  0  0  0  0
 10 28  1  0  0  0  0
 10 29  1  0  0  0  0
 11 12  1  0  0  0  0
 11 30  1  0  0  0  0
 11 31  1  0  0  0  0
 12 16  1  0  0  0  0
 12 13  1  0  0  0  0
 13 14  1  0  0  0  0
 13 32  1  0  0  0  0
 13 33  1  0  0  0  0
 14 15  1  0  0  0  0
 14 34  1  0  0  0  0
 14 35  1  0  0  0  0
 15 16  1  0  0  0  0
 15 36  1  0  0  0  0
 15 37  1  0  0  0  0
 16 17  2  0  0  0  0
M  END
> <s_m_source_file>
AV-unprocessed.smi

> <i_m_source_file_index>
3140

> <i_lp_mmshare_version>
43012

> <i_f3d_flags>
0

> <s_epik_input>
bjFbY0hdW2NIXVtjSF1uMVtDSDJdW0NAQEhdKFtDSDNdKVtOSF1bQ0gyXVtDSDJdTjJbQ0gyXVtDSDJdW0NIMl1DMj1P

> <s_epik_cmdline>
J2VwaWtfcHl0aG9uJywgJy1waCcsICc3LjAnLCAnLXRuJywgJzgnLCAnLW1hJywgJzIwMCcsICctbWV0YWxfYmluZGluZycsICctaW1hZScsICc8aW5maWxlLm1hZT4nLCAnLW9tYWUnLCAnPG91dGZpbGUubWFlPic=

> <r_lp_tautomer_probability>
1

> <r_epik_Ionization_Penalty>
2.53587

> <r_epik_Ionization_Penalty_Charging>
0

> <r_epik_Ionization_Penalty_Neutral>
2.53587

> <r_epik_State_Penalty>
2.70334

> <r_epik_Charging_Adjusted_Penalty>
2.70334

> <i_epik_Tot_Q>
0

> <i_epik_Tot_abs_Q>
0

> <r_epik_Metal_State_Penalty>
2.7033

> <b_epik_Metal_Only>
0

> <s_lp_Force_Field>
OPLS_2005

> <r_lp_Energy>
20.5339

> <b_lp_Chiralities_Consistent>
1

> <s_lp_Variant>
AV-unprocessed.smi:3140-4

> <Gold.Version>
5.8.1

> <Gold.Id.Protein>
6NUR|6NUR_protein|mol2

> <Gold.PLP.Fitness>
42.2365

> <Gold.PLP.PLP>
-41.3133

> <Gold.PLP.part.hbond>
-1.0000

> <Gold.PLP.part.metal>
0.0000

> <Gold.PLP.part.buried>
-5.3427

> <Gold.PLP.part.nonpolar>
-35.4234

> <Gold.PLP.part.repulsive>
0.1991

> <Gold.PLP.ligand.clash>
0.0000

> <Gold.PLP.ligand.torsion>
0.9398

> <Gold.PLP.Chemscore.Hbond>
0.9280

> <Gold.PLP.Chemscore.CHOScore>
0.0000

> <Gold.PLP.Chemscore.Metal>
0.0000

> <Gold.Chemscore.Hbonds>
donor molecule, donor type, donor heavy atom, donor atom, acceptor molecule, acceptor atom, score
      P1  H  7989  7998       L1     8  0.84

> <Gold.PLP.Chemscore.Internal.Correction>
0.0189

> <Gold.Rescore>
     Score         DG    S(hbond)    S(metal)    S(lipo)     H(rot)  DE(clash)    DE(int)     intcor
     13.11     -13.96       0.98        0.00      87.81       1.97       0.24       0.61       ----

> <Gold.Chemscore.Fitness>
13.1104

> <Gold.Chemscore.DG>
-13.9616

> <Gold.Chemscore.ZeroCoef>
-5.4800

> <Gold.Chemscore.Hbond>
0.9750

> <Gold.Chemscore.Metal>
0.0000

> <Gold.Chemscore.Lipo>
87.8106

> <Gold.Chemscore.Internal_Hbond>
0.0000

> <Gold.Chemscore.DEClash>
0.2379

> <Gold.Chemscore.DEInternal>
0.6133

> <Gold.Chemscore.Rot>
1.9722

> <Gold.Chemscore.Internal.Correction>
   9.000000E+99

> <Gold.Chemscore.Hbonds>
donor molecule, donor type, donor heavy atom, donor atom, acceptor molecule, acceptor atom, score
      P1  H  7989  7998       L1     8  0.18

> <Gold.Chemscore.Hbond.Weighted>
-3.2565

> <Gold.Chemscore.Metal.Weighted>
-0.0000

> <Gold.Chemscore.Lipo.Weighted>
-10.2738

> <Gold.Chemscore.Internal_Hbond.Weighted>
0.0000

> <Gold.Chemscore.DEClash.Weighted>
0.2379

> <Gold.Chemscore.DEInternal.Weighted>
0.6133

> <Gold.Chemscore.Rot.Weighted>
5.0487

> <Gold.Chemscore.Internal.Correction.Weighted>
   9.000000E+99

> <Gold.Protein.RotatedTorsions>
[ 6907 6896 6895 6894 ] final  108.51 input  -60.11 | X-H torsion
[ 7974 7965 7964 7962 ] final -112.23 input  175.53 | X-H torsion
[ 8008 7997 7996 7995 ] final  -91.44 input   59.86 | X-H torsion
[ 10167 10162 10161 10158 ] final -158.95 input  -65.29 | X-H torsion
[ 10718 10713 10712 10709 ] final   94.81 input   66.30 | X-H torsion
[ 10763 10752 10751 10750 ] final  -38.59 input  -60.55 | X-H torsion
[ 11005 11000 10999 10996 ] final  -31.19 input  -57.11 | X-H torsion

> <Gold.Protein.ActiveResidues>
 VAL166  LYS551  ARG553  GLY616  TRP617  ASP618  TYR619  PRO620  LYS621  CYS622 
 ASP623  PHE694  ASN695  SER759  ASP760  ASP761  ALA762  ILE779  LEU786  VAL792 
 PHE793  MET794  SER795  GLU796  ALA797  LYS798  CYS799  TRP800  GLU811  SER814 

> <Gold.Protein.RotatedAtoms>
  152.5109  133.9078  159.7472 H   0  0  0  0  0  0  0  0  0  0  0  0  # atno 6907 bound_to 6896
  150.9479  133.6574  159.2784 H   0  0  0  0  0  0  0  0  0  0  0  0  # atno 6908 bound_to 6896
  151.3863  135.0953  159.9565 H   0  0  0  0  0  0  0  0  0  0  0  0  # atno 6909 bound_to 6896
  145.1465  140.8806  143.3671 H   0  0  0  0  0  0  0  0  0  0  0  0  # atno 7974 bound_to 7965
  154.7108  140.0519  157.0548 H   0  0  0  0  0  0  0  0  0  0  0  0  # atno 8008 bound_to 7997
  155.0558  140.3184  155.4658 H   0  0  0  0  0  0  0  0  0  0  0  0  # atno 8009 bound_to 7997
  156.2788  140.2107  156.5684 H   0  0  0  0  0  0  0  0  0  0  0  0  # atno 8010 bound_to 7997
  139.6652  143.9841  152.2250 H   0  0  0  0  0  0  0  0  0  0  0  0  # atno 10167 bound_to 10162
  157.6945  131.0524  150.4242 H   0  0  0  0  0  0  0  0  0  0  0  0  # atno 10718 bound_to 10713
  153.9153  135.6788  153.4749 H   0  0  0  0  0  0  0  0  0  0  0  0  # atno 10763 bound_to 10752
  153.1057  135.4807  154.8943 H   0  0  0  0  0  0  0  0  0  0  0  0  # atno 10764 bound_to 10752
  154.7506  135.3184  154.8521 H   0  0  0  0  0  0  0  0  0  0  0  0  # atno 10765 bound_to 10752
  140.9447  133.7257  156.1129 H   0  0  0  0  0  0  0  0  0  0  0  0  # atno 11005 bound_to 11000
  145.0476  139.3208  143.5945 LP  0  0  0  0  0  0  0  0  0  0  0  0  # atno 17320 bound_to 7965
  146.3499  139.9873  142.8689 LP  0  0  0  0  0  0  0  0  0  0  0  0  # atno 17321 bound_to 7965
  139.9591  144.6570  150.8097 LP  0  0  0  0  0  0  0  0  0  0  0  0  # atno 17342 bound_to 10162
  140.7596  143.3133  151.2792 LP  0  0  0  0  0  0  0  0  0  0  0  0  # atno 17343 bound_to 10162
  156.4615  130.4033  149.6573 LP  0  0  0  0  0  0  0  0  0  0  0  0  # atno 17370 bound_to 10713
  156.3687  130.7519  151.2500 LP  0  0  0  0  0  0  0  0  0  0  0  0  # atno 17371 bound_to 10713
  140.7686  134.3858  157.5512 LP  0  0  0  0  0  0  0  0  0  0  0  0  # atno 17394 bound_to 11000
  139.8830  134.9007  156.2795 LP  0  0  0  0  0  0  0  0  0  0  0  0  # atno 17395 bound_to 11000

$$$$
