AV-unprocessed.smi:1644|AV-procd|sdf|6585|dock4
  -GOLD-   22720 7273D 1   1.00000     0.00000
 Structure written by MMmdl.
 49 51  0  0  0  0  0  0  0  0  1 V2000
  153.2906  135.9641  164.4018 C   0  0  0  0  0  0  0  0  0  0  0  0
  152.9740  136.9624  163.2828 C   0  0  0  0  0  0  0  0  0  0  0  0
  154.1927  137.2479  162.3884 C   0  0  0  0  0  0  0  0  0  0  0  0
  153.8989  138.1770  161.1909 C   0  0  1  0  0  0  0  0  0  0  0  0
  155.1212  138.5722  160.5197 N   0  0  0  0  0  0  0  0  0  0  0  0
  155.1567  138.1897  159.2372 C   0  0  0  0  0  0  0  0  0  0  0  0
  156.0935  138.3865  158.4648 O   0  0  0  0  0  0  0  0  0  0  0  0
  154.0056  137.5564  158.9530 N   0  0  0  0  0  0  0  0  0  0  0  0
  153.6883  136.9608  157.6516 C   0  0  0  0  0  0  0  0  0  0  0  0
  152.8311  137.9102  156.7891 C   0  0  2  0  0  0  0  0  0  0  0  0
  153.6401  138.9859  156.3539 O   0  0  0  0  0  0  0  0  0  0  0  0
  151.6417  138.4894  157.5777 C   0  0  0  0  0  0  0  0  0  0  0  0
  151.4334  139.8979  157.2962 N   0  0  0  0  0  0  0  0  0  0  0  0
  150.9307  140.4420  156.1714 C   0  0  0  0  0  0  0  0  0  0  0  0
  150.8254  141.7676  156.1315 N   0  0  0  0  0  0  0  0  0  0  0  0
  151.3163  142.1239  157.3762 C   0  0  0  0  0  0  0  0  0  0  0  0
  151.4748  143.3949  157.9708 C   0  0  0  0  0  0  0  0  0  0  0  0
  152.0051  143.5242  159.2745 C   0  0  0  0  0  0  0  0  0  0  0  0
  152.1579  144.9104  159.8752 C   0  0  0  0  0  0  0  0  0  0  0  0
  152.3868  142.3700  160.0047 C   0  0  0  0  0  0  0  0  0  0  0  0
  152.9582  142.4841  161.4069 C   0  0  0  0  0  0  0  0  0  0  0  0
  152.2355  141.0928  159.4256 C   0  0  0  0  0  0  0  0  0  0  0  0
  151.7066  140.9775  158.1279 C   0  0  0  0  0  0  0  0  0  0  0  0
  153.2050  137.4904  160.0252 C   0  0  0  0  0  0  0  0  0  0  0  0
  152.0929  136.9665  160.0877 O   0  0  0  0  0  0  0  0  0  0  0  0
  152.4126  135.7869  165.0235 H   0  0  0  0  0  0  0  0  0  0  0  0
  154.0866  136.3346  165.0482 H   0  0  0  0  0  0  0  0  0  0  0  0
  153.6082  135.0037  163.9941 H   0  0  0  0  0  0  0  0  0  0  0  0
  152.1503  136.5682  162.6883 H   0  0  0  0  0  0  0  0  0  0  0  0
  152.6185  137.8947  163.7231 H   0  0  0  0  0  0  0  0  0  0  0  0
  154.9751  137.7010  162.9990 H   0  0  0  0  0  0  0  0  0  0  0  0
  154.6044  136.3026  162.0303 H   0  0  0  0  0  0  0  0  0  0  0  0
  153.3439  139.0647  161.4968 H   0  0  0  0  0  0  0  0  0  0  0  0
  155.8662  139.0689  160.9866 H   0  0  0  0  0  0  0  0  0  0  0  0
  154.6305  136.7526  157.1415 H   0  0  0  0  0  0  0  0  0  0  0  0
  153.2065  135.9873  157.7634 H   0  0  0  0  0  0  0  0  0  0  0  0
  152.4487  137.3832  155.9138 H   0  0  0  0  0  0  0  0  0  0  0  0
  154.5402  138.6981  156.3363 H   0  0  0  0  0  0  0  0  0  0  0  0
  150.7243  137.9594  157.3186 H   0  0  0  0  0  0  0  0  0  0  0  0
  151.7870  138.3580  158.6512 H   0  0  0  0  0  0  0  0  0  0  0  0
  150.6216  139.8302  155.3365 H   0  0  0  0  0  0  0  0  0  0  0  0
  151.1840  144.2739  157.4145 H   0  0  0  0  0  0  0  0  0  0  0  0
  153.2069  145.1218  160.0837 H   0  0  0  0  0  0  0  0  0  0  0  0
  151.5969  144.9882  160.8068 H   0  0  0  0  0  0  0  0  0  0  0  0
  151.7892  145.6813  159.1981 H   0  0  0  0  0  0  0  0  0  0  0  0
  153.2124  141.5049  161.8138 H   0  0  0  0  0  0  0  0  0  0  0  0
  152.2344  142.9474  162.0776 H   0  0  0  0  0  0  0  0  0  0  0  0
  153.8641  143.0902  161.4025 H   0  0  0  0  0  0  0  0  0  0  0  0
  152.5204  140.2043  159.9699 H   0  0  0  0  0  0  0  0  0  0  0  0
  1  2  1  0  0  0  0
  1 26  1  0  0  0  0
  1 27  1  0  0  0  0
  1 28  1  0  0  0  0
  2  3  1  0  0  0  0
  2 29  1  0  0  0  0
  2 30  1  0  0  0  0
  3  4  1  0  0  0  0
  3 31  1  0  0  0  0
  3 32  1  0  0  0  0
  4 24  1  0  0  0  0
  4  5  1  0  0  0  0
  4 33  1  0  0  0  0
  5  6  1  0  0  0  0
  5 34  1  0  0  0  0
  6  7  2  0  0  0  0
  6  8  1  0  0  0  0
  8  9  1  0  0  0  0
  8 24  1  0  0  0  0
  9 10  1  0  0  0  0
  9 35  1  0  0  0  0
  9 36  1  0  0  0  0
 10 11  1  0  0  0  0
 10 12  1  0  0  0  0
 10 37  1  0  0  0  0
 11 38  1  0  0  0  0
 12 13  1  0  0  0  0
 12 39  1  0  0  0  0
 12 40  1  0  0  0  0
 13 23  1  0  0  0  0
 13 14  1  0  0  0  0
 14 15  2  0  0  0  0
 14 41  1  0  0  0  0
 15 16  1  0  0  0  0
 16 23  2  0  0  0  0
 16 17  1  0  0  0  0
 17 18  2  0  0  0  0
 17 42  1  0  0  0  0
 18 19  1  0  0  0  0
 18 20  1  0  0  0  0
 19 43  1  0  0  0  0
 19 44  1  0  0  0  0
 19 45  1  0  0  0  0
 20 21  1  0  0  0  0
 20 22  2  0  0  0  0
 21 46  1  0  0  0  0
 21 47  1  0  0  0  0
 21 48  1  0  0  0  0
 22 23  1  0  0  0  0
 22 49  1  0  0  0  0
 24 25  2  0  0  0  0
M  END
> <s_m_source_file>
AV-unprocessed.smi

> <i_m_source_file_index>
1644

> <i_lp_mmshare_version>
43012

> <i_f3d_flags>
0

> <s_epik_input>
W0NIM11bQ0gyXVtDSDJdW0NAQEhdMVtOSF1DKD1PKU4oQzE9TylbQ0gyXVtDQEhdKFtPSF0pW0NIMl1uKFtjSF1uMiljKGMyMylbY0hdYyhbQ0gzXSljKFtjSF0zKVtDSDNd

> <s_epik_cmdline>
J2VwaWtfcHl0aG9uJywgJy1waCcsICc3LjAnLCAnLXRuJywgJzgnLCAnLW1hJywgJzIwMCcsICctbWV0YWxfYmluZGluZycsICctaW1hZScsICc8aW5maWxlLm1hZT4nLCAnLW9tYWUnLCAnPG91dGZpbGUubWFlPic=

> <r_lp_tautomer_probability>
1

> <r_epik_Ionization_Penalty>
0.10693

> <r_epik_Ionization_Penalty_Charging>
0

> <r_epik_Ionization_Penalty_Neutral>
0.10693

> <r_epik_State_Penalty>
0.096713

> <r_epik_Charging_Adjusted_Penalty>
0.096713

> <i_epik_Tot_Q>
0

> <i_epik_Tot_abs_Q>
0

> <r_epik_Metal_State_Penalty>
0.102757

> <b_epik_Metal_Only>
0

> <s_lp_Force_Field>
OPLS_2005

> <r_lp_Energy>
21.5813

> <b_lp_Chiralities_Consistent>
1

> <s_lp_Variant>
AV-unprocessed.smi:1644-2

> <Gold.Version>
5.8.1

> <Gold.Id.Protein>
6NUR|6NUR_protein|mol2

> <Gold.PLP.Fitness>
50.9155

> <Gold.PLP.PLP>
-47.2718

> <Gold.PLP.part.hbond>
-1.8783

> <Gold.PLP.part.metal>
0.0000

> <Gold.PLP.part.buried>
-6.4371

> <Gold.PLP.part.nonpolar>
-38.3785

> <Gold.PLP.part.repulsive>
0.1790

> <Gold.PLP.ligand.clash>
0.0000

> <Gold.PLP.ligand.torsion>
1.2441

> <Gold.PLP.Chemscore.Hbond>
1.9920

> <Gold.PLP.Chemscore.CHOScore>
0.0000

> <Gold.PLP.Chemscore.Metal>
0.0000

> <Gold.Chemscore.Hbonds>
donor molecule, donor type, donor heavy atom, donor atom, acceptor molecule, acceptor atom, score
      P1  H  6896  6909       L1    25  1.00
      P1  H  7997  8010       L1     7  0.86

> <Gold.PLP.Chemscore.Internal.Correction>
0.1559

> <Gold.Rescore>
     Score         DG    S(hbond)    S(metal)    S(lipo)     H(rot)  DE(clash)    DE(int)     intcor
     18.51     -20.11       1.98        0.00     128.01       2.72       0.08       1.52       ----

> <Gold.Chemscore.Fitness>
18.5073

> <Gold.Chemscore.DG>
-20.1097

> <Gold.Chemscore.ZeroCoef>
-5.4800

> <Gold.Chemscore.Hbond>
1.9816

> <Gold.Chemscore.Metal>
0.0000

> <Gold.Chemscore.Lipo>
128.0120

> <Gold.Chemscore.Internal_Hbond>
0.0000

> <Gold.Chemscore.DEClash>
0.0799

> <Gold.Chemscore.DEInternal>
1.5226

> <Gold.Chemscore.Rot>
2.7212

> <Gold.Chemscore.Internal.Correction>
   9.000000E+99

> <Gold.Chemscore.Hbonds>
donor molecule, donor type, donor heavy atom, donor atom, acceptor molecule, acceptor atom, score
      P1  H  6896  6909       L1    25  1.00
      P1  H  7997  8010       L1     7  0.70

> <Gold.Chemscore.Hbond.Weighted>
-6.6186

> <Gold.Chemscore.Metal.Weighted>
-0.0000

> <Gold.Chemscore.Lipo.Weighted>
-14.9774

> <Gold.Chemscore.Internal_Hbond.Weighted>
0.0000

> <Gold.Chemscore.DEClash.Weighted>
0.0799

> <Gold.Chemscore.DEInternal.Weighted>
1.5226

> <Gold.Chemscore.Rot.Weighted>
6.9663

> <Gold.Chemscore.Internal.Correction.Weighted>
   9.000000E+99

> <Gold.Protein.RotatedTorsions>
[ 6907 6896 6895 6894 ] final  132.74 input  -60.11 | X-H torsion
[ 7974 7965 7964 7962 ] final   15.83 input  175.53 | X-H torsion
[ 8008 7997 7996 7995 ] final  -43.88 input   59.86 | X-H torsion
[ 10167 10162 10161 10158 ] final  141.67 input  -65.29 | X-H torsion
[ 10718 10713 10712 10709 ] final  -92.58 input   66.30 | X-H torsion
[ 10763 10752 10751 10750 ] final -168.29 input  -60.55 | X-H torsion
[ 11005 11000 10999 10996 ] final -150.83 input  -57.11 | X-H torsion

> <Gold.Protein.ActiveResidues>
 VAL166  LYS551  ARG553  GLY616  TRP617  ASP618  TYR619  PRO620  LYS621  CYS622 
 ASP623  PHE694  ASN695  SER759  ASP760  ASP761  ALA762  ILE779  LEU786  VAL792 
 PHE793  MET794  SER795  GLU796  ALA797  LYS798  CYS799  TRP800  GLU811  SER814 

> <Gold.Protein.RotatedAtoms>
  152.3293  133.5940  159.5797 H   0  0  0  0  0  0  0  0  0  0  0  0  # atno 6907 bound_to 6896
  150.7414  133.9893  159.3610 H   0  0  0  0  0  0  0  0  0  0  0  0  # atno 6908 bound_to 6896
  151.7769  135.0772  160.0419 H   0  0  0  0  0  0  0  0  0  0  0  0  # atno 6909 bound_to 6896
  146.2267  139.8837  142.8566 H   0  0  0  0  0  0  0  0  0  0  0  0  # atno 7974 bound_to 7965
  154.3997  140.1436  156.3591 H   0  0  0  0  0  0  0  0  0  0  0  0  # atno 8008 bound_to 7997
  155.8197  140.3470  155.5486 H   0  0  0  0  0  0  0  0  0  0  0  0  # atno 8009 bound_to 7997
  155.8300  140.0911  157.1788 H   0  0  0  0  0  0  0  0  0  0  0  0  # atno 8010 bound_to 7997
  139.5014  144.6156  151.6171 H   0  0  0  0  0  0  0  0  0  0  0  0  # atno 10167 bound_to 10162
  156.0004  130.4992  150.5646 H   0  0  0  0  0  0  0  0  0  0  0  0  # atno 10718 bound_to 10713
  154.6644  135.2930  154.9824 H   0  0  0  0  0  0  0  0  0  0  0  0  # atno 10763 bound_to 10752
  154.0873  135.6596  153.4851 H   0  0  0  0  0  0  0  0  0  0  0  0  # atno 10764 bound_to 10752
  153.0449  135.5211  154.7610 H   0  0  0  0  0  0  0  0  0  0  0  0  # atno 10765 bound_to 10752
  140.7360  134.3567  157.5157 H   0  0  0  0  0  0  0  0  0  0  0  0  # atno 11005 bound_to 11000
  145.2487  141.0036  143.3893 LP  0  0  0  0  0  0  0  0  0  0  0  0  # atno 17320 bound_to 7965
  144.9392  139.4208  143.6457 LP  0  0  0  0  0  0  0  0  0  0  0  0  # atno 17321 bound_to 7965
  140.5843  143.9891  150.6286 LP  0  0  0  0  0  0  0  0  0  0  0  0  # atno 17342 bound_to 10162
  140.3050  143.3235  152.0934 LP  0  0  0  0  0  0  0  0  0  0  0  0  # atno 17343 bound_to 10162
  157.3551  131.0740  151.1682 LP  0  0  0  0  0  0  0  0  0  0  0  0  # atno 17370 bound_to 10713
  157.2486  130.6603  149.5921 LP  0  0  0  0  0  0  0  0  0  0  0  0  # atno 17371 bound_to 10713
  139.8816  134.9050  156.2889 LP  0  0  0  0  0  0  0  0  0  0  0  0  # atno 17394 bound_to 11000
  140.9879  133.7227  156.0769 LP  0  0  0  0  0  0  0  0  0  0  0  0  # atno 17395 bound_to 11000

$$$$
