AV-unprocessed.smi:66|AV-procd|sdf|619|dock7
  -GOLD-   2262016513D 1   1.00000     0.00000
 Structure written by MMmdl.
 28 30  0  0  0  0  0  0  0  0  2 V2000
  152.4781  136.5820  158.6081 O   0  0  0  0  0  0  0  0  0  0  0  0
  152.5065  137.0627  157.4542 C   0  0  0  0  0  0  0  0  0  0  0  0
  153.1869  136.6220  156.5008 O   0  5  0  0  0  0  0  0  0  0  0  0
  151.6342  138.2981  157.1990 C   0  0  2  0  0  0  0  0  0  0  0  0
  150.7315  138.1444  155.9602 C   0  0  0  0  0  0  0  0  0  0  0  0
  150.6052  139.5719  155.4436 C   0  0  2  0  0  0  0  0  0  0  0  0
  150.2430  139.6301  154.0801 O   0  0  0  0  0  0  0  0  0  0  0  0
  152.0046  140.1212  155.7013 C   0  0  0  0  0  0  0  0  0  0  0  0
  152.4411  139.4991  156.9496 N   0  0  0  0  0  0  0  0  0  0  0  0
  152.5798  140.2918  158.0399 C   0  0  0  0  0  0  0  0  0  0  0  0
  153.3911  139.9125  159.0645 N   0  0  0  0  0  0  0  0  0  0  0  0
  153.5495  140.7101  160.1258 C   0  0  0  0  0  0  0  0  0  0  0  0
  153.0071  141.9076  160.3612 N   0  0  0  0  0  0  0  0  0  0  0  0
  152.1999  142.2891  159.3319 C   0  0  0  0  0  0  0  0  0  0  0  0
  151.4731  143.4537  159.2037 N   0  0  0  0  0  0  0  0  0  0  0  0
  150.8261  143.3652  157.9949 C   0  0  0  0  0  0  0  0  0  0  0  0
  151.0557  142.2641  157.3316 N   0  0  0  0  0  0  0  0  0  0  0  0
  151.9312  141.5519  158.1449 C   0  0  0  0  0  0  0  0  0  0  0  0
  151.4612  144.1899  159.8943 H   0  0  0  0  0  0  0  0  0  0  0  0
  150.9984  138.4649  158.0715 H   0  0  0  0  0  0  0  0  0  0  0  0
  151.2057  137.5169  155.2029 H   0  0  0  0  0  0  0  0  0  0  0  0
  149.7650  137.7009  156.2008 H   0  0  0  0  0  0  0  0  0  0  0  0
  149.8742  140.1194  156.0405 H   0  0  0  0  0  0  0  0  0  0  0  0
  149.3004  139.6088  154.0207 H   0  0  0  0  0  0  0  0  0  0  0  0
  152.6933  139.7971  154.9195 H   0  0  0  0  0  0  0  0  0  0  0  0
  152.0243  141.2119  155.7075 H   0  0  0  0  0  0  0  0  0  0  0  0
  154.2080  140.3361  160.8957 H   0  0  0  0  0  0  0  0  0  0  0  0
  150.1766  144.1430  157.6210 H   0  0  0  0  0  0  0  0  0  0  0  0
  1  2  2  0  0  0  0
  2  3  1  0  0  0  0
  2  4  1  0  0  0  0
  4  5  1  0  0  0  0
  4 20  1  0  0  0  0
  4  9  1  0  0  0  0
  5  6  1  0  0  0  0
  5 21  1  0  0  0  0
  5 22  1  0  0  0  0
  6  7  1  0  0  0  0
  6  8  1  0  0  0  0
  6 23  1  0  0  0  0
  7 24  1  0  0  0  0
  8 25  1  0  0  0  0
  8 26  1  0  0  0  0
  8  9  1  0  0  0  0
  9 10  1  0  0  0  0
 10 11  1  0  0  0  0
 10 18  2  0  0  0  0
 11 12  2  0  0  0  0
 12 27  1  0  0  0  0
 12 13  1  0  0  0  0
 13 14  2  0  0  0  0
 14 15  1  0  0  0  0
 14 18  1  0  0  0  0
 15 16  1  0  0  0  0
 15 19  1  0  0  0  0
 16 17  2  0  0  0  0
 16 28  1  0  0  0  0
 17 18  1  0  0  0  0
M  CHG  1   3  -1
M  END
> <s_m_source_file>
AV-unprocessed.smi

> <i_m_source_file_index>
66

> <i_lp_mmshare_version>
43012

> <i_f3d_flags>
0

> <s_epik_input>
Tz1DKFtPSF0pW0NAQEhdMVtDSDJdW0NAQEhdKFtPSF0pW0NIMl1OMWMobltjSF1uMiljKGMyMylbbkhdW2NIXW4z

> <s_epik_cmdline>
J2VwaWtfcHl0aG9uJywgJy1waCcsICc3LjAnLCAnLXRuJywgJzgnLCAnLW1hJywgJzIwMCcsICctbWV0YWxfYmluZGluZycsICctaW1hZScsICc8aW5maWxlLm1hZT4nLCAnLW9tYWUnLCAnPG91dGZpbGUubWFlPic=

> <r_lp_tautomer_probability>
0.955585

> <r_epik_Ionization_Penalty>
0.00455415

> <r_epik_Ionization_Penalty_Charging>
0.000248217

> <r_epik_Ionization_Penalty_Neutral>
0.00430593

> <r_epik_State_Penalty>
0.0207074

> <r_epik_Charging_Adjusted_Penalty>
0.0209557

> <i_epik_Tot_Q>
-1

> <i_epik_Tot_abs_Q>
1

> <r_epik_Metal_State_Penalty>
0.337372

> <b_epik_Metal_Only>
0

> <s_lp_Force_Field>
OPLS_2005

> <r_lp_Energy>
28.2566

> <b_lp_Chiralities_Consistent>
1

> <s_lp_Variant>
AV-unprocessed.smi:66-3

> <Gold.Version>
5.8.1

> <Gold.Id.Protein>
6NUR|6NUR_protein|mol2

> <Gold.PLP.Fitness>
40.1971

> <Gold.PLP.PLP>
-24.2420

> <Gold.PLP.part.hbond>
-4.3373

> <Gold.PLP.part.metal>
0.0000

> <Gold.PLP.part.buried>
-4.5910

> <Gold.PLP.part.nonpolar>
-15.9436

> <Gold.PLP.part.repulsive>
0.1019

> <Gold.PLP.ligand.clash>
0.0000

> <Gold.PLP.ligand.torsion>
0.5686

> <Gold.PLP.Chemscore.Hbond>
4.6653

> <Gold.PLP.Chemscore.CHOScore>
1.0000

> <Gold.PLP.Chemscore.Metal>
0.0000

> <Gold.Chemscore.Hbonds>
donor molecule, donor type, donor heavy atom, donor atom, acceptor molecule, acceptor atom, score
      P1  H  6896  6907       L1     1  0.89
      P1  H  7989  7998       L1     7  0.95
      P1  H  7997  8010       L1     9  0.09
      P1  H 10752 10764       L1     3  1.86
      L1  C    16    28       P1  8028  1.00

> <Gold.PLP.Chemscore.Internal.Correction>
0.0966

> <Gold.Rescore>
     Score         DG    S(hbond)    S(metal)    S(lipo)     H(rot)  DE(clash)    DE(int)     intcor
      9.52     -11.18       2.61        0.00      28.45       2.48       0.09       1.58       ----

> <Gold.Chemscore.Fitness>
9.5153

> <Gold.Chemscore.DG>
-11.1845

> <Gold.Chemscore.ZeroCoef>
-5.4800

> <Gold.Chemscore.Hbond>
2.6094

> <Gold.Chemscore.Metal>
0.0000

> <Gold.Chemscore.Lipo>
28.4465

> <Gold.Chemscore.Internal_Hbond>
0.0000

> <Gold.Chemscore.DEClash>
0.0920

> <Gold.Chemscore.DEInternal>
1.5771

> <Gold.Chemscore.Rot>
2.4762

> <Gold.Chemscore.Internal.Correction>
   9.000000E+99

> <Gold.Chemscore.Hbonds>
donor molecule, donor type, donor heavy atom, donor atom, acceptor molecule, acceptor atom, score
      P1  H  6896  6907       L1     1  0.44
      P1  H  7989  7998       L1     7  0.21
      P1  H 10752 10764       L1     3  0.90

> <Gold.Chemscore.Hbond.Weighted>
-8.7153

> <Gold.Chemscore.Metal.Weighted>
-0.0000

> <Gold.Chemscore.Lipo.Weighted>
-3.3282

> <Gold.Chemscore.Internal_Hbond.Weighted>
0.0000

> <Gold.Chemscore.DEClash.Weighted>
0.0920

> <Gold.Chemscore.DEInternal.Weighted>
1.5771

> <Gold.Chemscore.Rot.Weighted>
6.3391

> <Gold.Chemscore.Internal.Correction.Weighted>
   9.000000E+99

> <Gold.Protein.RotatedTorsions>
[ 6907 6896 6895 6894 ] final    1.47 input  -60.11 | X-H torsion
[ 7974 7965 7964 7962 ] final  -43.71 input  175.53 | X-H torsion
[ 8008 7997 7996 7995 ] final   65.27 input   59.86 | X-H torsion
[ 10167 10162 10161 10158 ] final  -16.21 input  -65.29 | X-H torsion
[ 10718 10713 10712 10709 ] final  -79.37 input   66.30 | X-H torsion
[ 10763 10752 10751 10750 ] final   -7.16 input  -60.55 | X-H torsion
[ 11005 11000 10999 10996 ] final  -39.98 input  -57.11 | X-H torsion

> <Gold.Protein.ActiveResidues>
 VAL166  LYS551  ARG553  GLY616  TRP617  ASP618  TYR619  PRO620  LYS621  CYS622 
 ASP623  PHE694  ASN695  SER759  ASP760  ASP761  ALA762  ILE779  LEU786  VAL792 
 PHE793  MET794  SER795  GLU796  ALA797  LYS798  CYS799  TRP800  GLU811  SER814 

> <Gold.Protein.RotatedAtoms>
  151.5932  135.1052  160.0043 H   0  0  0  0  0  0  0  0  0  0  0  0  # atno 6907 bound_to 6896
  152.4296  133.7250  159.6565 H   0  0  0  0  0  0  0  0  0  0  0  0  # atno 6908 bound_to 6896
  150.8187  133.8220  159.3171 H   0  0  0  0  0  0  0  0  0  0  0  0  # atno 6909 bound_to 6896
  145.9992  140.7093  142.9278 H   0  0  0  0  0  0  0  0  0  0  0  0  # atno 7974 bound_to 7965
  155.6592  140.3497  155.4776 H   0  0  0  0  0  0  0  0  0  0  0  0  # atno 8008 bound_to 7997
  155.9783  140.1169  157.0773 H   0  0  0  0  0  0  0  0  0  0  0  0  # atno 8009 bound_to 7997
  154.4184  140.1143  156.5387 H   0  0  0  0  0  0  0  0  0  0  0  0  # atno 8010 bound_to 7997
  140.7230  143.5139  150.9716 H   0  0  0  0  0  0  0  0  0  0  0  0  # atno 10167 bound_to 10162
  156.0094  130.4544  150.3638 H   0  0  0  0  0  0  0  0  0  0  0  0  # atno 10718 bound_to 10713
  153.4225  135.7010  153.6284 H   0  0  0  0  0  0  0  0  0  0  0  0  # atno 10763 bound_to 10752
  153.4733  135.3710  155.2403 H   0  0  0  0  0  0  0  0  0  0  0  0  # atno 10764 bound_to 10752
  154.8722  135.4048  154.3596 H   0  0  0  0  0  0  0  0  0  0  0  0  # atno 10765 bound_to 10752
  141.0142  133.6893  156.2260 H   0  0  0  0  0  0  0  0  0  0  0  0  # atno 11005 bound_to 11000
  144.6914  140.3204  143.7233 LP  0  0  0  0  0  0  0  0  0  0  0  0  # atno 17320 bound_to 7965
  145.7513  139.1794  143.2320 LP  0  0  0  0  0  0  0  0  0  0  0  0  # atno 17321 bound_to 7965
  139.8854  143.7020  152.3152 LP  0  0  0  0  0  0  0  0  0  0  0  0  # atno 17342 bound_to 10162
  139.7317  144.7581  151.0792 LP  0  0  0  0  0  0  0  0  0  0  0  0  # atno 17343 bound_to 10162
  157.1725  131.0372  151.2788 LP  0  0  0  0  0  0  0  0  0  0  0  0  # atno 17370 bound_to 10713
  157.4216  130.7441  149.6918 LP  0  0  0  0  0  0  0  0  0  0  0  0  # atno 17371 bound_to 10713
  140.6683  134.4895  157.5586 LP  0  0  0  0  0  0  0  0  0  0  0  0  # atno 17394 bound_to 11000
  139.9107  134.8351  156.1539 LP  0  0  0  0  0  0  0  0  0  0  0  0  # atno 17395 bound_to 11000

$$$$
