AV-unprocessed.smi:1703|AV-procd|sdf|6877|dock3
  -GOLD-   22720 8 83D 1   1.00000     0.00000
 Structure written by MMmdl.
 50 52  0  0  0  0  0  0  0  0  3 V2000
  147.0023  133.0804  158.9158 C   0  0  0  0  0  0  0  0  0  0  0  0
  147.2994  134.5358  159.2933 C   0  0  2  0  0  0  0  0  0  0  0  0
  148.5612  135.0725  158.5917 C   0  0  0  0  0  0  0  0  0  0  0  0
  148.8559  136.4551  159.0366 N   0  3  2  0  0  0  0  0  0  0  0  0
  150.0269  137.0395  158.3338 C   0  0  0  0  0  0  0  0  0  0  0  0
  149.8537  138.5426  158.0354 C   0  0  2  0  0  0  0  0  0  0  0  0
  148.6924  138.7198  157.2483 O   0  0  0  0  0  0  0  0  0  0  0  0
  151.0590  139.1402  157.2747 C   0  0  0  0  0  0  0  0  0  0  0  0
  150.9341  140.5933  157.0912 N   0  0  0  0  0  0  0  0  0  0  0  0
  150.2596  141.2990  156.1379 C   0  0  0  0  0  0  0  0  0  0  0  0
  149.4587  140.7394  155.0094 C   0  0  0  0  0  0  0  0  0  0  0  0
  150.2686  140.3218  153.9335 O   0  0  0  0  0  0  0  0  0  0  0  0
  150.4551  142.6215  156.3997 N   0  3  0  0  0  0  0  0  0  0  0  0
  151.2560  142.7655  157.5332 C   0  0  0  0  0  0  0  0  0  0  0  0
  151.7203  143.9066  158.1797 C   0  0  0  0  0  0  0  0  0  0  0  0
  152.5252  143.7045  159.3198 C   0  0  0  0  0  0  0  0  0  0  0  0
  152.8371  142.4080  159.7774 C   0  0  0  0  0  0  0  0  0  0  0  0
  152.3592  141.2580  159.1147 C   0  0  0  0  0  0  0  0  0  0  0  0
  151.5665  141.4657  157.9855 C   0  0  0  0  0  0  0  0  0  0  0  0
  148.9585  136.5099  160.5160 C   0  0  0  0  0  0  0  0  0  0  0  0
  147.6862  135.9330  161.1658 C   0  0  2  0  0  0  0  0  0  0  0  0
  147.7820  135.8985  162.6950 C   0  0  0  0  0  0  0  0  0  0  0  0
  147.4905  134.6015  160.7022 O   0  0  0  0  0  0  0  0  0  0  0  0
  146.8374  132.9788  157.8426 H   0  0  0  0  0  0  0  0  0  0  0  0
  146.1073  132.7209  159.4242 H   0  0  0  0  0  0  0  0  0  0  0  0
  147.8276  132.4235  159.1915 H   0  0  0  0  0  0  0  0  0  0  0  0
  146.4377  135.1468  159.0185 H   0  0  0  0  0  0  0  0  0  0  0  0
  149.4173  134.4307  158.8072 H   0  0  0  0  0  0  0  0  0  0  0  0
  148.4125  135.0575  157.5111 H   0  0  0  0  0  0  0  0  0  0  0  0
  150.9227  136.8674  158.9317 H   0  0  0  0  0  0  0  0  0  0  0  0
  150.1866  136.5163  157.3895 H   0  0  0  0  0  0  0  0  0  0  0  0
  149.6988  139.0973  158.9608 H   0  0  0  0  0  0  0  0  0  0  0  0
  148.5636  137.9482  156.7171 H   0  0  0  0  0  0  0  0  0  0  0  0
  152.0059  138.9147  157.7654 H   0  0  0  0  0  0  0  0  0  0  0  0
  151.1453  138.7091  156.2758 H   0  0  0  0  0  0  0  0  0  0  0  0
  148.8658  139.8958  155.3630 H   0  0  0  0  0  0  0  0  0  0  0  0
  148.7588  141.4956  154.6524 H   0  0  0  0  0  0  0  0  0  0  0  0
  149.7467  140.3194  153.1455 H   0  0  0  0  0  0  0  0  0  0  0  0
  151.4821  144.9013  157.8315 H   0  0  0  0  0  0  0  0  0  0  0  0
  152.9116  144.5610  159.8535 H   0  0  0  0  0  0  0  0  0  0  0  0
  153.4579  142.2938  160.6546 H   0  0  0  0  0  0  0  0  0  0  0  0
  152.6104  140.2725  159.4759 H   0  0  0  0  0  0  0  0  0  0  0  0
  149.8347  135.9470  160.8418 H   0  0  0  0  0  0  0  0  0  0  0  0
  149.0984  137.5374  160.8500 H   0  0  0  0  0  0  0  0  0  0  0  0
  146.8230  136.5400  160.8872 H   0  0  0  0  0  0  0  0  0  0  0  0
  147.9191  136.9002  163.1030 H   0  0  0  0  0  0  0  0  0  0  0  0
  148.6196  135.2834  163.0254 H   0  0  0  0  0  0  0  0  0  0  0  0
  146.8730  135.4848  163.1323 H   0  0  0  0  0  0  0  0  0  0  0  0
  148.0560  137.0134  158.7724 H   0  0  0  0  0  0  0  0  0  0  0  0
  150.0693  143.3700  155.8380 H   0  0  0  0  0  0  0  0  0  0  0  0
  1  2  1  0  0  0  0
  1 24  1  0  0  0  0
  1 25  1  0  0  0  0
  1 26  1  0  0  0  0
  2 23  1  0  0  0  0
  2  3  1  0  0  0  0
  2 27  1  0  0  0  0
  3  4  1  0  0  0  0
  3 28  1  0  0  0  0
  3 29  1  0  0  0  0
  4  5  1  0  0  0  0
  4 20  1  0  0  0  0
  4 49  1  0  0  0  0
  5  6  1  0  0  0  0
  5 30  1  0  0  0  0
  5 31  1  0  0  0  0
  6  7  1  0  0  0  0
  6  8  1  0  0  0  0
  6 32  1  0  0  0  0
  7 33  1  0  0  0  0
  8  9  1  0  0  0  0
  8 34  1  0  0  0  0
  8 35  1  0  0  0  0
  9 19  1  0  0  0  0
  9 10  1  0  0  0  0
 10 11  1  0  0  0  0
 10 13  2  0  0  0  0
 11 12  1  0  0  0  0
 11 36  1  0  0  0  0
 11 37  1  0  0  0  0
 12 38  1  0  0  0  0
 13 14  1  0  0  0  0
 13 50  1  0  0  0  0
 14 19  2  0  0  0  0
 14 15  1  0  0  0  0
 15 16  2  0  0  0  0
 15 39  1  0  0  0  0
 16 17  1  0  0  0  0
 16 40  1  0  0  0  0
 17 18  2  0  0  0  0
 17 41  1  0  0  0  0
 18 19  1  0  0  0  0
 18 42  1  0  0  0  0
 20 21  1  0  0  0  0
 20 43  1  0  0  0  0
 20 44  1  0  0  0  0
 21 22  1  0  0  0  0
 21 23  1  0  0  0  0
 21 45  1  0  0  0  0
 22 46  1  0  0  0  0
 22 47  1  0  0  0  0
 22 48  1  0  0  0  0
M  CHG  1   4   1
M  CHG  1  13   1
M  END
> <s_m_source_file>
AV-unprocessed.smi

> <i_m_source_file_index>
1703

> <i_lp_mmshare_version>
43012

> <i_f3d_flags>
0

> <s_epik_input>
W0NIM11bQ0BASF0xW0NIMl1OKFtDSDJdW0NASF0oTzEpW0NIM10pW0NIMl1bQ0BIXShbT0hdKVtDSDJdbihjKG4yKVtDSDJdW09IXSljKGMyMylbY0hdW2NIXVtjSF1bY0hdMw==

> <s_epik_cmdline>
J2VwaWtfcHl0aG9uJywgJy1waCcsICc3LjAnLCAnLXRuJywgJzgnLCAnLW1hJywgJzIwMCcsICctbWV0YWxfYmluZGluZycsICctaW1hZScsICc8aW5maWxlLm1hZT4nLCAnLW9tYWUnLCAnPG91dGZpbGUubWFlPic=

> <r_epik_Ionization_Penalty>
2.22579

> <r_epik_Ionization_Penalty_Charging>
2.22492

> <r_epik_Ionization_Penalty_Neutral>
0.000870007

> <r_epik_State_Penalty>
2.3141

> <r_epik_Charging_Adjusted_Penalty>
4.53902

> <i_epik_Tot_Q>
2

> <i_epik_Tot_abs_Q>
2

> <r_epik_Metal_State_Penalty>
6.36517

> <b_epik_Metal_Only>
0

> <s_lp_Force_Field>
OPLS_2005

> <r_lp_Energy>
31.942

> <b_lp_Chiralities_Consistent>
1

> <s_lp_Variant>
AV-unprocessed.smi:1703-25

> <Gold.Version>
5.8.1

> <Gold.Id.Protein>
6NUR|6NUR_protein|mol2

> <Gold.PLP.Fitness>
51.7118

> <Gold.PLP.PLP>
-42.3392

> <Gold.PLP.part.hbond>
-2.6812

> <Gold.PLP.part.metal>
0.0000

> <Gold.PLP.part.buried>
-4.6529

> <Gold.PLP.part.nonpolar>
-36.1736

> <Gold.PLP.part.repulsive>
0.2450

> <Gold.PLP.ligand.clash>
0.0000

> <Gold.PLP.ligand.torsion>
1.0698

> <Gold.PLP.Chemscore.Hbond>
3.8073

> <Gold.PLP.Chemscore.CHOScore>
0.0000

> <Gold.PLP.Chemscore.Metal>
0.0000

> <Gold.Chemscore.Hbonds>
donor molecule, donor type, donor heavy atom, donor atom, acceptor molecule, acceptor atom, score
      L1  H    12    38       P1  7957  0.98
      L1  H    13    50       P1  8028  1.98
      P1  H  7989  7998       L1    12  0.83

> <Gold.PLP.Chemscore.Internal.Correction>
0.0904

> <Gold.Rescore>
     Score         DG    S(hbond)    S(metal)    S(lipo)     H(rot)  DE(clash)    DE(int)     intcor
     17.10     -18.32       2.42        0.00     107.16       3.04       0.03       1.19       ----

> <Gold.Chemscore.Fitness>
17.0968

> <Gold.Chemscore.DG>
-18.3187

> <Gold.Chemscore.ZeroCoef>
-5.4800

> <Gold.Chemscore.Hbond>
2.4184

> <Gold.Chemscore.Metal>
0.0000

> <Gold.Chemscore.Lipo>
107.1620

> <Gold.Chemscore.Internal_Hbond>
0.0000

> <Gold.Chemscore.DEClash>
0.0272

> <Gold.Chemscore.DEInternal>
1.1947

> <Gold.Chemscore.Rot>
3.0378

> <Gold.Chemscore.Internal.Correction>
   9.000000E+99

> <Gold.Chemscore.Hbonds>
donor molecule, donor type, donor heavy atom, donor atom, acceptor molecule, acceptor atom, score
      L1  H    12    38       P1  7957  0.89
      L1  H    13    50       P1  8028  0.94
      P1  H  7989  7998       L1    12  0.31

> <Gold.Chemscore.Hbond.Weighted>
-8.0774

> <Gold.Chemscore.Metal.Weighted>
-0.0000

> <Gold.Chemscore.Lipo.Weighted>
-12.5380

> <Gold.Chemscore.Internal_Hbond.Weighted>
0.0000

> <Gold.Chemscore.DEClash.Weighted>
0.0272

> <Gold.Chemscore.DEInternal.Weighted>
1.1947

> <Gold.Chemscore.Rot.Weighted>
7.7767

> <Gold.Chemscore.Internal.Correction.Weighted>
   9.000000E+99

> <Gold.Protein.RotatedTorsions>
[ 6907 6896 6895 6894 ] final -118.22 input  -60.11 | X-H torsion
[ 7974 7965 7964 7962 ] final -115.24 input  175.53 | X-H torsion
[ 8008 7997 7996 7995 ] final  -48.38 input   59.86 | X-H torsion
[ 10167 10162 10161 10158 ] final  -43.97 input  -65.29 | X-H torsion
[ 10718 10713 10712 10709 ] final  -88.77 input   66.30 | X-H torsion
[ 10763 10752 10751 10750 ] final  137.90 input  -60.55 | X-H torsion
[ 11005 11000 10999 10996 ] final  116.01 input  -57.11 | X-H torsion

> <Gold.Protein.ActiveResidues>
 VAL166  LYS551  ARG553  GLY616  TRP617  ASP618  TYR619  PRO620  LYS621  CYS622 
 ASP623  PHE694  ASN695  SER759  ASP760  ASP761  ALA762  ILE779  LEU786  VAL792 
 PHE793  MET794  SER795  GLU796  ALA797  LYS798  CYS799  TRP800  GLU811  SER814 

> <Gold.Protein.RotatedAtoms>
  150.8201  133.8267  159.3142 H   0  0  0  0  0  0  0  0  0  0  0  0  # atno 6907 bound_to 6896
  151.6028  135.1044  160.0073 H   0  0  0  0  0  0  0  0  0  0  0  0  # atno 6908 bound_to 6896
  152.4291  133.7205  159.6587 H   0  0  0  0  0  0  0  0  0  0  0  0  # atno 6909 bound_to 6896
  145.1108  140.8610  143.3871 H   0  0  0  0  0  0  0  0  0  0  0  0  # atno 7974 bound_to 7965
  154.4028  140.1323  156.4330 H   0  0  0  0  0  0  0  0  0  0  0  0  # atno 8008 bound_to 7997
  155.7533  140.3487  155.5141 H   0  0  0  0  0  0  0  0  0  0  0  0  # atno 8009 bound_to 7997
  155.8929  140.1006  157.1396 H   0  0  0  0  0  0  0  0  0  0  0  0  # atno 8010 bound_to 7997
  140.6914  143.2955  151.3428 H   0  0  0  0  0  0  0  0  0  0  0  0  # atno 10167 bound_to 10162
  155.9983  130.4848  150.5070 H   0  0  0  0  0  0  0  0  0  0  0  0  # atno 10718 bound_to 10713
  153.8807  135.3044  155.3445 H   0  0  0  0  0  0  0  0  0  0  0  0  # atno 10763 bound_to 10752
  154.7762  135.4860  153.9753 H   0  0  0  0  0  0  0  0  0  0  0  0  # atno 10764 bound_to 10752
  153.1353  135.6812  153.9210 H   0  0  0  0  0  0  0  0  0  0  0  0  # atno 10765 bound_to 10752
  139.9028  134.9592  156.7133 H   0  0  0  0  0  0  0  0  0  0  0  0  # atno 11005 bound_to 11000
  145.0850  139.2932  143.5764 LP  0  0  0  0  0  0  0  0  0  0  0  0  # atno 17320 bound_to 7965
  146.3526  140.0368  142.8646 LP  0  0  0  0  0  0  0  0  0  0  0  0  # atno 17321 bound_to 7965
  139.6322  144.0700  152.2485 LP  0  0  0  0  0  0  0  0  0  0  0  0  # atno 17342 bound_to 10162
  140.0178  144.6176  150.7592 LP  0  0  0  0  0  0  0  0  0  0  0  0  # atno 17343 bound_to 10162
  157.3048  131.0652  151.2043 LP  0  0  0  0  0  0  0  0  0  0  0  0  # atno 17370 bound_to 10713
  157.3010  130.6842  149.6164 LP  0  0  0  0  0  0  0  0  0  0  0  0  # atno 17371 bound_to 10713
  140.7059  133.9266  155.8053 LP  0  0  0  0  0  0  0  0  0  0  0  0  # atno 17394 bound_to 11000
  141.0337  134.0720  157.3984 LP  0  0  0  0  0  0  0  0  0  0  0  0  # atno 17395 bound_to 11000

$$$$
