AV-unprocessed.smi:1345|AV-procd|sdf|5510|dock10
  -GOLD-   22720 5 93D 1   1.00000     0.00000
 Structure written by MMmdl.
 40 41  0  0  0  0  0  0  0  0  1 V2000
  151.7229  143.5317  159.3896 C   0  0  0  0  0  0  0  0  0  0  0  0
  152.0485  142.0747  159.0134 C   0  0  0  0  0  0  0  0  0  0  0  0
  153.5343  141.7904  159.3082 C   0  0  0  0  0  0  0  0  0  0  0  0
  151.6661  141.7409  157.5464 C   0  0  2  0  0  0  0  0  0  0  0  0
  150.1876  142.0287  157.2216 C   0  0  0  0  0  0  0  0  0  0  0  0
  151.9457  140.3338  157.2606 N   0  0  0  0  0  0  0  0  0  0  0  0
  151.7164  139.7092  156.0942 C   0  0  0  0  0  0  0  0  0  0  0  0
  151.2287  140.2725  155.1129 O   0  0  0  0  0  0  0  0  0  0  0  0
  152.1061  138.2260  156.0469 C   0  0  0  0  0  0  0  0  0  0  0  0
  150.9101  137.3275  155.8928 C   0  0  0  0  0  0  0  0  0  0  0  0
  149.5930  137.7106  155.8112 C   0  0  0  0  0  0  0  0  0  0  0  0
  148.5240  136.3449  155.6421 S   0  0  0  0  0  0  0  0  0  0  0  0
  149.9278  135.2811  155.7011 C   0  0  0  0  0  0  0  0  0  0  0  0
  149.8384  133.8593  155.6202 N   0  0  0  0  0  0  0  0  0  0  0  0
  148.9882  133.2115  154.6286 C   0  0  0  0  0  0  0  0  0  0  0  0
  149.1805  131.7220  154.8979 C   0  0  0  0  0  0  0  0  0  0  0  0
  150.1173  131.7298  155.9968 N   0  0  0  0  0  0  0  0  0  0  0  0
  150.4760  132.9536  156.3914 C   0  0  0  0  0  0  0  0  0  0  0  0
  151.2615  133.1778  157.3113 O   0  0  0  0  0  0  0  0  0  0  0  0
  151.0846  135.9410  155.8342 N   0  0  0  0  0  0  0  0  0  0  0  0
  152.2194  144.2346  158.7199 H   0  0  0  0  0  0  0  0  0  0  0  0
  152.0481  143.7568  160.4058 H   0  0  0  0  0  0  0  0  0  0  0  0
  150.6523  143.7305  159.3525 H   0  0  0  0  0  0  0  0  0  0  0  0
  151.4612  141.4314  159.6704 H   0  0  0  0  0  0  0  0  0  0  0  0
  154.1843  142.3749  158.6561 H   0  0  0  0  0  0  0  0  0  0  0  0
  153.7839  140.7381  159.1716 H   0  0  0  0  0  0  0  0  0  0  0  0
  153.7863  142.0437  160.3384 H   0  0  0  0  0  0  0  0  0  0  0  0
  152.2843  142.3601  156.8934 H   0  0  0  0  0  0  0  0  0  0  0  0
  149.9573  143.0911  157.2937 H   0  0  0  0  0  0  0  0  0  0  0  0
  149.5209  141.4930  157.8983 H   0  0  0  0  0  0  0  0  0  0  0  0
  149.9406  141.7241  156.2042 H   0  0  0  0  0  0  0  0  0  0  0  0
  152.3524  139.7940  158.0108 H   0  0  0  0  0  0  0  0  0  0  0  0
  152.8064  138.0814  155.2230 H   0  0  0  0  0  0  0  0  0  0  0  0
  152.6473  137.9708  156.9590 H   0  0  0  0  0  0  0  0  0  0  0  0
  149.1889  138.7118  155.8348 H   0  0  0  0  0  0  0  0  0  0  0  0
  147.9465  133.5080  154.7593 H   0  0  0  0  0  0  0  0  0  0  0  0
  149.3040  133.4771  153.6186 H   0  0  0  0  0  0  0  0  0  0  0  0
  148.2499  131.2348  155.1909 H   0  0  0  0  0  0  0  0  0  0  0  0
  149.6009  131.1998  154.0377 H   0  0  0  0  0  0  0  0  0  0  0  0
  150.4629  130.8803  156.4194 H   0  0  0  0  0  0  0  0  0  0  0  0
  1  2  1  0  0  0  0
  1 21  1  0  0  0  0
  1 22  1  0  0  0  0
  1 23  1  0  0  0  0
  2  3  1  0  0  0  0
  2  4  1  0  0  0  0
  2 24  1  0  0  0  0
  3 25  1  0  0  0  0
  3 26  1  0  0  0  0
  3 27  1  0  0  0  0
  4  5  1  0  0  0  0
  4  6  1  0  0  0  0
  4 28  1  0  0  0  0
  5 29  1  0  0  0  0
  5 30  1  0  0  0  0
  5 31  1  0  0  0  0
  6  7  1  0  0  0  0
  6 32  1  0  0  0  0
  7  8  2  0  0  0  0
  7  9  1  0  0  0  0
  9 10  1  0  0  0  0
  9 33  1  0  0  0  0
  9 34  1  0  0  0  0
 10 20  1  0  0  0  0
 10 11  2  0  0  0  0
 11 12  1  0  0  0  0
 11 35  1  0  0  0  0
 12 13  1  0  0  0  0
 13 14  1  0  0  0  0
 13 20  2  0  0  0  0
 14 18  1  0  0  0  0
 14 15  1  0  0  0  0
 15 16  1  0  0  0  0
 15 36  1  0  0  0  0
 15 37  1  0  0  0  0
 16 17  1  0  0  0  0
 16 38  1  0  0  0  0
 16 39  1  0  0  0  0
 17 18  1  0  0  0  0
 17 40  1  0  0  0  0
 18 19  2  0  0  0  0
M  END
> <s_m_source_file>
AV-unprocessed.smi

> <i_m_source_file_index>
1345

> <i_lp_mmshare_version>
43012

> <i_f3d_flags>
0

> <s_epik_input>
W0NIM11bQ0hdKFtDSDNdKVtDQEhdKFtDSDNdKVtOSF1DKD1PKVtDSDJdYzFbY0hdc2MobjEpTjJbQ0gyXVtDSDJdW05IXUMyPU8=

> <s_epik_cmdline>
J2VwaWtfcHl0aG9uJywgJy1waCcsICc3LjAnLCAnLXRuJywgJzgnLCAnLW1hJywgJzIwMCcsICctbWV0YWxfYmluZGluZycsICctaW1hZScsICc8aW5maWxlLm1hZT4nLCAnLW9tYWUnLCAnPG91dGZpbGUubWFlPic=

> <r_lp_tautomer_probability>
1

> <r_epik_Ionization_Penalty>
0.000122034

> <r_epik_Ionization_Penalty_Charging>
0

> <r_epik_Ionization_Penalty_Neutral>
0.000122034

> <r_epik_State_Penalty>
-0

> <r_epik_Charging_Adjusted_Penalty>
0

> <i_epik_Tot_Q>
0

> <i_epik_Tot_abs_Q>
0

> <r_epik_Metal_State_Penalty>
-0

> <b_epik_Metal_Only>
0

> <s_lp_Force_Field>
OPLS_2005

> <r_lp_Energy>
36.09

> <b_lp_Chiralities_Consistent>
1

> <s_lp_Variant>
AV-unprocessed.smi:1345-1

> <Gold.Version>
5.8.1

> <Gold.Id.Protein>
6NUR|6NUR_protein|mol2

> <Gold.PLP.Fitness>
40.3283

> <Gold.PLP.PLP>
-33.0897

> <Gold.PLP.part.hbond>
-3.0000

> <Gold.PLP.part.metal>
0.0000

> <Gold.PLP.part.buried>
-5.5898

> <Gold.PLP.part.nonpolar>
-25.1416

> <Gold.PLP.part.repulsive>
0.2484

> <Gold.PLP.ligand.clash>
0.0000

> <Gold.PLP.ligand.torsion>
0.8120

> <Gold.PLP.Chemscore.Hbond>
2.9440

> <Gold.PLP.Chemscore.CHOScore>
0.0000

> <Gold.PLP.Chemscore.Metal>
0.0000

> <Gold.Chemscore.Hbonds>
donor molecule, donor type, donor heavy atom, donor atom, acceptor molecule, acceptor atom, score
      P1  H  6896  6907       L1    19  0.82
      P1  H  7989  7998       L1     8  1.00
      P1  H 10752 10765       L1    20  0.57

> <Gold.PLP.Chemscore.Internal.Correction>
0.0306

> <Gold.Rescore>
     Score         DG    S(hbond)    S(metal)    S(lipo)     H(rot)  DE(clash)    DE(int)     intcor
     16.28     -17.07       2.50        0.00      65.58       1.74       0.00       0.78       ----

> <Gold.Chemscore.Fitness>
16.2833

> <Gold.Chemscore.DG>
-17.0718

> <Gold.Chemscore.ZeroCoef>
-5.4800

> <Gold.Chemscore.Hbond>
2.5033

> <Gold.Chemscore.Metal>
0.0000

> <Gold.Chemscore.Lipo>
65.5819

> <Gold.Chemscore.Internal_Hbond>
0.0000

> <Gold.Chemscore.DEClash>
0.0038

> <Gold.Chemscore.DEInternal>
0.7847

> <Gold.Chemscore.Rot>
1.7353

> <Gold.Chemscore.Internal.Correction>
   9.000000E+99

> <Gold.Chemscore.Hbonds>
donor molecule, donor type, donor heavy atom, donor atom, acceptor molecule, acceptor atom, score
      P1  H  6896  6907       L1    19  0.81
      P1  H  7989  7998       L1     8  0.98
      P1  H 10752 10765       L1    20  0.37

> <Gold.Chemscore.Hbond.Weighted>
-8.3610

> <Gold.Chemscore.Metal.Weighted>
-0.0000

> <Gold.Chemscore.Lipo.Weighted>
-7.6731

> <Gold.Chemscore.Internal_Hbond.Weighted>
0.0000

> <Gold.Chemscore.DEClash.Weighted>
0.0038

> <Gold.Chemscore.DEInternal.Weighted>
0.7847

> <Gold.Chemscore.Rot.Weighted>
4.4423

> <Gold.Chemscore.Internal.Correction.Weighted>
   9.000000E+99

> <Gold.Protein.RotatedTorsions>
[ 6907 6896 6895 6894 ] final -159.80 input  -60.11 | X-H torsion
[ 7974 7965 7964 7962 ] final -116.16 input  175.53 | X-H torsion
[ 8008 7997 7996 7995 ] final   41.67 input   59.86 | X-H torsion
[ 10167 10162 10161 10158 ] final  136.40 input  -65.29 | X-H torsion
[ 10718 10713 10712 10709 ] final  175.45 input   66.30 | X-H torsion
[ 10763 10752 10751 10750 ] final -165.49 input  -60.55 | X-H torsion
[ 11005 11000 10999 10996 ] final -172.85 input  -57.11 | X-H torsion

> <Gold.Protein.ActiveResidues>
 VAL166  LYS551  ARG553  GLY616  TRP617  ASP618  TYR619  PRO620  LYS621  CYS622 
 ASP623  PHE694  ASN695  SER759  ASP760  ASP761  ALA762  ILE779  LEU786  VAL792 
 PHE793  MET794  SER795  GLU796  ALA797  LYS798  CYS799  TRP800  GLU811  SER814 

> <Gold.Protein.RotatedAtoms>
  151.3393  133.3969  159.2669 H   0  0  0  0  0  0  0  0  0  0  0  0  # atno 6907 bound_to 6896
  150.9891  134.9231  159.7900 H   0  0  0  0  0  0  0  0  0  0  0  0  # atno 6908 bound_to 6896
  152.5241  134.3357  159.9251 H   0  0  0  0  0  0  0  0  0  0  0  0  # atno 6909 bound_to 6896
  145.1000  140.8545  143.3932 H   0  0  0  0  0  0  0  0  0  0  0  0  # atno 7974 bound_to 7965
  155.2735  140.3367  155.4263 H   0  0  0  0  0  0  0  0  0  0  0  0  # atno 8008 bound_to 7997
  156.2122  140.1774  156.7711 H   0  0  0  0  0  0  0  0  0  0  0  0  # atno 8009 bound_to 7997
  154.5702  140.0671  156.8937 H   0  0  0  0  0  0  0  0  0  0  0  0  # atno 8010 bound_to 7997
  139.5181  144.6466  151.5421 H   0  0  0  0  0  0  0  0  0  0  0  0  # atno 10167 bound_to 10162
  156.9346  130.9982  151.2980 H   0  0  0  0  0  0  0  0  0  0  0  0  # atno 10718 bound_to 10713
  154.6927  135.2973  154.9457 H   0  0  0  0  0  0  0  0  0  0  0  0  # atno 10763 bound_to 10752
  154.0415  135.6657  153.4794 H   0  0  0  0  0  0  0  0  0  0  0  0  # atno 10764 bound_to 10752
  153.0623  135.5108  154.8028 H   0  0  0  0  0  0  0  0  0  0  0  0  # atno 10765 bound_to 10752
  140.4923  134.5973  157.4959 H   0  0  0  0  0  0  0  0  0  0  0  0  # atno 11005 bound_to 11000
  145.0967  139.2851  143.5707 LP  0  0  0  0  0  0  0  0  0  0  0  0  # atno 17320 bound_to 7965
  146.3530  140.0521  142.8635 LP  0  0  0  0  0  0  0  0  0  0  0  0  # atno 17321 bound_to 7965
  140.6254  143.9179  150.6560 LP  0  0  0  0  0  0  0  0  0  0  0  0  # atno 17342 bound_to 10162
  140.2466  143.3624  152.1442 LP  0  0  0  0  0  0  0  0  0  0  0  0  # atno 17343 bound_to 10162
  157.5824  130.8386  149.8542 LP  0  0  0  0  0  0  0  0  0  0  0  0  # atno 17370 bound_to 10713
  156.0431  130.3734  150.1384 LP  0  0  0  0  0  0  0  0  0  0  0  0  # atno 17371 bound_to 10713
  139.9762  134.7212  155.9946 LP  0  0  0  0  0  0  0  0  0  0  0  0  # atno 17394 bound_to 11000
  141.1478  133.6553  156.3920 LP  0  0  0  0  0  0  0  0  0  0  0  0  # atno 17395 bound_to 11000

$$$$
