AV-unprocessed.smi:177|AV-procd|sdf|1437|dock8
  -GOLD-   2262019223D 1   1.00000     0.00000
 Structure written by MMmdl.
 61 65  0  0  0  0  0  0  0  0  1 V2000
  154.9250  137.2664  159.1394 C   0  0  0  0  0  0  0  0  0  0  0  0
  154.9350  138.1236  160.2704 O   0  0  0  0  0  0  0  0  0  0  0  0
  154.7397  139.4996  159.9675 C   0  0  2  0  0  0  0  0  0  0  0  0
  154.8493  140.2784  161.2898 C   0  0  0  0  0  0  0  0  0  0  0  0
  154.5652  141.7737  161.0856 C   0  0  0  0  0  0  0  0  0  0  0  0
  153.1891  141.9794  160.4360 C   0  0  1  0  0  0  0  0  0  0  0  0
  152.9647  143.3714  160.2461 O   0  0  0  0  0  0  0  0  0  0  0  0
  151.6597  143.6256  159.7406 C   0  0  0  0  0  0  0  0  0  0  0  0
  151.5038  142.9533  158.3681 C   0  0  0  0  0  0  0  0  0  0  0  0
  151.8063  141.5269  158.4498 N   0  0  0  0  0  0  0  0  0  0  0  0
  151.5297  140.9257  157.2669 C   0  0  0  0  0  0  0  0  0  0  0  0
  152.5158  140.3158  156.5560 N   0  0  0  0  0  0  0  0  0  0  0  0
  152.2378  139.7406  155.3822 C   0  0  0  0  0  0  0  0  0  0  0  0
  151.0687  139.6722  154.7417 N   0  0  0  0  0  0  0  0  0  0  0  0
  150.0815  140.2998  155.4438 C   0  0  0  0  0  0  0  0  0  0  0  0
  150.2257  140.9451  156.7037 C   0  0  0  0  0  0  0  0  0  0  0  0
  149.0057  141.4648  157.1160 N   0  0  0  0  0  0  0  0  0  0  0  0
  148.1844  141.1424  156.1540 C   0  0  0  0  0  0  0  0  0  0  0  0
  148.7487  140.4556  155.1016 N   0  0  0  0  0  0  0  0  0  0  0  0
  148.0647  139.9669  153.9122 C   0  0  0  0  0  0  0  0  0  0  0  0
  147.2320  138.6599  154.0946 C   0  0  0  0  0  0  0  0  0  0  0  0
  146.6540  138.2776  152.7015 C   0  0  0  0  0  0  0  0  0  0  0  0
  147.6604  137.9018  151.7820 O   0  0  0  0  0  0  0  0  0  0  0  0
  148.0929  137.5112  154.6831 C   0  0  0  0  0  0  0  0  0  0  0  0
  147.2547  136.2734  155.0520 C   0  0  0  0  0  0  0  0  0  0  0  0
  146.2405  136.6359  155.9810 O   0  0  0  0  0  0  0  0  0  0  0  0
  145.3243  137.5910  155.4603 C   0  0  0  0  0  0  0  0  0  0  0  0
  146.0673  138.8895  155.0928 C   0  0  0  0  0  0  0  0  0  0  0  0
  153.1050  141.2470  159.0759 C   0  0  2  0  0  0  0  0  0  0  0  0
  153.3665  139.7369  159.3014 C   0  0  0  0  0  0  0  0  0  0  0  0
  155.1401  136.2465  159.4575 H   0  0  0  0  0  0  0  0  0  0  0  0
  155.6879  137.5563  158.4161 H   0  0  0  0  0  0  0  0  0  0  0  0
  153.9556  137.2586  158.6419 H   0  0  0  0  0  0  0  0  0  0  0  0
  155.5334  139.8464  159.3031 H   0  0  0  0  0  0  0  0  0  0  0  0
  154.1430  139.8717  162.0148 H   0  0  0  0  0  0  0  0  0  0  0  0
  155.8429  140.1456  161.7193 H   0  0  0  0  0  0  0  0  0  0  0  0
  154.6070  142.2930  162.0433 H   0  0  0  0  0  0  0  0  0  0  0  0
  155.3411  142.2143  160.4583 H   0  0  0  0  0  0  0  0  0  0  0  0
  152.4265  141.5898  161.1140 H   0  0  0  0  0  0  0  0  0  0  0  0
  150.9051  143.2628  160.4403 H   0  0  0  0  0  0  0  0  0  0  0  0
  151.5175  144.7025  159.6500 H   0  0  0  0  0  0  0  0  0  0  0  0
  150.4871  143.1062  158.0036 H   0  0  0  0  0  0  0  0  0  0  0  0
  152.1756  143.4234  157.6480 H   0  0  0  0  0  0  0  0  0  0  0  0
  153.0726  139.2694  154.8844 H   0  0  0  0  0  0  0  0  0  0  0  0
  147.1362  141.4025  156.1830 H   0  0  0  0  0  0  0  0  0  0  0  0
  147.4190  140.7679  153.5491 H   0  0  0  0  0  0  0  0  0  0  0  0
  148.8228  139.8265  153.1410 H   0  0  0  0  0  0  0  0  0  0  0  0
  145.9452  137.4539  152.7602 H   0  0  0  0  0  0  0  0  0  0  0  0
  146.1052  139.1191  152.2774 H   0  0  0  0  0  0  0  0  0  0  0  0
  148.2916  137.3614  152.2321 H   0  0  0  0  0  0  0  0  0  0  0  0
  148.8901  137.2313  153.9940 H   0  0  0  0  0  0  0  0  0  0  0  0
  148.5884  137.8441  155.5943 H   0  0  0  0  0  0  0  0  0  0  0  0
  146.8134  135.8068  154.1710 H   0  0  0  0  0  0  0  0  0  0  0  0
  147.8925  135.5200  155.5144 H   0  0  0  0  0  0  0  0  0  0  0  0
  144.7867  137.1740  154.6089 H   0  0  0  0  0  0  0  0  0  0  0  0
  144.5746  137.8008  156.2233 H   0  0  0  0  0  0  0  0  0  0  0  0
  146.4475  139.3078  156.0241 H   0  0  0  0  0  0  0  0  0  0  0  0
  145.3646  139.6227  154.6955 H   0  0  0  0  0  0  0  0  0  0  0  0
  153.8858  141.6450  158.4255 H   0  0  0  0  0  0  0  0  0  0  0  0
  153.3265  139.1984  158.3563 H   0  0  0  0  0  0  0  0  0  0  0  0
  152.5778  139.3161  159.9267 H   0  0  0  0  0  0  0  0  0  0  0  0
  1  2  1  0  0  0  0
  1 31  1  0  0  0  0
  1 32  1  0  0  0  0
  1 33  1  0  0  0  0
  2  3  1  0  0  0  0
  3 30  1  0  0  0  0
  3  4  1  0  0  0  0
  3 34  1  0  0  0  0
  4  5  1  0  0  0  0
  4 35  1  0  0  0  0
  4 36  1  0  0  0  0
  5  6  1  0  0  0  0
  5 37  1  0  0  0  0
  5 38  1  0  0  0  0
  6 29  1  0  0  0  0
  6  7  1  0  0  0  0
  6 39  1  0  0  0  0
  7  8  1  0  0  0  0
  8  9  1  0  0  0  0
  8 40  1  0  0  0  0
  8 41  1  0  0  0  0
  9 10  1  0  0  0  0
  9 42  1  0  0  0  0
  9 43  1  0  0  0  0
 10 11  1  0  0  0  0
 10 29  1  0  0  0  0
 11 16  1  0  0  0  0
 11 12  2  0  0  0  0
 12 13  1  0  0  0  0
 13 14  2  0  0  0  0
 13 44  1  0  0  0  0
 14 15  1  0  0  0  0
 15 19  1  0  0  0  0
 15 16  2  0  0  0  0
 16 17  1  0  0  0  0
 17 18  2  0  0  0  0
 18 19  1  0  0  0  0
 18 45  1  0  0  0  0
 19 20  1  0  0  0  0
 20 21  1  0  0  0  0
 20 46  1  0  0  0  0
 20 47  1  0  0  0  0
 21 28  1  0  0  0  0
 21 22  1  0  0  0  0
 21 24  1  0  0  0  0
 22 23  1  0  0  0  0
 22 48  1  0  0  0  0
 22 49  1  0  0  0  0
 23 50  1  0  0  0  0
 24 25  1  0  0  0  0
 24 51  1  0  0  0  0
 24 52  1  0  0  0  0
 25 26  1  0  0  0  0
 25 53  1  0  0  0  0
 25 54  1  0  0  0  0
 26 27  1  0  0  0  0
 27 28  1  0  0  0  0
 27 55  1  0  0  0  0
 27 56  1  0  0  0  0
 28 57  1  0  0  0  0
 28 58  1  0  0  0  0
 29 30  1  0  0  0  0
 29 59  1  0  0  0  0
 30 60  1  0  0  0  0
 30 61  1  0  0  0  0
M  END
> <s_m_source_file>
AV-unprocessed.smi

> <i_m_source_file_index>
177

> <i_lp_mmshare_version>
43012

> <i_f3d_flags>
0

> <s_epik_input>
W0NIM11PW0NASF0oW0NIMl1bQ0gyXTEpW0NIMl1bQ0BIXShbQ0BASF0xMilOKFtDSDJdW0NIMl1PMiljKG5bY0hdbjMpYyhjMzQpbltjSF1uNFtDSDJdQzUoW0NIMl1bT0hdKVtDSDJdW0NIMl1PW0NIMl1bQ0gyXTU=

> <s_epik_cmdline>
J2VwaWtfcHl0aG9uJywgJy1waCcsICc3LjAnLCAnLXRuJywgJzgnLCAnLW1hJywgJzIwMCcsICctbWV0YWxfYmluZGluZycsICctaW1hZScsICc8aW5maWxlLm1hZT4nLCAnLW9tYWUnLCAnPG91dGZpbGUubWFlPic=

> <r_lp_tautomer_probability>
1

> <r_epik_Ionization_Penalty>
0.0065899

> <r_epik_Ionization_Penalty_Charging>
0

> <r_epik_Ionization_Penalty_Neutral>
0.0065899

> <r_epik_State_Penalty>
0.00470042

> <r_epik_Charging_Adjusted_Penalty>
0.00470042

> <i_epik_Tot_Q>
0

> <i_epik_Tot_abs_Q>
0

> <r_epik_Metal_State_Penalty>
-0

> <b_epik_Metal_Only>
0

> <s_lp_Force_Field>
OPLS_2005

> <r_lp_Energy>
44.8058

> <b_lp_Chiralities_Consistent>
1

> <s_lp_Variant>
AV-unprocessed.smi:177-1

> <Gold.Version>
5.8.1

> <Gold.Id.Protein>
6NUR|6NUR_protein|mol2

> <Gold.PLP.Fitness>
55.7432

> <Gold.PLP.PLP>
-45.6578

> <Gold.PLP.part.hbond>
-4.8862

> <Gold.PLP.part.metal>
0.0000

> <Gold.PLP.part.buried>
-0.2192

> <Gold.PLP.part.nonpolar>
-41.0135

> <Gold.PLP.part.repulsive>
0.5215

> <Gold.PLP.ligand.clash>
0.0000

> <Gold.PLP.ligand.torsion>
0.4427

> <Gold.PLP.Chemscore.Hbond>
3.6020

> <Gold.PLP.Chemscore.CHOScore>
0.0000

> <Gold.PLP.Chemscore.Metal>
0.0000

> <Gold.Chemscore.Hbonds>
donor molecule, donor type, donor heavy atom, donor atom, acceptor molecule, acceptor atom, score
      L1  H    23    50       P1  7948  0.32
      P1  H  7954  7966       L1    23  1.00
      P1  H  7989  7998       L1    14  0.55
      P1  H  7997  8008       L1    12  0.86

> <Gold.PLP.Chemscore.Internal.Correction>
0.1647

> <Gold.Rescore>
     Score         DG    S(hbond)    S(metal)    S(lipo)     H(rot)  DE(clash)    DE(int)     intcor
     13.77     -16.33       1.62        0.00     102.98       2.58       0.86       1.70       ----

> <Gold.Chemscore.Fitness>
13.7709

> <Gold.Chemscore.DG>
-16.3279

> <Gold.Chemscore.ZeroCoef>
-5.4800

> <Gold.Chemscore.Hbond>
1.6182

> <Gold.Chemscore.Metal>
0.0000

> <Gold.Chemscore.Lipo>
102.9847

> <Gold.Chemscore.Internal_Hbond>
0.0000

> <Gold.Chemscore.DEClash>
0.8551

> <Gold.Chemscore.DEInternal>
1.7020

> <Gold.Chemscore.Rot>
2.5806

> <Gold.Chemscore.Internal.Correction>
   9.000000E+99

> <Gold.Chemscore.Hbonds>
donor molecule, donor type, donor heavy atom, donor atom, acceptor molecule, acceptor atom, score
      L1  H    23    50       P1  7948  0.32
      P1  H  7954  7966       L1    23  0.49
      P1  H  7989  7998       L1    14  0.02
      P1  H  7997  8008       L1    12  0.29

> <Gold.Chemscore.Hbond.Weighted>
-5.4049

> <Gold.Chemscore.Metal.Weighted>
-0.0000

> <Gold.Chemscore.Lipo.Weighted>
-12.0492

> <Gold.Chemscore.Internal_Hbond.Weighted>
0.0000

> <Gold.Chemscore.DEClash.Weighted>
0.8551

> <Gold.Chemscore.DEInternal.Weighted>
1.7020

> <Gold.Chemscore.Rot.Weighted>
6.6062

> <Gold.Chemscore.Internal.Correction.Weighted>
   9.000000E+99

> <Gold.Protein.RotatedTorsions>
[ 6907 6896 6895 6894 ] final  -10.28 input  -60.11 | X-H torsion
[ 7974 7965 7964 7962 ] final  -83.58 input  175.53 | X-H torsion
[ 8008 7997 7996 7995 ] final  -62.97 input   59.86 | X-H torsion
[ 10167 10162 10161 10158 ] final   86.63 input  -65.29 | X-H torsion
[ 10718 10713 10712 10709 ] final -177.37 input   66.30 | X-H torsion
[ 10763 10752 10751 10750 ] final  -63.25 input  -60.55 | X-H torsion
[ 11005 11000 10999 10996 ] final   91.08 input  -57.11 | X-H torsion

> <Gold.Protein.ActiveResidues>
 VAL166  LYS551  ARG553  GLY616  TRP617  ASP618  TYR619  PRO620  LYS621  CYS622 
 ASP623  PHE694  ASN695  SER759  ASP760  ASP761  ALA762  ILE779  LEU786  VAL792 
 PHE793  MET794  SER795  GLU796  ALA797  LYS798  CYS799  TRP800  GLU811  SER814 

> <Gold.Protein.RotatedAtoms>
  151.4044  135.0976  159.9565 H   0  0  0  0  0  0  0  0  0  0  0  0  # atno 6907 bound_to 6896
  152.5040  133.8857  159.7379 H   0  0  0  0  0  0  0  0  0  0  0  0  # atno 6908 bound_to 6896
  150.9338  133.6679  159.2833 H   0  0  0  0  0  0  0  0  0  0  0  0  # atno 6909 bound_to 6896
  145.5181  140.9534  143.1670 H   0  0  0  0  0  0  0  0  0  0  0  0  # atno 7974 bound_to 7965
  154.4528  140.0985  156.6670 H   0  0  0  0  0  0  0  0  0  0  0  0  # atno 8008 bound_to 7997
  155.5230  140.3479  155.4392 H   0  0  0  0  0  0  0  0  0  0  0  0  # atno 8009 bound_to 7997
  156.0717  140.1351  156.9809 H   0  0  0  0  0  0  0  0  0  0  0  0  # atno 8010 bound_to 7997
  139.8855  144.6415  150.8796 H   0  0  0  0  0  0  0  0  0  0  0  0  # atno 10167 bound_to 10162
  156.8284  130.9644  151.3108 H   0  0  0  0  0  0  0  0  0  0  0  0  # atno 10718 bound_to 10713
  154.3122  135.6213  153.5470 H   0  0  0  0  0  0  0  0  0  0  0  0  # atno 10763 bound_to 10752
  152.9828  135.5704  154.5164 H   0  0  0  0  0  0  0  0  0  0  0  0  # atno 10764 bound_to 10752
  154.4816  135.2863  155.1542 H   0  0  0  0  0  0  0  0  0  0  0  0  # atno 10765 bound_to 10752
  139.8845  134.8653  156.3377 H   0  0  0  0  0  0  0  0  0  0  0  0  # atno 11005 bound_to 11000
  144.7691  139.6776  143.7202 LP  0  0  0  0  0  0  0  0  0  0  0  0  # atno 17320 bound_to 7965
  146.2124  139.5489  142.9672 LP  0  0  0  0  0  0  0  0  0  0  0  0  # atno 17321 bound_to 7965
  140.7736  143.3551  151.1937 LP  0  0  0  0  0  0  0  0  0  0  0  0  # atno 17342 bound_to 10162
  139.7157  143.9305  152.2965 LP  0  0  0  0  0  0  0  0  0  0  0  0  # atno 17343 bound_to 10162
  157.6420  130.8813  149.9465 LP  0  0  0  0  0  0  0  0  0  0  0  0  # atno 17370 bound_to 10713
  156.0948  130.3660  150.0327 LP  0  0  0  0  0  0  0  0  0  0  0  0  # atno 17371 bound_to 10713
  140.9680  133.7346  156.0494 LP  0  0  0  0  0  0  0  0  0  0  0  0  # atno 17394 bound_to 11000
  140.7907  134.3621  157.5465 LP  0  0  0  0  0  0  0  0  0  0  0  0  # atno 17395 bound_to 11000

$$$$
