AV-unprocessed.smi:3332|AV-procd|sdf|12829|dock1
  -GOLD-   2272019203D 1   1.00000     0.00000
 Structure written by MMmdl.
 41 42  0  0  0  0  0  0  0  0  1 V2000
  153.2192  143.4045  163.4226 C   0  0  0  0  0  0  0  0  0  0  0  0
  153.1706  142.3129  162.3481 C   0  0  0  0  0  0  0  0  0  0  0  0
  152.2697  142.6806  161.2061 C   0  0  0  0  0  0  0  0  0  0  0  0
  151.4272  143.7900  161.3272 N   0  0  0  0  0  0  0  0  0  0  0  0
  150.6854  143.9952  160.2372 C   0  0  0  0  0  0  0  0  0  0  0  0
  149.7284  145.1299  160.0918 C   0  0  0  0  0  0  0  0  0  0  0  0
  148.3015  144.7492  160.5161 C   0  0  0  0  0  0  0  0  0  0  0  0
  147.4119  144.6414  159.3660 N   0  0  0  0  0  0  0  0  0  0  0  0
  146.5137  143.6626  159.1772 C   0  0  0  0  0  0  0  0  0  0  0  0
  146.3441  142.7393  159.9737 O   0  0  0  0  0  0  0  0  0  0  0  0
  145.6742  143.7422  157.8970 C   0  0  0  0  0  0  0  0  0  0  0  0
  145.6820  142.4401  157.0660 C   0  0  2  0  0  0  0  0  0  0  0  0
  147.0660  141.8943  156.8084 C   0  0  0  0  0  0  0  0  0  0  0  0
  147.3027  141.6818  155.5159 C   0  0  0  0  0  0  0  0  0  0  0  0
  146.1289  142.0419  154.6487 C   0  0  0  0  0  0  0  0  0  0  0  0
  145.0970  142.6219  155.6417 C   0  0  0  0  0  0  0  0  0  0  0  0
  151.0033  142.8344  158.9562 S   0  0  0  0  0  0  0  0  0  0  0  0
  152.1715  142.0495  159.9877 C   0  0  0  0  0  0  0  0  0  0  0  0
  152.9250  140.8511  159.5142 C   0  0  0  0  0  0  0  0  0  0  0  0
  153.8804  143.1166  164.2401 H   0  0  0  0  0  0  0  0  0  0  0  0
  152.2300  143.5882  163.8429 H   0  0  0  0  0  0  0  0  0  0  0  0
  153.5881  144.3441  163.0102 H   0  0  0  0  0  0  0  0  0  0  0  0
  154.1810  142.1192  161.9871 H   0  0  0  0  0  0  0  0  0  0  0  0
  152.8354  141.3793  162.8016 H   0  0  0  0  0  0  0  0  0  0  0  0
  150.0933  145.9643  160.6919 H   0  0  0  0  0  0  0  0  0  0  0  0
  149.7359  145.4650  159.0537 H   0  0  0  0  0  0  0  0  0  0  0  0
  148.3106  143.7870  161.0291 H   0  0  0  0  0  0  0  0  0  0  0  0
  147.9076  145.4767  161.2284 H   0  0  0  0  0  0  0  0  0  0  0  0
  147.4848  145.3622  158.6625 H   0  0  0  0  0  0  0  0  0  0  0  0
  144.6506  143.9863  158.1835 H   0  0  0  0  0  0  0  0  0  0  0  0
  146.0265  144.5716  157.2814 H   0  0  0  0  0  0  0  0  0  0  0  0
  145.1175  141.6658  157.5880 H   0  0  0  0  0  0  0  0  0  0  0  0
  147.7653  141.6913  157.6062 H   0  0  0  0  0  0  0  0  0  0  0  0
  148.2203  141.2847  155.1078 H   0  0  0  0  0  0  0  0  0  0  0  0
  146.4192  142.7721  153.8927 H   0  0  0  0  0  0  0  0  0  0  0  0
  145.7506  141.1508  154.1472 H   0  0  0  0  0  0  0  0  0  0  0  0
  144.1328  142.1216  155.5453 H   0  0  0  0  0  0  0  0  0  0  0  0
  144.9294  143.6766  155.4201 H   0  0  0  0  0  0  0  0  0  0  0  0
  153.9975  140.9889  159.6522 H   0  0  0  0  0  0  0  0  0  0  0  0
  152.7455  140.6634  158.4554 H   0  0  0  0  0  0  0  0  0  0  0  0
  152.6238  139.9627  160.0691 H   0  0  0  0  0  0  0  0  0  0  0  0
  1  2  1  0  0  0  0
  1 20  1  0  0  0  0
  1 21  1  0  0  0  0
  1 22  1  0  0  0  0
  2  3  1  0  0  0  0
  2 23  1  0  0  0  0
  2 24  1  0  0  0  0
  3 18  2  0  0  0  0
  3  4  1  0  0  0  0
  4  5  2  0  0  0  0
  5  6  1  0  0  0  0
  5 17  1  0  0  0  0
  6  7  1  0  0  0  0
  6 25  1  0  0  0  0
  6 26  1  0  0  0  0
  7  8  1  0  0  0  0
  7 27  1  0  0  0  0
  7 28  1  0  0  0  0
  8  9  1  0  0  0  0
  8 29  1  0  0  0  0
  9 10  2  0  0  0  0
  9 11  1  0  0  0  0
 11 12  1  0  0  0  0
 11 30  1  0  0  0  0
 11 31  1  0  0  0  0
 12 16  1  0  0  0  0
 12 13  1  0  0  0  0
 12 32  1  0  0  0  0
 13 14  2  0  0  0  0
 13 33  1  0  0  0  0
 14 15  1  0  0  0  0
 14 34  1  0  0  0  0
 15 16  1  0  0  0  0
 15 35  1  0  0  0  0
 15 36  1  0  0  0  0
 16 37  1  0  0  0  0
 16 38  1  0  0  0  0
 17 18  1  0  0  0  0
 18 19  1  0  0  0  0
 19 39  1  0  0  0  0
 19 40  1  0  0  0  0
 19 41  1  0  0  0  0
M  END
> <s_m_source_file>
AV-unprocessed.smi

> <i_m_source_file_index>
3332

> <i_lp_mmshare_version>
43012

> <i_f3d_flags>
0

> <s_epik_input>
W0NIM11bQ0gyXWMxbmMoc2MxW0NIM10pW0NIMl1bQ0gyXVtOSF1DKD1PKVtDSDJdW0NAQEhdMltDSF09W0NIXVtDSDJdW0NIMl0y

> <s_epik_cmdline>
J2VwaWtfcHl0aG9uJywgJy1waCcsICc3LjAnLCAnLXRuJywgJzgnLCAnLW1hJywgJzIwMCcsICctbWV0YWxfYmluZGluZycsICctaW1hZScsICc8aW5maWxlLm1hZT4nLCAnLW9tYWUnLCAnPG91dGZpbGUubWFlPic=

> <r_epik_Ionization_Penalty>
0.00221844

> <r_epik_Ionization_Penalty_Charging>
0

> <r_epik_Ionization_Penalty_Neutral>
0.00221844

> <r_epik_State_Penalty>
0.00152607

> <r_epik_Charging_Adjusted_Penalty>
0.00152607

> <i_epik_Tot_Q>
0

> <i_epik_Tot_abs_Q>
0

> <r_epik_Metal_State_Penalty>
-0

> <b_epik_Metal_Only>
0

> <s_lp_Force_Field>
OPLS_2005

> <r_lp_Energy>
6.78745

> <b_lp_Chiralities_Consistent>
1

> <s_lp_Variant>
AV-unprocessed.smi:3332-1

> <Gold.Version>
5.8.1

> <Gold.Id.Protein>
6NUR|6NUR_protein|mol2

> <Gold.PLP.Fitness>
43.2320

> <Gold.PLP.PLP>
-39.2552

> <Gold.PLP.part.hbond>
-2.0753

> <Gold.PLP.part.metal>
0.0000

> <Gold.PLP.part.buried>
-4.7455

> <Gold.PLP.part.nonpolar>
-31.1096

> <Gold.PLP.part.repulsive>
0.2960

> <Gold.PLP.ligand.clash>
0.0000

> <Gold.PLP.ligand.torsion>
1.0640

> <Gold.PLP.Chemscore.Hbond>
1.9913

> <Gold.PLP.Chemscore.CHOScore>
0.0000

> <Gold.PLP.Chemscore.Metal>
0.0000

> <Gold.Chemscore.Hbonds>
donor molecule, donor type, donor heavy atom, donor atom, acceptor molecule, acceptor atom, score
      L1  H     8    29       P1  8029  1.00
      P1  H  6934  6946       L1    10  0.83

> <Gold.PLP.Chemscore.Internal.Correction>
0.1309

> <Gold.Rescore>
     Score         DG    S(hbond)    S(metal)    S(lipo)     H(rot)  DE(clash)    DE(int)     intcor
     19.13     -20.17       1.99        0.00     101.71       1.51       0.02       1.02       ----

> <Gold.Chemscore.Fitness>
19.1341

> <Gold.Chemscore.DG>
-20.1681

> <Gold.Chemscore.ZeroCoef>
-5.4800

> <Gold.Chemscore.Hbond>
1.9924

> <Gold.Chemscore.Metal>
0.0000

> <Gold.Chemscore.Lipo>
101.7084

> <Gold.Chemscore.Internal_Hbond>
0.0000

> <Gold.Chemscore.DEClash>
0.0163

> <Gold.Chemscore.DEInternal>
1.0177

> <Gold.Chemscore.Rot>
1.5103

> <Gold.Chemscore.Internal.Correction>
   9.000000E+99

> <Gold.Chemscore.Hbonds>
donor molecule, donor type, donor heavy atom, donor atom, acceptor molecule, acceptor atom, score
      L1  H     8    29       P1  8029  0.94
      P1  H  6934  6946       L1    10  0.82

> <Gold.Chemscore.Hbond.Weighted>
-6.6546

> <Gold.Chemscore.Metal.Weighted>
-0.0000

> <Gold.Chemscore.Lipo.Weighted>
-11.8999

> <Gold.Chemscore.Internal_Hbond.Weighted>
0.0000

> <Gold.Chemscore.DEClash.Weighted>
0.0163

> <Gold.Chemscore.DEInternal.Weighted>
1.0177

> <Gold.Chemscore.Rot.Weighted>
3.8664

> <Gold.Chemscore.Internal.Correction.Weighted>
   9.000000E+99

> <Gold.Protein.RotatedTorsions>
[ 6907 6896 6895 6894 ] final    2.16 input  -60.11 | X-H torsion
[ 7974 7965 7964 7962 ] final -137.97 input  175.53 | X-H torsion
[ 8008 7997 7996 7995 ] final   39.13 input   59.86 | X-H torsion
[ 10167 10162 10161 10158 ] final  171.12 input  -65.29 | X-H torsion
[ 10718 10713 10712 10709 ] final  -36.80 input   66.30 | X-H torsion
[ 10763 10752 10751 10750 ] final -159.60 input  -60.55 | X-H torsion
[ 11005 11000 10999 10996 ] final  151.83 input  -57.11 | X-H torsion

> <Gold.Protein.ActiveResidues>
 VAL166  LYS551  ARG553  GLY616  TRP617  ASP618  TYR619  PRO620  LYS621  CYS622 
 ASP623  PHE694  ASN695  SER759  ASP760  ASP761  ALA762  ILE779  LEU786  VAL792 
 PHE793  MET794  SER795  GLU796  ALA797  LYS798  CYS799  TRP800  GLU811  SER814 

> <Gold.Protein.RotatedAtoms>
  151.6043  135.1045  160.0066 H   0  0  0  0  0  0  0  0  0  0  0  0  # atno 6907 bound_to 6896
  152.4241  133.7162  159.6518 H   0  0  0  0  0  0  0  0  0  0  0  0  # atno 6908 bound_to 6896
  150.8130  133.8316  159.3196 H   0  0  0  0  0  0  0  0  0  0  0  0  # atno 6909 bound_to 6896
  144.8797  140.6489  143.5214 H   0  0  0  0  0  0  0  0  0  0  0  0  # atno 7974 bound_to 7965
  155.2316  140.3338  155.4302 H   0  0  0  0  0  0  0  0  0  0  0  0  # atno 8008 bound_to 7997
  156.2292  140.1843  156.7331 H   0  0  0  0  0  0  0  0  0  0  0  0  # atno 8009 bound_to 7997
  154.5950  140.0632  156.9276 H   0  0  0  0  0  0  0  0  0  0  0  0  # atno 8010 bound_to 7997
  139.5037  144.3521  151.9912 H   0  0  0  0  0  0  0  0  0  0  0  0  # atno 10167 bound_to 10162
  156.3226  130.4268  149.7946 H   0  0  0  0  0  0  0  0  0  0  0  0  # atno 10718 bound_to 10713
  154.7461  135.3080  154.8641 H   0  0  0  0  0  0  0  0  0  0  0  0  # atno 10763 bound_to 10752
  153.9442  135.6771  153.4748 H   0  0  0  0  0  0  0  0  0  0  0  0  # atno 10764 bound_to 10752
  153.1058  135.4890  154.8875 H   0  0  0  0  0  0  0  0  0  0  0  0  # atno 10765 bound_to 10752
  140.1253  134.8837  157.2129 H   0  0  0  0  0  0  0  0  0  0  0  0  # atno 11005 bound_to 11000
  145.3977  139.1604  143.4194 LP  0  0  0  0  0  0  0  0  0  0  0  0  # atno 17320 bound_to 7965
  146.2986  140.4072  142.8712 LP  0  0  0  0  0  0  0  0  0  0  0  0  # atno 17321 bound_to 7965
  140.2958  144.3703  150.6075 LP  0  0  0  0  0  0  0  0  0  0  0  0  # atno 17342 bound_to 10162
  140.5912  143.2168  151.7250 LP  0  0  0  0  0  0  0  0  0  0  0  0  # atno 17343 bound_to 10162
  156.5248  130.8231  151.3216 LP  0  0  0  0  0  0  0  0  0  0  0  0  # atno 17370 bound_to 10713
  157.7415  130.9871  150.2449 LP  0  0  0  0  0  0  0  0  0  0  0  0  # atno 17371 bound_to 10713
  140.2911  134.3239  155.7315 LP  0  0  0  0  0  0  0  0  0  0  0  0  # atno 17394 bound_to 11000
  141.2160  133.7535  156.9505 LP  0  0  0  0  0  0  0  0  0  0  0  0  # atno 17395 bound_to 11000

$$$$
