AV-unprocessed.smi:444|AV-procd|sdf|2588|dock4
  -GOLD-   2262022583D 1   1.00000     0.00000
 Structure written by MMmdl.
 45 46  0  0  0  0  0  0  0  0  1 V2000
  151.7167  143.1836  158.2943 C   0  0  0  0  0  0  0  0  0  0  0  0
  152.2492  143.0801  159.7087 C   0  0  0  0  0  0  0  0  0  0  0  0
  151.9132  144.0544  160.6681 C   0  0  0  0  0  0  0  0  0  0  0  0
  152.4133  143.9516  161.9785 C   0  0  0  0  0  0  0  0  0  0  0  0
  153.2516  142.8758  162.3379 C   0  0  0  0  0  0  0  0  0  0  0  0
  153.7818  142.7802  163.7562 C   0  0  0  0  0  0  0  0  0  0  0  0
  153.5966  141.8897  161.3846 C   0  0  0  0  0  0  0  0  0  0  0  0
  154.4180  140.8628  161.8028 O   0  0  0  0  0  0  0  0  0  0  0  0
  154.8885  139.9310  160.8380 C   0  0  0  0  0  0  0  0  0  0  0  0
  155.3332  138.6501  161.5643 C   0  0  1  0  0  0  0  0  0  0  0  0
  155.9909  139.0523  162.7502 O   0  0  0  0  0  0  0  0  0  0  0  0
  154.1298  137.7625  161.9529 C   0  0  0  0  0  0  0  0  0  0  0  0
  154.5314  136.3716  162.1989 N   0  0  0  0  0  0  0  0  0  0  0  0
  154.8190  135.6589  161.0508 N   0  0  0  0  0  0  0  0  0  0  0  0
  155.2085  134.4276  161.1022 C   0  0  0  0  0  0  0  0  0  0  0  0
  155.4935  133.7528  159.7876 C   0  0  0  0  0  0  0  0  0  0  0  0
  155.3499  133.7676  162.3960 C   0  0  0  0  0  0  0  0  0  0  0  0
  155.8142  132.3173  162.3952 C   0  0  0  0  0  0  0  0  0  0  0  0
  155.0589  134.4761  163.5157 C   0  0  0  0  0  0  0  0  0  0  0  0
  155.1638  133.9128  164.8231 C   0  0  0  0  0  0  0  0  0  0  0  0
  155.2560  133.4375  165.8746 N   0  0  0  0  0  0  0  0  0  0  0  0
  154.6162  135.8714  163.4647 C   0  0  0  0  0  0  0  0  0  0  0  0
  154.3455  136.5402  164.4632 O   0  0  0  0  0  0  0  0  0  0  0  0
  153.0878  142.0048  160.0656 C   0  0  0  0  0  0  0  0  0  0  0  0
  150.9128  143.9172  158.2258 H   0  0  0  0  0  0  0  0  0  0  0  0
  151.3252  142.2215  157.9629 H   0  0  0  0  0  0  0  0  0  0  0  0
  152.5134  143.4836  157.6134 H   0  0  0  0  0  0  0  0  0  0  0  0
  151.2723  144.8829  160.4038 H   0  0  0  0  0  0  0  0  0  0  0  0
  152.1497  144.7037  162.7077 H   0  0  0  0  0  0  0  0  0  0  0  0
  153.4343  141.8606  164.2280 H   0  0  0  0  0  0  0  0  0  0  0  0
  153.4489  143.6206  164.3661 H   0  0  0  0  0  0  0  0  0  0  0  0
  154.8721  142.7744  163.7531 H   0  0  0  0  0  0  0  0  0  0  0  0
  154.1296  139.7068  160.0858 H   0  0  0  0  0  0  0  0  0  0  0  0
  155.7434  140.3770  160.3275 H   0  0  0  0  0  0  0  0  0  0  0  0
  156.0212  138.0917  160.9280 H   0  0  0  0  0  0  0  0  0  0  0  0
  156.9191  139.1010  162.5795 H   0  0  0  0  0  0  0  0  0  0  0  0
  153.5823  138.1908  162.7947 H   0  0  0  0  0  0  0  0  0  0  0  0
  153.4097  137.7529  161.1326 H   0  0  0  0  0  0  0  0  0  0  0  0
  154.8718  132.8657  159.6648 H   0  0  0  0  0  0  0  0  0  0  0  0
  156.5378  133.4454  159.7294 H   0  0  0  0  0  0  0  0  0  0  0  0
  155.2965  134.4116  158.9404 H   0  0  0  0  0  0  0  0  0  0  0  0
  155.9346  131.9216  163.4033 H   0  0  0  0  0  0  0  0  0  0  0  0
  156.7769  132.2220  161.8919 H   0  0  0  0  0  0  0  0  0  0  0  0
  155.0912  131.6854  161.8783 H   0  0  0  0  0  0  0  0  0  0  0  0
  153.3281  141.2767  159.3060 H   0  0  0  0  0  0  0  0  0  0  0  0
  1  2  1  0  0  0  0
  1 25  1  0  0  0  0
  1 26  1  0  0  0  0
  1 27  1  0  0  0  0
  2 24  1  0  0  0  0
  2  3  2  0  0  0  0
  3  4  1  0  0  0  0
  3 28  1  0  0  0  0
  4  5  2  0  0  0  0
  4 29  1  0  0  0  0
  5  6  1  0  0  0  0
  5  7  1  0  0  0  0
  6 30  1  0  0  0  0
  6 31  1  0  0  0  0
  6 32  1  0  0  0  0
  7  8  1  0  0  0  0
  7 24  2  0  0  0  0
  8  9  1  0  0  0  0
  9 10  1  0  0  0  0
  9 33  1  0  0  0  0
  9 34  1  0  0  0  0
 10 11  1  0  0  0  0
 10 12  1  0  0  0  0
 10 35  1  0  0  0  0
 11 36  1  0  0  0  0
 12 13  1  0  0  0  0
 12 37  1  0  0  0  0
 12 38  1  0  0  0  0
 13 22  1  0  0  0  0
 13 14  1  0  0  0  0
 14 15  2  0  0  0  0
 15 16  1  0  0  0  0
 15 17  1  0  0  0  0
 16 39  1  0  0  0  0
 16 40  1  0  0  0  0
 16 41  1  0  0  0  0
 17 18  1  0  0  0  0
 17 19  2  0  0  0  0
 18 42  1  0  0  0  0
 18 43  1  0  0  0  0
 18 44  1  0  0  0  0
 19 20  1  0  0  0  0
 19 22  1  0  0  0  0
 20 21  3  0  0  0  0
 22 23  2  0  0  0  0
 24 45  1  0  0  0  0
M  END
> <s_m_source_file>
AV-unprocessed.smi

> <i_m_source_file_index>
444

> <i_lp_mmshare_version>
43012

> <i_f3d_flags>
0

> <s_epik_input>
W0NIM11jMVtjSF1bY0hdYyhbQ0gzXSljKFtjSF0xKU9bQ0gyXVtDQEhdKFtPSF0pW0NIMl1uMm5jKFtDSDNdKWMoW0NIM10pYyhDI04pYzI9Tw==

> <s_epik_cmdline>
J2VwaWtfcHl0aG9uJywgJy1waCcsICc3LjAnLCAnLXRuJywgJzgnLCAnLW1hJywgJzIwMCcsICctbWV0YWxfYmluZGluZycsICctaW1hZScsICc8aW5maWxlLm1hZT4nLCAnLW9tYWUnLCAnPG91dGZpbGUubWFlPic=

> <r_lp_tautomer_probability>
1

> <r_epik_Ionization_Penalty>
1.17331e-07

> <r_epik_Ionization_Penalty_Charging>
1.57223e-10

> <r_epik_Ionization_Penalty_Neutral>
1.17174e-07

> <r_epik_State_Penalty>
-0

> <r_epik_Charging_Adjusted_Penalty>
1.57223e-10

> <i_epik_Tot_Q>
0

> <i_epik_Tot_abs_Q>
0

> <r_epik_Metal_State_Penalty>
-0

> <b_epik_Metal_Only>
0

> <s_lp_Force_Field>
OPLS_2005

> <r_lp_Energy>
32.4142

> <b_lp_Chiralities_Consistent>
1

> <s_lp_Variant>
AV-unprocessed.smi:444-2

> <Gold.Version>
5.8.1

> <Gold.Id.Protein>
6NUR|6NUR_protein|mol2

> <Gold.PLP.Fitness>
49.2341

> <Gold.PLP.PLP>
-50.6023

> <Gold.PLP.part.hbond>
-0.1716

> <Gold.PLP.part.metal>
0.0000

> <Gold.PLP.part.buried>
-7.3128

> <Gold.PLP.part.nonpolar>
-42.6180

> <Gold.PLP.part.repulsive>
0.7913

> <Gold.PLP.ligand.clash>
0.0000

> <Gold.PLP.ligand.torsion>
0.7095

> <Gold.PLP.Chemscore.Hbond>
0.0000

> <Gold.PLP.Chemscore.CHOScore>
0.0000

> <Gold.PLP.Chemscore.Metal>
0.0000

> <Gold.PLP.Chemscore.Internal.Correction>
0.0507

> <Gold.Rescore>
     Score         DG    S(hbond)    S(metal)    S(lipo)     H(rot)  DE(clash)    DE(int)     intcor
     14.60     -15.16       0.00        0.00     132.88       2.29       0.06       0.50       ----

> <Gold.Chemscore.Fitness>
14.6021

> <Gold.Chemscore.DG>
-15.1635

> <Gold.Chemscore.ZeroCoef>
-5.4800

> <Gold.Chemscore.Hbond>
0.0000

> <Gold.Chemscore.Metal>
0.0000

> <Gold.Chemscore.Lipo>
132.8811

> <Gold.Chemscore.Internal_Hbond>
0.0000

> <Gold.Chemscore.DEClash>
0.0605

> <Gold.Chemscore.DEInternal>
0.5010

> <Gold.Chemscore.Rot>
2.2905

> <Gold.Chemscore.Internal.Correction>
   9.000000E+99

> <Gold.Chemscore.Hbond.Weighted>
-0.0000

> <Gold.Chemscore.Metal.Weighted>
-0.0000

> <Gold.Chemscore.Lipo.Weighted>
-15.5471

> <Gold.Chemscore.Internal_Hbond.Weighted>
0.0000

> <Gold.Chemscore.DEClash.Weighted>
0.0605

> <Gold.Chemscore.DEInternal.Weighted>
0.5010

> <Gold.Chemscore.Rot.Weighted>
5.8636

> <Gold.Chemscore.Internal.Correction.Weighted>
   9.000000E+99

> <Gold.Protein.RotatedTorsions>
[ 6907 6896 6895 6894 ] final  -39.70 input  -60.11 | X-H torsion
[ 7974 7965 7964 7962 ] final  159.06 input  175.53 | X-H torsion
[ 8008 7997 7996 7995 ] final   31.96 input   59.86 | X-H torsion
[ 10167 10162 10161 10158 ] final -174.80 input  -65.29 | X-H torsion
[ 10718 10713 10712 10709 ] final  108.31 input   66.30 | X-H torsion
[ 10763 10752 10751 10750 ] final   75.31 input  -60.55 | X-H torsion
[ 11005 11000 10999 10996 ] final -153.55 input  -57.11 | X-H torsion

> <Gold.Protein.ActiveResidues>
 VAL166  LYS551  ARG553  GLY616  TRP617  ASP618  TYR619  PRO620  LYS621  CYS622 
 ASP623  PHE694  ASN695  SER759  ASP760  ASP761  ALA762  ILE779  LEU786  VAL792 
 PHE793  MET794  SER795  GLU796  ALA797  LYS798  CYS799  TRP800  GLU811  SER814 

> <Gold.Protein.RotatedAtoms>
  150.9872  134.9215  159.7878 H   0  0  0  0  0  0  0  0  0  0  0  0  # atno 6907 bound_to 6896
  152.5240  134.3331  159.9200 H   0  0  0  0  0  0  0  0  0  0  0  0  # atno 6908 bound_to 6896
  151.3337  133.3949  159.2699 H   0  0  0  0  0  0  0  0  0  0  0  0  # atno 6909 bound_to 6896
  144.7811  139.7564  143.6259 H   0  0  0  0  0  0  0  0  0  0  0  0  # atno 7974 bound_to 7965
  155.1148  140.3242  155.4512 H   0  0  0  0  0  0  0  0  0  0  0  0  # atno 8008 bound_to 7997
  156.2680  140.2037  156.6219 H   0  0  0  0  0  0  0  0  0  0  0  0  # atno 8009 bound_to 7997
  154.6728  140.0534  157.0171 H   0  0  0  0  0  0  0  0  0  0  0  0  # atno 8010 bound_to 7997
  139.5615  144.1859  152.1245 H   0  0  0  0  0  0  0  0  0  0  0  0  # atno 10167 bound_to 10162
  157.6591  131.0891  150.6287 H   0  0  0  0  0  0  0  0  0  0  0  0  # atno 10718 bound_to 10713
  153.0646  135.4993  154.8171 H   0  0  0  0  0  0  0  0  0  0  0  0  # atno 10763 bound_to 10752
  154.6934  135.2988  154.9449 H   0  0  0  0  0  0  0  0  0  0  0  0  # atno 10764 bound_to 10752
  154.0196  135.6744  153.4824 H   0  0  0  0  0  0  0  0  0  0  0  0  # atno 10765 bound_to 10752
  140.7069  134.3876  157.5203 H   0  0  0  0  0  0  0  0  0  0  0  0  # atno 11005 bound_to 11000
  146.2020  139.5320  142.9737 LP  0  0  0  0  0  0  0  0  0  0  0  0  # atno 17320 bound_to 7965
  145.6047  141.0349  143.1999 LP  0  0  0  0  0  0  0  0  0  0  0  0  # atno 17321 bound_to 7965
  140.1374  144.5233  150.6765 LP  0  0  0  0  0  0  0  0  0  0  0  0  # atno 17342 bound_to 10162
  140.6895  143.2368  151.5171 LP  0  0  0  0  0  0  0  0  0  0  0  0  # atno 17343 bound_to 10162
  156.6591  130.4507  149.5693 LP  0  0  0  0  0  0  0  0  0  0  0  0  # atno 17370 bound_to 10713
  156.2080  130.6661  151.1239 LP  0  0  0  0  0  0  0  0  0  0  0  0  # atno 17371 bound_to 10713
  139.8882  134.8863  156.2488 LP  0  0  0  0  0  0  0  0  0  0  0  0  # atno 17394 bound_to 11000
  141.0117  133.7092  156.1123 LP  0  0  0  0  0  0  0  0  0  0  0  0  # atno 17395 bound_to 11000

$$$$
