AV-unprocessed.smi:574|AV-procd|sdf|2976|dock4
  -GOLD-   2262023483D 1   1.00000     0.00000
 Structure written by MMmdl.
 39 40  0  0  0  0  0  0  0  0  2 V2000
  154.0807  137.4320  162.1221 C   0  0  0  0  0  0  0  0  0  0  0  0
  153.6662  137.5684  160.6610 C   0  0  0  0  0  0  0  0  0  0  0  0
  153.2139  136.5994  160.0518 O   0  0  0  0  0  0  0  0  0  0  0  0
  153.8193  138.7820  160.1140 N   0  0  0  0  0  0  0  0  0  0  0  0
  153.4327  139.1448  158.7539 C   0  0  0  0  0  0  0  0  0  0  0  0
  153.7674  138.0183  157.7587 C   0  0  0  0  0  0  0  0  0  0  0  0
  153.6978  138.5313  156.3925 N   0  5  0  0  0  0  0  0  0  0  0  0
  152.5807  138.5020  155.6105 C   0  0  0  0  0  0  0  0  0  0  0  0
  152.2652  137.6930  154.7311 O   0  0  0  0  0  0  0  0  0  0  0  0
  151.6527  139.6599  155.8994 C   0  0  0  0  0  0  0  0  0  0  0  0
  152.0589  140.5707  156.8201 N   0  0  0  0  0  0  0  0  0  0  0  0
  151.2771  141.6198  157.0895 C   0  0  0  0  0  0  0  0  0  0  0  0
  151.7319  142.5310  158.0516 N   0  0  0  0  0  0  0  0  0  0  0  0
  151.4931  143.9709  157.9340 C   0  0  0  0  0  0  0  0  0  0  0  0
  151.3494  144.6146  159.3234 C   0  0  0  0  0  0  0  0  0  0  0  0
  152.4946  144.3174  160.1131 O   0  0  0  0  0  0  0  0  0  0  0  0
  152.6375  142.9174  160.3204 C   0  0  0  0  0  0  0  0  0  0  0  0
  152.8268  142.2062  158.9704 C   0  0  0  0  0  0  0  0  0  0  0  0
  150.0966  141.8602  156.5075 N   0  0  0  0  0  0  0  0  0  0  0  0
  149.6637  140.9731  155.5875 C   0  0  0  0  0  0  0  0  0  0  0  0
  150.4096  139.8316  155.2342 C   0  0  0  0  0  0  0  0  0  0  0  0
  149.7702  138.7229  154.0690 Cl  0  0  0  0  0  0  0  0  0  0  0  0
  153.3796  137.9649  162.7650 H   0  0  0  0  0  0  0  0  0  0  0  0
  155.0772  137.8466  162.2786 H   0  0  0  0  0  0  0  0  0  0  0  0
  154.0953  136.3846  162.4252 H   0  0  0  0  0  0  0  0  0  0  0  0
  154.1834  139.5292  160.6883 H   0  0  0  0  0  0  0  0  0  0  0  0
  152.3620  139.3519  158.7255 H   0  0  0  0  0  0  0  0  0  0  0  0
  153.9426  140.0658  158.4664 H   0  0  0  0  0  0  0  0  0  0  0  0
  154.7530  137.6191  158.0029 H   0  0  0  0  0  0  0  0  0  0  0  0
  153.0693  137.1945  157.9094 H   0  0  0  0  0  0  0  0  0  0  0  0
  152.3315  144.4187  157.3995 H   0  0  0  0  0  0  0  0  0  0  0  0
  150.5962  144.1947  157.3571 H   0  0  0  0  0  0  0  0  0  0  0  0
  151.2574  145.6964  159.2268 H   0  0  0  0  0  0  0  0  0  0  0  0
  150.4460  144.2621  159.8236 H   0  0  0  0  0  0  0  0  0  0  0  0
  153.5019  142.7398  160.9602 H   0  0  0  0  0  0  0  0  0  0  0  0
  151.7664  142.5244  160.8473 H   0  0  0  0  0  0  0  0  0  0  0  0
  152.9015  141.1355  159.1600 H   0  0  0  0  0  0  0  0  0  0  0  0
  153.7685  142.5122  158.5132 H   0  0  0  0  0  0  0  0  0  0  0  0
  148.7057  141.1748  155.1316 H   0  0  0  0  0  0  0  0  0  0  0  0
  1  2  1  0  0  0  0
  1 23  1  0  0  0  0
  1 24  1  0  0  0  0
  1 25  1  0  0  0  0
  2  3  2  0  0  0  0
  2  4  1  0  0  0  0
  4  5  1  0  0  0  0
  4 26  1  0  0  0  0
  5  6  1  0  0  0  0
  5 27  1  0  0  0  0
  5 28  1  0  0  0  0
  6  7  1  0  0  0  0
  6 29  1  0  0  0  0
  6 30  1  0  0  0  0
  7  8  1  0  0  0  0
  8  9  2  0  0  0  0
  8 10  1  0  0  0  0
 10 21  1  0  0  0  0
 10 11  2  0  0  0  0
 11 12  1  0  0  0  0
 12 13  1  0  0  0  0
 12 19  2  0  0  0  0
 13 18  1  0  0  0  0
 13 14  1  0  0  0  0
 14 15  1  0  0  0  0
 14 31  1  0  0  0  0
 14 32  1  0  0  0  0
 15 16  1  0  0  0  0
 15 33  1  0  0  0  0
 15 34  1  0  0  0  0
 16 17  1  0  0  0  0
 17 18  1  0  0  0  0
 17 35  1  0  0  0  0
 17 36  1  0  0  0  0
 18 37  1  0  0  0  0
 18 38  1  0  0  0  0
 19 20  1  0  0  0  0
 20 21  2  0  0  0  0
 20 39  1  0  0  0  0
 21 22  1  0  0  0  0
M  CHG  1   7  -1
M  END
> <s_m_source_file>
AV-unprocessed.smi

> <i_m_source_file_index>
574

> <i_lp_mmshare_version>
43012

> <i_f3d_flags>
0

> <s_epik_input>
W0NIM11DKD1PKVtOSF1bQ0gyXVtDSDJdW05IXUMoPU8pYzFuYyhuW2NIXWMxQ2wpTjJbQ0gyXVtDSDJdT1tDSDJdW0NIMl0y

> <s_epik_cmdline>
J2VwaWtfcHl0aG9uJywgJy1waCcsICc3LjAnLCAnLXRuJywgJzgnLCAnLW1hJywgJzIwMCcsICctbWV0YWxfYmluZGluZycsICctaW1hZScsICc8aW5maWxlLm1hZT4nLCAnLW9tYWUnLCAnPG91dGZpbGUubWFlPic=

> <r_lp_tautomer_probability>
1

> <r_epik_Ionization_Penalty>
5.61005

> <r_epik_Ionization_Penalty_Charging>
5.61003

> <r_epik_Ionization_Penalty_Neutral>
1.98059e-05

> <r_epik_State_Penalty>
5.60999

> <r_epik_Charging_Adjusted_Penalty>
11.22

> <i_epik_Tot_Q>
-1

> <i_epik_Tot_abs_Q>
1

> <r_epik_Metal_State_Penalty>
1.60231

> <b_epik_Metal_Only>
1

> <s_lp_Force_Field>
OPLS_2005

> <r_lp_Energy>
13.7471

> <b_lp_Chiralities_Consistent>
1

> <s_lp_Variant>
AV-unprocessed.smi:574-2

> <Gold.Version>
5.8.1

> <Gold.Id.Protein>
6NUR|6NUR_protein|mol2

> <Gold.PLP.Fitness>
48.1930

> <Gold.PLP.PLP>
-41.8457

> <Gold.PLP.part.hbond>
-3.2720

> <Gold.PLP.part.metal>
0.0000

> <Gold.PLP.part.buried>
-4.2415

> <Gold.PLP.part.nonpolar>
-34.2655

> <Gold.PLP.part.repulsive>
0.2740

> <Gold.PLP.ligand.clash>
0.0000

> <Gold.PLP.ligand.torsion>
1.4325

> <Gold.PLP.Chemscore.Hbond>
2.9959

> <Gold.PLP.Chemscore.CHOScore>
0.0000

> <Gold.PLP.Chemscore.Metal>
0.0000

> <Gold.Chemscore.Hbonds>
donor molecule, donor type, donor heavy atom, donor atom, acceptor molecule, acceptor atom, score
      P1  H  6896  6908       L1     3  1.00
      P1  H  7997  8010       L1     7  1.37
      P1  H 10752 10765       L1     9  0.45

> <Gold.PLP.Chemscore.Internal.Correction>
0.2244

> <Gold.Rescore>
     Score         DG    S(hbond)    S(metal)    S(lipo)     H(rot)  DE(clash)    DE(int)     intcor
     13.25     -18.52       2.06        0.00      89.12       1.67       0.02       5.25       ----

> <Gold.Chemscore.Fitness>
13.2525

> <Gold.Chemscore.DG>
-18.5228

> <Gold.Chemscore.ZeroCoef>
-5.4800

> <Gold.Chemscore.Hbond>
2.0638

> <Gold.Chemscore.Metal>
0.0000

> <Gold.Chemscore.Lipo>
89.1239

> <Gold.Chemscore.Internal_Hbond>
0.0000

> <Gold.Chemscore.DEClash>
0.0183

> <Gold.Chemscore.DEInternal>
5.2521

> <Gold.Chemscore.Rot>
1.6710

> <Gold.Chemscore.Internal.Correction>
   9.000000E+99

> <Gold.Chemscore.Hbonds>
donor molecule, donor type, donor heavy atom, donor atom, acceptor molecule, acceptor atom, score
      P1  H  6896  6908       L1     3  0.98
      P1  H  7997  8010       L1     7  0.15
      P1  H 10752 10765       L1     9  0.44

> <Gold.Chemscore.Hbond.Weighted>
-6.8932

> <Gold.Chemscore.Metal.Weighted>
-0.0000

> <Gold.Chemscore.Lipo.Weighted>
-10.4275

> <Gold.Chemscore.Internal_Hbond.Weighted>
0.0000

> <Gold.Chemscore.DEClash.Weighted>
0.0183

> <Gold.Chemscore.DEInternal.Weighted>
5.2521

> <Gold.Chemscore.Rot.Weighted>
4.2779

> <Gold.Chemscore.Internal.Correction.Weighted>
   9.000000E+99

> <Gold.Protein.RotatedTorsions>
[ 6907 6896 6895 6894 ] final  -98.16 input  -60.11 | X-H torsion
[ 7974 7965 7964 7962 ] final   -7.75 input  175.53 | X-H torsion
[ 8008 7997 7996 7995 ] final   58.21 input   59.86 | X-H torsion
[ 10167 10162 10161 10158 ] final   72.75 input  -65.29 | X-H torsion
[ 10718 10713 10712 10709 ] final  -31.82 input   66.30 | X-H torsion
[ 10763 10752 10751 10750 ] final  174.01 input  -60.55 | X-H torsion
[ 11005 11000 10999 10996 ] final  127.63 input  -57.11 | X-H torsion

> <Gold.Protein.ActiveResidues>
 VAL166  LYS551  ARG553  GLY616  TRP617  ASP618  TYR619  PRO620  LYS621  CYS622 
 ASP623  PHE694  ASN695  SER759  ASP760  ASP761  ALA762  ILE779  LEU786  VAL792 
 PHE793  MET794  SER795  GLU796  ALA797  LYS798  CYS799  TRP800  GLU811  SER814 

> <Gold.Protein.RotatedAtoms>
  150.7038  134.1237  159.4043 H   0  0  0  0  0  0  0  0  0  0  0  0  # atno 6907 bound_to 6896
  151.9223  135.0290  160.0532 H   0  0  0  0  0  0  0  0  0  0  0  0  # atno 6908 bound_to 6896
  152.2246  133.4975  159.5218 H   0  0  0  0  0  0  0  0  0  0  0  0  # atno 6909 bound_to 6896
  146.2298  140.2366  142.8342 H   0  0  0  0  0  0  0  0  0  0  0  0  # atno 7974 bound_to 7965
  155.5463  140.3485  155.4458 H   0  0  0  0  0  0  0  0  0  0  0  0  # atno 8008 bound_to 7997
  156.0615  140.1341  156.9961 H   0  0  0  0  0  0  0  0  0  0  0  0  # atno 8009 bound_to 7997
  154.4482  140.0984  156.6509 H   0  0  0  0  0  0  0  0  0  0  0  0  # atno 8010 bound_to 7997
  140.0320  144.5458  150.7500 H   0  0  0  0  0  0  0  0  0  0  0  0  # atno 10167 bound_to 10162
  156.3825  130.4358  149.7457 H   0  0  0  0  0  0  0  0  0  0  0  0  # atno 10718 bound_to 10713
  154.4480  135.2764  155.1801 H   0  0  0  0  0  0  0  0  0  0  0  0  # atno 10763 bound_to 10752
  154.3640  135.6123  153.5709 H   0  0  0  0  0  0  0  0  0  0  0  0  # atno 10764 bound_to 10752
  152.9845  135.5841  154.4820 H   0  0  0  0  0  0  0  0  0  0  0  0  # atno 10765 bound_to 10752
  139.9518  134.9620  156.8884 H   0  0  0  0  0  0  0  0  0  0  0  0  # atno 11005 bound_to 11000
  144.9516  140.8184  143.5568 LP  0  0  0  0  0  0  0  0  0  0  0  0  # atno 17320 bound_to 7965
  145.2328  139.2107  143.5034 LP  0  0  0  0  0  0  0  0  0  0  0  0  # atno 17321 bound_to 7965
  140.7298  143.2676  151.3992 LP  0  0  0  0  0  0  0  0  0  0  0  0  # atno 17342 bound_to 10162
  139.6070  144.1177  152.2259 LP  0  0  0  0  0  0  0  0  0  0  0  0  # atno 17343 bound_to 10162
  156.4542  130.7921  151.2942 LP  0  0  0  0  0  0  0  0  0  0  0  0  # atno 17370 bound_to 10713
  157.7493  131.0086  150.3234 LP  0  0  0  0  0  0  0  0  0  0  0  0  # atno 17371 bound_to 10713
  140.5702  134.0451  155.7428 LP  0  0  0  0  0  0  0  0  0  0  0  0  # atno 17394 bound_to 11000
  141.1182  133.9505  157.2781 LP  0  0  0  0  0  0  0  0  0  0  0  0  # atno 17395 bound_to 11000

$$$$
