AV-unprocessed.smi:3345|AV-procd|sdf|12904|dock8
  -GOLD-   2272019313D 1   1.00000     0.00000
 Structure written by MMmdl.
 41 42  0  0  0  0  0  0  0  0  2 V2000
  150.5203  134.3069  155.8182 C   0  0  0  0  0  0  0  0  0  0  0  0
  149.8248  134.7463  154.5226 C   0  0  1  0  0  0  0  0  0  0  0  0
  148.2861  134.7122  154.6728 C   0  0  0  0  0  0  0  0  0  0  0  0
  147.5760  134.6184  153.3722 N   0  3  0  0  0  0  0  0  0  0  0  0
  147.6553  133.2747  152.7496 C   0  0  0  0  0  0  0  0  0  0  0  0
  146.9697  133.2876  151.3735 C   0  0  0  0  0  0  0  0  0  0  0  0
  145.6182  133.7065  151.5206 O   0  0  0  0  0  0  0  0  0  0  0  0
  145.5222  135.0240  152.0479 C   0  0  0  0  0  0  0  0  0  0  0  0
  146.1678  135.0729  153.4434 C   0  0  0  0  0  0  0  0  0  0  0  0
  150.2980  136.0830  154.1610 N   0  0  0  0  0  0  0  0  0  0  0  0
  150.0661  137.2166  154.8436 C   0  0  0  0  0  0  0  0  0  0  0  0
  149.4457  137.2468  155.9069 O   0  0  0  0  0  0  0  0  0  0  0  0
  150.6274  138.5076  154.2298 C   0  0  2  0  0  0  0  0  0  0  0  0
  152.1685  138.5085  154.1730 C   0  0  0  0  0  0  0  0  0  0  0  0
  150.0971  139.6677  154.9352 N   0  0  0  0  0  0  0  0  0  0  0  0
  149.2551  140.6148  154.5155 C   0  0  0  0  0  0  0  0  0  0  0  0
  148.9385  141.5051  155.4452 N   0  0  0  0  0  0  0  0  0  0  0  0
  149.6612  141.0084  156.4924 C   0  0  0  0  0  0  0  0  0  0  0  0
  150.3630  139.9027  156.2445 N   0  0  0  0  0  0  0  0  0  0  0  0
  150.2208  133.2972  156.1004 H   0  0  0  0  0  0  0  0  0  0  0  0
  150.2746  134.9704  156.6483 H   0  0  0  0  0  0  0  0  0  0  0  0
  151.6048  134.3066  155.7014 H   0  0  0  0  0  0  0  0  0  0  0  0
  150.1269  134.0389  153.7490 H   0  0  0  0  0  0  0  0  0  0  0  0
  147.9782  133.8867  155.3165 H   0  0  0  0  0  0  0  0  0  0  0  0
  147.9768  135.6251  155.1844 H   0  0  0  0  0  0  0  0  0  0  0  0
  148.6947  132.9695  152.6330 H   0  0  0  0  0  0  0  0  0  0  0  0
  147.1769  132.5390  153.3980 H   0  0  0  0  0  0  0  0  0  0  0  0
  147.4968  133.9475  150.6822 H   0  0  0  0  0  0  0  0  0  0  0  0
  146.9849  132.2894  150.9358 H   0  0  0  0  0  0  0  0  0  0  0  0
  146.0017  135.7341  151.3722 H   0  0  0  0  0  0  0  0  0  0  0  0
  144.4705  135.3042  152.1106 H   0  0  0  0  0  0  0  0  0  0  0  0
  145.6122  134.4408  154.1381 H   0  0  0  0  0  0  0  0  0  0  0  0
  146.1252  136.0919  153.8296 H   0  0  0  0  0  0  0  0  0  0  0  0
  150.8183  136.1561  153.2985 H   0  0  0  0  0  0  0  0  0  0  0  0
  150.2684  138.5691  153.2008 H   0  0  0  0  0  0  0  0  0  0  0  0
  152.5404  137.6595  153.5985 H   0  0  0  0  0  0  0  0  0  0  0  0
  152.6179  138.4563  155.1655 H   0  0  0  0  0  0  0  0  0  0  0  0
  152.5380  139.4146  153.6920 H   0  0  0  0  0  0  0  0  0  0  0  0
  148.8618  140.6519  153.5103 H   0  0  0  0  0  0  0  0  0  0  0  0
  149.6641  141.4708  157.4685 H   0  0  0  0  0  0  0  0  0  0  0  0
  148.0462  135.2577  152.7470 H   0  0  0  0  0  0  0  0  0  0  0  0
  1  2  1  0  0  0  0
  1 20  1  0  0  0  0
  1 21  1  0  0  0  0
  1 22  1  0  0  0  0
  2  3  1  0  0  0  0
  2 10  1  0  0  0  0
  2 23  1  0  0  0  0
  3  4  1  0  0  0  0
  3 24  1  0  0  0  0
  3 25  1  0  0  0  0
  4  9  1  0  0  0  0
  4  5  1  0  0  0  0
  4 41  1  0  0  0  0
  5  6  1  0  0  0  0
  5 26  1  0  0  0  0
  5 27  1  0  0  0  0
  6  7  1  0  0  0  0
  6 28  1  0  0  0  0
  6 29  1  0  0  0  0
  7  8  1  0  0  0  0
  8  9  1  0  0  0  0
  8 30  1  0  0  0  0
  8 31  1  0  0  0  0
  9 32  1  0  0  0  0
  9 33  1  0  0  0  0
 10 11  1  0  0  0  0
 10 34  1  0  0  0  0
 11 12  2  0  0  0  0
 11 13  1  0  0  0  0
 13 14  1  0  0  0  0
 13 15  1  0  0  0  0
 13 35  1  0  0  0  0
 14 36  1  0  0  0  0
 14 37  1  0  0  0  0
 14 38  1  0  0  0  0
 15 19  1  0  0  0  0
 15 16  1  0  0  0  0
 16 17  2  0  0  0  0
 16 39  1  0  0  0  0
 17 18  1  0  0  0  0
 18 19  2  0  0  0  0
 18 40  1  0  0  0  0
M  CHG  1   4   1
M  END
> <s_m_source_file>
AV-unprocessed.smi

> <i_m_source_file_index>
3345

> <i_lp_mmshare_version>
43012

> <i_f3d_flags>
0

> <s_epik_input>
W0NIMl0xW0NIMl1PW0NIMl1bQ0gyXU4xW0NIMl1bQ0BASF0oW0NIM10pW05IXUMoPU8pW0NASF0oW0NIM10pbjJbY0hdbltjSF1uMg==

> <s_epik_cmdline>
J2VwaWtfcHl0aG9uJywgJy1waCcsICc3LjAnLCAnLXRuJywgJzgnLCAnLW1hJywgJzIwMCcsICctbWV0YWxfYmluZGluZycsICctaW1hZScsICc8aW5maWxlLm1hZT4nLCAnLW9tYWUnLCAnPG91dGZpbGUubWFlPic=

> <r_lp_tautomer_probability>
1

> <r_epik_Ionization_Penalty>
0.71326

> <r_epik_Ionization_Penalty_Charging>
0.713252

> <r_epik_Ionization_Penalty_Neutral>
8.27671e-06

> <r_epik_State_Penalty>
0.737017

> <r_epik_Charging_Adjusted_Penalty>
1.45027

> <i_epik_Tot_Q>
1

> <i_epik_Tot_abs_Q>
1

> <r_epik_Metal_State_Penalty>
0.73702

> <b_epik_Metal_Only>
0

> <s_lp_Force_Field>
OPLS_2005

> <r_lp_Energy>
28.084

> <b_lp_Chiralities_Consistent>
1

> <s_lp_Variant>
AV-unprocessed.smi:3345-6

> <Gold.Version>
5.8.1

> <Gold.Id.Protein>
6NUR|6NUR_protein|mol2

> <Gold.PLP.Fitness>
40.6992

> <Gold.PLP.PLP>
-30.0885

> <Gold.PLP.part.hbond>
-3.0000

> <Gold.PLP.part.metal>
0.0000

> <Gold.PLP.part.buried>
-3.3635

> <Gold.PLP.part.nonpolar>
-23.5963

> <Gold.PLP.part.repulsive>
0.3550

> <Gold.PLP.ligand.clash>
0.0000

> <Gold.PLP.ligand.torsion>
0.5504

> <Gold.PLP.Chemscore.Hbond>
2.8500

> <Gold.PLP.Chemscore.CHOScore>
1.0000

> <Gold.PLP.Chemscore.Metal>
0.0000

> <Gold.Chemscore.Hbonds>
donor molecule, donor type, donor heavy atom, donor atom, acceptor molecule, acceptor atom, score
      L1  H     4    41       P1  7948  2.00
      L1  H    10    34       P1  7949  0.65
      L1  C    16    39       P1  7957  0.98

> <Gold.PLP.Chemscore.Internal.Correction>
0.1615

> <Gold.Rescore>
     Score         DG    S(hbond)    S(metal)    S(lipo)     H(rot)  DE(clash)    DE(int)     intcor
      4.89      -7.98       0.99        0.00      50.38       2.61       0.07       3.02       ----

> <Gold.Chemscore.Fitness>
4.8881

> <Gold.Chemscore.DG>
-7.9774

> <Gold.Chemscore.ZeroCoef>
-5.4800

> <Gold.Chemscore.Hbond>
0.9863

> <Gold.Chemscore.Metal>
0.0000

> <Gold.Chemscore.Lipo>
50.3798

> <Gold.Chemscore.Internal_Hbond>
0.0000

> <Gold.Chemscore.DEClash>
0.0710

> <Gold.Chemscore.DEInternal>
3.0182

> <Gold.Chemscore.Rot>
2.6138

> <Gold.Chemscore.Internal.Correction>
   9.000000E+99

> <Gold.Chemscore.Hbonds>
donor molecule, donor type, donor heavy atom, donor atom, acceptor molecule, acceptor atom, score
      L1  H     4    41       P1  7948  0.96
      L1  H    10    34       P1  7949  0.06

> <Gold.Chemscore.Hbond.Weighted>
-3.2942

> <Gold.Chemscore.Metal.Weighted>
-0.0000

> <Gold.Chemscore.Lipo.Weighted>
-5.8944

> <Gold.Chemscore.Internal_Hbond.Weighted>
0.0000

> <Gold.Chemscore.DEClash.Weighted>
0.0710

> <Gold.Chemscore.DEInternal.Weighted>
3.0182

> <Gold.Chemscore.Rot.Weighted>
6.6912

> <Gold.Chemscore.Internal.Correction.Weighted>
   9.000000E+99

> <Gold.Protein.RotatedTorsions>
[ 6907 6896 6895 6894 ] final   54.71 input  -60.11 | X-H torsion
[ 7974 7965 7964 7962 ] final  141.12 input  175.53 | X-H torsion
[ 8008 7997 7996 7995 ] final -113.81 input   59.86 | X-H torsion
[ 10167 10162 10161 10158 ] final -122.52 input  -65.29 | X-H torsion
[ 10718 10713 10712 10709 ] final -134.27 input   66.30 | X-H torsion
[ 10763 10752 10751 10750 ] final  170.20 input  -60.55 | X-H torsion
[ 11005 11000 10999 10996 ] final   20.80 input  -57.11 | X-H torsion

> <Gold.Protein.ActiveResidues>
 VAL166  LYS551  ARG553  GLY616  TRP617  ASP618  TYR619  PRO620  LYS621  CYS622 
 ASP623  PHE694  ASN695  SER759  ASP760  ASP761  ALA762  ILE779  LEU786  VAL792 
 PHE793  MET794  SER795  GLU796  ALA797  LYS798  CYS799  TRP800  GLU811  SER814 

> <Gold.Protein.RotatedAtoms>
  152.3466  134.7063  160.0248 H   0  0  0  0  0  0  0  0  0  0  0  0  # atno 6907 bound_to 6896
  151.7430  133.3317  159.3379 H   0  0  0  0  0  0  0  0  0  0  0  0  # atno 6908 bound_to 6896
  150.7513  134.6194  159.6172 H   0  0  0  0  0  0  0  0  0  0  0  0  # atno 6909 bound_to 6896
  144.9125  139.5274  143.5702 H   0  0  0  0  0  0  0  0  0  0  0  0  # atno 7974 bound_to 7965
  155.0265  140.0393  157.2457 H   0  0  0  0  0  0  0  0  0  0  0  0  # atno 8008 bound_to 7997
  154.7333  140.2735  155.6413 H   0  0  0  0  0  0  0  0  0  0  0  0  # atno 8009 bound_to 7997
  156.2847  140.2680  156.2040 H   0  0  0  0  0  0  0  0  0  0  0  0  # atno 8010 bound_to 7997
  140.0134  143.5418  152.2253 H   0  0  0  0  0  0  0  0  0  0  0  0  # atno 10167 bound_to 10162
  156.2536  130.7168  151.1076 H   0  0  0  0  0  0  0  0  0  0  0  0  # atno 10718 bound_to 10713
  154.3942  135.2754  155.2136 H   0  0  0  0  0  0  0  0  0  0  0  0  # atno 10763 bound_to 10752
  154.4190  135.6004  153.6002 H   0  0  0  0  0  0  0  0  0  0  0  0  # atno 10764 bound_to 10752
  152.9831  135.5968  154.4200 H   0  0  0  0  0  0  0  0  0  0  0  0  # atno 10765 bound_to 10752
  140.3986  134.1743  155.7663 H   0  0  0  0  0  0  0  0  0  0  0  0  # atno 11005 bound_to 11000
  146.3165  139.7942  142.8979 LP  0  0  0  0  0  0  0  0  0  0  0  0  # atno 17320 bound_to 7965
  145.3431  141.0292  143.3381 LP  0  0  0  0  0  0  0  0  0  0  0  0  # atno 17321 bound_to 7965
  139.6189  144.7625  151.2784 LP  0  0  0  0  0  0  0  0  0  0  0  0  # atno 17342 bound_to 10162
  140.7372  143.6685  150.8102 LP  0  0  0  0  0  0  0  0  0  0  0  0  # atno 17343 bound_to 10162
  157.7224  131.0673  150.6079 LP  0  0  0  0  0  0  0  0  0  0  0  0  # atno 17370 bound_to 10713
  156.6161  130.4393  149.5840 LP  0  0  0  0  0  0  0  0  0  0  0  0  # atno 17371 bound_to 10713
  141.1865  133.8301  157.1066 LP  0  0  0  0  0  0  0  0  0  0  0  0  # atno 17394 bound_to 11000
  140.0353  134.9881  157.0859 LP  0  0  0  0  0  0  0  0  0  0  0  0  # atno 17395 bound_to 11000

$$$$
