AV-unprocessed.smi:54|AV-procd|sdf|560|dock6
  -GOLD-   2262016463D 1   1.00000     0.00000
 Structure written by MMmdl.
 43 45  0  0  0  0  0  0  0  0  2 V2000
  145.2757  136.2388  160.3701 C   0  0  0  0  0  0  0  0  0  0  0  0
  146.6136  135.4812  160.3759 C   0  0  0  0  0  0  0  0  0  0  0  0
  146.7737  134.6402  161.6531 C   0  0  0  0  0  0  0  0  0  0  0  0
  147.7900  136.4542  160.2139 C   0  0  0  0  0  0  0  0  0  0  0  0
  148.0112  137.2818  161.1006 O   0  0  0  0  0  0  0  0  0  0  0  0
  148.4934  136.3213  159.0679 N   0  0  0  0  0  0  0  0  0  0  0  0
  149.5913  137.0613  158.6152 C   0  0  0  0  0  0  0  0  0  0  0  0
  149.3454  137.7166  157.5075 N   0  0  0  0  0  0  0  0  0  0  0  0
  150.4354  138.4364  157.0577 C   0  0  0  0  0  0  0  0  0  0  0  0
  151.6782  138.5089  157.6258 C   0  0  0  0  0  0  0  0  0  0  0  0
  152.5258  139.3303  156.8927 N   0  0  0  0  0  0  0  0  0  0  0  0
  151.7369  139.7243  155.8947 C   0  0  0  0  0  0  0  0  0  0  0  0
  150.4794  139.2404  155.9210 N   0  0  0  0  0  0  0  0  0  0  0  0
  149.4007  139.5292  154.9246 C   0  0  1  0  0  0  0  0  0  0  0  0
  148.1907  139.0743  155.4515 O   0  0  0  0  0  0  0  0  0  0  0  0
  147.1853  140.0696  155.3027 C   0  0  1  0  0  0  0  0  0  0  0  0
  146.1257  139.8831  156.4006 C   0  0  0  0  0  0  0  0  0  0  0  0
  145.5103  138.6168  156.2923 O   0  0  0  0  0  0  0  0  0  0  0  0
  147.9654  141.3845  155.3773 C   0  0  2  0  0  0  0  0  0  0  0  0
  147.2772  142.4666  154.7780 O   0  0  0  0  0  0  0  0  0  0  0  0
  149.2792  141.0419  154.6783 C   0  0  2  0  0  0  0  0  0  0  0  0
  149.2424  141.3202  153.2900 O   0  0  0  0  0  0  0  0  0  0  0  0
  151.8944  137.7319  158.8692 C   0  0  0  0  0  0  0  0  0  0  0  0
  152.9970  137.7660  159.4123 O   0  0  0  0  0  0  0  0  0  0  0  0
  150.8138  137.0234  159.3142 N   0  5  0  0  0  0  0  0  0  0  0  0
  149.6809  138.9581  154.0382 H   0  0  0  0  0  0  0  0  0  0  0  0
  146.7437  139.9446  154.3120 H   0  0  0  0  0  0  0  0  0  0  0  0
  148.1664  141.6382  156.4180 H   0  0  0  0  0  0  0  0  0  0  0  0
  150.1214  141.5805  155.1156 H   0  0  0  0  0  0  0  0  0  0  0  0
  145.1670  136.8434  159.4688 H   0  0  0  0  0  0  0  0  0  0  0  0
  145.1870  136.9037  161.2302 H   0  0  0  0  0  0  0  0  0  0  0  0
  144.4355  135.5449  160.4012 H   0  0  0  0  0  0  0  0  0  0  0  0
  146.6125  134.7974  159.5252 H   0  0  0  0  0  0  0  0  0  0  0  0
  147.7263  134.1091  161.6608 H   0  0  0  0  0  0  0  0  0  0  0  0
  145.9830  133.8936  161.7297 H   0  0  0  0  0  0  0  0  0  0  0  0
  146.7305  135.2595  162.5499 H   0  0  0  0  0  0  0  0  0  0  0  0
  148.1272  135.6345  158.4258 H   0  0  0  0  0  0  0  0  0  0  0  0
  152.0848  140.3904  155.1189 H   0  0  0  0  0  0  0  0  0  0  0  0
  146.5928  139.9508  157.3833 H   0  0  0  0  0  0  0  0  0  0  0  0
  145.3670  140.6648  156.3513 H   0  0  0  0  0  0  0  0  0  0  0  0
  146.1487  138.0006  155.9668 H   0  0  0  0  0  0  0  0  0  0  0  0
  147.8511  143.2176  154.7764 H   0  0  0  0  0  0  0  0  0  0  0  0
  149.3737  140.5107  152.8203 H   0  0  0  0  0  0  0  0  0  0  0  0
  1  2  1  0  0  0  0
  1 30  1  0  0  0  0
  1 31  1  0  0  0  0
  1 32  1  0  0  0  0
  2  3  1  0  0  0  0
  2  4  1  0  0  0  0
  2 33  1  0  0  0  0
  3 34  1  0  0  0  0
  3 35  1  0  0  0  0
  3 36  1  0  0  0  0
  4  5  2  0  0  0  0
  4  6  1  0  0  0  0
  6 37  1  0  0  0  0
  6  7  1  0  0  0  0
  7 25  1  0  0  0  0
  7  8  2  0  0  0  0
  8  9  1  0  0  0  0
  9 13  1  0  0  0  0
  9 10  2  0  0  0  0
 10 11  1  0  0  0  0
 10 23  1  0  0  0  0
 11 12  2  0  0  0  0
 12 13  1  0  0  0  0
 12 38  1  0  0  0  0
 13 14  1  0  0  0  0
 14 26  1  0  0  0  0
 14 21  1  0  0  0  0
 14 15  1  0  0  0  0
 15 16  1  0  0  0  0
 16 27  1  0  0  0  0
 16 17  1  0  0  0  0
 16 19  1  0  0  0  0
 17 18  1  0  0  0  0
 17 39  1  0  0  0  0
 17 40  1  0  0  0  0
 18 41  1  0  0  0  0
 19 28  1  0  0  0  0
 19 20  1  0  0  0  0
 19 21  1  0  0  0  0
 20 42  1  0  0  0  0
 21 29  1  0  0  0  0
 21 22  1  0  0  0  0
 22 43  1  0  0  0  0
 23 24  2  0  0  0  0
 23 25  1  0  0  0  0
M  CHG  1  25  -1
M  END
> <s_m_source_file>
AV-unprocessed.smi

> <i_m_source_file_index>
54

> <i_lp_mmshare_version>
43012

> <i_f3d_flags>
0

> <s_epik_input>
W0NIM11bQ0hdKFtDSDNdKUMoPU8pW05IXWMobjEpW25IXWMoPU8pYyhjMTIpbltjSF1uMltDQEBIXTNPW0NASF0oW0NIMl1bT0hdKVtDQEBIXShbT0hdKVtDQEhdM1tPSF0=

> <s_epik_cmdline>
J2VwaWtfcHl0aG9uJywgJy1waCcsICc3LjAnLCAnLXRuJywgJzgnLCAnLW1hJywgJzIwMCcsICctbWV0YWxfYmluZGluZycsICctaW1hZScsICc8aW5maWxlLm1hZT4nLCAnLW9tYWUnLCAnPG91dGZpbGUubWFlPic=

> <r_lp_tautomer_probability>
0.85571

> <r_epik_Ionization_Penalty>
1.75936

> <r_epik_Ionization_Penalty_Charging>
4.55893e-11

> <r_epik_Ionization_Penalty_Neutral>
1.75936

> <r_epik_State_Penalty>
1.72072

> <r_epik_Charging_Adjusted_Penalty>
1.72072

> <i_epik_Tot_Q>
-1

> <i_epik_Tot_abs_Q>
1

> <r_epik_Metal_State_Penalty>
0.400338

> <b_epik_Metal_Only>
1

> <s_epik_Chemistry_Notes>
This compound contains an acetal/aminal-like group ( X-CH(R)-Y where X, Y are N, S, or O) that may be acid/base labile, releasing an aldehyde.

> <s_lp_Force_Field>
OPLS_2005

> <r_lp_Energy>
61.5682

> <b_lp_Chiralities_Consistent>
1

> <s_lp_Variant>
AV-unprocessed.smi:54-32

> <Gold.Version>
5.8.1

> <Gold.Id.Protein>
6NUR|6NUR_protein|mol2

> <Gold.PLP.Fitness>
49.7861

> <Gold.PLP.PLP>
-29.5102

> <Gold.PLP.part.hbond>
-7.7412

> <Gold.PLP.part.metal>
0.0000

> <Gold.PLP.part.buried>
-4.3294

> <Gold.PLP.part.nonpolar>
-17.7685

> <Gold.PLP.part.repulsive>
0.1774

> <Gold.PLP.ligand.clash>
0.0000

> <Gold.PLP.ligand.torsion>
0.8772

> <Gold.PLP.Chemscore.Hbond>
7.3320

> <Gold.PLP.Chemscore.CHOScore>
0.0000

> <Gold.PLP.Chemscore.Metal>
0.0000

> <Gold.Chemscore.Hbonds>
donor molecule, donor type, donor heavy atom, donor atom, acceptor molecule, acceptor atom, score
      L1  H    20    42       P1  8028  1.00
      L1  H    22    43       P1  7957  0.72
      P1  H  6896  6907       L1    25  2.00
      P1  H  6931  6943       L1     5  0.94
      P1  H  6934  6947       L1     5  0.69
      P1  H  7997  8009       L1    11  1.00
      P1  H  8011  8017       L1    22  1.00

> <Gold.PLP.Chemscore.Internal.Correction>
0.0343

> <Gold.Rescore>
     Score         DG    S(hbond)    S(metal)    S(lipo)     H(rot)  DE(clash)    DE(int)     intcor
     14.56     -17.21       5.41        0.00      33.70       4.02       0.06       2.58       ----

> <Gold.Chemscore.Fitness>
14.5637

> <Gold.Chemscore.DG>
-17.2116

> <Gold.Chemscore.ZeroCoef>
-5.4800

> <Gold.Chemscore.Hbond>
5.4126

> <Gold.Chemscore.Metal>
0.0000

> <Gold.Chemscore.Lipo>
33.6979

> <Gold.Chemscore.Internal_Hbond>
0.0000

> <Gold.Chemscore.DEClash>
0.0637

> <Gold.Chemscore.DEInternal>
2.5842

> <Gold.Chemscore.Rot>
4.0192

> <Gold.Chemscore.Internal.Correction>
   9.000000E+99

> <Gold.Chemscore.Hbonds>
donor molecule, donor type, donor heavy atom, donor atom, acceptor molecule, acceptor atom, score
      L1  H    20    42       P1  8028  0.71
      L1  H    22    43       P1  7957  0.72
      P1  H  6896  6907       L1    25  0.57
      P1  H  6931  6943       L1     5  0.90
      P1  H  6934  6947       L1     5  0.67
      P1  H  7997  8009       L1    11  0.62
      P1  H  8011  8017       L1    22  0.41

> <Gold.Chemscore.Hbond.Weighted>
-18.0782

> <Gold.Chemscore.Metal.Weighted>
-0.0000

> <Gold.Chemscore.Lipo.Weighted>
-3.9427

> <Gold.Chemscore.Internal_Hbond.Weighted>
0.0000

> <Gold.Chemscore.DEClash.Weighted>
0.0637

> <Gold.Chemscore.DEInternal.Weighted>
2.5842

> <Gold.Chemscore.Rot.Weighted>
10.2893

> <Gold.Chemscore.Internal.Correction.Weighted>
   9.000000E+99

> <Gold.Protein.RotatedTorsions>
[ 6907 6896 6895 6894 ] final  -24.49 input  -60.11 | X-H torsion
[ 7974 7965 7964 7962 ] final  -53.91 input  175.53 | X-H torsion
[ 8008 7997 7996 7995 ] final -176.76 input   59.86 | X-H torsion
[ 10167 10162 10161 10158 ] final  -26.92 input  -65.29 | X-H torsion
[ 10718 10713 10712 10709 ] final  117.96 input   66.30 | X-H torsion
[ 10763 10752 10751 10750 ] final  128.58 input  -60.55 | X-H torsion
[ 11005 11000 10999 10996 ] final    6.51 input  -57.11 | X-H torsion

> <Gold.Protein.ActiveResidues>
 VAL166  LYS551  ARG553  GLY616  TRP617  ASP618  TYR619  PRO620  LYS621  CYS622 
 ASP623  PHE694  ASN695  SER759  ASP760  ASP761  ALA762  ILE779  LEU786  VAL792 
 PHE793  MET794  SER795  GLU796  ALA797  LYS798  CYS799  TRP800  GLU811  SER814 

> <Gold.Protein.RotatedAtoms>
  151.1888  135.0393  159.8823 H   0  0  0  0  0  0  0  0  0  0  0  0  # atno 6907 bound_to 6896
  152.5440  134.0979  159.8315 H   0  0  0  0  0  0  0  0  0  0  0  0  # atno 6908 bound_to 6896
  151.1105  133.5129  159.2638 H   0  0  0  0  0  0  0  0  0  0  0  0  # atno 6909 bound_to 6896
  145.8915  140.8067  142.9789 H   0  0  0  0  0  0  0  0  0  0  0  0  # atno 7974 bound_to 7965
  155.9988  140.1216  157.0568 H   0  0  0  0  0  0  0  0  0  0  0  0  # atno 8008 bound_to 7997
  154.4235  140.1111  156.5736 H   0  0  0  0  0  0  0  0  0  0  0  0  # atno 8009 bound_to 7997
  155.6242  140.3472  155.4664 H   0  0  0  0  0  0  0  0  0  0  0  0  # atno 8010 bound_to 7997
  140.7280  143.4137  151.1064 H   0  0  0  0  0  0  0  0  0  0  0  0  # atno 10167 bound_to 10162
  157.6062  131.1043  150.7689 H   0  0  0  0  0  0  0  0  0  0  0  0  # atno 10718 bound_to 10713
  153.7278  135.3243  155.3280 H   0  0  0  0  0  0  0  0  0  0  0  0  # atno 10763 bound_to 10752
  154.8335  135.4515  154.1152 H   0  0  0  0  0  0  0  0  0  0  0  0  # atno 10764 bound_to 10752
  153.2291  135.6957  153.7991 H   0  0  0  0  0  0  0  0  0  0  0  0  # atno 10765 bound_to 10752
  140.5587  134.0213  155.7963 H   0  0  0  0  0  0  0  0  0  0  0  0  # atno 11005 bound_to 11000
  144.6731  140.1537  143.7428 LP  0  0  0  0  0  0  0  0  0  0  0  0  # atno 17320 bound_to 7965
  145.8902  139.2371  143.1554 LP  0  0  0  0  0  0  0  0  0  0  0  0  # atno 17321 bound_to 7965
  139.7773  143.8406  152.3131 LP  0  0  0  0  0  0  0  0  0  0  0  0  # atno 17342 bound_to 10162
  139.8345  144.7238  150.9408 LP  0  0  0  0  0  0  0  0  0  0  0  0  # atno 17343 bound_to 10162
  156.8076  130.4942  149.5360 LP  0  0  0  0  0  0  0  0  0  0  0  0  # atno 17370 bound_to 10713
  156.1149  130.6067  151.0105 LP  0  0  0  0  0  0  0  0  0  0  0  0  # atno 17371 bound_to 10713
  141.1128  133.9589  157.2879 LP  0  0  0  0  0  0  0  0  0  0  0  0  # atno 17394 bound_to 11000
  139.9419  135.0190  156.8733 LP  0  0  0  0  0  0  0  0  0  0  0  0  # atno 17395 bound_to 11000

$$$$
