AV-unprocessed.smi:1087|AV-procd|sdf|4725|dock2
  -GOLD-   22720 3253D 1   1.00000     0.00000
 Structure written by MMmdl.
 47 48  0  0  0  0  0  0  0  0  2 V2000
  144.2328  132.6663  149.7724 C   0  0  0  0  0  0  0  0  0  0  0  0
  144.0137  133.5261  150.8771 O   0  0  0  0  0  0  0  0  0  0  0  0
  145.1927  134.2017  151.2816 C   0  0  0  0  0  0  0  0  0  0  0  0
  146.1274  133.2002  151.9779 C   0  0  0  0  0  0  0  0  0  0  0  0
  147.1715  133.8671  152.7974 N   0  3  2  0  0  0  0  0  0  0  0  0
  148.1660  132.9008  153.3309 C   0  0  0  0  0  0  0  0  0  0  0  0
  149.3119  133.6233  154.0586 C   0  0  0  0  0  0  0  0  0  0  0  0
  148.7805  134.5153  155.1926 C   0  0  1  0  0  0  0  0  0  0  0  0
  149.9317  135.2404  155.9241 C   0  0  0  0  0  0  0  0  0  0  0  0
  150.5917  136.2296  155.0791 N   0  0  0  0  0  0  0  0  0  0  0  0
  151.7587  136.8279  155.3604 C   0  0  0  0  0  0  0  0  0  0  0  0
  152.4379  136.5525  156.3501 O   0  0  0  0  0  0  0  0  0  0  0  0
  152.2271  137.8990  154.3668 C   0  0  0  0  0  0  0  0  0  0  0  0
  151.6727  139.2292  154.6657 N   0  0  0  0  0  0  0  0  0  0  0  0
  150.6295  139.6987  153.8501 C   0  0  0  0  0  0  0  0  0  0  0  0
  150.0810  140.9040  154.0599 C   0  0  0  0  0  0  0  0  0  0  0  0
  150.6303  141.6863  155.1747 C   0  0  0  0  0  0  0  0  0  0  0  0
  151.5832  141.2629  155.9183 N   0  0  0  0  0  0  0  0  0  0  0  0
  152.1587  139.9977  155.6950 C   0  0  0  0  0  0  0  0  0  0  0  0
  153.0788  139.5865  156.4030 O   0  0  0  0  0  0  0  0  0  0  0  0
  147.7306  135.4847  154.6146 C   0  0  0  0  0  0  0  0  0  0  0  0
  146.6154  134.7261  153.8764 C   0  0  0  0  0  0  0  0  0  0  0  0
  143.2996  132.1726  149.5014 H   0  0  0  0  0  0  0  0  0  0  0  0
  144.9642  131.8936  150.0129 H   0  0  0  0  0  0  0  0  0  0  0  0
  144.5842  133.2224  148.9024 H   0  0  0  0  0  0  0  0  0  0  0  0
  145.6765  134.6782  150.4290 H   0  0  0  0  0  0  0  0  0  0  0  0
  144.9320  134.9960  151.9824 H   0  0  0  0  0  0  0  0  0  0  0  0
  145.5536  132.5156  152.6041 H   0  0  0  0  0  0  0  0  0  0  0  0
  146.5979  132.5883  151.2070 H   0  0  0  0  0  0  0  0  0  0  0  0
  147.6704  132.2023  154.0074 H   0  0  0  0  0  0  0  0  0  0  0  0
  148.5816  132.3103  152.5135 H   0  0  0  0  0  0  0  0  0  0  0  0
  150.0104  132.8876  154.4592 H   0  0  0  0  0  0  0  0  0  0  0  0
  149.8746  134.2264  153.3445 H   0  0  0  0  0  0  0  0  0  0  0  0
  148.2779  133.8666  155.9118 H   0  0  0  0  0  0  0  0  0  0  0  0
  149.5622  135.7245  156.8297 H   0  0  0  0  0  0  0  0  0  0  0  0
  150.6830  134.5186  156.2462 H   0  0  0  0  0  0  0  0  0  0  0  0
  150.1085  136.5060  154.2366 H   0  0  0  0  0  0  0  0  0  0  0  0
  153.3175  137.9207  154.3806 H   0  0  0  0  0  0  0  0  0  0  0  0
  151.9571  137.6085  153.3496 H   0  0  0  0  0  0  0  0  0  0  0  0
  150.3177  139.0325  153.0590 H   0  0  0  0  0  0  0  0  0  0  0  0
  149.2807  141.3253  153.4698 H   0  0  0  0  0  0  0  0  0  0  0  0
  150.1693  142.6650  155.3308 H   0  0  0  0  0  0  0  0  0  0  0  0
  147.2851  136.0834  155.4096 H   0  0  0  0  0  0  0  0  0  0  0  0
  148.2104  136.1867  153.9313 H   0  0  0  0  0  0  0  0  0  0  0  0
  145.9144  135.4507  153.4641 H   0  0  0  0  0  0  0  0  0  0  0  0
  146.0538  134.1106  154.5815 H   0  0  0  0  0  0  0  0  0  0  0  0
  147.6795  134.4736  152.1691 H   0  0  0  0  0  0  0  0  0  0  0  0
  1  2  1  0  0  0  0
  1 23  1  0  0  0  0
  1 24  1  0  0  0  0
  1 25  1  0  0  0  0
  2  3  1  0  0  0  0
  3  4  1  0  0  0  0
  3 26  1  0  0  0  0
  3 27  1  0  0  0  0
  4  5  1  0  0  0  0
  4 28  1  0  0  0  0
  4 29  1  0  0  0  0
  5 22  1  0  0  0  0
  5  6  1  0  0  0  0
  5 47  1  0  0  0  0
  6  7  1  0  0  0  0
  6 30  1  0  0  0  0
  6 31  1  0  0  0  0
  7  8  1  0  0  0  0
  7 32  1  0  0  0  0
  7 33  1  0  0  0  0
  8  9  1  0  0  0  0
  8 21  1  0  0  0  0
  8 34  1  0  0  0  0
  9 10  1  0  0  0  0
  9 35  1  0  0  0  0
  9 36  1  0  0  0  0
 10 11  1  0  0  0  0
 10 37  1  0  0  0  0
 11 12  2  0  0  0  0
 11 13  1  0  0  0  0
 13 14  1  0  0  0  0
 13 38  1  0  0  0  0
 13 39  1  0  0  0  0
 14 19  1  0  0  0  0
 14 15  1  0  0  0  0
 15 16  2  0  0  0  0
 15 40  1  0  0  0  0
 16 17  1  0  0  0  0
 16 41  1  0  0  0  0
 17 18  2  0  0  0  0
 17 42  1  0  0  0  0
 18 19  1  0  0  0  0
 19 20  2  0  0  0  0
 21 22  1  0  0  0  0
 21 43  1  0  0  0  0
 21 44  1  0  0  0  0
 22 45  1  0  0  0  0
 22 46  1  0  0  0  0
M  CHG  1   5   1
M  END
> <s_m_source_file>
AV-unprocessed.smi

> <i_m_source_file_index>
1087

> <i_lp_mmshare_version>
43012

> <i_f3d_flags>
0

> <s_epik_input>
W0NIM11PW0NIMl1bQ0gyXU4xW0NIMl1bQ0gyXVtDSF0oW0NIMl1bQ0gyXTEpW0NIMl1bTkhdQyg9TylbQ0gyXW4yW2NIXVtjSF1bY0hdbmMyPU8=

> <s_epik_cmdline>
J2VwaWtfcHl0aG9uJywgJy1waCcsICc3LjAnLCAnLXRuJywgJzgnLCAnLW1hJywgJzIwMCcsICctbWV0YWxfYmluZGluZycsICctaW1hZScsICc8aW5maWxlLm1hZT4nLCAnLW9tYWUnLCAnPG91dGZpbGUubWFlPic=

> <r_lp_tautomer_probability>
1

> <r_epik_Ionization_Penalty>
0.00982698

> <r_epik_Ionization_Penalty_Charging>
0.00982062

> <r_epik_Ionization_Penalty_Neutral>
6.35787e-06

> <r_epik_State_Penalty>
0.00747828

> <r_epik_Charging_Adjusted_Penalty>
0.0172989

> <i_epik_Tot_Q>
1

> <i_epik_Tot_abs_Q>
1

> <r_epik_Metal_State_Penalty>
0.00747829

> <b_epik_Metal_Only>
0

> <s_lp_Force_Field>
OPLS_2005

> <r_lp_Energy>
21.8948

> <b_lp_Chiralities_Consistent>
1

> <s_lp_Variant>
AV-unprocessed.smi:1087-1

> <Gold.Version>
5.8.1

> <Gold.Id.Protein>
6NUR|6NUR_protein|mol2

> <Gold.PLP.Fitness>
53.9164

> <Gold.PLP.PLP>
-37.8401

> <Gold.PLP.part.hbond>
-3.0000

> <Gold.PLP.part.metal>
0.0000

> <Gold.PLP.part.buried>
-0.0217

> <Gold.PLP.part.nonpolar>
-33.9031

> <Gold.PLP.part.repulsive>
0.2876

> <Gold.PLP.ligand.clash>
0.0000

> <Gold.PLP.ligand.torsion>
0.7819

> <Gold.PLP.Chemscore.Hbond>
3.8064

> <Gold.PLP.Chemscore.CHOScore>
1.9837

> <Gold.PLP.Chemscore.Metal>
0.0000

> <Gold.Chemscore.Hbonds>
donor molecule, donor type, donor heavy atom, donor atom, acceptor molecule, acceptor atom, score
      L1  H     5    47       P1  7948  1.43
      P1  H  7997  8009       L1    20  0.59
      P1  H 10752 10763       L1    12  0.46
      L1  C    15    40       P1  7957  0.72
      L1  C    17    42       P1  8028  1.00

> <Gold.PLP.Chemscore.Internal.Correction>
0.2696

> <Gold.Rescore>
     Score         DG    S(hbond)    S(metal)    S(lipo)     H(rot)  DE(clash)    DE(int)     intcor
     13.44     -14.32       1.90        0.00      74.93       2.45       0.12       0.76       ----

> <Gold.Chemscore.Fitness>
13.4386

> <Gold.Chemscore.DG>
-14.3166

> <Gold.Chemscore.ZeroCoef>
-5.4800

> <Gold.Chemscore.Hbond>
1.8954

> <Gold.Chemscore.Metal>
0.0000

> <Gold.Chemscore.Lipo>
74.9262

> <Gold.Chemscore.Internal_Hbond>
0.0000

> <Gold.Chemscore.DEClash>
0.1172

> <Gold.Chemscore.DEInternal>
0.7608

> <Gold.Chemscore.Rot>
2.4454

> <Gold.Chemscore.Internal.Correction>
   9.000000E+99

> <Gold.Chemscore.Hbonds>
donor molecule, donor type, donor heavy atom, donor atom, acceptor molecule, acceptor atom, score
      L1  H     5    47       P1  7948  0.34
      P1  H  7997  8009       L1    20  0.58
      P1  H 10752 10763       L1    12  0.02

> <Gold.Chemscore.Hbond.Weighted>
-6.3305

> <Gold.Chemscore.Metal.Weighted>
-0.0000

> <Gold.Chemscore.Lipo.Weighted>
-8.7664

> <Gold.Chemscore.Internal_Hbond.Weighted>
0.0000

> <Gold.Chemscore.DEClash.Weighted>
0.1172

> <Gold.Chemscore.DEInternal.Weighted>
0.7608

> <Gold.Chemscore.Rot.Weighted>
6.2603

> <Gold.Chemscore.Internal.Correction.Weighted>
   9.000000E+99

> <Gold.Protein.RotatedTorsions>
[ 6907 6896 6895 6894 ] final   84.47 input  -60.11 | X-H torsion
[ 7974 7965 7964 7962 ] final   41.96 input  175.53 | X-H torsion
[ 8008 7997 7996 7995 ] final -163.13 input   59.86 | X-H torsion
[ 10167 10162 10161 10158 ] final   25.65 input  -65.29 | X-H torsion
[ 10718 10713 10712 10709 ] final  155.20 input   66.30 | X-H torsion
[ 10763 10752 10751 10750 ] final  115.46 input  -60.55 | X-H torsion
[ 11005 11000 10999 10996 ] final   89.23 input  -57.11 | X-H torsion

> <Gold.Protein.ActiveResidues>
 VAL166  LYS551  ARG553  GLY616  TRP617  ASP618  TYR619  PRO620  LYS621  CYS622 
 ASP623  PHE694  ASN695  SER759  ASP760  ASP761  ALA762  ILE779  LEU786  VAL792 
 PHE793  MET794  SER795  GLU796  ALA797  LYS798  CYS799  TRP800  GLU811  SER814 

> <Gold.Protein.RotatedAtoms>
  152.5353  134.2735  159.8980 H   0  0  0  0  0  0  0  0  0  0  0  0  # atno 6907 bound_to 6896
  151.2691  133.4257  159.2628 H   0  0  0  0  0  0  0  0  0  0  0  0  # atno 6908 bound_to 6896
  151.0383  134.9604  159.8205 H   0  0  0  0  0  0  0  0  0  0  0  0  # atno 6909 bound_to 6896
  146.0780  139.5356  142.9555 H   0  0  0  0  0  0  0  0  0  0  0  0  # atno 7974 bound_to 7965
  155.8168  140.0913  157.1872 H   0  0  0  0  0  0  0  0  0  0  0  0  # atno 8008 bound_to 7997
  154.3979  140.1444  156.3512 H   0  0  0  0  0  0  0  0  0  0  0  0  # atno 8009 bound_to 7997
  155.8307  140.3443  155.5573 H   0  0  0  0  0  0  0  0  0  0  0  0  # atno 8010 bound_to 7997
  140.5088  144.0194  150.6364 H   0  0  0  0  0  0  0  0  0  0  0  0  # atno 10167 bound_to 10162
  157.2215  131.0719  151.1909 H   0  0  0  0  0  0  0  0  0  0  0  0  # atno 10718 bound_to 10713
  153.5225  135.3595  155.2638 H   0  0  0  0  0  0  0  0  0  0  0  0  # atno 10763 bound_to 10752
  154.8734  135.4049  154.3243 H   0  0  0  0  0  0  0  0  0  0  0  0  # atno 10764 bound_to 10752
  153.3916  135.7072  153.6557 H   0  0  0  0  0  0  0  0  0  0  0  0  # atno 10765 bound_to 10752
  139.8880  134.8538  156.3112 H   0  0  0  0  0  0  0  0  0  0  0  0  # atno 11005 bound_to 11000
  145.6270  141.0311  143.1884 LP  0  0  0  0  0  0  0  0  0  0  0  0  # atno 17320 bound_to 7965
  144.7274  139.7831  143.7360 LP  0  0  0  0  0  0  0  0  0  0  0  0  # atno 17321 bound_to 7965
  140.3511  143.2963  152.0486 LP  0  0  0  0  0  0  0  0  0  0  0  0  # atno 17342 bound_to 10162
  139.4891  144.6373  151.6949 LP  0  0  0  0  0  0  0  0  0  0  0  0  # atno 17343 bound_to 10162
  157.3571  130.7112  149.6478 LP  0  0  0  0  0  0  0  0  0  0  0  0  # atno 17370 bound_to 10713
  155.9682  130.4236  150.4570 LP  0  0  0  0  0  0  0  0  0  0  0  0  # atno 17371 bound_to 10713
  140.9849  133.7244  156.0727 LP  0  0  0  0  0  0  0  0  0  0  0  0  # atno 17394 bound_to 11000
  140.7701  134.3842  157.5509 LP  0  0  0  0  0  0  0  0  0  0  0  0  # atno 17395 bound_to 11000

$$$$
