AV-unprocessed.smi:2760|AV-procd|sdf|10630|dock5
  -GOLD-   2272015 83D 1   1.00000     0.00000
 Structure written by MMmdl.
 31 32  0  0  0  0  0  0  0  0  2 V2000
  152.8996  139.5983  154.7687 O   0  0  0  0  0  0  0  0  0  0  0  0
  151.8173  139.2526  155.2381 C   0  0  0  0  0  0  0  0  0  0  0  0
  150.6074  139.9931  154.8819 C   0  0  0  0  0  0  0  0  0  0  0  0
  149.4178  139.6061  155.4070 C   0  0  0  0  0  0  0  0  0  0  0  0
  148.1501  140.3206  155.0755 C   0  0  0  0  0  0  0  0  0  0  0  0
  147.5945  140.3170  153.6689 C   0  0  0  0  0  0  0  0  0  0  0  0
  148.1215  141.5996  154.2643 C   0  0  0  0  0  0  0  0  0  0  0  0
  149.3530  138.5014  156.2777 N   0  0  0  0  0  0  0  0  0  0  0  0
  150.4238  137.8660  156.5741 C   0  0  0  0  0  0  0  0  0  0  0  0
  150.2631  136.4581  157.6891 S   0  0  0  0  0  0  0  0  0  0  0  0
  149.6002  137.1699  159.2240 C   0  0  0  0  0  0  0  0  0  0  0  0
  148.1684  136.6933  159.4828 C   0  0  0  0  0  0  0  0  0  0  0  0
  147.7618  137.1206  160.7719 O   0  0  0  0  0  0  0  0  0  0  0  0
  146.5772  136.4765  161.2133 C   0  0  0  0  0  0  0  0  0  0  0  0
  146.9367  135.3360  162.1731 C   0  0  0  0  0  0  0  0  0  0  0  0
  145.8176  134.8208  162.6807 F   0  0  0  0  0  0  0  0  0  0  0  0
  147.5931  134.3745  161.5241 F   0  0  0  0  0  0  0  0  0  0  0  0
  147.6880  135.7944  163.1737 F   0  0  0  0  0  0  0  0  0  0  0  0
  151.6732  138.1971  156.0900 N   0  5  0  0  0  0  0  0  0  0  0  0
  150.6683  140.8366  154.2099 H   0  0  0  0  0  0  0  0  0  0  0  0
  147.4188  140.2562  155.8794 H   0  0  0  0  0  0  0  0  0  0  0  0
  148.1879  139.8457  152.8877 H   0  0  0  0  0  0  0  0  0  0  0  0
  146.5169  140.2194  153.5571 H   0  0  0  0  0  0  0  0  0  0  0  0
  147.3928  142.3554  154.5490 H   0  0  0  0  0  0  0  0  0  0  0  0
  149.0584  141.9869  153.8690 H   0  0  0  0  0  0  0  0  0  0  0  0
  149.6251  138.2579  159.1520 H   0  0  0  0  0  0  0  0  0  0  0  0
  150.2408  136.8825  160.0583 H   0  0  0  0  0  0  0  0  0  0  0  0
  147.4955  137.0998  158.7261 H   0  0  0  0  0  0  0  0  0  0  0  0
  148.1217  135.6052  159.4169 H   0  0  0  0  0  0  0  0  0  0  0  0
  145.9269  137.1936  161.7170 H   0  0  0  0  0  0  0  0  0  0  0  0
  146.0275  136.0820  160.3574 H   0  0  0  0  0  0  0  0  0  0  0  0
  1  2  2  0  0  0  0
  2 19  1  0  0  0  0
  2  3  1  0  0  0  0
  3 20  1  0  0  0  0
  3  4  2  0  0  0  0
  4  5  1  0  0  0  0
  4  8  1  0  0  0  0
  5  7  1  0  0  0  0
  5  6  1  0  0  0  0
  5 21  1  0  0  0  0
  6  7  1  0  0  0  0
  6 22  1  0  0  0  0
  6 23  1  0  0  0  0
  7 24  1  0  0  0  0
  7 25  1  0  0  0  0
  8  9  2  0  0  0  0
  9 10  1  0  0  0  0
  9 19  1  0  0  0  0
 10 11  1  0  0  0  0
 11 12  1  0  0  0  0
 11 26  1  0  0  0  0
 11 27  1  0  0  0  0
 12 13  1  0  0  0  0
 12 28  1  0  0  0  0
 12 29  1  0  0  0  0
 13 14  1  0  0  0  0
 14 15  1  0  0  0  0
 14 30  1  0  0  0  0
 14 31  1  0  0  0  0
 15 16  1  0  0  0  0
 15 17  1  0  0  0  0
 15 18  1  0  0  0  0
M  CHG  1  19  -1
M  END
> <s_m_source_file>
AV-unprocessed.smi

> <i_m_source_file_index>
2760

> <i_lp_mmshare_version>
43012

> <i_f3d_flags>
0

> <s_epik_input>
W09IXWMxW2NIXWMoW0NIXTJbQ0gyXVtDSDJdMiluYyhuMSlTW0NIMl1bQ0gyXU9bQ0gyXUMoRikoRilG

> <s_epik_cmdline>
J2VwaWtfcHl0aG9uJywgJy1waCcsICc3LjAnLCAnLXRuJywgJzgnLCAnLW1hJywgJzIwMCcsICctbWV0YWxfYmluZGluZycsICctaW1hZScsICc8aW5maWxlLm1hZT4nLCAnLW9tYWUnLCAnPG91dGZpbGUubWFlPic=

> <r_lp_tautomer_probability>
1

> <r_epik_Ionization_Penalty>
4.02042

> <r_epik_Ionization_Penalty_Charging>
0.00362968

> <r_epik_Ionization_Penalty_Neutral>
4.01679

> <r_epik_State_Penalty>
2.30798

> <r_epik_Charging_Adjusted_Penalty>
2.31161

> <i_epik_Tot_Q>
-1

> <i_epik_Tot_abs_Q>
1

> <r_epik_Metal_State_Penalty>
0.234281

> <b_epik_Metal_Only>
0

> <s_lp_Force_Field>
OPLS_2005

> <r_lp_Energy>
16.4735

> <b_lp_Chiralities_Consistent>
1

> <s_lp_Variant>
AV-unprocessed.smi:2760-3

> <Gold.Version>
5.8.1

> <Gold.Id.Protein>
6NUR|6NUR_protein|mol2

> <Gold.PLP.Fitness>
41.6827

> <Gold.PLP.PLP>
-34.5342

> <Gold.PLP.part.hbond>
-4.0000

> <Gold.PLP.part.metal>
0.0000

> <Gold.PLP.part.buried>
-3.0120

> <Gold.PLP.part.nonpolar>
-28.9876

> <Gold.PLP.part.repulsive>
0.0260

> <Gold.PLP.ligand.clash>
0.0000

> <Gold.PLP.ligand.torsion>
0.7974

> <Gold.PLP.Chemscore.Hbond>
2.8429

> <Gold.PLP.Chemscore.CHOScore>
0.0000

> <Gold.PLP.Chemscore.Metal>
0.0000

> <Gold.Chemscore.Hbonds>
donor molecule, donor type, donor heavy atom, donor atom, acceptor molecule, acceptor atom, score
      P1  H  6931  6943       L1    13  0.84
      P1  H  6934  6947       L1    13  0.90
      P1  H  7989  7998       L1     1  0.06
      P1  H  7997  8008       L1     1  1.00

> <Gold.PLP.Chemscore.Internal.Correction>
0.2144

> <Gold.Rescore>
     Score         DG    S(hbond)    S(metal)    S(lipo)     H(rot)  DE(clash)    DE(int)     intcor
     11.69     -12.52       1.98        0.00      58.08       2.48       0.04       0.78       ----

> <Gold.Chemscore.Fitness>
11.6900

> <Gold.Chemscore.DG>
-12.5159

> <Gold.Chemscore.ZeroCoef>
-5.4800

> <Gold.Chemscore.Hbond>
1.9753

> <Gold.Chemscore.Metal>
0.0000

> <Gold.Chemscore.Lipo>
58.0807

> <Gold.Chemscore.Internal_Hbond>
0.0000

> <Gold.Chemscore.DEClash>
0.0411

> <Gold.Chemscore.DEInternal>
0.7848

> <Gold.Chemscore.Rot>
2.4833

> <Gold.Chemscore.Internal.Correction>
   9.000000E+99

> <Gold.Chemscore.Hbonds>
donor molecule, donor type, donor heavy atom, donor atom, acceptor molecule, acceptor atom, score
      P1  H  6931  6943       L1    13  0.75
      P1  H  6934  6947       L1    13  0.20
      P1  H  7997  8008       L1     1  0.96

> <Gold.Chemscore.Hbond.Weighted>
-6.5977

> <Gold.Chemscore.Metal.Weighted>
-0.0000

> <Gold.Chemscore.Lipo.Weighted>
-6.7954

> <Gold.Chemscore.Internal_Hbond.Weighted>
0.0000

> <Gold.Chemscore.DEClash.Weighted>
0.0411

> <Gold.Chemscore.DEInternal.Weighted>
0.7848

> <Gold.Chemscore.Rot.Weighted>
6.3572

> <Gold.Chemscore.Internal.Correction.Weighted>
   9.000000E+99

> <Gold.Protein.RotatedTorsions>
[ 6907 6896 6895 6894 ] final  -84.43 input  -60.11 | X-H torsion
[ 7974 7965 7964 7962 ] final -118.61 input  175.53 | X-H torsion
[ 8008 7997 7996 7995 ] final  -14.43 input   59.86 | X-H torsion
[ 10167 10162 10161 10158 ] final   -7.60 input  -65.29 | X-H torsion
[ 10718 10713 10712 10709 ] final   72.34 input   66.30 | X-H torsion
[ 10763 10752 10751 10750 ] final  -83.33 input  -60.55 | X-H torsion
[ 11005 11000 10999 10996 ] final  -57.69 input  -57.11 | X-H torsion

> <Gold.Protein.ActiveResidues>
 VAL166  LYS551  ARG553  GLY616  TRP617  ASP618  TYR619  PRO620  LYS621  CYS622 
 ASP623  PHE694  ASN695  SER759  ASP760  ASP761  ALA762  ILE779  LEU786  VAL792 
 PHE793  MET794  SER795  GLU796  ALA797  LYS798  CYS799  TRP800  GLU811  SER814 

> <Gold.Protein.RotatedAtoms>
  150.6876  134.3359  159.4846 H   0  0  0  0  0  0  0  0  0  0  0  0  # atno 6907 bound_to 6896
  152.1218  134.9197  160.0572 H   0  0  0  0  0  0  0  0  0  0  0  0  # atno 6908 bound_to 6896
  152.0400  133.3938  159.4370 H   0  0  0  0  0  0  0  0  0  0  0  0  # atno 6909 bound_to 6896
  145.0718  140.8364  143.4091 H   0  0  0  0  0  0  0  0  0  0  0  0  # atno 7974 bound_to 7965
  154.5211  140.2223  155.8974 H   0  0  0  0  0  0  0  0  0  0  0  0  # atno 8008 bound_to 7997
  156.1663  140.3131  155.8859 H   0  0  0  0  0  0  0  0  0  0  0  0  # atno 8009 bound_to 7997
  155.3650  140.0463  157.3037 H   0  0  0  0  0  0  0  0  0  0  0  0  # atno 8010 bound_to 7997
  140.7034  143.6062  150.8748 H   0  0  0  0  0  0  0  0  0  0  0  0  # atno 10167 bound_to 10162
  157.6496  130.9574  150.0915 H   0  0  0  0  0  0  0  0  0  0  0  0  # atno 10718 bound_to 10713
  154.5864  135.5560  153.7235 H   0  0  0  0  0  0  0  0  0  0  0  0  # atno 10763 bound_to 10752
  153.0100  135.6332  154.1911 H   0  0  0  0  0  0  0  0  0  0  0  0  # atno 10764 bound_to 10752
  154.1852  135.2885  155.3019 H   0  0  0  0  0  0  0  0  0  0  0  0  # atno 10765 bound_to 10752
  141.1175  133.6611  156.4807 H   0  0  0  0  0  0  0  0  0  0  0  0  # atno 11005 bound_to 11000
  145.1283  139.2648  143.5552 LP  0  0  0  0  0  0  0  0  0  0  0  0  # atno 17320 bound_to 7965
  146.3529  140.0927  142.8612 LP  0  0  0  0  0  0  0  0  0  0  0  0  # atno 17321 bound_to 7965
  139.9786  143.5976  152.2950 LP  0  0  0  0  0  0  0  0  0  0  0  0  # atno 17342 bound_to 10162
  139.6589  144.7662  151.2001 LP  0  0  0  0  0  0  0  0  0  0  0  0  # atno 17343 bound_to 10162
  156.1863  130.3652  149.8968 LP  0  0  0  0  0  0  0  0  0  0  0  0  # atno 17370 bound_to 10713
  156.6908  130.8895  151.3588 LP  0  0  0  0  0  0  0  0  0  0  0  0  # atno 17371 bound_to 10713
  140.4603  134.6848  157.5082 LP  0  0  0  0  0  0  0  0  0  0  0  0  # atno 17394 bound_to 11000
  140.0108  134.6693  155.9383 LP  0  0  0  0  0  0  0  0  0  0  0  0  # atno 17395 bound_to 11000

$$$$
