AV-unprocessed.smi:2525|AV-procd|sdf|9928|dock3
  -GOLD-   2272013573D 1   1.00000     0.00000
 Structure written by MMmdl.
 44 45  0  0  0  0  0  0  0  0  1 V2000
  148.4743  139.0698  157.2900 C   0  0  0  0  0  0  0  0  0  0  0  0
  148.1009  140.2054  156.3190 C   0  0  0  0  0  0  0  0  0  0  0  0
  149.1405  140.5549  155.2140 C   0  0  0  0  0  0  0  0  0  0  0  0
  148.6181  141.7246  154.3574 C   0  0  0  0  0  0  0  0  0  0  0  0
  147.1432  141.6062  153.9426 C   0  0  0  0  0  0  0  0  0  0  0  0
  150.6329  140.6698  155.6366 C   0  0  1  0  0  0  0  0  0  0  0  0
  150.8682  141.0189  157.0331 N   0  0  0  0  0  0  0  0  0  0  0  0
  151.9349  140.6275  157.7446 C   0  0  0  0  0  0  0  0  0  0  0  0
  152.8366  139.9300  157.2774 O   0  0  0  0  0  0  0  0  0  0  0  0
  151.9858  141.1208  159.1953 C   0  0  0  0  0  0  0  0  0  0  0  0
  152.0633  142.5689  159.2908 N   0  0  0  0  0  0  0  0  0  0  0  0
  152.2758  143.3474  160.4103 C   0  0  0  0  0  0  0  0  0  0  0  0
  152.2609  144.6212  159.9184 C   0  0  0  0  0  0  0  0  0  0  0  0
  152.0410  144.5668  158.5431 N   0  0  0  0  0  0  0  0  0  0  0  0
  151.9242  143.3289  158.1776 N   0  0  0  0  0  0  0  0  0  0  0  0
  150.8163  139.1718  155.3707 C   0  0  2  0  0  0  0  0  0  0  0  0
  152.1673  138.6782  154.8697 C   0  0  0  0  0  0  0  0  0  0  0  0
  149.6466  139.3401  154.3892 C   0  0  1  0  0  0  0  0  0  0  0  0
  148.7207  138.2638  154.3649 O   0  0  0  0  0  0  0  0  0  0  0  0
  147.4680  138.6151  153.8053 C   0  0  0  0  0  0  0  0  0  0  0  0
  147.6352  138.8470  157.9494 H   0  0  0  0  0  0  0  0  0  0  0  0
  149.3139  139.3417  157.9289 H   0  0  0  0  0  0  0  0  0  0  0  0
  148.7318  138.1472  156.7748 H   0  0  0  0  0  0  0  0  0  0  0  0
  147.1463  139.9443  155.8625 H   0  0  0  0  0  0  0  0  0  0  0  0
  147.8814  141.0907  156.9159 H   0  0  0  0  0  0  0  0  0  0  0  0
  148.7856  142.6790  154.8558 H   0  0  0  0  0  0  0  0  0  0  0  0
  149.2074  141.7917  153.4422 H   0  0  0  0  0  0  0  0  0  0  0  0
  146.8689  142.4182  153.2690 H   0  0  0  0  0  0  0  0  0  0  0  0
  146.4744  141.6575  154.8013 H   0  0  0  0  0  0  0  0  0  0  0  0
  146.9511  140.6676  153.4222 H   0  0  0  0  0  0  0  0  0  0  0  0
  151.2197  141.2627  154.9298 H   0  0  0  0  0  0  0  0  0  0  0  0
  150.1753  141.5974  157.4859 H   0  0  0  0  0  0  0  0  0  0  0  0
  151.0994  140.7706  159.7264 H   0  0  0  0  0  0  0  0  0  0  0  0
  152.8537  140.6958  159.7017 H   0  0  0  0  0  0  0  0  0  0  0  0
  152.4155  142.9471  161.4035 H   0  0  0  0  0  0  0  0  0  0  0  0
  152.3891  145.5622  160.4330 H   0  0  0  0  0  0  0  0  0  0  0  0
  150.4906  138.5900  156.2350 H   0  0  0  0  0  0  0  0  0  0  0  0
  152.4629  139.1878  153.9524 H   0  0  0  0  0  0  0  0  0  0  0  0
  152.1508  137.6087  154.6627 H   0  0  0  0  0  0  0  0  0  0  0  0
  152.9472  138.8560  155.6104 H   0  0  0  0  0  0  0  0  0  0  0  0
  149.9765  139.6346  153.3896 H   0  0  0  0  0  0  0  0  0  0  0  0
  146.7949  137.7596  153.8569 H   0  0  0  0  0  0  0  0  0  0  0  0
  147.5658  138.8989  152.7580 H   0  0  0  0  0  0  0  0  0  0  0  0
  147.0070  139.4388  154.3521 H   0  0  0  0  0  0  0  0  0  0  0  0
  1  2  1  0  0  0  0
  1 21  1  0  0  0  0
  1 22  1  0  0  0  0
  1 23  1  0  0  0  0
  2  3  1  0  0  0  0
  2 24  1  0  0  0  0
  2 25  1  0  0  0  0
  3 18  1  0  0  0  0
  3  4  1  0  0  0  0
  3  6  1  0  0  0  0
  4  5  1  0  0  0  0
  4 26  1  0  0  0  0
  4 27  1  0  0  0  0
  5 28  1  0  0  0  0
  5 29  1  0  0  0  0
  5 30  1  0  0  0  0
  6  7  1  0  0  0  0
  6 16  1  0  0  0  0
  6 31  1  0  0  0  0
  7  8  1  0  0  0  0
  7 32  1  0  0  0  0
  8  9  2  0  0  0  0
  8 10  1  0  0  0  0
 10 11  1  0  0  0  0
 10 33  1  0  0  0  0
 10 34  1  0  0  0  0
 11 15  1  0  0  0  0
 11 12  1  0  0  0  0
 12 13  2  0  0  0  0
 12 35  1  0  0  0  0
 13 14  1  0  0  0  0
 13 36  1  0  0  0  0
 14 15  2  0  0  0  0
 16 17  1  0  0  0  0
 16 18  1  0  0  0  0
 16 37  1  0  0  0  0
 17 38  1  0  0  0  0
 17 39  1  0  0  0  0
 17 40  1  0  0  0  0
 18 19  1  0  0  0  0
 18 41  1  0  0  0  0
 19 20  1  0  0  0  0
 20 42  1  0  0  0  0
 20 43  1  0  0  0  0
 20 44  1  0  0  0  0
M  END
> <s_m_source_file>
AV-unprocessed.smi

> <i_m_source_file_index>
2525

> <i_lp_mmshare_version>
43012

> <i_f3d_flags>
0

> <s_epik_input>
W0NIM11PW0NAQEhdMVtDQEhdKFtDSDNdKVtDQEBIXShDMShbQ0gyXVtDSDNdKVtDSDJdW0NIM10pW05IXUMoPU8pW0NIMl1uMltjSF1bY0hdbm4y

> <s_epik_cmdline>
J2VwaWtfcHl0aG9uJywgJy1waCcsICc3LjAnLCAnLXRuJywgJzgnLCAnLW1hJywgJzIwMCcsICctbWV0YWxfYmluZGluZycsICctaW1hZScsICc8aW5maWxlLm1hZT4nLCAnLW9tYWUnLCAnPG91dGZpbGUubWFlPic=

> <r_lp_tautomer_probability>
1

> <r_epik_Ionization_Penalty>
1.18045e-06

> <r_epik_Ionization_Penalty_Charging>
0

> <r_epik_Ionization_Penalty_Neutral>
1.18045e-06

> <r_epik_State_Penalty>
-0

> <r_epik_Charging_Adjusted_Penalty>
0

> <i_epik_Tot_Q>
0

> <i_epik_Tot_abs_Q>
0

> <r_epik_Metal_State_Penalty>
-0

> <b_epik_Metal_Only>
0

> <s_lp_Force_Field>
OPLS_2005

> <r_lp_Energy>
27.7257

> <b_lp_Chiralities_Consistent>
1

> <s_lp_Variant>
AV-unprocessed.smi:2525-3

> <Gold.Version>
5.8.1

> <Gold.Id.Protein>
6NUR|6NUR_protein|mol2

> <Gold.PLP.Fitness>
39.6953

> <Gold.PLP.PLP>
-37.4606

> <Gold.PLP.part.hbond>
-1.0000

> <Gold.PLP.part.metal>
0.0000

> <Gold.PLP.part.buried>
-5.4022

> <Gold.PLP.part.nonpolar>
-31.8476

> <Gold.PLP.part.repulsive>
0.3574

> <Gold.PLP.ligand.clash>
0.0000

> <Gold.PLP.ligand.torsion>
0.6839

> <Gold.PLP.Chemscore.Hbond>
1.0000

> <Gold.PLP.Chemscore.CHOScore>
0.0000

> <Gold.PLP.Chemscore.Metal>
0.0000

> <Gold.Chemscore.Hbonds>
donor molecule, donor type, donor heavy atom, donor atom, acceptor molecule, acceptor atom, score
      P1  H  7997  8008       L1     9  1.00

> <Gold.PLP.Chemscore.Internal.Correction>
0.6025

> <Gold.Rescore>
     Score         DG    S(hbond)    S(metal)    S(lipo)     H(rot)  DE(clash)    DE(int)     intcor
      7.77     -14.06       0.99        0.00      88.38       1.98       0.02       6.27       ----

> <Gold.Chemscore.Fitness>
7.7681

> <Gold.Chemscore.DG>
-14.0562

> <Gold.Chemscore.ZeroCoef>
-5.4800

> <Gold.Chemscore.Hbond>
0.9907

> <Gold.Chemscore.Metal>
0.0000

> <Gold.Chemscore.Lipo>
88.3792

> <Gold.Chemscore.Internal_Hbond>
0.0000

> <Gold.Chemscore.DEClash>
0.0198

> <Gold.Chemscore.DEInternal>
6.2683

> <Gold.Chemscore.Rot>
1.9817

> <Gold.Chemscore.Internal.Correction>
   9.000000E+99

> <Gold.Chemscore.Hbonds>
donor molecule, donor type, donor heavy atom, donor atom, acceptor molecule, acceptor atom, score
      P1  H  7997  8008       L1     9  0.99

> <Gold.Chemscore.Hbond.Weighted>
-3.3090

> <Gold.Chemscore.Metal.Weighted>
-0.0000

> <Gold.Chemscore.Lipo.Weighted>
-10.3404

> <Gold.Chemscore.Internal_Hbond.Weighted>
0.0000

> <Gold.Chemscore.DEClash.Weighted>
0.0198

> <Gold.Chemscore.DEInternal.Weighted>
6.2683

> <Gold.Chemscore.Rot.Weighted>
5.0731

> <Gold.Chemscore.Internal.Correction.Weighted>
   9.000000E+99

> <Gold.Protein.RotatedTorsions>
[ 6907 6896 6895 6894 ] final   45.96 input  -60.11 | X-H torsion
[ 7974 7965 7964 7962 ] final -171.16 input  175.53 | X-H torsion
[ 8008 7997 7996 7995 ] final  -62.93 input   59.86 | X-H torsion
[ 10167 10162 10161 10158 ] final   57.19 input  -65.29 | X-H torsion
[ 10718 10713 10712 10709 ] final    3.13 input   66.30 | X-H torsion
[ 10763 10752 10751 10750 ] final  148.66 input  -60.55 | X-H torsion
[ 11005 11000 10999 10996 ] final -123.64 input  -57.11 | X-H torsion

> <Gold.Protein.ActiveResidues>
 VAL166  LYS551  ARG553  GLY616  TRP617  ASP618  TYR619  PRO620  LYS621  CYS622 
 ASP623  PHE694  ASN695  SER759  ASP760  ASP761  ALA762  ILE779  LEU786  VAL792 
 PHE793  MET794  SER795  GLU796  ALA797  LYS798  CYS799  TRP800  GLU811  SER814 

> <Gold.Protein.RotatedAtoms>
  152.2508  134.8135  160.0446 H   0  0  0  0  0  0  0  0  0  0  0  0  # atno 6907 bound_to 6896
  151.8816  133.3491  159.3776 H   0  0  0  0  0  0  0  0  0  0  0  0  # atno 6908 bound_to 6896
  150.7083  134.4940  159.5573 H   0  0  0  0  0  0  0  0  0  0  0  0  # atno 6909 bound_to 6896
  144.7160  140.1964  143.6343 H   0  0  0  0  0  0  0  0  0  0  0  0  # atno 7974 bound_to 7965
  154.4526  140.0985  156.6664 H   0  0  0  0  0  0  0  0  0  0  0  0  # atno 8008 bound_to 7997
  155.5236  140.3479  155.4393 H   0  0  0  0  0  0  0  0  0  0  0  0  # atno 8009 bound_to 7997
  156.0713  140.1350  156.9814 H   0  0  0  0  0  0  0  0  0  0  0  0  # atno 8010 bound_to 7997
  140.2007  144.3991  150.6530 H   0  0  0  0  0  0  0  0  0  0  0  0  # atno 10167 bound_to 10162
  156.8733  130.5628  149.5656 H   0  0  0  0  0  0  0  0  0  0  0  0  # atno 10718 bound_to 10713
  154.0583  135.2876  155.3329 H   0  0  0  0  0  0  0  0  0  0  0  0  # atno 10763 bound_to 10752
  154.6825  135.5258  153.8285 H   0  0  0  0  0  0  0  0  0  0  0  0  # atno 10764 bound_to 10752
  153.0533  135.6585  154.0774 H   0  0  0  0  0  0  0  0  0  0  0  0  # atno 10765 bound_to 10752
  140.9903  134.0548  157.3662 H   0  0  0  0  0  0  0  0  0  0  0  0  # atno 11005 bound_to 11000
  145.8720  139.2277  143.1655 LP  0  0  0  0  0  0  0  0  0  0  0  0  # atno 17320 bound_to 7965
  146.0075  140.8465  142.9987 LP  0  0  0  0  0  0  0  0  0  0  0  0  # atno 17321 bound_to 7965
  140.6392  143.2200  151.6327 LP  0  0  0  0  0  0  0  0  0  0  0  0  # atno 17342 bound_to 10162
  139.5218  144.3181  152.0935 LP  0  0  0  0  0  0  0  0  0  0  0  0  # atno 17343 bound_to 10162
  156.0715  130.5747  150.9392 LP  0  0  0  0  0  0  0  0  0  0  0  0  # atno 17370 bound_to 10713
  157.6183  131.0931  150.8670 LP  0  0  0  0  0  0  0  0  0  0  0  0  # atno 17371 bound_to 10713
  139.8989  135.0156  156.7171 LP  0  0  0  0  0  0  0  0  0  0  0  0  # atno 17394 bound_to 11000
  140.7050  133.9273  155.8048 LP  0  0  0  0  0  0  0  0  0  0  0  0  # atno 17395 bound_to 11000

$$$$
