AV-unprocessed.smi:1208|AV-procd|sdf|5063|dock2
  -GOLD-   22720 4103D 1   1.00000     0.00000
 Structure written by MMmdl.
 35 36  0  0  0  0  0  0  0  0  2 V2000
  154.2854  141.0382  160.3370 C   0  0  0  0  0  0  0  0  0  0  0  0
  152.8905  141.2362  159.7260 C   0  0  2  0  0  0  0  0  0  0  0  0
  152.9036  140.7577  158.3448 N   0  0  0  0  0  0  0  0  0  0  0  0
  152.1100  139.8061  157.8287 C   0  0  0  0  0  0  0  0  0  0  0  0
  151.2495  139.2132  158.4812 O   0  0  0  0  0  0  0  0  0  0  0  0
  152.3186  139.5059  156.3362 C   0  0  0  0  0  0  0  0  0  0  0  0
  151.0801  139.5191  155.5441 N   0  0  0  0  0  0  0  0  0  0  0  0
  150.6522  140.8549  155.1378 N   0  5  0  0  0  0  0  0  0  0  0  0
  149.5141  140.9924  154.4069 C   0  0  0  0  0  0  0  0  0  0  0  0
  149.0835  142.0842  154.0431 O   0  0  0  0  0  0  0  0  0  0  0  0
  148.7854  139.7886  154.0424 C   0  0  0  0  0  0  0  0  0  0  0  0
  149.2161  138.5665  154.4122 C   0  0  0  0  0  0  0  0  0  0  0  0
  150.4278  138.3722  155.1991 C   0  0  0  0  0  0  0  0  0  0  0  0
  150.8340  137.2576  155.5292 O   0  0  0  0  0  0  0  0  0  0  0  0
  152.4429  142.7107  159.7675 C   0  0  1  0  0  0  0  0  0  0  0  0
  153.3169  143.6660  158.9504 C   0  0  0  0  0  0  0  0  0  0  0  0
  152.3533  144.7925  158.6588 C   0  0  0  0  0  0  0  0  0  0  0  0
  151.0559  144.0295  158.4142 C   0  0  0  0  0  0  0  0  0  0  0  0
  151.1337  142.8557  159.2190 O   0  0  0  0  0  0  0  0  0  0  0  0
  154.3056  141.3493  161.3816 H   0  0  0  0  0  0  0  0  0  0  0  0
  155.0400  141.6168  159.8031 H   0  0  0  0  0  0  0  0  0  0  0  0
  154.5829  139.9894  160.3023 H   0  0  0  0  0  0  0  0  0  0  0  0
  152.1834  140.6536  160.3193 H   0  0  0  0  0  0  0  0  0  0  0  0
  153.5734  141.1897  157.7253 H   0  0  0  0  0  0  0  0  0  0  0  0
  153.0304  140.2350  155.9454 H   0  0  0  0  0  0  0  0  0  0  0  0
  152.8048  138.5346  156.2270 H   0  0  0  0  0  0  0  0  0  0  0  0
  147.8803  139.8761  153.4599 H   0  0  0  0  0  0  0  0  0  0  0  0
  148.6445  137.6995  154.1168 H   0  0  0  0  0  0  0  0  0  0  0  0
  152.4074  143.0632  160.7998 H   0  0  0  0  0  0  0  0  0  0  0  0
  154.2077  143.9939  159.4872 H   0  0  0  0  0  0  0  0  0  0  0  0
  153.6336  143.1959  158.0179 H   0  0  0  0  0  0  0  0  0  0  0  0
  152.2543  145.4368  159.5334 H   0  0  0  0  0  0  0  0  0  0  0  0
  152.6534  145.4074  157.8099 H   0  0  0  0  0  0  0  0  0  0  0  0
  150.1731  144.6215  158.6558 H   0  0  0  0  0  0  0  0  0  0  0  0
  150.9849  143.7261  157.3689 H   0  0  0  0  0  0  0  0  0  0  0  0
  1  2  1  0  0  0  0
  1 20  1  0  0  0  0
  1 21  1  0  0  0  0
  1 22  1  0  0  0  0
  2  3  1  0  0  0  0
  2 15  1  0  0  0  0
  2 23  1  0  0  0  0
  3  4  1  0  0  0  0
  3 24  1  0  0  0  0
  4  5  2  0  0  0  0
  4  6  1  0  0  0  0
  6 25  1  0  0  0  0
  6 26  1  0  0  0  0
  6  7  1  0  0  0  0
  7  8  1  0  0  0  0
  7 13  1  0  0  0  0
  8  9  1  0  0  0  0
  9 10  2  0  0  0  0
  9 11  1  0  0  0  0
 11 27  1  0  0  0  0
 11 12  2  0  0  0  0
 12 28  1  0  0  0  0
 12 13  1  0  0  0  0
 13 14  2  0  0  0  0
 15 19  1  0  0  0  0
 15 16  1  0  0  0  0
 15 29  1  0  0  0  0
 16 17  1  0  0  0  0
 16 30  1  0  0  0  0
 16 31  1  0  0  0  0
 17 18  1  0  0  0  0
 17 32  1  0  0  0  0
 17 33  1  0  0  0  0
 18 19  1  0  0  0  0
 18 34  1  0  0  0  0
 18 35  1  0  0  0  0
M  CHG  1   8  -1
M  END
> <s_m_source_file>
AV-unprocessed.smi

> <i_m_source_file_index>
1208

> <i_lp_mmshare_version>
43012

> <i_f3d_flags>
0

> <s_epik_input>
TzFbQ0gyXVtDSDJdW0NIMl1bQ0BIXTFbQ0BIXShbQ0gzXSlbTkhdQyg9TylbQ0gyXW4yW25IXWMoPU8pW2NIXVtjSF1jMj1P

> <s_epik_cmdline>
J2VwaWtfcHl0aG9uJywgJy1waCcsICc3LjAnLCAnLXRuJywgJzgnLCAnLW1hJywgJzIwMCcsICctbWV0YWxfYmluZGluZycsICctaW1hZScsICc8aW5maWxlLm1hZT4nLCAnLW9tYWUnLCAnPG91dGZpbGUubWFlPic=

> <r_lp_tautomer_probability>
1

> <r_epik_Ionization_Penalty>
0.0975494

> <r_epik_Ionization_Penalty_Charging>
0.0975494

> <r_epik_Ionization_Penalty_Neutral>
2.30132e-08

> <r_epik_State_Penalty>
0.034345

> <r_epik_Charging_Adjusted_Penalty>
0.131894

> <i_epik_Tot_Q>
-1

> <i_epik_Tot_abs_Q>
1

> <r_epik_Metal_State_Penalty>
0.034345

> <b_epik_Metal_Only>
0

> <s_lp_Force_Field>
OPLS_2005

> <r_lp_Energy>
33.2444

> <b_lp_Chiralities_Consistent>
1

> <s_lp_Variant>
AV-unprocessed.smi:1208-3

> <Gold.Version>
5.8.1

> <Gold.Id.Protein>
6NUR|6NUR_protein|mol2

> <Gold.PLP.Fitness>
40.0288

> <Gold.PLP.PLP>
-38.3620

> <Gold.PLP.part.hbond>
-2.0174

> <Gold.PLP.part.metal>
0.0000

> <Gold.PLP.part.buried>
-2.0704

> <Gold.PLP.part.nonpolar>
-33.8756

> <Gold.PLP.part.repulsive>
0.6669

> <Gold.PLP.ligand.clash>
0.0000

> <Gold.PLP.ligand.torsion>
0.4158

> <Gold.PLP.Chemscore.Hbond>
0.8200

> <Gold.PLP.Chemscore.CHOScore>
0.0000

> <Gold.PLP.Chemscore.Metal>
0.0000

> <Gold.Chemscore.Hbonds>
donor molecule, donor type, donor heavy atom, donor atom, acceptor molecule, acceptor atom, score
      P1  H  7989  7998       L1     8  0.26
      P1  H  8011  8017       L1    10  0.37

> <Gold.PLP.Chemscore.Internal.Correction>
0.0382

> <Gold.Rescore>
     Score         DG    S(hbond)    S(metal)    S(lipo)     H(rot)  DE(clash)    DE(int)     intcor
     12.44     -13.11       0.76        0.00      87.05       1.99       0.10       0.57       ----

> <Gold.Chemscore.Fitness>
12.4353

> <Gold.Chemscore.DG>
-13.1098

> <Gold.Chemscore.ZeroCoef>
-5.4800

> <Gold.Chemscore.Hbond>
0.7635

> <Gold.Chemscore.Metal>
0.0000

> <Gold.Chemscore.Lipo>
87.0453

> <Gold.Chemscore.Internal_Hbond>
0.0000

> <Gold.Chemscore.DEClash>
0.0998

> <Gold.Chemscore.DEInternal>
0.5748

> <Gold.Chemscore.Rot>
1.9940

> <Gold.Chemscore.Internal.Correction>
   9.000000E+99

> <Gold.Chemscore.Hbonds>
donor molecule, donor type, donor heavy atom, donor atom, acceptor molecule, acceptor atom, score
      P1  H  8011  8017       L1    10  0.23

> <Gold.Chemscore.Hbond.Weighted>
-2.5502

> <Gold.Chemscore.Metal.Weighted>
-0.0000

> <Gold.Chemscore.Lipo.Weighted>
-10.1843

> <Gold.Chemscore.Internal_Hbond.Weighted>
0.0000

> <Gold.Chemscore.DEClash.Weighted>
0.0998

> <Gold.Chemscore.DEInternal.Weighted>
0.5748

> <Gold.Chemscore.Rot.Weighted>
5.1047

> <Gold.Chemscore.Internal.Correction.Weighted>
   9.000000E+99

> <Gold.Protein.RotatedTorsions>
[ 6907 6896 6895 6894 ] final   95.88 input  -60.11 | X-H torsion
[ 7974 7965 7964 7962 ] final  169.85 input  175.53 | X-H torsion
[ 8008 7997 7996 7995 ] final  -40.61 input   59.86 | X-H torsion
[ 10167 10162 10161 10158 ] final  171.80 input  -65.29 | X-H torsion
[ 10718 10713 10712 10709 ] final  141.54 input   66.30 | X-H torsion
[ 10763 10752 10751 10750 ] final   78.92 input  -60.55 | X-H torsion
[ 11005 11000 10999 10996 ] final  148.86 input  -57.11 | X-H torsion

> <Gold.Protein.ActiveResidues>
 VAL166  LYS551  ARG553  GLY616  TRP617  ASP618  TYR619  PRO620  LYS621  CYS622 
 ASP623  PHE694  ASN695  SER759  ASP760  ASP761  ALA762  ILE779  LEU786  VAL792 
 PHE793  MET794  SER795  GLU796  ALA797  LYS798  CYS799  TRP800  GLU811  SER814 

> <Gold.Protein.RotatedAtoms>
  152.5440  134.0972  159.8301 H   0  0  0  0  0  0  0  0  0  0  0  0  # atno 6907 bound_to 6896
  151.1054  133.5205  159.2615 H   0  0  0  0  0  0  0  0  0  0  0  0  # atno 6908 bound_to 6896
  151.1944  135.0425  159.8900 H   0  0  0  0  0  0  0  0  0  0  0  0  # atno 6909 bound_to 6896
  144.7342  139.9115  143.6415 H   0  0  0  0  0  0  0  0  0  0  0  0  # atno 7974 bound_to 7965
  154.4010  140.1521  156.3056 H   0  0  0  0  0  0  0  0  0  0  0  0  # atno 8008 bound_to 7997
  155.8662  140.3451  155.5768 H   0  0  0  0  0  0  0  0  0  0  0  0  # atno 8009 bound_to 7997
  155.7825  140.0845  157.2042 H   0  0  0  0  0  0  0  0  0  0  0  0  # atno 8010 bound_to 7997
  139.5057  144.3445  151.9985 H   0  0  0  0  0  0  0  0  0  0  0  0  # atno 10167 bound_to 10162
  157.3908  131.1004  151.0648 H   0  0  0  0  0  0  0  0  0  0  0  0  # atno 10718 bound_to 10713
  153.0911  135.4859  154.8692 H   0  0  0  0  0  0  0  0  0  0  0  0  # atno 10763 bound_to 10752
  154.7270  135.3052  154.8956 H   0  0  0  0  0  0  0  0  0  0  0  0  # atno 10764 bound_to 10752
  153.9603  135.6813  153.4798 H   0  0  0  0  0  0  0  0  0  0  0  0  # atno 10765 bound_to 10752
  140.0996  134.8991  157.1775 H   0  0  0  0  0  0  0  0  0  0  0  0  # atno 11005 bound_to 11000
  146.0997  139.3992  143.0354 LP  0  0  0  0  0  0  0  0  0  0  0  0  # atno 17320 bound_to 7965
  145.7595  140.9941  143.1207 LP  0  0  0  0  0  0  0  0  0  0  0  0  # atno 17321 bound_to 7965
  140.2882  144.3783  150.6097 LP  0  0  0  0  0  0  0  0  0  0  0  0  # atno 17342 bound_to 10162
  140.5966  143.2167  151.7152 LP  0  0  0  0  0  0  0  0  0  0  0  0  # atno 17343 bound_to 10162
  157.1682  130.6256  149.5632 LP  0  0  0  0  0  0  0  0  0  0  0  0  # atno 17370 bound_to 10713
  155.9798  130.4794  150.6735 LP  0  0  0  0  0  0  0  0  0  0  0  0  # atno 17371 bound_to 10713
  140.3239  134.2885  155.7241 LP  0  0  0  0  0  0  0  0  0  0  0  0  # atno 17394 bound_to 11000
  141.2102  133.7727  156.9949 LP  0  0  0  0  0  0  0  0  0  0  0  0  # atno 17395 bound_to 11000

$$$$
