AV-unprocessed.smi:261|AV-procd|sdf|1987|dock9
  -GOLD-   2262021173D 1   1.00000     0.00000
 Structure written by MMmdl.
 51 54  0  0  0  0  0  0  0  0  1 V2000
  152.7602  141.8928  161.0645 C   0  0  0  0  0  0  0  0  0  0  0  0
  152.1609  142.4125  159.8887 O   0  0  0  0  0  0  0  0  0  0  0  0
  151.2728  141.5010  159.2592 C   0  0  1  0  0  0  0  0  0  0  0  0
  150.8056  142.0400  157.9130 C   0  0  0  0  0  0  0  0  0  0  0  0
  150.3443  140.7752  157.1760 C   0  0  1  0  0  0  0  0  0  0  0  0
  150.3970  140.9468  155.6511 C   0  0  0  0  0  0  0  0  0  0  0  0
  149.7933  142.0254  155.1467 N   0  0  0  0  0  0  0  0  0  0  0  0
  150.9828  140.1331  154.9386 O   0  0  0  0  0  0  0  0  0  0  0  0
  151.2575  139.7306  157.6490 N   0  0  0  0  0  0  0  0  0  0  0  0
  150.7345  138.4851  157.6896 C   0  0  0  0  0  0  0  0  0  0  0  0
  149.9429  138.1779  158.7459 N   0  0  0  0  0  0  0  0  0  0  0  0
  149.4019  136.9594  158.8418 C   0  0  0  0  0  0  0  0  0  0  0  0
  149.5232  135.9228  158.0088 N   0  0  0  0  0  0  0  0  0  0  0  0
  150.3226  136.2311  156.9471 C   0  0  0  0  0  0  0  0  0  0  0  0
  150.9650  137.4781  156.7107 C   0  0  0  0  0  0  0  0  0  0  0  0
  151.7008  137.4189  155.5328 N   0  0  0  0  0  0  0  0  0  0  0  0
  151.5040  136.2042  155.0973 C   0  0  0  0  0  0  0  0  0  0  0  0
  150.6896  135.4234  155.8856 N   0  0  0  0  0  0  0  0  0  0  0  0
  150.3098  134.0434  155.6406 C   0  0  0  0  0  0  0  0  0  0  0  0
  148.8655  133.9123  155.1180 C   0  0  1  0  0  0  0  0  0  0  0  0
  148.7353  134.6341  153.9078 O   0  0  0  0  0  0  0  0  0  0  0  0
  148.4714  132.4451  154.8677 C   0  0  2  0  0  0  0  0  0  0  0  0
  149.4732  131.6501  154.0311 C   0  0  0  0  0  0  0  0  0  0  0  0
  148.6317  130.5144  153.4760 C   0  0  0  0  0  0  0  0  0  0  0  0
  147.1972  131.0453  153.5573 C   0  0  0  0  0  0  0  0  0  0  0  0
  147.3058  132.3710  154.0613 O   0  0  0  0  0  0  0  0  0  0  0  0
  151.9332  140.1766  158.8644 C   0  0  0  0  0  0  0  0  0  0  0  0
  150.3979  141.3156  159.8856 H   0  0  0  0  0  0  0  0  0  0  0  0
  149.3208  140.5420  157.4774 H   0  0  0  0  0  0  0  0  0  0  0  0
  153.4078  142.6489  161.5080 H   0  0  0  0  0  0  0  0  0  0  0  0
  153.3713  141.0158  160.8490 H   0  0  0  0  0  0  0  0  0  0  0  0
  152.0061  141.6213  161.8042 H   0  0  0  0  0  0  0  0  0  0  0  0
  150.0131  142.7821  158.0143 H   0  0  0  0  0  0  0  0  0  0  0  0
  151.6425  142.5109  157.3932 H   0  0  0  0  0  0  0  0  0  0  0  0
  149.7983  142.1876  154.1503 H   0  0  0  0  0  0  0  0  0  0  0  0
  149.3336  142.6766  155.7666 H   0  0  0  0  0  0  0  0  0  0  0  0
  148.7832  136.7909  159.7109 H   0  0  0  0  0  0  0  0  0  0  0  0
  151.9525  135.8403  154.1843 H   0  0  0  0  0  0  0  0  0  0  0  0
  151.0145  133.6062  154.9322 H   0  0  0  0  0  0  0  0  0  0  0  0
  150.4259  133.4904  156.5733 H   0  0  0  0  0  0  0  0  0  0  0  0
  148.1795  134.3514  155.8436 H   0  0  0  0  0  0  0  0  0  0  0  0
  147.8183  134.8068  153.7586 H   0  0  0  0  0  0  0  0  0  0  0  0
  148.2822  131.9306  155.8120 H   0  0  0  0  0  0  0  0  0  0  0  0
  149.8491  132.2630  153.2108 H   0  0  0  0  0  0  0  0  0  0  0  0
  150.3281  131.3005  154.6102 H   0  0  0  0  0  0  0  0  0  0  0  0
  148.9223  130.2599  152.4565 H   0  0  0  0  0  0  0  0  0  0  0  0
  148.7366  129.6190  154.0895 H   0  0  0  0  0  0  0  0  0  0  0  0
  146.6989  131.0457  152.5878 H   0  0  0  0  0  0  0  0  0  0  0  0
  146.6026  130.4424  154.2449 H   0  0  0  0  0  0  0  0  0  0  0  0
  152.9823  140.3368  158.6133 H   0  0  0  0  0  0  0  0  0  0  0  0
  151.9040  139.4518  159.6796 H   0  0  0  0  0  0  0  0  0  0  0  0
  1  2  1  0  0  0  0
  1 30  1  0  0  0  0
  1 31  1  0  0  0  0
  1 32  1  0  0  0  0
  2  3  1  0  0  0  0
  3 28  1  0  0  0  0
  3 27  1  0  0  0  0
  3  4  1  0  0  0  0
  4  5  1  0  0  0  0
  4 33  1  0  0  0  0
  4 34  1  0  0  0  0
  5 29  1  0  0  0  0
  5  6  1  0  0  0  0
  5  9  1  0  0  0  0
  6  7  1  0  0  0  0
  6  8  2  0  0  0  0
  7 35  1  0  0  0  0
  7 36  1  0  0  0  0
  9 10  1  0  0  0  0
  9 27  1  0  0  0  0
 10 15  1  0  0  0  0
 10 11  2  0  0  0  0
 11 12  1  0  0  0  0
 12 13  2  0  0  0  0
 12 37  1  0  0  0  0
 13 14  1  0  0  0  0
 14 18  1  0  0  0  0
 14 15  2  0  0  0  0
 15 16  1  0  0  0  0
 16 17  2  0  0  0  0
 17 18  1  0  0  0  0
 17 38  1  0  0  0  0
 18 19  1  0  0  0  0
 19 20  1  0  0  0  0
 19 39  1  0  0  0  0
 19 40  1  0  0  0  0
 20 21  1  0  0  0  0
 20 22  1  0  0  0  0
 20 41  1  0  0  0  0
 21 42  1  0  0  0  0
 22 26  1  0  0  0  0
 22 23  1  0  0  0  0
 22 43  1  0  0  0  0
 23 24  1  0  0  0  0
 23 44  1  0  0  0  0
 23 45  1  0  0  0  0
 24 25  1  0  0  0  0
 24 46  1  0  0  0  0
 24 47  1  0  0  0  0
 25 26  1  0  0  0  0
 25 48  1  0  0  0  0
 25 49  1  0  0  0  0
 27 50  1  0  0  0  0
 27 51  1  0  0  0  0
M  END
> <s_m_source_file>
AV-unprocessed.smi

> <i_m_source_file_index>
261

> <i_lp_mmshare_version>
43012

> <i_f3d_flags>
0

> <s_epik_input>
W0NIM11PW0NASF0xW0NIMl1bQ0BASF0oQyg9TylbTkgyXSlOKFtDSDJdMSljKG5bY0hdbjIpYyhjMjMpbltjSF1uM1tDSDJdW0NASF0oW09IXSlbQ0BASF00W0NIMl1bQ0gyXVtDSDJdTzQ=

> <s_epik_cmdline>
J2VwaWtfcHl0aG9uJywgJy1waCcsICc3LjAnLCAnLXRuJywgJzgnLCAnLW1hJywgJzIwMCcsICctbWV0YWxfYmluZGluZycsICctaW1hZScsICc8aW5maWxlLm1hZT4nLCAnLW9tYWUnLCAnPG91dGZpbGUubWFlPic=

> <r_lp_tautomer_probability>
1

> <r_epik_Ionization_Penalty>
0.000713824

> <r_epik_Ionization_Penalty_Charging>
0

> <r_epik_Ionization_Penalty_Neutral>
0.000713824

> <r_epik_State_Penalty>
0.000402132

> <r_epik_Charging_Adjusted_Penalty>
0.000402132

> <i_epik_Tot_Q>
0

> <i_epik_Tot_abs_Q>
0

> <r_epik_Metal_State_Penalty>
-0

> <b_epik_Metal_Only>
0

> <s_lp_Force_Field>
OPLS_2005

> <r_lp_Energy>
45.3763

> <b_lp_Chiralities_Consistent>
1

> <s_lp_Variant>
AV-unprocessed.smi:261-5

> <Gold.Version>
5.8.1

> <Gold.Id.Protein>
6NUR|6NUR_protein|mol2

> <Gold.PLP.Fitness>
40.6972

> <Gold.PLP.PLP>
-34.7912

> <Gold.PLP.part.hbond>
-3.7298

> <Gold.PLP.part.metal>
0.0000

> <Gold.PLP.part.buried>
-4.0352

> <Gold.PLP.part.nonpolar>
-27.2163

> <Gold.PLP.part.repulsive>
0.3680

> <Gold.PLP.ligand.clash>
0.0000

> <Gold.PLP.ligand.torsion>
0.9394

> <Gold.PLP.Chemscore.Hbond>
1.5415

> <Gold.PLP.Chemscore.CHOScore>
1.0000

> <Gold.PLP.Chemscore.Metal>
0.0000

> <Gold.Chemscore.Hbonds>
donor molecule, donor type, donor heavy atom, donor atom, acceptor molecule, acceptor atom, score
      L1  H     7    36       P1  8028  0.57
      P1  H  7989  7998       L1     8  1.00
      L1  C    17    38       P1  7949  0.34

> <Gold.PLP.Chemscore.Internal.Correction>
0.1602

> <Gold.Rescore>
     Score         DG    S(hbond)    S(metal)    S(lipo)     H(rot)  DE(clash)    DE(int)     intcor
      7.02      -9.41       1.50        0.00      69.04       3.57       0.05       2.34       ----

> <Gold.Chemscore.Fitness>
7.0211

> <Gold.Chemscore.DG>
-9.4055

> <Gold.Chemscore.ZeroCoef>
-5.4800

> <Gold.Chemscore.Hbond>
1.4961

> <Gold.Chemscore.Metal>
0.0000

> <Gold.Chemscore.Lipo>
69.0434

> <Gold.Chemscore.Internal_Hbond>
0.0000

> <Gold.Chemscore.DEClash>
0.0478

> <Gold.Chemscore.DEInternal>
2.3366

> <Gold.Chemscore.Rot>
3.5740

> <Gold.Chemscore.Internal.Correction>
   9.000000E+99

> <Gold.Chemscore.Hbonds>
donor molecule, donor type, donor heavy atom, donor atom, acceptor molecule, acceptor atom, score
      L1  H     7    36       P1  8028  0.56
      P1  H  7989  7998       L1     8  0.82

> <Gold.Chemscore.Hbond.Weighted>
-4.9969

> <Gold.Chemscore.Metal.Weighted>
-0.0000

> <Gold.Chemscore.Lipo.Weighted>
-8.0781

> <Gold.Chemscore.Internal_Hbond.Weighted>
0.0000

> <Gold.Chemscore.DEClash.Weighted>
0.0478

> <Gold.Chemscore.DEInternal.Weighted>
2.3366

> <Gold.Chemscore.Rot.Weighted>
9.1495

> <Gold.Chemscore.Internal.Correction.Weighted>
   9.000000E+99

> <Gold.Protein.RotatedTorsions>
[ 6907 6896 6895 6894 ] final  -29.41 input  -60.11 | X-H torsion
[ 7974 7965 7964 7962 ] final    6.21 input  175.53 | X-H torsion
[ 8008 7997 7996 7995 ] final   97.17 input   59.86 | X-H torsion
[ 10167 10162 10161 10158 ] final  166.45 input  -65.29 | X-H torsion
[ 10718 10713 10712 10709 ] final  128.55 input   66.30 | X-H torsion
[ 10763 10752 10751 10750 ] final   -5.83 input  -60.55 | X-H torsion
[ 11005 11000 10999 10996 ] final   55.83 input  -57.11 | X-H torsion

> <Gold.Protein.ActiveResidues>
 VAL166  LYS551  ARG553  GLY616  TRP617  ASP618  TYR619  PRO620  LYS621  CYS622 
 ASP623  PHE694  ASN695  SER759  ASP760  ASP761  ALA762  ILE779  LEU786  VAL792 
 PHE793  MET794  SER795  GLU796  ALA797  LYS798  CYS799  TRP800  GLU811  SER814 

> <Gold.Protein.RotatedAtoms>
  151.1195  135.0072  159.8531 H   0  0  0  0  0  0  0  0  0  0  0  0  # atno 6907 bound_to 6896
  152.5447  134.1739  159.8618 H   0  0  0  0  0  0  0  0  0  0  0  0  # atno 6908 bound_to 6896
  151.1796  133.4688  159.2627 H   0  0  0  0  0  0  0  0  0  0  0  0  # atno 6909 bound_to 6896
  146.2436  140.0267  142.8393 H   0  0  0  0  0  0  0  0  0  0  0  0  # atno 7974 bound_to 7965
  156.0873  140.3262  155.7770 H   0  0  0  0  0  0  0  0  0  0  0  0  # atno 8008 bound_to 7997
  155.5055  140.0572  157.2949 H   0  0  0  0  0  0  0  0  0  0  0  0  # atno 8009 bound_to 7997
  154.4616  140.1969  156.0244 H   0  0  0  0  0  0  0  0  0  0  0  0  # atno 8010 bound_to 7997
  139.4925  144.4026  151.9392 H   0  0  0  0  0  0  0  0  0  0  0  0  # atno 10167 bound_to 10162
  157.5234  131.1098  150.9119 H   0  0  0  0  0  0  0  0  0  0  0  0  # atno 10718 bound_to 10713
  153.4039  135.7006  153.6406 H   0  0  0  0  0  0  0  0  0  0  0  0  # atno 10763 bound_to 10752
  153.4928  135.3669  155.2501 H   0  0  0  0  0  0  0  0  0  0  0  0  # atno 10764 bound_to 10752
  154.8712  135.4093  154.3379 H   0  0  0  0  0  0  0  0  0  0  0  0  # atno 10765 bound_to 10752
  140.0577  134.5647  155.9189 H   0  0  0  0  0  0  0  0  0  0  0  0  # atno 11005 bound_to 11000
  145.1191  140.9452  143.4611 LP  0  0  0  0  0  0  0  0  0  0  0  0  # atno 17320 bound_to 7965
  145.0499  139.3190  143.5934 LP  0  0  0  0  0  0  0  0  0  0  0  0  # atno 17321 bound_to 7965
  140.3465  144.3141  150.5957 LP  0  0  0  0  0  0  0  0  0  0  0  0  # atno 17342 bound_to 10162
  140.5522  143.2204  151.7908 LP  0  0  0  0  0  0  0  0  0  0  0  0  # atno 17343 bound_to 10162
  156.9723  130.5495  149.5291 LP  0  0  0  0  0  0  0  0  0  0  0  0  # atno 17370 bound_to 10713
  156.0369  130.5456  150.8677 LP  0  0  0  0  0  0  0  0  0  0  0  0  # atno 17371 bound_to 10713
  141.1959  133.6589  156.5666 LP  0  0  0  0  0  0  0  0  0  0  0  0  # atno 17394 bound_to 11000
  140.3819  134.7516  157.4666 LP  0  0  0  0  0  0  0  0  0  0  0  0  # atno 17395 bound_to 11000

$$$$
