AV-unprocessed.smi:1560|AV-procd|sdf|6275|dock7
  -GOLD-   22720 6463D 1   1.00000     0.00000
 Structure written by MMmdl.
 47 48  0  0  0  0  0  0  0  0  1 V2000
  149.2573  136.7732  158.0556 C   0  0  0  0  0  0  0  0  0  0  0  0
  148.0588  136.7210  157.0930 C   0  0  0  0  0  0  0  0  0  0  0  0
  148.4134  136.4150  155.5998 C   0  0  1  0  0  0  0  0  0  0  0  0
  149.2006  135.0777  155.5982 C   0  0  0  0  0  0  0  0  0  0  0  0
  147.0858  136.1808  154.8078 C   0  0  0  0  0  0  0  0  0  0  0  0
  147.2838  135.4551  153.5593 N   0  0  0  0  0  0  0  0  0  0  0  0
  146.9651  134.1725  153.3297 C   0  0  0  0  0  0  0  0  0  0  0  0
  146.4613  133.4463  154.1857 O   0  0  0  0  0  0  0  0  0  0  0  0
  147.2539  133.6042  151.9289 C   0  0  0  0  0  0  0  0  0  0  0  0
  146.0555  133.1710  151.1889 N   0  0  0  0  0  0  0  0  0  0  0  0
  146.0149  131.9125  150.6054 C   0  0  0  0  0  0  0  0  0  0  0  0
  144.9643  131.4594  149.8813 C   0  0  0  0  0  0  0  0  0  0  0  0
  143.7909  132.3016  149.6758 C   0  0  0  0  0  0  0  0  0  0  0  0
  142.7925  131.9828  149.0343 O   0  0  0  0  0  0  0  0  0  0  0  0
  143.8688  133.5597  150.2789 N   0  0  0  0  0  0  0  0  0  0  0  0
  144.9482  134.0328  151.0260 C   0  0  0  0  0  0  0  0  0  0  0  0
  144.9200  135.1663  151.5032 O   0  0  0  0  0  0  0  0  0  0  0  0
  149.1947  137.5323  154.9889 N   0  0  0  0  0  0  0  0  0  0  0  0
  148.6168  138.8718  155.1664 C   0  0  0  0  0  0  0  0  0  0  0  0
  149.4045  139.9531  154.4077 C   0  0  0  0  0  0  0  0  0  0  0  0
  150.7617  139.9413  154.8302 O   0  0  0  0  0  0  0  0  0  0  0  0
  151.3818  138.6808  154.6119 C   0  0  0  0  0  0  0  0  0  0  0  0
  150.6133  137.5839  155.3689 C   0  0  0  0  0  0  0  0  0  0  0  0
  143.0796  134.1786  150.1622 H   0  0  0  0  0  0  0  0  0  0  0  0
  148.9198  136.9586  159.0753 H   0  0  0  0  0  0  0  0  0  0  0  0
  149.9509  137.5720  157.7943 H   0  0  0  0  0  0  0  0  0  0  0  0
  149.8110  135.8342  158.0595 H   0  0  0  0  0  0  0  0  0  0  0  0
  147.3373  135.9978  157.4712 H   0  0  0  0  0  0  0  0  0  0  0  0
  147.5208  137.6662  157.1732 H   0  0  0  0  0  0  0  0  0  0  0  0
  148.6286  134.2754  156.0659 H   0  0  0  0  0  0  0  0  0  0  0  0
  150.1355  135.1489  156.1533 H   0  0  0  0  0  0  0  0  0  0  0  0
  149.4393  134.7423  154.5893 H   0  0  0  0  0  0  0  0  0  0  0  0
  146.3652  135.6322  155.4159 H   0  0  0  0  0  0  0  0  0  0  0  0
  146.6187  137.1332  154.5558 H   0  0  0  0  0  0  0  0  0  0  0  0
  147.6954  135.9758  152.7984 H   0  0  0  0  0  0  0  0  0  0  0  0
  147.7866  134.3659  151.3576 H   0  0  0  0  0  0  0  0  0  0  0  0
  147.9608  132.7785  152.0274 H   0  0  0  0  0  0  0  0  0  0  0  0
  146.8656  131.2569  150.7261 H   0  0  0  0  0  0  0  0  0  0  0  0
  144.9931  130.4693  149.4495 H   0  0  0  0  0  0  0  0  0  0  0  0
  147.5915  138.9086  154.8050 H   0  0  0  0  0  0  0  0  0  0  0  0
  148.5922  139.1359  156.2235 H   0  0  0  0  0  0  0  0  0  0  0  0
  149.3477  139.7888  153.3304 H   0  0  0  0  0  0  0  0  0  0  0  0
  148.9798  140.9378  154.6039 H   0  0  0  0  0  0  0  0  0  0  0  0
  151.4132  138.4623  153.5433 H   0  0  0  0  0  0  0  0  0  0  0  0
  152.4141  138.7278  154.9588 H   0  0  0  0  0  0  0  0  0  0  0  0
  150.7111  137.7613  156.4399 H   0  0  0  0  0  0  0  0  0  0  0  0
  151.1113  136.6405  155.1557 H   0  0  0  0  0  0  0  0  0  0  0  0
  1  2  1  0  0  0  0
  1 25  1  0  0  0  0
  1 26  1  0  0  0  0
  1 27  1  0  0  0  0
  2  3  1  0  0  0  0
  2 28  1  0  0  0  0
  2 29  1  0  0  0  0
  3  4  1  0  0  0  0
  3  5  1  0  0  0  0
  3 18  1  0  0  0  0
  4 30  1  0  0  0  0
  4 31  1  0  0  0  0
  4 32  1  0  0  0  0
  5  6  1  0  0  0  0
  5 33  1  0  0  0  0
  5 34  1  0  0  0  0
  6  7  1  0  0  0  0
  6 35  1  0  0  0  0
  7  8  2  0  0  0  0
  7  9  1  0  0  0  0
  9 10  1  0  0  0  0
  9 36  1  0  0  0  0
  9 37  1  0  0  0  0
 10 16  1  0  0  0  0
 10 11  1  0  0  0  0
 11 12  2  0  0  0  0
 11 38  1  0  0  0  0
 12 13  1  0  0  0  0
 12 39  1  0  0  0  0
 13 14  2  0  0  0  0
 13 15  1  0  0  0  0
 15 24  1  0  0  0  0
 15 16  1  0  0  0  0
 16 17  2  0  0  0  0
 18 23  1  0  0  0  0
 18 19  1  0  0  0  0
 19 20  1  0  0  0  0
 19 40  1  0  0  0  0
 19 41  1  0  0  0  0
 20 21  1  0  0  0  0
 20 42  1  0  0  0  0
 20 43  1  0  0  0  0
 21 22  1  0  0  0  0
 22 23  1  0  0  0  0
 22 44  1  0  0  0  0
 22 45  1  0  0  0  0
 23 46  1  0  0  0  0
 23 47  1  0  0  0  0
M  END
> <s_m_source_file>
AV-unprocessed.smi

> <i_m_source_file_index>
1560

> <i_lp_mmshare_version>
43012

> <i_f3d_flags>
0

> <s_epik_input>
W0NIMl0xW0NIMl1PW0NIMl1bQ0gyXU4xW0NAQF0oW0NIM10pKFtDSDJdW0NIM10pW0NIMl1bTkhdQyg9TylbQ0gyXW4yW2NIXVtjSF1jKD1PKVtuSF1jMj1P

> <s_epik_cmdline>
J2VwaWtfcHl0aG9uJywgJy1waCcsICc3LjAnLCAnLXRuJywgJzgnLCAnLW1hJywgJzIwMCcsICctbWV0YWxfYmluZGluZycsICctaW1hZScsICc8aW5maWxlLm1hZT4nLCAnLW9tYWUnLCAnPG91dGZpbGUubWFlPic=

> <r_lp_tautomer_probability>
0.999537

> <r_epik_Ionization_Penalty>
0.321965

> <r_epik_Ionization_Penalty_Charging>
0.00329831

> <r_epik_Ionization_Penalty_Neutral>
0.318667

> <r_epik_State_Penalty>
0.288097

> <r_epik_Charging_Adjusted_Penalty>
0.291396

> <i_epik_Tot_Q>
0

> <i_epik_Tot_abs_Q>
0

> <r_epik_Metal_State_Penalty>
0.654595

> <b_epik_Metal_Only>
0

> <s_lp_Force_Field>
OPLS_2005

> <r_lp_Energy>
42.3402

> <b_lp_Chiralities_Consistent>
1

> <s_lp_Variant>
AV-unprocessed.smi:1560-1

> <Gold.Version>
5.8.1

> <Gold.Id.Protein>
6NUR|6NUR_protein|mol2

> <Gold.PLP.Fitness>
37.7761

> <Gold.PLP.PLP>
-25.7748

> <Gold.PLP.part.hbond>
-3.8746

> <Gold.PLP.part.metal>
0.0000

> <Gold.PLP.part.buried>
-3.9066

> <Gold.PLP.part.nonpolar>
-23.0736

> <Gold.PLP.part.repulsive>
4.3519

> <Gold.PLP.ligand.clash>
0.0000

> <Gold.PLP.ligand.torsion>
0.7199

> <Gold.PLP.Chemscore.Hbond>
3.4506

> <Gold.PLP.Chemscore.CHOScore>
1.0000

> <Gold.PLP.Chemscore.Metal>
0.0000

> <Gold.Chemscore.Hbonds>
donor molecule, donor type, donor heavy atom, donor atom, acceptor molecule, acceptor atom, score
      L1  H     6    35       P1  7948  0.96
      L1  H    15    24       P1 10186  0.62
      P1  H  7989  7998       L1    21  0.85
      P1  H 10785 10796       L1    14  1.00
      L1  C    11    38       P1 10747  1.00

> <Gold.PLP.Chemscore.Internal.Correction>
0.0893

> <Gold.Rescore>
     Score         DG    S(hbond)    S(metal)    S(lipo)     H(rot)  DE(clash)    DE(int)     intcor
      9.53     -13.37       2.39        0.00      53.77       2.49       1.87       1.97       ----

> <Gold.Chemscore.Fitness>
9.5326

> <Gold.Chemscore.DG>
-13.3736

> <Gold.Chemscore.ZeroCoef>
-5.4800

> <Gold.Chemscore.Hbond>
2.3852

> <Gold.Chemscore.Metal>
0.0000

> <Gold.Chemscore.Lipo>
53.7747

> <Gold.Chemscore.Internal_Hbond>
0.0000

> <Gold.Chemscore.DEClash>
1.8666

> <Gold.Chemscore.DEInternal>
1.9744

> <Gold.Chemscore.Rot>
2.4862

> <Gold.Chemscore.Internal.Correction>
   9.000000E+99

> <Gold.Chemscore.Hbonds>
donor molecule, donor type, donor heavy atom, donor atom, acceptor molecule, acceptor atom, score
      L1  H     6    35       P1  7948  0.90
      L1  H    15    24       P1 10186  0.57
      P1  H  7989  7998       L1    21  0.06
      P1  H 10785 10796       L1    14  0.25

> <Gold.Chemscore.Hbond.Weighted>
-7.9666

> <Gold.Chemscore.Metal.Weighted>
-0.0000

> <Gold.Chemscore.Lipo.Weighted>
-6.2916

> <Gold.Chemscore.Internal_Hbond.Weighted>
0.0000

> <Gold.Chemscore.DEClash.Weighted>
1.8666

> <Gold.Chemscore.DEInternal.Weighted>
1.9744

> <Gold.Chemscore.Rot.Weighted>
6.3646

> <Gold.Chemscore.Internal.Correction.Weighted>
   9.000000E+99

> <Gold.Protein.RotatedTorsions>
[ 6907 6896 6895 6894 ] final  -34.90 input  -60.11 | X-H torsion
[ 7974 7965 7964 7962 ] final  144.60 input  175.53 | X-H torsion
[ 8008 7997 7996 7995 ] final  -44.51 input   59.86 | X-H torsion
[ 10167 10162 10161 10158 ] final  128.01 input  -65.29 | X-H torsion
[ 10718 10713 10712 10709 ] final  -25.43 input   66.30 | X-H torsion
[ 10763 10752 10751 10750 ] final   52.62 input  -60.55 | X-H torsion
[ 11005 11000 10999 10996 ] final   35.05 input  -57.11 | X-H torsion

> <Gold.Protein.ActiveResidues>
 VAL166  LYS551  ARG553  GLY616  TRP617  ASP618  TYR619  PRO620  LYS621  CYS622 
 ASP623  PHE694  ASN695  SER759  ASP760  ASP761  ALA762  ILE779  LEU786  VAL792 
 PHE793  MET794  SER795  GLU796  ALA797  LYS798  CYS799  TRP800  GLU811  SER814 

> <Gold.Protein.RotatedAtoms>
  151.0467  134.9645  159.8189 H   0  0  0  0  0  0  0  0  0  0  0  0  # atno 6907 bound_to 6896
  152.5374  134.2589  159.8937 H   0  0  0  0  0  0  0  0  0  0  0  0  # atno 6908 bound_to 6896
  151.2603  133.4262  159.2649 H   0  0  0  0  0  0  0  0  0  0  0  0  # atno 6909 bound_to 6896
  144.8822  139.5681  143.5837 H   0  0  0  0  0  0  0  0  0  0  0  0  # atno 7974 bound_to 7965
  154.3997  140.1420  156.3694 H   0  0  0  0  0  0  0  0  0  0  0  0  # atno 8008 bound_to 7997
  155.8106  140.3473  155.5435 H   0  0  0  0  0  0  0  0  0  0  0  0  # atno 8009 bound_to 7997
  155.8390  140.0924  157.1737 H   0  0  0  0  0  0  0  0  0  0  0  0  # atno 8010 bound_to 7997
  139.5549  144.6841  151.4213 H   0  0  0  0  0  0  0  0  0  0  0  0  # atno 10167 bound_to 10162
  156.4645  130.4511  149.6908 H   0  0  0  0  0  0  0  0  0  0  0  0  # atno 10718 bound_to 10713
  152.9790  135.5806  154.4608 H   0  0  0  0  0  0  0  0  0  0  0  0  # atno 10763 bound_to 10752
  154.4185  135.2771  155.1993 H   0  0  0  0  0  0  0  0  0  0  0  0  # atno 10764 bound_to 10752
  154.3752  135.6159  153.5815 H   0  0  0  0  0  0  0  0  0  0  0  0  # atno 10765 bound_to 10752
  140.2466  134.3352  155.7905 H   0  0  0  0  0  0  0  0  0  0  0  0  # atno 11005 bound_to 11000
  146.3002  139.7402  142.9097 LP  0  0  0  0  0  0  0  0  0  0  0  0  # atno 17320 bound_to 7965
  145.3933  141.0375  143.3112 LP  0  0  0  0  0  0  0  0  0  0  0  0  # atno 17321 bound_to 7965
  140.6819  143.8061  150.7133 LP  0  0  0  0  0  0  0  0  0  0  0  0  # atno 17342 bound_to 10162
  140.1517  143.4351  152.2126 LP  0  0  0  0  0  0  0  0  0  0  0  0  # atno 17343 bound_to 10162
  156.3682  130.7517  151.2497 LP  0  0  0  0  0  0  0  0  0  0  0  0  # atno 17370 bound_to 10713
  157.7495  131.0330  150.4254 LP  0  0  0  0  0  0  0  0  0  0  0  0  # atno 17371 bound_to 10713
  141.2205  133.7329  156.8971 LP  0  0  0  0  0  0  0  0  0  0  0  0  # atno 17394 bound_to 11000
  140.1599  134.9172  157.2702 LP  0  0  0  0  0  0  0  0  0  0  0  0  # atno 17395 bound_to 11000

$$$$
