AV-unprocessed.smi:162|AV-procd|sdf|1378|dock4
  -GOLD-   2262019103D 1   1.00000     0.00000
 Structure written by MMmdl.
 54 57  0  0  0  0  0  0  0  0  1 V2000
  146.5740  143.5560  151.7656 C   0  0  0  0  0  0  0  0  0  0  0  0
  147.4339  142.9223  152.6952 O   0  0  0  0  0  0  0  0  0  0  0  0
  147.5783  141.5332  152.4477 C   0  0  0  0  0  0  0  0  0  0  0  0
  148.2038  140.8619  153.6813 C   0  0  2  0  0  0  0  0  0  0  0  0
  149.6395  141.2987  153.9585 C   0  0  0  0  0  0  0  0  0  0  0  0
  150.1258  140.2013  154.9092 C   0  0  2  0  0  0  0  0  0  0  0  0
  151.5299  139.9933  154.8579 O   0  0  0  0  0  0  0  0  0  0  0  0
  151.9581  138.8322  155.5507 C   0  0  0  0  0  0  0  0  0  0  0  0
  149.3735  138.9492  154.4333 C   0  0  0  0  0  0  0  0  0  0  0  0
  148.3090  139.4134  153.5508 N   0  0  0  0  0  0  0  0  0  0  0  0
  147.1623  138.7048  153.6247 C   0  0  0  0  0  0  0  0  0  0  0  0
  146.4590  138.7976  154.7793 N   0  0  0  0  0  0  0  0  0  0  0  0
  145.3202  138.1134  154.9237 C   0  0  0  0  0  0  0  0  0  0  0  0
  144.7193  137.2977  154.0543 N   0  0  0  0  0  0  0  0  0  0  0  0
  145.4227  137.2099  152.8888 C   0  0  0  0  0  0  0  0  0  0  0  0
  146.6432  137.8776  152.5890 C   0  0  0  0  0  0  0  0  0  0  0  0
  147.0571  137.5528  151.3025 N   0  0  0  0  0  0  0  0  0  0  0  0
  146.1393  136.7311  150.8712 C   0  0  0  0  0  0  0  0  0  0  0  0
  145.1179  136.4734  151.7577 N   0  0  0  0  0  0  0  0  0  0  0  0
  143.9727  135.6022  151.5413 C   0  0  0  0  0  0  0  0  0  0  0  0
  144.3514  134.1429  151.1879 C   0  0  0  0  0  0  0  0  0  0  0  0
  144.3878  134.0398  149.7746 O   0  0  0  0  0  0  0  0  0  0  0  0
  145.7517  133.8023  151.7365 C   0  0  0  0  0  0  0  0  0  0  0  0
  146.1012  132.3149  151.5501 C   0  0  0  0  0  0  0  0  0  0  0  0
  145.1005  131.5019  152.1507 O   0  0  0  0  0  0  0  0  0  0  0  0
  143.8229  131.6665  151.5475 C   0  0  0  0  0  0  0  0  0  0  0  0
  143.3329  133.1145  151.7276 C   0  0  0  0  0  0  0  0  0  0  0  0
  147.6080  141.1153  154.5582 H   0  0  0  0  0  0  0  0  0  0  0  0
  149.8078  140.4298  155.9282 H   0  0  0  0  0  0  0  0  0  0  0  0
  146.4954  144.6164  152.0046 H   0  0  0  0  0  0  0  0  0  0  0  0
  145.5718  143.1271  151.8012 H   0  0  0  0  0  0  0  0  0  0  0  0
  146.9587  143.4670  150.7488 H   0  0  0  0  0  0  0  0  0  0  0  0
  146.6182  141.0751  152.2038 H   0  0  0  0  0  0  0  0  0  0  0  0
  148.2339  141.3974  151.5860 H   0  0  0  0  0  0  0  0  0  0  0  0
  150.2236  141.2851  153.0367 H   0  0  0  0  0  0  0  0  0  0  0  0
  149.7033  142.2980  154.3898 H   0  0  0  0  0  0  0  0  0  0  0  0
  153.0376  138.7245  155.4457 H   0  0  0  0  0  0  0  0  0  0  0  0
  151.4906  137.9344  155.1444 H   0  0  0  0  0  0  0  0  0  0  0  0
  151.7324  138.8937  156.6155 H   0  0  0  0  0  0  0  0  0  0  0  0
  150.0328  138.3031  153.8528 H   0  0  0  0  0  0  0  0  0  0  0  0
  149.0005  138.3668  155.2773 H   0  0  0  0  0  0  0  0  0  0  0  0
  144.8187  138.2375  155.8721 H   0  0  0  0  0  0  0  0  0  0  0  0
  146.1792  136.2905  149.8854 H   0  0  0  0  0  0  0  0  0  0  0  0
  143.3498  135.6278  152.4367 H   0  0  0  0  0  0  0  0  0  0  0  0
  143.3690  136.0336  150.7419 H   0  0  0  0  0  0  0  0  0  0  0  0
  145.2855  134.1236  149.4912 H   0  0  0  0  0  0  0  0  0  0  0  0
  146.5112  134.4279  151.2657 H   0  0  0  0  0  0  0  0  0  0  0  0
  145.7863  134.0315  152.8026 H   0  0  0  0  0  0  0  0  0  0  0  0
  146.2059  132.0628  150.4938 H   0  0  0  0  0  0  0  0  0  0  0  0
  147.0592  132.0958  152.0219 H   0  0  0  0  0  0  0  0  0  0  0  0
  143.8691  131.3958  150.4916 H   0  0  0  0  0  0  0  0  0  0  0  0
  143.1226  130.9760  152.0178 H   0  0  0  0  0  0  0  0  0  0  0  0
  143.1695  133.2958  152.7907 H   0  0  0  0  0  0  0  0  0  0  0  0
  142.3625  133.2347  151.2444 H   0  0  0  0  0  0  0  0  0  0  0  0
  1  2  1  0  0  0  0
  1 30  1  0  0  0  0
  1 31  1  0  0  0  0
  1 32  1  0  0  0  0
  2  3  1  0  0  0  0
  3  4  1  0  0  0  0
  3 33  1  0  0  0  0
  3 34  1  0  0  0  0
  4 28  1  0  0  0  0
  4 10  1  0  0  0  0
  4  5  1  0  0  0  0
  5  6  1  0  0  0  0
  5 35  1  0  0  0  0
  5 36  1  0  0  0  0
  6 29  1  0  0  0  0
  6  7  1  0  0  0  0
  6  9  1  0  0  0  0
  7  8  1  0  0  0  0
  8 37  1  0  0  0  0
  8 38  1  0  0  0  0
  8 39  1  0  0  0  0
  9 10  1  0  0  0  0
  9 40  1  0  0  0  0
  9 41  1  0  0  0  0
 10 11  1  0  0  0  0
 11 16  1  0  0  0  0
 11 12  2  0  0  0  0
 12 13  1  0  0  0  0
 13 14  2  0  0  0  0
 13 42  1  0  0  0  0
 14 15  1  0  0  0  0
 15 19  1  0  0  0  0
 15 16  2  0  0  0  0
 16 17  1  0  0  0  0
 17 18  2  0  0  0  0
 18 19  1  0  0  0  0
 18 43  1  0  0  0  0
 19 20  1  0  0  0  0
 20 21  1  0  0  0  0
 20 44  1  0  0  0  0
 20 45  1  0  0  0  0
 21 27  1  0  0  0  0
 21 22  1  0  0  0  0
 21 23  1  0  0  0  0
 22 46  1  0  0  0  0
 23 24  1  0  0  0  0
 23 47  1  0  0  0  0
 23 48  1  0  0  0  0
 24 25  1  0  0  0  0
 24 49  1  0  0  0  0
 24 50  1  0  0  0  0
 25 26  1  0  0  0  0
 26 27  1  0  0  0  0
 26 51  1  0  0  0  0
 26 52  1  0  0  0  0
 27 53  1  0  0  0  0
 27 54  1  0  0  0  0
M  END
> <s_m_source_file>
AV-unprocessed.smi

> <i_m_source_file_index>
162

> <i_lp_mmshare_version>
43012

> <i_f3d_flags>
0

> <s_epik_input>
W0NIM11PW0NIMl1bQ0BASF0xW0NIMl1bQ0BASF0oT1tDSDNdKVtDSDJdTjFjKG5bY0hdbjIpYyhjMjMpbltjSF1uM1tDSDJdQzQoW09IXSlbQ0gyXVtDSDJdT1tDSDJdW0NIMl00

> <s_epik_cmdline>
J2VwaWtfcHl0aG9uJywgJy1waCcsICc3LjAnLCAnLXRuJywgJzgnLCAnLW1hJywgJzIwMCcsICctbWV0YWxfYmluZGluZycsICctaW1hZScsICc8aW5maWxlLm1hZT4nLCAnLW9tYWUnLCAnPG91dGZpbGUubWFlPic=

> <r_lp_tautomer_probability>
1

> <r_epik_Ionization_Penalty>
0.00660334

> <r_epik_Ionization_Penalty_Charging>
0

> <r_epik_Ionization_Penalty_Neutral>
0.00660334

> <r_epik_State_Penalty>
0.00469459

> <r_epik_Charging_Adjusted_Penalty>
0.00469459

> <i_epik_Tot_Q>
0

> <i_epik_Tot_abs_Q>
0

> <r_epik_Metal_State_Penalty>
-0

> <b_epik_Metal_Only>
0

> <s_lp_Force_Field>
OPLS_2005

> <r_lp_Energy>
44.4659

> <b_lp_Chiralities_Consistent>
1

> <s_lp_Variant>
AV-unprocessed.smi:162-3

> <Gold.Version>
5.8.1

> <Gold.Id.Protein>
6NUR|6NUR_protein|mol2

> <Gold.PLP.Fitness>
52.1931

> <Gold.PLP.PLP>
-44.2382

> <Gold.PLP.part.hbond>
-3.5206

> <Gold.PLP.part.metal>
0.0000

> <Gold.PLP.part.buried>
-3.0028

> <Gold.PLP.part.nonpolar>
-41.3839

> <Gold.PLP.part.repulsive>
3.4239

> <Gold.PLP.ligand.clash>
0.0000

> <Gold.PLP.ligand.torsion>
0.8470

> <Gold.PLP.Chemscore.Hbond>
2.9425

> <Gold.PLP.Chemscore.CHOScore>
0.2147

> <Gold.PLP.Chemscore.Metal>
0.0000

> <Gold.Chemscore.Hbonds>
donor molecule, donor type, donor heavy atom, donor atom, acceptor molecule, acceptor atom, score
      L1  H    22    46       P1  7921  0.44
      P1  H  7954  7966       L1    17  1.00
      P1  H  7989  7998       L1     7  0.60
      P1  H  8022  8030       L1     2  0.04
      L1  C    18    43       P1  7921  0.66

> <Gold.PLP.Chemscore.Internal.Correction>
0.1773

> <Gold.Rescore>
     Score         DG    S(hbond)    S(metal)    S(lipo)     H(rot)  DE(clash)    DE(int)     intcor
     11.35     -15.13       1.80        0.00      93.78       2.86       2.56       1.22       ----

> <Gold.Chemscore.Fitness>
11.3542

> <Gold.Chemscore.DG>
-15.1312

> <Gold.Chemscore.ZeroCoef>
-5.4800

> <Gold.Chemscore.Hbond>
1.7997

> <Gold.Chemscore.Metal>
0.0000

> <Gold.Chemscore.Lipo>
93.7832

> <Gold.Chemscore.Internal_Hbond>
0.0000

> <Gold.Chemscore.DEClash>
2.5617

> <Gold.Chemscore.DEInternal>
1.2153

> <Gold.Chemscore.Rot>
2.8642

> <Gold.Chemscore.Internal.Correction>
   9.000000E+99

> <Gold.Chemscore.Hbonds>
donor molecule, donor type, donor heavy atom, donor atom, acceptor molecule, acceptor atom, score
      L1  H    22    46       P1  7921  0.41
      P1  H  7954  7966       L1    17  0.55
      P1  H  7989  7998       L1     7  0.04
      P1  H  8022  8030       L1     2  0.01

> <Gold.Chemscore.Hbond.Weighted>
-6.0109

> <Gold.Chemscore.Metal.Weighted>
-0.0000

> <Gold.Chemscore.Lipo.Weighted>
-10.9726

> <Gold.Chemscore.Internal_Hbond.Weighted>
0.0000

> <Gold.Chemscore.DEClash.Weighted>
2.5617

> <Gold.Chemscore.DEInternal.Weighted>
1.2153

> <Gold.Chemscore.Rot.Weighted>
7.3324

> <Gold.Chemscore.Internal.Correction.Weighted>
   9.000000E+99

> <Gold.Protein.RotatedTorsions>
[ 6907 6896 6895 6894 ] final  121.84 input  -60.11 | X-H torsion
[ 7974 7965 7964 7962 ] final  -23.46 input  175.53 | X-H torsion
[ 8008 7997 7996 7995 ] final -138.24 input   59.86 | X-H torsion
[ 10167 10162 10161 10158 ] final  109.47 input  -65.29 | X-H torsion
[ 10718 10713 10712 10709 ] final -157.04 input   66.30 | X-H torsion
[ 10763 10752 10751 10750 ] final  -77.33 input  -60.55 | X-H torsion
[ 11005 11000 10999 10996 ] final -158.52 input  -57.11 | X-H torsion

> <Gold.Protein.ActiveResidues>
 VAL166  LYS551  ARG553  GLY616  TRP617  ASP618  TYR619  PRO620  LYS621  CYS622 
 ASP623  PHE694  ASN695  SER759  ASP760  ASP761  ALA762  ILE779  LEU786  VAL792 
 PHE793  MET794  SER795  GLU796  ALA797  LYS798  CYS799  TRP800  GLU811  SER814 

> <Gold.Protein.RotatedAtoms>
  152.4290  133.7245  159.6551 H   0  0  0  0  0  0  0  0  0  0  0  0  # atno 6907 bound_to 6896
  150.8168  133.8312  159.3163 H   0  0  0  0  0  0  0  0  0  0  0  0  # atno 6908 bound_to 6896
  151.6006  135.1049  160.0111 H   0  0  0  0  0  0  0  0  0  0  0  0  # atno 6909 bound_to 6896
  146.1615  140.4619  142.8569 H   0  0  0  0  0  0  0  0  0  0  0  0  # atno 7974 bound_to 7965
  155.4251  140.0521  157.3023 H   0  0  0  0  0  0  0  0  0  0  0  0  # atno 8008 bound_to 7997
  154.4885  140.2110  155.9560 H   0  0  0  0  0  0  0  0  0  0  0  0  # atno 8009 bound_to 7997
  156.1309  140.3172  155.8352 H   0  0  0  0  0  0  0  0  0  0  0  0  # atno 8010 bound_to 7997
  139.6764  144.7122  151.1594 H   0  0  0  0  0  0  0  0  0  0  0  0  # atno 10167 bound_to 10162
  156.5348  130.8537  151.2728 H   0  0  0  0  0  0  0  0  0  0  0  0  # atno 10718 bound_to 10713
  154.5116  135.5767  153.6609 H   0  0  0  0  0  0  0  0  0  0  0  0  # atno 10763 bound_to 10752
  152.9898  135.6160  154.2872 H   0  0  0  0  0  0  0  0  0  0  0  0  # atno 10764 bound_to 10752
  154.2787  135.2851  155.2686 H   0  0  0  0  0  0  0  0  0  0  0  0  # atno 10765 bound_to 10752
  140.6527  134.4433  157.5235 H   0  0  0  0  0  0  0  0  0  0  0  0  # atno 11005 bound_to 11000
  144.8033  140.6253  143.6464 LP  0  0  0  0  0  0  0  0  0  0  0  0  # atno 17320 bound_to 7965
  145.4577  139.1516  143.3883 LP  0  0  0  0  0  0  0  0  0  0  0  0  # atno 17321 bound_to 7965
  140.7637  143.5765  150.8940 LP  0  0  0  0  0  0  0  0  0  0  0  0  # atno 17342 bound_to 10162
  139.9434  143.6355  152.3048 LP  0  0  0  0  0  0  0  0  0  0  0  0  # atno 17343 bound_to 10162
  157.7415  130.9872  150.2454 LP  0  0  0  0  0  0  0  0  0  0  0  0  # atno 17370 bound_to 10713
  156.3026  130.3760  149.7736 LP  0  0  0  0  0  0  0  0  0  0  0  0  # atno 17371 bound_to 10713
  139.9040  134.8491  156.1780 LP  0  0  0  0  0  0  0  0  0  0  0  0  # atno 17394 bound_to 11000
  141.0524  133.6882  156.1797 LP  0  0  0  0  0  0  0  0  0  0  0  0  # atno 17395 bound_to 11000

$$$$
