AV-unprocessed.smi:1911|AV-procd|sdf|7739|dock8
  -GOLD-   22720 9483D 1   1.00000     0.00000
 Structure written by MMmdl.
 52 54  0  0  0  0  0  0  0  0  2 V2000
  150.9837  128.6454  153.8258 N   0  0  0  0  0  0  0  0  0  0  0  0
  151.8970  129.2467  154.5918 C   0  0  0  0  0  0  0  0  0  0  0  0
  153.0945  129.2390  154.3120 O   0  0  0  0  0  0  0  0  0  0  0  0
  151.3824  129.9735  155.8391 C   0  0  0  0  0  0  0  0  0  0  0  0
  151.3694  131.4519  155.6892 N   0  3  2  0  0  0  0  0  0  0  0  0
  151.8283  132.1668  156.9108 C   0  0  0  0  0  0  0  0  0  0  0  0
  151.9251  133.6817  156.6645 C   0  0  0  0  0  0  0  0  0  0  0  0
  150.5811  134.2512  156.1833 C   0  0  1  0  0  0  0  0  0  0  0  0
  150.7189  135.6746  155.8882 N   0  0  0  0  0  0  0  0  0  0  0  0
  150.9801  136.6267  156.7957 C   0  0  0  0  0  0  0  0  0  0  0  0
  151.1191  136.3953  157.9964 O   0  0  0  0  0  0  0  0  0  0  0  0
  151.0448  137.8410  156.2231 N   0  0  0  0  0  0  0  0  0  0  0  0
  151.3072  139.0956  156.8372 C   0  0  0  0  0  0  0  0  0  0  0  0
  151.1664  140.2583  156.0547 C   0  0  0  0  0  0  0  0  0  0  0  0
  151.4339  141.5146  156.6306 C   0  0  0  0  0  0  0  0  0  0  0  0
  151.8447  141.5766  157.9834 C   0  0  0  0  0  0  0  0  0  0  0  0
  152.1278  142.8097  158.6040 N   0  0  0  0  0  0  0  0  0  0  0  0
  151.4771  144.0477  158.2072 C   0  0  0  0  0  0  0  0  0  0  0  0
  151.9767  145.0875  159.2101 C   0  0  0  0  0  0  0  0  0  0  0  0
  152.1892  144.2697  160.4840 C   0  0  0  0  0  0  0  0  0  0  0  0
  152.6221  142.8910  159.9729 C   0  0  0  0  0  0  0  0  0  0  0  0
  151.9995  140.4580  158.7305 N   0  0  0  0  0  0  0  0  0  0  0  0
  151.7407  139.2556  158.1748 C   0  0  0  0  0  0  0  0  0  0  0  0
  150.1101  133.4723  154.9413 C   0  0  0  0  0  0  0  0  0  0  0  0
  150.0550  131.9610  155.2208 C   0  0  0  0  0  0  0  0  0  0  0  0
  151.2742  128.1575  152.9901 H   0  0  0  0  0  0  0  0  0  0  0  0
  150.0059  128.6813  154.0765 H   0  0  0  0  0  0  0  0  0  0  0  0
  150.3669  129.6138  156.0109 H   0  0  0  0  0  0  0  0  0  0  0  0
  151.9672  129.6911  156.7164 H   0  0  0  0  0  0  0  0  0  0  0  0
  151.1391  131.9649  157.7324 H   0  0  0  0  0  0  0  0  0  0  0  0
  152.8046  131.7936  157.2214 H   0  0  0  0  0  0  0  0  0  0  0  0
  152.2379  134.1841  157.5807 H   0  0  0  0  0  0  0  0  0  0  0  0
  152.7011  133.8785  155.9229 H   0  0  0  0  0  0  0  0  0  0  0  0
  149.8494  134.1237  156.9839 H   0  0  0  0  0  0  0  0  0  0  0  0
  150.6146  135.9543  154.9236 H   0  0  0  0  0  0  0  0  0  0  0  0
  150.8296  137.8805  155.2376 H   0  0  0  0  0  0  0  0  0  0  0  0
  150.8525  140.1929  155.0232 H   0  0  0  0  0  0  0  0  0  0  0  0
  151.3218  142.4040  156.0290 H   0  0  0  0  0  0  0  0  0  0  0  0
  151.7278  144.3275  157.1835 H   0  0  0  0  0  0  0  0  0  0  0  0
  150.3954  143.9289  158.2815 H   0  0  0  0  0  0  0  0  0  0  0  0
  152.9303  145.4971  158.8736 H   0  0  0  0  0  0  0  0  0  0  0  0
  151.2810  145.9164  159.3444 H   0  0  0  0  0  0  0  0  0  0  0  0
  152.9162  144.7173  161.1621 H   0  0  0  0  0  0  0  0  0  0  0  0
  151.2429  144.1795  161.0197 H   0  0  0  0  0  0  0  0  0  0  0  0
  152.2241  142.0981  160.6074 H   0  0  0  0  0  0  0  0  0  0  0  0
  153.7091  142.8058  159.9600 H   0  0  0  0  0  0  0  0  0  0  0  0
  151.9105  138.4138  158.8274 H   0  0  0  0  0  0  0  0  0  0  0  0
  149.1254  133.8202  154.6269 H   0  0  0  0  0  0  0  0  0  0  0  0
  150.7856  133.6623  154.1057 H   0  0  0  0  0  0  0  0  0  0  0  0
  149.7618  131.4406  154.3081 H   0  0  0  0  0  0  0  0  0  0  0  0
  149.2916  131.7441  155.9697 H   0  0  0  0  0  0  0  0  0  0  0  0
  152.0329  131.6634  154.9570 H   0  0  0  0  0  0  0  0  0  0  0  0
  1  2  1  0  0  0  0
  1 26  1  0  0  0  0
  1 27  1  0  0  0  0
  2  3  2  0  0  0  0
  2  4  1  0  0  0  0
  4  5  1  0  0  0  0
  4 28  1  0  0  0  0
  4 29  1  0  0  0  0
  5 25  1  0  0  0  0
  5  6  1  0  0  0  0
  5 52  1  0  0  0  0
  6  7  1  0  0  0  0
  6 30  1  0  0  0  0
  6 31  1  0  0  0  0
  7  8  1  0  0  0  0
  7 32  1  0  0  0  0
  7 33  1  0  0  0  0
  8  9  1  0  0  0  0
  8 24  1  0  0  0  0
  8 34  1  0  0  0  0
  9 10  1  0  0  0  0
  9 35  1  0  0  0  0
 10 11  2  0  0  0  0
 10 12  1  0  0  0  0
 12 13  1  0  0  0  0
 12 36  1  0  0  0  0
 13 23  1  0  0  0  0
 13 14  2  0  0  0  0
 14 15  1  0  0  0  0
 14 37  1  0  0  0  0
 15 16  2  0  0  0  0
 15 38  1  0  0  0  0
 16 17  1  0  0  0  0
 16 22  1  0  0  0  0
 17 21  1  0  0  0  0
 17 18  1  0  0  0  0
 18 19  1  0  0  0  0
 18 39  1  0  0  0  0
 18 40  1  0  0  0  0
 19 20  1  0  0  0  0
 19 41  1  0  0  0  0
 19 42  1  0  0  0  0
 20 21  1  0  0  0  0
 20 43  1  0  0  0  0
 20 44  1  0  0  0  0
 21 45  1  0  0  0  0
 21 46  1  0  0  0  0
 22 23  2  0  0  0  0
 23 47  1  0  0  0  0
 24 25  1  0  0  0  0
 24 48  1  0  0  0  0
 24 49  1  0  0  0  0
 25 50  1  0  0  0  0
 25 51  1  0  0  0  0
M  CHG  1   5   1
M  END
> <s_m_source_file>
AV-unprocessed.smi

> <i_m_source_file_index>
1911

> <i_lp_mmshare_version>
43012

> <i_f3d_flags>
0

> <s_epik_input>
W05IMl1DKD1PKVtDSDJdTjFbQ0gyXVtDSDJdW0NIXShbQ0gyXVtDSDJdMSlbTkhdQyg9TylbTkhdYzJbY0hdW2NIXWMobltjSF0yKU4zW0NIMl1bQ0gyXVtDSDJdW0NIMl0z

> <s_epik_cmdline>
J2VwaWtfcHl0aG9uJywgJy1waCcsICc3LjAnLCAnLXRuJywgJzgnLCAnLW1hJywgJzIwMCcsICctbWV0YWxfYmluZGluZycsICctaW1hZScsICc8aW5maWxlLm1hZT4nLCAnLW9tYWUnLCAnPG91dGZpbGUubWFlPic=

> <r_lp_tautomer_probability>
1

> <r_epik_Ionization_Penalty>
0.91661

> <r_epik_Ionization_Penalty_Charging>
0.838844

> <r_epik_Ionization_Penalty_Neutral>
0.0777665

> <r_epik_State_Penalty>
0.927046

> <r_epik_Charging_Adjusted_Penalty>
1.76589

> <i_epik_Tot_Q>
1

> <i_epik_Tot_abs_Q>
1

> <r_epik_Metal_State_Penalty>
0.950553

> <b_epik_Metal_Only>
0

> <s_lp_Force_Field>
OPLS_2005

> <r_lp_Energy>
39.0232

> <b_lp_Chiralities_Consistent>
1

> <s_lp_Variant>
AV-unprocessed.smi:1911-2

> <Gold.Version>
5.8.1

> <Gold.Id.Protein>
6NUR|6NUR_protein|mol2

> <Gold.PLP.Fitness>
44.6145

> <Gold.PLP.PLP>
-42.1549

> <Gold.PLP.part.hbond>
-2.0000

> <Gold.PLP.part.metal>
0.0000

> <Gold.PLP.part.buried>
-6.3449

> <Gold.PLP.part.nonpolar>
-35.0661

> <Gold.PLP.part.repulsive>
0.3251

> <Gold.PLP.ligand.clash>
0.0000

> <Gold.PLP.ligand.torsion>
0.9353

> <Gold.PLP.Chemscore.Hbond>
1.3848

> <Gold.PLP.Chemscore.CHOScore>
0.0000

> <Gold.PLP.Chemscore.Metal>
0.0000

> <Gold.Chemscore.Hbonds>
donor molecule, donor type, donor heavy atom, donor atom, acceptor molecule, acceptor atom, score
      L1  H     1    26       P1 10737  1.00
      P1  H  6896  6908       L1    11  0.26

> <Gold.PLP.Chemscore.Internal.Correction>
0.1759

> <Gold.Rescore>
     Score         DG    S(hbond)    S(metal)    S(lipo)     H(rot)  DE(clash)    DE(int)     intcor
     15.38     -17.40       1.53        0.00      99.82       1.91       0.06       1.96       ----

> <Gold.Chemscore.Fitness>
15.3849

> <Gold.Chemscore.DG>
-17.4001

> <Gold.Chemscore.ZeroCoef>
-5.4800

> <Gold.Chemscore.Hbond>
1.5342

> <Gold.Chemscore.Metal>
0.0000

> <Gold.Chemscore.Lipo>
99.8185

> <Gold.Chemscore.Internal_Hbond>
0.0000

> <Gold.Chemscore.DEClash>
0.0582

> <Gold.Chemscore.DEInternal>
1.9570

> <Gold.Chemscore.Rot>
1.9074

> <Gold.Chemscore.Internal.Correction>
   9.000000E+99

> <Gold.Chemscore.Hbonds>
donor molecule, donor type, donor heavy atom, donor atom, acceptor molecule, acceptor atom, score
      L1  H     1    26       P1 10737  0.94
      P1  H  6896  6908       L1    11  0.26

> <Gold.Chemscore.Hbond.Weighted>
-5.1243

> <Gold.Chemscore.Metal.Weighted>
-0.0000

> <Gold.Chemscore.Lipo.Weighted>
-11.6788

> <Gold.Chemscore.Internal_Hbond.Weighted>
0.0000

> <Gold.Chemscore.DEClash.Weighted>
0.0582

> <Gold.Chemscore.DEInternal.Weighted>
1.9570

> <Gold.Chemscore.Rot.Weighted>
4.8829

> <Gold.Chemscore.Internal.Correction.Weighted>
   9.000000E+99

> <Gold.Protein.RotatedTorsions>
[ 6907 6896 6895 6894 ] final -152.27 input  -60.11 | X-H torsion
[ 7974 7965 7964 7962 ] final  -94.38 input  175.53 | X-H torsion
[ 8008 7997 7996 7995 ] final -143.61 input   59.86 | X-H torsion
[ 10167 10162 10161 10158 ] final  107.80 input  -65.29 | X-H torsion
[ 10718 10713 10712 10709 ] final  -80.14 input   66.30 | X-H torsion
[ 10763 10752 10751 10750 ] final  -90.27 input  -60.55 | X-H torsion
[ 11005 11000 10999 10996 ] final  -60.17 input  -57.11 | X-H torsion

> <Gold.Protein.ActiveResidues>
 VAL166  LYS551  ARG553  GLY616  TRP617  ASP618  TYR619  PRO620  LYS621  CYS622 
 ASP623  PHE694  ASN695  SER759  ASP760  ASP761  ALA762  ILE779  LEU786  VAL792 
 PHE793  MET794  SER795  GLU796  ALA797  LYS798  CYS799  TRP800  GLU811  SER814 

> <Gold.Protein.RotatedAtoms>
  151.2254  133.4479  159.2601 H   0  0  0  0  0  0  0  0  0  0  0  0  # atno 6907 bound_to 6896
  151.0845  134.9879  159.8382 H   0  0  0  0  0  0  0  0  0  0  0  0  # atno 6908 bound_to 6896
  152.5428  134.2191  159.8833 H   0  0  0  0  0  0  0  0  0  0  0  0  # atno 6909 bound_to 6896
  145.3740  140.9509  143.2431 H   0  0  0  0  0  0  0  0  0  0  0  0  # atno 7974 bound_to 7965
  155.5134  140.0585  157.2919 H   0  0  0  0  0  0  0  0  0  0  0  0  # atno 8008 bound_to 7997
  154.4543  140.1965  156.0372 H   0  0  0  0  0  0  0  0  0  0  0  0  # atno 8009 bound_to 7997
  156.0768  140.3252  155.7648 H   0  0  0  0  0  0  0  0  0  0  0  0  # atno 8010 bound_to 7997
  139.6898  144.7109  151.1368 H   0  0  0  0  0  0  0  0  0  0  0  0  # atno 10167 bound_to 10162
  156.0076  130.4566  150.3755 H   0  0  0  0  0  0  0  0  0  0  0  0  # atno 10718 bound_to 10713
  154.6641  135.5310  153.8054 H   0  0  0  0  0  0  0  0  0  0  0  0  # atno 10763 bound_to 10752
  153.0460  135.6513  154.0827 H   0  0  0  0  0  0  0  0  0  0  0  0  # atno 10764 bound_to 10752
  154.0733  135.2952  155.3284 H   0  0  0  0  0  0  0  0  0  0  0  0  # atno 10765 bound_to 10752
  141.1277  133.6620  156.5182 H   0  0  0  0  0  0  0  0  0  0  0  0  # atno 11005 bound_to 11000
  144.8555  139.5255  143.6836 LP  0  0  0  0  0  0  0  0  0  0  0  0  # atno 17320 bound_to 7965
  146.2872  139.7038  142.9187 LP  0  0  0  0  0  0  0  0  0  0  0  0  # atno 17321 bound_to 7965
  140.7679  143.5576  150.9135 LP  0  0  0  0  0  0  0  0  0  0  0  0  # atno 17342 bound_to 10162
  139.9253  143.6558  152.3088 LP  0  0  0  0  0  0  0  0  0  0  0  0  # atno 17343 bound_to 10162
  157.1838  131.0398  151.2735 LP  0  0  0  0  0  0  0  0  0  0  0  0  # atno 17370 bound_to 10713
  157.4122  130.7391  149.6848 LP  0  0  0  0  0  0  0  0  0  0  0  0  # atno 17371 bound_to 10713
  140.4313  134.7099  157.4943 LP  0  0  0  0  0  0  0  0  0  0  0  0  # atno 17394 bound_to 11000
  140.0291  134.6432  155.9131 LP  0  0  0  0  0  0  0  0  0  0  0  0  # atno 17395 bound_to 11000

$$$$
