AV-unprocessed.smi:1534|AV-procd|sdf|6168|dock8
  -GOLD-   22720 6313D 1   1.00000     0.00000
 Structure written by MMmdl.
 37 38  0  0  0  0  0  0  0  0  2 V2000
  147.2105  141.4407  159.4950 O   0  0  0  0  0  0  0  0  0  0  0  0
  147.4880  142.4920  158.9211 C   0  0  0  0  0  0  0  0  0  0  0  0
  148.1958  142.5453  157.7797 N   0  0  0  0  0  0  0  0  0  0  0  0
  148.7211  141.3862  157.0680 C   0  0  0  0  0  0  0  0  0  0  0  0
  149.9825  141.7404  156.2621 C   0  0  0  0  0  0  0  0  0  0  0  0
  151.0098  142.4773  157.0987 C   0  0  0  0  0  0  0  0  0  0  0  0
  151.9354  141.7970  157.9196 C   0  0  0  0  0  0  0  0  0  0  0  0
  152.8614  142.5425  158.6788 C   0  0  0  0  0  0  0  0  0  0  0  0
  152.8417  143.9508  158.6021 C   0  0  0  0  0  0  0  0  0  0  0  0
  151.8943  144.5784  157.7677 C   0  0  0  0  0  0  0  0  0  0  0  0
  151.0229  143.8294  157.0564 N   0  3  0  0  0  0  0  0  0  0  0  0
  147.0871  143.6857  159.3932 N   0  0  0  0  0  0  0  0  0  0  0  0
  146.3085  143.9656  160.6004 C   0  0  2  0  0  0  0  0  0  0  0  0
  147.1327  143.6680  161.8669 C   0  0  0  0  0  0  0  0  0  0  0  0
  146.1882  143.6271  163.0753 C   0  0  0  0  0  0  0  0  0  0  0  0
  144.5644  143.0632  162.4375 S   0  0  0  0  0  0  0  0  0  0  0  0
  144.3327  141.6658  162.8327 O   0  0  0  0  0  0  0  0  0  0  0  0
  143.5610  144.1042  162.7075 O   0  0  0  0  0  0  0  0  0  0  0  0
  145.0286  143.1165  160.6672 C   0  0  0  0  0  0  0  0  0  0  0  0
  148.3794  143.4524  157.3760 H   0  0  0  0  0  0  0  0  0  0  0  0
  148.9498  140.6131  157.8021 H   0  0  0  0  0  0  0  0  0  0  0  0
  147.9516  140.9747  156.4124 H   0  0  0  0  0  0  0  0  0  0  0  0
  150.4424  140.8366  155.8600 H   0  0  0  0  0  0  0  0  0  0  0  0
  149.7159  142.3568  155.4022 H   0  0  0  0  0  0  0  0  0  0  0  0
  151.9356  140.7176  157.9702 H   0  0  0  0  0  0  0  0  0  0  0  0
  153.5770  142.0401  159.3131 H   0  0  0  0  0  0  0  0  0  0  0  0
  153.5422  144.5403  159.1757 H   0  0  0  0  0  0  0  0  0  0  0  0
  151.8076  145.6485  157.6487 H   0  0  0  0  0  0  0  0  0  0  0  0
  147.3366  144.4920  158.8384 H   0  0  0  0  0  0  0  0  0  0  0  0
  146.0345  145.0218  160.6296 H   0  0  0  0  0  0  0  0  0  0  0  0
  147.6068  142.6906  161.7649 H   0  0  0  0  0  0  0  0  0  0  0  0
  147.9329  144.3948  162.0108 H   0  0  0  0  0  0  0  0  0  0  0  0
  146.5366  142.9595  163.8634 H   0  0  0  0  0  0  0  0  0  0  0  0
  146.0560  144.6236  163.4977 H   0  0  0  0  0  0  0  0  0  0  0  0
  144.2065  143.5228  160.0781 H   0  0  0  0  0  0  0  0  0  0  0  0
  145.2171  142.0925  160.3426 H   0  0  0  0  0  0  0  0  0  0  0  0
  150.3454  144.3051  156.4598 H   0  0  0  0  0  0  0  0  0  0  0  0
  1  2  2  0  0  0  0
  2  3  1  0  0  0  0
  2 12  1  0  0  0  0
  3  4  1  0  0  0  0
  3 20  1  0  0  0  0
  4  5  1  0  0  0  0
  4 21  1  0  0  0  0
  4 22  1  0  0  0  0
  5  6  1  0  0  0  0
  5 23  1  0  0  0  0
  5 24  1  0  0  0  0
  6 11  1  0  0  0  0
  6  7  2  0  0  0  0
  7  8  1  0  0  0  0
  7 25  1  0  0  0  0
  8  9  2  0  0  0  0
  8 26  1  0  0  0  0
  9 10  1  0  0  0  0
  9 27  1  0  0  0  0
 10 11  2  0  0  0  0
 10 28  1  0  0  0  0
 11 37  1  0  0  0  0
 12 13  1  0  0  0  0
 12 29  1  0  0  0  0
 13 19  1  0  0  0  0
 13 14  1  0  0  0  0
 13 30  1  0  0  0  0
 14 15  1  0  0  0  0
 14 31  1  0  0  0  0
 14 32  1  0  0  0  0
 15 16  1  0  0  0  0
 15 33  1  0  0  0  0
 15 34  1  0  0  0  0
 16 17  2  0  0  0  0
 16 18  2  0  0  0  0
 16 19  1  0  0  0  0
 19 35  1  0  0  0  0
 19 36  1  0  0  0  0
M  CHG  1  11   1
M  END
> <s_m_source_file>
AV-unprocessed.smi

> <i_m_source_file_index>
1534

> <i_lp_mmshare_version>
43012

> <i_f3d_flags>
0

> <s_epik_input>
Tz1TMSg9TylbQ0gyXVtDSDJdW0NASF0oW0NIMl0xKVtOSF1DKD1PKVtOSF1bQ0gyXVtDSDJdYzJbY0hdW2NIXVtjSF1bY0hdbjI=

> <s_epik_cmdline>
J2VwaWtfcHl0aG9uJywgJy1waCcsICc3LjAnLCAnLXRuJywgJzgnLCAnLW1hJywgJzIwMCcsICctbWV0YWxfYmluZGluZycsICctaW1hZScsICc8aW5maWxlLm1hZT4nLCAnLW9tYWUnLCAnPG91dGZpbGUubWFlPic=

> <r_epik_Ionization_Penalty>
1.58466

> <r_epik_Ionization_Penalty_Charging>
1.58462

> <r_epik_Ionization_Penalty_Neutral>
3.4911e-05

> <r_epik_State_Penalty>
1.6815

> <r_epik_Charging_Adjusted_Penalty>
3.26612

> <i_epik_Tot_Q>
1

> <i_epik_Tot_abs_Q>
1

> <r_epik_Metal_State_Penalty>
1.72144

> <b_epik_Metal_Only>
0

> <s_lp_Force_Field>
OPLS_2005

> <r_lp_Energy>
16.0644

> <b_lp_Chiralities_Consistent>
1

> <s_lp_Variant>
AV-unprocessed.smi:1534-3

> <Gold.Version>
5.8.1

> <Gold.Id.Protein>
6NUR|6NUR_protein|mol2

> <Gold.PLP.Fitness>
50.1397

> <Gold.PLP.PLP>
-38.0081

> <Gold.PLP.part.hbond>
-5.0832

> <Gold.PLP.part.metal>
0.0000

> <Gold.PLP.part.buried>
-6.6513

> <Gold.PLP.part.nonpolar>
-27.2264

> <Gold.PLP.part.repulsive>
0.1992

> <Gold.PLP.ligand.clash>
0.0000

> <Gold.PLP.ligand.torsion>
0.6285

> <Gold.PLP.Chemscore.Hbond>
4.4600

> <Gold.PLP.Chemscore.CHOScore>
0.0000

> <Gold.PLP.Chemscore.Metal>
0.0000

> <Gold.Chemscore.Hbonds>
donor molecule, donor type, donor heavy atom, donor atom, acceptor molecule, acceptor atom, score
      L1  H     3    20       P1  8028  0.39
      L1  H    11    37       P1  8028  2.00
      L1  H    12    29       P1  8029  0.59
      P1  H  6934  6946       L1     1  0.24

> <Gold.PLP.Chemscore.Internal.Correction>
0.0087

> <Gold.Rescore>
     Score         DG    S(hbond)    S(metal)    S(lipo)     H(rot)  DE(clash)    DE(int)     intcor
     15.64     -18.40       2.29        0.00      84.93       1.82       0.08       2.68       ----

> <Gold.Chemscore.Fitness>
15.6414

> <Gold.Chemscore.DG>
-18.3978

> <Gold.Chemscore.ZeroCoef>
-5.4800

> <Gold.Chemscore.Hbond>
2.2890

> <Gold.Chemscore.Metal>
0.0000

> <Gold.Chemscore.Lipo>
84.9294

> <Gold.Chemscore.Internal_Hbond>
0.0000

> <Gold.Chemscore.DEClash>
0.0810

> <Gold.Chemscore.DEInternal>
2.6753

> <Gold.Chemscore.Rot>
1.8220

> <Gold.Chemscore.Internal.Correction>
   9.000000E+99

> <Gold.Chemscore.Hbonds>
donor molecule, donor type, donor heavy atom, donor atom, acceptor molecule, acceptor atom, score
      L1  H     3    20       P1  8028  0.03
      L1  H    11    37       P1  8028  1.00
      L1  H    12    29       P1  8029  0.58
      P1  H  6934  6946       L1     1  0.24

> <Gold.Chemscore.Hbond.Weighted>
-7.6452

> <Gold.Chemscore.Metal.Weighted>
-0.0000

> <Gold.Chemscore.Lipo.Weighted>
-9.9367

> <Gold.Chemscore.Internal_Hbond.Weighted>
0.0000

> <Gold.Chemscore.DEClash.Weighted>
0.0810

> <Gold.Chemscore.DEInternal.Weighted>
2.6753

> <Gold.Chemscore.Rot.Weighted>
4.6642

> <Gold.Chemscore.Internal.Correction.Weighted>
   9.000000E+99

> <Gold.Protein.RotatedTorsions>
[ 6907 6896 6895 6894 ] final  100.88 input  -60.11 | X-H torsion
[ 7974 7965 7964 7962 ] final   27.80 input  175.53 | X-H torsion
[ 8008 7997 7996 7995 ] final  -77.53 input   59.86 | X-H torsion
[ 10167 10162 10161 10158 ] final   -3.32 input  -65.29 | X-H torsion
[ 10718 10713 10712 10709 ] final  109.71 input   66.30 | X-H torsion
[ 10763 10752 10751 10750 ] final  132.50 input  -60.55 | X-H torsion
[ 11005 11000 10999 10996 ] final  -95.48 input  -57.11 | X-H torsion

> <Gold.Protein.ActiveResidues>
 VAL166  LYS551  ARG553  GLY616  TRP617  ASP618  TYR619  PRO620  LYS621  CYS622 
 ASP623  PHE694  ASN695  SER759  ASP760  ASP761  ALA762  ILE779  LEU786  VAL792 
 PHE793  MET794  SER795  GLU796  ALA797  LYS798  CYS799  TRP800  GLU811  SER814 

> <Gold.Protein.RotatedAtoms>
  152.5362  134.0210  159.7981 H   0  0  0  0  0  0  0  0  0  0  0  0  # atno 6907 bound_to 6896
  151.0396  133.5710  159.2659 H   0  0  0  0  0  0  0  0  0  0  0  0  # atno 6908 bound_to 6896
  151.2684  135.0684  159.9178 H   0  0  0  0  0  0  0  0  0  0  0  0  # atno 6909 bound_to 6896
  146.1764  139.7142  142.8931 H   0  0  0  0  0  0  0  0  0  0  0  0  # atno 7974 bound_to 7965
  154.5605  140.0709  156.8811 H   0  0  0  0  0  0  0  0  0  0  0  0  # atno 8008 bound_to 7997
  155.2820  140.3372  155.4239 H   0  0  0  0  0  0  0  0  0  0  0  0  # atno 8009 bound_to 7997
  156.2038  140.1732  156.7829 H   0  0  0  0  0  0  0  0  0  0  0  0  # atno 8010 bound_to 7997
  140.6885  143.6554  150.8313 H   0  0  0  0  0  0  0  0  0  0  0  0  # atno 10167 bound_to 10162
  157.6529  131.0919  150.6493 H   0  0  0  0  0  0  0  0  0  0  0  0  # atno 10718 bound_to 10713
  153.7917  135.3154  155.3379 H   0  0  0  0  0  0  0  0  0  0  0  0  # atno 10763 bound_to 10752
  154.8123  135.4659  154.0552 H   0  0  0  0  0  0  0  0  0  0  0  0  # atno 10764 bound_to 10752
  153.1872  135.6903  153.8486 H   0  0  0  0  0  0  0  0  0  0  0  0  # atno 10765 bound_to 10752
  141.1440  133.8029  157.0441 H   0  0  0  0  0  0  0  0  0  0  0  0  # atno 11005 bound_to 11000
  145.4199  141.0405  143.2970 LP  0  0  0  0  0  0  0  0  0  0  0  0  # atno 17320 bound_to 7965
  144.8243  139.5736  143.6972 LP  0  0  0  0  0  0  0  0  0  0  0  0  # atno 17321 bound_to 7965
  140.0264  143.5489  152.2779 LP  0  0  0  0  0  0  0  0  0  0  0  0  # atno 17342 bound_to 10162
  139.6266  144.7638  151.2625 LP  0  0  0  0  0  0  0  0  0  0  0  0  # atno 17343 bound_to 10162
  156.6803  130.4565  149.5630 LP  0  0  0  0  0  0  0  0  0  0  0  0  # atno 17370 bound_to 10713
  156.1934  130.6574  151.1087 LP  0  0  0  0  0  0  0  0  0  0  0  0  # atno 17371 bound_to 10713
  140.0674  134.9721  157.1409 LP  0  0  0  0  0  0  0  0  0  0  0  0  # atno 17394 bound_to 11000
  140.3760  134.2338  155.7174 LP  0  0  0  0  0  0  0  0  0  0  0  0  # atno 17395 bound_to 11000

$$$$
