AV-unprocessed.smi:1414|AV-procd|sdf|5760|dock4
  -GOLD-   22720 5393D 1   1.00000     0.00000
 Structure written by MMmdl.
 45 46  0  0  0  0  0  0  0  0  1 V2000
  152.8822  138.9621  154.7909 C   0  0  0  0  0  0  0  0  0  0  0  0
  152.0317  139.1907  156.0521 C   0  0  2  0  0  0  0  0  0  0  0  0
  152.0165  138.0021  157.0428 C   0  0  0  0  0  0  0  0  0  0  0  0
  150.9588  137.0146  156.7586 N   0  0  0  0  0  0  0  0  0  0  0  0
  151.3210  135.3227  156.5939 S   0  0  0  0  0  0  0  0  0  0  0  0
  152.7772  135.1705  156.7356 O   0  0  0  0  0  0  0  0  0  0  0  0
  150.4155  134.5832  157.4871 O   0  0  0  0  0  0  0  0  0  0  0  0
  150.8727  134.9466  154.8436 C   0  0  0  0  0  0  0  0  0  0  0  0
  149.7170  133.9373  154.7481 C   0  0  0  0  0  0  0  0  0  0  0  0
  148.8954  134.1746  153.5675 N   0  0  0  0  0  0  0  0  0  0  0  0
  147.9320  133.3553  153.1242 C   0  0  0  0  0  0  0  0  0  0  0  0
  147.6381  132.2935  153.6721 O   0  0  0  0  0  0  0  0  0  0  0  0
  147.3598  133.8362  152.0076 N   0  0  0  0  0  0  0  0  0  0  0  0
  146.2761  133.2895  151.2699 C   0  0  0  0  0  0  0  0  0  0  0  0
  145.9983  131.9150  151.4176 C   0  0  0  0  0  0  0  0  0  0  0  0
  144.9441  131.3452  150.6792 C   0  0  0  0  0  0  0  0  0  0  0  0
  144.2104  132.1752  149.8100 C   0  0  0  0  0  0  0  0  0  0  0  0
  144.4721  133.4890  149.6450 N   0  0  0  0  0  0  0  0  0  0  0  0
  145.4837  134.0298  150.3578 C   0  0  0  0  0  0  0  0  0  0  0  0
  149.6646  137.5598  156.3271 C   0  0  0  0  0  0  0  0  0  0  0  0
  149.8576  138.6182  155.2323 C   0  0  1  0  0  0  0  0  0  0  0  0
  148.5328  139.2705  154.8237 C   0  0  0  0  0  0  0  0  0  0  0  0
  150.7180  139.6368  155.7257 O   0  0  0  0  0  0  0  0  0  0  0  0
  153.9054  138.6931  155.0541 H   0  0  0  0  0  0  0  0  0  0  0  0
  152.9267  139.8699  154.1889 H   0  0  0  0  0  0  0  0  0  0  0  0
  152.4901  138.1730  154.1557 H   0  0  0  0  0  0  0  0  0  0  0  0
  152.5009  140.0256  156.5735 H   0  0  0  0  0  0  0  0  0  0  0  0
  152.9938  137.5210  157.0748 H   0  0  0  0  0  0  0  0  0  0  0  0
  151.8353  138.3861  158.0471 H   0  0  0  0  0  0  0  0  0  0  0  0
  150.6550  135.8805  154.3314 H   0  0  0  0  0  0  0  0  0  0  0  0
  151.7589  134.5246  154.3695 H   0  0  0  0  0  0  0  0  0  0  0  0
  150.1119  132.9234  154.6824 H   0  0  0  0  0  0  0  0  0  0  0  0
  149.0975  133.9693  155.6442 H   0  0  0  0  0  0  0  0  0  0  0  0
  149.0768  135.0217  153.0491 H   0  0  0  0  0  0  0  0  0  0  0  0
  147.7744  134.6696  151.6172 H   0  0  0  0  0  0  0  0  0  0  0  0
  146.5814  131.3031  152.0905 H   0  0  0  0  0  0  0  0  0  0  0  0
  144.7045  130.2966  150.7756 H   0  0  0  0  0  0  0  0  0  0  0  0
  143.3954  131.7717  149.2276 H   0  0  0  0  0  0  0  0  0  0  0  0
  145.6637  135.0756  150.1631 H   0  0  0  0  0  0  0  0  0  0  0  0
  149.0143  136.7606  155.9730 H   0  0  0  0  0  0  0  0  0  0  0  0
  149.1721  138.0028  157.1933 H   0  0  0  0  0  0  0  0  0  0  0  0
  150.2888  138.1573  154.3453 H   0  0  0  0  0  0  0  0  0  0  0  0
  147.8366  138.5295  154.4299 H   0  0  0  0  0  0  0  0  0  0  0  0
  148.6914  140.0209  154.0489 H   0  0  0  0  0  0  0  0  0  0  0  0
  148.0554  139.7622  155.6717 H   0  0  0  0  0  0  0  0  0  0  0  0
  1  2  1  0  0  0  0
  1 24  1  0  0  0  0
  1 25  1  0  0  0  0
  1 26  1  0  0  0  0
  2 23  1  0  0  0  0
  2  3  1  0  0  0  0
  2 27  1  0  0  0  0
  3  4  1  0  0  0  0
  3 28  1  0  0  0  0
  3 29  1  0  0  0  0
  4  5  1  0  0  0  0
  4 20  1  0  0  0  0
  5  6  2  0  0  0  0
  5  7  2  0  0  0  0
  5  8  1  0  0  0  0
  8  9  1  0  0  0  0
  8 30  1  0  0  0  0
  8 31  1  0  0  0  0
  9 10  1  0  0  0  0
  9 32  1  0  0  0  0
  9 33  1  0  0  0  0
 10 11  1  0  0  0  0
 10 34  1  0  0  0  0
 11 12  2  0  0  0  0
 11 13  1  0  0  0  0
 13 14  1  0  0  0  0
 13 35  1  0  0  0  0
 14 19  1  0  0  0  0
 14 15  2  0  0  0  0
 15 16  1  0  0  0  0
 15 36  1  0  0  0  0
 16 17  2  0  0  0  0
 16 37  1  0  0  0  0
 17 18  1  0  0  0  0
 17 38  1  0  0  0  0
 18 19  2  0  0  0  0
 19 39  1  0  0  0  0
 20 21  1  0  0  0  0
 20 40  1  0  0  0  0
 20 41  1  0  0  0  0
 21 22  1  0  0  0  0
 21 23  1  0  0  0  0
 21 42  1  0  0  0  0
 22 43  1  0  0  0  0
 22 44  1  0  0  0  0
 22 45  1  0  0  0  0
M  END
> <s_m_source_file>
AV-unprocessed.smi

> <i_m_source_file_index>
1414

> <i_lp_mmshare_version>
43012

> <i_f3d_flags>
0

> <s_epik_input>
W0NIM11bQ0BASF0xW0NIMl1OKFtDSDJdW0NASF0oTzEpW0NIM10pUyg9TykoPU8pW0NIMl1bQ0gyXVtOSF1DKD1PKVtOSF1jMltjSF1bY0hdW2NIXW5bY0hdMg==

> <s_epik_cmdline>
J2VwaWtfcHl0aG9uJywgJy1waCcsICc3LjAnLCAnLXRuJywgJzgnLCAnLW1hJywgJzIwMCcsICctbWV0YWxfYmluZGluZycsICctaW1hZScsICc8aW5maWxlLm1hZT4nLCAnLW9tYWUnLCAnPG91dGZpbGUubWFlPic=

> <r_epik_Ionization_Penalty>
0.00437531

> <r_epik_Ionization_Penalty_Charging>
0

> <r_epik_Ionization_Penalty_Neutral>
0.00437531

> <r_epik_State_Penalty>
0.00312896

> <r_epik_Charging_Adjusted_Penalty>
0.00312896

> <i_epik_Tot_Q>
0

> <i_epik_Tot_abs_Q>
0

> <r_epik_Metal_State_Penalty>
-0

> <b_epik_Metal_Only>
0

> <s_lp_Force_Field>
OPLS_2005

> <r_lp_Energy>
6.94025

> <b_lp_Chiralities_Consistent>
1

> <s_lp_Variant>
AV-unprocessed.smi:1414-1

> <Gold.Version>
5.8.1

> <Gold.Id.Protein>
6NUR|6NUR_protein|mol2

> <Gold.PLP.Fitness>
53.5973

> <Gold.PLP.PLP>
-36.4208

> <Gold.PLP.part.hbond>
-5.2169

> <Gold.PLP.part.metal>
0.0000

> <Gold.PLP.part.buried>
-4.9390

> <Gold.PLP.part.nonpolar>
-26.5900

> <Gold.PLP.part.repulsive>
0.3103

> <Gold.PLP.ligand.clash>
0.0000

> <Gold.PLP.ligand.torsion>
1.4852

> <Gold.PLP.Chemscore.Hbond>
4.6835

> <Gold.PLP.Chemscore.CHOScore>
1.3279

> <Gold.PLP.Chemscore.Metal>
0.0000

> <Gold.Chemscore.Hbonds>
donor molecule, donor type, donor heavy atom, donor atom, acceptor molecule, acceptor atom, score
      L1  H    10    34       P1  7948  0.75
      L1  H    13    35       P1  7948  0.89
      P1  H  6896  6907       L1     7  0.54
      P1  H 10752 10765       L1     6  1.00
      L1  C    19    39       P1  7921  0.29

> <Gold.PLP.Chemscore.Internal.Correction>
2.1129

> <Gold.Rescore>
     Score         DG    S(hbond)    S(metal)    S(lipo)     H(rot)  DE(clash)    DE(int)     intcor
     19.10     -22.49       3.22        0.00      87.89       1.57       0.30       3.09       ----

> <Gold.Chemscore.Fitness>
19.1043

> <Gold.Chemscore.DG>
-22.4943

> <Gold.Chemscore.ZeroCoef>
-5.4800

> <Gold.Chemscore.Hbond>
3.2176

> <Gold.Chemscore.Metal>
0.0000

> <Gold.Chemscore.Lipo>
87.8939

> <Gold.Chemscore.Internal_Hbond>
0.0000

> <Gold.Chemscore.DEClash>
0.3022

> <Gold.Chemscore.DEInternal>
3.0877

> <Gold.Chemscore.Rot>
1.5687

> <Gold.Chemscore.Internal.Correction>
   9.000000E+99

> <Gold.Chemscore.Hbonds>
donor molecule, donor type, donor heavy atom, donor atom, acceptor molecule, acceptor atom, score
      L1  H    10    34       P1  7948  0.09
      L1  H    13    35       P1  7948  0.17
      P1  H  6896  6907       L1     7  0.53
      P1  H 10752 10765       L1     6  0.49

> <Gold.Chemscore.Hbond.Weighted>
-10.7467

> <Gold.Chemscore.Metal.Weighted>
-0.0000

> <Gold.Chemscore.Lipo.Weighted>
-10.2836

> <Gold.Chemscore.Internal_Hbond.Weighted>
0.0000

> <Gold.Chemscore.DEClash.Weighted>
0.3022

> <Gold.Chemscore.DEInternal.Weighted>
3.0877

> <Gold.Chemscore.Rot.Weighted>
4.0160

> <Gold.Chemscore.Internal.Correction.Weighted>
   9.000000E+99

> <Gold.Protein.RotatedTorsions>
[ 6907 6896 6895 6894 ] final  -83.14 input  -60.11 | X-H torsion
[ 7974 7965 7964 7962 ] final  129.59 input  175.53 | X-H torsion
[ 8008 7997 7996 7995 ] final   39.11 input   59.86 | X-H torsion
[ 10167 10162 10161 10158 ] final   -7.20 input  -65.29 | X-H torsion
[ 10718 10713 10712 10709 ] final  -33.53 input   66.30 | X-H torsion
[ 10763 10752 10751 10750 ] final -133.72 input  -60.55 | X-H torsion
[ 11005 11000 10999 10996 ] final -139.59 input  -57.11 | X-H torsion

> <Gold.Protein.ActiveResidues>
 VAL166  LYS551  ARG553  GLY616  TRP617  ASP618  TYR619  PRO620  LYS621  CYS622 
 ASP623  PHE694  ASN695  SER759  ASP760  ASP761  ALA762  ILE779  LEU786  VAL792 
 PHE793  MET794  SER795  GLU796  ALA797  LYS798  CYS799  TRP800  GLU811  SER814 

> <Gold.Protein.RotatedAtoms>
  150.6889  134.3557  159.4928 H   0  0  0  0  0  0  0  0  0  0  0  0  # atno 6907 bound_to 6896
  152.1392  134.9073  160.0564 H   0  0  0  0  0  0  0  0  0  0  0  0  # atno 6908 bound_to 6896
  152.0213  133.3865  159.4296 H   0  0  0  0  0  0  0  0  0  0  0  0  # atno 6909 bound_to 6896
  145.0270  139.4080  143.5168 H   0  0  0  0  0  0  0  0  0  0  0  0  # atno 7974 bound_to 7965
  155.2313  140.3338  155.4303 H   0  0  0  0  0  0  0  0  0  0  0  0  # atno 8008 bound_to 7997
  156.2294  140.1843  156.7327 H   0  0  0  0  0  0  0  0  0  0  0  0  # atno 8009 bound_to 7997
  154.5952  140.0631  156.9279 H   0  0  0  0  0  0  0  0  0  0  0  0  # atno 8010 bound_to 7997
  140.7021  143.6108  150.8706 H   0  0  0  0  0  0  0  0  0  0  0  0  # atno 10167 bound_to 10162
  156.3616  130.4324  149.7619 H   0  0  0  0  0  0  0  0  0  0  0  0  # atno 10718 bound_to 10713
  154.8729  135.3757  154.4619 H   0  0  0  0  0  0  0  0  0  0  0  0  # atno 10763 bound_to 10752
  153.5286  135.7028  153.5700 H   0  0  0  0  0  0  0  0  0  0  0  0  # atno 10764 bound_to 10752
  153.3914  135.3971  155.1891 H   0  0  0  0  0  0  0  0  0  0  0  0  # atno 10765 bound_to 10752
  140.8505  134.2291  157.4763 H   0  0  0  0  0  0  0  0  0  0  0  0  # atno 11005 bound_to 11000
  146.3493  139.9800  142.8697 LP  0  0  0  0  0  0  0  0  0  0  0  0  # atno 17320 bound_to 7965
  145.1820  140.9771  143.4261 LP  0  0  0  0  0  0  0  0  0  0  0  0  # atno 17321 bound_to 7965
  139.9831  143.5929  152.2936 LP  0  0  0  0  0  0  0  0  0  0  0  0  # atno 17342 bound_to 10162
  139.6557  144.7662  151.2060 LP  0  0  0  0  0  0  0  0  0  0  0  0  # atno 17343 bound_to 10162
  156.4781  130.8028  151.3043 LP  0  0  0  0  0  0  0  0  0  0  0  0  # atno 17370 bound_to 10713
  157.7474  131.0014  150.2963 LP  0  0  0  0  0  0  0  0  0  0  0  0  # atno 17371 bound_to 10713
  139.8704  134.9681  156.4619 LP  0  0  0  0  0  0  0  0  0  0  0  0  # atno 17394 bound_to 11000
  140.8795  133.7928  155.9451 LP  0  0  0  0  0  0  0  0  0  0  0  0  # atno 17395 bound_to 11000

$$$$
