AV-unprocessed.smi:54|AV-procd|sdf|556|dock9
  -GOLD-   2262016453D 1   1.00000     0.00000
 Structure written by MMmdl.
 43 45  0  0  0  0  0  0  0  0  2 V2000
  152.8595  142.8092  161.7052 C   0  0  0  0  0  0  0  0  0  0  0  0
  152.8533  142.8791  160.1693 C   0  0  0  0  0  0  0  0  0  0  0  0
  151.6493  143.6836  159.6520 C   0  0  0  0  0  0  0  0  0  0  0  0
  152.8676  141.4694  159.5617 C   0  0  0  0  0  0  0  0  0  0  0  0
  153.3558  140.5414  160.2102 O   0  0  0  0  0  0  0  0  0  0  0  0
  152.3395  141.3709  158.3218 N   0  0  0  0  0  0  0  0  0  0  0  0
  152.2369  140.2473  157.4943 C   0  0  0  0  0  0  0  0  0  0  0  0
  151.2659  140.3421  156.6199 N   0  0  0  0  0  0  0  0  0  0  0  0
  151.1699  139.2316  155.8039 C   0  0  0  0  0  0  0  0  0  0  0  0
  151.9405  138.1014  155.8399 C   0  0  0  0  0  0  0  0  0  0  0  0
  151.5556  137.1909  154.8631 N   0  0  0  0  0  0  0  0  0  0  0  0
  150.5488  137.8294  154.2695 C   0  0  0  0  0  0  0  0  0  0  0  0
  150.2572  139.0468  154.7682 N   0  0  0  0  0  0  0  0  0  0  0  0
  149.1819  139.9653  154.2821 C   0  0  1  0  0  0  0  0  0  0  0  0
  147.9717  139.2761  154.3228 O   0  0  0  0  0  0  0  0  0  0  0  0
  146.9451  140.1464  154.7729 C   0  0  1  0  0  0  0  0  0  0  0  0
  145.7486  139.3392  155.3071 C   0  0  0  0  0  0  0  0  0  0  0  0
  145.0343  138.7523  154.2399 O   0  0  0  0  0  0  0  0  0  0  0  0
  147.6495  141.0926  155.7578 C   0  0  1  0  0  0  0  0  0  0  0  0
  147.6762  140.5683  157.0714 O   0  0  0  0  0  0  0  0  0  0  0  0
  149.0634  141.2015  155.1927 C   0  0  2  0  0  0  0  0  0  0  0  0
  149.1814  142.3935  154.4413 O   0  0  0  0  0  0  0  0  0  0  0  0
  153.0052  138.0481  156.8696 C   0  0  0  0  0  0  0  0  0  0  0  0
  153.7162  137.0478  156.9434 O   0  0  0  0  0  0  0  0  0  0  0  0
  153.1031  139.1503  157.6716 N   0  5  0  0  0  0  0  0  0  0  0  0
  149.4565  140.2004  153.2525 H   0  0  0  0  0  0  0  0  0  0  0  0
  146.6264  140.7263  153.9047 H   0  0  0  0  0  0  0  0  0  0  0  0
  147.1437  142.0580  155.8075 H   0  0  0  0  0  0  0  0  0  0  0  0
  149.8282  141.1968  155.9717 H   0  0  0  0  0  0  0  0  0  0  0  0
  153.7101  142.2333  162.0721 H   0  0  0  0  0  0  0  0  0  0  0  0
  151.9511  142.3439  162.0900 H   0  0  0  0  0  0  0  0  0  0  0  0
  152.9289  143.8065  162.1401 H   0  0  0  0  0  0  0  0  0  0  0  0
  153.7603  143.3990  159.8562 H   0  0  0  0  0  0  0  0  0  0  0  0
  151.6415  143.7279  158.5623 H   0  0  0  0  0  0  0  0  0  0  0  0
  151.6794  144.7092  160.0208 H   0  0  0  0  0  0  0  0  0  0  0  0
  150.7042  143.2450  159.9746 H   0  0  0  0  0  0  0  0  0  0  0  0
  152.0499  142.2477  157.9150 H   0  0  0  0  0  0  0  0  0  0  0  0
  150.0058  137.3977  153.4417 H   0  0  0  0  0  0  0  0  0  0  0  0
  146.1043  138.5417  155.9599 H   0  0  0  0  0  0  0  0  0  0  0  0
  145.0798  139.9594  155.9048 H   0  0  0  0  0  0  0  0  0  0  0  0
  144.8884  139.4118  153.5787 H   0  0  0  0  0  0  0  0  0  0  0  0
  146.8913  140.8449  157.5190 H   0  0  0  0  0  0  0  0  0  0  0  0
  149.3510  143.1072  155.0367 H   0  0  0  0  0  0  0  0  0  0  0  0
  1  2  1  0  0  0  0
  1 30  1  0  0  0  0
  1 31  1  0  0  0  0
  1 32  1  0  0  0  0
  2  3  1  0  0  0  0
  2  4  1  0  0  0  0
  2 33  1  0  0  0  0
  3 34  1  0  0  0  0
  3 35  1  0  0  0  0
  3 36  1  0  0  0  0
  4  5  2  0  0  0  0
  4  6  1  0  0  0  0
  6 37  1  0  0  0  0
  6  7  1  0  0  0  0
  7 25  1  0  0  0  0
  7  8  2  0  0  0  0
  8  9  1  0  0  0  0
  9 13  1  0  0  0  0
  9 10  2  0  0  0  0
 10 11  1  0  0  0  0
 10 23  1  0  0  0  0
 11 12  2  0  0  0  0
 12 13  1  0  0  0  0
 12 38  1  0  0  0  0
 13 14  1  0  0  0  0
 14 26  1  0  0  0  0
 14 21  1  0  0  0  0
 14 15  1  0  0  0  0
 15 16  1  0  0  0  0
 16 27  1  0  0  0  0
 16 17  1  0  0  0  0
 16 19  1  0  0  0  0
 17 18  1  0  0  0  0
 17 39  1  0  0  0  0
 17 40  1  0  0  0  0
 18 41  1  0  0  0  0
 19 28  1  0  0  0  0
 19 20  1  0  0  0  0
 19 21  1  0  0  0  0
 20 42  1  0  0  0  0
 21 29  1  0  0  0  0
 21 22  1  0  0  0  0
 22 43  1  0  0  0  0
 23 24  2  0  0  0  0
 23 25  1  0  0  0  0
M  CHG  1  25  -1
M  END
> <s_m_source_file>
AV-unprocessed.smi

> <i_m_source_file_index>
54

> <i_lp_mmshare_version>
43012

> <i_f3d_flags>
0

> <s_epik_input>
W0NIM11bQ0hdKFtDSDNdKUMoPU8pW05IXWMobjEpW25IXWMoPU8pYyhjMTIpbltjSF1uMltDQEBIXTNPW0NASF0oW0NIMl1bT0hdKVtDQEBIXShbT0hdKVtDQEhdM1tPSF0=

> <s_epik_cmdline>
J2VwaWtfcHl0aG9uJywgJy1waCcsICc3LjAnLCAnLXRuJywgJzgnLCAnLW1hJywgJzIwMCcsICctbWV0YWxfYmluZGluZycsICctaW1hZScsICc8aW5maWxlLm1hZT4nLCAnLW9tYWUnLCAnPG91dGZpbGUubWFlPic=

> <r_lp_tautomer_probability>
0.85571

> <r_epik_Ionization_Penalty>
1.75936

> <r_epik_Ionization_Penalty_Charging>
4.55893e-11

> <r_epik_Ionization_Penalty_Neutral>
1.75936

> <r_epik_State_Penalty>
1.72072

> <r_epik_Charging_Adjusted_Penalty>
1.72072

> <i_epik_Tot_Q>
-1

> <i_epik_Tot_abs_Q>
1

> <r_epik_Metal_State_Penalty>
0.400338

> <b_epik_Metal_Only>
1

> <s_epik_Chemistry_Notes>
This compound contains an acetal/aminal-like group ( X-CH(R)-Y where X, Y are N, S, or O) that may be acid/base labile, releasing an aldehyde.

> <s_lp_Force_Field>
OPLS_2005

> <r_lp_Energy>
57.3422

> <b_lp_Chiralities_Consistent>
1

> <s_lp_Variant>
AV-unprocessed.smi:54-28

> <Gold.Version>
5.8.1

> <Gold.Id.Protein>
6NUR|6NUR_protein|mol2

> <Gold.PLP.Fitness>
54.6198

> <Gold.PLP.PLP>
-38.2534

> <Gold.PLP.part.hbond>
-5.8887

> <Gold.PLP.part.metal>
0.0000

> <Gold.PLP.part.buried>
-1.6458

> <Gold.PLP.part.nonpolar>
-30.3431

> <Gold.PLP.part.repulsive>
0.3614

> <Gold.PLP.ligand.clash>
0.0000

> <Gold.PLP.ligand.torsion>
0.9908

> <Gold.PLP.Chemscore.Hbond>
5.0910

> <Gold.PLP.Chemscore.CHOScore>
1.0140

> <Gold.PLP.Chemscore.Metal>
0.0000

> <Gold.Chemscore.Hbonds>
donor molecule, donor type, donor heavy atom, donor atom, acceptor molecule, acceptor atom, score
      L1  H    18    41       P1 10175  1.00
      L1  H    22    43       P1  8028  0.96
      P1  H  7997  8009       L1    25  1.60
      P1  H  8011  8017       L1    22  0.10
      P1  H 10752 10764       L1    11  0.69
      P1  H 10752 10765       L1    24  0.05
      L1  C    12    38       P1  7948  1.00
      L1  C    12    38       P1  7949  0.01

> <Gold.PLP.Chemscore.Internal.Correction>
0.0331

> <Gold.Rescore>
     Score         DG    S(hbond)    S(metal)    S(lipo)     H(rot)  DE(clash)    DE(int)     intcor
      9.15     -13.13       3.46        0.00      54.57       4.02       0.26       3.72       ----

> <Gold.Chemscore.Fitness>
9.1500

> <Gold.Chemscore.DG>
-13.1326

> <Gold.Chemscore.ZeroCoef>
-5.4800

> <Gold.Chemscore.Hbond>
3.4601

> <Gold.Chemscore.Metal>
0.0000

> <Gold.Chemscore.Lipo>
54.5735

> <Gold.Chemscore.Internal_Hbond>
0.0000

> <Gold.Chemscore.DEClash>
0.2639

> <Gold.Chemscore.DEInternal>
3.7188

> <Gold.Chemscore.Rot>
4.0192

> <Gold.Chemscore.Internal.Correction>
   9.000000E+99

> <Gold.Chemscore.Hbonds>
donor molecule, donor type, donor heavy atom, donor atom, acceptor molecule, acceptor atom, score
      L1  H    18    41       P1 10175  0.93
      L1  H    22    43       P1  8028  0.92
      P1  H  7997  8009       L1    25  0.05
      P1  H  8011  8017       L1    22  0.10
      P1  H 10752 10764       L1    11  0.63
      P1  H 10752 10765       L1    24  0.07

> <Gold.Chemscore.Hbond.Weighted>
-11.5568

> <Gold.Chemscore.Metal.Weighted>
-0.0000

> <Gold.Chemscore.Lipo.Weighted>
-6.3851

> <Gold.Chemscore.Internal_Hbond.Weighted>
0.0000

> <Gold.Chemscore.DEClash.Weighted>
0.2639

> <Gold.Chemscore.DEInternal.Weighted>
3.7188

> <Gold.Chemscore.Rot.Weighted>
10.2893

> <Gold.Chemscore.Internal.Correction.Weighted>
   9.000000E+99

> <Gold.Protein.RotatedTorsions>
[ 6907 6896 6895 6894 ] final  136.44 input  -60.11 | X-H torsion
[ 7974 7965 7964 7962 ] final  136.99 input  175.53 | X-H torsion
[ 8008 7997 7996 7995 ] final  149.36 input   59.86 | X-H torsion
[ 10167 10162 10161 10158 ] final -157.63 input  -65.29 | X-H torsion
[ 10718 10713 10712 10709 ] final  -65.32 input   66.30 | X-H torsion
[ 10763 10752 10751 10750 ] final  -80.59 input  -60.55 | X-H torsion
[ 11005 11000 10999 10996 ] final -100.46 input  -57.11 | X-H torsion

> <Gold.Protein.ActiveResidues>
 VAL166  LYS551  ARG553  GLY616  TRP617  ASP618  TYR619  PRO620  LYS621  CYS622 
 ASP623  PHE694  ASN695  SER759  ASP760  ASP761  ALA762  ILE779  LEU786  VAL792 
 PHE793  MET794  SER795  GLU796  ALA797  LYS798  CYS799  TRP800  GLU811  SER814 

> <Gold.Protein.RotatedAtoms>
  152.2893  133.5545  159.5546 H   0  0  0  0  0  0  0  0  0  0  0  0  # atno 6907 bound_to 6896
  150.7228  134.0452  159.3788 H   0  0  0  0  0  0  0  0  0  0  0  0  # atno 6908 bound_to 6896
  151.8359  135.0606  160.0493 H   0  0  0  0  0  0  0  0  0  0  0  0  # atno 6909 bound_to 6896
  144.9511  139.4818  143.5525 H   0  0  0  0  0  0  0  0  0  0  0  0  # atno 7974 bound_to 7965
  156.2758  140.2104  156.5845 H   0  0  0  0  0  0  0  0  0  0  0  0  # atno 8008 bound_to 7997
  154.7032  140.0519  157.0501 H   0  0  0  0  0  0  0  0  0  0  0  0  # atno 8009 bound_to 7997
  155.0707  140.3176  155.4634 H   0  0  0  0  0  0  0  0  0  0  0  0  # atno 8010 bound_to 7997
  139.6755  143.9670  152.2308 H   0  0  0  0  0  0  0  0  0  0  0  0  # atno 10167 bound_to 10162
  156.0676  130.4245  150.1547 H   0  0  0  0  0  0  0  0  0  0  0  0  # atno 10718 bound_to 10713
  154.5530  135.5656  153.6939 H   0  0  0  0  0  0  0  0  0  0  0  0  # atno 10763 bound_to 10752
  152.9995  135.6255  154.2348 H   0  0  0  0  0  0  0  0  0  0  0  0  # atno 10764 bound_to 10752
  154.2283  135.2867  155.2879 H   0  0  0  0  0  0  0  0  0  0  0  0  # atno 10765 bound_to 10752
  141.1270  133.8400  157.1105 H   0  0  0  0  0  0  0  0  0  0  0  0  # atno 11005 bound_to 11000
  146.3321  139.8596  142.8858 LP  0  0  0  0  0  0  0  0  0  0  0  0  # atno 17320 bound_to 7965
  145.2843  141.0148  143.3699 LP  0  0  0  0  0  0  0  0  0  0  0  0  # atno 17321 bound_to 7965
  139.9446  144.6659  150.8232 LP  0  0  0  0  0  0  0  0  0  0  0  0  # atno 17342 bound_to 10162
  140.7634  143.3222  151.2597 LP  0  0  0  0  0  0  0  0  0  0  0  0  # atno 17343 bound_to 10162
  156.9604  130.9803  151.3480 LP  0  0  0  0  0  0  0  0  0  0  0  0  # atno 17370 bound_to 10713
  157.5728  130.8322  149.8415 LP  0  0  0  0  0  0  0  0  0  0  0  0  # atno 17371 bound_to 10713
  140.0278  134.9915  157.0721 LP  0  0  0  0  0  0  0  0  0  0  0  0  # atno 17394 bound_to 11000
  140.4334  134.1756  155.7169 LP  0  0  0  0  0  0  0  0  0  0  0  0  # atno 17395 bound_to 11000

$$$$
