AV-unprocessed.smi:77|AV-procd|sdf|771|dock4
  -GOLD-   2262017113D 1   1.00000     0.00000
 Structure written by MMmdl.
 57 61  0  0  0  0  0  0  0  0  1 V2000
  142.6336  134.1876  158.6624 O   0  0  0  0  0  0  0  0  0  0  0  0
  143.8175  134.0917  158.9892 C   0  0  0  0  0  0  0  0  0  0  0  0
  144.2231  134.0789  160.4691 C   0  0  0  0  0  0  0  0  0  0  0  0
  145.6476  133.7923  160.6709 N   0  0  0  0  0  0  0  0  0  0  0  0
  146.4225  134.8837  160.8647 C   0  0  0  0  0  0  0  0  0  0  0  0
  146.3216  135.5902  162.0214 N   0  0  0  0  0  0  0  0  0  0  0  0
  147.0845  136.6720  162.2084 C   0  0  0  0  0  0  0  0  0  0  0  0
  147.9908  137.2080  161.3870 N   0  0  0  0  0  0  0  0  0  0  0  0
  148.0918  136.4952  160.2282 C   0  0  0  0  0  0  0  0  0  0  0  0
  147.3551  135.3268  159.8914 C   0  0  0  0  0  0  0  0  0  0  0  0
  147.7294  134.8698  158.6345 N   0  0  0  0  0  0  0  0  0  0  0  0
  148.6310  135.7284  158.2429 C   0  0  0  0  0  0  0  0  0  0  0  0
  148.9023  136.7423  159.1349 N   0  0  0  0  0  0  0  0  0  0  0  0
  149.8474  137.8297  158.9589 C   0  0  0  0  0  0  0  0  0  0  0  0
  150.6680  137.7446  157.6439 C   0  0  2  0  0  0  0  0  0  0  0  0
  151.8553  136.7530  157.7498 C   0  0  0  0  0  0  0  0  0  0  0  0
  152.1588  136.1548  156.5062 O   0  0  0  0  0  0  0  0  0  0  0  0
  151.1557  139.1545  157.2191 C   0  0  2  0  0  0  0  0  0  0  0  0
  150.0603  140.2006  157.0912 C   0  0  0  0  0  0  0  0  0  0  0  0
  150.7333  141.2707  156.2413 C   0  0  0  0  0  0  0  0  0  0  0  0
  151.5867  140.5622  155.3519 O   0  0  0  0  0  0  0  0  0  0  0  0
  151.7700  139.2272  155.8140 C   0  0  0  0  0  0  0  0  0  0  0  0
  145.9639  132.7108  161.5934 C   0  0  0  0  0  0  0  0  0  0  0  0
  147.2596  131.9507  161.4245 C   0  0  0  0  0  0  0  0  0  0  0  0
  145.9437  131.2940  161.0736 C   0  0  0  0  0  0  0  0  0  0  0  0
  144.8226  134.0165  158.1049 N   0  0  0  0  0  0  0  0  0  0  0  0
  144.6784  134.0076  156.6850 C   0  0  0  0  0  0  0  0  0  0  0  0
  145.3855  135.0931  155.9026 C   0  0  0  0  0  0  0  0  0  0  0  0
  143.8894  135.1318  156.0497 C   0  0  0  0  0  0  0  0  0  0  0  0
  143.9494  135.0240  160.9419 H   0  0  0  0  0  0  0  0  0  0  0  0
  143.6303  133.3087  160.9645 H   0  0  0  0  0  0  0  0  0  0  0  0
  146.9468  137.1838  163.1494 H   0  0  0  0  0  0  0  0  0  0  0  0
  149.1193  135.6499  157.2826 H   0  0  0  0  0  0  0  0  0  0  0  0
  149.2758  138.7570  158.9982 H   0  0  0  0  0  0  0  0  0  0  0  0
  150.5193  137.8451  159.8182 H   0  0  0  0  0  0  0  0  0  0  0  0
  150.0043  137.3867  156.8548 H   0  0  0  0  0  0  0  0  0  0  0  0
  152.7648  137.2566  158.0733 H   0  0  0  0  0  0  0  0  0  0  0  0
  151.6486  135.9780  158.4884 H   0  0  0  0  0  0  0  0  0  0  0  0
  151.3533  136.0234  156.0295 H   0  0  0  0  0  0  0  0  0  0  0  0
  151.8913  139.5160  157.9399 H   0  0  0  0  0  0  0  0  0  0  0  0
  149.1989  139.7898  156.5624 H   0  0  0  0  0  0  0  0  0  0  0  0
  149.7197  140.5914  158.0504 H   0  0  0  0  0  0  0  0  0  0  0  0
  150.0167  141.8903  155.7016 H   0  0  0  0  0  0  0  0  0  0  0  0
  151.3448  141.9231  156.8660 H   0  0  0  0  0  0  0  0  0  0  0  0
  152.8273  138.9621  155.8067 H   0  0  0  0  0  0  0  0  0  0  0  0
  151.2507  138.5568  155.1279 H   0  0  0  0  0  0  0  0  0  0  0  0
  145.6205  132.8466  162.6175 H   0  0  0  0  0  0  0  0  0  0  0  0
  147.9137  132.2301  160.6007 H   0  0  0  0  0  0  0  0  0  0  0  0
  147.7651  131.6162  162.3278 H   0  0  0  0  0  0  0  0  0  0  0  0
  145.5727  130.5201  161.7423 H   0  0  0  0  0  0  0  0  0  0  0  0
  145.7227  131.1445  160.0183 H   0  0  0  0  0  0  0  0  0  0  0  0
  145.7634  133.9503  158.4657 H   0  0  0  0  0  0  0  0  0  0  0  0
  144.6105  133.0372  156.1950 H   0  0  0  0  0  0  0  0  0  0  0  0
  145.9637  135.8286  156.4591 H   0  0  0  0  0  0  0  0  0  0  0  0
  145.7872  134.8276  154.9267 H   0  0  0  0  0  0  0  0  0  0  0  0
  143.2918  134.8913  155.1727 H   0  0  0  0  0  0  0  0  0  0  0  0
  143.4685  135.8919  156.7053 H   0  0  0  0  0  0  0  0  0  0  0  0
  1  2  2  0  0  0  0
  2  3  1  0  0  0  0
  2 26  1  0  0  0  0
  3  4  1  0  0  0  0
  3 30  1  0  0  0  0
  3 31  1  0  0  0  0
  4  5  1  0  0  0  0
  4 23  1  0  0  0  0
  5 10  1  0  0  0  0
  5  6  2  0  0  0  0
  6  7  1  0  0  0  0
  7  8  2  0  0  0  0
  7 32  1  0  0  0  0
  8  9  1  0  0  0  0
  9 13  1  0  0  0  0
  9 10  2  0  0  0  0
 10 11  1  0  0  0  0
 11 12  2  0  0  0  0
 12 13  1  0  0  0  0
 12 33  1  0  0  0  0
 13 14  1  0  0  0  0
 14 15  1  0  0  0  0
 14 34  1  0  0  0  0
 14 35  1  0  0  0  0
 15 16  1  0  0  0  0
 15 18  1  0  0  0  0
 15 36  1  0  0  0  0
 16 17  1  0  0  0  0
 16 37  1  0  0  0  0
 16 38  1  0  0  0  0
 17 39  1  0  0  0  0
 18 22  1  0  0  0  0
 18 19  1  0  0  0  0
 18 40  1  0  0  0  0
 19 20  1  0  0  0  0
 19 41  1  0  0  0  0
 19 42  1  0  0  0  0
 20 21  1  0  0  0  0
 20 43  1  0  0  0  0
 20 44  1  0  0  0  0
 21 22  1  0  0  0  0
 22 45  1  0  0  0  0
 22 46  1  0  0  0  0
 23 25  1  0  0  0  0
 23 24  1  0  0  0  0
 23 47  1  0  0  0  0
 24 25  1  0  0  0  0
 24 48  1  0  0  0  0
 24 49  1  0  0  0  0
 25 50  1  0  0  0  0
 25 51  1  0  0  0  0
 26 27  1  0  0  0  0
 26 52  1  0  0  0  0
 27 29  1  0  0  0  0
 27 28  1  0  0  0  0
 27 53  1  0  0  0  0
 28 29  1  0  0  0  0
 28 54  1  0  0  0  0
 28 55  1  0  0  0  0
 29 56  1  0  0  0  0
 29 57  1  0  0  0  0
M  END
> <s_m_source_file>
AV-unprocessed.smi

> <i_m_source_file_index>
77

> <i_lp_mmshare_version>
43012

> <i_f3d_flags>
0

> <s_epik_input>
W0NIMl0xW0NIMl1bQ0hdMVtOSF1DKD1PKVtDSDJdTihbQ0hdMltDSDJdW0NIMl0yKWMobltjSF1uMyljKGMzNCluW2NIXW40W0NIMl1bQ0BIXShbQ0gyXVtPSF0pW0NAQEhdNVtDSDJdW0NIMl1PW0NIMl01

> <s_epik_cmdline>
J2VwaWtfcHl0aG9uJywgJy1waCcsICc3LjAnLCAnLXRuJywgJzgnLCAnLW1hJywgJzIwMCcsICctbWV0YWxfYmluZGluZycsICctaW1hZScsICc8aW5maWxlLm1hZT4nLCAnLW9tYWUnLCAnPG91dGZpbGUubWFlPic=

> <r_lp_tautomer_probability>
1

> <r_epik_Ionization_Penalty>
0.000703847

> <r_epik_Ionization_Penalty_Charging>
0

> <r_epik_Ionization_Penalty_Neutral>
0.000703847

> <r_epik_State_Penalty>
0.00034025

> <r_epik_Charging_Adjusted_Penalty>
0.00034025

> <i_epik_Tot_Q>
0

> <i_epik_Tot_abs_Q>
0

> <r_epik_Metal_State_Penalty>
-0

> <b_epik_Metal_Only>
0

> <s_lp_Force_Field>
OPLS_2005

> <r_lp_Energy>
55.2708

> <b_lp_Chiralities_Consistent>
1

> <s_lp_Variant>
AV-unprocessed.smi:77-1

> <Gold.Version>
5.8.1

> <Gold.Id.Protein>
6NUR|6NUR_protein|mol2

> <Gold.PLP.Fitness>
43.2152

> <Gold.PLP.PLP>
-31.6128

> <Gold.PLP.part.hbond>
-5.0000

> <Gold.PLP.part.metal>
0.0000

> <Gold.PLP.part.buried>
-4.2829

> <Gold.PLP.part.nonpolar>
-21.9177

> <Gold.PLP.part.repulsive>
0.0528

> <Gold.PLP.ligand.clash>
0.0000

> <Gold.PLP.ligand.torsion>
2.0522

> <Gold.PLP.Chemscore.Hbond>
4.5200

> <Gold.PLP.Chemscore.CHOScore>
0.0000

> <Gold.PLP.Chemscore.Metal>
0.0000

> <Gold.Chemscore.Hbonds>
donor molecule, donor type, donor heavy atom, donor atom, acceptor molecule, acceptor atom, score
      P1  H  6931  6943       L1     8  1.00
      P1  H  6934  6947       L1     8  0.67
      P1  H  7989  7998       L1    21  0.78
      P1  H 10752 10763       L1    17  1.00
      P1  H 11000 11005       L1     1  0.99

> <Gold.PLP.Chemscore.Internal.Correction>
2.1468

> <Gold.Rescore>
     Score         DG    S(hbond)    S(metal)    S(lipo)     H(rot)  DE(clash)    DE(int)     intcor
     13.59     -15.83       4.01        0.00      56.56       3.77       0.03       2.21       ----

> <Gold.Chemscore.Fitness>
13.5850

> <Gold.Chemscore.DG>
-15.8274

> <Gold.Chemscore.ZeroCoef>
-5.4800

> <Gold.Chemscore.Hbond>
4.0075

> <Gold.Chemscore.Metal>
0.0000

> <Gold.Chemscore.Lipo>
56.5572

> <Gold.Chemscore.Internal_Hbond>
0.0000

> <Gold.Chemscore.DEClash>
0.0331

> <Gold.Chemscore.DEInternal>
2.2092

> <Gold.Chemscore.Rot>
3.7714

> <Gold.Chemscore.Internal.Correction>
   9.000000E+99

> <Gold.Chemscore.Hbonds>
donor molecule, donor type, donor heavy atom, donor atom, acceptor molecule, acceptor atom, score
      P1  H  6931  6943       L1     8  0.92
      P1  H  6934  6947       L1     8  0.16
      P1  H  7989  7998       L1    21  0.75
      P1  H 10752 10763       L1    17  0.29
      P1  H 11000 11005       L1     1  0.92

> <Gold.Chemscore.Hbond.Weighted>
-13.3850

> <Gold.Chemscore.Metal.Weighted>
-0.0000

> <Gold.Chemscore.Lipo.Weighted>
-6.6172

> <Gold.Chemscore.Internal_Hbond.Weighted>
0.0000

> <Gold.Chemscore.DEClash.Weighted>
0.0331

> <Gold.Chemscore.DEInternal.Weighted>
2.2092

> <Gold.Chemscore.Rot.Weighted>
9.6548

> <Gold.Chemscore.Internal.Correction.Weighted>
   9.000000E+99

> <Gold.Protein.RotatedTorsions>
[ 6907 6896 6895 6894 ] final   88.62 input  -60.11 | X-H torsion
[ 7974 7965 7964 7962 ] final  169.51 input  175.53 | X-H torsion
[ 8008 7997 7996 7995 ] final   69.39 input   59.86 | X-H torsion
[ 10167 10162 10161 10158 ] final  -47.01 input  -65.29 | X-H torsion
[ 10718 10713 10712 10709 ] final  -66.83 input   66.30 | X-H torsion
[ 10763 10752 10751 10750 ] final  112.75 input  -60.55 | X-H torsion
[ 11005 11000 10999 10996 ] final -117.17 input  -57.11 | X-H torsion

> <Gold.Protein.ActiveResidues>
 VAL166  LYS551  ARG553  GLY616  TRP617  ASP618  TYR619  PRO620  LYS621  CYS622 
 ASP623  PHE694  ASN695  SER759  ASP760  ASP761  ALA762  ILE779  LEU786  VAL792 
 PHE793  MET794  SER795  GLU796  ALA797  LYS798  CYS799  TRP800  GLU811  SER814 

> <Gold.Protein.RotatedAtoms>
  152.5427  134.2093  159.8743 H   0  0  0  0  0  0  0  0  0  0  0  0  # atno 6907 bound_to 6896
  151.2076  133.4567  159.2605 H   0  0  0  0  0  0  0  0  0  0  0  0  # atno 6908 bound_to 6896
  151.0928  134.9939  159.8466 H   0  0  0  0  0  0  0  0  0  0  0  0  # atno 6909 bound_to 6896
  144.7353  139.9065  143.6412 H   0  0  0  0  0  0  0  0  0  0  0  0  # atno 7974 bound_to 7965
  155.7230  140.3493  155.5024 H   0  0  0  0  0  0  0  0  0  0  0  0  # atno 8008 bound_to 7997
  155.9253  140.1074  157.1197 H   0  0  0  0  0  0  0  0  0  0  0  0  # atno 8009 bound_to 7997
  154.4076  140.1242  156.4718 H   0  0  0  0  0  0  0  0  0  0  0  0  # atno 8010 bound_to 7997
  140.6793  143.2804  151.3865 H   0  0  0  0  0  0  0  0  0  0  0  0  # atno 10167 bound_to 10162
  156.0591  130.4268  150.1765 H   0  0  0  0  0  0  0  0  0  0  0  0  # atno 10718 bound_to 10713
  153.4825  135.3676  155.2449 H   0  0  0  0  0  0  0  0  0  0  0  0  # atno 10763 bound_to 10752
  154.8755  135.3957  154.3684 H   0  0  0  0  0  0  0  0  0  0  0  0  # atno 10764 bound_to 10752
  153.4290  135.7082  153.6309 H   0  0  0  0  0  0  0  0  0  0  0  0  # atno 10765 bound_to 10752
  141.0372  133.9891  157.3051 H   0  0  0  0  0  0  0  0  0  0  0  0  # atno 11005 bound_to 11000
  146.1033  139.4030  143.0333 LP  0  0  0  0  0  0  0  0  0  0  0  0  # atno 17320 bound_to 7965
  145.7548  140.9958  143.1231 LP  0  0  0  0  0  0  0  0  0  0  0  0  # atno 17321 bound_to 7965
  139.6105  144.1108  152.2294 LP  0  0  0  0  0  0  0  0  0  0  0  0  # atno 17342 bound_to 10162
  140.0520  144.5925  150.7328 LP  0  0  0  0  0  0  0  0  0  0  0  0  # atno 17343 bound_to 10162
  156.9837  130.9872  151.3431 LP  0  0  0  0  0  0  0  0  0  0  0  0  # atno 17370 bound_to 10713
  157.5585  130.8230  149.8235 LP  0  0  0  0  0  0  0  0  0  0  0  0  # atno 17371 bound_to 10713
  139.9249  135.0201  156.8200 LP  0  0  0  0  0  0  0  0  0  0  0  0  # atno 17394 bound_to 11000
  140.6300  133.9915  155.7657 LP  0  0  0  0  0  0  0  0  0  0  0  0  # atno 17395 bound_to 11000

$$$$
