AV-unprocessed.smi:1666|AV-procd|sdf|6672|dock2
  -GOLD-   22720 7383D 1   1.00000     0.00000
 Structure written by MMmdl.
 40 41  0  0  0  0  0  0  0  0  2 V2000
  151.2918  144.6737  158.1660 C   0  0  0  0  0  0  0  0  0  0  0  0
  151.6792  143.2426  158.5021 C   0  0  0  0  0  0  0  0  0  0  0  0
  152.6100  143.0042  159.5355 C   0  0  0  0  0  0  0  0  0  0  0  0
  152.9668  141.6808  159.8455 C   0  0  0  0  0  0  0  0  0  0  0  0
  152.3742  140.6447  159.1037 C   0  0  0  0  0  0  0  0  0  0  0  0
  151.4837  140.8631  158.1148 N   0  0  0  0  0  0  0  0  0  0  0  0
  151.1278  142.1349  157.8037 C   0  0  0  0  0  0  0  0  0  0  0  0
  150.1951  142.4400  156.7727 N   0  0  0  0  0  0  0  0  0  0  0  0
  149.5701  141.5949  155.9340 C   0  0  0  0  0  0  0  0  0  0  0  0
  149.7005  140.3702  155.9230 O   0  0  0  0  0  0  0  0  0  0  0  0
  148.7688  142.2553  155.0856 N   0  0  0  0  0  0  0  0  0  0  0  0
  147.9548  141.6255  154.0528 C   0  0  0  0  0  0  0  0  0  0  0  0
  146.9346  140.6437  154.6606 C   0  0  0  0  0  0  0  0  0  0  0  0
  146.3557  139.7289  153.6459 N   0  3  0  0  0  0  0  0  0  0  0  0
  147.3393  139.3478  152.6041 C   0  0  0  0  0  0  0  0  0  0  0  0
  146.6852  138.4381  151.5504 C   0  0  0  0  0  0  0  0  0  0  0  0
  146.1393  137.2892  152.1858 O   0  0  0  0  0  0  0  0  0  0  0  0
  145.1291  137.6320  153.1261 C   0  0  0  0  0  0  0  0  0  0  0  0
  145.7293  138.5172  154.2316 C   0  0  0  0  0  0  0  0  0  0  0  0
  151.8280  145.3875  158.7921 H   0  0  0  0  0  0  0  0  0  0  0  0
  150.2238  144.8267  158.3229 H   0  0  0  0  0  0  0  0  0  0  0  0
  151.5260  144.8994  157.1253 H   0  0  0  0  0  0  0  0  0  0  0  0
  153.0473  143.8241  160.0863 H   0  0  0  0  0  0  0  0  0  0  0  0
  153.6759  141.4654  160.6310 H   0  0  0  0  0  0  0  0  0  0  0  0
  152.6205  139.6134  159.3088 H   0  0  0  0  0  0  0  0  0  0  0  0
  149.9815  143.4199  156.6622 H   0  0  0  0  0  0  0  0  0  0  0  0
  148.7172  143.2610  155.1613 H   0  0  0  0  0  0  0  0  0  0  0  0
  147.4640  142.4011  153.4644 H   0  0  0  0  0  0  0  0  0  0  0  0
  148.6211  141.0948  153.3722 H   0  0  0  0  0  0  0  0  0  0  0  0
  147.4470  140.0544  155.4227 H   0  0  0  0  0  0  0  0  0  0  0  0
  146.1308  141.1750  155.1725 H   0  0  0  0  0  0  0  0  0  0  0  0
  147.7336  140.2424  152.1205 H   0  0  0  0  0  0  0  0  0  0  0  0
  148.1834  138.8351  153.0681 H   0  0  0  0  0  0  0  0  0  0  0  0
  145.9061  138.9716  151.0034 H   0  0  0  0  0  0  0  0  0  0  0  0
  147.4263  138.1179  150.8179 H   0  0  0  0  0  0  0  0  0  0  0  0
  144.3045  138.1408  152.6239 H   0  0  0  0  0  0  0  0  0  0  0  0
  144.7233  136.7165  153.5568 H   0  0  0  0  0  0  0  0  0  0  0  0
  146.4766  137.9532  154.7923 H   0  0  0  0  0  0  0  0  0  0  0  0
  144.9449  138.7930  154.9354 H   0  0  0  0  0  0  0  0  0  0  0  0
  145.6259  140.2432  153.1733 H   0  0  0  0  0  0  0  0  0  0  0  0
  1  2  1  0  0  0  0
  1 20  1  0  0  0  0
  1 21  1  0  0  0  0
  1 22  1  0  0  0  0
  2  7  1  0  0  0  0
  2  3  2  0  0  0  0
  3  4  1  0  0  0  0
  3 23  1  0  0  0  0
  4  5  2  0  0  0  0
  4 24  1  0  0  0  0
  5  6  1  0  0  0  0
  5 25  1  0  0  0  0
  6  7  2  0  0  0  0
  7  8  1  0  0  0  0
  8  9  1  0  0  0  0
  8 26  1  0  0  0  0
  9 10  2  0  0  0  0
  9 11  1  0  0  0  0
 11 12  1  0  0  0  0
 11 27  1  0  0  0  0
 12 13  1  0  0  0  0
 12 28  1  0  0  0  0
 12 29  1  0  0  0  0
 13 14  1  0  0  0  0
 13 30  1  0  0  0  0
 13 31  1  0  0  0  0
 14 19  1  0  0  0  0
 14 15  1  0  0  0  0
 14 40  1  0  0  0  0
 15 16  1  0  0  0  0
 15 32  1  0  0  0  0
 15 33  1  0  0  0  0
 16 17  1  0  0  0  0
 16 34  1  0  0  0  0
 16 35  1  0  0  0  0
 17 18  1  0  0  0  0
 18 19  1  0  0  0  0
 18 36  1  0  0  0  0
 18 37  1  0  0  0  0
 19 38  1  0  0  0  0
 19 39  1  0  0  0  0
M  CHG  1  14   1
M  END
> <s_m_source_file>
AV-unprocessed.smi

> <i_m_source_file_index>
1666

> <i_lp_mmshare_version>
43012

> <i_f3d_flags>
0

> <s_epik_input>
W0NIM11jMVtjSF1bY0hdW2NIXW5jMVtOSF1DKD1PKVtOSF1bQ0gyXVtDSDJdTjJbQ0gyXVtDSDJdT1tDSDJdW0NIMl0y

> <s_epik_cmdline>
J2VwaWtfcHl0aG9uJywgJy1waCcsICc3LjAnLCAnLXRuJywgJzgnLCAnLW1hJywgJzIwMCcsICctbWV0YWxfYmluZGluZycsICctaW1hZScsICc8aW5maWxlLm1hZT4nLCAnLW9tYWUnLCAnPG91dGZpbGUubWFlPic=

> <r_epik_Ionization_Penalty>
0.602573

> <r_epik_Ionization_Penalty_Charging>
0.602531

> <r_epik_Ionization_Penalty_Neutral>
4.20806e-05

> <r_epik_State_Penalty>
0.617039

> <r_epik_Charging_Adjusted_Penalty>
1.21957

> <i_epik_Tot_Q>
1

> <i_epik_Tot_abs_Q>
1

> <r_epik_Metal_State_Penalty>
0.617042

> <b_epik_Metal_Only>
0

> <s_lp_Force_Field>
OPLS_2005

> <r_lp_Energy>
16.3818

> <b_lp_Chiralities_Consistent>
1

> <s_lp_Variant>
AV-unprocessed.smi:1666-2

> <Gold.Version>
5.8.1

> <Gold.Id.Protein>
6NUR|6NUR_protein|mol2

> <Gold.PLP.Fitness>
46.4270

> <Gold.PLP.PLP>
-35.2317

> <Gold.PLP.part.hbond>
-3.0000

> <Gold.PLP.part.metal>
0.0000

> <Gold.PLP.part.buried>
-2.4853

> <Gold.PLP.part.nonpolar>
-30.7530

> <Gold.PLP.part.repulsive>
0.5153

> <Gold.PLP.ligand.clash>
0.0000

> <Gold.PLP.ligand.torsion>
0.2805

> <Gold.PLP.Chemscore.Hbond>
3.9120

> <Gold.PLP.Chemscore.CHOScore>
0.0000

> <Gold.PLP.Chemscore.Metal>
0.0000

> <Gold.Chemscore.Hbonds>
donor molecule, donor type, donor heavy atom, donor atom, acceptor molecule, acceptor atom, score
      L1  H     8    26       P1  8028  0.91
      L1  H    11    27       P1  8028  1.00
      L1  H    14    40       P1 10175  1.76

> <Gold.PLP.Chemscore.Internal.Correction>
0.0205

> <Gold.Rescore>
     Score         DG    S(hbond)    S(metal)    S(lipo)     H(rot)  DE(clash)    DE(int)     intcor
     19.23     -21.47       2.91        0.00      87.10       1.54       0.14       2.09       ----

> <Gold.Chemscore.Fitness>
19.2283

> <Gold.Chemscore.DG>
-21.4659

> <Gold.Chemscore.ZeroCoef>
-5.4800

> <Gold.Chemscore.Hbond>
2.9139

> <Gold.Chemscore.Metal>
0.0000

> <Gold.Chemscore.Lipo>
87.1024

> <Gold.Chemscore.Internal_Hbond>
0.0000

> <Gold.Chemscore.DEClash>
0.1445

> <Gold.Chemscore.DEInternal>
2.0931

> <Gold.Chemscore.Rot>
1.5381

> <Gold.Chemscore.Internal.Correction>
   9.000000E+99

> <Gold.Chemscore.Hbonds>
donor molecule, donor type, donor heavy atom, donor atom, acceptor molecule, acceptor atom, score
      L1  H     8    26       P1  8028  0.87
      L1  H    11    27       P1  8028  0.93
      L1  H    14    40       P1 10175  0.82

> <Gold.Chemscore.Hbond.Weighted>
-9.7324

> <Gold.Chemscore.Metal.Weighted>
-0.0000

> <Gold.Chemscore.Lipo.Weighted>
-10.1910

> <Gold.Chemscore.Internal_Hbond.Weighted>
0.0000

> <Gold.Chemscore.DEClash.Weighted>
0.1445

> <Gold.Chemscore.DEInternal.Weighted>
2.0931

> <Gold.Chemscore.Rot.Weighted>
3.9375

> <Gold.Chemscore.Internal.Correction.Weighted>
   9.000000E+99

> <Gold.Protein.RotatedTorsions>
[ 6907 6896 6895 6894 ] final  152.71 input  -60.11 | X-H torsion
[ 7974 7965 7964 7962 ] final  168.34 input  175.53 | X-H torsion
[ 8008 7997 7996 7995 ] final   20.61 input   59.86 | X-H torsion
[ 10167 10162 10161 10158 ] final  166.34 input  -65.29 | X-H torsion
[ 10718 10713 10712 10709 ] final  -51.77 input   66.30 | X-H torsion
[ 10763 10752 10751 10750 ] final   73.23 input  -60.55 | X-H torsion
[ 11005 11000 10999 10996 ] final -132.45 input  -57.11 | X-H torsion

> <Gold.Protein.ActiveResidues>
 VAL166  LYS551  ARG553  GLY616  TRP617  ASP618  TYR619  PRO620  LYS621  CYS622 
 ASP623  PHE694  ASN695  SER759  ASP760  ASP761  ALA762  ILE779  LEU786  VAL792 
 PHE793  MET794  SER795  GLU796  ALA797  LYS798  CYS799  TRP800  GLU811  SER814 

> <Gold.Protein.RotatedAtoms>
  152.0829  133.4161  159.4508 H   0  0  0  0  0  0  0  0  0  0  0  0  # atno 6907 bound_to 6896
  150.6862  134.2961  159.4696 H   0  0  0  0  0  0  0  0  0  0  0  0  # atno 6908 bound_to 6896
  152.0805  134.9474  160.0624 H   0  0  0  0  0  0  0  0  0  0  0  0  # atno 6909 bound_to 6896
  144.7392  139.8893  143.6402 H   0  0  0  0  0  0  0  0  0  0  0  0  # atno 7974 bound_to 7965
  154.9381  140.3049  155.5134 H   0  0  0  0  0  0  0  0  0  0  0  0  # atno 8008 bound_to 7997
  156.2998  140.2341  156.4385 H   0  0  0  0  0  0  0  0  0  0  0  0  # atno 8009 bound_to 7997
  154.8172  140.0425  157.1373 H   0  0  0  0  0  0  0  0  0  0  0  0  # atno 8010 bound_to 7997
  139.4923  144.4037  151.9380 H   0  0  0  0  0  0  0  0  0  0  0  0  # atno 10167 bound_to 10162
  156.1680  130.4149  149.9690 H   0  0  0  0  0  0  0  0  0  0  0  0  # atno 10718 bound_to 10713
  153.0508  135.5070  154.7862 H   0  0  0  0  0  0  0  0  0  0  0  0  # atno 10763 bound_to 10752
  154.6726  135.2955  154.9724 H   0  0  0  0  0  0  0  0  0  0  0  0  # atno 10764 bound_to 10752
  154.0537  135.6700  153.4856 H   0  0  0  0  0  0  0  0  0  0  0  0  # atno 10765 bound_to 10752
  140.9169  134.1495  157.4345 H   0  0  0  0  0  0  0  0  0  0  0  0  # atno 11005 bound_to 11000
  146.1153  139.4164  143.0262 LP  0  0  0  0  0  0  0  0  0  0  0  0  # atno 17320 bound_to 7965
  145.7383  141.0017  143.1314 LP  0  0  0  0  0  0  0  0  0  0  0  0  # atno 17321 bound_to 7965
  140.3477  144.3127  150.5955 LP  0  0  0  0  0  0  0  0  0  0  0  0  # atno 17342 bound_to 10162
  140.5512  143.2206  151.7924 LP  0  0  0  0  0  0  0  0  0  0  0  0  # atno 17343 bound_to 10162
  156.7499  130.9111  151.3637 LP  0  0  0  0  0  0  0  0  0  0  0  0  # atno 17370 bound_to 10713
  157.6782  130.9114  150.0202 LP  0  0  0  0  0  0  0  0  0  0  0  0  # atno 17371 bound_to 10713
  139.8768  134.9957  156.5756 LP  0  0  0  0  0  0  0  0  0  0  0  0  # atno 17394 bound_to 11000
  140.8038  133.8484  155.8750 LP  0  0  0  0  0  0  0  0  0  0  0  0  # atno 17395 bound_to 11000

$$$$
