AV-unprocessed.smi:105|AV-procd|sdf|1009|dock6
  -GOLD-   2262018 03D 1   1.00000     0.00000
 Structure written by MMmdl.
 42 45  0  0  0  0  0  0  0  0  1 V2000
  144.2525  137.2889  153.7854 C   0  0  0  0  0  0  0  0  0  0  0  0
  144.9615  137.2284  152.5700 C   0  0  0  0  0  0  0  0  0  0  0  0
  146.1936  137.8982  152.4384 C   0  0  0  0  0  0  0  0  0  0  0  0
  146.7207  138.6337  153.5205 C   0  0  0  0  0  0  0  0  0  0  0  0
  148.0545  139.3491  153.3739 C   0  0  0  0  0  0  0  0  0  0  0  0
  149.2307  138.4952  153.5042 N   0  0  0  0  0  0  0  0  0  0  0  0
  150.2698  138.8701  154.2825 C   0  0  0  0  0  0  0  0  0  0  0  0
  151.4237  138.1525  154.3061 N   0  0  0  0  0  0  0  0  0  0  0  0
  152.4341  138.5365  155.0922 C   0  0  0  0  0  0  0  0  0  0  0  0
  152.4976  139.5821  155.9197 N   0  0  0  0  0  0  0  0  0  0  0  0
  151.3398  140.3040  155.8984 C   0  0  0  0  0  0  0  0  0  0  0  0
  150.1871  140.0166  155.1144 C   0  0  0  0  0  0  0  0  0  0  0  0
  149.1987  140.9623  155.3525 N   0  0  0  0  0  0  0  0  0  0  0  0
  149.7348  141.7635  156.2326 C   0  0  0  0  0  0  0  0  0  0  0  0
  151.0200  141.4469  156.6144 N   0  0  0  0  0  0  0  0  0  0  0  0
  151.8311  142.1641  157.5845 C   0  0  2  0  0  0  0  0  0  0  0  0
  152.1848  141.2940  158.8085 C   0  0  0  0  0  0  0  0  0  0  0  0
  153.0279  142.1379  159.7720 C   0  0  0  0  0  0  0  0  0  0  0  0
  152.2585  143.4111  160.1387 C   0  0  0  0  0  0  0  0  0  0  0  0
  151.8398  144.1539  158.8590 C   0  0  0  0  0  0  0  0  0  0  0  0
  151.1025  143.2788  158.0093 O   0  0  0  0  0  0  0  0  0  0  0  0
  146.0086  138.6887  154.7383 C   0  0  0  0  0  0  0  0  0  0  0  0
  144.7766  138.0189  154.8696 C   0  0  0  0  0  0  0  0  0  0  0  0
  143.3080  136.7751  153.8863 H   0  0  0  0  0  0  0  0  0  0  0  0
  144.5603  136.6680  151.7385 H   0  0  0  0  0  0  0  0  0  0  0  0
  146.7310  137.8478  151.5026 H   0  0  0  0  0  0  0  0  0  0  0  0
  148.0822  139.8108  152.3869 H   0  0  0  0  0  0  0  0  0  0  0  0
  148.1197  140.1666  154.0932 H   0  0  0  0  0  0  0  0  0  0  0  0
  149.1419  137.5644  153.1226 H   0  0  0  0  0  0  0  0  0  0  0  0
  153.3172  137.9160  155.0540 H   0  0  0  0  0  0  0  0  0  0  0  0
  149.2005  142.6146  156.6299 H   0  0  0  0  0  0  0  0  0  0  0  0
  152.7331  142.5053  157.0728 H   0  0  0  0  0  0  0  0  0  0  0  0
  151.2706  140.9531  159.2953 H   0  0  0  0  0  0  0  0  0  0  0  0
  152.7359  140.4136  158.4769 H   0  0  0  0  0  0  0  0  0  0  0  0
  153.2613  141.5655  160.6702 H   0  0  0  0  0  0  0  0  0  0  0  0
  153.9802  142.3968  159.3076 H   0  0  0  0  0  0  0  0  0  0  0  0
  151.3714  143.1516  160.7177 H   0  0  0  0  0  0  0  0  0  0  0  0
  152.8692  144.0571  160.7699 H   0  0  0  0  0  0  0  0  0  0  0  0
  151.2152  145.0113  159.1101 H   0  0  0  0  0  0  0  0  0  0  0  0
  152.7125  144.5406  158.3302 H   0  0  0  0  0  0  0  0  0  0  0  0
  146.4042  139.2452  155.5755 H   0  0  0  0  0  0  0  0  0  0  0  0
  144.2343  138.0644  155.8025 H   0  0  0  0  0  0  0  0  0  0  0  0
  1 23  1  0  0  0  0
  1  2  2  0  0  0  0
  1 24  1  0  0  0  0
  2  3  1  0  0  0  0
  2 25  1  0  0  0  0
  3  4  2  0  0  0  0
  3 26  1  0  0  0  0
  4  5  1  0  0  0  0
  4 22  1  0  0  0  0
  5  6  1  0  0  0  0
  5 27  1  0  0  0  0
  5 28  1  0  0  0  0
  6  7  1  0  0  0  0
  6 29  1  0  0  0  0
  7 12  1  0  0  0  0
  7  8  2  0  0  0  0
  8  9  1  0  0  0  0
  9 10  2  0  0  0  0
  9 30  1  0  0  0  0
 10 11  1  0  0  0  0
 11 15  1  0  0  0  0
 11 12  2  0  0  0  0
 12 13  1  0  0  0  0
 13 14  2  0  0  0  0
 14 15  1  0  0  0  0
 14 31  1  0  0  0  0
 15 16  1  0  0  0  0
 16 21  1  0  0  0  0
 16 17  1  0  0  0  0
 16 32  1  0  0  0  0
 17 18  1  0  0  0  0
 17 33  1  0  0  0  0
 17 34  1  0  0  0  0
 18 19  1  0  0  0  0
 18 35  1  0  0  0  0
 18 36  1  0  0  0  0
 19 20  1  0  0  0  0
 19 37  1  0  0  0  0
 19 38  1  0  0  0  0
 20 21  1  0  0  0  0
 20 39  1  0  0  0  0
 20 40  1  0  0  0  0
 22 23  2  0  0  0  0
 22 41  1  0  0  0  0
 23 42  1  0  0  0  0
M  END
> <s_m_source_file>
AV-unprocessed.smi

> <i_m_source_file_index>
105

> <i_lp_mmshare_version>
43012

> <i_f3d_flags>
0

> <s_epik_input>
W2NIXTFbY0hdW2NIXVtjSF1bY0hdYzFbQ0gyXVtOSF1jKG5bY0hdbjIpYyhjMjMpbltjSF1uM1tDQEBIXTRbQ0gyXVtDSDJdW0NIMl1bQ0gyXU80

> <s_epik_cmdline>
J2VwaWtfcHl0aG9uJywgJy1waCcsICc3LjAnLCAnLXRuJywgJzgnLCAnLW1hJywgJzIwMCcsICctbWV0YWxfYmluZGluZycsICctaW1hZScsICc8aW5maWxlLm1hZT4nLCAnLW9tYWUnLCAnPG91dGZpbGUubWFlPic=

> <r_lp_tautomer_probability>
1

> <r_epik_Ionization_Penalty>
0.000653933

> <r_epik_Ionization_Penalty_Charging>
0

> <r_epik_Ionization_Penalty_Neutral>
0.000653933

> <r_epik_State_Penalty>
-0

> <r_epik_Charging_Adjusted_Penalty>
0

> <i_epik_Tot_Q>
0

> <i_epik_Tot_abs_Q>
0

> <r_epik_Metal_State_Penalty>
-0

> <b_epik_Metal_Only>
0

> <s_epik_Chemistry_Notes>
This compound contains an acetal/aminal-like group ( X-CH(R)-Y where X, Y are N, S, or O) that may be acid/base labile, releasing an aldehyde.

> <s_lp_Force_Field>
OPLS_2005

> <r_lp_Energy>
24.2362

> <b_lp_Chiralities_Consistent>
1

> <s_lp_Variant>
AV-unprocessed.smi:105-1

> <Gold.Version>
5.8.1

> <Gold.Id.Protein>
6NUR|6NUR_protein|mol2

> <Gold.PLP.Fitness>
49.2749

> <Gold.PLP.PLP>
-41.0965

> <Gold.PLP.part.hbond>
-3.0000

> <Gold.PLP.part.metal>
0.0000

> <Gold.PLP.part.buried>
-3.0204

> <Gold.PLP.part.nonpolar>
-35.8844

> <Gold.PLP.part.repulsive>
0.4654

> <Gold.PLP.ligand.clash>
0.0000

> <Gold.PLP.ligand.torsion>
0.3732

> <Gold.PLP.Chemscore.Hbond>
2.0000

> <Gold.PLP.Chemscore.CHOScore>
0.9694

> <Gold.PLP.Chemscore.Metal>
0.0000

> <Gold.Chemscore.Hbonds>
donor molecule, donor type, donor heavy atom, donor atom, acceptor molecule, acceptor atom, score
      L1  H     6    29       P1  7948  1.00
      P1  H  7997  8009       L1    10  1.00
      L1  C    14    31       P1  8028  0.98

> <Gold.PLP.Chemscore.Internal.Correction>
0.0165

> <Gold.Rescore>
     Score         DG    S(hbond)    S(metal)    S(lipo)     H(rot)  DE(clash)    DE(int)     intcor
     14.09     -16.76       1.89        0.00      76.60       1.55       0.87       1.80       ----

> <Gold.Chemscore.Fitness>
14.0907

> <Gold.Chemscore.DG>
-16.7645

> <Gold.Chemscore.ZeroCoef>
-5.4800

> <Gold.Chemscore.Hbond>
1.8868

> <Gold.Chemscore.Metal>
0.0000

> <Gold.Chemscore.Lipo>
76.6033

> <Gold.Chemscore.Internal_Hbond>
0.0000

> <Gold.Chemscore.DEClash>
0.8736

> <Gold.Chemscore.DEInternal>
1.8002

> <Gold.Chemscore.Rot>
1.5547

> <Gold.Chemscore.Internal.Correction>
   9.000000E+99

> <Gold.Chemscore.Hbonds>
donor molecule, donor type, donor heavy atom, donor atom, acceptor molecule, acceptor atom, score
      L1  H     6    29       P1  7948  0.99
      P1  H  7997  8009       L1    10  0.84

> <Gold.Chemscore.Hbond.Weighted>
-6.3019

> <Gold.Chemscore.Metal.Weighted>
-0.0000

> <Gold.Chemscore.Lipo.Weighted>
-8.9626

> <Gold.Chemscore.Internal_Hbond.Weighted>
0.0000

> <Gold.Chemscore.DEClash.Weighted>
0.8736

> <Gold.Chemscore.DEInternal.Weighted>
1.8002

> <Gold.Chemscore.Rot.Weighted>
3.9800

> <Gold.Chemscore.Internal.Correction.Weighted>
   9.000000E+99

> <Gold.Protein.RotatedTorsions>
[ 6907 6896 6895 6894 ] final  137.17 input  -60.11 | X-H torsion
[ 7974 7965 7964 7962 ] final   61.93 input  175.53 | X-H torsion
[ 8008 7997 7996 7995 ] final -160.75 input   59.86 | X-H torsion
[ 10167 10162 10161 10158 ] final -113.17 input  -65.29 | X-H torsion
[ 10718 10713 10712 10709 ] final   63.19 input   66.30 | X-H torsion
[ 10763 10752 10751 10750 ] final   31.71 input  -60.55 | X-H torsion
[ 11005 11000 10999 10996 ] final  -10.98 input  -57.11 | X-H torsion

> <Gold.Protein.ActiveResidues>
 VAL166  LYS551  ARG553  GLY616  TRP617  ASP618  TYR619  PRO620  LYS621  CYS622 
 ASP623  PHE694  ASN695  SER759  ASP760  ASP761  ALA762  ILE779  LEU786  VAL792 
 PHE793  MET794  SER795  GLU796  ALA797  LYS798  CYS799  TRP800  GLU811  SER814 

> <Gold.Protein.RotatedAtoms>
  152.2811  133.5471  159.5497 H   0  0  0  0  0  0  0  0  0  0  0  0  # atno 6907 bound_to 6896
  150.7196  134.0563  159.3824 H   0  0  0  0  0  0  0  0  0  0  0  0  # atno 6908 bound_to 6896
  151.8474  135.0570  160.0506 H   0  0  0  0  0  0  0  0  0  0  0  0  # atno 6909 bound_to 6896
  145.8791  139.3431  143.0716 H   0  0  0  0  0  0  0  0  0  0  0  0  # atno 7974 bound_to 7965
  155.7821  140.0866  157.2054 H   0  0  0  0  0  0  0  0  0  0  0  0  # atno 8008 bound_to 7997
  154.3989  140.1506  156.3122 H   0  0  0  0  0  0  0  0  0  0  0  0  # atno 8009 bound_to 7997
  155.8643  140.3428  155.5780 H   0  0  0  0  0  0  0  0  0  0  0  0  # atno 8010 bound_to 7997
  140.1147  143.4496  152.1730 H   0  0  0  0  0  0  0  0  0  0  0  0  # atno 10167 bound_to 10162
  157.5954  130.9092  149.9684 H   0  0  0  0  0  0  0  0  0  0  0  0  # atno 10718 bound_to 10713
  153.0301  135.6432  154.1242 H   0  0  0  0  0  0  0  0  0  0  0  0  # atno 10763 bound_to 10752
  154.0965  135.2862  155.3262 H   0  0  0  0  0  0  0  0  0  0  0  0  # atno 10764 bound_to 10752
  154.6428  135.5453  153.7873 H   0  0  0  0  0  0  0  0  0  0  0  0  # atno 10765 bound_to 10752
  140.7504  133.8597  155.9040 H   0  0  0  0  0  0  0  0  0  0  0  0  # atno 11005 bound_to 11000
  145.9045  140.9221  143.0486 LP  0  0  0  0  0  0  0  0  0  0  0  0  # atno 17320 bound_to 7965
  144.6727  140.1077  143.7457 LP  0  0  0  0  0  0  0  0  0  0  0  0  # atno 17321 bound_to 7965
  139.5600  144.7399  151.4182 LP  0  0  0  0  0  0  0  0  0  0  0  0  # atno 17342 bound_to 10162
  140.6906  143.7871  150.7249 LP  0  0  0  0  0  0  0  0  0  0  0  0  # atno 17343 bound_to 10162
  156.1015  130.3655  150.0209 LP  0  0  0  0  0  0  0  0  0  0  0  0  # atno 17370 bound_to 10713
  156.8323  130.9397  151.3636 LP  0  0  0  0  0  0  0  0  0  0  0  0  # atno 17371 bound_to 10713
  140.9756  134.1474  157.4539 LP  0  0  0  0  0  0  0  0  0  0  0  0  # atno 17394 bound_to 11000
  139.8788  134.9993  156.5948 LP  0  0  0  0  0  0  0  0  0  0  0  0  # atno 17395 bound_to 11000

$$$$
