AV-unprocessed.smi:1655|AV-procd|sdf|6644|dock9
  -GOLD-   22720 7343D 1   1.00000     0.00000
 Structure written by MMmdl.
 34 35  0  0  0  0  0  0  0  0  1 V2000
  144.0133  143.8451  161.3912 C   0  0  0  0  0  0  0  0  0  0  0  0
  145.4304  143.8756  160.9310 C   0  0  0  0  0  0  0  0  0  0  0  0
  146.0070  144.0498  159.7042 C   0  0  0  0  0  0  0  0  0  0  0  0
  147.3961  143.9620  159.9880 C   0  0  0  0  0  0  0  0  0  0  0  0
  148.3597  144.0905  158.9552 N   0  0  0  0  0  0  0  0  0  0  0  0
  149.6539  143.7294  158.9919 C   0  0  0  0  0  0  0  0  0  0  0  0
  150.2210  143.2186  159.9582 O   0  0  0  0  0  0  0  0  0  0  0  0
  150.2662  143.9942  157.8287 N   0  0  0  0  0  0  0  0  0  0  0  0
  151.6692  143.7209  157.5381 C   0  0  0  0  0  0  0  0  0  0  0  0
  152.6028  144.4221  158.5391 C   0  0  0  0  0  0  0  0  0  0  0  0
  153.2746  143.4393  159.5095 C   0  0  2  0  0  0  0  0  0  0  0  0
  153.0765  141.9701  159.1433 C   0  0  0  0  0  0  0  0  0  0  0  0
  153.2413  141.2491  160.4722 C   0  0  0  0  0  0  0  0  0  0  0  0
  153.1054  142.3582  161.5202 C   0  0  0  0  0  0  0  0  0  0  0  0
  152.6852  143.5077  160.7979 O   0  0  0  0  0  0  0  0  0  0  0  0
  147.6447  143.7553  161.2723 N   0  0  0  0  0  0  0  0  0  0  0  0
  146.3864  143.6995  161.8831 O   0  0  0  0  0  0  0  0  0  0  0  0
  143.3278  143.8432  160.5435 H   0  0  0  0  0  0  0  0  0  0  0  0
  143.7881  144.7162  162.0064 H   0  0  0  0  0  0  0  0  0  0  0  0
  143.8188  142.9518  161.9847 H   0  0  0  0  0  0  0  0  0  0  0  0
  145.5113  144.2118  158.7586 H   0  0  0  0  0  0  0  0  0  0  0  0
  148.0266  144.4964  158.0936 H   0  0  0  0  0  0  0  0  0  0  0  0
  149.7232  144.4159  157.0894 H   0  0  0  0  0  0  0  0  0  0  0  0
  151.8180  142.6419  157.5847 H   0  0  0  0  0  0  0  0  0  0  0  0
  151.9063  144.0221  156.5161 H   0  0  0  0  0  0  0  0  0  0  0  0
  153.3678  144.9849  158.0023 H   0  0  0  0  0  0  0  0  0  0  0  0
  152.0295  145.1515  159.1124 H   0  0  0  0  0  0  0  0  0  0  0  0
  154.3409  143.6580  159.5939 H   0  0  0  0  0  0  0  0  0  0  0  0
  152.0657  141.8088  158.7660 H   0  0  0  0  0  0  0  0  0  0  0  0
  153.7783  141.6266  158.3830 H   0  0  0  0  0  0  0  0  0  0  0  0
  152.4796  140.4787  160.5959 H   0  0  0  0  0  0  0  0  0  0  0  0
  154.2182  140.7706  160.5471 H   0  0  0  0  0  0  0  0  0  0  0  0
  152.3924  142.1074  162.3057 H   0  0  0  0  0  0  0  0  0  0  0  0
  154.0694  142.5617  161.9884 H   0  0  0  0  0  0  0  0  0  0  0  0
  1  2  1  0  0  0  0
  1 18  1  0  0  0  0
  1 19  1  0  0  0  0
  1 20  1  0  0  0  0
  2 17  1  0  0  0  0
  2  3  2  0  0  0  0
  3  4  1  0  0  0  0
  3 21  1  0  0  0  0
  4  5  1  0  0  0  0
  4 16  2  0  0  0  0
  5  6  1  0  0  0  0
  5 22  1  0  0  0  0
  6  7  2  0  0  0  0
  6  8  1  0  0  0  0
  8  9  1  0  0  0  0
  8 23  1  0  0  0  0
  9 10  1  0  0  0  0
  9 24  1  0  0  0  0
  9 25  1  0  0  0  0
 10 11  1  0  0  0  0
 10 26  1  0  0  0  0
 10 27  1  0  0  0  0
 11 15  1  0  0  0  0
 11 12  1  0  0  0  0
 11 28  1  0  0  0  0
 12 13  1  0  0  0  0
 12 29  1  0  0  0  0
 12 30  1  0  0  0  0
 13 14  1  0  0  0  0
 13 31  1  0  0  0  0
 13 32  1  0  0  0  0
 14 15  1  0  0  0  0
 14 33  1  0  0  0  0
 14 34  1  0  0  0  0
 16 17  1  0  0  0  0
M  END
> <s_m_source_file>
AV-unprocessed.smi

> <i_m_source_file_index>
1655

> <i_lp_mmshare_version>
43012

> <i_f3d_flags>
0

> <s_epik_input>
W0NIM11jMVtjSF1jKG5vMSlbTkhdQyg9TylbTkhdW0NIMl1bQ0gyXVtDQEBIXTJbQ0gyXVtDSDJdW0NIMl1PMg==

> <s_epik_cmdline>
J2VwaWtfcHl0aG9uJywgJy1waCcsICc3LjAnLCAnLXRuJywgJzgnLCAnLW1hJywgJzIwMCcsICctbWV0YWxfYmluZGluZycsICctaW1hZScsICc8aW5maWxlLm1hZT4nLCAnLW9tYWUnLCAnPG91dGZpbGUubWFlPic=

> <r_lp_tautomer_probability>
1

> <r_epik_Ionization_Penalty>
2.23964e-05

> <r_epik_Ionization_Penalty_Charging>
0

> <r_epik_Ionization_Penalty_Neutral>
2.23964e-05

> <r_epik_State_Penalty>
-0

> <r_epik_Charging_Adjusted_Penalty>
0

> <i_epik_Tot_Q>
0

> <i_epik_Tot_abs_Q>
0

> <r_epik_Metal_State_Penalty>
-0

> <b_epik_Metal_Only>
0

> <s_lp_Force_Field>
OPLS_2005

> <r_lp_Energy>
15.5425

> <b_lp_Chiralities_Consistent>
1

> <s_lp_Variant>
AV-unprocessed.smi:1655-1

> <Gold.Version>
5.8.1

> <Gold.Id.Protein>
6NUR|6NUR_protein|mol2

> <Gold.PLP.Fitness>
42.9787

> <Gold.PLP.PLP>
-36.3473

> <Gold.PLP.part.hbond>
-4.8645

> <Gold.PLP.part.metal>
0.0000

> <Gold.PLP.part.buried>
-5.4132

> <Gold.PLP.part.nonpolar>
-26.7070

> <Gold.PLP.part.repulsive>
0.4771

> <Gold.PLP.ligand.clash>
0.0000

> <Gold.PLP.ligand.torsion>
1.0799

> <Gold.PLP.Chemscore.Hbond>
2.9260

> <Gold.PLP.Chemscore.CHOScore>
0.0000

> <Gold.PLP.Chemscore.Metal>
0.0000

> <Gold.Chemscore.Hbonds>
donor molecule, donor type, donor heavy atom, donor atom, acceptor molecule, acceptor atom, score
      L1  H     5    22       P1  8029  0.86
      L1  H     8    23       P1  8028  1.00
      P1  H  6933  6944       L1    16  1.00

> <Gold.PLP.Chemscore.Internal.Correction>
0.0131

> <Gold.Rescore>
     Score         DG    S(hbond)    S(metal)    S(lipo)     H(rot)  DE(clash)    DE(int)     intcor
     15.40     -17.91       1.83        0.00      87.86       1.55       0.13       2.38       ----

> <Gold.Chemscore.Fitness>
15.4019

> <Gold.Chemscore.DG>
-17.9096

> <Gold.Chemscore.ZeroCoef>
-5.4800

> <Gold.Chemscore.Hbond>
1.8319

> <Gold.Chemscore.Metal>
0.0000

> <Gold.Chemscore.Lipo>
87.8600

> <Gold.Chemscore.Internal_Hbond>
0.0000

> <Gold.Chemscore.DEClash>
0.1321

> <Gold.Chemscore.DEInternal>
2.3756

> <Gold.Chemscore.Rot>
1.5503

> <Gold.Chemscore.Internal.Correction>
   9.000000E+99

> <Gold.Chemscore.Hbonds>
donor molecule, donor type, donor heavy atom, donor atom, acceptor molecule, acceptor atom, score
      L1  H     5    22       P1  8029  0.39
      L1  H     8    23       P1  8028  0.35
      P1  H  6933  6944       L1    16  0.63

> <Gold.Chemscore.Hbond.Weighted>
-6.1187

> <Gold.Chemscore.Metal.Weighted>
-0.0000

> <Gold.Chemscore.Lipo.Weighted>
-10.2796

> <Gold.Chemscore.Internal_Hbond.Weighted>
0.0000

> <Gold.Chemscore.DEClash.Weighted>
0.1321

> <Gold.Chemscore.DEInternal.Weighted>
2.3756

> <Gold.Chemscore.Rot.Weighted>
3.9687

> <Gold.Chemscore.Internal.Correction.Weighted>
   9.000000E+99

> <Gold.Protein.RotatedTorsions>
[ 6907 6896 6895 6894 ] final   10.99 input  -60.11 | X-H torsion
[ 7974 7965 7964 7962 ] final  -90.34 input  175.53 | X-H torsion
[ 8008 7997 7996 7995 ] final -153.88 input   59.86 | X-H torsion
[ 10167 10162 10161 10158 ] final -173.38 input  -65.29 | X-H torsion
[ 10718 10713 10712 10709 ] final   17.73 input   66.30 | X-H torsion
[ 10763 10752 10751 10750 ] final   16.18 input  -60.55 | X-H torsion
[ 11005 11000 10999 10996 ] final -138.09 input  -57.11 | X-H torsion

> <Gold.Protein.ActiveResidues>
 VAL166  LYS551  ARG553  GLY616  TRP617  ASP618  TYR619  PRO620  LYS621  CYS622 
 ASP623  PHE694  ASN695  SER759  ASP760  ASP761  ALA762  ILE779  LEU786  VAL792 
 PHE793  MET794  SER795  GLU796  ALA797  LYS798  CYS799  TRP800  GLU811  SER814 

> <Gold.Protein.RotatedAtoms>
  151.7472  135.0841  160.0324 H   0  0  0  0  0  0  0  0  0  0  0  0  # atno 6907 bound_to 6896
  152.3441  133.6096  159.5905 H   0  0  0  0  0  0  0  0  0  0  0  0  # atno 6908 bound_to 6896
  150.7497  133.9593  159.3552 H   0  0  0  0  0  0  0  0  0  0  0  0  # atno 6909 bound_to 6896
  145.4278  140.9554  143.2145 H   0  0  0  0  0  0  0  0  0  0  0  0  # atno 7974 bound_to 7965
  155.6777  140.0740  157.2496 H   0  0  0  0  0  0  0  0  0  0  0  0  # atno 8008 bound_to 7997
  154.4111  140.1687  156.2000 H   0  0  0  0  0  0  0  0  0  0  0  0  # atno 8009 bound_to 7997
  155.9562  140.3373  155.6453 H   0  0  0  0  0  0  0  0  0  0  0  0  # atno 8010 bound_to 7997
  139.5691  144.1683  152.1358 H   0  0  0  0  0  0  0  0  0  0  0  0  # atno 10167 bound_to 10162
  157.0862  130.6408  149.5838 H   0  0  0  0  0  0  0  0  0  0  0  0  # atno 10718 bound_to 10713
  153.1455  135.6768  153.8962 H   0  0  0  0  0  0  0  0  0  0  0  0  # atno 10763 bound_to 10752
  153.8405  135.3106  155.3427 H   0  0  0  0  0  0  0  0  0  0  0  0  # atno 10764 bound_to 10752
  154.7821  135.4882  153.9952 H   0  0  0  0  0  0  0  0  0  0  0  0  # atno 10765 bound_to 10752
  140.8648  134.2123  157.4686 H   0  0  0  0  0  0  0  0  0  0  0  0  # atno 11005 bound_to 11000
  144.8203  139.5804  143.6990 LP  0  0  0  0  0  0  0  0  0  0  0  0  # atno 17320 bound_to 7965
  146.2623  139.6439  142.9353 LP  0  0  0  0  0  0  0  0  0  0  0  0  # atno 17321 bound_to 7965
  140.1212  144.5371  150.6861 LP  0  0  0  0  0  0  0  0  0  0  0  0  # atno 17342 bound_to 10162
  140.6976  143.2413  151.4957 LP  0  0  0  0  0  0  0  0  0  0  0  0  # atno 17343 bound_to 10162
  155.9910  130.4963  150.7281 LP  0  0  0  0  0  0  0  0  0  0  0  0  # atno 17370 bound_to 10713
  157.4759  131.0897  151.0591 LP  0  0  0  0  0  0  0  0  0  0  0  0  # atno 17371 bound_to 10713
  139.8709  134.9747  156.4855 LP  0  0  0  0  0  0  0  0  0  0  0  0  # atno 17394 bound_to 11000
  140.8641  133.8038  155.9295 LP  0  0  0  0  0  0  0  0  0  0  0  0  # atno 17395 bound_to 11000

$$$$
