AV-unprocessed.smi:200|AV-procd|sdf|1577|dock1
  -GOLD-   2262019453D 1   1.00000     0.00000
 Structure written by MMmdl.
 56 59  0  0  0  0  0  0  0  0  1 V2000
  148.2907  141.5251  154.2451 C   0  0  0  0  0  0  0  0  0  0  0  0
  148.4391  141.5120  155.6535 O   0  0  0  0  0  0  0  0  0  0  0  0
  149.0846  140.3398  156.1221 C   0  0  0  0  0  0  0  0  0  0  0  0
  150.5846  140.6263  156.2759 C   0  0  0  0  0  0  0  0  0  0  0  0
  150.9744  140.8505  157.6686 N   0  0  0  0  0  0  0  0  0  0  0  0
  151.1501  139.7082  158.3724 C   0  0  0  0  0  0  0  0  0  0  0  0
  150.1627  138.7754  158.4091 N   0  0  0  0  0  0  0  0  0  0  0  0
  150.3376  137.6476  159.1044 C   0  0  0  0  0  0  0  0  0  0  0  0
  151.3971  137.2632  159.8203 N   0  0  0  0  0  0  0  0  0  0  0  0
  152.3858  138.2024  159.7892 C   0  0  0  0  0  0  0  0  0  0  0  0
  152.3410  139.4456  159.0991 C   0  0  0  0  0  0  0  0  0  0  0  0
  153.5211  140.1488  159.3005 N   0  0  0  0  0  0  0  0  0  0  0  0
  154.2267  139.3643  160.0684 C   0  0  0  0  0  0  0  0  0  0  0  0
  153.6273  138.1690  160.4004 N   0  0  0  0  0  0  0  0  0  0  0  0
  154.1946  137.1184  161.2320 C   0  0  0  0  0  0  0  0  0  0  0  0
  154.3881  137.5154  162.7110 C   0  0  0  0  0  0  0  0  0  0  0  0
  155.2684  138.7720  162.8338 C   0  0  0  0  0  0  0  0  0  0  0  0
  155.4100  139.1749  164.1811 O   0  0  0  0  0  0  0  0  0  0  0  0
  153.1136  137.5377  163.5661 C   0  0  0  0  0  0  0  0  0  0  0  0
  153.7151  136.7118  164.5852 O   0  0  0  0  0  0  0  0  0  0  0  0
  154.7760  136.3775  163.6661 C   0  0  0  0  0  0  0  0  0  0  0  0
  151.8662  141.9785  157.9766 C   0  0  1  0  0  0  0  0  0  0  0  0
  151.6233  143.2782  157.1935 C   0  0  0  0  0  0  0  0  0  0  0  0
  152.3506  144.3639  157.9990 C   0  0  0  0  0  0  0  0  0  0  0  0
  152.6236  143.7695  159.3953 C   0  0  1  0  0  0  0  0  0  0  0  0
  152.2736  144.7143  160.5525 C   0  0  0  0  0  0  0  0  0  0  0  0
  151.8572  142.4416  159.4361 C   0  0  0  0  0  0  0  0  0  0  0  0
  147.7881  142.4427  153.9394 H   0  0  0  0  0  0  0  0  0  0  0  0
  147.6899  140.6814  153.9034 H   0  0  0  0  0  0  0  0  0  0  0  0
  149.2603  141.4905  153.7468 H   0  0  0  0  0  0  0  0  0  0  0  0
  148.6700  140.0656  157.0929 H   0  0  0  0  0  0  0  0  0  0  0  0
  148.9054  139.4999  155.4507 H   0  0  0  0  0  0  0  0  0  0  0  0
  151.1462  139.7934  155.8486 H   0  0  0  0  0  0  0  0  0  0  0  0
  150.8494  141.5058  155.6889 H   0  0  0  0  0  0  0  0  0  0  0  0
  149.5108  136.9531  159.0836 H   0  0  0  0  0  0  0  0  0  0  0  0
  155.2160  139.6335  160.4092 H   0  0  0  0  0  0  0  0  0  0  0  0
  153.5508  136.2413  161.1561 H   0  0  0  0  0  0  0  0  0  0  0  0
  155.1445  136.8190  160.7875 H   0  0  0  0  0  0  0  0  0  0  0  0
  156.2660  138.5793  162.4378 H   0  0  0  0  0  0  0  0  0  0  0  0
  154.8705  139.6025  162.2502 H   0  0  0  0  0  0  0  0  0  0  0  0
  155.1772  140.0886  164.2466 H   0  0  0  0  0  0  0  0  0  0  0  0
  152.8399  138.5270  163.9346 H   0  0  0  0  0  0  0  0  0  0  0  0
  152.2582  137.0464  163.0991 H   0  0  0  0  0  0  0  0  0  0  0  0
  154.6412  135.3778  163.2513 H   0  0  0  0  0  0  0  0  0  0  0  0
  155.7673  136.4848  164.1079 H   0  0  0  0  0  0  0  0  0  0  0  0
  152.8819  141.6613  157.7417 H   0  0  0  0  0  0  0  0  0  0  0  0
  151.9746  143.2137  156.1632 H   0  0  0  0  0  0  0  0  0  0  0  0
  150.5649  143.5371  157.1651 H   0  0  0  0  0  0  0  0  0  0  0  0
  153.2908  144.6374  157.5187 H   0  0  0  0  0  0  0  0  0  0  0  0
  151.7422  145.2678  158.0504 H   0  0  0  0  0  0  0  0  0  0  0  0
  153.6881  143.5373  159.4533 H   0  0  0  0  0  0  0  0  0  0  0  0
  151.2165  144.9815  160.5412 H   0  0  0  0  0  0  0  0  0  0  0  0
  152.8515  145.6366  160.4920 H   0  0  0  0  0  0  0  0  0  0  0  0
  152.4899  144.2493  161.5146 H   0  0  0  0  0  0  0  0  0  0  0  0
  150.8367  142.6128  159.7792 H   0  0  0  0  0  0  0  0  0  0  0  0
  152.3198  141.7207  160.1105 H   0  0  0  0  0  0  0  0  0  0  0  0
  1  2  1  0  0  0  0
  1 28  1  0  0  0  0
  1 29  1  0  0  0  0
  1 30  1  0  0  0  0
  2  3  1  0  0  0  0
  3  4  1  0  0  0  0
  3 31  1  0  0  0  0
  3 32  1  0  0  0  0
  4  5  1  0  0  0  0
  4 33  1  0  0  0  0
  4 34  1  0  0  0  0
  5  6  1  0  0  0  0
  5 22  1  0  0  0  0
  6 11  1  0  0  0  0
  6  7  2  0  0  0  0
  7  8  1  0  0  0  0
  8  9  2  0  0  0  0
  8 35  1  0  0  0  0
  9 10  1  0  0  0  0
 10 14  1  0  0  0  0
 10 11  2  0  0  0  0
 11 12  1  0  0  0  0
 12 13  2  0  0  0  0
 13 14  1  0  0  0  0
 13 36  1  0  0  0  0
 14 15  1  0  0  0  0
 15 16  1  0  0  0  0
 15 37  1  0  0  0  0
 15 38  1  0  0  0  0
 16 21  1  0  0  0  0
 16 17  1  0  0  0  0
 16 19  1  0  0  0  0
 17 18  1  0  0  0  0
 17 39  1  0  0  0  0
 17 40  1  0  0  0  0
 18 41  1  0  0  0  0
 19 20  1  0  0  0  0
 19 42  1  0  0  0  0
 19 43  1  0  0  0  0
 20 21  1  0  0  0  0
 21 44  1  0  0  0  0
 21 45  1  0  0  0  0
 22 27  1  0  0  0  0
 22 23  1  0  0  0  0
 22 46  1  0  0  0  0
 23 24  1  0  0  0  0
 23 47  1  0  0  0  0
 23 48  1  0  0  0  0
 24 25  1  0  0  0  0
 24 49  1  0  0  0  0
 24 50  1  0  0  0  0
 25 26  1  0  0  0  0
 25 27  1  0  0  0  0
 25 51  1  0  0  0  0
 26 52  1  0  0  0  0
 26 53  1  0  0  0  0
 26 54  1  0  0  0  0
 27 55  1  0  0  0  0
 27 56  1  0  0  0  0
M  END
> <s_m_source_file>
AV-unprocessed.smi

> <i_m_source_file_index>
200

> <i_lp_mmshare_version>
43012

> <i_f3d_flags>
0

> <s_epik_input>
W0NIM11bQ0BASF0oW0NIMl0xKVtDSDJdW0NIMl1bQ0BIXTFOKFtDSDJdW0NIMl1PW0NIM10pYyhuW2NIXW4yKWMoYzIzKW5bY0hdbjNbQ0gyXUM0KFtDSDJdW09IXSlbQ0gyXU9bQ0gyXTQ=

> <s_epik_cmdline>
J2VwaWtfcHl0aG9uJywgJy1waCcsICc3LjAnLCAnLXRuJywgJzgnLCAnLW1hJywgJzIwMCcsICctbWV0YWxfYmluZGluZycsICctaW1hZScsICc8aW5maWxlLm1hZT4nLCAnLW9tYWUnLCAnPG91dGZpbGUubWFlPic=

> <r_lp_tautomer_probability>
1

> <r_epik_Ionization_Penalty>
0.00363087

> <r_epik_Ionization_Penalty_Charging>
0

> <r_epik_Ionization_Penalty_Neutral>
0.00363087

> <r_epik_State_Penalty>
0.0024341

> <r_epik_Charging_Adjusted_Penalty>
0.0024341

> <i_epik_Tot_Q>
0

> <i_epik_Tot_abs_Q>
0

> <r_epik_Metal_State_Penalty>
-0

> <b_epik_Metal_Only>
0

> <s_lp_Force_Field>
OPLS_2005

> <r_lp_Energy>
50.9431

> <b_lp_Chiralities_Consistent>
1

> <s_lp_Variant>
AV-unprocessed.smi:200-2

> <Gold.Version>
5.8.1

> <Gold.Id.Protein>
6NUR|6NUR_protein|mol2

> <Gold.PLP.Fitness>
48.6771

> <Gold.PLP.PLP>
-46.2246

> <Gold.PLP.part.hbond>
-1.5566

> <Gold.PLP.part.metal>
0.0000

> <Gold.PLP.part.buried>
-7.7253

> <Gold.PLP.part.nonpolar>
-36.0945

> <Gold.PLP.part.repulsive>
0.1913

> <Gold.PLP.ligand.clash>
0.0000

> <Gold.PLP.ligand.torsion>
1.6699

> <Gold.PLP.Chemscore.Hbond>
1.3854

> <Gold.PLP.Chemscore.CHOScore>
0.0000

> <Gold.PLP.Chemscore.Metal>
0.0000

> <Gold.Chemscore.Hbonds>
donor molecule, donor type, donor heavy atom, donor atom, acceptor molecule, acceptor atom, score
      P1  H  6896  6908       L1     9  0.83

> <Gold.PLP.Chemscore.Internal.Correction>
1.6361

> <Gold.Rescore>
     Score         DG    S(hbond)    S(metal)    S(lipo)     H(rot)  DE(clash)    DE(int)     intcor
      9.15     -14.67       0.95        0.00     123.08       3.28       0.17       5.34       ----

> <Gold.Chemscore.Fitness>
9.1533

> <Gold.Chemscore.DG>
-14.6659

> <Gold.Chemscore.ZeroCoef>
-5.4800

> <Gold.Chemscore.Hbond>
0.9500

> <Gold.Chemscore.Metal>
0.0000

> <Gold.Chemscore.Lipo>
123.0755

> <Gold.Chemscore.Internal_Hbond>
0.0000

> <Gold.Chemscore.DEClash>
0.1746

> <Gold.Chemscore.DEInternal>
5.3379

> <Gold.Chemscore.Rot>
3.2761

> <Gold.Chemscore.Internal.Correction>
   9.000000E+99

> <Gold.Chemscore.Hbonds>
donor molecule, donor type, donor heavy atom, donor atom, acceptor molecule, acceptor atom, score
      P1  H  6896  6908       L1     9  0.65
      P1  H  7997  8009       L1    12  0.01

> <Gold.Chemscore.Hbond.Weighted>
-3.1729

> <Gold.Chemscore.Metal.Weighted>
-0.0000

> <Gold.Chemscore.Lipo.Weighted>
-14.3998

> <Gold.Chemscore.Internal_Hbond.Weighted>
0.0000

> <Gold.Chemscore.DEClash.Weighted>
0.1746

> <Gold.Chemscore.DEInternal.Weighted>
5.3379

> <Gold.Chemscore.Rot.Weighted>
8.3868

> <Gold.Chemscore.Internal.Correction.Weighted>
   9.000000E+99

> <Gold.Protein.RotatedTorsions>
[ 6907 6896 6895 6894 ] final -124.53 input  -60.11 | X-H torsion
[ 7974 7965 7964 7962 ] final   53.62 input  175.53 | X-H torsion
[ 8008 7997 7996 7995 ] final  140.20 input   59.86 | X-H torsion
[ 10167 10162 10161 10158 ] final  -92.33 input  -65.29 | X-H torsion
[ 10718 10713 10712 10709 ] final  151.76 input   66.30 | X-H torsion
[ 10763 10752 10751 10750 ] final   49.19 input  -60.55 | X-H torsion
[ 11005 11000 10999 10996 ] final  -64.66 input  -57.11 | X-H torsion

> <Gold.Protein.ActiveResidues>
 VAL166  LYS551  ARG553  GLY616  TRP617  ASP618  TYR619  PRO620  LYS621  CYS622 
 ASP623  PHE694  ASN695  SER759  ASP760  ASP761  ALA762  ILE779  LEU786  VAL792 
 PHE793  MET794  SER795  GLU796  ALA797  LYS798  CYS799  TRP800  GLU811  SER814 

> <Gold.Protein.RotatedAtoms>
  150.8777  133.7415  159.2941 H   0  0  0  0  0  0  0  0  0  0  0  0  # atno 6907 bound_to 6896
  151.5007  135.1060  159.9837 H   0  0  0  0  0  0  0  0  0  0  0  0  # atno 6908 bound_to 6896
  152.4739  133.8047  159.7027 H   0  0  0  0  0  0  0  0  0  0  0  0  # atno 6909 bound_to 6896
  145.9693  139.4133  143.0200 H   0  0  0  0  0  0  0  0  0  0  0  0  # atno 7974 bound_to 7965
  156.2982  140.2347  156.4363 H   0  0  0  0  0  0  0  0  0  0  0  0  # atno 8008 bound_to 7997
  154.8226  140.0437  157.1441 H   0  0  0  0  0  0  0  0  0  0  0  0  # atno 8009 bound_to 7997
  154.9298  140.3015  155.5177 H   0  0  0  0  0  0  0  0  0  0  0  0  # atno 8010 bound_to 7997
  140.3359  143.2969  151.9890 H   0  0  0  0  0  0  0  0  0  0  0  0  # atno 10167 bound_to 10162
  157.2666  131.0808  151.1629 H   0  0  0  0  0  0  0  0  0  0  0  0  # atno 10718 bound_to 10713
  152.9788  135.5920  154.4049 H   0  0  0  0  0  0  0  0  0  0  0  0  # atno 10763 bound_to 10752
  154.3690  135.2767  155.2279 H   0  0  0  0  0  0  0  0  0  0  0  0  # atno 10764 bound_to 10752
  154.4242  135.6051  153.6083 H   0  0  0  0  0  0  0  0  0  0  0  0  # atno 10765 bound_to 10752
  141.1431  133.6669  156.5868 H   0  0  0  0  0  0  0  0  0  0  0  0  # atno 11005 bound_to 11000
  145.7929  140.9806  143.1039 LP  0  0  0  0  0  0  0  0  0  0  0  0  # atno 17320 bound_to 7965
  144.6833  139.9705  143.7482 LP  0  0  0  0  0  0  0  0  0  0  0  0  # atno 17321 bound_to 7965
  139.4848  144.6197  151.7279 LP  0  0  0  0  0  0  0  0  0  0  0  0  # atno 17342 bound_to 10162
  140.5354  144.0664  150.6068 LP  0  0  0  0  0  0  0  0  0  0  0  0  # atno 17343 bound_to 10162
  157.3117  130.6893  149.6219 LP  0  0  0  0  0  0  0  0  0  0  0  0  # atno 17370 bound_to 10713
  155.9663  130.4361  150.5121 LP  0  0  0  0  0  0  0  0  0  0  0  0  # atno 17371 bound_to 10713
  140.3794  134.7536  157.4651 LP  0  0  0  0  0  0  0  0  0  0  0  0  # atno 17394 bound_to 11000
  140.0649  134.5944  155.8707 LP  0  0  0  0  0  0  0  0  0  0  0  0  # atno 17395 bound_to 11000

$$$$
