AV-unprocessed.smi:91|AV-procd|sdf|836|dock6
  -GOLD-   2262017263D 1   1.00000     0.00000
 Structure written by MMmdl.
 60 63  0  0  0  0  0  0  0  0  1 V2000
  152.5545  144.0110  160.8607 C   0  0  0  0  0  0  0  0  0  0  0  0
  152.6341  142.7916  161.5775 O   0  0  0  0  0  0  0  0  0  0  0  0
  153.8377  142.0869  161.3200 C   0  0  0  0  0  0  0  0  0  0  0  0
  153.5141  140.7775  160.5890 C   0  0  1  0  0  0  0  0  0  0  0  0
  153.1688  141.0108  159.1081 C   0  0  0  0  0  0  0  0  0  0  0  0
  153.0180  139.7341  158.4177 N   0  0  0  0  0  0  0  0  0  0  0  0
  152.3524  139.7698  157.2334 C   0  0  0  0  0  0  0  0  0  0  0  0
  152.7570  138.9008  156.2698 N   0  0  0  0  0  0  0  0  0  0  0  0
  152.1556  138.8761  155.0777 C   0  0  0  0  0  0  0  0  0  0  0  0
  151.1396  139.6210  154.6416 N   0  0  0  0  0  0  0  0  0  0  0  0
  150.7237  140.4962  155.6002 C   0  0  0  0  0  0  0  0  0  0  0  0
  151.2676  140.6420  156.9099 C   0  0  0  0  0  0  0  0  0  0  0  0
  150.5680  141.6340  157.5911 N   0  0  0  0  0  0  0  0  0  0  0  0
  149.6739  142.0503  156.7374 C   0  0  0  0  0  0  0  0  0  0  0  0
  149.6915  141.4129  155.5192 N   0  0  0  0  0  0  0  0  0  0  0  0
  148.8072  141.6600  154.3941 C   0  0  0  0  0  0  0  0  0  0  0  0
  147.3870  141.0742  154.5939 C   0  0  1  0  0  0  0  0  0  0  0  0
  146.2669  142.0942  154.2742 C   0  0  0  0  0  0  0  0  0  0  0  0
  146.4707  143.3157  154.9549 O   0  0  0  0  0  0  0  0  0  0  0  0
  147.2105  139.7419  153.8229 C   0  0  2  0  0  0  0  0  0  0  0  0
  146.8712  139.8918  152.3502 C   0  0  0  0  0  0  0  0  0  0  0  0
  146.3139  138.5150  152.0066 C   0  0  0  0  0  0  0  0  0  0  0  0
  145.6796  138.0500  153.1928 O   0  0  0  0  0  0  0  0  0  0  0  0
  146.0294  138.8856  154.2918 C   0  0  0  0  0  0  0  0  0  0  0  0
  154.1729  138.8561  158.5617 C   0  0  0  0  0  0  0  0  0  0  0  0
  154.5392  138.6509  160.0482 C   0  0  0  0  0  0  0  0  0  0  0  0
  153.5144  137.7548  160.7758 C   0  0  0  0  0  0  0  0  0  0  0  0
  155.9321  138.0109  160.1542 C   0  0  0  0  0  0  0  0  0  0  0  0
  154.6571  139.9270  160.6869 O   0  0  0  0  0  0  0  0  0  0  0  0
  151.6163  144.5135  161.0959 H   0  0  0  0  0  0  0  0  0  0  0  0
  152.5828  143.8377  159.7841 H   0  0  0  0  0  0  0  0  0  0  0  0
  153.3719  144.6813  161.1294 H   0  0  0  0  0  0  0  0  0  0  0  0
  154.5242  142.6951  160.7286 H   0  0  0  0  0  0  0  0  0  0  0  0
  154.3320  141.8649  162.2671 H   0  0  0  0  0  0  0  0  0  0  0  0
  152.6710  140.3090  161.0967 H   0  0  0  0  0  0  0  0  0  0  0  0
  152.2639  141.6151  159.0413 H   0  0  0  0  0  0  0  0  0  0  0  0
  153.9636  141.5772  158.6211 H   0  0  0  0  0  0  0  0  0  0  0  0
  152.5431  138.1548  154.3737 H   0  0  0  0  0  0  0  0  0  0  0  0
  148.9651  142.8293  156.9783 H   0  0  0  0  0  0  0  0  0  0  0  0
  148.7513  142.7368  154.2298 H   0  0  0  0  0  0  0  0  0  0  0  0
  149.2767  141.2372  153.5056 H   0  0  0  0  0  0  0  0  0  0  0  0
  147.2893  140.8426  155.6557 H   0  0  0  0  0  0  0  0  0  0  0  0
  146.2168  142.2940  153.2042 H   0  0  0  0  0  0  0  0  0  0  0  0
  145.2881  141.6998  154.5474 H   0  0  0  0  0  0  0  0  0  0  0  0
  147.4005  143.4712  155.0206 H   0  0  0  0  0  0  0  0  0  0  0  0
  148.1216  139.1471  153.9074 H   0  0  0  0  0  0  0  0  0  0  0  0
  146.1017  140.6528  152.2109 H   0  0  0  0  0  0  0  0  0  0  0  0
  147.7306  140.1568  151.7340 H   0  0  0  0  0  0  0  0  0  0  0  0
  145.6202  138.5431  151.1661 H   0  0  0  0  0  0  0  0  0  0  0  0
  147.1239  137.8293  151.7552 H   0  0  0  0  0  0  0  0  0  0  0  0
  146.2689  138.2907  155.1734 H   0  0  0  0  0  0  0  0  0  0  0  0
  145.1685  139.5112  154.5318 H   0  0  0  0  0  0  0  0  0  0  0  0
  153.9750  137.8888  158.0983 H   0  0  0  0  0  0  0  0  0  0  0  0
  155.0146  139.3053  158.0326 H   0  0  0  0  0  0  0  0  0  0  0  0
  153.5222  136.7438  160.3669 H   0  0  0  0  0  0  0  0  0  0  0  0
  152.4941  138.1246  160.6798 H   0  0  0  0  0  0  0  0  0  0  0  0
  153.7417  137.6815  161.8396 H   0  0  0  0  0  0  0  0  0  0  0  0
  155.9561  137.0307  159.6770 H   0  0  0  0  0  0  0  0  0  0  0  0
  156.2282  137.8808  161.1956 H   0  0  0  0  0  0  0  0  0  0  0  0
  156.6895  138.6311  159.6736 H   0  0  0  0  0  0  0  0  0  0  0  0
  1  2  1  0  0  0  0
  1 30  1  0  0  0  0
  1 31  1  0  0  0  0
  1 32  1  0  0  0  0
  2  3  1  0  0  0  0
  3  4  1  0  0  0  0
  3 33  1  0  0  0  0
  3 34  1  0  0  0  0
  4 29  1  0  0  0  0
  4  5  1  0  0  0  0
  4 35  1  0  0  0  0
  5  6  1  0  0  0  0
  5 36  1  0  0  0  0
  5 37  1  0  0  0  0
  6  7  1  0  0  0  0
  6 25  1  0  0  0  0
  7 12  1  0  0  0  0
  7  8  2  0  0  0  0
  8  9  1  0  0  0  0
  9 10  2  0  0  0  0
  9 38  1  0  0  0  0
 10 11  1  0  0  0  0
 11 15  1  0  0  0  0
 11 12  2  0  0  0  0
 12 13  1  0  0  0  0
 13 14  2  0  0  0  0
 14 15  1  0  0  0  0
 14 39  1  0  0  0  0
 15 16  1  0  0  0  0
 16 17  1  0  0  0  0
 16 40  1  0  0  0  0
 16 41  1  0  0  0  0
 17 18  1  0  0  0  0
 17 20  1  0  0  0  0
 17 42  1  0  0  0  0
 18 19  1  0  0  0  0
 18 43  1  0  0  0  0
 18 44  1  0  0  0  0
 19 45  1  0  0  0  0
 20 24  1  0  0  0  0
 20 21  1  0  0  0  0
 20 46  1  0  0  0  0
 21 22  1  0  0  0  0
 21 47  1  0  0  0  0
 21 48  1  0  0  0  0
 22 23  1  0  0  0  0
 22 49  1  0  0  0  0
 22 50  1  0  0  0  0
 23 24  1  0  0  0  0
 24 51  1  0  0  0  0
 24 52  1  0  0  0  0
 25 26  1  0  0  0  0
 25 53  1  0  0  0  0
 25 54  1  0  0  0  0
 26 27  1  0  0  0  0
 26 28  1  0  0  0  0
 26 29  1  0  0  0  0
 27 55  1  0  0  0  0
 27 56  1  0  0  0  0
 27 57  1  0  0  0  0
 28 58  1  0  0  0  0
 28 59  1  0  0  0  0
 28 60  1  0  0  0  0
M  END
> <s_m_source_file>
AV-unprocessed.smi

> <i_m_source_file_index>
91

> <i_lp_mmshare_version>
43012

> <i_f3d_flags>
0

> <s_epik_input>
W0NIM11PW0NIMl1bQ0BASF0oTzEpW0NIMl1OKFtDSDJdQzEoW0NIM10pW0NIM10pYyhuW2NIXW4yKWMoYzIzKW5bY0hdbjNbQ0gyXVtDQEhdKFtDSDJdW09IXSlbQ0BASF00W0NIMl1bQ0gyXU9bQ0gyXTQ=

> <s_epik_cmdline>
J2VwaWtfcHl0aG9uJywgJy1waCcsICc3LjAnLCAnLXRuJywgJzgnLCAnLW1hJywgJzIwMCcsICctbWV0YWxfYmluZGluZycsICctaW1hZScsICc8aW5maWxlLm1hZT4nLCAnLW9tYWUnLCAnPG91dGZpbGUubWFlPic=

> <r_lp_tautomer_probability>
1

> <r_epik_Ionization_Penalty>
8.63591e-05

> <r_epik_Ionization_Penalty_Charging>
0

> <r_epik_Ionization_Penalty_Neutral>
8.63591e-05

> <r_epik_State_Penalty>
-0

> <r_epik_Charging_Adjusted_Penalty>
0

> <i_epik_Tot_Q>
0

> <i_epik_Tot_abs_Q>
0

> <r_epik_Metal_State_Penalty>
-0

> <b_epik_Metal_Only>
0

> <s_lp_Force_Field>
OPLS_2005

> <r_lp_Energy>
46.7978

> <b_lp_Chiralities_Consistent>
1

> <s_lp_Variant>
AV-unprocessed.smi:91-4

> <Gold.Version>
5.8.1

> <Gold.Id.Protein>
6NUR|6NUR_protein|mol2

> <Gold.PLP.Fitness>
52.9341

> <Gold.PLP.PLP>
-46.8887

> <Gold.PLP.part.hbond>
-3.7062

> <Gold.PLP.part.metal>
0.0000

> <Gold.PLP.part.buried>
2.4615

> <Gold.PLP.part.nonpolar>
-45.9664

> <Gold.PLP.part.repulsive>
0.4878

> <Gold.PLP.ligand.clash>
0.0000

> <Gold.PLP.ligand.torsion>
1.9935

> <Gold.PLP.Chemscore.Hbond>
2.4680

> <Gold.PLP.Chemscore.CHOScore>
0.6862

> <Gold.PLP.Chemscore.Metal>
0.0000

> <Gold.Chemscore.Hbonds>
donor molecule, donor type, donor heavy atom, donor atom, acceptor molecule, acceptor atom, score
      L1  H    19    45       P1  8028  0.68
      P1  H  7989  7998       L1    10  0.80
      P1  H  7997  8010       L1     8  0.22
      L1  C    14    39       P1  8028  0.80

> <Gold.PLP.Chemscore.Internal.Correction>
0.5700

> <Gold.Rescore>
     Score         DG    S(hbond)    S(metal)    S(lipo)     H(rot)  DE(clash)    DE(int)     intcor
      9.17     -13.24       0.48        0.00     118.87       3.03       2.38       1.69       ----

> <Gold.Chemscore.Fitness>
9.1676

> <Gold.Chemscore.DG>
-13.2395

> <Gold.Chemscore.ZeroCoef>
-5.4800

> <Gold.Chemscore.Hbond>
0.4804

> <Gold.Chemscore.Metal>
0.0000

> <Gold.Chemscore.Lipo>
118.8698

> <Gold.Chemscore.Internal_Hbond>
0.0000

> <Gold.Chemscore.DEClash>
2.3800

> <Gold.Chemscore.DEInternal>
1.6919

> <Gold.Chemscore.Rot>
3.0284

> <Gold.Chemscore.Internal.Correction>
   9.000000E+99

> <Gold.Chemscore.Hbonds>
donor molecule, donor type, donor heavy atom, donor atom, acceptor molecule, acceptor atom, score
      L1  H    19    45       P1  8028  0.08
      P1  H  7989  7998       L1    10  0.10

> <Gold.Chemscore.Hbond.Weighted>
-1.6045

> <Gold.Chemscore.Metal.Weighted>
-0.0000

> <Gold.Chemscore.Lipo.Weighted>
-13.9078

> <Gold.Chemscore.Internal_Hbond.Weighted>
0.0000

> <Gold.Chemscore.DEClash.Weighted>
2.3800

> <Gold.Chemscore.DEInternal.Weighted>
1.6919

> <Gold.Chemscore.Rot.Weighted>
7.7528

> <Gold.Chemscore.Internal.Correction.Weighted>
   9.000000E+99

> <Gold.Protein.RotatedTorsions>
[ 6907 6896 6895 6894 ] final -152.27 input  -60.11 | X-H torsion
[ 7974 7965 7964 7962 ] final  127.35 input  175.53 | X-H torsion
[ 8008 7997 7996 7995 ] final   94.78 input   59.86 | X-H torsion
[ 10167 10162 10161 10158 ] final -141.16 input  -65.29 | X-H torsion
[ 10718 10713 10712 10709 ] final  103.87 input   66.30 | X-H torsion
[ 10763 10752 10751 10750 ] final  -58.28 input  -60.55 | X-H torsion
[ 11005 11000 10999 10996 ] final   95.11 input  -57.11 | X-H torsion

> <Gold.Protein.ActiveResidues>
 VAL166  LYS551  ARG553  GLY616  TRP617  ASP618  TYR619  PRO620  LYS621  CYS622 
 ASP623  PHE694  ASN695  SER759  ASP760  ASP761  ALA762  ILE779  LEU786  VAL792 
 PHE793  MET794  SER795  GLU796  ALA797  LYS798  CYS799  TRP800  GLU811  SER814 

> <Gold.Protein.RotatedAtoms>
  151.2253  133.4480  159.2601 H   0  0  0  0  0  0  0  0  0  0  0  0  # atno 6907 bound_to 6896
  151.0846  134.9879  159.8383 H   0  0  0  0  0  0  0  0  0  0  0  0  # atno 6908 bound_to 6896
  152.5428  134.2190  159.8833 H   0  0  0  0  0  0  0  0  0  0  0  0  # atno 6909 bound_to 6896
  145.0515  139.3879  143.5051 H   0  0  0  0  0  0  0  0  0  0  0  0  # atno 7974 bound_to 7965
  156.0617  140.3295  155.7470 H   0  0  0  0  0  0  0  0  0  0  0  0  # atno 8008 bound_to 7997
  155.5444  140.0604  157.2881 H   0  0  0  0  0  0  0  0  0  0  0  0  # atno 8009 bound_to 7997
  154.4485  140.1905  156.0611 H   0  0  0  0  0  0  0  0  0  0  0  0  # atno 8010 bound_to 7997
  139.8211  143.7572  152.2666 H   0  0  0  0  0  0  0  0  0  0  0  0  # atno 10167 bound_to 10162
  157.6758  131.0790  150.5621 H   0  0  0  0  0  0  0  0  0  0  0  0  # atno 10718 bound_to 10713
  154.2357  135.6352  153.5190 H   0  0  0  0  0  0  0  0  0  0  0  0  # atno 10763 bound_to 10752
  152.9940  135.5530  154.5964 H   0  0  0  0  0  0  0  0  0  0  0  0  # atno 10764 bound_to 10752
  154.5458  135.2898  155.1028 H   0  0  0  0  0  0  0  0  0  0  0  0  # atno 10765 bound_to 10752
  139.8792  134.8881  156.3963 H   0  0  0  0  0  0  0  0  0  0  0  0  # atno 11005 bound_to 11000
  146.3518  140.0167  142.8662 LP  0  0  0  0  0  0  0  0  0  0  0  0  # atno 17320 bound_to 7965
  145.1521  140.9628  143.4426 LP  0  0  0  0  0  0  0  0  0  0  0  0  # atno 17321 bound_to 7965
  139.7751  144.7463  151.0168 LP  0  0  0  0  0  0  0  0  0  0  0  0  # atno 17342 bound_to 10162
  140.7813  143.4603  151.0288 LP  0  0  0  0  0  0  0  0  0  0  0  0  # atno 17343 bound_to 10162
  156.5924  130.4332  149.5931 LP  0  0  0  0  0  0  0  0  0  0  0  0  # atno 17370 bound_to 10713
  156.2573  130.6942  151.1699 LP  0  0  0  0  0  0  0  0  0  0  0  0  # atno 17371 bound_to 10713
  140.9298  133.7587  156.0010 LP  0  0  0  0  0  0  0  0  0  0  0  0  # atno 17394 bound_to 11000
  140.8344  134.3140  157.5337 LP  0  0  0  0  0  0  0  0  0  0  0  0  # atno 17395 bound_to 11000

$$$$
