AV-unprocessed.smi:648|AV-procd|sdf|3174|dock1
  -GOLD-   22720 0 93D 1   1.00000     0.00000
 Structure written by MMmdl.
 45 46  0  0  0  0  0  0  0  0  1 V2000
  148.1525  138.2443  157.8556 C   0  0  0  0  0  0  0  0  0  0  0  0
  148.8107  138.9974  156.6903 C   0  0  2  0  0  0  0  0  0  0  0  0
  147.8452  139.1301  155.4993 C   0  0  0  0  0  0  0  0  0  0  0  0
  148.4511  139.8912  154.2980 C   0  0  0  0  0  0  0  0  0  0  0  0
  147.5013  139.7372  153.0924 C   0  0  0  0  0  0  0  0  0  0  0  0
  148.5531  141.4035  154.6017 C   0  0  0  0  0  0  0  0  0  0  0  0
  149.8300  139.2807  153.9161 C   0  0  0  0  0  0  0  0  0  0  0  0
  150.8346  139.0317  155.0793 C   0  0  1  0  0  0  0  0  0  0  0  0
  151.9699  138.0978  154.5758 C   0  0  0  0  0  0  0  0  0  0  0  0
  151.4774  136.8453  154.1392 O   0  0  0  0  0  0  0  0  0  0  0  0
  151.4160  140.3193  155.5135 N   0  0  0  0  0  0  0  0  0  0  0  0
  151.9124  140.4407  156.8867 C   0  0  0  0  0  0  0  0  0  0  0  0
  151.3754  141.7213  157.5377 C   0  0  0  0  0  0  0  0  0  0  0  0
  152.1887  142.1255  158.6666 N   0  0  0  0  0  0  0  0  0  0  0  0
  152.1974  143.2596  159.3687 C   0  0  0  0  0  0  0  0  0  0  0  0
  153.0880  143.2734  160.3512 N   0  0  0  0  0  0  0  0  0  0  0  0
  153.6307  142.0302  160.1844 C   0  0  0  0  0  0  0  0  0  0  0  0
  153.1263  141.3010  159.1889 N   0  0  0  0  0  0  0  0  0  0  0  0
  150.1085  138.3035  156.2420 C   0  0  0  0  0  0  0  0  0  0  0  0
  147.8735  137.2306  157.5667 H   0  0  0  0  0  0  0  0  0  0  0  0
  147.2501  138.7548  158.1927 H   0  0  0  0  0  0  0  0  0  0  0  0
  148.8280  138.1732  158.7085 H   0  0  0  0  0  0  0  0  0  0  0  0
  149.0604  139.9923  157.0584 H   0  0  0  0  0  0  0  0  0  0  0  0
  147.5513  138.1288  155.1804 H   0  0  0  0  0  0  0  0  0  0  0  0
  146.9260  139.6213  155.8216 H   0  0  0  0  0  0  0  0  0  0  0  0
  147.8855  140.2583  152.2148 H   0  0  0  0  0  0  0  0  0  0  0  0
  146.5131  140.1444  153.3093 H   0  0  0  0  0  0  0  0  0  0  0  0
  147.3665  138.6907  152.8162 H   0  0  0  0  0  0  0  0  0  0  0  0
  148.9983  141.9449  153.7663 H   0  0  0  0  0  0  0  0  0  0  0  0
  149.1511  141.6222  155.4840 H   0  0  0  0  0  0  0  0  0  0  0  0
  147.5677  141.8352  154.7795 H   0  0  0  0  0  0  0  0  0  0  0  0
  149.6388  138.3169  153.4413 H   0  0  0  0  0  0  0  0  0  0  0  0
  150.2951  139.8904  153.1398 H   0  0  0  0  0  0  0  0  0  0  0  0
  152.5480  138.5546  153.7731 H   0  0  0  0  0  0  0  0  0  0  0  0
  152.6822  137.9048  155.3790 H   0  0  0  0  0  0  0  0  0  0  0  0
  151.3591  136.8793  153.2023 H   0  0  0  0  0  0  0  0  0  0  0  0
  152.1560  140.5787  154.8684 H   0  0  0  0  0  0  0  0  0  0  0  0
  151.6020  139.5864  157.4870 H   0  0  0  0  0  0  0  0  0  0  0  0
  153.0012  140.4690  156.9036 H   0  0  0  0  0  0  0  0  0  0  0  0
  151.3501  142.5387  156.8154 H   0  0  0  0  0  0  0  0  0  0  0  0
  150.3520  141.5708  157.8848 H   0  0  0  0  0  0  0  0  0  0  0  0
  151.5387  144.0895  159.1589 H   0  0  0  0  0  0  0  0  0  0  0  0
  154.4209  141.6513  160.8156 H   0  0  0  0  0  0  0  0  0  0  0  0
  150.7722  138.1551  157.0932 H   0  0  0  0  0  0  0  0  0  0  0  0
  149.8490  137.2954  155.9147 H   0  0  0  0  0  0  0  0  0  0  0  0
  1  2  1  0  0  0  0
  1 20  1  0  0  0  0
  1 21  1  0  0  0  0
  1 22  1  0  0  0  0
  2 19  1  0  0  0  0
  2  3  1  0  0  0  0
  2 23  1  0  0  0  0
  3  4  1  0  0  0  0
  3 24  1  0  0  0  0
  3 25  1  0  0  0  0
  4  5  1  0  0  0  0
  4  6  1  0  0  0  0
  4  7  1  0  0  0  0
  5 26  1  0  0  0  0
  5 27  1  0  0  0  0
  5 28  1  0  0  0  0
  6 29  1  0  0  0  0
  6 30  1  0  0  0  0
  6 31  1  0  0  0  0
  7  8  1  0  0  0  0
  7 32  1  0  0  0  0
  7 33  1  0  0  0  0
  8  9  1  0  0  0  0
  8 11  1  0  0  0  0
  8 19  1  0  0  0  0
  9 10  1  0  0  0  0
  9 34  1  0  0  0  0
  9 35  1  0  0  0  0
 10 36  1  0  0  0  0
 11 12  1  0  0  0  0
 11 37  1  0  0  0  0
 12 13  1  0  0  0  0
 12 38  1  0  0  0  0
 12 39  1  0  0  0  0
 13 14  1  0  0  0  0
 13 40  1  0  0  0  0
 13 41  1  0  0  0  0
 14 18  1  0  0  0  0
 14 15  1  0  0  0  0
 15 16  2  0  0  0  0
 15 42  1  0  0  0  0
 16 17  1  0  0  0  0
 17 18  2  0  0  0  0
 17 43  1  0  0  0  0
 19 44  1  0  0  0  0
 19 45  1  0  0  0  0
M  END
> <s_m_source_file>
AV-unprocessed.smi

> <i_m_source_file_index>
648

> <i_lp_mmshare_version>
43012

> <i_f3d_flags>
0

> <s_epik_input>
W0NIM11DMShbQ0gzXSlbQ0gyXVtDQEBIXShbQ0gzXSlbQ0gyXVtDQF0oW0NIMl0xKShbQ0gyXVtPSF0pW05IXVtDSDJdW0NIMl1uMltjSF1uW2NIXW4y

> <s_epik_cmdline>
J2VwaWtfcHl0aG9uJywgJy1waCcsICc3LjAnLCAnLXRuJywgJzgnLCAnLW1hJywgJzIwMCcsICctbWV0YWxfYmluZGluZycsICctaW1hZScsICc8aW5maWxlLm1hZT4nLCAnLW9tYWUnLCAnPG91dGZpbGUubWFlPic=

> <r_lp_tautomer_probability>
1

> <r_epik_Ionization_Penalty>
2.45849

> <r_epik_Ionization_Penalty_Charging>
0

> <r_epik_Ionization_Penalty_Neutral>
2.45849

> <r_epik_State_Penalty>
2.62037

> <r_epik_Charging_Adjusted_Penalty>
2.62037

> <i_epik_Tot_Q>
0

> <i_epik_Tot_abs_Q>
0

> <r_epik_Metal_State_Penalty>
2.62024

> <b_epik_Metal_Only>
0

> <s_lp_Force_Field>
OPLS_2005

> <r_lp_Energy>
32.3104

> <b_lp_Chiralities_Consistent>
1

> <s_lp_Variant>
AV-unprocessed.smi:648-5

> <Gold.Version>
5.8.1

> <Gold.Id.Protein>
6NUR|6NUR_protein|mol2

> <Gold.PLP.Fitness>
36.6278

> <Gold.PLP.PLP>
-32.6666

> <Gold.PLP.part.hbond>
-2.9603

> <Gold.PLP.part.metal>
0.0000

> <Gold.PLP.part.buried>
-2.9907

> <Gold.PLP.part.nonpolar>
-27.2803

> <Gold.PLP.part.repulsive>
0.0000

> <Gold.PLP.ligand.clash>
0.0000

> <Gold.PLP.ligand.torsion>
1.0183

> <Gold.PLP.Chemscore.Hbond>
1.9920

> <Gold.PLP.Chemscore.CHOScore>
0.0000

> <Gold.PLP.Chemscore.Metal>
0.0000

> <Gold.Chemscore.Hbonds>
donor molecule, donor type, donor heavy atom, donor atom, acceptor molecule, acceptor atom, score
      L1  H    10    36       P1  7949  1.00
      P1  H 10752 10765       L1    10  1.00

> <Gold.PLP.Chemscore.Internal.Correction>
0.0219

> <Gold.Rescore>
     Score         DG    S(hbond)    S(metal)    S(lipo)     H(rot)  DE(clash)    DE(int)     intcor
      8.44     -10.04       1.64        0.00      60.39       3.12       0.68       0.93       ----

> <Gold.Chemscore.Fitness>
8.4412

> <Gold.Chemscore.DG>
-10.0418

> <Gold.Chemscore.ZeroCoef>
-5.4800

> <Gold.Chemscore.Hbond>
1.6405

> <Gold.Chemscore.Metal>
0.0000

> <Gold.Chemscore.Lipo>
60.3892

> <Gold.Chemscore.Internal_Hbond>
0.0000

> <Gold.Chemscore.DEClash>
0.6754

> <Gold.Chemscore.DEInternal>
0.9251

> <Gold.Chemscore.Rot>
3.1183

> <Gold.Chemscore.Internal.Correction>
   9.000000E+99

> <Gold.Chemscore.Hbonds>
donor molecule, donor type, donor heavy atom, donor atom, acceptor molecule, acceptor atom, score
      L1  H    10    36       P1  7949  0.74
      P1  H 10752 10765       L1    10  0.25

> <Gold.Chemscore.Hbond.Weighted>
-5.4791

> <Gold.Chemscore.Metal.Weighted>
-0.0000

> <Gold.Chemscore.Lipo.Weighted>
-7.0655

> <Gold.Chemscore.Internal_Hbond.Weighted>
0.0000

> <Gold.Chemscore.DEClash.Weighted>
0.6754

> <Gold.Chemscore.DEInternal.Weighted>
0.9251

> <Gold.Chemscore.Rot.Weighted>
7.9829

> <Gold.Chemscore.Internal.Correction.Weighted>
   9.000000E+99

> <Gold.Protein.RotatedTorsions>
[ 6907 6896 6895 6894 ] final   85.03 input  -60.11 | X-H torsion
[ 7974 7965 7964 7962 ] final  120.13 input  175.53 | X-H torsion
[ 8008 7997 7996 7995 ] final  -49.91 input   59.86 | X-H torsion
[ 10167 10162 10161 10158 ] final   72.72 input  -65.29 | X-H torsion
[ 10718 10713 10712 10709 ] final   84.72 input   66.30 | X-H torsion
[ 10763 10752 10751 10750 ] final  169.79 input  -60.55 | X-H torsion
[ 11005 11000 10999 10996 ] final   19.22 input  -57.11 | X-H torsion

> <Gold.Protein.ActiveResidues>
 VAL166  LYS551  ARG553  GLY616  TRP617  ASP618  TYR619  PRO620  LYS621  CYS622 
 ASP623  PHE694  ASN695  SER759  ASP760  ASP761  ALA762  ILE779  LEU786  VAL792 
 PHE793  MET794  SER795  GLU796  ALA797  LYS798  CYS799  TRP800  GLU811  SER814 

> <Gold.Protein.RotatedAtoms>
  152.5366  134.2649  159.8949 H   0  0  0  0  0  0  0  0  0  0  0  0  # atno 6907 bound_to 6896
  151.2608  133.4296  159.2623 H   0  0  0  0  0  0  0  0  0  0  0  0  # atno 6908 bound_to 6896
  151.0454  134.9651  159.8240 H   0  0  0  0  0  0  0  0  0  0  0  0  # atno 6909 bound_to 6896
  145.1348  139.3304  143.4646 H   0  0  0  0  0  0  0  0  0  0  0  0  # atno 7974 bound_to 7965
  154.4052  140.1285  156.4580 H   0  0  0  0  0  0  0  0  0  0  0  0  # atno 8008 bound_to 7997
  155.7301  140.3491  155.5035 H   0  0  0  0  0  0  0  0  0  0  0  0  # atno 8009 bound_to 7997
  155.9135  140.1040  157.1251 H   0  0  0  0  0  0  0  0  0  0  0  0  # atno 8010 bound_to 7997
  140.0322  144.5456  150.7498 H   0  0  0  0  0  0  0  0  0  0  0  0  # atno 10167 bound_to 10162
  157.6903  131.0145  150.2714 H   0  0  0  0  0  0  0  0  0  0  0  0  # atno 10718 bound_to 10713
  154.3882  135.2754  155.2171 H   0  0  0  0  0  0  0  0  0  0  0  0  # atno 10763 bound_to 10752
  154.4248  135.5991  153.6036 H   0  0  0  0  0  0  0  0  0  0  0  0  # atno 10764 bound_to 10752
  152.9832  135.5981  154.4133 H   0  0  0  0  0  0  0  0  0  0  0  0  # atno 10765 bound_to 10752
  140.4161  134.1568  155.7670 H   0  0  0  0  0  0  0  0  0  0  0  0  # atno 11005 bound_to 11000
  146.3510  140.1362  142.8596 LP  0  0  0  0  0  0  0  0  0  0  0  0  # atno 17320 bound_to 7965
  145.0596  140.9078  143.4947 LP  0  0  0  0  0  0  0  0  0  0  0  0  # atno 17321 bound_to 7965
  140.7297  143.2675  151.3996 LP  0  0  0  0  0  0  0  0  0  0  0  0  # atno 17342 bound_to 10162
  139.6068  144.1180  152.2258 LP  0  0  0  0  0  0  0  0  0  0  0  0  # atno 17343 bound_to 10162
  156.3276  130.3795  149.7519 LP  0  0  0  0  0  0  0  0  0  0  0  0  # atno 17370 bound_to 10713
  156.5069  130.8154  151.3154 LP  0  0  0  0  0  0  0  0  0  0  0  0  # atno 17371 bound_to 10713
  141.1802  133.8429  157.1283 LP  0  0  0  0  0  0  0  0  0  0  0  0  # atno 17394 bound_to 11000
  140.0233  134.9935  157.0636 LP  0  0  0  0  0  0  0  0  0  0  0  0  # atno 17395 bound_to 11000

$$$$
