AV-unprocessed.smi:1437|AV-procd|sdf|5866|dock7
  -GOLD-   22720 5543D 1   1.00000     0.00000
 Structure written by MMmdl.
 35 36  0  0  0  0  0  0  0  0  3 V2000
  147.0293  133.7188  162.5215 C   0  0  0  0  0  0  0  0  0  0  0  0
  147.5712  134.8570  161.7262 C   0  0  0  0  0  0  0  0  0  0  0  0
  148.1145  134.9393  160.4754 C   0  0  0  0  0  0  0  0  0  0  0  0
  148.4240  136.3210  160.3461 C   0  0  0  0  0  0  0  0  0  0  0  0
  148.9726  136.9098  159.2724 N   0  5  0  0  0  0  0  0  0  0  0  0
  149.3391  136.1684  158.2024 C   0  0  0  0  0  0  0  0  0  0  0  0
  149.8072  135.0281  158.2255 O   0  0  0  0  0  0  0  0  0  0  0  0
  149.1424  136.7883  157.0302 N   0  0  0  0  0  0  0  0  0  0  0  0
  149.4206  136.2410  155.7029 C   0  0  2  0  0  0  0  0  0  0  0  0
  150.1816  137.2736  154.8526 C   0  0  0  0  0  0  0  0  0  0  0  0
  149.2873  138.4645  154.4604 C   0  0  0  0  0  0  0  0  0  0  0  0
  148.0576  138.0065  153.7667 N   0  3  2  0  0  0  0  0  0  0  0  0
  147.2346  139.1343  153.2802 C   0  0  0  0  0  0  0  0  0  0  0  0
  147.2740  137.0504  154.5880 C   0  0  0  0  0  0  0  0  0  0  0  0
  148.1252  135.8285  154.9752 C   0  0  0  0  0  0  0  0  0  0  0  0
  148.0828  137.0180  161.4169 N   0  0  0  0  0  0  0  0  0  0  0  0
  147.5403  136.0856  162.3092 O   0  0  0  0  0  0  0  0  0  0  0  0
  146.0597  133.4058  162.1342 H   0  0  0  0  0  0  0  0  0  0  0  0
  146.9020  133.9958  163.5682 H   0  0  0  0  0  0  0  0  0  0  0  0
  147.7033  132.8632  162.4789 H   0  0  0  0  0  0  0  0  0  0  0  0
  148.2691  134.1395  159.7667 H   0  0  0  0  0  0  0  0  0  0  0  0
  148.7673  137.7246  157.0682 H   0  0  0  0  0  0  0  0  0  0  0  0
  150.0573  135.3628  155.8243 H   0  0  0  0  0  0  0  0  0  0  0  0
  151.0640  137.6273  155.3877 H   0  0  0  0  0  0  0  0  0  0  0  0
  150.5508  136.7906  153.9470 H   0  0  0  0  0  0  0  0  0  0  0  0
  149.0143  139.0419  155.3452 H   0  0  0  0  0  0  0  0  0  0  0  0
  149.8451  139.1360  153.8066 H   0  0  0  0  0  0  0  0  0  0  0  0
  146.8643  139.7350  154.1121 H   0  0  0  0  0  0  0  0  0  0  0  0
  146.3775  138.7692  152.7134 H   0  0  0  0  0  0  0  0  0  0  0  0
  147.8166  139.7810  152.6226 H   0  0  0  0  0  0  0  0  0  0  0  0
  146.9015  137.5524  155.4827 H   0  0  0  0  0  0  0  0  0  0  0  0
  146.4000  136.7187  154.0266 H   0  0  0  0  0  0  0  0  0  0  0  0
  148.3841  135.2738  154.0723 H   0  0  0  0  0  0  0  0  0  0  0  0
  147.5383  135.1445  155.5891 H   0  0  0  0  0  0  0  0  0  0  0  0
  148.3621  137.4988  152.9485 H   0  0  0  0  0  0  0  0  0  0  0  0
  1  2  1  0  0  0  0
  1 18  1  0  0  0  0
  1 19  1  0  0  0  0
  1 20  1  0  0  0  0
  2 17  1  0  0  0  0
  2  3  2  0  0  0  0
  3  4  1  0  0  0  0
  3 21  1  0  0  0  0
  4  5  1  0  0  0  0
  4 16  2  0  0  0  0
  5  6  1  0  0  0  0
  6  7  2  0  0  0  0
  6  8  1  0  0  0  0
  8  9  1  0  0  0  0
  8 22  1  0  0  0  0
  9 15  1  0  0  0  0
  9 10  1  0  0  0  0
  9 23  1  0  0  0  0
 10 11  1  0  0  0  0
 10 24  1  0  0  0  0
 10 25  1  0  0  0  0
 11 12  1  0  0  0  0
 11 26  1  0  0  0  0
 11 27  1  0  0  0  0
 12 13  1  0  0  0  0
 12 14  1  0  0  0  0
 12 35  1  0  0  0  0
 13 28  1  0  0  0  0
 13 29  1  0  0  0  0
 13 30  1  0  0  0  0
 14 15  1  0  0  0  0
 14 31  1  0  0  0  0
 14 32  1  0  0  0  0
 15 33  1  0  0  0  0
 15 34  1  0  0  0  0
 16 17  1  0  0  0  0
M  CHG  1   5  -1
M  CHG  1  12   1
M  END
> <s_m_source_file>
AV-unprocessed.smi

> <i_m_source_file_index>
1437

> <i_lp_mmshare_version>
43012

> <i_f3d_flags>
0

> <s_epik_input>
W0NIM11jMVtjSF1jKG5vMSlbTkhdQyg9TylbTkhdW0NIXTJbQ0gyXVtDSDJdTihbQ0gzXSlbQ0gyXVtDSDJdMg==

> <s_epik_cmdline>
J2VwaWtfcHl0aG9uJywgJy1waCcsICc3LjAnLCAnLXRuJywgJzgnLCAnLW1hJywgJzIwMCcsICctbWV0YWxfYmluZGluZycsICctaW1hZScsICc8aW5maWxlLm1hZT4nLCAnLW9tYWUnLCAnPG91dGZpbGUubWFlPic=

> <r_epik_Ionization_Penalty>
6.28535

> <r_epik_Ionization_Penalty_Charging>
6.28525

> <r_epik_Ionization_Penalty_Neutral>
9.66055e-05

> <r_epik_State_Penalty>
6.28414

> <r_epik_Charging_Adjusted_Penalty>
12.5694

> <i_epik_Tot_Q>
0

> <i_epik_Tot_abs_Q>
2

> <r_epik_Metal_State_Penalty>
2.21724

> <b_epik_Metal_Only>
1

> <s_lp_Force_Field>
OPLS_2005

> <r_lp_Energy>
2.0091

> <b_lp_Chiralities_Consistent>
1

> <s_lp_Variant>
AV-unprocessed.smi:1437-4

> <Gold.Version>
5.8.1

> <Gold.Id.Protein>
6NUR|6NUR_protein|mol2

> <Gold.PLP.Fitness>
37.6926

> <Gold.PLP.PLP>
-24.1590

> <Gold.PLP.part.hbond>
-4.0000

> <Gold.PLP.part.metal>
0.0000

> <Gold.PLP.part.buried>
-3.2906

> <Gold.PLP.part.nonpolar>
-16.8419

> <Gold.PLP.part.repulsive>
0.0220

> <Gold.PLP.ligand.clash>
0.0000

> <Gold.PLP.ligand.torsion>
0.4254

> <Gold.PLP.Chemscore.Hbond>
4.7920

> <Gold.PLP.Chemscore.CHOScore>
0.0000

> <Gold.PLP.Chemscore.Metal>
0.0000

> <Gold.Chemscore.Hbonds>
donor molecule, donor type, donor heavy atom, donor atom, acceptor molecule, acceptor atom, score
      L1  H    12    35       P1  7948  2.00
      P1  H  6896  6907       L1     7  1.00
      P1  H  6931  6943       L1    16  1.00
      P1  H  6934  6947       L1    16  0.32

> <Gold.PLP.Chemscore.Internal.Correction>
0.0083

> <Gold.Rescore>
     Score         DG    S(hbond)    S(metal)    S(lipo)     H(rot)  DE(clash)    DE(int)     intcor
     18.55     -20.48       3.62        0.00      46.87       1.00       0.16       1.77       ----

> <Gold.Chemscore.Fitness>
18.5525

> <Gold.Chemscore.DG>
-20.4841

> <Gold.Chemscore.ZeroCoef>
-5.4800

> <Gold.Chemscore.Hbond>
3.6170

> <Gold.Chemscore.Metal>
0.0000

> <Gold.Chemscore.Lipo>
46.8674

> <Gold.Chemscore.Internal_Hbond>
0.0000

> <Gold.Chemscore.DEClash>
0.1592

> <Gold.Chemscore.DEInternal>
1.7725

> <Gold.Chemscore.Rot>
1.0000

> <Gold.Chemscore.Internal.Correction>
   9.000000E+99

> <Gold.Chemscore.Hbonds>
donor molecule, donor type, donor heavy atom, donor atom, acceptor molecule, acceptor atom, score
      L1  H    12    35       P1  7948  1.00
      P1  H  6896  6907       L1     7  0.96
      P1  H  6931  6943       L1    16  0.95
      P1  H  6934  6947       L1    16  0.28

> <Gold.Chemscore.Hbond.Weighted>
-12.0806

> <Gold.Chemscore.Metal.Weighted>
-0.0000

> <Gold.Chemscore.Lipo.Weighted>
-5.4835

> <Gold.Chemscore.Internal_Hbond.Weighted>
0.0000

> <Gold.Chemscore.DEClash.Weighted>
0.1592

> <Gold.Chemscore.DEInternal.Weighted>
1.7725

> <Gold.Chemscore.Rot.Weighted>
2.5600

> <Gold.Chemscore.Internal.Correction.Weighted>
   9.000000E+99

> <Gold.Protein.RotatedTorsions>
[ 6907 6896 6895 6894 ] final  -85.08 input  -60.11 | X-H torsion
[ 7974 7965 7964 7962 ] final  -94.17 input  175.53 | X-H torsion
[ 8008 7997 7996 7995 ] final  -94.20 input   59.86 | X-H torsion
[ 10167 10162 10161 10158 ] final  121.34 input  -65.29 | X-H torsion
[ 10718 10713 10712 10709 ] final  -77.82 input   66.30 | X-H torsion
[ 10763 10752 10751 10750 ] final   86.73 input  -60.55 | X-H torsion
[ 11005 11000 10999 10996 ] final  131.18 input  -57.11 | X-H torsion

> <Gold.Protein.ActiveResidues>
 VAL166  LYS551  ARG553  GLY616  TRP617  ASP618  TYR619  PRO620  LYS621  CYS622 
 ASP623  PHE694  ASN695  SER759  ASP760  ASP761  ALA762  ILE779  LEU786  VAL792 
 PHE793  MET794  SER795  GLU796  ALA797  LYS798  CYS799  TRP800  GLU811  SER814 

> <Gold.Protein.RotatedAtoms>
  150.6872  134.3260  159.4806 H   0  0  0  0  0  0  0  0  0  0  0  0  # atno 6907 bound_to 6896
  152.1130  134.9258  160.0575 H   0  0  0  0  0  0  0  0  0  0  0  0  # atno 6908 bound_to 6896
  152.0493  133.3977  159.4407 H   0  0  0  0  0  0  0  0  0  0  0  0  # atno 6909 bound_to 6896
  145.3768  140.9512  143.2416 H   0  0  0  0  0  0  0  0  0  0  0  0  # atno 7974 bound_to 7965
  154.7454  140.0491  157.0847 H   0  0  0  0  0  0  0  0  0  0  0  0  # atno 8008 bound_to 7997
  155.0125  140.3137  155.4805 H   0  0  0  0  0  0  0  0  0  0  0  0  # atno 8009 bound_to 7997
  156.2873  140.2181  156.5240 H   0  0  0  0  0  0  0  0  0  0  0  0  # atno 8010 bound_to 7997
  139.5926  144.7030  151.3254 H   0  0  0  0  0  0  0  0  0  0  0  0  # atno 10167 bound_to 10162
  156.0134  130.4501  150.3403 H   0  0  0  0  0  0  0  0  0  0  0  0  # atno 10718 bound_to 10713
  153.1598  135.4570  154.9756 H   0  0  0  0  0  0  0  0  0  0  0  0  # atno 10763 bound_to 10752
  154.7889  135.3213  154.7825 H   0  0  0  0  0  0  0  0  0  0  0  0  # atno 10764 bound_to 10752
  153.8316  135.6938  153.4868 H   0  0  0  0  0  0  0  0  0  0  0  0  # atno 10765 bound_to 10752
  139.9715  134.9576  156.9401 H   0  0  0  0  0  0  0  0  0  0  0  0  # atno 11005 bound_to 11000
  144.8536  139.5284  143.6845 LP  0  0  0  0  0  0  0  0  0  0  0  0  # atno 17320 bound_to 7965
  146.2860  139.7006  142.9195 LP  0  0  0  0  0  0  0  0  0  0  0  0  # atno 17321 bound_to 7965
  140.7185  143.7200  150.7703 LP  0  0  0  0  0  0  0  0  0  0  0  0  # atno 17342 bound_to 10162
  140.0759  143.5016  152.2556 LP  0  0  0  0  0  0  0  0  0  0  0  0  # atno 17343 bound_to 10162
  157.1499  131.0318  151.2890 LP  0  0  0  0  0  0  0  0  0  0  0  0  # atno 17370 bound_to 10713
  157.4401  130.7539  149.7062 LP  0  0  0  0  0  0  0  0  0  0  0  0  # atno 17371 bound_to 10713
  140.5284  134.0838  155.7309 LP  0  0  0  0  0  0  0  0  0  0  0  0  # atno 17394 bound_to 11000
  141.1394  133.9164  157.2360 LP  0  0  0  0  0  0  0  0  0  0  0  0  # atno 17395 bound_to 11000

$$$$
