AV-unprocessed.smi:973|AV-procd|sdf|4299|dock1
  -GOLD-   22720 2203D 1   1.00000     0.00000
 Structure written by MMmdl.
 41 42  0  0  0  0  0  0  0  0  1 V2000
  146.3041  134.8616  162.6387 C   0  0  0  0  0  0  0  0  0  0  0  0
  146.9688  134.9874  161.3390 N   0  0  0  0  0  0  0  0  0  0  0  0
  146.9650  133.8634  160.4955 C   0  0  0  0  0  0  0  0  0  0  0  0
  147.5506  133.8867  159.2903 C   0  0  0  0  0  0  0  0  0  0  0  0
  148.1974  135.1048  158.8649 C   0  0  0  0  0  0  0  0  0  0  0  0
  148.2218  136.1983  159.6679 C   0  0  0  0  0  0  0  0  0  0  0  0
  148.8214  137.4235  159.3273 N   0  0  0  0  0  0  0  0  0  0  0  0
  149.4497  137.7763  158.1905 C   0  0  0  0  0  0  0  0  0  0  0  0
  149.6442  137.0472  157.2179 O   0  0  0  0  0  0  0  0  0  0  0  0
  149.8720  139.0473  158.2520 N   0  0  0  0  0  0  0  0  0  0  0  0
  150.6216  139.7340  157.2063 C   0  0  0  0  0  0  0  0  0  0  0  0
  150.3340  141.2457  157.1987 C   0  0  0  0  0  0  0  0  0  0  0  0
  151.2590  142.0215  158.1219 C   0  0  0  0  0  0  0  0  0  0  0  0
  152.0772  141.4029  158.9955 C   0  0  0  0  0  0  0  0  0  0  0  0
  153.0066  142.1267  159.9540 C   0  0  0  0  0  0  0  0  0  0  0  0
  152.6752  143.6237  160.0736 C   0  0  0  0  0  0  0  0  0  0  0  0
  152.3906  144.2382  158.6976 C   0  0  0  0  0  0  0  0  0  0  0  0
  151.2046  143.5411  158.0070 C   0  0  0  0  0  0  0  0  0  0  0  0
  147.5650  136.1660  160.9893 C   0  0  0  0  0  0  0  0  0  0  0  0
  147.5487  137.1389  161.7477 O   0  0  0  0  0  0  0  0  0  0  0  0
  145.8488  133.8818  162.7866 H   0  0  0  0  0  0  0  0  0  0  0  0
  145.5122  135.6051  162.7396 H   0  0  0  0  0  0  0  0  0  0  0  0
  147.0188  135.0134  163.4489 H   0  0  0  0  0  0  0  0  0  0  0  0
  146.4618  132.9906  160.8853 H   0  0  0  0  0  0  0  0  0  0  0  0
  147.5406  133.0146  158.6531 H   0  0  0  0  0  0  0  0  0  0  0  0
  148.6409  135.1106  157.8824 H   0  0  0  0  0  0  0  0  0  0  0  0
  148.8083  138.1138  160.0640 H   0  0  0  0  0  0  0  0  0  0  0  0
  149.6745  139.5743  159.0902 H   0  0  0  0  0  0  0  0  0  0  0  0
  151.6810  139.5516  157.3864 H   0  0  0  0  0  0  0  0  0  0  0  0
  150.3920  139.2961  156.2332 H   0  0  0  0  0  0  0  0  0  0  0  0
  150.4350  141.6339  156.1840 H   0  0  0  0  0  0  0  0  0  0  0  0
  149.3022  141.4351  157.4968 H   0  0  0  0  0  0  0  0  0  0  0  0
  152.1016  140.3235  159.0370 H   0  0  0  0  0  0  0  0  0  0  0  0
  152.9499  141.6552  160.9355 H   0  0  0  0  0  0  0  0  0  0  0  0
  154.0280  141.9941  159.5962 H   0  0  0  0  0  0  0  0  0  0  0  0
  151.7997  143.7540  160.7111 H   0  0  0  0  0  0  0  0  0  0  0  0
  153.4952  144.1495  160.5636 H   0  0  0  0  0  0  0  0  0  0  0  0
  152.1904  145.3058  158.7929 H   0  0  0  0  0  0  0  0  0  0  0  0
  153.2805  144.1457  158.0737 H   0  0  0  0  0  0  0  0  0  0  0  0
  151.1773  143.8274  156.9551 H   0  0  0  0  0  0  0  0  0  0  0  0
  150.2699  143.8837  158.4518 H   0  0  0  0  0  0  0  0  0  0  0  0
  1  2  1  0  0  0  0
  1 21  1  0  0  0  0
  1 22  1  0  0  0  0
  1 23  1  0  0  0  0
  2 19  1  0  0  0  0
  2  3  1  0  0  0  0
  3  4  2  0  0  0  0
  3 24  1  0  0  0  0
  4  5  1  0  0  0  0
  4 25  1  0  0  0  0
  5  6  2  0  0  0  0
  5 26  1  0  0  0  0
  6  7  1  0  0  0  0
  6 19  1  0  0  0  0
  7  8  1  0  0  0  0
  7 27  1  0  0  0  0
  8  9  2  0  0  0  0
  8 10  1  0  0  0  0
 10 11  1  0  0  0  0
 10 28  1  0  0  0  0
 11 12  1  0  0  0  0
 11 29  1  0  0  0  0
 11 30  1  0  0  0  0
 12 13  1  0  0  0  0
 12 31  1  0  0  0  0
 12 32  1  0  0  0  0
 13 18  1  0  0  0  0
 13 14  2  0  0  0  0
 14 15  1  0  0  0  0
 14 33  1  0  0  0  0
 15 16  1  0  0  0  0
 15 34  1  0  0  0  0
 15 35  1  0  0  0  0
 16 17  1  0  0  0  0
 16 36  1  0  0  0  0
 16 37  1  0  0  0  0
 17 18  1  0  0  0  0
 17 38  1  0  0  0  0
 17 39  1  0  0  0  0
 18 40  1  0  0  0  0
 18 41  1  0  0  0  0
 19 20  2  0  0  0  0
M  END
> <s_m_source_file>
AV-unprocessed.smi

> <i_m_source_file_index>
973

> <i_lp_mmshare_version>
43012

> <i_f3d_flags>
0

> <s_epik_input>
W0NIM11uMVtjSF1bY0hdW2NIXWMoYzE9TylbTkhdQyg9TylbTkhdW0NIMl1bQ0gyXUMyPVtDSF1bQ0gyXVtDSDJdW0NIMl1bQ0gyXTI=

> <s_epik_cmdline>
J2VwaWtfcHl0aG9uJywgJy1waCcsICc3LjAnLCAnLXRuJywgJzgnLCAnLW1hJywgJzIwMCcsICctbWV0YWxfYmluZGluZycsICctaW1hZScsICc8aW5maWxlLm1hZT4nLCAnLW9tYWUnLCAnPG91dGZpbGUubWFlPic=

> <r_lp_tautomer_probability>
1

> <r_epik_Ionization_Penalty>
2.5397e-05

> <r_epik_Ionization_Penalty_Charging>
4.7783e-06

> <r_epik_Ionization_Penalty_Neutral>
2.06187e-05

> <r_epik_State_Penalty>
-0

> <r_epik_Charging_Adjusted_Penalty>
4.7783e-06

> <i_epik_Tot_Q>
0

> <i_epik_Tot_abs_Q>
0

> <r_epik_Metal_State_Penalty>
-0

> <b_epik_Metal_Only>
0

> <s_lp_Force_Field>
OPLS_2005

> <r_lp_Energy>
20.1854

> <b_lp_Chiralities_Consistent>
1

> <s_lp_Variant>
AV-unprocessed.smi:973-1

> <Gold.Version>
5.8.1

> <Gold.Id.Protein>
6NUR|6NUR_protein|mol2

> <Gold.PLP.Fitness>
43.7491

> <Gold.PLP.PLP>
-39.5786

> <Gold.PLP.part.hbond>
-2.0000

> <Gold.PLP.part.metal>
0.0000

> <Gold.PLP.part.buried>
-3.6219

> <Gold.PLP.part.nonpolar>
-34.7472

> <Gold.PLP.part.repulsive>
0.3697

> <Gold.PLP.ligand.clash>
0.0000

> <Gold.PLP.ligand.torsion>
0.4524

> <Gold.PLP.Chemscore.Hbond>
1.6820

> <Gold.PLP.Chemscore.CHOScore>
0.0000

> <Gold.PLP.Chemscore.Metal>
0.0000

> <Gold.Chemscore.Hbonds>
donor molecule, donor type, donor heavy atom, donor atom, acceptor molecule, acceptor atom, score
      P1  H  6931  6943       L1    20  0.99
      P1  H  6934  6947       L1    20  0.67

> <Gold.PLP.Chemscore.Internal.Correction>
0.0295

> <Gold.Rescore>
     Score         DG    S(hbond)    S(metal)    S(lipo)     H(rot)  DE(clash)    DE(int)     intcor
     17.92     -19.54       1.73        0.00     101.43       1.40       0.01       1.61       ----

> <Gold.Chemscore.Fitness>
17.9166

> <Gold.Chemscore.DG>
-19.5360

> <Gold.Chemscore.ZeroCoef>
-5.4800

> <Gold.Chemscore.Hbond>
1.7253

> <Gold.Chemscore.Metal>
0.0000

> <Gold.Chemscore.Lipo>
101.4256

> <Gold.Chemscore.Internal_Hbond>
0.0000

> <Gold.Chemscore.DEClash>
0.0057

> <Gold.Chemscore.DEInternal>
1.6137

> <Gold.Chemscore.Rot>
1.3958

> <Gold.Chemscore.Internal.Correction>
   9.000000E+99

> <Gold.Chemscore.Hbonds>
donor molecule, donor type, donor heavy atom, donor atom, acceptor molecule, acceptor atom, score
      P1  H  6931  6943       L1    20  0.93
      P1  H  6934  6947       L1    20  0.63

> <Gold.Chemscore.Hbond.Weighted>
-5.7625

> <Gold.Chemscore.Metal.Weighted>
-0.0000

> <Gold.Chemscore.Lipo.Weighted>
-11.8668

> <Gold.Chemscore.Internal_Hbond.Weighted>
0.0000

> <Gold.Chemscore.DEClash.Weighted>
0.0057

> <Gold.Chemscore.DEInternal.Weighted>
1.6137

> <Gold.Chemscore.Rot.Weighted>
3.5733

> <Gold.Chemscore.Internal.Correction.Weighted>
   9.000000E+99

> <Gold.Protein.RotatedTorsions>
[ 6907 6896 6895 6894 ] final  170.40 input  -60.11 | X-H torsion
[ 7974 7965 7964 7962 ] final -135.32 input  175.53 | X-H torsion
[ 8008 7997 7996 7995 ] final   76.90 input   59.86 | X-H torsion
[ 10167 10162 10161 10158 ] final -112.21 input  -65.29 | X-H torsion
[ 10718 10713 10712 10709 ] final  -89.66 input   66.30 | X-H torsion
[ 10763 10752 10751 10750 ] final  -98.89 input  -60.55 | X-H torsion
[ 11005 11000 10999 10996 ] final   57.32 input  -57.11 | X-H torsion

> <Gold.Protein.ActiveResidues>
 VAL166  LYS551  ARG553  GLY616  TRP617  ASP618  TYR619  PRO620  LYS621  CYS622 
 ASP623  PHE694  ASN695  SER759  ASP760  ASP761  ALA762  ILE779  LEU786  VAL792 
 PHE793  MET794  SER795  GLU796  ALA797  LYS798  CYS799  TRP800  GLU811  SER814 

> <Gold.Protein.RotatedAtoms>
  151.8167  133.3389  159.3571 H   0  0  0  0  0  0  0  0  0  0  0  0  # atno 6907 bound_to 6896
  150.7308  134.5613  159.5853 H   0  0  0  0  0  0  0  0  0  0  0  0  # atno 6908 bound_to 6896
  152.3036  134.7583  160.0403 H   0  0  0  0  0  0  0  0  0  0  0  0  # atno 6909 bound_to 6896
  144.9024  140.6789  143.5076 H   0  0  0  0  0  0  0  0  0  0  0  0  # atno 7974 bound_to 7965
  155.8339  140.3465  155.5590 H   0  0  0  0  0  0  0  0  0  0  0  0  # atno 8008 bound_to 7997
  155.8212  140.0913  157.1867 H   0  0  0  0  0  0  0  0  0  0  0  0  # atno 8009 bound_to 7997
  154.4004  140.1429  156.3490 H   0  0  0  0  0  0  0  0  0  0  0  0  # atno 8010 bound_to 7997
  140.1252  143.4408  152.1664 H   0  0  0  0  0  0  0  0  0  0  0  0  # atno 10167 bound_to 10162
  155.9985  130.4881  150.5205 H   0  0  0  0  0  0  0  0  0  0  0  0  # atno 10718 bound_to 10713
  154.7452  135.4992  153.9192 H   0  0  0  0  0  0  0  0  0  0  0  0  # atno 10763 bound_to 10752
  153.1084  135.6703  153.9552 H   0  0  0  0  0  0  0  0  0  0  0  0  # atno 10764 bound_to 10752
  153.9318  135.3077  155.3424 H   0  0  0  0  0  0  0  0  0  0  0  0  # atno 10765 bound_to 10752
  140.0461  134.5803  155.9320 H   0  0  0  0  0  0  0  0  0  0  0  0  # atno 11005 bound_to 11000
  145.3593  139.1686  143.4392 LP  0  0  0  0  0  0  0  0  0  0  0  0  # atno 17320 bound_to 7965
  146.3115  140.3654  142.8669 LP  0  0  0  0  0  0  0  0  0  0  0  0  # atno 17321 bound_to 7965
  139.5548  144.7364  151.4327 LP  0  0  0  0  0  0  0  0  0  0  0  0  # atno 17342 bound_to 10162
  140.6849  143.7997  150.7172 LP  0  0  0  0  0  0  0  0  0  0  0  0  # atno 17343 bound_to 10162
  157.3167  131.0674  151.1961 LP  0  0  0  0  0  0  0  0  0  0  0  0  # atno 17370 bound_to 10713
  157.2889  130.6786  149.6104 LP  0  0  0  0  0  0  0  0  0  0  0  0  # atno 17371 bound_to 10713
  141.1908  133.6569  156.5426 LP  0  0  0  0  0  0  0  0  0  0  0  0  # atno 17394 bound_to 11000
  140.3991  134.7372  157.4769 LP  0  0  0  0  0  0  0  0  0  0  0  0  # atno 17395 bound_to 11000

$$$$
