AV-unprocessed.smi:1752|AV-procd|sdf|7058|dock2
  -GOLD-   22720 8273D 1   1.00000     0.00000
 Structure written by MMmdl.
 43 44  0  0  0  0  0  0  0  0  2 V2000
  146.6611  136.0165  157.9796 C   0  0  0  0  0  0  0  0  0  0  0  0
  148.1271  136.4460  158.1569 C   0  0  2  0  0  0  0  0  0  0  0  0
  148.3926  137.2019  159.4745 C   0  0  0  0  0  0  0  0  0  0  0  0
  147.8582  136.5146  160.6365 N   0  0  0  0  0  0  0  0  0  0  0  0
  147.6661  135.1609  160.8162 C   0  0  0  0  0  0  0  0  0  0  0  0
  147.1413  134.9871  162.0647 C   0  0  0  0  0  0  0  0  0  0  0  0
  147.0503  136.3103  162.5800 C   0  0  0  0  0  0  0  0  0  0  0  0
  147.4824  137.2223  161.7238 N   0  0  0  0  0  0  0  0  0  0  0  0
  148.5198  137.2944  157.0346 N   0  0  0  0  0  0  0  0  0  0  0  0
  149.7475  137.3851  156.4928 C   0  0  0  0  0  0  0  0  0  0  0  0
  150.6984  136.7068  156.8834 O   0  0  0  0  0  0  0  0  0  0  0  0
  149.8326  138.2377  155.4404 N   0  0  0  0  0  0  0  0  0  0  0  0
  148.6578  138.8385  154.7690 C   0  0  0  0  0  0  0  0  0  0  0  0
  148.9105  140.2509  154.1907 C   0  0  0  0  0  0  0  0  0  0  0  0
  149.3808  141.3061  155.2155 C   0  0  0  0  0  0  0  0  0  0  0  0
  150.4011  140.8303  156.1886 N   0  3  2  0  0  0  0  0  0  0  0  0
  150.8500  141.9170  157.0867 C   0  0  0  0  0  0  0  0  0  0  0  0
  151.5433  140.0774  155.6032 C   0  0  0  0  0  0  0  0  0  0  0  0
  151.1454  138.7192  154.9773 C   0  0  0  0  0  0  0  0  0  0  0  0
  146.3457  135.3319  158.7673 H   0  0  0  0  0  0  0  0  0  0  0  0
  146.5165  135.5019  157.0291 H   0  0  0  0  0  0  0  0  0  0  0  0
  145.9910  136.8766  157.9986 H   0  0  0  0  0  0  0  0  0  0  0  0
  148.7330  135.5385  158.1689 H   0  0  0  0  0  0  0  0  0  0  0  0
  149.4656  137.3298  159.6236 H   0  0  0  0  0  0  0  0  0  0  0  0
  147.9640  138.2051  159.4293 H   0  0  0  0  0  0  0  0  0  0  0  0
  147.9135  134.4429  160.0482 H   0  0  0  0  0  0  0  0  0  0  0  0
  146.8642  134.0567  162.5381 H   0  0  0  0  0  0  0  0  0  0  0  0
  146.6857  136.6328  163.5442 H   0  0  0  0  0  0  0  0  0  0  0  0
  147.7910  137.8651  156.6315 H   0  0  0  0  0  0  0  0  0  0  0  0
  148.3360  138.1680  153.9712 H   0  0  0  0  0  0  0  0  0  0  0  0
  147.8178  138.9243  155.4605 H   0  0  0  0  0  0  0  0  0  0  0  0
  149.6128  140.2077  153.3589 H   0  0  0  0  0  0  0  0  0  0  0  0
  147.9857  140.6074  153.7359 H   0  0  0  0  0  0  0  0  0  0  0  0
  149.7634  142.1765  154.6806 H   0  0  0  0  0  0  0  0  0  0  0  0
  148.5168  141.6496  155.7860 H   0  0  0  0  0  0  0  0  0  0  0  0
  151.4096  142.6732  156.5344 H   0  0  0  0  0  0  0  0  0  0  0  0
  151.4905  141.5269  157.8785 H   0  0  0  0  0  0  0  0  0  0  0  0
  149.9970  142.4018  157.5629 H   0  0  0  0  0  0  0  0  0  0  0  0
  152.0717  140.6963  154.8767 H   0  0  0  0  0  0  0  0  0  0  0  0
  152.2543  139.8732  156.4051 H   0  0  0  0  0  0  0  0  0  0  0  0
  151.9291  137.9858  155.1756 H   0  0  0  0  0  0  0  0  0  0  0  0
  151.1421  138.7868  153.8896 H   0  0  0  0  0  0  0  0  0  0  0  0
  149.9243  140.1661  156.7817 H   0  0  0  0  0  0  0  0  0  0  0  0
  1  2  1  0  0  0  0
  1 20  1  0  0  0  0
  1 21  1  0  0  0  0
  1 22  1  0  0  0  0
  2  3  1  0  0  0  0
  2  9  1  0  0  0  0
  2 23  1  0  0  0  0
  3  4  1  0  0  0  0
  3 24  1  0  0  0  0
  3 25  1  0  0  0  0
  4  8  1  0  0  0  0
  4  5  1  0  0  0  0
  5  6  2  0  0  0  0
  5 26  1  0  0  0  0
  6  7  1  0  0  0  0
  6 27  1  0  0  0  0
  7  8  2  0  0  0  0
  7 28  1  0  0  0  0
  9 10  1  0  0  0  0
  9 29  1  0  0  0  0
 10 11  2  0  0  0  0
 10 12  1  0  0  0  0
 12 19  1  0  0  0  0
 12 13  1  0  0  0  0
 13 14  1  0  0  0  0
 13 30  1  0  0  0  0
 13 31  1  0  0  0  0
 14 15  1  0  0  0  0
 14 32  1  0  0  0  0
 14 33  1  0  0  0  0
 15 16  1  0  0  0  0
 15 34  1  0  0  0  0
 15 35  1  0  0  0  0
 16 17  1  0  0  0  0
 16 18  1  0  0  0  0
 16 43  1  0  0  0  0
 17 36  1  0  0  0  0
 17 37  1  0  0  0  0
 17 38  1  0  0  0  0
 18 19  1  0  0  0  0
 18 39  1  0  0  0  0
 18 40  1  0  0  0  0
 19 41  1  0  0  0  0
 19 42  1  0  0  0  0
M  CHG  1  16   1
M  END
> <s_m_source_file>
AV-unprocessed.smi

> <i_m_source_file_index>
1752

> <i_lp_mmshare_version>
43012

> <i_f3d_flags>
0

> <s_epik_input>
bjFbY0hdW2NIXVtjSF1uMVtDSDJdW0NAQEhdKFtDSDNdKVtOSF1DKD1PKU4yW0NIMl1bQ0gyXVtDSDJdTihbQ0gzXSlbQ0gyXVtDSDJdMg==

> <s_epik_cmdline>
J2VwaWtfcHl0aG9uJywgJy1waCcsICc3LjAnLCAnLXRuJywgJzgnLCAnLW1hJywgJzIwMCcsICctbWV0YWxfYmluZGluZycsICctaW1hZScsICc8aW5maWxlLm1hZT4nLCAnLW9tYWUnLCAnPG91dGZpbGUubWFlPic=

> <r_lp_tautomer_probability>
1

> <r_epik_Ionization_Penalty>
0.00208423

> <r_epik_Ionization_Penalty_Charging>
0.00203643

> <r_epik_Ionization_Penalty_Neutral>
4.77939e-05

> <r_epik_State_Penalty>
0.00139278

> <r_epik_Charging_Adjusted_Penalty>
0.00342922

> <i_epik_Tot_Q>
1

> <i_epik_Tot_abs_Q>
1

> <r_epik_Metal_State_Penalty>
-0

> <b_epik_Metal_Only>
0

> <s_lp_Force_Field>
OPLS_2005

> <r_lp_Energy>
46.8375

> <b_lp_Chiralities_Consistent>
1

> <s_lp_Variant>
AV-unprocessed.smi:1752-1

> <Gold.Version>
5.8.1

> <Gold.Id.Protein>
6NUR|6NUR_protein|mol2

> <Gold.PLP.Fitness>
34.7171

> <Gold.PLP.PLP>
-31.3586

> <Gold.PLP.part.hbond>
-2.0000

> <Gold.PLP.part.metal>
0.0000

> <Gold.PLP.part.buried>
-2.6735

> <Gold.PLP.part.nonpolar>
-26.7365

> <Gold.PLP.part.repulsive>
0.0803

> <Gold.PLP.ligand.clash>
0.1755

> <Gold.PLP.ligand.torsion>
0.8924

> <Gold.PLP.Chemscore.Hbond>
1.7216

> <Gold.PLP.Chemscore.CHOScore>
0.0000

> <Gold.PLP.Chemscore.Metal>
0.0000

> <Gold.Chemscore.Hbonds>
donor molecule, donor type, donor heavy atom, donor atom, acceptor molecule, acceptor atom, score
      P1  H  6931  6943       L1     8  0.84
      P1  H  6934  6947       L1     8  0.78

> <Gold.PLP.Chemscore.Internal.Correction>
0.1541

> <Gold.Rescore>
     Score         DG    S(hbond)    S(metal)    S(lipo)     H(rot)  DE(clash)    DE(int)     intcor
     13.17     -14.44       1.23        0.00      72.40       1.41       0.45       0.82       ----

> <Gold.Chemscore.Fitness>
13.1677

> <Gold.Chemscore.DG>
-14.4439

> <Gold.Chemscore.ZeroCoef>
-5.4800

> <Gold.Chemscore.Hbond>
1.2303

> <Gold.Chemscore.Metal>
0.0000

> <Gold.Chemscore.Lipo>
72.3975

> <Gold.Chemscore.Internal_Hbond>
0.0000

> <Gold.Chemscore.DEClash>
0.4531

> <Gold.Chemscore.DEInternal>
0.8232

> <Gold.Chemscore.Rot>
1.4125

> <Gold.Chemscore.Internal.Correction>
   9.000000E+99

> <Gold.Chemscore.Hbonds>
donor molecule, donor type, donor heavy atom, donor atom, acceptor molecule, acceptor atom, score
      P1  H  6931  6943       L1     8  0.16
      P1  H  6934  6947       L1     8  0.26

> <Gold.Chemscore.Hbond.Weighted>
-4.1093

> <Gold.Chemscore.Metal.Weighted>
-0.0000

> <Gold.Chemscore.Lipo.Weighted>
-8.4705

> <Gold.Chemscore.Internal_Hbond.Weighted>
0.0000

> <Gold.Chemscore.DEClash.Weighted>
0.4531

> <Gold.Chemscore.DEInternal.Weighted>
0.8232

> <Gold.Chemscore.Rot.Weighted>
3.6160

> <Gold.Chemscore.Internal.Correction.Weighted>
   9.000000E+99

> <Gold.Protein.RotatedTorsions>
[ 6907 6896 6895 6894 ] final -101.15 input  -60.11 | X-H torsion
[ 7974 7965 7964 7962 ] final -171.47 input  175.53 | X-H torsion
[ 8008 7997 7996 7995 ] final   38.80 input   59.86 | X-H torsion
[ 10167 10162 10161 10158 ] final  175.68 input  -65.29 | X-H torsion
[ 10718 10713 10712 10709 ] final -103.99 input   66.30 | X-H torsion
[ 10763 10752 10751 10750 ] final  -83.37 input  -60.55 | X-H torsion
[ 11005 11000 10999 10996 ] final   -5.55 input  -57.11 | X-H torsion

> <Gold.Protein.ActiveResidues>
 VAL166  LYS551  ARG553  GLY616  TRP617  ASP618  TYR619  PRO620  LYS621  CYS622 
 ASP623  PHE694  ASN695  SER759  ASP760  ASP761  ALA762  ILE779  LEU786  VAL792 
 PHE793  MET794  SER795  GLU796  ALA797  LYS798  CYS799  TRP800  GLU811  SER814 

> <Gold.Protein.RotatedAtoms>
  150.7143  134.0778  159.3887 H   0  0  0  0  0  0  0  0  0  0  0  0  # atno 6907 bound_to 6896
  151.8762  135.0468  160.0493 H   0  0  0  0  0  0  0  0  0  0  0  0  # atno 6908 bound_to 6896
  152.2604  133.5257  159.5415 H   0  0  0  0  0  0  0  0  0  0  0  0  # atno 6909 bound_to 6896
  144.7157  140.1918  143.6348 H   0  0  0  0  0  0  0  0  0  0  0  0  # atno 7974 bound_to 7965
  155.2261  140.3334  155.4309 H   0  0  0  0  0  0  0  0  0  0  0  0  # atno 8008 bound_to 7997
  156.2314  140.1852  156.7280 H   0  0  0  0  0  0  0  0  0  0  0  0  # atno 8009 bound_to 7997
  154.5984  140.0627  156.9320 H   0  0  0  0  0  0  0  0  0  0  0  0  # atno 8010 bound_to 7997
  139.5186  144.3004  152.0384 H   0  0  0  0  0  0  0  0  0  0  0  0  # atno 10167 bound_to 10162
  156.0286  130.5493  150.7331 H   0  0  0  0  0  0  0  0  0  0  0  0  # atno 10718 bound_to 10713
  154.5869  135.5558  153.7240 H   0  0  0  0  0  0  0  0  0  0  0  0  # atno 10763 bound_to 10752
  153.0102  135.6334  154.1904 H   0  0  0  0  0  0  0  0  0  0  0  0  # atno 10764 bound_to 10752
  154.1844  135.2885  155.3022 H   0  0  0  0  0  0  0  0  0  0  0  0  # atno 10765 bound_to 10752
  140.6924  133.9060  155.8627 H   0  0  0  0  0  0  0  0  0  0  0  0  # atno 11005 bound_to 11000
  145.8761  139.2298  143.1632 LP  0  0  0  0  0  0  0  0  0  0  0  0  # atno 17320 bound_to 7965
  146.0039  140.8496  143.0005 LP  0  0  0  0  0  0  0  0  0  0  0  0  # atno 17321 bound_to 7965
  140.2451  144.4228  150.6244 LP  0  0  0  0  0  0  0  0  0  0  0  0  # atno 17342 bound_to 10162
  140.6263  143.2182  151.6589 LP  0  0  0  0  0  0  0  0  0  0  0  0  # atno 17343 bound_to 10162
  157.4919  131.0911  151.0417 LP  0  0  0  0  0  0  0  0  0  0  0  0  # atno 17370 bound_to 10713
  157.0821  130.5907  149.5422 LP  0  0  0  0  0  0  0  0  0  0  0  0  # atno 17371 bound_to 10713
  141.0230  134.0862  157.4099 LP  0  0  0  0  0  0  0  0  0  0  0  0  # atno 17394 bound_to 11000
  139.8920  135.0122  156.6820 LP  0  0  0  0  0  0  0  0  0  0  0  0  # atno 17395 bound_to 11000

$$$$
