AV-unprocessed.smi:337|AV-procd|sdf|2372|dock6
  -GOLD-   2262022293D 1   1.00000     0.00000
 Structure written by MMmdl.
 43 44  0  0  0  0  0  0  0  0  1 V2000
  150.6954  135.1363  155.7605 C   0  0  0  0  0  0  0  0  0  0  0  0
  149.2303  135.5165  155.4884 C   0  0  2  0  0  0  0  0  0  0  0  0
  148.8611  134.9917  154.1745 N   0  0  0  0  0  0  0  0  0  0  0  0
  148.4822  133.7289  153.9290 C   0  0  0  0  0  0  0  0  0  0  0  0
  148.1768  133.5310  152.6464 N   0  0  0  0  0  0  0  0  0  0  0  0
  148.4162  132.8428  154.7788 O   0  0  0  0  0  0  0  0  0  0  0  0
  149.1260  137.0497  155.5100 C   0  0  0  0  0  0  0  0  0  0  0  0
  149.1795  137.6686  156.5741 O   0  0  0  0  0  0  0  0  0  0  0  0
  148.9523  137.6472  154.3213 N   0  0  0  0  0  0  0  0  0  0  0  0
  148.8080  139.0858  154.1238 C   0  0  0  0  0  0  0  0  0  0  0  0
  149.6523  139.9355  155.0634 C   0  0  0  0  0  0  0  0  0  0  0  0
  151.0243  139.6836  155.2732 C   0  0  0  0  0  0  0  0  0  0  0  0
  151.7435  140.5090  156.1582 C   0  0  0  0  0  0  0  0  0  0  0  0
  151.0715  141.5647  156.8195 C   0  0  0  0  0  0  0  0  0  0  0  0
  151.7727  142.4060  157.7108 N   0  0  0  0  0  0  0  0  0  0  0  0
  152.1312  141.8110  158.9959 C   0  0  0  0  0  0  0  0  0  0  0  0
  153.1430  142.7030  159.7361 C   0  0  0  0  0  0  0  0  0  0  0  0
  152.6225  144.0220  159.8628 O   0  0  0  0  0  0  0  0  0  0  0  0
  152.3881  144.6223  158.5936 C   0  0  0  0  0  0  0  0  0  0  0  0
  151.3464  143.8003  157.8166 C   0  0  0  0  0  0  0  0  0  0  0  0
  149.7520  141.8016  156.6155 N   0  0  0  0  0  0  0  0  0  0  0  0
  149.0673  141.0076  155.7660 C   0  0  0  0  0  0  0  0  0  0  0  0
  151.0257  135.5018  156.7338 H   0  0  0  0  0  0  0  0  0  0  0  0
  151.3689  135.5457  155.0059 H   0  0  0  0  0  0  0  0  0  0  0  0
  150.8223  134.0533  155.7619 H   0  0  0  0  0  0  0  0  0  0  0  0
  148.5888  135.0818  156.2579 H   0  0  0  0  0  0  0  0  0  0  0  0
  148.8740  135.6448  153.4053 H   0  0  0  0  0  0  0  0  0  0  0  0
  147.8794  132.6204  152.3283 H   0  0  0  0  0  0  0  0  0  0  0  0
  148.2488  134.2986  151.9943 H   0  0  0  0  0  0  0  0  0  0  0  0
  148.9194  137.0657  153.4965 H   0  0  0  0  0  0  0  0  0  0  0  0
  149.0407  139.3367  153.0874 H   0  0  0  0  0  0  0  0  0  0  0  0
  147.7607  139.3466  154.2763 H   0  0  0  0  0  0  0  0  0  0  0  0
  151.5271  138.8743  154.7644 H   0  0  0  0  0  0  0  0  0  0  0  0
  152.7981  140.3322  156.3061 H   0  0  0  0  0  0  0  0  0  0  0  0
  151.2269  141.6974  159.5950 H   0  0  0  0  0  0  0  0  0  0  0  0
  152.5589  140.8168  158.8766 H   0  0  0  0  0  0  0  0  0  0  0  0
  153.3377  142.3023  160.7309 H   0  0  0  0  0  0  0  0  0  0  0  0
  154.0986  142.7264  159.2098 H   0  0  0  0  0  0  0  0  0  0  0  0
  152.0273  145.6396  158.7432 H   0  0  0  0  0  0  0  0  0  0  0  0
  153.3224  144.6950  158.0345 H   0  0  0  0  0  0  0  0  0  0  0  0
  151.2140  144.2323  156.8240 H   0  0  0  0  0  0  0  0  0  0  0  0
  150.3818  143.8451  158.3242 H   0  0  0  0  0  0  0  0  0  0  0  0
  148.0194  141.2390  155.6430 H   0  0  0  0  0  0  0  0  0  0  0  0
  1  2  1  0  0  0  0
  1 23  1  0  0  0  0
  1 24  1  0  0  0  0
  1 25  1  0  0  0  0
  2  3  1  0  0  0  0
  2  7  1  0  0  0  0
  2 26  1  0  0  0  0
  3  4  1  0  0  0  0
  3 27  1  0  0  0  0
  4  5  1  0  0  0  0
  4  6  2  0  0  0  0
  5 28  1  0  0  0  0
  5 29  1  0  0  0  0
  7  8  2  0  0  0  0
  7  9  1  0  0  0  0
  9 10  1  0  0  0  0
  9 30  1  0  0  0  0
 10 11  1  0  0  0  0
 10 31  1  0  0  0  0
 10 32  1  0  0  0  0
 11 22  1  0  0  0  0
 11 12  2  0  0  0  0
 12 13  1  0  0  0  0
 12 33  1  0  0  0  0
 13 14  2  0  0  0  0
 13 34  1  0  0  0  0
 14 15  1  0  0  0  0
 14 21  1  0  0  0  0
 15 20  1  0  0  0  0
 15 16  1  0  0  0  0
 16 17  1  0  0  0  0
 16 35  1  0  0  0  0
 16 36  1  0  0  0  0
 17 18  1  0  0  0  0
 17 37  1  0  0  0  0
 17 38  1  0  0  0  0
 18 19  1  0  0  0  0
 19 20  1  0  0  0  0
 19 39  1  0  0  0  0
 19 40  1  0  0  0  0
 20 41  1  0  0  0  0
 20 42  1  0  0  0  0
 21 22  2  0  0  0  0
 22 43  1  0  0  0  0
M  END
> <s_m_source_file>
AV-unprocessed.smi

> <i_m_source_file_index>
337

> <i_lp_mmshare_version>
43012

> <i_f3d_flags>
0

> <s_epik_input>
W05IMl1DKD1PKVtOSF1bQ0BASF0oW0NIM10pQyg9TylbTkhdW0NIMl1jMVtjSF1bY0hdYyhuW2NIXTEpTjJbQ0gyXVtDSDJdT1tDSDJdW0NIMl0y

> <s_epik_cmdline>
J2VwaWtfcHl0aG9uJywgJy1waCcsICc3LjAnLCAnLXRuJywgJzgnLCAnLW1hJywgJzIwMCcsICctbWV0YWxfYmluZGluZycsICctaW1hZScsICc8aW5maWxlLm1hZT4nLCAnLW9tYWUnLCAnPG91dGZpbGUubWFlPic=

> <r_lp_tautomer_probability>
1

> <r_epik_Ionization_Penalty>
0.0048357

> <r_epik_Ionization_Penalty_Charging>
0

> <r_epik_Ionization_Penalty_Neutral>
0.0048357

> <r_epik_State_Penalty>
0.0034696

> <r_epik_Charging_Adjusted_Penalty>
0.0034696

> <i_epik_Tot_Q>
0

> <i_epik_Tot_abs_Q>
0

> <r_epik_Metal_State_Penalty>
-0

> <b_epik_Metal_Only>
0

> <s_lp_Force_Field>
OPLS_2005

> <r_lp_Energy>
8.56102

> <b_lp_Chiralities_Consistent>
1

> <s_lp_Variant>
AV-unprocessed.smi:337-1

> <Gold.Version>
5.8.1

> <Gold.Id.Protein>
6NUR|6NUR_protein|mol2

> <Gold.PLP.Fitness>
41.5397

> <Gold.PLP.PLP>
-36.1940

> <Gold.PLP.part.hbond>
-3.0000

> <Gold.PLP.part.metal>
0.0000

> <Gold.PLP.part.buried>
-3.2789

> <Gold.PLP.part.nonpolar>
-29.8898

> <Gold.PLP.part.repulsive>
0.3023

> <Gold.PLP.ligand.clash>
0.0000

> <Gold.PLP.ligand.torsion>
1.3666

> <Gold.PLP.Chemscore.Hbond>
2.5712

> <Gold.PLP.Chemscore.CHOScore>
0.0000

> <Gold.PLP.Chemscore.Metal>
0.0000

> <Gold.Chemscore.Hbonds>
donor molecule, donor type, donor heavy atom, donor atom, acceptor molecule, acceptor atom, score
      L1  H     3    27       P1  7948  1.00
      L1  H     5    29       P1  7948  0.38
      L1  H     9    30       P1  7948  1.00

> <Gold.PLP.Chemscore.Internal.Correction>
0.3653

> <Gold.Rescore>
     Score         DG    S(hbond)    S(metal)    S(lipo)     H(rot)  DE(clash)    DE(int)     intcor
     13.22     -15.87       2.28        0.00      81.98       2.66       0.15       2.50       ----

> <Gold.Chemscore.Fitness>
13.2228

> <Gold.Chemscore.DG>
-15.8726

> <Gold.Chemscore.ZeroCoef>
-5.4800

> <Gold.Chemscore.Hbond>
2.2764

> <Gold.Chemscore.Metal>
0.0000

> <Gold.Chemscore.Lipo>
81.9831

> <Gold.Chemscore.Internal_Hbond>
0.0000

> <Gold.Chemscore.DEClash>
0.1461

> <Gold.Chemscore.DEInternal>
2.5036

> <Gold.Chemscore.Rot>
2.6573

> <Gold.Chemscore.Internal.Correction>
   9.000000E+99

> <Gold.Chemscore.Hbonds>
donor molecule, donor type, donor heavy atom, donor atom, acceptor molecule, acceptor atom, score
      L1  H     3    27       P1  7948  0.89
      L1  H     5    29       P1  7948  0.01
      L1  H     9    30       P1  7948  1.00

> <Gold.Chemscore.Hbond.Weighted>
-7.6033

> <Gold.Chemscore.Metal.Weighted>
-0.0000

> <Gold.Chemscore.Lipo.Weighted>
-9.5920

> <Gold.Chemscore.Internal_Hbond.Weighted>
0.0000

> <Gold.Chemscore.DEClash.Weighted>
0.1461

> <Gold.Chemscore.DEInternal.Weighted>
2.5036

> <Gold.Chemscore.Rot.Weighted>
6.8027

> <Gold.Chemscore.Internal.Correction.Weighted>
   9.000000E+99

> <Gold.Protein.RotatedTorsions>
[ 6907 6896 6895 6894 ] final   88.99 input  -60.11 | X-H torsion
[ 7974 7965 7964 7962 ] final  157.19 input  175.53 | X-H torsion
[ 8008 7997 7996 7995 ] final   -9.78 input   59.86 | X-H torsion
[ 10167 10162 10161 10158 ] final -129.29 input  -65.29 | X-H torsion
[ 10718 10713 10712 10709 ] final  -20.98 input   66.30 | X-H torsion
[ 10763 10752 10751 10750 ] final  -80.01 input  -60.55 | X-H torsion
[ 11005 11000 10999 10996 ] final   12.56 input  -57.11 | X-H torsion

> <Gold.Protein.ActiveResidues>
 VAL166  LYS551  ARG553  GLY616  TRP617  ASP618  TYR619  PRO620  LYS621  CYS622 
 ASP623  PHE694  ASN695  SER759  ASP760  ASP761  ALA762  ILE779  LEU786  VAL792 
 PHE793  MET794  SER795  GLU796  ALA797  LYS798  CYS799  TRP800  GLU811  SER814 

> <Gold.Protein.RotatedAtoms>
  152.5431  134.2036  159.8721 H   0  0  0  0  0  0  0  0  0  0  0  0  # atno 6907 bound_to 6896
  151.2023  133.4597  159.2604 H   0  0  0  0  0  0  0  0  0  0  0  0  # atno 6908 bound_to 6896
  151.0977  134.9966  159.8489 H   0  0  0  0  0  0  0  0  0  0  0  0  # atno 6909 bound_to 6896
  144.7918  139.7307  143.6218 H   0  0  0  0  0  0  0  0  0  0  0  0  # atno 7974 bound_to 7965
  154.5615  140.2346  155.8328 H   0  0  0  0  0  0  0  0  0  0  0  0  # atno 8008 bound_to 7997
  156.2033  140.3046  155.9532 H   0  0  0  0  0  0  0  0  0  0  0  0  # atno 8009 bound_to 7997
  155.2880  140.0425  157.3011 H   0  0  0  0  0  0  0  0  0  0  0  0  # atno 8010 bound_to 7997
  139.9414  143.6159  152.2502 H   0  0  0  0  0  0  0  0  0  0  0  0  # atno 10167 bound_to 10162
  156.5244  130.4640  149.6580 H   0  0  0  0  0  0  0  0  0  0  0  0  # atno 10718 bound_to 10713
  154.5458  135.5676  153.6879 H   0  0  0  0  0  0  0  0  0  0  0  0  # atno 10763 bound_to 10752
  152.9976  135.6239  154.2440 H   0  0  0  0  0  0  0  0  0  0  0  0  # atno 10764 bound_to 10752
  154.2373  135.2863  155.2847 H   0  0  0  0  0  0  0  0  0  0  0  0  # atno 10765 bound_to 10752
  140.4906  134.0844  155.7770 H   0  0  0  0  0  0  0  0  0  0  0  0  # atno 11005 bound_to 11000
  146.2172  139.5571  142.9642 LP  0  0  0  0  0  0  0  0  0  0  0  0  # atno 17320 bound_to 7965
  145.5775  141.0386  143.2140 LP  0  0  0  0  0  0  0  0  0  0  0  0  # atno 17321 bound_to 7965
  139.6702  144.7661  151.1798 LP  0  0  0  0  0  0  0  0  0  0  0  0  # atno 17342 bound_to 10162
  140.7610  143.5877  150.8828 LP  0  0  0  0  0  0  0  0  0  0  0  0  # atno 17343 bound_to 10162
  156.3119  130.7233  151.2128 LP  0  0  0  0  0  0  0  0  0  0  0  0  # atno 17370 bound_to 10713
  157.7432  131.0479  150.4967 LP  0  0  0  0  0  0  0  0  0  0  0  0  # atno 17371 bound_to 10713
  141.1486  133.9010  157.2154 LP  0  0  0  0  0  0  0  0  0  0  0  0  # atno 17394 bound_to 11000
  139.9772  135.0110  156.9659 LP  0  0  0  0  0  0  0  0  0  0  0  0  # atno 17395 bound_to 11000

$$$$
