AV-unprocessed.smi:1744|AV-procd|sdf|7025|dock4
  -GOLD-   22720 8243D 1   1.00000     0.00000
 Structure written by MMmdl.
 44 45  0  0  0  0  0  0  0  0  2 V2000
  151.9744  144.9767  160.1715 C   0  0  0  0  0  0  0  0  0  0  0  0
  152.6479  144.6016  158.8461 C   0  0  0  0  0  0  0  0  0  0  0  0
  151.9433  143.5292  158.1714 N   0  0  0  0  0  0  0  0  0  0  0  0
  151.1097  143.6143  157.0742 C   0  0  0  0  0  0  0  0  0  0  0  0
  150.7058  142.3394  156.8147 C   0  0  0  0  0  0  0  0  0  0  0  0
  149.8353  141.9667  155.7605 N   0  0  0  0  0  0  0  0  0  0  0  0
  149.4086  140.7303  155.4570 C   0  0  0  0  0  0  0  0  0  0  0  0
  149.7094  139.7056  156.0690 O   0  0  0  0  0  0  0  0  0  0  0  0
  148.6050  140.7430  154.3839 N   0  0  0  0  0  0  0  0  0  0  0  0
  147.9798  139.5671  153.7863 C   0  0  2  0  0  0  0  0  0  0  0  0
  147.3041  139.9255  152.4492 C   0  0  0  0  0  0  0  0  0  0  0  0
  146.5393  138.7243  151.8684 C   0  0  0  0  0  0  0  0  0  0  0  0
  145.5413  138.2059  152.8382 N   0  3  1  0  0  0  0  0  0  0  0  0
  144.6821  137.1421  152.2573 C   0  0  0  0  0  0  0  0  0  0  0  0
  145.4738  136.1083  151.4492 C   0  0  0  0  0  0  0  0  0  0  0  0
  145.4643  136.2454  150.1212 N   0  0  0  0  0  0  0  0  0  0  0  0
  146.0736  135.1921  152.0090 O   0  0  0  0  0  0  0  0  0  0  0  0
  146.1844  137.8051  154.1182 C   0  0  0  0  0  0  0  0  0  0  0  0
  146.9345  138.9872  154.7530 C   0  0  0  0  0  0  0  0  0  0  0  0
  151.3319  141.5247  157.8001 C   0  0  0  0  0  0  0  0  0  0  0  0
  152.0791  142.2548  158.6147 N   0  0  0  0  0  0  0  0  0  0  0  0
  152.5227  145.7744  160.6729 H   0  0  0  0  0  0  0  0  0  0  0  0
  151.9356  144.1228  160.8486 H   0  0  0  0  0  0  0  0  0  0  0  0
  150.9535  145.3247  160.0114 H   0  0  0  0  0  0  0  0  0  0  0  0
  152.6928  145.4668  158.1833 H   0  0  0  0  0  0  0  0  0  0  0  0
  153.6763  144.2847  159.0239 H   0  0  0  0  0  0  0  0  0  0  0  0
  150.8868  144.5514  156.5855 H   0  0  0  0  0  0  0  0  0  0  0  0
  149.5139  142.7190  155.1690 H   0  0  0  0  0  0  0  0  0  0  0  0
  148.4127  141.6331  153.9477 H   0  0  0  0  0  0  0  0  0  0  0  0
  148.7430  138.8063  153.6092 H   0  0  0  0  0  0  0  0  0  0  0  0
  146.6129  140.7571  152.5945 H   0  0  0  0  0  0  0  0  0  0  0  0
  148.0486  140.2663  151.7287 H   0  0  0  0  0  0  0  0  0  0  0  0
  146.0371  139.0322  150.9506 H   0  0  0  0  0  0  0  0  0  0  0  0
  147.2350  137.9282  151.5984 H   0  0  0  0  0  0  0  0  0  0  0  0
  144.1840  136.5949  153.0587 H   0  0  0  0  0  0  0  0  0  0  0  0
  143.8958  137.5877  151.6458 H   0  0  0  0  0  0  0  0  0  0  0  0
  145.9729  135.5961  149.5382 H   0  0  0  0  0  0  0  0  0  0  0  0
  144.9492  137.0062  149.7011 H   0  0  0  0  0  0  0  0  0  0  0  0
  145.4335  137.4418  154.8203 H   0  0  0  0  0  0  0  0  0  0  0  0
  146.8725  136.9776  153.9383 H   0  0  0  0  0  0  0  0  0  0  0  0
  147.4174  138.6639  155.6761 H   0  0  0  0  0  0  0  0  0  0  0  0
  146.2172  139.7602  155.0336 H   0  0  0  0  0  0  0  0  0  0  0  0
  151.2785  140.4576  157.9559 H   0  0  0  0  0  0  0  0  0  0  0  0
  144.9231  138.9771  153.0483 H   0  0  0  0  0  0  0  0  0  0  0  0
  1  2  1  0  0  0  0
  1 22  1  0  0  0  0
  1 23  1  0  0  0  0
  1 24  1  0  0  0  0
  2  3  1  0  0  0  0
  2 25  1  0  0  0  0
  2 26  1  0  0  0  0
  3 21  1  0  0  0  0
  3  4  1  0  0  0  0
  4  5  2  0  0  0  0
  4 27  1  0  0  0  0
  5  6  1  0  0  0  0
  5 20  1  0  0  0  0
  6  7  1  0  0  0  0
  6 28  1  0  0  0  0
  7  8  2  0  0  0  0
  7  9  1  0  0  0  0
  9 10  1  0  0  0  0
  9 29  1  0  0  0  0
 10 19  1  0  0  0  0
 10 11  1  0  0  0  0
 10 30  1  0  0  0  0
 11 12  1  0  0  0  0
 11 31  1  0  0  0  0
 11 32  1  0  0  0  0
 12 13  1  0  0  0  0
 12 33  1  0  0  0  0
 12 34  1  0  0  0  0
 13 14  1  0  0  0  0
 13 18  1  0  0  0  0
 13 44  1  0  0  0  0
 14 15  1  0  0  0  0
 14 35  1  0  0  0  0
 14 36  1  0  0  0  0
 15 16  1  0  0  0  0
 15 17  2  0  0  0  0
 16 37  1  0  0  0  0
 16 38  1  0  0  0  0
 18 19  1  0  0  0  0
 18 39  1  0  0  0  0
 18 40  1  0  0  0  0
 19 41  1  0  0  0  0
 19 42  1  0  0  0  0
 20 21  2  0  0  0  0
 20 43  1  0  0  0  0
M  CHG  1  13   1
M  END
> <s_m_source_file>
AV-unprocessed.smi

> <i_m_source_file_index>
1744

> <i_lp_mmshare_version>
43012

> <i_f3d_flags>
0

> <s_epik_input>
W0NIM11bQ0gyXW4xW2NIXWMoW2NIXW4xKVtOSF1DKD1PKVtOSF1bQ0hdMltDSDJdW0NIMl1OKFtDSDJdW0NIMl0yKVtDSDJdQyg9TylbTkgyXQ==

> <s_epik_cmdline>
J2VwaWtfcHl0aG9uJywgJy1waCcsICc3LjAnLCAnLXRuJywgJzgnLCAnLW1hJywgJzIwMCcsICctbWV0YWxfYmluZGluZycsICctaW1hZScsICc8aW5maWxlLm1hZT4nLCAnLW9tYWUnLCAnPG91dGZpbGUubWFlPic=

> <r_lp_tautomer_probability>
1

> <r_epik_Ionization_Penalty>
0.839033

> <r_epik_Ionization_Penalty_Charging>
0.838844

> <r_epik_Ionization_Penalty_Neutral>
0.000189439

> <r_epik_State_Penalty>
0.8734

> <r_epik_Charging_Adjusted_Penalty>
1.71224

> <i_epik_Tot_Q>
1

> <i_epik_Tot_abs_Q>
1

> <r_epik_Metal_State_Penalty>
0.89072

> <b_epik_Metal_Only>
0

> <s_lp_Force_Field>
OPLS_2005

> <r_lp_Energy>
16.914

> <b_lp_Chiralities_Consistent>
1

> <s_lp_Variant>
AV-unprocessed.smi:1744-2

> <Gold.Version>
5.8.1

> <Gold.Id.Protein>
6NUR|6NUR_protein|mol2

> <Gold.PLP.Fitness>
49.2103

> <Gold.PLP.PLP>
-34.8767

> <Gold.PLP.part.hbond>
-4.0000

> <Gold.PLP.part.metal>
0.0000

> <Gold.PLP.part.buried>
2.8465

> <Gold.PLP.part.nonpolar>
-35.7902

> <Gold.PLP.part.repulsive>
1.4189

> <Gold.PLP.ligand.clash>
0.0000

> <Gold.PLP.ligand.torsion>
0.7378

> <Gold.PLP.Chemscore.Hbond>
4.4823

> <Gold.PLP.Chemscore.CHOScore>
0.7755

> <Gold.PLP.Chemscore.Metal>
0.0000

> <Gold.Chemscore.Hbonds>
donor molecule, donor type, donor heavy atom, donor atom, acceptor molecule, acceptor atom, score
      L1  H     6    28       P1  8028  0.45
      L1  H    13    44       P1 10175  2.00
      L1  H    16    37       P1  7921  0.86
      L1  H    16    38       P1 10171  1.00
      L1  C     4    27       P1  8028  0.76

> <Gold.PLP.Chemscore.Internal.Correction>
0.0357

> <Gold.Rescore>
     Score         DG    S(hbond)    S(metal)    S(lipo)     H(rot)  DE(clash)    DE(int)     intcor
     16.54     -21.26       3.37        0.00      87.23       2.22       3.03       1.68       ----

> <Gold.Chemscore.Fitness>
16.5429

> <Gold.Chemscore.DG>
-21.2554

> <Gold.Chemscore.ZeroCoef>
-5.4800

> <Gold.Chemscore.Hbond>
3.3700

> <Gold.Chemscore.Metal>
0.0000

> <Gold.Chemscore.Lipo>
87.2270

> <Gold.Chemscore.Internal_Hbond>
0.0000

> <Gold.Chemscore.DEClash>
3.0301

> <Gold.Chemscore.DEInternal>
1.6824

> <Gold.Chemscore.Rot>
2.2211

> <Gold.Chemscore.Internal.Correction>
   9.000000E+99

> <Gold.Chemscore.Hbonds>
donor molecule, donor type, donor heavy atom, donor atom, acceptor molecule, acceptor atom, score
      L1  H     6    28       P1  8028  0.44
      L1  H    13    44       P1 10175  0.90
      L1  H    16    37       P1  7921  0.76
      L1  H    16    38       P1 10171  0.97

> <Gold.Chemscore.Hbond.Weighted>
-11.2559

> <Gold.Chemscore.Metal.Weighted>
-0.0000

> <Gold.Chemscore.Lipo.Weighted>
-10.2056

> <Gold.Chemscore.Internal_Hbond.Weighted>
0.0000

> <Gold.Chemscore.DEClash.Weighted>
3.0301

> <Gold.Chemscore.DEInternal.Weighted>
1.6824

> <Gold.Chemscore.Rot.Weighted>
5.6860

> <Gold.Chemscore.Internal.Correction.Weighted>
   9.000000E+99

> <Gold.Protein.RotatedTorsions>
[ 6907 6896 6895 6894 ] final -152.67 input  -60.11 | X-H torsion
[ 7974 7965 7964 7962 ] final -130.98 input  175.53 | X-H torsion
[ 8008 7997 7996 7995 ] final  166.37 input   59.86 | X-H torsion
[ 10167 10162 10161 10158 ] final  115.91 input  -65.29 | X-H torsion
[ 10718 10713 10712 10709 ] final -162.71 input   66.30 | X-H torsion
[ 10763 10752 10751 10750 ] final   51.64 input  -60.55 | X-H torsion
[ 11005 11000 10999 10996 ] final  114.37 input  -57.11 | X-H torsion

> <Gold.Protein.ActiveResidues>
 VAL166  LYS551  ARG553  GLY616  TRP617  ASP618  TYR619  PRO620  LYS621  CYS622 
 ASP623  PHE694  ASN695  SER759  ASP760  ASP761  ALA762  ILE779  LEU786  VAL792 
 PHE793  MET794  SER795  GLU796  ALA797  LYS798  CYS799  TRP800  GLU811  SER814 

> <Gold.Protein.RotatedAtoms>
  151.2313  133.4449  159.2603 H   0  0  0  0  0  0  0  0  0  0  0  0  # atno 6907 bound_to 6896
  151.0792  134.9848  159.8358 H   0  0  0  0  0  0  0  0  0  0  0  0  # atno 6908 bound_to 6896
  152.5422  134.2253  159.8856 H   0  0  0  0  0  0  0  0  0  0  0  0  # atno 6909 bound_to 6896
  144.9422  140.7252  143.4839 H   0  0  0  0  0  0  0  0  0  0  0  0  # atno 7974 bound_to 7965
  156.1724  140.1645  156.8423 H   0  0  0  0  0  0  0  0  0  0  0  0  # atno 8008 bound_to 7997
  154.5271  140.0765  156.8312 H   0  0  0  0  0  0  0  0  0  0  0  0  # atno 8009 bound_to 7997
  155.3484  140.3388  155.4241 H   0  0  0  0  0  0  0  0  0  0  0  0  # atno 8010 bound_to 7997
  139.6284  144.7111  151.2484 H   0  0  0  0  0  0  0  0  0  0  0  0  # atno 10167 bound_to 10162
  156.6143  130.8864  151.2943 H   0  0  0  0  0  0  0  0  0  0  0  0  # atno 10718 bound_to 10713
  152.9786  135.5839  154.4448 H   0  0  0  0  0  0  0  0  0  0  0  0  # atno 10763 bound_to 10752
  154.4044  135.2769  155.2078 H   0  0  0  0  0  0  0  0  0  0  0  0  # atno 10764 bound_to 10752
  154.3895  135.6128  153.5889 H   0  0  0  0  0  0  0  0  0  0  0  0  # atno 10765 bound_to 10752
  139.8979  134.9566  156.6882 H   0  0  0  0  0  0  0  0  0  0  0  0  # atno 11005 bound_to 11000
  145.2973  139.1862  143.4708 LP  0  0  0  0  0  0  0  0  0  0  0  0  # atno 17320 bound_to 7965
  146.3290  140.2959  142.8618 LP  0  0  0  0  0  0  0  0  0  0  0  0  # atno 17321 bound_to 7965
  140.7425  143.6525  150.8236 LP  0  0  0  0  0  0  0  0  0  0  0  0  # atno 17342 bound_to 10162
  140.0146  143.5606  152.2825 LP  0  0  0  0  0  0  0  0  0  0  0  0  # atno 17343 bound_to 10162
  157.7245  130.9604  150.1578 LP  0  0  0  0  0  0  0  0  0  0  0  0  # atno 17370 bound_to 10713
  156.2364  130.3687  149.8387 LP  0  0  0  0  0  0  0  0  0  0  0  0  # atno 17371 bound_to 10713
  140.7246  133.9111  155.8169 LP  0  0  0  0  0  0  0  0  0  0  0  0  # atno 17394 bound_to 11000
  141.0201  134.0901  157.4130 LP  0  0  0  0  0  0  0  0  0  0  0  0  # atno 17395 bound_to 11000

$$$$
