AV-unprocessed.smi:37|AV-procd|sdf|306|dock8
  -GOLD-   2262016113D 1   1.00000     0.00000
 Structure written by MMmdl.
 44 45  0  0  0  0  0  0  0  0  1 V2000
  150.6172  132.3274  154.3767 C   0  0  0  0  0  0  0  0  0  0  0  0
  150.7809  131.3687  155.5653 C   0  0  0  0  0  0  0  0  0  0  0  0
  150.3730  131.9814  156.9065 C   0  0  0  0  0  0  0  0  0  0  0  0
  151.1204  131.9892  157.8861 O   0  0  0  0  0  0  0  0  0  0  0  0
  149.1314  132.4821  156.8681 O   0  0  0  0  0  0  0  0  0  0  0  0
  148.6547  133.2730  157.9437 C   0  0  0  0  0  0  0  0  0  0  0  0
  149.4916  134.5555  158.0945 C   0  0  1  0  0  0  0  0  0  0  0  0
  149.2011  135.4318  157.0031 O   0  0  0  0  0  0  0  0  0  0  0  0
  149.1677  136.7586  157.4382 C   0  0  2  0  0  0  0  0  0  0  0  0
  150.5489  137.3889  157.3322 N   0  0  0  0  0  0  0  0  0  0  0  0
  151.6346  136.7311  156.7610 C   0  0  0  0  0  0  0  0  0  0  0  0
  152.8593  137.2952  156.6358 C   0  0  0  0  0  0  0  0  0  0  0  0
  153.8578  136.5935  156.0731 F   0  0  0  0  0  0  0  0  0  0  0  0
  153.1010  138.6611  157.0878 C   0  0  0  0  0  0  0  0  0  0  0  0
  154.1775  139.2518  157.0302 O   0  0  0  0  0  0  0  0  0  0  0  0
  151.9741  139.3022  157.6078 N   0  0  0  0  0  0  0  0  0  0  0  0
  150.7044  138.7366  157.7318 C   0  0  0  0  0  0  0  0  0  0  0  0
  149.7742  139.4126  158.1694 O   0  0  0  0  0  0  0  0  0  0  0  0
  148.6832  136.6886  158.8936 C   0  0  1  0  0  0  0  0  0  0  0  0
  146.6886  136.6038  158.9020 Br  0  0  0  0  0  0  0  0  0  0  0  0
  149.3030  135.3859  159.3818 C   0  0  1  0  0  0  0  0  0  0  0  0
  148.5192  134.7857  160.4076 O   0  0  0  0  0  0  0  0  0  0  0  0
  148.0623  135.5229  161.4364 C   0  0  0  0  0  0  0  0  0  0  0  0
  148.3005  136.7149  161.6308 O   0  0  0  0  0  0  0  0  0  0  0  0
  147.1755  134.7232  162.3887 C   0  0  0  0  0  0  0  0  0  0  0  0
  146.9888  133.2693  161.9338 C   0  0  0  0  0  0  0  0  0  0  0  0
  152.0858  140.2596  157.9086 H   0  0  0  0  0  0  0  0  0  0  0  0
  150.9259  131.8441  153.4497 H   0  0  0  0  0  0  0  0  0  0  0  0
  151.2275  133.2229  154.5006 H   0  0  0  0  0  0  0  0  0  0  0  0
  149.5789  132.6381  154.2560 H   0  0  0  0  0  0  0  0  0  0  0  0
  150.1838  130.4718  155.3995 H   0  0  0  0  0  0  0  0  0  0  0  0
  151.8200  131.0460  155.6347 H   0  0  0  0  0  0  0  0  0  0  0  0
  147.6090  133.5344  157.7769 H   0  0  0  0  0  0  0  0  0  0  0  0
  148.6962  132.6910  158.8652 H   0  0  0  0  0  0  0  0  0  0  0  0
  150.5408  134.2662  158.0371 H   0  0  0  0  0  0  0  0  0  0  0  0
  148.5385  137.3662  156.7853 H   0  0  0  0  0  0  0  0  0  0  0  0
  151.5276  135.7286  156.3775 H   0  0  0  0  0  0  0  0  0  0  0  0
  148.9781  137.5481  159.4935 H   0  0  0  0  0  0  0  0  0  0  0  0
  150.2932  135.6309  159.7702 H   0  0  0  0  0  0  0  0  0  0  0  0
  147.6247  134.7421  163.3821 H   0  0  0  0  0  0  0  0  0  0  0  0
  146.2074  135.2178  162.4700 H   0  0  0  0  0  0  0  0  0  0  0  0
  146.4257  132.7039  162.6763 H   0  0  0  0  0  0  0  0  0  0  0  0
  147.9474  132.7684  161.7947 H   0  0  0  0  0  0  0  0  0  0  0  0
  146.4386  133.2144  160.9939 H   0  0  0  0  0  0  0  0  0  0  0  0
  1  2  1  0  0  0  0
  1 28  1  0  0  0  0
  1 29  1  0  0  0  0
  1 30  1  0  0  0  0
  2  3  1  0  0  0  0
  2 31  1  0  0  0  0
  2 32  1  0  0  0  0
  3  4  2  0  0  0  0
  3  5  1  0  0  0  0
  5  6  1  0  0  0  0
  6  7  1  0  0  0  0
  6 33  1  0  0  0  0
  6 34  1  0  0  0  0
  7 21  1  0  0  0  0
  7  8  1  0  0  0  0
  7 35  1  0  0  0  0
  8  9  1  0  0  0  0
  9 10  1  0  0  0  0
  9 19  1  0  0  0  0
  9 36  1  0  0  0  0
 10 17  1  0  0  0  0
 10 11  1  0  0  0  0
 11 12  2  0  0  0  0
 11 37  1  0  0  0  0
 12 13  1  0  0  0  0
 12 14  1  0  0  0  0
 14 15  2  0  0  0  0
 14 16  1  0  0  0  0
 16 27  1  0  0  0  0
 16 17  1  0  0  0  0
 17 18  2  0  0  0  0
 19 20  1  0  0  0  0
 19 21  1  0  0  0  0
 19 38  1  0  0  0  0
 21 22  1  0  0  0  0
 21 39  1  0  0  0  0
 22 23  1  0  0  0  0
 23 24  2  0  0  0  0
 23 25  1  0  0  0  0
 25 26  1  0  0  0  0
 25 40  1  0  0  0  0
 25 41  1  0  0  0  0
 26 42  1  0  0  0  0
 26 43  1  0  0  0  0
 26 44  1  0  0  0  0
M  END
> <s_m_source_file>
AV-unprocessed.smi

> <i_m_source_file_index>
37

> <i_lp_mmshare_version>
43012

> <i_f3d_flags>
0

> <s_epik_input>
W0NIM11bQ0gyXUMoPU8pT1tDSDJdW0NAQEhdMU9bQ0BASF0objJbY0hdYyhGKWMoPU8pW25IXWMyPU8pW0NAQEhdKEJyKVtDQEhdMU9DKD1PKVtDSDJdW0NIM10=

> <s_epik_cmdline>
J2VwaWtfcHl0aG9uJywgJy1waCcsICc3LjAnLCAnLXRuJywgJzgnLCAnLW1hJywgJzIwMCcsICctbWV0YWxfYmluZGluZycsICctaW1hZScsICc8aW5maWxlLm1hZT4nLCAnLW9tYWUnLCAnPG91dGZpbGUubWFlPic=

> <r_lp_tautomer_probability>
0.999537

> <r_epik_Ionization_Penalty>
0.104106

> <r_epik_Ionization_Penalty_Charging>
0.104106

> <r_epik_Ionization_Penalty_Neutral>
3.94675e-16

> <r_epik_State_Penalty>
0.0940182

> <r_epik_Charging_Adjusted_Penalty>
0.198124

> <i_epik_Tot_Q>
0

> <i_epik_Tot_abs_Q>
0

> <r_epik_Metal_State_Penalty>
3.05314

> <b_epik_Metal_Only>
0

> <s_epik_Chemistry_Notes>
This compound has an ester and may undergo hydrolysis at high or low pH. This compound contains an acetal/aminal-like group ( X-CH(R)-Y where X, Y are N, S, or O) that may be acid/base labile, releasing an aldehyde.

> <s_lp_Force_Field>
OPLS_2005

> <r_lp_Energy>
23.6922

> <b_lp_Chiralities_Consistent>
1

> <s_lp_Variant>
AV-unprocessed.smi:37-4

> <Gold.Version>
5.8.1

> <Gold.Id.Protein>
6NUR|6NUR_protein|mol2

> <Gold.PLP.Fitness>
42.9784

> <Gold.PLP.PLP>
-32.1990

> <Gold.PLP.part.hbond>
-4.0000

> <Gold.PLP.part.metal>
0.0000

> <Gold.PLP.part.buried>
-4.1400

> <Gold.PLP.part.nonpolar>
-23.9532

> <Gold.PLP.part.repulsive>
0.0742

> <Gold.PLP.ligand.clash>
0.0000

> <Gold.PLP.ligand.torsion>
0.3323

> <Gold.PLP.Chemscore.Hbond>
3.7680

> <Gold.PLP.Chemscore.CHOScore>
0.0000

> <Gold.PLP.Chemscore.Metal>
0.0000

> <Gold.Chemscore.Hbonds>
donor molecule, donor type, donor heavy atom, donor atom, acceptor molecule, acceptor atom, score
      P1  H  6896  6907       L1     4  1.00
      P1  H  6931  6943       L1    24  1.00

> <Gold.PLP.Chemscore.Internal.Correction>
0.1399

> <Gold.Rescore>
     Score         DG    S(hbond)    S(metal)    S(lipo)     H(rot)  DE(clash)    DE(int)     intcor
     13.02     -14.82       3.72        0.00      46.47       3.33       0.04       1.77       ----

> <Gold.Chemscore.Fitness>
13.0231

> <Gold.Chemscore.DG>
-14.8248

> <Gold.Chemscore.ZeroCoef>
-5.4800

> <Gold.Chemscore.Hbond>
3.7224

> <Gold.Chemscore.Metal>
0.0000

> <Gold.Chemscore.Lipo>
46.4739

> <Gold.Chemscore.Internal_Hbond>
0.0000

> <Gold.Chemscore.DEClash>
0.0363

> <Gold.Chemscore.DEInternal>
1.7654

> <Gold.Chemscore.Rot>
3.3303

> <Gold.Chemscore.Internal.Correction>
   9.000000E+99

> <Gold.Chemscore.Hbonds>
donor molecule, donor type, donor heavy atom, donor atom, acceptor molecule, acceptor atom, score
      P1  H  6896  6907       L1     4  0.99
      P1  H  6931  6943       L1    24  1.00
      P1  H  7997  8009       L1    15  0.01

> <Gold.Chemscore.Hbond.Weighted>
-12.4329

> <Gold.Chemscore.Metal.Weighted>
-0.0000

> <Gold.Chemscore.Lipo.Weighted>
-5.4374

> <Gold.Chemscore.Internal_Hbond.Weighted>
0.0000

> <Gold.Chemscore.DEClash.Weighted>
0.0363

> <Gold.Chemscore.DEInternal.Weighted>
1.7654

> <Gold.Chemscore.Rot.Weighted>
8.5256

> <Gold.Chemscore.Internal.Correction.Weighted>
   9.000000E+99

> <Gold.Protein.RotatedTorsions>
[ 6907 6896 6895 6894 ] final -154.89 input  -60.11 | X-H torsion
[ 7974 7965 7964 7962 ] final  111.50 input  175.53 | X-H torsion
[ 8008 7997 7996 7995 ] final -139.28 input   59.86 | X-H torsion
[ 10167 10162 10161 10158 ] final -179.42 input  -65.29 | X-H torsion
[ 10718 10713 10712 10709 ] final  -37.97 input   66.30 | X-H torsion
[ 10763 10752 10751 10750 ] final  166.35 input  -60.55 | X-H torsion
[ 11005 11000 10999 10996 ] final  137.39 input  -57.11 | X-H torsion

> <Gold.Protein.ActiveResidues>
 VAL166  LYS551  ARG553  GLY616  TRP617  ASP618  TYR619  PRO620  LYS621  CYS622 
 ASP623  PHE694  ASN695  SER759  ASP760  ASP761  ALA762  ILE779  LEU786  VAL792 
 PHE793  MET794  SER795  GLU796  ALA797  LYS798  CYS799  TRP800  GLU811  SER814 

> <Gold.Protein.RotatedAtoms>
  151.2642  133.4287  159.2617 H   0  0  0  0  0  0  0  0  0  0  0  0  # atno 6907 bound_to 6896
  151.0503  134.9668  159.8218 H   0  0  0  0  0  0  0  0  0  0  0  0  # atno 6908 bound_to 6896
  152.5381  134.2597  159.8983 H   0  0  0  0  0  0  0  0  0  0  0  0  # atno 6909 bound_to 6896
  145.2414  139.2777  143.4116 H   0  0  0  0  0  0  0  0  0  0  0  0  # atno 7974 bound_to 7965
  155.4423  140.0532  157.3009 H   0  0  0  0  0  0  0  0  0  0  0  0  # atno 8008 bound_to 7997
  154.4813  140.2082  155.9715 H   0  0  0  0  0  0  0  0  0  0  0  0  # atno 8009 bound_to 7997
  156.1209  140.3188  155.8212 H   0  0  0  0  0  0  0  0  0  0  0  0  # atno 8010 bound_to 7997
  139.5387  144.2424  152.0850 H   0  0  0  0  0  0  0  0  0  0  0  0  # atno 10167 bound_to 10162
  156.3092  130.4250  149.8067 H   0  0  0  0  0  0  0  0  0  0  0  0  # atno 10718 bound_to 10713
  154.3377  135.2754  155.2439 H   0  0  0  0  0  0  0  0  0  0  0  0  # atno 10763 bound_to 10752
  154.4723  135.5880  153.6334 H   0  0  0  0  0  0  0  0  0  0  0  0  # atno 10764 bound_to 10752
  152.9860  135.6091  154.3575 H   0  0  0  0  0  0  0  0  0  0  0  0  # atno 10765 bound_to 10752
  140.0111  134.9438  157.0279 H   0  0  0  0  0  0  0  0  0  0  0  0  # atno 11005 bound_to 11000
  146.3327  140.2778  142.8609 LP  0  0  0  0  0  0  0  0  0  0  0  0  # atno 17320 bound_to 7965
  144.9585  140.8251  143.5528 LP  0  0  0  0  0  0  0  0  0  0  0  0  # atno 17321 bound_to 7965
  140.1899  144.4762  150.6484 LP  0  0  0  0  0  0  0  0  0  0  0  0  # atno 17342 bound_to 10162
  140.6607  143.2251  151.5863 LP  0  0  0  0  0  0  0  0  0  0  0  0  # atno 17343 bound_to 10162
  156.5417  130.8303  151.3271 LP  0  0  0  0  0  0  0  0  0  0  0  0  # atno 17370 bound_to 10713
  157.7387  130.9818  150.2267 LP  0  0  0  0  0  0  0  0  0  0  0  0  # atno 17371 bound_to 10713
  140.4553  134.1540  155.7185 LP  0  0  0  0  0  0  0  0  0  0  0  0  # atno 17394 bound_to 11000
  141.1711  133.8606  157.1566 LP  0  0  0  0  0  0  0  0  0  0  0  0  # atno 17395 bound_to 11000

$$$$
