AV-unprocessed.smi:3208|AV-procd|sdf|12262|dock7
  -GOLD-   2272018 93D 1   1.00000     0.00000
 Structure written by MMmdl.
 30 30  0  0  0  0  0  0  0  0  3 V2000
  145.5827  143.3228  155.3826 C   0  0  0  0  0  0  0  0  0  0  0  0
  145.7734  142.9158  154.1187 C   0  0  0  0  0  0  0  0  0  0  0  0
  146.8646  141.9649  153.6791 C   0  0  0  0  0  0  0  0  0  0  0  0
  147.8961  141.9146  154.6574 O   0  0  0  0  0  0  0  0  0  0  0  0
  148.9013  140.9274  154.4402 C   0  0  2  0  0  0  0  0  0  0  0  0
  148.2692  139.5549  154.7170 C   0  0  0  0  0  0  0  0  0  0  0  0
  150.1112  141.1833  155.3536 C   0  0  0  0  0  0  0  0  0  0  0  0
  151.0750  140.4163  155.3216 O   0  0  0  0  0  0  0  0  0  0  0  0
  150.0157  142.2578  156.1588 N   0  0  0  0  0  0  0  0  0  0  0  0
  150.9557  142.7475  157.1072 C   0  0  0  0  0  0  0  0  0  0  0  0
  151.2098  144.0719  157.2555 N   0  3  0  0  0  0  0  0  0  0  0  0
  152.0938  144.5680  158.1477 C   0  0  0  0  0  0  0  0  0  0  0  0
  152.8087  143.6915  158.9861 C   0  0  0  0  0  0  0  0  0  0  0  0
  152.5838  142.3052  158.8742 C   0  0  0  0  0  0  0  0  0  0  0  0
  151.6516  141.8274  157.9285 C   0  0  0  0  0  0  0  0  0  0  0  0
  151.4347  140.4821  157.8195 O   0  5  0  0  0  0  0  0  0  0  0  0
  146.2199  142.9819  156.1855 H   0  0  0  0  0  0  0  0  0  0  0  0
  144.7828  144.0050  155.6306 H   0  0  0  0  0  0  0  0  0  0  0  0
  145.1152  143.2781  153.3425 H   0  0  0  0  0  0  0  0  0  0  0  0
  146.4231  140.9763  153.5469 H   0  0  0  0  0  0  0  0  0  0  0  0
  147.2562  142.2837  152.7122 H   0  0  0  0  0  0  0  0  0  0  0  0
  149.2136  140.9531  153.3943 H   0  0  0  0  0  0  0  0  0  0  0  0
  148.9925  138.7500  154.5811 H   0  0  0  0  0  0  0  0  0  0  0  0
  147.4393  139.3685  154.0351 H   0  0  0  0  0  0  0  0  0  0  0  0
  147.8792  139.4885  155.7335 H   0  0  0  0  0  0  0  0  0  0  0  0
  149.1635  142.7959  156.0915 H   0  0  0  0  0  0  0  0  0  0  0  0
  152.2003  145.6428  158.1631 H   0  0  0  0  0  0  0  0  0  0  0  0
  153.5184  144.0751  159.7041 H   0  0  0  0  0  0  0  0  0  0  0  0
  153.1218  141.6161  159.5089 H   0  0  0  0  0  0  0  0  0  0  0  0
  150.7036  144.7278  156.6592 H   0  0  0  0  0  0  0  0  0  0  0  0
  1  2  2  0  0  0  0
  1 17  1  0  0  0  0
  1 18  1  0  0  0  0
  2  3  1  0  0  0  0
  2 19  1  0  0  0  0
  3  4  1  0  0  0  0
  3 20  1  0  0  0  0
  3 21  1  0  0  0  0
  4  5  1  0  0  0  0
  5  6  1  0  0  0  0
  5  7  1  0  0  0  0
  5 22  1  0  0  0  0
  6 23  1  0  0  0  0
  6 24  1  0  0  0  0
  6 25  1  0  0  0  0
  7  8  2  0  0  0  0
  7  9  1  0  0  0  0
  9 26  1  0  0  0  0
  9 10  1  0  0  0  0
 10 15  2  0  0  0  0
 10 11  1  0  0  0  0
 11 30  1  0  0  0  0
 11 12  2  0  0  0  0
 12 27  1  0  0  0  0
 12 13  1  0  0  0  0
 13 28  1  0  0  0  0
 13 14  2  0  0  0  0
 14 15  1  0  0  0  0
 14 29  1  0  0  0  0
 15 16  1  0  0  0  0
M  CHG  1  11   1
M  CHG  1  16  -1
M  END
> <s_m_source_file>
AV-unprocessed.smi

> <i_m_source_file_index>
3208

> <i_lp_mmshare_version>
43012

> <i_f3d_flags>
0

> <s_epik_input>
W0NIMl09W0NIXVtDSDJdT1tDQEhdKFtDSDNdKUMoPU8pW05IXWMxbltjSF1bY0hdW2NIXWMxW09IXQ==

> <s_epik_cmdline>
J2VwaWtfcHl0aG9uJywgJy1waCcsICc3LjAnLCAnLXRuJywgJzgnLCAnLW1hJywgJzIwMCcsICctbWV0YWxfYmluZGluZycsICctaW1hZScsICc8aW5maWxlLm1hZT4nLCAnLW9tYWUnLCAnPG91dGZpbGUubWFlPic=

> <r_lp_tautomer_probability>
0.56342

> <r_epik_Ionization_Penalty>
0.29395

> <r_epik_Ionization_Penalty_Charging>
0.0267837

> <r_epik_Ionization_Penalty_Neutral>
0.267166

> <r_epik_State_Penalty>
0.587031

> <r_epik_Charging_Adjusted_Penalty>
0.613815

> <i_epik_Tot_Q>
0

> <i_epik_Tot_abs_Q>
2

> <r_epik_Metal_State_Penalty>
2.67911

> <b_epik_Metal_Only>
0

> <s_lp_Force_Field>
OPLS_2005

> <r_lp_Energy>
5.5941

> <b_lp_Chiralities_Consistent>
1

> <s_lp_Variant>
AV-unprocessed.smi:3208-3

> <Gold.Version>
5.8.1

> <Gold.Id.Protein>
6NUR|6NUR_protein|mol2

> <Gold.PLP.Fitness>
45.2606

> <Gold.PLP.PLP>
-36.6940

> <Gold.PLP.part.hbond>
-3.0000

> <Gold.PLP.part.metal>
0.0000

> <Gold.PLP.part.buried>
-6.1372

> <Gold.PLP.part.nonpolar>
-28.2103

> <Gold.PLP.part.repulsive>
0.3292

> <Gold.PLP.ligand.clash>
0.0000

> <Gold.PLP.ligand.torsion>
0.5497

> <Gold.PLP.Chemscore.Hbond>
3.0368

> <Gold.PLP.Chemscore.CHOScore>
0.0000

> <Gold.PLP.Chemscore.Metal>
0.0000

> <Gold.Chemscore.Hbonds>
donor molecule, donor type, donor heavy atom, donor atom, acceptor molecule, acceptor atom, score
      L1  H     9    26       P1  8028  0.61
      L1  H    11    30       P1  8028  1.46
      P1  H  7989  7998       L1     8  0.79

> <Gold.PLP.Chemscore.Internal.Correction>
0.5555

> <Gold.Rescore>
     Score         DG    S(hbond)    S(metal)    S(lipo)     H(rot)  DE(clash)    DE(int)     intcor
      9.85     -14.42       1.40        0.00      73.67       1.70       0.04       4.53       ----

> <Gold.Chemscore.Fitness>
9.8519

> <Gold.Chemscore.DG>
-14.4174

> <Gold.Chemscore.ZeroCoef>
-5.4800

> <Gold.Chemscore.Hbond>
1.3966

> <Gold.Chemscore.Metal>
0.0000

> <Gold.Chemscore.Lipo>
73.6701

> <Gold.Chemscore.Internal_Hbond>
0.0000

> <Gold.Chemscore.DEClash>
0.0402

> <Gold.Chemscore.DEInternal>
4.5252

> <Gold.Chemscore.Rot>
1.6979

> <Gold.Chemscore.Internal.Correction>
   9.000000E+99

> <Gold.Chemscore.Hbonds>
donor molecule, donor type, donor heavy atom, donor atom, acceptor molecule, acceptor atom, score
      L1  H     9    26       P1  8028  0.60
      L1  H    11    30       P1  8028  0.63
      P1  H  7989  7998       L1     8  0.11

> <Gold.Chemscore.Hbond.Weighted>
-4.6647

> <Gold.Chemscore.Metal.Weighted>
-0.0000

> <Gold.Chemscore.Lipo.Weighted>
-8.6194

> <Gold.Chemscore.Internal_Hbond.Weighted>
0.0000

> <Gold.Chemscore.DEClash.Weighted>
0.0402

> <Gold.Chemscore.DEInternal.Weighted>
4.5252

> <Gold.Chemscore.Rot.Weighted>
4.3467

> <Gold.Chemscore.Internal.Correction.Weighted>
   9.000000E+99

> <Gold.Protein.RotatedTorsions>
[ 6907 6896 6895 6894 ] final  -27.18 input  -60.11 | X-H torsion
[ 7974 7965 7964 7962 ] final  -90.10 input  175.53 | X-H torsion
[ 8008 7997 7996 7995 ] final  -30.12 input   59.86 | X-H torsion
[ 10167 10162 10161 10158 ] final -117.06 input  -65.29 | X-H torsion
[ 10718 10713 10712 10709 ] final  -26.13 input   66.30 | X-H torsion
[ 10763 10752 10751 10750 ] final -169.49 input  -60.55 | X-H torsion
[ 11005 11000 10999 10996 ] final  107.78 input  -57.11 | X-H torsion

> <Gold.Protein.ActiveResidues>
 VAL166  LYS551  ARG553  GLY616  TRP617  ASP618  TYR619  PRO620  LYS621  CYS622 
 ASP623  PHE694  ASN695  SER759  ASP760  ASP761  ALA762  ILE779  LEU786  VAL792 
 PHE793  MET794  SER795  GLU796  ALA797  LYS798  CYS799  TRP800  GLU811  SER814 

> <Gold.Protein.RotatedAtoms>
  151.1505  135.0224  159.8665 H   0  0  0  0  0  0  0  0  0  0  0  0  # atno 6907 bound_to 6896
  152.5453  134.1395  159.8483 H   0  0  0  0  0  0  0  0  0  0  0  0  # atno 6908 bound_to 6896
  151.1479  133.4881  159.2628 H   0  0  0  0  0  0  0  0  0  0  0  0  # atno 6909 bound_to 6896
  145.4309  140.9555  143.2128 H   0  0  0  0  0  0  0  0  0  0  0  0  # atno 7974 bound_to 7965
  154.4263  140.1800  156.1356 H   0  0  0  0  0  0  0  0  0  0  0  0  # atno 8008 bound_to 7997
  156.0033  140.3358  155.6842 H   0  0  0  0  0  0  0  0  0  0  0  0  # atno 8009 bound_to 7997
  155.6213  140.0660  157.2668 H   0  0  0  0  0  0  0  0  0  0  0  0  # atno 8010 bound_to 7997
  140.0724  143.4864  152.1972 H   0  0  0  0  0  0  0  0  0  0  0  0  # atno 10167 bound_to 10162
  156.4552  130.4492  149.6964 H   0  0  0  0  0  0  0  0  0  0  0  0  # atno 10718 bound_to 10713
  154.6517  135.2912  154.9978 H   0  0  0  0  0  0  0  0  0  0  0  0  # atno 10763 bound_to 10752
  154.1069  135.6568  153.4882 H   0  0  0  0  0  0  0  0  0  0  0  0  # atno 10764 bound_to 10752
  153.0380  135.5256  154.7428 H   0  0  0  0  0  0  0  0  0  0  0  0  # atno 10765 bound_to 10752
  139.8833  134.9411  156.5872 H   0  0  0  0  0  0  0  0  0  0  0  0  # atno 11005 bound_to 11000
  144.8183  139.5837  143.6998 LP  0  0  0  0  0  0  0  0  0  0  0  0  # atno 17320 bound_to 7965
  146.2607  139.6404  142.9364 LP  0  0  0  0  0  0  0  0  0  0  0  0  # atno 17321 bound_to 7965
  139.5828  144.7518  151.3597 LP  0  0  0  0  0  0  0  0  0  0  0  0  # atno 17342 bound_to 10162
  140.7119  143.7369  150.7582 LP  0  0  0  0  0  0  0  0  0  0  0  0  # atno 17343 bound_to 10162
  156.3774  130.7561  151.2551 LP  0  0  0  0  0  0  0  0  0  0  0  0  # atno 17370 bound_to 10713
  157.7501  131.0305  150.4142 LP  0  0  0  0  0  0  0  0  0  0  0  0  # atno 17371 bound_to 10713
  140.7982  133.8526  155.8704 LP  0  0  0  0  0  0  0  0  0  0  0  0  # atno 17394 bound_to 11000
  140.9616  134.1648  157.4649 LP  0  0  0  0  0  0  0  0  0  0  0  0  # atno 17395 bound_to 11000

$$$$
