AV-unprocessed.smi:1735|AV-procd|sdf|6988|dock2
  -GOLD-   22720 8203D 1   1.00000     0.00000
 Structure written by MMmdl.
 32 33  0  0  0  0  0  0  0  0  1 V2000
  147.3926  132.7617  154.5647 O   0  0  0  0  0  0  0  0  0  0  0  0
  147.7758  133.6602  153.8151 C   0  0  0  0  0  0  0  0  0  0  0  0
  148.8038  134.4879  154.0645 N   0  0  0  0  0  0  0  0  0  0  0  0
  149.6359  134.5058  155.2126 C   0  0  0  0  0  0  0  0  0  0  0  0
  149.5063  133.6247  156.3202 C   0  0  0  0  0  0  0  0  0  0  0  0
  150.4226  133.8723  157.2452 N   0  0  0  0  0  0  0  0  0  0  0  0
  151.1358  134.9033  156.7385 N   0  0  0  0  0  0  0  0  0  0  0  0
  150.6928  135.3222  155.5033 C   0  0  0  0  0  0  0  0  0  0  0  0
  147.2075  133.9323  152.6315 N   0  0  0  0  0  0  0  0  0  0  0  0
  146.0646  133.2243  152.0623 C   0  0  2  0  0  0  0  0  0  0  0  0
  146.4668  132.4944  150.7635 C   0  0  0  0  0  0  0  0  0  0  0  0
  145.2580  131.8063  150.1087 C   0  0  0  0  0  0  0  0  0  0  0  0
  144.1212  132.8095  149.8485 C   0  0  1  0  0  0  0  0  0  0  0  0
  143.0053  132.1307  149.3123 O   0  0  0  0  0  0  0  0  0  0  0  0
  143.7117  133.5304  151.1444 C   0  0  0  0  0  0  0  0  0  0  0  0
  144.9198  134.2208  151.7978 C   0  0  0  0  0  0  0  0  0  0  0  0
  151.9142  135.3055  157.2415 H   0  0  0  0  0  0  0  0  0  0  0  0
  149.0128  135.1798  153.3597 H   0  0  0  0  0  0  0  0  0  0  0  0
  148.7930  132.8295  156.4804 H   0  0  0  0  0  0  0  0  0  0  0  0
  151.1588  136.1355  154.9670 H   0  0  0  0  0  0  0  0  0  0  0  0
  147.5907  134.6891  152.0844 H   0  0  0  0  0  0  0  0  0  0  0  0
  145.7095  132.4867  152.7849 H   0  0  0  0  0  0  0  0  0  0  0  0
  146.9032  133.2049  150.0599 H   0  0  0  0  0  0  0  0  0  0  0  0
  147.2389  131.7525  150.9707 H   0  0  0  0  0  0  0  0  0  0  0  0
  145.5638  131.3346  149.1740 H   0  0  0  0  0  0  0  0  0  0  0  0
  144.9045  131.0050  150.7594 H   0  0  0  0  0  0  0  0  0  0  0  0
  144.4497  133.5460  149.1140 H   0  0  0  0  0  0  0  0  0  0  0  0
  142.2633  132.7159  149.3231 H   0  0  0  0  0  0  0  0  0  0  0  0
  142.9352  134.2670  150.9346 H   0  0  0  0  0  0  0  0  0  0  0  0
  143.2797  132.8164  151.8472 H   0  0  0  0  0  0  0  0  0  0  0  0
  144.6110  134.6923  152.7315 H   0  0  0  0  0  0  0  0  0  0  0  0
  145.2702  135.0236  151.1474 H   0  0  0  0  0  0  0  0  0  0  0  0
  1  2  2  0  0  0  0
  2  3  1  0  0  0  0
  2  9  1  0  0  0  0
  3  4  1  0  0  0  0
  3 18  1  0  0  0  0
  4  8  2  0  0  0  0
  4  5  1  0  0  0  0
  5  6  2  0  0  0  0
  5 19  1  0  0  0  0
  6  7  1  0  0  0  0
  7 17  1  0  0  0  0
  7  8  1  0  0  0  0
  8 20  1  0  0  0  0
  9 10  1  0  0  0  0
  9 21  1  0  0  0  0
 10 16  1  0  0  0  0
 10 11  1  0  0  0  0
 10 22  1  0  0  0  0
 11 12  1  0  0  0  0
 11 23  1  0  0  0  0
 11 24  1  0  0  0  0
 12 13  1  0  0  0  0
 12 25  1  0  0  0  0
 12 26  1  0  0  0  0
 13 14  1  0  0  0  0
 13 15  1  0  0  0  0
 13 27  1  0  0  0  0
 14 28  1  0  0  0  0
 15 16  1  0  0  0  0
 15 29  1  0  0  0  0
 15 30  1  0  0  0  0
 16 31  1  0  0  0  0
 16 32  1  0  0  0  0
M  END
> <s_m_source_file>
AV-unprocessed.smi

> <i_m_source_file_index>
1735

> <i_lp_mmshare_version>
43012

> <i_f3d_flags>
0

> <s_epik_input>
W2NIXTFbbkhdbltjSF1jMVtOSF1DKD1PKVtOSF1bQ0BASF0yW0NIMl1bQ0gyXVtDQEBIXShbT0hdKVtDSDJdW0NIMl0y

> <s_epik_cmdline>
J2VwaWtfcHl0aG9uJywgJy1waCcsICc3LjAnLCAnLXRuJywgJzgnLCAnLW1hJywgJzIwMCcsICctbWV0YWxfYmluZGluZycsICctaW1hZScsICc8aW5maWxlLm1hZT4nLCAnLW9tYWUnLCAnPG91dGZpbGUubWFlPic=

> <r_lp_tautomer_probability>
1

> <r_epik_Ionization_Penalty>
5.59555e-05

> <r_epik_Ionization_Penalty_Charging>
0

> <r_epik_Ionization_Penalty_Neutral>
5.59555e-05

> <r_epik_State_Penalty>
-0

> <r_epik_Charging_Adjusted_Penalty>
0

> <i_epik_Tot_Q>
0

> <i_epik_Tot_abs_Q>
0

> <r_epik_Metal_State_Penalty>
-0

> <b_epik_Metal_Only>
0

> <s_lp_Force_Field>
OPLS_2005

> <r_lp_Energy>
10.2998

> <b_lp_Chiralities_Consistent>
1

> <s_lp_Variant>
AV-unprocessed.smi:1735-1

> <Gold.Version>
5.8.1

> <Gold.Id.Protein>
6NUR|6NUR_protein|mol2

> <Gold.PLP.Fitness>
40.8567

> <Gold.PLP.PLP>
-27.4752

> <Gold.PLP.part.hbond>
-5.8988

> <Gold.PLP.part.metal>
0.0000

> <Gold.PLP.part.buried>
-4.3007

> <Gold.PLP.part.nonpolar>
-18.9007

> <Gold.PLP.part.repulsive>
0.1924

> <Gold.PLP.ligand.clash>
0.0000

> <Gold.PLP.ligand.torsion>
0.0110

> <Gold.PLP.Chemscore.Hbond>
4.4668

> <Gold.PLP.Chemscore.CHOScore>
0.0000

> <Gold.PLP.Chemscore.Metal>
0.0000

> <Gold.Chemscore.Hbonds>
donor molecule, donor type, donor heavy atom, donor atom, acceptor molecule, acceptor atom, score
      L1  H     3    18       P1  7948  1.00
      L1  H     9    21       P1  7948  1.00
      L1  H    14    28       P1 10186  0.78
      P1  H  6896  6909       L1     6  0.76
      P1  H 10785 10796       L1    14  0.88

> <Gold.PLP.Chemscore.Internal.Correction>
0.0032

> <Gold.Rescore>
     Score         DG    S(hbond)    S(metal)    S(lipo)     H(rot)  DE(clash)    DE(int)     intcor
     19.61     -20.98       3.78        0.00      57.76       1.51       0.06       1.31       ----

> <Gold.Chemscore.Fitness>
19.6143

> <Gold.Chemscore.DG>
-20.9777

> <Gold.Chemscore.ZeroCoef>
-5.4800

> <Gold.Chemscore.Hbond>
3.7768

> <Gold.Chemscore.Metal>
0.0000

> <Gold.Chemscore.Lipo>
57.7586

> <Gold.Chemscore.Internal_Hbond>
0.0000

> <Gold.Chemscore.DEClash>
0.0551

> <Gold.Chemscore.DEInternal>
1.3083

> <Gold.Chemscore.Rot>
1.5135

> <Gold.Chemscore.Internal.Correction>
   9.000000E+99

> <Gold.Chemscore.Hbonds>
donor molecule, donor type, donor heavy atom, donor atom, acceptor molecule, acceptor atom, score
      L1  H     3    18       P1  7948  0.40
      L1  H     9    21       P1  7948  0.62
      L1  H    14    28       P1 10186  0.77
      P1  H  6896  6909       L1     6  0.48
      P1  H 10785 10796       L1    14  0.83

> <Gold.Chemscore.Hbond.Weighted>
-12.6144

> <Gold.Chemscore.Metal.Weighted>
-0.0000

> <Gold.Chemscore.Lipo.Weighted>
-6.7578

> <Gold.Chemscore.Internal_Hbond.Weighted>
0.0000

> <Gold.Chemscore.DEClash.Weighted>
0.0551

> <Gold.Chemscore.DEInternal.Weighted>
1.3083

> <Gold.Chemscore.Rot.Weighted>
3.8745

> <Gold.Chemscore.Internal.Correction.Weighted>
   9.000000E+99

> <Gold.Protein.RotatedTorsions>
[ 6907 6896 6895 6894 ] final   -7.92 input  -60.11 | X-H torsion
[ 7974 7965 7964 7962 ] final -100.12 input  175.53 | X-H torsion
[ 8008 7997 7996 7995 ] final -155.59 input   59.86 | X-H torsion
[ 10167 10162 10161 10158 ] final  -50.04 input  -65.29 | X-H torsion
[ 10718 10713 10712 10709 ] final  -54.07 input   66.30 | X-H torsion
[ 10763 10752 10751 10750 ] final  -25.78 input  -60.55 | X-H torsion
[ 11005 11000 10999 10996 ] final  -66.02 input  -57.11 | X-H torsion

> <Gold.Protein.ActiveResidues>
 VAL166  LYS551  ARG553  GLY616  TRP617  ASP618  TYR619  PRO620  LYS621  CYS622 
 ASP623  PHE694  ASN695  SER759  ASP760  ASP761  ALA762  ILE779  LEU786  VAL792 
 PHE793  MET794  SER795  GLU796  ALA797  LYS798  CYS799  TRP800  GLU811  SER814 

> <Gold.Protein.RotatedAtoms>
  151.4419  135.1021  159.9672 H   0  0  0  0  0  0  0  0  0  0  0  0  # atno 6907 bound_to 6896
  152.4919  133.8520  159.7217 H   0  0  0  0  0  0  0  0  0  0  0  0  # atno 6908 bound_to 6896
  150.9082  133.6972  159.2889 H   0  0  0  0  0  0  0  0  0  0  0  0  # atno 6909 bound_to 6896
  145.2987  140.9372  143.2836 H   0  0  0  0  0  0  0  0  0  0  0  0  # atno 7974 bound_to 7965
  155.7041  140.0770  157.2398 H   0  0  0  0  0  0  0  0  0  0  0  0  # atno 8008 bound_to 7997
  154.4068  140.1642  156.2277 H   0  0  0  0  0  0  0  0  0  0  0  0  # atno 8009 bound_to 7997
  155.9341  140.3389  155.6276 H   0  0  0  0  0  0  0  0  0  0  0  0  # atno 8010 bound_to 7997
  140.6657  143.2673  151.4302 H   0  0  0  0  0  0  0  0  0  0  0  0  # atno 10167 bound_to 10162
  156.1482  130.4152  149.9989 H   0  0  0  0  0  0  0  0  0  0  0  0  # atno 10718 bound_to 10713
  153.7053  135.6954  153.5052 H   0  0  0  0  0  0  0  0  0  0  0  0  # atno 10763 bound_to 10752
  153.2312  135.4337  155.0597 H   0  0  0  0  0  0  0  0  0  0  0  0  # atno 10764 bound_to 10752
  154.8332  135.3485  154.6591 H   0  0  0  0  0  0  0  0  0  0  0  0  # atno 10765 bound_to 10752
  141.1471  133.6692  156.6076 H   0  0  0  0  0  0  0  0  0  0  0  0  # atno 11005 bound_to 11000
  144.9112  139.4527  143.6586 LP  0  0  0  0  0  0  0  0  0  0  0  0  # atno 17320 bound_to 7965
  146.3159  139.7920  142.8983 LP  0  0  0  0  0  0  0  0  0  0  0  0  # atno 17321 bound_to 7965
  139.5904  144.1511  152.2082 LP  0  0  0  0  0  0  0  0  0  0  0  0  # atno 17342 bound_to 10162
  140.0863  144.5658  150.7086 LP  0  0  0  0  0  0  0  0  0  0  0  0  # atno 17343 bound_to 10162
  156.7855  130.9237  151.3646 LP  0  0  0  0  0  0  0  0  0  0  0  0  # atno 17370 bound_to 10713
  157.6634  130.8986  149.9880 LP  0  0  0  0  0  0  0  0  0  0  0  0  # atno 17371 bound_to 10713
  140.3640  134.7663  157.4553 LP  0  0  0  0  0  0  0  0  0  0  0  0  # atno 17394 bound_to 11000
  140.0763  134.5793  155.8588 LP  0  0  0  0  0  0  0  0  0  0  0  0  # atno 17395 bound_to 11000

$$$$
