AV-unprocessed.smi:2351|AV-procd|sdf|9376|dock6
  -GOLD-   2272013 03D 1   1.00000     0.00000
 Structure written by MMmdl.
 47 49  0  0  0  0  0  0  0  0  2 V2000
  144.4527  136.3628  152.7560 O   0  0  0  0  0  0  0  0  0  0  0  0
  145.6082  136.3558  152.3336 C   0  0  0  0  0  0  0  0  0  0  0  0
  146.1612  135.3870  151.5838 N   0  0  0  0  0  0  0  0  0  0  0  0
  145.5856  134.1678  151.1307 C   0  0  0  0  0  0  0  0  0  0  0  0
  144.2522  134.0347  150.6727 C   0  0  0  0  0  0  0  0  0  0  0  0
  143.8112  132.7685  150.2383 C   0  0  0  0  0  0  0  0  0  0  0  0
  144.5955  131.6700  150.2278 N   0  0  0  0  0  0  0  0  0  0  0  0
  145.8695  131.8033  150.6529 C   0  0  0  0  0  0  0  0  0  0  0  0
  146.4103  133.0230  151.1069 C   0  0  0  0  0  0  0  0  0  0  0  0
  147.7003  133.0887  151.5169 F   0  0  0  0  0  0  0  0  0  0  0  0
  146.4920  137.3312  152.5919 N   0  0  0  0  0  0  0  0  0  0  0  0
  146.2226  138.5294  153.3871 C   0  0  2  0  0  0  0  0  0  0  0  0
  147.3774  139.5363  153.2514 C   0  0  0  0  0  0  0  0  0  0  0  0
  148.6473  139.0622  153.9824 C   0  0  0  0  0  0  0  0  0  0  0  0
  148.3728  138.7685  155.4131 N   0  3  2  0  0  0  0  0  0  0  0  0
  149.6121  138.4414  156.1642 C   0  0  0  0  0  0  0  0  0  0  0  0
  150.8572  139.1592  155.6066 C   0  0  2  0  0  0  0  0  0  0  0  0
  151.5438  138.4332  154.4659 C   0  0  0  0  0  0  0  0  0  0  0  0
  152.9339  139.0625  154.4765 C   0  0  0  0  0  0  0  0  0  0  0  0
  153.1825  139.4381  155.8285 O   0  0  0  0  0  0  0  0  0  0  0  0
  152.0056  139.2618  156.6100 C   0  0  0  0  0  0  0  0  0  0  0  0
  147.3028  137.7472  155.5656 C   0  0  0  0  0  0  0  0  0  0  0  0
  146.0030  138.1980  154.8769 C   0  0  0  0  0  0  0  0  0  0  0  0
  147.1398  135.5012  151.3643 H   0  0  0  0  0  0  0  0  0  0  0  0
  143.5673  134.8672  150.6336 H   0  0  0  0  0  0  0  0  0  0  0  0
  142.7994  132.6362  149.8841 H   0  0  0  0  0  0  0  0  0  0  0  0
  146.4777  130.9109  150.6298 H   0  0  0  0  0  0  0  0  0  0  0  0
  147.4183  137.2435  152.2001 H   0  0  0  0  0  0  0  0  0  0  0  0
  145.3178  138.9947  152.9913 H   0  0  0  0  0  0  0  0  0  0  0  0
  147.5971  139.7227  152.1993 H   0  0  0  0  0  0  0  0  0  0  0  0
  147.0656  140.4949  153.6685 H   0  0  0  0  0  0  0  0  0  0  0  0
  149.0553  138.1733  153.4991 H   0  0  0  0  0  0  0  0  0  0  0  0
  149.4088  139.8393  153.9063 H   0  0  0  0  0  0  0  0  0  0  0  0
  149.4742  138.6817  157.2195 H   0  0  0  0  0  0  0  0  0  0  0  0
  149.7882  137.3656  156.1180 H   0  0  0  0  0  0  0  0  0  0  0  0
  150.6075  140.1702  155.2835 H   0  0  0  0  0  0  0  0  0  0  0  0
  151.6159  137.3659  154.6803 H   0  0  0  0  0  0  0  0  0  0  0  0
  151.0331  138.5550  153.5102 H   0  0  0  0  0  0  0  0  0  0  0  0
  153.7001  138.3821  154.1043 H   0  0  0  0  0  0  0  0  0  0  0  0
  152.9504  139.9617  153.8594 H   0  0  0  0  0  0  0  0  0  0  0  0
  151.8713  140.0800  157.3181 H   0  0  0  0  0  0  0  0  0  0  0  0
  152.1088  138.3367  157.1793 H   0  0  0  0  0  0  0  0  0  0  0  0
  147.6405  136.7963  155.1511 H   0  0  0  0  0  0  0  0  0  0  0  0
  147.0920  137.5715  156.6196 H   0  0  0  0  0  0  0  0  0  0  0  0
  145.6217  139.0843  155.3858 H   0  0  0  0  0  0  0  0  0  0  0  0
  145.2338  137.4341  154.9950 H   0  0  0  0  0  0  0  0  0  0  0  0
  148.0184  139.6264  155.8114 H   0  0  0  0  0  0  0  0  0  0  0  0
  1  2  2  0  0  0  0
  2  3  1  0  0  0  0
  2 11  1  0  0  0  0
  3  4  1  0  0  0  0
  3 24  1  0  0  0  0
  4  9  1  0  0  0  0
  4  5  2  0  0  0  0
  5  6  1  0  0  0  0
  5 25  1  0  0  0  0
  6  7  2  0  0  0  0
  6 26  1  0  0  0  0
  7  8  1  0  0  0  0
  8  9  2  0  0  0  0
  8 27  1  0  0  0  0
  9 10  1  0  0  0  0
 11 12  1  0  0  0  0
 11 28  1  0  0  0  0
 12 23  1  0  0  0  0
 12 13  1  0  0  0  0
 12 29  1  0  0  0  0
 13 14  1  0  0  0  0
 13 30  1  0  0  0  0
 13 31  1  0  0  0  0
 14 15  1  0  0  0  0
 14 32  1  0  0  0  0
 14 33  1  0  0  0  0
 15 16  1  0  0  0  0
 15 22  1  0  0  0  0
 15 47  1  0  0  0  0
 16 17  1  0  0  0  0
 16 34  1  0  0  0  0
 16 35  1  0  0  0  0
 17 21  1  0  0  0  0
 17 18  1  0  0  0  0
 17 36  1  0  0  0  0
 18 19  1  0  0  0  0
 18 37  1  0  0  0  0
 18 38  1  0  0  0  0
 19 20  1  0  0  0  0
 19 39  1  0  0  0  0
 19 40  1  0  0  0  0
 20 21  1  0  0  0  0
 21 41  1  0  0  0  0
 21 42  1  0  0  0  0
 22 23  1  0  0  0  0
 22 43  1  0  0  0  0
 22 44  1  0  0  0  0
 23 45  1  0  0  0  0
 23 46  1  0  0  0  0
M  CHG  1  15   1
M  END
> <s_m_source_file>
AV-unprocessed.smi

> <i_m_source_file_index>
2351

> <i_lp_mmshare_version>
43012

> <i_f3d_flags>
0

> <s_epik_input>
RmMxW2NIXW5bY0hdW2NIXWMxW05IXUMoPU8pW05IXVtDSF0yW0NIMl1bQ0gyXU4oW0NIMl1bQ0gyXTIpW0NIMl1bQ0BASF0zW0NIMl1bQ0gyXU9bQ0gyXTM=

> <s_epik_cmdline>
J2VwaWtfcHl0aG9uJywgJy1waCcsICc3LjAnLCAnLXRuJywgJzgnLCAnLW1hJywgJzIwMCcsICctbWV0YWxfYmluZGluZycsICctaW1hZScsICc8aW5maWxlLm1hZT4nLCAnLW9tYWUnLCAnPG91dGZpbGUubWFlPic=

> <r_epik_Ionization_Penalty>
0.0102464

> <r_epik_Ionization_Penalty_Charging>
0.00747775

> <r_epik_Ionization_Penalty_Neutral>
0.00276864

> <r_epik_State_Penalty>
0.00558817

> <r_epik_Charging_Adjusted_Penalty>
0.0130659

> <i_epik_Tot_Q>
1

> <i_epik_Tot_abs_Q>
1

> <r_epik_Metal_State_Penalty>
-0

> <b_epik_Metal_Only>
0

> <s_lp_Force_Field>
OPLS_2005

> <r_lp_Energy>
39.3269

> <b_lp_Chiralities_Consistent>
1

> <s_lp_Variant>
AV-unprocessed.smi:2351-3

> <Gold.Version>
5.8.1

> <Gold.Id.Protein>
6NUR|6NUR_protein|mol2

> <Gold.PLP.Fitness>
45.2301

> <Gold.PLP.PLP>
-32.9093

> <Gold.PLP.part.hbond>
-3.2467

> <Gold.PLP.part.metal>
0.0000

> <Gold.PLP.part.buried>
-2.1306

> <Gold.PLP.part.nonpolar>
-27.6261

> <Gold.PLP.part.repulsive>
0.3669

> <Gold.PLP.ligand.clash>
0.2075

> <Gold.PLP.ligand.torsion>
0.9237

> <Gold.PLP.Chemscore.Hbond>
3.0000

> <Gold.PLP.Chemscore.CHOScore>
1.7831

> <Gold.PLP.Chemscore.Metal>
0.0000

> <Gold.Chemscore.Hbonds>
donor molecule, donor type, donor heavy atom, donor atom, acceptor molecule, acceptor atom, score
      L1  H     3    24       P1  7948  1.00
      L1  H    11    28       P1  7948  1.00
      P1  H  7997  8009       L1    20  0.73
      L1  C     6    26       P1 10186  0.93
      L1  C     8    27       P1 10747  0.92

> <Gold.PLP.Chemscore.Internal.Correction>
0.0264

> <Gold.Rescore>
     Score         DG    S(hbond)    S(metal)    S(lipo)     H(rot)  DE(clash)    DE(int)     intcor
     18.83     -21.21       2.76        0.00      87.35       1.45       0.33       2.05       ----

> <Gold.Chemscore.Fitness>
18.8304

> <Gold.Chemscore.DG>
-21.2135

> <Gold.Chemscore.ZeroCoef>
-5.4800

> <Gold.Chemscore.Hbond>
2.7610

> <Gold.Chemscore.Metal>
0.0000

> <Gold.Chemscore.Lipo>
87.3453

> <Gold.Chemscore.Internal_Hbond>
0.0000

> <Gold.Chemscore.DEClash>
0.3343

> <Gold.Chemscore.DEInternal>
2.0487

> <Gold.Chemscore.Rot>
1.4483

> <Gold.Chemscore.Internal.Correction>
   9.000000E+99

> <Gold.Chemscore.Hbonds>
donor molecule, donor type, donor heavy atom, donor atom, acceptor molecule, acceptor atom, score
      L1  H     3    24       P1  7948  0.90
      L1  H    11    28       P1  7948  0.95
      P1  H  7997  8009       L1    20  0.66

> <Gold.Chemscore.Hbond.Weighted>
-9.2218

> <Gold.Chemscore.Metal.Weighted>
-0.0000

> <Gold.Chemscore.Lipo.Weighted>
-10.2194

> <Gold.Chemscore.Internal_Hbond.Weighted>
0.0000

> <Gold.Chemscore.DEClash.Weighted>
0.3343

> <Gold.Chemscore.DEInternal.Weighted>
2.0487

> <Gold.Chemscore.Rot.Weighted>
3.7077

> <Gold.Chemscore.Internal.Correction.Weighted>
   9.000000E+99

> <Gold.Protein.RotatedTorsions>
[ 6907 6896 6895 6894 ] final  124.31 input  -60.11 | X-H torsion
[ 7974 7965 7964 7962 ] final  167.36 input  175.53 | X-H torsion
[ 8008 7997 7996 7995 ] final -144.09 input   59.86 | X-H torsion
[ 10167 10162 10161 10158 ] final   -9.81 input  -65.29 | X-H torsion
[ 10718 10713 10712 10709 ] final  -25.86 input   66.30 | X-H torsion
[ 10763 10752 10751 10750 ] final -128.28 input  -60.55 | X-H torsion
[ 11005 11000 10999 10996 ] final    6.15 input  -57.11 | X-H torsion

> <Gold.Protein.ActiveResidues>
 VAL166  LYS551  ARG553  GLY616  TRP617  ASP618  TYR619  PRO620  LYS621  CYS622 
 ASP623  PHE694  ASN695  SER759  ASP760  ASP761  ALA762  ILE779  LEU786  VAL792 
 PHE793  MET794  SER795  GLU796  ALA797  LYS798  CYS799  TRP800  GLU811  SER814 

> <Gold.Protein.RotatedAtoms>
  152.4089  133.6932  159.6380 H   0  0  0  0  0  0  0  0  0  0  0  0  # atno 6907 bound_to 6896
  150.7971  133.8659  159.3254 H   0  0  0  0  0  0  0  0  0  0  0  0  # atno 6908 bound_to 6896
  151.6407  135.1015  160.0192 H   0  0  0  0  0  0  0  0  0  0  0  0  # atno 6909 bound_to 6896
  144.7427  139.8750  143.6392 H   0  0  0  0  0  0  0  0  0  0  0  0  # atno 7974 bound_to 7965
  155.5212  140.0591  157.2906 H   0  0  0  0  0  0  0  0  0  0  0  0  # atno 8008 bound_to 7997
  154.4517  140.1952  156.0446 H   0  0  0  0  0  0  0  0  0  0  0  0  # atno 8009 bound_to 7997
  156.0717  140.3259  155.7588 H   0  0  0  0  0  0  0  0  0  0  0  0  # atno 8010 bound_to 7997
  140.7097  143.5817  150.8985 H   0  0  0  0  0  0  0  0  0  0  0  0  # atno 10167 bound_to 10162
  156.4588  130.4499  149.6942 H   0  0  0  0  0  0  0  0  0  0  0  0  # atno 10718 bound_to 10713
  154.8756  135.3934  154.3731 H   0  0  0  0  0  0  0  0  0  0  0  0  # atno 10763 bound_to 10752
  153.4488  135.7028  153.6127 H   0  0  0  0  0  0  0  0  0  0  0  0  # atno 10764 bound_to 10752
  153.4676  135.3797  155.2342 H   0  0  0  0  0  0  0  0  0  0  0  0  # atno 10765 bound_to 10752
  140.5627  134.0177  155.7978 H   0  0  0  0  0  0  0  0  0  0  0  0  # atno 11005 bound_to 11000
  146.1253  139.4278  143.0203 LP  0  0  0  0  0  0  0  0  0  0  0  0  # atno 17320 bound_to 7965
  145.7244  141.0064  143.1385 LP  0  0  0  0  0  0  0  0  0  0  0  0  # atno 17321 bound_to 7965
  139.9543  143.6236  152.3020 LP  0  0  0  0  0  0  0  0  0  0  0  0  # atno 17342 bound_to 10162
  139.6766  144.7658  151.1685 LP  0  0  0  0  0  0  0  0  0  0  0  0  # atno 17343 bound_to 10162
  156.3738  130.7544  151.2530 LP  0  0  0  0  0  0  0  0  0  0  0  0  # atno 17370 bound_to 10713
  157.7499  131.0315  150.4186 LP  0  0  0  0  0  0  0  0  0  0  0  0  # atno 17371 bound_to 10713
  141.1104  133.9625  157.2920 LP  0  0  0  0  0  0  0  0  0  0  0  0  # atno 17394 bound_to 11000
  139.9400  135.0192  156.8677 LP  0  0  0  0  0  0  0  0  0  0  0  0  # atno 17395 bound_to 11000

$$$$
