AV-unprocessed.smi:2928|AV-procd|sdf|11236|dock8
  -GOLD-   2272016133D 1   1.00000     0.00000
 Structure written by MMmdl.
 56 59  0  0  0  0  0  0  0  0  3 V2000
  147.6728  141.9301  153.9905 C   0  0  0  0  0  0  0  0  0  0  0  0
  148.4790  141.8427  155.2314 N   0  3  2  0  0  0  0  0  0  0  0  0
  149.8960  141.4550  155.0285 C   0  0  1  0  0  0  0  0  0  0  0  0
  150.7023  141.8262  156.2952 C   0  0  0  0  0  0  0  0  0  0  0  0
  150.1107  141.2549  157.5998 C   0  0  0  0  0  0  0  0  0  0  0  0
  148.5730  141.3690  157.6490 C   0  0  0  0  0  0  0  0  0  0  0  0
  147.8760  141.0245  156.3116 C   0  0  2  0  0  0  0  0  0  0  0  0
  147.8797  139.5187  155.9457 C   0  0  0  0  0  0  0  0  0  0  0  0
  149.2514  138.9700  155.4905 C   0  0  1  0  0  0  0  0  0  0  0  0
  149.0508  137.7083  154.7804 N   0  0  0  0  0  0  0  0  0  0  0  0
  149.3534  136.4937  155.2620 C   0  0  0  0  0  0  0  0  0  0  0  0
  149.8574  136.3055  156.3690 O   0  0  0  0  0  0  0  0  0  0  0  0
  149.0569  135.5275  154.3770 N   0  0  0  0  0  0  0  0  0  0  0  0
  149.2559  134.1256  154.5228 C   0  0  0  0  0  0  0  0  0  0  0  0
  150.2638  133.6168  155.3816 C   0  0  0  0  0  0  0  0  0  0  0  0
  150.3935  132.2277  155.5675 C   0  0  0  0  0  0  0  0  0  0  0  0
  149.5021  131.3668  154.9050 C   0  0  0  0  0  0  0  0  0  0  0  0
  148.5464  131.8816  154.1042 N   0  3  0  0  0  0  0  0  0  0  0  0
  148.3804  133.2080  153.8725 C   0  0  0  0  0  0  0  0  0  0  0  0
  147.3442  133.6012  152.9953 N   0  0  0  0  0  0  0  0  0  0  0  0
  145.9476  133.4147  153.3716 C   0  0  0  0  0  0  0  0  0  0  0  0
  145.1612  133.5993  152.0768 C   0  0  0  0  0  0  0  0  0  0  0  0
  146.1034  133.0076  151.0329 C   0  0  0  0  0  0  0  0  0  0  0  0
  147.4986  133.3502  151.5655 C   0  0  0  0  0  0  0  0  0  0  0  0
  150.0177  139.9731  154.5928 C   0  0  0  0  0  0  0  0  0  0  0  0
  147.5653  140.9645  153.4972 H   0  0  0  0  0  0  0  0  0  0  0  0
  148.1369  142.6193  153.2844 H   0  0  0  0  0  0  0  0  0  0  0  0
  146.6748  142.3087  154.2117 H   0  0  0  0  0  0  0  0  0  0  0  0
  150.2963  142.0665  154.2185 H   0  0  0  0  0  0  0  0  0  0  0  0
  151.7428  141.5174  156.1898 H   0  0  0  0  0  0  0  0  0  0  0  0
  150.7223  142.9135  156.3794 H   0  0  0  0  0  0  0  0  0  0  0  0
  150.4201  140.2222  157.7357 H   0  0  0  0  0  0  0  0  0  0  0  0
  150.5406  141.7808  158.4529 H   0  0  0  0  0  0  0  0  0  0  0  0
  148.1775  140.7513  158.4559 H   0  0  0  0  0  0  0  0  0  0  0  0
  148.3176  142.3970  157.9096 H   0  0  0  0  0  0  0  0  0  0  0  0
  146.8341  141.3298  156.4192 H   0  0  0  0  0  0  0  0  0  0  0  0
  147.5080  138.9309  156.7860 H   0  0  0  0  0  0  0  0  0  0  0  0
  147.1535  139.3651  155.1463 H   0  0  0  0  0  0  0  0  0  0  0  0
  149.8440  138.7502  156.3753 H   0  0  0  0  0  0  0  0  0  0  0  0
  148.6403  137.7654  153.8597 H   0  0  0  0  0  0  0  0  0  0  0  0
  148.7454  135.8328  153.4664 H   0  0  0  0  0  0  0  0  0  0  0  0
  150.9280  134.2755  155.9209 H   0  0  0  0  0  0  0  0  0  0  0  0
  151.1578  131.8306  156.2196 H   0  0  0  0  0  0  0  0  0  0  0  0
  149.5209  130.2900  154.9928 H   0  0  0  0  0  0  0  0  0  0  0  0
  145.7858  132.4071  153.7574 H   0  0  0  0  0  0  0  0  0  0  0  0
  145.6423  134.1306  154.1356 H   0  0  0  0  0  0  0  0  0  0  0  0
  144.1854  133.1130  152.0982 H   0  0  0  0  0  0  0  0  0  0  0  0
  145.0081  134.6614  151.8805 H   0  0  0  0  0  0  0  0  0  0  0  0
  145.9784  131.9244  151.0003 H   0  0  0  0  0  0  0  0  0  0  0  0
  145.9259  133.3960  150.0297 H   0  0  0  0  0  0  0  0  0  0  0  0
  147.8670  134.2582  151.0874 H   0  0  0  0  0  0  0  0  0  0  0  0
  148.2080  132.5465  151.3626 H   0  0  0  0  0  0  0  0  0  0  0  0
  149.6430  139.8896  153.5717 H   0  0  0  0  0  0  0  0  0  0  0  0
  151.0695  139.6905  154.5344 H   0  0  0  0  0  0  0  0  0  0  0  0
  148.5038  142.7878  155.5877 H   0  0  0  0  0  0  0  0  0  0  0  0
  147.9144  131.2308  153.6379 H   0  0  0  0  0  0  0  0  0  0  0  0
  1  2  1  0  0  0  0
  1 26  1  0  0  0  0
  1 27  1  0  0  0  0
  1 28  1  0  0  0  0
  2  7  1  0  0  0  0
  2  3  1  0  0  0  0
  2 55  1  0  0  0  0
  3 25  1  0  0  0  0
  3  4  1  0  0  0  0
  3 29  1  0  0  0  0
  4  5  1  0  0  0  0
  4 30  1  0  0  0  0
  4 31  1  0  0  0  0
  5  6  1  0  0  0  0
  5 32  1  0  0  0  0
  5 33  1  0  0  0  0
  6  7  1  0  0  0  0
  6 34  1  0  0  0  0
  6 35  1  0  0  0  0
  7  8  1  0  0  0  0
  7 36  1  0  0  0  0
  8  9  1  0  0  0  0
  8 37  1  0  0  0  0
  8 38  1  0  0  0  0
  9 10  1  0  0  0  0
  9 25  1  0  0  0  0
  9 39  1  0  0  0  0
 10 11  1  0  0  0  0
 10 40  1  0  0  0  0
 11 12  2  0  0  0  0
 11 13  1  0  0  0  0
 13 14  1  0  0  0  0
 13 41  1  0  0  0  0
 14 19  1  0  0  0  0
 14 15  2  0  0  0  0
 15 16  1  0  0  0  0
 15 42  1  0  0  0  0
 16 17  2  0  0  0  0
 16 43  1  0  0  0  0
 17 18  1  0  0  0  0
 17 44  1  0  0  0  0
 18 19  2  0  0  0  0
 18 56  1  0  0  0  0
 19 20  1  0  0  0  0
 20 24  1  0  0  0  0
 20 21  1  0  0  0  0
 21 22  1  0  0  0  0
 21 45  1  0  0  0  0
 21 46  1  0  0  0  0
 22 23  1  0  0  0  0
 22 47  1  0  0  0  0
 22 48  1  0  0  0  0
 23 24  1  0  0  0  0
 23 49  1  0  0  0  0
 23 50  1  0  0  0  0
 24 51  1  0  0  0  0
 24 52  1  0  0  0  0
 25 53  1  0  0  0  0
 25 54  1  0  0  0  0
M  CHG  1   2   1
M  CHG  1  18   1
M  END
> <s_m_source_file>
AV-unprocessed.smi

> <i_m_source_file_index>
2928

> <i_lp_mmshare_version>
43012

> <i_f3d_flags>
0

> <s_epik_input>
W0NIMl0xW0NIMl1bQ0gyXVtDQEhdKE4oW0NIM10pW0NIXTEyKVtDSDJdW0NASF0oW0NIMl0yKVtOSF1DKD1PKVtOSF1jM1tjSF1bY0hdW2NIXW5jM040W0NIMl1bQ0gyXVtDSDJdW0NIMl00

> <s_epik_cmdline>
J2VwaWtfcHl0aG9uJywgJy1waCcsICc3LjAnLCAnLXRuJywgJzgnLCAnLW1hJywgJzIwMCcsICctbWV0YWxfYmluZGluZycsICctaW1hZScsICc8aW5maWxlLm1hZT4nLCAnLW9tYWUnLCAnPG91dGZpbGUubWFlPic=

> <r_lp_tautomer_probability>
0.999994

> <r_epik_Ionization_Penalty>
1.2404

> <r_epik_Ionization_Penalty_Charging>
1.24038

> <r_epik_Ionization_Penalty_Neutral>
1.86539e-05

> <r_epik_State_Penalty>
1.30821

> <r_epik_Charging_Adjusted_Penalty>
2.54859

> <i_epik_Tot_Q>
2

> <i_epik_Tot_abs_Q>
2

> <r_epik_Metal_State_Penalty>
1.3782

> <b_epik_Metal_Only>
0

> <s_lp_Force_Field>
OPLS_2005

> <r_lp_Energy>
72.136

> <b_lp_Chiralities_Consistent>
1

> <s_lp_Variant>
AV-unprocessed.smi:2928-6

> <Gold.Version>
5.8.1

> <Gold.Id.Protein>
6NUR|6NUR_protein|mol2

> <Gold.PLP.Fitness>
45.1675

> <Gold.PLP.PLP>
-36.8444

> <Gold.PLP.part.hbond>
-2.2015

> <Gold.PLP.part.metal>
0.0000

> <Gold.PLP.part.buried>
-4.0661

> <Gold.PLP.part.nonpolar>
-29.5084

> <Gold.PLP.part.repulsive>
0.2817

> <Gold.PLP.ligand.clash>
0.0000

> <Gold.PLP.ligand.torsion>
0.4668

> <Gold.PLP.Chemscore.Hbond>
2.9600

> <Gold.PLP.Chemscore.CHOScore>
0.0000

> <Gold.PLP.Chemscore.Metal>
0.0000

> <Gold.Chemscore.Hbonds>
donor molecule, donor type, donor heavy atom, donor atom, acceptor molecule, acceptor atom, score
      L1  H     2    55       P1  8028  2.00
      L1  H    13    41       P1  7948  1.00

> <Gold.PLP.Chemscore.Internal.Correction>
0.3766

> <Gold.Rescore>
     Score         DG    S(hbond)    S(metal)    S(lipo)     H(rot)  DE(clash)    DE(int)     intcor
     16.72     -18.65       1.91        0.00      84.03       1.19       0.21       1.73       ----

> <Gold.Chemscore.Fitness>
16.7166

> <Gold.Chemscore.DG>
-18.6536

> <Gold.Chemscore.ZeroCoef>
-5.4800

> <Gold.Chemscore.Hbond>
1.9112

> <Gold.Chemscore.Metal>
0.0000

> <Gold.Chemscore.Lipo>
84.0264

> <Gold.Chemscore.Internal_Hbond>
0.0000

> <Gold.Chemscore.DEClash>
0.2112

> <Gold.Chemscore.DEInternal>
1.7258

> <Gold.Chemscore.Rot>
1.1879

> <Gold.Chemscore.Internal.Correction>
   9.000000E+99

> <Gold.Chemscore.Hbonds>
donor molecule, donor type, donor heavy atom, donor atom, acceptor molecule, acceptor atom, score
      L1  H     2    55       P1  8028  0.98
      L1  H    13    41       P1  7948  0.96

> <Gold.Chemscore.Hbond.Weighted>
-6.3836

> <Gold.Chemscore.Metal.Weighted>
-0.0000

> <Gold.Chemscore.Lipo.Weighted>
-9.8311

> <Gold.Chemscore.Internal_Hbond.Weighted>
0.0000

> <Gold.Chemscore.DEClash.Weighted>
0.2112

> <Gold.Chemscore.DEInternal.Weighted>
1.7258

> <Gold.Chemscore.Rot.Weighted>
3.0410

> <Gold.Chemscore.Internal.Correction.Weighted>
   9.000000E+99

> <Gold.Protein.RotatedTorsions>
[ 6907 6896 6895 6894 ] final  -39.75 input  -60.11 | X-H torsion
[ 7974 7965 7964 7962 ] final -170.86 input  175.53 | X-H torsion
[ 8008 7997 7996 7995 ] final  100.05 input   59.86 | X-H torsion
[ 10167 10162 10161 10158 ] final  114.33 input  -65.29 | X-H torsion
[ 10718 10713 10712 10709 ] final  126.56 input   66.30 | X-H torsion
[ 10763 10752 10751 10750 ] final    7.40 input  -60.55 | X-H torsion
[ 11005 11000 10999 10996 ] final -128.14 input  -57.11 | X-H torsion

> <Gold.Protein.ActiveResidues>
 VAL166  LYS551  ARG553  GLY616  TRP617  ASP618  TYR619  PRO620  LYS621  CYS622 
 ASP623  PHE694  ASN695  SER759  ASP760  ASP761  ALA762  ILE779  LEU786  VAL792 
 PHE793  MET794  SER795  GLU796  ALA797  LYS798  CYS799  TRP800  GLU811  SER814 

> <Gold.Protein.RotatedAtoms>
  150.9866  134.9210  159.7875 H   0  0  0  0  0  0  0  0  0  0  0  0  # atno 6907 bound_to 6896
  152.5238  134.3338  159.9202 H   0  0  0  0  0  0  0  0  0  0  0  0  # atno 6908 bound_to 6896
  151.3344  133.3946  159.2700 H   0  0  0  0  0  0  0  0  0  0  0  0  # atno 6909 bound_to 6896
  144.7164  140.2009  143.6338 H   0  0  0  0  0  0  0  0  0  0  0  0  # atno 7974 bound_to 7965
  156.1165  140.3219  155.8147 H   0  0  0  0  0  0  0  0  0  0  0  0  # atno 8008 bound_to 7997
  155.4581  140.0537  157.3011 H   0  0  0  0  0  0  0  0  0  0  0  0  # atno 8009 bound_to 7997
  154.4796  140.2047  155.9808 H   0  0  0  0  0  0  0  0  0  0  0  0  # atno 8010 bound_to 7997
  139.6396  144.7123  151.2263 H   0  0  0  0  0  0  0  0  0  0  0  0  # atno 10167 bound_to 10162
  157.5408  131.1097  150.8861 H   0  0  0  0  0  0  0  0  0  0  0  0  # atno 10718 bound_to 10713
  153.2368  135.6899  153.7828 H   0  0  0  0  0  0  0  0  0  0  0  0  # atno 10763 bound_to 10752
  153.6972  135.3303  155.3217 H   0  0  0  0  0  0  0  0  0  0  0  0  # atno 10764 bound_to 10752
  154.8338  135.4559  154.1274 H   0  0  0  0  0  0  0  0  0  0  0  0  # atno 10765 bound_to 10752
  140.9541  134.1026  157.4033 H   0  0  0  0  0  0  0  0  0  0  0  0  # atno 11005 bound_to 11000
  145.8681  139.2257  143.1677 LP  0  0  0  0  0  0  0  0  0  0  0  0  # atno 17320 bound_to 7965
  146.0111  140.8434  142.9970 LP  0  0  0  0  0  0  0  0  0  0  0  0  # atno 17321 bound_to 7965
  140.7484  143.6334  150.8401 LP  0  0  0  0  0  0  0  0  0  0  0  0  # atno 17342 bound_to 10162
  139.9970  143.5785  152.2889 LP  0  0  0  0  0  0  0  0  0  0  0  0  # atno 17343 bound_to 10162
  156.9414  130.5386  149.5280 LP  0  0  0  0  0  0  0  0  0  0  0  0  # atno 17370 bound_to 10713
  156.0496  130.5567  150.8958 LP  0  0  0  0  0  0  0  0  0  0  0  0  # atno 17371 bound_to 10713
  139.8856  135.0074  156.6449 LP  0  0  0  0  0  0  0  0  0  0  0  0  # atno 17394 bound_to 11000
  140.7561  133.8856  155.8383 LP  0  0  0  0  0  0  0  0  0  0  0  0  # atno 17395 bound_to 11000

$$$$
