AV-unprocessed.smi:1718|AV-procd|sdf|6926|dock4
  -GOLD-   22720 8133D 1   1.00000     0.00000
 Structure written by MMmdl.
 39 40  0  0  0  0  0  0  0  0  2 V2000
  147.2156  140.4558  152.8134 C   0  0  0  0  0  0  0  0  0  0  0  0
  147.4877  140.1725  154.2986 C   0  0  2  0  0  0  0  0  0  0  0  0
  146.4672  140.8218  155.0526 O   0  0  0  0  0  0  0  0  0  0  0  0
  146.2692  142.2020  154.7604 C   0  0  0  0  0  0  0  0  0  0  0  0
  145.1225  142.7495  155.6208 C   0  0  2  0  0  0  0  0  0  0  0  0
  144.6377  144.1583  155.2452 C   0  0  0  0  0  0  0  0  0  0  0  0
  144.6137  144.9054  156.5699 C   0  0  0  0  0  0  0  0  0  0  0  0
  144.6869  143.7922  157.6087 C   0  0  0  0  0  0  0  0  0  0  0  0
  145.5167  142.8276  156.9845 O   0  0  0  0  0  0  0  0  0  0  0  0
  148.8757  140.6781  154.7263 C   0  0  0  0  0  0  0  0  0  0  0  0
  149.6283  141.1648  153.8829 O   0  0  0  0  0  0  0  0  0  0  0  0
  149.1437  140.5682  156.0425 N   0  0  0  0  0  0  0  0  0  0  0  0
  150.2845  140.9526  156.7681 C   0  0  0  0  0  0  0  0  0  0  0  0
  150.4631  142.1643  157.3640 C   0  0  0  0  0  0  0  0  0  0  0  0
  151.6755  142.5005  158.1001 C   0  0  0  0  0  0  0  0  0  0  0  0
  151.8663  143.7998  158.8625 C   0  0  0  0  0  0  0  0  0  0  0  0
  152.2245  143.5666  160.1255 F   0  0  0  0  0  0  0  0  0  0  0  0
  152.8231  144.5268  158.2872 F   0  0  0  0  0  0  0  0  0  0  0  0
  150.7444  144.5198  158.8698 F   0  0  0  0  0  0  0  0  0  0  0  0
  152.5835  141.4599  158.1186 C   0  0  0  0  0  0  0  0  0  0  0  0
  152.4977  140.2454  157.5332 N   0  5  0  0  0  0  0  0  0  0  0  0
  151.3589  139.9410  156.8492 C   0  0  0  0  0  0  0  0  0  0  0  0
  151.2104  138.8481  156.3008 O   0  0  0  0  0  0  0  0  0  0  0  0
  147.9761  140.0017  152.1769 H   0  0  0  0  0  0  0  0  0  0  0  0
  147.1974  141.5263  152.6048 H   0  0  0  0  0  0  0  0  0  0  0  0
  146.2500  140.0475  152.5147 H   0  0  0  0  0  0  0  0  0  0  0  0
  147.4216  139.0941  154.4559 H   0  0  0  0  0  0  0  0  0  0  0  0
  147.1829  142.7581  154.9737 H   0  0  0  0  0  0  0  0  0  0  0  0
  146.0339  142.3536  153.7066 H   0  0  0  0  0  0  0  0  0  0  0  0
  144.2770  142.0613  155.5685 H   0  0  0  0  0  0  0  0  0  0  0  0
  145.2935  144.6570  154.5307 H   0  0  0  0  0  0  0  0  0  0  0  0
  143.6426  144.1108  154.8016 H   0  0  0  0  0  0  0  0  0  0  0  0
  145.4974  145.5397  156.6496 H   0  0  0  0  0  0  0  0  0  0  0  0
  143.7323  145.5364  156.6882 H   0  0  0  0  0  0  0  0  0  0  0  0
  145.1025  144.1281  158.5591 H   0  0  0  0  0  0  0  0  0  0  0  0
  143.7006  143.3634  157.7936 H   0  0  0  0  0  0  0  0  0  0  0  0
  148.4020  140.1909  156.6144 H   0  0  0  0  0  0  0  0  0  0  0  0
  149.7114  142.9326  157.2994 H   0  0  0  0  0  0  0  0  0  0  0  0
  153.5178  141.6262  158.6963 H   0  0  0  0  0  0  0  0  0  0  0  0
  1  2  1  0  0  0  0
  1 24  1  0  0  0  0
  1 25  1  0  0  0  0
  1 26  1  0  0  0  0
  2  3  1  0  0  0  0
  2 10  1  0  0  0  0
  2 27  1  0  0  0  0
  3  4  1  0  0  0  0
  4  5  1  0  0  0  0
  4 28  1  0  0  0  0
  4 29  1  0  0  0  0
  5  9  1  0  0  0  0
  5  6  1  0  0  0  0
  5 30  1  0  0  0  0
  6  7  1  0  0  0  0
  6 31  1  0  0  0  0
  6 32  1  0  0  0  0
  7  8  1  0  0  0  0
  7 33  1  0  0  0  0
  7 34  1  0  0  0  0
  8  9  1  0  0  0  0
  8 35  1  0  0  0  0
  8 36  1  0  0  0  0
 10 11  2  0  0  0  0
 10 12  1  0  0  0  0
 12 13  1  0  0  0  0
 12 37  1  0  0  0  0
 13 22  1  0  0  0  0
 13 14  2  0  0  0  0
 14 15  1  0  0  0  0
 14 38  1  0  0  0  0
 15 16  1  0  0  0  0
 15 20  2  0  0  0  0
 16 17  1  0  0  0  0
 16 18  1  0  0  0  0
 16 19  1  0  0  0  0
 20 21  1  0  0  0  0
 20 39  1  0  0  0  0
 21 22  1  0  0  0  0
 22 23  2  0  0  0  0
M  CHG  1  21  -1
M  END
> <s_m_source_file>
AV-unprocessed.smi

> <i_m_source_file_index>
1718

> <i_lp_mmshare_version>
43012

> <i_f3d_flags>
0

> <s_epik_input>
TzFbQ0gyXVtDSDJdW0NIMl1bQ0BIXTFbQ0gyXU9bQ0BASF0oW0NIM10pQyg9TylbTkhdYzJbY0hdYyhDKEYpKEYpRilbY0hdW25IXWMyPU8=

> <s_epik_cmdline>
J2VwaWtfcHl0aG9uJywgJy1waCcsICc3LjAnLCAnLXRuJywgJzgnLCAnLW1hJywgJzIwMCcsICctbWV0YWxfYmluZGluZycsICctaW1hZScsICc8aW5maWxlLm1hZT4nLCAnLW9tYWUnLCAnPG91dGZpbGUubWFlPic=

> <r_epik_Ionization_Penalty>
2.5466

> <r_epik_Ionization_Penalty_Charging>
0.0575837

> <r_epik_Ionization_Penalty_Neutral>
2.48901

> <r_epik_State_Penalty>
2.6532

> <r_epik_Charging_Adjusted_Penalty>
2.71078

> <i_epik_Tot_Q>
-1

> <i_epik_Tot_abs_Q>
1

> <r_epik_Metal_State_Penalty>
0.516196

> <b_epik_Metal_Only>
0

> <s_lp_Force_Field>
OPLS_2005

> <r_lp_Energy>
37.3435

> <b_lp_Chiralities_Consistent>
1

> <s_lp_Variant>
AV-unprocessed.smi:1718-5

> <Gold.Version>
5.8.1

> <Gold.Id.Protein>
6NUR|6NUR_protein|mol2

> <Gold.PLP.Fitness>
43.3499

> <Gold.PLP.PLP>
-36.0375

> <Gold.PLP.part.hbond>
-3.0000

> <Gold.PLP.part.metal>
0.0000

> <Gold.PLP.part.buried>
-3.3732

> <Gold.PLP.part.nonpolar>
-29.9530

> <Gold.PLP.part.repulsive>
1.5524

> <Gold.PLP.ligand.clash>
0.0000

> <Gold.PLP.ligand.torsion>
1.1236

> <Gold.PLP.Chemscore.Hbond>
3.1425

> <Gold.PLP.Chemscore.CHOScore>
0.0000

> <Gold.PLP.Chemscore.Metal>
0.0000

> <Gold.Chemscore.Hbonds>
donor molecule, donor type, donor heavy atom, donor atom, acceptor molecule, acceptor atom, score
      P1  H  7989  7998       L1    11  0.34
      P1  H  7997  8008       L1    21  1.79
      P1  H  8011  8017       L1    11  0.85

> <Gold.PLP.Chemscore.Internal.Correction>
0.1319

> <Gold.Rescore>
     Score         DG    S(hbond)    S(metal)    S(lipo)     H(rot)  DE(clash)    DE(int)     intcor
     10.83     -12.09       0.95        0.00      69.76       1.85       0.21       1.06       ----

> <Gold.Chemscore.Fitness>
10.8280

> <Gold.Chemscore.DG>
-12.0924

> <Gold.Chemscore.ZeroCoef>
-5.4800

> <Gold.Chemscore.Hbond>
0.9507

> <Gold.Chemscore.Metal>
0.0000

> <Gold.Chemscore.Lipo>
69.7561

> <Gold.Chemscore.Internal_Hbond>
0.0000

> <Gold.Chemscore.DEClash>
0.2079

> <Gold.Chemscore.DEInternal>
1.0565

> <Gold.Chemscore.Rot>
1.8455

> <Gold.Chemscore.Internal.Correction>
   9.000000E+99

> <Gold.Chemscore.Hbonds>
donor molecule, donor type, donor heavy atom, donor atom, acceptor molecule, acceptor atom, score
      P1  H  7989  7998       L1    11  0.30
      P1  H  7997  8008       L1    21  0.21
      P1  H  8011  8017       L1    11  0.80

> <Gold.Chemscore.Hbond.Weighted>
-3.1755

> <Gold.Chemscore.Metal.Weighted>
-0.0000

> <Gold.Chemscore.Lipo.Weighted>
-8.1615

> <Gold.Chemscore.Internal_Hbond.Weighted>
0.0000

> <Gold.Chemscore.DEClash.Weighted>
0.2079

> <Gold.Chemscore.DEInternal.Weighted>
1.0565

> <Gold.Chemscore.Rot.Weighted>
4.7245

> <Gold.Chemscore.Internal.Correction.Weighted>
   9.000000E+99

> <Gold.Protein.RotatedTorsions>
[ 6907 6896 6895 6894 ] final  127.87 input  -60.11 | X-H torsion
[ 7974 7965 7964 7962 ] final  -39.29 input  175.53 | X-H torsion
[ 8008 7997 7996 7995 ] final  -64.78 input   59.86 | X-H torsion
[ 10167 10162 10161 10158 ] final  -55.43 input  -65.29 | X-H torsion
[ 10718 10713 10712 10709 ] final  171.01 input   66.30 | X-H torsion
[ 10763 10752 10751 10750 ] final  111.25 input  -60.55 | X-H torsion
[ 11005 11000 10999 10996 ] final   37.09 input  -57.11 | X-H torsion

> <Gold.Protein.ActiveResidues>
 VAL166  LYS551  ARG553  GLY616  TRP617  ASP618  TYR619  PRO620  LYS621  CYS622 
 ASP623  PHE694  ASN695  SER759  ASP760  ASP761  ALA762  ILE779  LEU786  VAL792 
 PHE793  MET794  SER795  GLU796  ALA797  LYS798  CYS799  TRP800  GLU811  SER814 

> <Gold.Protein.RotatedAtoms>
  152.3772  133.6497  159.6132 H   0  0  0  0  0  0  0  0  0  0  0  0  # atno 6907 bound_to 6896
  150.7713  133.9173  159.3396 H   0  0  0  0  0  0  0  0  0  0  0  0  # atno 6908 bound_to 6896
  151.6986  135.0935  160.0298 H   0  0  0  0  0  0  0  0  0  0  0  0  # atno 6909 bound_to 6896
  146.0410  140.6609  142.9087 H   0  0  0  0  0  0  0  0  0  0  0  0  # atno 7974 bound_to 7965
  154.4632  140.0947  156.6949 H   0  0  0  0  0  0  0  0  0  0  0  0  # atno 8008 bound_to 7997
  155.4934  140.3471  155.4340 H   0  0  0  0  0  0  0  0  0  0  0  0  # atno 8009 bound_to 7997
  156.0908  140.1397  156.9582 H   0  0  0  0  0  0  0  0  0  0  0  0  # atno 8010 bound_to 7997
  140.6375  143.2490  151.5079 H   0  0  0  0  0  0  0  0  0  0  0  0  # atno 10167 bound_to 10162
  156.9998  131.0173  151.2833 H   0  0  0  0  0  0  0  0  0  0  0  0  # atno 10718 bound_to 10713
  153.4607  135.3723  155.2336 H   0  0  0  0  0  0  0  0  0  0  0  0  # atno 10763 bound_to 10752
  154.8757  135.3908  154.3929 H   0  0  0  0  0  0  0  0  0  0  0  0  # atno 10764 bound_to 10752
  153.4502  135.7085  153.6178 H   0  0  0  0  0  0  0  0  0  0  0  0  # atno 10765 bound_to 10752
  140.2260  134.3584  155.7984 H   0  0  0  0  0  0  0  0  0  0  0  0  # atno 11005 bound_to 11000
  144.7074  140.3907  143.7107 LP  0  0  0  0  0  0  0  0  0  0  0  0  # atno 17320 bound_to 7965
  145.6885  139.1634  143.2660 LP  0  0  0  0  0  0  0  0  0  0  0  0  # atno 17321 bound_to 7965
  139.5585  144.2216  152.1652 LP  0  0  0  0  0  0  0  0  0  0  0  0  # atno 17342 bound_to 10162
  140.1476  144.5144  150.6706 LP  0  0  0  0  0  0  0  0  0  0  0  0  # atno 17343 bound_to 10162
  157.5398  130.8112  149.8015 LP  0  0  0  0  0  0  0  0  0  0  0  0  # atno 17370 bound_to 10713
  156.0175  130.3808  150.2064 LP  0  0  0  0  0  0  0  0  0  0  0  0  # atno 17371 bound_to 10713
  141.2220  133.7219  156.8653 LP  0  0  0  0  0  0  0  0  0  0  0  0  # atno 17394 bound_to 11000
  140.1800  134.9040  157.2937 LP  0  0  0  0  0  0  0  0  0  0  0  0  # atno 17395 bound_to 11000

$$$$
