AV-unprocessed.smi:213|AV-procd|sdf|1645|dock2
  -GOLD-   2262020 23D 1   1.00000     0.00000
 Structure written by MMmdl.
 58 61  0  0  0  0  0  0  0  0  1 V2000
  147.6821  133.9839  157.3152 C   0  0  0  0  0  0  0  0  0  0  0  0
  148.5006  134.9878  158.1456 C   0  0  2  0  0  0  0  0  0  0  0  0
  147.6564  135.6660  159.2480 C   0  0  0  0  0  0  0  0  0  0  0  0
  147.6407  134.9807  160.5407 N   0  0  0  0  0  0  0  0  0  0  0  0
  147.4329  135.8954  161.6619 C   0  0  0  0  0  0  0  0  0  0  0  0
  147.3896  135.1523  163.0089 C   0  0  0  0  0  0  0  0  0  0  0  0
  146.3789  134.1499  162.9739 O   0  0  0  0  0  0  0  0  0  0  0  0
  146.5743  133.2115  161.9212 C   0  0  0  0  0  0  0  0  0  0  0  0
  146.6070  133.9517  160.5730 C   0  0  0  0  0  0  0  0  0  0  0  0
  149.1341  135.9893  157.2821 N   0  0  0  0  0  0  0  0  0  0  0  0
  148.5431  136.3366  155.9911 C   0  0  0  0  0  0  0  0  0  0  0  0
  149.9753  136.8887  157.8552 C   0  0  0  0  0  0  0  0  0  0  0  0
  150.5016  136.6174  159.0795 N   0  0  0  0  0  0  0  0  0  0  0  0
  151.3265  137.4874  159.6700 C   0  0  0  0  0  0  0  0  0  0  0  0
  151.7443  138.6741  159.2263 N   0  0  0  0  0  0  0  0  0  0  0  0
  151.2112  138.9585  158.0041 C   0  0  0  0  0  0  0  0  0  0  0  0
  150.3296  138.1305  157.2525 C   0  0  0  0  0  0  0  0  0  0  0  0
  149.9887  138.7664  156.0632 N   0  0  0  0  0  0  0  0  0  0  0  0
  150.6369  139.8982  156.1059 C   0  0  0  0  0  0  0  0  0  0  0  0
  151.3875  140.0986  157.2416 N   0  0  0  0  0  0  0  0  0  0  0  0
  152.1851  141.2682  157.5653 C   0  0  0  0  0  0  0  0  0  0  0  0
  151.3208  142.5326  157.7430 C   0  0  2  0  0  0  0  0  0  0  0  0
  150.9493  143.0227  156.4683 O   0  0  0  0  0  0  0  0  0  0  0  0
  152.0580  143.6453  158.5109 C   0  0  1  0  0  0  0  0  0  0  0  0
  151.2452  144.9291  158.6931 C   0  0  0  0  0  0  0  0  0  0  0  0
  151.8925  145.5314  159.9181 C   0  0  0  0  0  0  0  0  0  0  0  0
  152.1650  144.2912  160.7629 C   0  0  0  0  0  0  0  0  0  0  0  0
  152.3555  143.2211  159.8404 O   0  0  0  0  0  0  0  0  0  0  0  0
  147.2946  133.1809  157.9424 H   0  0  0  0  0  0  0  0  0  0  0  0
  148.2996  133.5232  156.5436 H   0  0  0  0  0  0  0  0  0  0  0  0
  146.8301  134.4554  156.8259 H   0  0  0  0  0  0  0  0  0  0  0  0
  149.2848  134.4218  158.6420 H   0  0  0  0  0  0  0  0  0  0  0  0
  148.0052  136.6901  159.3904 H   0  0  0  0  0  0  0  0  0  0  0  0
  146.6320  135.7505  158.8826 H   0  0  0  0  0  0  0  0  0  0  0  0
  148.2298  136.6366  161.7034 H   0  0  0  0  0  0  0  0  0  0  0  0
  146.5005  136.4454  161.5231 H   0  0  0  0  0  0  0  0  0  0  0  0
  148.3561  134.6960  163.2284 H   0  0  0  0  0  0  0  0  0  0  0  0
  147.1727  135.8485  163.8194 H   0  0  0  0  0  0  0  0  0  0  0  0
  147.5022  132.6605  162.0822 H   0  0  0  0  0  0  0  0  0  0  0  0
  145.7624  132.4841  161.9357 H   0  0  0  0  0  0  0  0  0  0  0  0
  145.6308  134.4014  160.3849 H   0  0  0  0  0  0  0  0  0  0  0  0
  146.7769  133.2307  159.7726 H   0  0  0  0  0  0  0  0  0  0  0  0
  149.3035  136.7203  155.3097 H   0  0  0  0  0  0  0  0  0  0  0  0
  147.7729  137.0989  156.1126 H   0  0  0  0  0  0  0  0  0  0  0  0
  148.0853  135.4688  155.5181 H   0  0  0  0  0  0  0  0  0  0  0  0
  151.7029  137.1913  160.6381 H   0  0  0  0  0  0  0  0  0  0  0  0
  150.5739  140.6279  155.3115 H   0  0  0  0  0  0  0  0  0  0  0  0
  152.7421  141.0559  158.4785 H   0  0  0  0  0  0  0  0  0  0  0  0
  152.9237  141.4178  156.7766 H   0  0  0  0  0  0  0  0  0  0  0  0
  150.4080  142.2724  158.2806 H   0  0  0  0  0  0  0  0  0  0  0  0
  150.1490  143.5167  156.5607 H   0  0  0  0  0  0  0  0  0  0  0  0
  153.0028  143.8854  158.0199 H   0  0  0  0  0  0  0  0  0  0  0  0
  151.2852  145.5851  157.8229 H   0  0  0  0  0  0  0  0  0  0  0  0
  150.1991  144.6988  158.9002 H   0  0  0  0  0  0  0  0  0  0  0  0
  152.8308  146.0166  159.6456 H   0  0  0  0  0  0  0  0  0  0  0  0
  151.2609  146.2631  160.4229 H   0  0  0  0  0  0  0  0  0  0  0  0
  153.0303  144.4150  161.4143 H   0  0  0  0  0  0  0  0  0  0  0  0
  151.3017  144.0574  161.3872 H   0  0  0  0  0  0  0  0  0  0  0  0
  1  2  1  0  0  0  0
  1 29  1  0  0  0  0
  1 30  1  0  0  0  0
  1 31  1  0  0  0  0
  2  3  1  0  0  0  0
  2 10  1  0  0  0  0
  2 32  1  0  0  0  0
  3  4  1  0  0  0  0
  3 33  1  0  0  0  0
  3 34  1  0  0  0  0
  4  9  1  0  0  0  0
  4  5  1  0  0  0  0
  5  6  1  0  0  0  0
  5 35  1  0  0  0  0
  5 36  1  0  0  0  0
  6  7  1  0  0  0  0
  6 37  1  0  0  0  0
  6 38  1  0  0  0  0
  7  8  1  0  0  0  0
  8  9  1  0  0  0  0
  8 39  1  0  0  0  0
  8 40  1  0  0  0  0
  9 41  1  0  0  0  0
  9 42  1  0  0  0  0
 10 11  1  0  0  0  0
 10 12  1  0  0  0  0
 11 43  1  0  0  0  0
 11 44  1  0  0  0  0
 11 45  1  0  0  0  0
 12 17  1  0  0  0  0
 12 13  2  0  0  0  0
 13 14  1  0  0  0  0
 14 15  2  0  0  0  0
 14 46  1  0  0  0  0
 15 16  1  0  0  0  0
 16 20  1  0  0  0  0
 16 17  2  0  0  0  0
 17 18  1  0  0  0  0
 18 19  2  0  0  0  0
 19 20  1  0  0  0  0
 19 47  1  0  0  0  0
 20 21  1  0  0  0  0
 21 22  1  0  0  0  0
 21 48  1  0  0  0  0
 21 49  1  0  0  0  0
 22 23  1  0  0  0  0
 22 24  1  0  0  0  0
 22 50  1  0  0  0  0
 23 51  1  0  0  0  0
 24 28  1  0  0  0  0
 24 25  1  0  0  0  0
 24 52  1  0  0  0  0
 25 26  1  0  0  0  0
 25 53  1  0  0  0  0
 25 54  1  0  0  0  0
 26 27  1  0  0  0  0
 26 55  1  0  0  0  0
 26 56  1  0  0  0  0
 27 28  1  0  0  0  0
 27 57  1  0  0  0  0
 27 58  1  0  0  0  0
M  END
> <s_m_source_file>
AV-unprocessed.smi

> <i_m_source_file_index>
213

> <i_lp_mmshare_version>
43012

> <i_f3d_flags>
0

> <s_epik_input>
W0NIMl0xW0NIMl1PW0NIMl1bQ0gyXU4xW0NIMl1bQ0BASF0oW0NIM10pTihbQ0gzXSljKG5bY0hdbjIpYyhjMjMpbltjSF1uM1tDSDJdW0NASF0oW09IXSlbQ0BASF00W0NIMl1bQ0gyXVtDSDJdTzQ=

> <s_epik_cmdline>
J2VwaWtfcHl0aG9uJywgJy1waCcsICc3LjAnLCAnLXRuJywgJzgnLCAnLW1hJywgJzIwMCcsICctbWV0YWxfYmluZGluZycsICctaW1hZScsICc8aW5maWxlLm1hZT4nLCAnLW9tYWUnLCAnPG91dGZpbGUubWFlPic=

> <r_lp_tautomer_probability>
1

> <r_epik_Ionization_Penalty>
0.423322

> <r_epik_Ionization_Penalty_Charging>
0

> <r_epik_Ionization_Penalty_Neutral>
0.423322

> <r_epik_State_Penalty>
0.569486

> <r_epik_Charging_Adjusted_Penalty>
0.569486

> <i_epik_Tot_Q>
0

> <i_epik_Tot_abs_Q>
0

> <r_epik_Metal_State_Penalty>
0.568671

> <b_epik_Metal_Only>
0

> <s_lp_Force_Field>
OPLS_2005

> <r_lp_Energy>
51.3499

> <b_lp_Chiralities_Consistent>
1

> <s_lp_Variant>
AV-unprocessed.smi:213-13

> <Gold.Version>
5.8.1

> <Gold.Id.Protein>
6NUR|6NUR_protein|mol2

> <Gold.PLP.Fitness>
49.0352

> <Gold.PLP.PLP>
-45.0051

> <Gold.PLP.part.hbond>
-3.0000

> <Gold.PLP.part.metal>
0.0000

> <Gold.PLP.part.buried>
-9.0880

> <Gold.PLP.part.nonpolar>
-33.2078

> <Gold.PLP.part.repulsive>
0.0083

> <Gold.PLP.ligand.clash>
0.0000

> <Gold.PLP.ligand.torsion>
1.3579

> <Gold.PLP.Chemscore.Hbond>
1.9040

> <Gold.PLP.Chemscore.CHOScore>
0.0000

> <Gold.PLP.Chemscore.Metal>
0.0000

> <Gold.Chemscore.Hbonds>
donor molecule, donor type, donor heavy atom, donor atom, acceptor molecule, acceptor atom, score
      L1  H    23    51       P1  8028  0.90
      P1  H  6896  6909       L1    13  1.00

> <Gold.PLP.Chemscore.Internal.Correction>
1.0339

> <Gold.Rescore>
     Score         DG    S(hbond)    S(metal)    S(lipo)     H(rot)  DE(clash)    DE(int)     intcor
     12.55     -16.28       1.71        0.00     103.56       2.74       0.09       3.64       ----

> <Gold.Chemscore.Fitness>
12.5536

> <Gold.Chemscore.DG>
-16.2849

> <Gold.Chemscore.ZeroCoef>
-5.4800

> <Gold.Chemscore.Hbond>
1.7058

> <Gold.Chemscore.Metal>
0.0000

> <Gold.Chemscore.Lipo>
103.5560

> <Gold.Chemscore.Internal_Hbond>
0.0000

> <Gold.Chemscore.DEClash>
0.0948

> <Gold.Chemscore.DEInternal>
3.6365

> <Gold.Chemscore.Rot>
2.7378

> <Gold.Chemscore.Internal.Correction>
   9.000000E+99

> <Gold.Chemscore.Hbonds>
donor molecule, donor type, donor heavy atom, donor atom, acceptor molecule, acceptor atom, score
      L1  H    23    51       P1  8028  0.87
      P1  H  6896  6909       L1    13  0.66

> <Gold.Chemscore.Hbond.Weighted>
-5.6975

> <Gold.Chemscore.Metal.Weighted>
-0.0000

> <Gold.Chemscore.Lipo.Weighted>
-12.1161

> <Gold.Chemscore.Internal_Hbond.Weighted>
0.0000

> <Gold.Chemscore.DEClash.Weighted>
0.0948

> <Gold.Chemscore.DEInternal.Weighted>
3.6365

> <Gold.Chemscore.Rot.Weighted>
7.0087

> <Gold.Chemscore.Internal.Correction.Weighted>
   9.000000E+99

> <Gold.Protein.RotatedTorsions>
[ 6907 6896 6895 6894 ] final   70.75 input  -60.11 | X-H torsion
[ 7974 7965 7964 7962 ] final  147.74 input  175.53 | X-H torsion
[ 8008 7997 7996 7995 ] final -170.56 input   59.86 | X-H torsion
[ 10167 10162 10161 10158 ] final  121.44 input  -65.29 | X-H torsion
[ 10718 10713 10712 10709 ] final   40.13 input   66.30 | X-H torsion
[ 10763 10752 10751 10750 ] final  136.14 input  -60.55 | X-H torsion
[ 11005 11000 10999 10996 ] final    7.53 input  -57.11 | X-H torsion

> <Gold.Protein.ActiveResidues>
 VAL166  LYS551  ARG553  GLY616  TRP617  ASP618  TYR619  PRO620  LYS621  CYS622 
 ASP623  PHE694  ASN695  SER759  ASP760  ASP761  ALA762  ILE779  LEU786  VAL792 
 PHE793  MET794  SER795  GLU796  ALA797  LYS798  CYS799  TRP800  GLU811  SER814 

> <Gold.Protein.RotatedAtoms>
  152.4768  134.4822  159.9668 H   0  0  0  0  0  0  0  0  0  0  0  0  # atno 6907 bound_to 6896
  151.4836  133.3535  159.2850 H   0  0  0  0  0  0  0  0  0  0  0  0  # atno 6908 bound_to 6896
  150.8813  134.8231  159.7288 H   0  0  0  0  0  0  0  0  0  0  0  0  # atno 6909 bound_to 6896
  144.8567  139.6067  143.5949 H   0  0  0  0  0  0  0  0  0  0  0  0  # atno 7974 bound_to 7965
  155.9200  140.1072  157.1214 H   0  0  0  0  0  0  0  0  0  0  0  0  # atno 8008 bound_to 7997
  154.4053  140.1258  156.4732 H   0  0  0  0  0  0  0  0  0  0  0  0  # atno 8009 bound_to 7997
  155.7207  140.3470  155.5017 H   0  0  0  0  0  0  0  0  0  0  0  0  # atno 8010 bound_to 7997
  139.5919  144.7028  151.3268 H   0  0  0  0  0  0  0  0  0  0  0  0  # atno 10167 bound_to 10162
  157.3786  130.7741  149.7175 H   0  0  0  0  0  0  0  0  0  0  0  0  # atno 10718 bound_to 10713
  153.8517  135.3078  155.3433 H   0  0  0  0  0  0  0  0  0  0  0  0  # atno 10763 bound_to 10752
  154.7888  135.4794  154.0009 H   0  0  0  0  0  0  0  0  0  0  0  0  # atno 10764 bound_to 10752
  153.1514  135.6844  153.8969 H   0  0  0  0  0  0  0  0  0  0  0  0  # atno 10765 bound_to 10752
  140.5471  134.0318  155.7924 H   0  0  0  0  0  0  0  0  0  0  0  0  # atno 11005 bound_to 11000
  146.2829  139.6925  142.9216 LP  0  0  0  0  0  0  0  0  0  0  0  0  # atno 17320 bound_to 7965
  145.4391  141.0421  143.2867 LP  0  0  0  0  0  0  0  0  0  0  0  0  # atno 17321 bound_to 7965
  140.7180  143.7213  150.7694 LP  0  0  0  0  0  0  0  0  0  0  0  0  # atno 17342 bound_to 10162
  140.0770  143.5005  152.2550 LP  0  0  0  0  0  0  0  0  0  0  0  0  # atno 17343 bound_to 10162
  155.9771  130.4068  150.3737 LP  0  0  0  0  0  0  0  0  0  0  0  0  # atno 17370 bound_to 10713
  157.1838  131.0398  151.2735 LP  0  0  0  0  0  0  0  0  0  0  0  0  # atno 17371 bound_to 10713
  141.1193  133.9488  157.2761 LP  0  0  0  0  0  0  0  0  0  0  0  0  # atno 17394 bound_to 11000
  139.9474  135.0181  156.8892 LP  0  0  0  0  0  0  0  0  0  0  0  0  # atno 17395 bound_to 11000

$$$$
