AV-unprocessed.smi:47|AV-procd|sdf|428|dock2
  -GOLD-   2262016303D 1   1.00000     0.00000
 Structure written by MMmdl.
 31 33  0  0  0  0  0  0  0  0  3 V2000
  145.6258  140.9096  154.6962 O   0  0  0  0  0  0  0  0  0  0  0  0
  146.8913  140.9754  154.0734 C   0  0  2  0  0  0  0  0  0  0  0  0
  147.4245  139.5908  153.6934 C   0  0  0  0  0  0  0  0  0  0  0  0
  148.8959  139.6878  153.7618 N   0  3  0  0  0  0  0  0  0  0  0  0
  149.2553  140.9835  154.3719 C   0  0  2  0  0  0  0  0  0  0  0  0
  150.3983  140.8375  155.3534 C   0  0  0  0  0  0  0  0  0  0  0  0
  151.5413  140.1747  155.0942 N   0  0  0  0  0  0  0  0  0  0  0  0
  152.2821  140.2870  156.1801 N   0  5  0  0  0  0  0  0  0  0  0  0
  151.5962  141.0191  157.0711 C   0  0  0  0  0  0  0  0  0  0  0  0
  152.1308  141.3393  158.4106 C   0  0  0  0  0  0  0  0  0  0  0  0
  153.0177  140.4487  159.0591 C   0  0  0  0  0  0  0  0  0  0  0  0
  153.5395  140.7425  160.3338 C   0  0  0  0  0  0  0  0  0  0  0  0
  153.1818  141.9383  160.9822 C   0  0  0  0  0  0  0  0  0  0  0  0
  152.3000  142.8355  160.3531 C   0  0  0  0  0  0  0  0  0  0  0  0
  151.7796  142.5363  159.0787 C   0  0  0  0  0  0  0  0  0  0  0  0
  150.4204  141.3840  156.5797 N   0  0  0  0  0  0  0  0  0  0  0  0
  147.9685  141.5143  155.0092 C   0  0  0  0  0  0  0  0  0  0  0  0
  146.8282  141.6051  153.1847 H   0  0  0  0  0  0  0  0  0  0  0  0
  149.5602  141.6519  153.5653 H   0  0  0  0  0  0  0  0  0  0  0  0
  144.9607  140.8628  154.0260 H   0  0  0  0  0  0  0  0  0  0  0  0
  147.1081  138.8418  154.4212 H   0  0  0  0  0  0  0  0  0  0  0  0
  147.0863  139.2677  152.7086 H   0  0  0  0  0  0  0  0  0  0  0  0
  149.2488  138.9469  154.3519 H   0  0  0  0  0  0  0  0  0  0  0  0
  153.3048  139.5253  158.5776 H   0  0  0  0  0  0  0  0  0  0  0  0
  154.2154  140.0498  160.8131 H   0  0  0  0  0  0  0  0  0  0  0  0
  153.5821  142.1662  161.9589 H   0  0  0  0  0  0  0  0  0  0  0  0
  152.0219  143.7551  160.8463 H   0  0  0  0  0  0  0  0  0  0  0  0
  151.1057  143.2415  158.6146 H   0  0  0  0  0  0  0  0  0  0  0  0
  147.9577  142.5999  155.1125 H   0  0  0  0  0  0  0  0  0  0  0  0
  147.8411  141.0805  156.0031 H   0  0  0  0  0  0  0  0  0  0  0  0
  149.3094  139.6172  152.8436 H   0  0  0  0  0  0  0  0  0  0  0  0
  1  2  1  0  0  0  0
  1 20  1  0  0  0  0
  2 18  1  0  0  0  0
  2 17  1  0  0  0  0
  2  3  1  0  0  0  0
  3  4  1  0  0  0  0
  3 21  1  0  0  0  0
  3 22  1  0  0  0  0
  4  5  1  0  0  0  0
  4 23  1  0  0  0  0
  4 31  1  0  0  0  0
  5 19  1  0  0  0  0
  5  6  1  0  0  0  0
  5 17  1  0  0  0  0
  6 16  1  0  0  0  0
  6  7  2  0  0  0  0
  7  8  1  0  0  0  0
  8  9  1  0  0  0  0
  9 10  1  0  0  0  0
  9 16  2  0  0  0  0
 10 15  1  0  0  0  0
 10 11  2  0  0  0  0
 11 12  1  0  0  0  0
 11 24  1  0  0  0  0
 12 13  2  0  0  0  0
 12 25  1  0  0  0  0
 13 14  1  0  0  0  0
 13 26  1  0  0  0  0
 14 15  2  0  0  0  0
 14 27  1  0  0  0  0
 15 28  1  0  0  0  0
 17 29  1  0  0  0  0
 17 30  1  0  0  0  0
M  CHG  1   4   1
M  CHG  1   8  -1
M  END
> <s_m_source_file>
AV-unprocessed.smi

> <i_m_source_file_index>
47

> <i_lp_mmshare_version>
43012

> <i_f3d_flags>
0

> <s_epik_input>
W09IXVtDQEhdMVtDSDJdW05IXVtDQEBIXShbQ0gyXTEpYzJuW25IXWMobjIpLWMzW2NIXVtjSF1bY0hdW2NIXVtjSF0z

> <s_epik_cmdline>
J2VwaWtfcHl0aG9uJywgJy1waCcsICc3LjAnLCAnLXRuJywgJzgnLCAnLW1hJywgJzIwMCcsICctbWV0YWxfYmluZGluZycsICctaW1hZScsICc8aW5maWxlLm1hZT4nLCAnLW9tYWUnLCAnPG91dGZpbGUubWFlPic=

> <r_lp_tautomer_probability>
1

> <r_epik_Ionization_Penalty>
1.09593

> <r_epik_Ionization_Penalty_Charging>
1.09593

> <r_epik_Ionization_Penalty_Neutral>
3.91329e-08

> <r_epik_State_Penalty>
0.690005

> <r_epik_Charging_Adjusted_Penalty>
1.78594

> <i_epik_Tot_Q>
0

> <i_epik_Tot_abs_Q>
2

> <r_epik_Metal_State_Penalty>
0.213596

> <b_epik_Metal_Only>
0

> <s_lp_Force_Field>
OPLS_2005

> <r_lp_Energy>
20.9677

> <b_lp_Chiralities_Consistent>
1

> <s_lp_Variant>
AV-unprocessed.smi:47-6

> <Gold.Version>
5.8.1

> <Gold.Id.Protein>
6NUR|6NUR_protein|mol2

> <Gold.PLP.Fitness>
46.1609

> <Gold.PLP.PLP>
-34.0670

> <Gold.PLP.part.hbond>
-4.0000

> <Gold.PLP.part.metal>
0.0000

> <Gold.PLP.part.buried>
-2.7001

> <Gold.PLP.part.nonpolar>
-27.3593

> <Gold.PLP.part.repulsive>
0.2083

> <Gold.PLP.ligand.clash>
0.0000

> <Gold.PLP.ligand.torsion>
0.6830

> <Gold.PLP.Chemscore.Hbond>
4.4850

> <Gold.PLP.Chemscore.CHOScore>
0.0000

> <Gold.PLP.Chemscore.Metal>
0.0000

> <Gold.Chemscore.Hbonds>
donor molecule, donor type, donor heavy atom, donor atom, acceptor molecule, acceptor atom, score
      L1  H     1    20       P1 10175  0.99
      L1  H     4    31       P1  7957  1.00
      P1  H  7989  7998       L1     7  0.60
      P1  H  7997  8009       L1     8  1.89

> <Gold.PLP.Chemscore.Internal.Correction>
0.0048

> <Gold.Rescore>
     Score         DG    S(hbond)    S(metal)    S(lipo)     H(rot)  DE(clash)    DE(int)     intcor
     20.00     -20.81       2.87        0.00      81.65       1.48       0.23       0.58       ----

> <Gold.Chemscore.Fitness>
19.9969

> <Gold.Chemscore.DG>
-20.8135

> <Gold.Chemscore.ZeroCoef>
-5.4800

> <Gold.Chemscore.Hbond>
2.8655

> <Gold.Chemscore.Metal>
0.0000

> <Gold.Chemscore.Lipo>
81.6451

> <Gold.Chemscore.Internal_Hbond>
0.0000

> <Gold.Chemscore.DEClash>
0.2338

> <Gold.Chemscore.DEInternal>
0.5828

> <Gold.Chemscore.Rot>
1.4804

> <Gold.Chemscore.Internal.Correction>
   9.000000E+99

> <Gold.Chemscore.Hbonds>
donor molecule, donor type, donor heavy atom, donor atom, acceptor molecule, acceptor atom, score
      L1  H     1    20       P1 10175  0.87
      L1  H     4    31       P1  7957  0.99
      P1  H  7989  7998       L1     7  0.04
      P1  H  7997  8009       L1     8  0.86

> <Gold.Chemscore.Hbond.Weighted>
-9.5709

> <Gold.Chemscore.Metal.Weighted>
-0.0000

> <Gold.Chemscore.Lipo.Weighted>
-9.5525

> <Gold.Chemscore.Internal_Hbond.Weighted>
0.0000

> <Gold.Chemscore.DEClash.Weighted>
0.2338

> <Gold.Chemscore.DEInternal.Weighted>
0.5828

> <Gold.Chemscore.Rot.Weighted>
3.7899

> <Gold.Chemscore.Internal.Correction.Weighted>
   9.000000E+99

> <Gold.Protein.RotatedTorsions>
[ 6907 6896 6895 6894 ] final   76.78 input  -60.11 | X-H torsion
[ 7974 7965 7964 7962 ] final   85.44 input  175.53 | X-H torsion
[ 8008 7997 7996 7995 ] final -161.53 input   59.86 | X-H torsion
[ 10167 10162 10161 10158 ] final  -74.22 input  -65.29 | X-H torsion
[ 10718 10713 10712 10709 ] final   42.70 input   66.30 | X-H torsion
[ 10763 10752 10751 10750 ] final  165.08 input  -60.55 | X-H torsion
[ 11005 11000 10999 10996 ] final -124.42 input  -57.11 | X-H torsion

> <Gold.Protein.ActiveResidues>
 VAL166  LYS551  ARG553  GLY616  TRP617  ASP618  TYR619  PRO620  LYS621  CYS622 
 ASP623  PHE694  ASN695  SER759  ASP760  ASP761  ALA762  ILE779  LEU786  VAL792 
 PHE793  MET794  SER795  GLU796  ALA797  LYS798  CYS799  TRP800  GLU811  SER814 

> <Gold.Protein.RotatedAtoms>
  152.5088  134.3917  159.9386 H   0  0  0  0  0  0  0  0  0  0  0  0  # atno 6907 bound_to 6896
  151.3877  133.3793  159.2725 H   0  0  0  0  0  0  0  0  0  0  0  0  # atno 6908 bound_to 6896
  150.9456  134.8882  159.7698 H   0  0  0  0  0  0  0  0  0  0  0  0  # atno 6909 bound_to 6896
  145.5854  139.2330  143.2329 H   0  0  0  0  0  0  0  0  0  0  0  0  # atno 7974 bound_to 7965
  155.7935  140.0881  157.1996 H   0  0  0  0  0  0  0  0  0  0  0  0  # atno 8008 bound_to 7997
  154.3984  140.1485  156.3249 H   0  0  0  0  0  0  0  0  0  0  0  0  # atno 8009 bound_to 7997
  155.8534  140.3433  155.5711 H   0  0  0  0  0  0  0  0  0  0  0  0  # atno 8010 bound_to 7997
  140.5045  143.2355  151.7697 H   0  0  0  0  0  0  0  0  0  0  0  0  # atno 10167 bound_to 10162
  157.4077  130.7896  149.7403 H   0  0  0  0  0  0  0  0  0  0  0  0  # atno 10718 bound_to 10713
  154.3187  135.2756  155.2530 H   0  0  0  0  0  0  0  0  0  0  0  0  # atno 10763 bound_to 10752
  154.4894  135.5837  153.6451 H   0  0  0  0  0  0  0  0  0  0  0  0  # atno 10764 bound_to 10752
  152.9879  135.6131  154.3369 H   0  0  0  0  0  0  0  0  0  0  0  0  # atno 10765 bound_to 10752
  140.9842  134.0630  157.3730 H   0  0  0  0  0  0  0  0  0  0  0  0  # atno 11005 bound_to 11000
  146.1685  140.6681  142.9244 LP  0  0  0  0  0  0  0  0  0  0  0  0  # atno 17320 bound_to 7965
  144.7375  140.4849  143.6893 LP  0  0  0  0  0  0  0  0  0  0  0  0  # atno 17321 bound_to 7965
  139.4880  144.4476  151.9691 LP  0  0  0  0  0  0  0  0  0  0  0  0  # atno 17342 bound_to 10162
  140.3566  144.3024  150.5940 LP  0  0  0  0  0  0  0  0  0  0  0  0  # atno 17343 bound_to 10162
  155.9841  130.3994  150.3327 LP  0  0  0  0  0  0  0  0  0  0  0  0  # atno 17370 bound_to 10713
  157.1462  131.0309  151.2906 LP  0  0  0  0  0  0  0  0  0  0  0  0  # atno 17371 bound_to 10713
  139.8963  135.0145  156.7046 LP  0  0  0  0  0  0  0  0  0  0  0  0  # atno 17394 bound_to 11000
  140.7140  133.9199  155.8103 LP  0  0  0  0  0  0  0  0  0  0  0  0  # atno 17395 bound_to 11000

$$$$
