AV-unprocessed.smi:189|AV-procd|sdf|1480|dock1
  -GOLD-   2262019303D 1   1.00000     0.00000
 Structure written by MMmdl.
 53 57  0  0  0  0  0  0  0  0  1 V2000
  149.2439  140.9576  156.1390 C   0  0  0  0  0  0  0  0  0  0  0  0
  150.6721  141.5216  156.2906 C   0  0  1  0  0  0  0  0  0  0  0  0
  150.7429  142.5350  157.4594 C   0  0  0  0  0  0  0  0  0  0  0  0
  152.0315  142.1578  158.1841 C   0  0  1  0  0  0  0  0  0  0  0  0
  152.1727  142.5089  159.6700 C   0  0  0  0  0  0  0  0  0  0  0  0
  153.5159  141.9558  160.1914 C   0  0  0  0  0  0  0  0  0  0  0  0
  153.6895  140.4495  159.8904 C   0  0  0  0  0  0  0  0  0  0  0  0
  153.4501  140.1115  158.4035 C   0  0  0  0  0  0  0  0  0  0  0  0
  152.0705  140.6504  157.9827 C   0  0  2  0  0  0  0  0  0  0  0  0
  151.6962  140.5081  156.5842 N   0  0  0  0  0  0  0  0  0  0  0  0
  151.6262  139.3000  155.9708 C   0  0  0  0  0  0  0  0  0  0  0  0
  151.4995  139.2299  154.6198 N   0  0  0  0  0  0  0  0  0  0  0  0
  151.4535  138.0425  154.0086 C   0  0  0  0  0  0  0  0  0  0  0  0
  151.5197  136.8234  154.5476 N   0  0  0  0  0  0  0  0  0  0  0  0
  151.6440  136.8879  155.9041 C   0  0  0  0  0  0  0  0  0  0  0  0
  151.7054  138.0743  156.6881 C   0  0  0  0  0  0  0  0  0  0  0  0
  151.8328  137.7485  158.0328 N   0  0  0  0  0  0  0  0  0  0  0  0
  151.8515  136.4439  158.0431 C   0  0  0  0  0  0  0  0  0  0  0  0
  151.7369  135.8444  156.8090 N   0  0  0  0  0  0  0  0  0  0  0  0
  151.7311  134.4152  156.5368 C   0  0  0  0  0  0  0  0  0  0  0  0
  150.3829  133.8976  155.9840 C   0  0  1  0  0  0  0  0  0  0  0  0
  149.3397  134.3035  156.8539 O   0  0  0  0  0  0  0  0  0  0  0  0
  150.0559  134.3838  154.5749 C   0  0  0  0  0  0  0  0  0  0  0  0
  149.2583  133.2249  153.9941 C   0  0  0  0  0  0  0  0  0  0  0  0
  149.9508  132.0951  154.4965 O   0  0  0  0  0  0  0  0  0  0  0  0
  150.3304  132.3628  155.8427 C   0  0  0  0  0  0  0  0  0  0  0  0
  148.5231  141.7645  156.0046 H   0  0  0  0  0  0  0  0  0  0  0  0
  148.9449  140.3893  157.0206 H   0  0  0  0  0  0  0  0  0  0  0  0
  149.1534  140.3023  155.2729 H   0  0  0  0  0  0  0  0  0  0  0  0
  150.9634  142.0268  155.3692 H   0  0  0  0  0  0  0  0  0  0  0  0
  150.7439  143.5701  157.1167 H   0  0  0  0  0  0  0  0  0  0  0  0
  149.8946  142.4103  158.1346 H   0  0  0  0  0  0  0  0  0  0  0  0
  152.8619  142.6125  157.6392 H   0  0  0  0  0  0  0  0  0  0  0  0
  152.1283  143.5890  159.8113 H   0  0  0  0  0  0  0  0  0  0  0  0
  151.3465  142.0803  160.2385 H   0  0  0  0  0  0  0  0  0  0  0  0
  154.3341  142.5079  159.7274 H   0  0  0  0  0  0  0  0  0  0  0  0
  153.5989  142.1325  161.2641 H   0  0  0  0  0  0  0  0  0  0  0  0
  154.6871  140.1250  160.1878 H   0  0  0  0  0  0  0  0  0  0  0  0
  152.9882  139.8807  160.5025 H   0  0  0  0  0  0  0  0  0  0  0  0
  154.2328  140.5574  157.7884 H   0  0  0  0  0  0  0  0  0  0  0  0
  153.5164  139.0336  158.2604 H   0  0  0  0  0  0  0  0  0  0  0  0
  151.2969  140.1766  158.5905 H   0  0  0  0  0  0  0  0  0  0  0  0
  151.3512  138.0741  152.9340 H   0  0  0  0  0  0  0  0  0  0  0  0
  151.9454  135.8779  158.9587 H   0  0  0  0  0  0  0  0  0  0  0  0
  152.5360  134.1968  155.8338 H   0  0  0  0  0  0  0  0  0  0  0  0
  151.9835  133.8917  157.4600 H   0  0  0  0  0  0  0  0  0  0  0  0
  148.8941  133.5309  157.1665 H   0  0  0  0  0  0  0  0  0  0  0  0
  149.5216  135.3345  154.5467 H   0  0  0  0  0  0  0  0  0  0  0  0
  150.9705  134.4993  153.9928 H   0  0  0  0  0  0  0  0  0  0  0  0
  148.2329  133.2272  154.3666 H   0  0  0  0  0  0  0  0  0  0  0  0
  149.2329  133.2313  152.9045 H   0  0  0  0  0  0  0  0  0  0  0  0
  151.2953  131.8942  156.0391 H   0  0  0  0  0  0  0  0  0  0  0  0
  149.6053  131.9119  156.5226 H   0  0  0  0  0  0  0  0  0  0  0  0
  1  2  1  0  0  0  0
  1 27  1  0  0  0  0
  1 28  1  0  0  0  0
  1 29  1  0  0  0  0
  2 10  1  0  0  0  0
  2  3  1  0  0  0  0
  2 30  1  0  0  0  0
  3  4  1  0  0  0  0
  3 31  1  0  0  0  0
  3 32  1  0  0  0  0
  4  9  1  0  0  0  0
  4  5  1  0  0  0  0
  4 33  1  0  0  0  0
  5  6  1  0  0  0  0
  5 34  1  0  0  0  0
  5 35  1  0  0  0  0
  6  7  1  0  0  0  0
  6 36  1  0  0  0  0
  6 37  1  0  0  0  0
  7  8  1  0  0  0  0
  7 38  1  0  0  0  0
  7 39  1  0  0  0  0
  8  9  1  0  0  0  0
  8 40  1  0  0  0  0
  8 41  1  0  0  0  0
  9 10  1  0  0  0  0
  9 42  1  0  0  0  0
 10 11  1  0  0  0  0
 11 16  1  0  0  0  0
 11 12  2  0  0  0  0
 12 13  1  0  0  0  0
 13 14  2  0  0  0  0
 13 43  1  0  0  0  0
 14 15  1  0  0  0  0
 15 19  1  0  0  0  0
 15 16  2  0  0  0  0
 16 17  1  0  0  0  0
 17 18  2  0  0  0  0
 18 19  1  0  0  0  0
 18 44  1  0  0  0  0
 19 20  1  0  0  0  0
 20 21  1  0  0  0  0
 20 45  1  0  0  0  0
 20 46  1  0  0  0  0
 21 26  1  0  0  0  0
 21 22  1  0  0  0  0
 21 23  1  0  0  0  0
 22 47  1  0  0  0  0
 23 24  1  0  0  0  0
 23 48  1  0  0  0  0
 23 49  1  0  0  0  0
 24 25  1  0  0  0  0
 24 50  1  0  0  0  0
 24 51  1  0  0  0  0
 25 26  1  0  0  0  0
 26 52  1  0  0  0  0
 26 53  1  0  0  0  0
M  END
> <s_m_source_file>
AV-unprocessed.smi

> <i_m_source_file_index>
189

> <i_lp_mmshare_version>
43012

> <i_f3d_flags>
0

> <s_epik_input>
W0NIMl0xW0NIMl1bQ0gyXVtDSDJdW0NASF0oW0NASF0xMilOKFtDQEhdKFtDSDNdKVtDSDJdMiljKG5bY0hdbjMpYyhjMzQpbltjSF1uNFtDSDJdW0NAQF01KFtPSF0pW0NIMl1bQ0gyXU9bQ0gyXTU=

> <s_epik_cmdline>
J2VwaWtfcHl0aG9uJywgJy1waCcsICc3LjAnLCAnLXRuJywgJzgnLCAnLW1hJywgJzIwMCcsICctbWV0YWxfYmluZGluZycsICctaW1hZScsICc8aW5maWxlLm1hZT4nLCAnLW9tYWUnLCAnPG91dGZpbGUubWFlPic=

> <r_lp_tautomer_probability>
1

> <r_epik_Ionization_Penalty>
0.00594261

> <r_epik_Ionization_Penalty_Charging>
0

> <r_epik_Ionization_Penalty_Neutral>
0.00594261

> <r_epik_State_Penalty>
0.00429776

> <r_epik_Charging_Adjusted_Penalty>
0.00429776

> <i_epik_Tot_Q>
0

> <i_epik_Tot_abs_Q>
0

> <r_epik_Metal_State_Penalty>
-0

> <b_epik_Metal_Only>
0

> <s_lp_Force_Field>
OPLS_2005

> <r_lp_Energy>
58.915

> <b_lp_Chiralities_Consistent>
1

> <s_lp_Variant>
AV-unprocessed.smi:189-6

> <Gold.Version>
5.8.1

> <Gold.Id.Protein>
6NUR|6NUR_protein|mol2

> <Gold.PLP.Fitness>
45.9184

> <Gold.PLP.PLP>
-37.4543

> <Gold.PLP.part.hbond>
-2.0000

> <Gold.PLP.part.metal>
0.0000

> <Gold.PLP.part.buried>
-1.7567

> <Gold.PLP.part.nonpolar>
-34.5206

> <Gold.PLP.part.repulsive>
0.3094

> <Gold.PLP.ligand.clash>
0.0000

> <Gold.PLP.ligand.torsion>
0.2679

> <Gold.PLP.Chemscore.Hbond>
2.0000

> <Gold.PLP.Chemscore.CHOScore>
0.8669

> <Gold.PLP.Chemscore.Metal>
0.0000

> <Gold.Chemscore.Hbonds>
donor molecule, donor type, donor heavy atom, donor atom, acceptor molecule, acceptor atom, score
      P1  H  7989  7998       L1    12  1.00
      P1  H 10752 10763       L1    14  0.70
      L1  C    13    43       P1  7949  0.87

> <Gold.PLP.Chemscore.Internal.Correction>
0.3991

> <Gold.Rescore>
     Score         DG    S(hbond)    S(metal)    S(lipo)     H(rot)  DE(clash)    DE(int)     intcor
     15.38     -17.74       1.67        0.00     101.61       2.03       0.61       1.76       ----

> <Gold.Chemscore.Fitness>
15.3770

> <Gold.Chemscore.DG>
-17.7410

> <Gold.Chemscore.ZeroCoef>
-5.4800

> <Gold.Chemscore.Hbond>
1.6672

> <Gold.Chemscore.Metal>
0.0000

> <Gold.Chemscore.Lipo>
101.6108

> <Gold.Chemscore.Internal_Hbond>
0.0000

> <Gold.Chemscore.DEClash>
0.6065

> <Gold.Chemscore.DEInternal>
1.7575

> <Gold.Chemscore.Rot>
2.0297

> <Gold.Chemscore.Internal.Correction>
   9.000000E+99

> <Gold.Chemscore.Hbonds>
donor molecule, donor type, donor heavy atom, donor atom, acceptor molecule, acceptor atom, score
      P1  H  7989  7998       L1    12  0.91
      P1  H 10752 10763       L1    14  0.07

> <Gold.Chemscore.Hbond.Weighted>
-5.5685

> <Gold.Chemscore.Metal.Weighted>
-0.0000

> <Gold.Chemscore.Lipo.Weighted>
-11.8885

> <Gold.Chemscore.Internal_Hbond.Weighted>
0.0000

> <Gold.Chemscore.DEClash.Weighted>
0.6065

> <Gold.Chemscore.DEInternal.Weighted>
1.7575

> <Gold.Chemscore.Rot.Weighted>
5.1960

> <Gold.Chemscore.Internal.Correction.Weighted>
   9.000000E+99

> <Gold.Protein.RotatedTorsions>
[ 6907 6896 6895 6894 ] final  106.30 input  -60.11 | X-H torsion
[ 7974 7965 7964 7962 ] final  101.55 input  175.53 | X-H torsion
[ 8008 7997 7996 7995 ] final  -55.78 input   59.86 | X-H torsion
[ 10167 10162 10161 10158 ] final   32.57 input  -65.29 | X-H torsion
[ 10718 10713 10712 10709 ] final -159.64 input   66.30 | X-H torsion
[ 10763 10752 10751 10750 ] final   45.16 input  -60.55 | X-H torsion
[ 11005 11000 10999 10996 ] final   38.51 input  -57.11 | X-H torsion

> <Gold.Protein.ActiveResidues>
 VAL166  LYS551  ARG553  GLY616  TRP617  ASP618  TYR619  PRO620  LYS621  CYS622 
 ASP623  PHE694  ASN695  SER759  ASP760  ASP761  ALA762  ILE779  LEU786  VAL792 
 PHE793  MET794  SER795  GLU796  ALA797  LYS798  CYS799  TRP800  GLU811  SER814 

> <Gold.Protein.RotatedAtoms>
  152.5199  133.9401  159.7621 H   0  0  0  0  0  0  0  0  0  0  0  0  # atno 6907 bound_to 6896
  150.9733  133.6313  159.2741 H   0  0  0  0  0  0  0  0  0  0  0  0  # atno 6908 bound_to 6896
  151.3517  135.0891  159.9458 H   0  0  0  0  0  0  0  0  0  0  0  0  # atno 6909 bound_to 6896
  145.3708  139.2398  143.3456 H   0  0  0  0  0  0  0  0  0  0  0  0  # atno 7974 bound_to 7965
  154.4207  140.1145  156.5531 H   0  0  0  0  0  0  0  0  0  0  0  0  # atno 8008 bound_to 7997
  155.6389  140.3496  155.4689 H   0  0  0  0  0  0  0  0  0  0  0  0  # atno 8009 bound_to 7997
  155.9887  140.1175  157.0648 H   0  0  0  0  0  0  0  0  0  0  0  0  # atno 8010 bound_to 7997
  140.4487  144.1081  150.6187 H   0  0  0  0  0  0  0  0  0  0  0  0  # atno 10167 bound_to 10162
  156.5709  130.8688  151.2837 H   0  0  0  0  0  0  0  0  0  0  0  0  # atno 10718 bound_to 10713
  152.9829  135.6048  154.3391 H   0  0  0  0  0  0  0  0  0  0  0  0  # atno 10763 bound_to 10752
  154.3089  135.2771  155.2577 H   0  0  0  0  0  0  0  0  0  0  0  0  # atno 10764 bound_to 10752
  154.4796  135.5921  153.6435 H   0  0  0  0  0  0  0  0  0  0  0  0  # atno 10765 bound_to 10752
  140.2119  134.3744  155.8045 H   0  0  0  0  0  0  0  0  0  0  0  0  # atno 11005 bound_to 11000
  146.2886  140.4359  142.8748 LP  0  0  0  0  0  0  0  0  0  0  0  0  # atno 17320 bound_to 7965
  144.8578  140.7095  143.6127 LP  0  0  0  0  0  0  0  0  0  0  0  0  # atno 17321 bound_to 7965
  140.4233  143.2601  151.9688 LP  0  0  0  0  0  0  0  0  0  0  0  0  # atno 17342 bound_to 10162
  139.4795  144.5811  151.7931 LP  0  0  0  0  0  0  0  0  0  0  0  0  # atno 17343 bound_to 10162
  157.7348  130.9752  150.2049 LP  0  0  0  0  0  0  0  0  0  0  0  0  # atno 17370 bound_to 10713
  156.2715  130.3722  149.8026 LP  0  0  0  0  0  0  0  0  0  0  0  0  # atno 17371 bound_to 10713
  141.2226  133.7148  156.8433 LP  0  0  0  0  0  0  0  0  0  0  0  0  # atno 17394 bound_to 11000
  140.1941  134.8944  157.3094 LP  0  0  0  0  0  0  0  0  0  0  0  0  # atno 17395 bound_to 11000

$$$$
