AV-unprocessed.smi:20|AV-procd|sdf|114|dock8
  -GOLD-   2262015283D 1   1.00000     0.00000
 Structure written by MMmdl.
 57 61  0  0  0  0  0  0  0  0  1 V2000
  146.4587  141.3267  158.7146 O   0  0  0  0  0  0  0  0  0  0  0  0
  146.7620  141.5001  157.5367 C   0  0  0  0  0  0  0  0  0  0  0  0
  147.9260  140.8034  156.8525 C   0  0  0  0  0  0  0  0  0  0  0  0
  147.6453  141.0388  155.3496 C   0  0  1  0  0  0  0  0  0  0  0  0
  148.9282  141.2546  154.5140 C   0  0  0  0  0  0  0  0  0  0  0  0
  149.7460  139.9581  154.3896 C   0  0  0  0  0  0  0  0  0  0  0  0
  148.8863  138.8125  153.8338 C   0  0  0  0  0  0  0  0  0  0  0  0
  147.6695  138.6548  154.6288 N   0  0  0  0  0  0  0  0  0  0  0  0
  146.9861  137.4867  154.5384 C   0  0  0  0  0  0  0  0  0  0  0  0
  146.9035  136.6637  155.6179 N   0  0  0  0  0  0  0  0  0  0  0  0
  146.2424  135.5053  155.5341 C   0  0  0  0  0  0  0  0  0  0  0  0
  145.6009  134.9840  154.4866 N   0  0  0  0  0  0  0  0  0  0  0  0
  145.6727  135.8096  153.4038 C   0  0  0  0  0  0  0  0  0  0  0  0
  146.3359  137.0673  153.3434 C   0  0  0  0  0  0  0  0  0  0  0  0
  146.1792  137.6235  152.0786 N   0  0  0  0  0  0  0  0  0  0  0  0
  145.4749  136.7398  151.4256 C   0  0  0  0  0  0  0  0  0  0  0  0
  145.1348  135.6163  152.1446 N   0  0  0  0  0  0  0  0  0  0  0  0
  144.3679  134.4772  151.6737 C   0  0  0  0  0  0  0  0  0  0  0  0
  145.0685  133.7069  150.5268 C   0  0  2  0  0  0  0  0  0  0  0  0
  144.0671  132.9625  149.6102 C   0  0  0  0  0  0  0  0  0  0  0  0
  144.6841  132.5280  148.4154 O   0  0  0  0  0  0  0  0  0  0  0  0
  146.1847  132.7742  151.0610 C   0  0  2  0  0  0  0  0  0  0  0  0
  145.6905  131.6047  151.8946 C   0  0  0  0  0  0  0  0  0  0  0  0
  146.9519  131.1844  152.6402 C   0  0  0  0  0  0  0  0  0  0  0  0
  147.6884  132.3832  152.8516 O   0  0  0  0  0  0  0  0  0  0  0  0
  147.1504  133.4326  152.0528 C   0  0  0  0  0  0  0  0  0  0  0  0
  146.8435  139.8562  154.7492 C   0  0  0  0  0  0  0  0  0  0  0  0
  146.7572  142.3043  155.3655 C   0  0  0  0  0  0  0  0  0  0  0  0
  146.1415  142.3072  156.6789 N   0  0  0  0  0  0  0  0  0  0  0  0
  148.8525  141.2824  157.1714 H   0  0  0  0  0  0  0  0  0  0  0  0
  147.9768  139.7485  157.1239 H   0  0  0  0  0  0  0  0  0  0  0  0
  148.6567  141.6003  153.5156 H   0  0  0  0  0  0  0  0  0  0  0  0
  149.5431  142.0414  154.9524 H   0  0  0  0  0  0  0  0  0  0  0  0
  150.6101  140.1212  153.7453 H   0  0  0  0  0  0  0  0  0  0  0  0
  150.1394  139.6769  155.3673 H   0  0  0  0  0  0  0  0  0  0  0  0
  148.6140  139.0172  152.7978 H   0  0  0  0  0  0  0  0  0  0  0  0
  149.4663  137.8886  153.8403 H   0  0  0  0  0  0  0  0  0  0  0  0
  146.2264  134.9103  156.4353 H   0  0  0  0  0  0  0  0  0  0  0  0
  145.1886  136.8803  150.3933 H   0  0  0  0  0  0  0  0  0  0  0  0
  144.1940  133.8231  152.5282 H   0  0  0  0  0  0  0  0  0  0  0  0
  143.3875  134.8293  151.3502 H   0  0  0  0  0  0  0  0  0  0  0  0
  145.5548  134.4541  149.8980 H   0  0  0  0  0  0  0  0  0  0  0  0
  143.6407  132.0971  150.1178 H   0  0  0  0  0  0  0  0  0  0  0  0
  143.2229  133.6025  149.3549 H   0  0  0  0  0  0  0  0  0  0  0  0
  145.1289  133.2635  148.0226 H   0  0  0  0  0  0  0  0  0  0  0  0
  146.7629  132.3779  150.2246 H   0  0  0  0  0  0  0  0  0  0  0  0
  144.9299  131.9349  152.6038 H   0  0  0  0  0  0  0  0  0  0  0  0
  145.2719  130.7941  151.2974 H   0  0  0  0  0  0  0  0  0  0  0  0
  146.7325  130.6784  153.5803 H   0  0  0  0  0  0  0  0  0  0  0  0
  147.5514  130.5126  152.0248 H   0  0  0  0  0  0  0  0  0  0  0  0
  147.9442  133.9885  151.5535 H   0  0  0  0  0  0  0  0  0  0  0  0
  146.6198  134.1219  152.7110 H   0  0  0  0  0  0  0  0  0  0  0  0
  145.9490  139.6721  155.3434 H   0  0  0  0  0  0  0  0  0  0  0  0
  146.4916  140.1185  153.7504 H   0  0  0  0  0  0  0  0  0  0  0  0
  147.3525  143.2130  155.2638 H   0  0  0  0  0  0  0  0  0  0  0  0
  146.0062  142.3075  154.5748 H   0  0  0  0  0  0  0  0  0  0  0  0
  145.3382  142.8745  156.9079 H   0  0  0  0  0  0  0  0  0  0  0  0
  1  2  2  0  0  0  0
  2 29  1  0  0  0  0
  2  3  1  0  0  0  0
  3  4  1  0  0  0  0
  3 30  1  0  0  0  0
  3 31  1  0  0  0  0
  4 27  1  0  0  0  0
  4  5  1  0  0  0  0
  4 28  1  0  0  0  0
  5  6  1  0  0  0  0
  5 32  1  0  0  0  0
  5 33  1  0  0  0  0
  6  7  1  0  0  0  0
  6 34  1  0  0  0  0
  6 35  1  0  0  0  0
  7  8  1  0  0  0  0
  7 36  1  0  0  0  0
  7 37  1  0  0  0  0
  8  9  1  0  0  0  0
  8 27  1  0  0  0  0
  9 14  1  0  0  0  0
  9 10  2  0  0  0  0
 10 11  1  0  0  0  0
 11 12  2  0  0  0  0
 11 38  1  0  0  0  0
 12 13  1  0  0  0  0
 13 17  1  0  0  0  0
 13 14  2  0  0  0  0
 14 15  1  0  0  0  0
 15 16  2  0  0  0  0
 16 17  1  0  0  0  0
 16 39  1  0  0  0  0
 17 18  1  0  0  0  0
 18 19  1  0  0  0  0
 18 40  1  0  0  0  0
 18 41  1  0  0  0  0
 19 20  1  0  0  0  0
 19 22  1  0  0  0  0
 19 42  1  0  0  0  0
 20 21  1  0  0  0  0
 20 43  1  0  0  0  0
 20 44  1  0  0  0  0
 21 45  1  0  0  0  0
 22 26  1  0  0  0  0
 22 23  1  0  0  0  0
 22 46  1  0  0  0  0
 23 24  1  0  0  0  0
 23 47  1  0  0  0  0
 23 48  1  0  0  0  0
 24 25  1  0  0  0  0
 24 49  1  0  0  0  0
 24 50  1  0  0  0  0
 25 26  1  0  0  0  0
 26 51  1  0  0  0  0
 26 52  1  0  0  0  0
 27 53  1  0  0  0  0
 27 54  1  0  0  0  0
 28 29  1  0  0  0  0
 28 55  1  0  0  0  0
 28 56  1  0  0  0  0
 29 57  1  0  0  0  0
M  END
> <s_m_source_file>
AV-unprocessed.smi

> <i_m_source_file_index>
20

> <i_lp_mmshare_version>
43012

> <i_f3d_flags>
0

> <s_epik_input>
W0NIMl0xW05IXUMoPU8pW0NIMl1bQ0BAXTEyW0NIMl1bQ0gyXVtDSDJdTihbQ0gyXTIpYyhuW2NIXW4zKWMoYzM0KW5bY0hdbjRbQ0gyXVtDQEhdKFtDSDJdW09IXSlbQ0BASF01W0NIMl1bQ0gyXU9bQ0gyXTU=

> <s_epik_cmdline>
J2VwaWtfcHl0aG9uJywgJy1waCcsICc3LjAnLCAnLXRuJywgJzgnLCAnLW1hJywgJzIwMCcsICctbWV0YWxfYmluZGluZycsICctaW1hZScsICc8aW5maWxlLm1hZT4nLCAnLW9tYWUnLCAnPG91dGZpbGUubWFlPic=

> <r_lp_tautomer_probability>
1

> <r_epik_Ionization_Penalty>
0.0019697

> <r_epik_Ionization_Penalty_Charging>
0

> <r_epik_Ionization_Penalty_Neutral>
0.0019697

> <r_epik_State_Penalty>
0.00113613

> <r_epik_Charging_Adjusted_Penalty>
0.00113613

> <i_epik_Tot_Q>
0

> <i_epik_Tot_abs_Q>
0

> <r_epik_Metal_State_Penalty>
-0

> <b_epik_Metal_Only>
0

> <s_lp_Force_Field>
OPLS_2005

> <r_lp_Energy>
58.2949

> <b_lp_Chiralities_Consistent>
1

> <s_lp_Variant>
AV-unprocessed.smi:20-2

> <Gold.Version>
5.8.1

> <Gold.Id.Protein>
6NUR|6NUR_protein|mol2

> <Gold.PLP.Fitness>
42.1890

> <Gold.PLP.PLP>
-35.6053

> <Gold.PLP.part.hbond>
-3.0000

> <Gold.PLP.part.metal>
0.0000

> <Gold.PLP.part.buried>
-2.2178

> <Gold.PLP.part.nonpolar>
-30.0611

> <Gold.PLP.part.repulsive>
0.8774

> <Gold.PLP.ligand.clash>
0.0000

> <Gold.PLP.ligand.torsion>
0.6061

> <Gold.PLP.Chemscore.Hbond>
1.5868

> <Gold.PLP.Chemscore.CHOScore>
0.8224

> <Gold.PLP.Chemscore.Metal>
0.0000

> <Gold.Chemscore.Hbonds>
donor molecule, donor type, donor heavy atom, donor atom, acceptor molecule, acceptor atom, score
      L1  H    21    45       P1  7921  1.00
      P1  H  6934  6946       L1     1  0.49
      L1  C    16    39       P1 10171  0.82

> <Gold.PLP.Chemscore.Internal.Correction>
0.5682

> <Gold.Rescore>
     Score         DG    S(hbond)    S(metal)    S(lipo)     H(rot)  DE(clash)    DE(int)     intcor
      9.21     -12.66       1.32        0.00      83.69       2.74       1.71       1.74       ----

> <Gold.Chemscore.Fitness>
9.2063

> <Gold.Chemscore.DG>
-12.6629

> <Gold.Chemscore.ZeroCoef>
-5.4800

> <Gold.Chemscore.Hbond>
1.3202

> <Gold.Chemscore.Metal>
0.0000

> <Gold.Chemscore.Lipo>
83.6902

> <Gold.Chemscore.Internal_Hbond>
0.0000

> <Gold.Chemscore.DEClash>
1.7120

> <Gold.Chemscore.DEInternal>
1.7445

> <Gold.Chemscore.Rot>
2.7415

> <Gold.Chemscore.Internal.Correction>
   9.000000E+99

> <Gold.Chemscore.Hbonds>
donor molecule, donor type, donor heavy atom, donor atom, acceptor molecule, acceptor atom, score
      L1  H    21    45       P1  7921  0.30
      P1  H  6934  6946       L1     1  0.48

> <Gold.Chemscore.Hbond.Weighted>
-4.4094

> <Gold.Chemscore.Metal.Weighted>
-0.0000

> <Gold.Chemscore.Lipo.Weighted>
-9.7918

> <Gold.Chemscore.Internal_Hbond.Weighted>
0.0000

> <Gold.Chemscore.DEClash.Weighted>
1.7120

> <Gold.Chemscore.DEInternal.Weighted>
1.7445

> <Gold.Chemscore.Rot.Weighted>
7.0182

> <Gold.Chemscore.Internal.Correction.Weighted>
   9.000000E+99

> <Gold.Protein.RotatedTorsions>
[ 6907 6896 6895 6894 ] final  -31.62 input  -60.11 | X-H torsion
[ 7974 7965 7964 7962 ] final  109.54 input  175.53 | X-H torsion
[ 8008 7997 7996 7995 ] final -125.43 input   59.86 | X-H torsion
[ 10167 10162 10161 10158 ] final    9.80 input  -65.29 | X-H torsion
[ 10718 10713 10712 10709 ] final  174.18 input   66.30 | X-H torsion
[ 10763 10752 10751 10750 ] final  -74.10 input  -60.55 | X-H torsion
[ 11005 11000 10999 10996 ] final -129.99 input  -57.11 | X-H torsion

> <Gold.Protein.ActiveResidues>
 VAL166  LYS551  ARG553  GLY616  TRP617  ASP618  TYR619  PRO620  LYS621  CYS622 
 ASP623  PHE694  ASN695  SER759  ASP760  ASP761  ALA762  ILE779  LEU786  VAL792 
 PHE793  MET794  SER795  GLU796  ALA797  LYS798  CYS799  TRP800  GLU811  SER814 

> <Gold.Protein.RotatedAtoms>
  151.0897  134.9908  159.8396 H   0  0  0  0  0  0  0  0  0  0  0  0  # atno 6907 bound_to 6896
  152.5428  134.2081  159.8749 H   0  0  0  0  0  0  0  0  0  0  0  0  # atno 6908 bound_to 6896
  151.2116  133.4509  159.2632 H   0  0  0  0  0  0  0  0  0  0  0  0  # atno 6909 bound_to 6896
  145.2665  139.2682  143.3989 H   0  0  0  0  0  0  0  0  0  0  0  0  # atno 7974 bound_to 7965
  155.2131  140.0419  157.2936 H   0  0  0  0  0  0  0  0  0  0  0  0  # atno 8008 bound_to 7997
  154.5998  140.2449  155.7778 H   0  0  0  0  0  0  0  0  0  0  0  0  # atno 8009 bound_to 7997
  156.2314  140.2937  156.0207 H   0  0  0  0  0  0  0  0  0  0  0  0  # atno 8010 bound_to 7997
  140.6233  143.8156  150.7202 H   0  0  0  0  0  0  0  0  0  0  0  0  # atno 10167 bound_to 10162
  156.9534  131.0038  151.2943 H   0  0  0  0  0  0  0  0  0  0  0  0  # atno 10718 bound_to 10713
  154.4685  135.5875  153.6305 H   0  0  0  0  0  0  0  0  0  0  0  0  # atno 10763 bound_to 10752
  152.9831  135.6061  154.3397 H   0  0  0  0  0  0  0  0  0  0  0  0  # atno 10764 bound_to 10752
  154.3276  135.2843  155.2467 H   0  0  0  0  0  0  0  0  0  0  0  0  # atno 10765 bound_to 10752
  140.9384  134.1226  157.4172 H   0  0  0  0  0  0  0  0  0  0  0  0  # atno 11005 bound_to 11000
  146.3259  140.3097  142.8626 LP  0  0  0  0  0  0  0  0  0  0  0  0  # atno 17320 bound_to 7965
  144.9372  140.8039  143.5653 LP  0  0  0  0  0  0  0  0  0  0  0  0  # atno 17321 bound_to 7965
  140.1751  143.4161  152.1973 LP  0  0  0  0  0  0  0  0  0  0  0  0  # atno 17342 bound_to 10162
  139.5458  144.7297  151.4589 LP  0  0  0  0  0  0  0  0  0  0  0  0  # atno 17343 bound_to 10162
  157.5707  130.8308  149.8387 LP  0  0  0  0  0  0  0  0  0  0  0  0  # atno 17370 bound_to 10713
  156.0353  130.3753  150.1577 LP  0  0  0  0  0  0  0  0  0  0  0  0  # atno 17371 bound_to 10713
  139.8814  135.0028  156.6152 LP  0  0  0  0  0  0  0  0  0  0  0  0  # atno 17394 bound_to 11000
  140.7767  133.8693  155.8535 LP  0  0  0  0  0  0  0  0  0  0  0  0  # atno 17395 bound_to 11000

$$$$
