AV-unprocessed.smi:2210|AV-procd|sdf|8949|dock7
  -GOLD-   2272012163D 1   1.00000     0.00000
 Structure written by MMmdl.
 37 38  0  0  0  0  0  0  0  0  1 V2000
  153.0516  140.0635  157.7328 O   0  0  0  0  0  0  0  0  0  0  0  0
  152.0858  140.0156  158.4944 C   0  0  0  0  0  0  0  0  0  0  0  0
  152.1745  140.2330  159.8144 N   0  0  0  0  0  0  0  0  0  0  0  0
  153.4039  140.5556  160.5295 C   0  0  0  0  0  0  0  0  0  0  0  0
  153.2288  141.7942  161.4258 C   0  0  0  0  0  0  0  0  0  0  0  0
  153.0012  143.0688  160.6303 C   0  0  0  0  0  0  0  0  0  0  0  0
  152.6401  144.2238  161.2229 C   0  0  0  0  0  0  0  0  0  0  0  0
  152.3860  145.5223  160.4777 C   0  0  0  0  0  0  0  0  0  0  0  0
  152.2426  145.3093  158.9614 C   0  0  0  0  0  0  0  0  0  0  0  0
  153.3084  144.3399  158.4360 C   0  0  0  0  0  0  0  0  0  0  0  0
  153.2039  142.9663  159.1225 C   0  0  0  0  0  0  0  0  0  0  0  0
  150.8237  139.7267  158.1333 N   0  0  0  0  0  0  0  0  0  0  0  0
  150.3185  139.4396  156.8363 C   0  0  0  0  0  0  0  0  0  0  0  0
  149.0808  138.7982  156.5869 C   0  0  0  0  0  0  0  0  0  0  0  0
  148.6981  138.5551  155.2536 C   0  0  0  0  0  0  0  0  0  0  0  0
  149.5686  138.9534  154.2205 C   0  0  0  0  0  0  0  0  0  0  0  0
  150.7575  139.5514  154.4439 N   0  0  0  0  0  0  0  0  0  0  0  0
  151.1176  139.7815  155.7246 C   0  0  0  0  0  0  0  0  0  0  0  0
  151.3315  140.1664  160.3659 H   0  0  0  0  0  0  0  0  0  0  0  0
  153.6727  139.6874  161.1311 H   0  0  0  0  0  0  0  0  0  0  0  0
  154.2201  140.7082  159.8212 H   0  0  0  0  0  0  0  0  0  0  0  0
  152.3866  141.6412  162.1022 H   0  0  0  0  0  0  0  0  0  0  0  0
  154.1074  141.9294  162.0575 H   0  0  0  0  0  0  0  0  0  0  0  0
  152.5235  144.2640  162.2962 H   0  0  0  0  0  0  0  0  0  0  0  0
  151.4856  145.9935  160.8728 H   0  0  0  0  0  0  0  0  0  0  0  0
  153.2158  146.1979  160.6868 H   0  0  0  0  0  0  0  0  0  0  0  0
  151.2533  144.9052  158.7422 H   0  0  0  0  0  0  0  0  0  0  0  0
  152.3078  146.2658  158.4419 H   0  0  0  0  0  0  0  0  0  0  0  0
  153.2164  144.2234  157.3557 H   0  0  0  0  0  0  0  0  0  0  0  0
  154.2973  144.7631  158.6171 H   0  0  0  0  0  0  0  0  0  0  0  0
  154.1037  142.3870  158.9133 H   0  0  0  0  0  0  0  0  0  0  0  0
  152.3651  142.4105  158.7026 H   0  0  0  0  0  0  0  0  0  0  0  0
  150.1548  139.6453  158.8851 H   0  0  0  0  0  0  0  0  0  0  0  0
  148.4283  138.4775  157.3838 H   0  0  0  0  0  0  0  0  0  0  0  0
  147.7598  138.0698  155.0286 H   0  0  0  0  0  0  0  0  0  0  0  0
  149.3056  138.7805  153.1872 H   0  0  0  0  0  0  0  0  0  0  0  0
  152.0759  140.2601  155.8650 H   0  0  0  0  0  0  0  0  0  0  0  0
  1  2  2  0  0  0  0
  2  3  1  0  0  0  0
  2 12  1  0  0  0  0
  3  4  1  0  0  0  0
  3 19  1  0  0  0  0
  4  5  1  0  0  0  0
  4 20  1  0  0  0  0
  4 21  1  0  0  0  0
  5  6  1  0  0  0  0
  5 22  1  0  0  0  0
  5 23  1  0  0  0  0
  6 11  1  0  0  0  0
  6  7  2  0  0  0  0
  7  8  1  0  0  0  0
  7 24  1  0  0  0  0
  8  9  1  0  0  0  0
  8 25  1  0  0  0  0
  8 26  1  0  0  0  0
  9 10  1  0  0  0  0
  9 27  1  0  0  0  0
  9 28  1  0  0  0  0
 10 11  1  0  0  0  0
 10 29  1  0  0  0  0
 10 30  1  0  0  0  0
 11 31  1  0  0  0  0
 11 32  1  0  0  0  0
 12 13  1  0  0  0  0
 12 33  1  0  0  0  0
 13 18  1  0  0  0  0
 13 14  2  0  0  0  0
 14 15  1  0  0  0  0
 14 34  1  0  0  0  0
 15 16  2  0  0  0  0
 15 35  1  0  0  0  0
 16 17  1  0  0  0  0
 16 36  1  0  0  0  0
 17 18  2  0  0  0  0
 18 37  1  0  0  0  0
M  END
> <s_m_source_file>
AV-unprocessed.smi

> <i_m_source_file_index>
2210

> <i_lp_mmshare_version>
43012

> <i_f3d_flags>
0

> <s_epik_input>
W2NIXTFuW2NIXVtjSF1bY0hdYzFbTkhdQyg9TylbTkhdW0NIMl1bQ0gyXUMyPVtDSF1bQ0gyXVtDSDJdW0NIMl1bQ0gyXTI=

> <s_epik_cmdline>
J2VwaWtfcHl0aG9uJywgJy1waCcsICc3LjAnLCAnLXRuJywgJzgnLCAnLW1hJywgJzIwMCcsICctbWV0YWxfYmluZGluZycsICctaW1hZScsICc8aW5maWxlLm1hZT4nLCAnLW9tYWUnLCAnPG91dGZpbGUubWFlPic=

> <r_epik_Ionization_Penalty>
0.00482236

> <r_epik_Ionization_Penalty_Charging>
0

> <r_epik_Ionization_Penalty_Neutral>
0.00482236

> <r_epik_State_Penalty>
0.0034674

> <r_epik_Charging_Adjusted_Penalty>
0.0034674

> <i_epik_Tot_Q>
0

> <i_epik_Tot_abs_Q>
0

> <r_epik_Metal_State_Penalty>
-0

> <b_epik_Metal_Only>
0

> <s_lp_Force_Field>
OPLS_2005

> <r_lp_Energy>
10.3884

> <b_lp_Chiralities_Consistent>
1

> <s_lp_Variant>
AV-unprocessed.smi:2210-1

> <Gold.Version>
5.8.1

> <Gold.Id.Protein>
6NUR|6NUR_protein|mol2

> <Gold.PLP.Fitness>
48.6995

> <Gold.PLP.PLP>
-37.7571

> <Gold.PLP.part.hbond>
-1.6876

> <Gold.PLP.part.metal>
0.0000

> <Gold.PLP.part.buried>
-0.2737

> <Gold.PLP.part.nonpolar>
-36.7874

> <Gold.PLP.part.repulsive>
0.3801

> <Gold.PLP.ligand.clash>
0.0000

> <Gold.PLP.ligand.torsion>
0.2067

> <Gold.PLP.Chemscore.Hbond>
1.8440

> <Gold.PLP.Chemscore.CHOScore>
1.9400

> <Gold.PLP.Chemscore.Metal>
0.0000

> <Gold.Chemscore.Hbonds>
donor molecule, donor type, donor heavy atom, donor atom, acceptor molecule, acceptor atom, score
      P1  H  7989  7998       L1    17  1.00
      P1  H  7997  8008       L1     1  1.00
      L1  C    16    36       P1  7948  0.17
      L1  C    16    36       P1  7957  1.00

> <Gold.PLP.Chemscore.Internal.Correction>
0.0038

> <Gold.Rescore>
     Score         DG    S(hbond)    S(metal)    S(lipo)     H(rot)  DE(clash)    DE(int)     intcor
     17.75     -20.53       1.44        0.00     117.51       1.37       1.22       1.57       ----

> <Gold.Chemscore.Fitness>
17.7450

> <Gold.Chemscore.DG>
-20.5339

> <Gold.Chemscore.ZeroCoef>
-5.4800

> <Gold.Chemscore.Hbond>
1.4443

> <Gold.Chemscore.Metal>
0.0000

> <Gold.Chemscore.Lipo>
117.5140

> <Gold.Chemscore.Internal_Hbond>
0.0000

> <Gold.Chemscore.DEClash>
1.2158

> <Gold.Chemscore.DEInternal>
1.5731

> <Gold.Chemscore.Rot>
1.3747

> <Gold.Chemscore.Internal.Correction>
   9.000000E+99

> <Gold.Chemscore.Hbonds>
donor molecule, donor type, donor heavy atom, donor atom, acceptor molecule, acceptor atom, score
      P1  H  7989  7998       L1    17  0.45
      P1  H  7997  8008       L1     1  0.97

> <Gold.Chemscore.Hbond.Weighted>
-4.8240

> <Gold.Chemscore.Metal.Weighted>
-0.0000

> <Gold.Chemscore.Lipo.Weighted>
-13.7491

> <Gold.Chemscore.Internal_Hbond.Weighted>
0.0000

> <Gold.Chemscore.DEClash.Weighted>
1.2158

> <Gold.Chemscore.DEInternal.Weighted>
1.5731

> <Gold.Chemscore.Rot.Weighted>
3.5192

> <Gold.Chemscore.Internal.Correction.Weighted>
   9.000000E+99

> <Gold.Protein.RotatedTorsions>
[ 6907 6896 6895 6894 ] final   68.55 input  -60.11 | X-H torsion
[ 7974 7965 7964 7962 ] final   -7.97 input  175.53 | X-H torsion
[ 8008 7997 7996 7995 ] final  -79.22 input   59.86 | X-H torsion
[ 10167 10162 10161 10158 ] final   20.53 input  -65.29 | X-H torsion
[ 10718 10713 10712 10709 ] final  130.48 input   66.30 | X-H torsion
[ 10763 10752 10751 10750 ] final -120.29 input  -60.55 | X-H torsion
[ 11005 11000 10999 10996 ] final -179.64 input  -57.11 | X-H torsion

> <Gold.Protein.ActiveResidues>
 VAL166  LYS551  ARG553  GLY616  TRP617  ASP618  TYR619  PRO620  LYS621  CYS622 
 ASP623  PHE694  ASN695  SER759  ASP760  ASP761  ALA762  ILE779  LEU786  VAL792 
 PHE793  MET794  SER795  GLU796  ALA797  LYS798  CYS799  TRP800  GLU811  SER814 

> <Gold.Protein.RotatedAtoms>
  152.4628  134.5145  159.9763 H   0  0  0  0  0  0  0  0  0  0  0  0  # atno 6907 bound_to 6896
  151.5190  133.3464  159.2906 H   0  0  0  0  0  0  0  0  0  0  0  0  # atno 6908 bound_to 6896
  150.8598  134.7976  159.7136 H   0  0  0  0  0  0  0  0  0  0  0  0  # atno 6909 bound_to 6896
  146.2293  140.2398  142.8343 H   0  0  0  0  0  0  0  0  0  0  0  0  # atno 7974 bound_to 7965
  154.5764  140.0682  156.9040 H   0  0  0  0  0  0  0  0  0  0  0  0  # atno 8008 bound_to 7997
  155.2542  140.3354  155.4261 H   0  0  0  0  0  0  0  0  0  0  0  0  # atno 8009 bound_to 7997
  156.2157  140.1777  156.7580 H   0  0  0  0  0  0  0  0  0  0  0  0  # atno 8010 bound_to 7997
  140.5496  143.9533  150.6569 H   0  0  0  0  0  0  0  0  0  0  0  0  # atno 10167 bound_to 10162
  157.5057  131.1095  150.9364 H   0  0  0  0  0  0  0  0  0  0  0  0  # atno 10718 bound_to 10713
  154.8640  135.4208  154.2436 H   0  0  0  0  0  0  0  0  0  0  0  0  # atno 10763 bound_to 10752
  153.3397  135.6993  153.6883 H   0  0  0  0  0  0  0  0  0  0  0  0  # atno 10764 bound_to 10752
  153.5867  135.3562  155.2868 H   0  0  0  0  0  0  0  0  0  0  0  0  # atno 10765 bound_to 10752
  140.4163  134.6646  157.4641 H   0  0  0  0  0  0  0  0  0  0  0  0  # atno 11005 bound_to 11000
  144.9493  140.8161  143.5582 LP  0  0  0  0  0  0  0  0  0  0  0  0  # atno 17320 bound_to 7965
  145.2357  139.2095  143.5019 LP  0  0  0  0  0  0  0  0  0  0  0  0  # atno 17321 bound_to 7965
  140.2955  143.3295  152.1022 LP  0  0  0  0  0  0  0  0  0  0  0  0  # atno 17342 bound_to 10162
  139.5022  144.6729  151.6199 LP  0  0  0  0  0  0  0  0  0  0  0  0  # atno 17343 bound_to 10162
  157.0020  130.5603  149.5312 LP  0  0  0  0  0  0  0  0  0  0  0  0  # atno 17370 bound_to 10713
  156.0257  130.5351  150.8400 LP  0  0  0  0  0  0  0  0  0  0  0  0  # atno 17371 bound_to 10713
  140.0231  134.6517  155.9211 LP  0  0  0  0  0  0  0  0  0  0  0  0  # atno 17394 bound_to 11000
  141.1801  133.6545  156.4986 LP  0  0  0  0  0  0  0  0  0  0  0  0  # atno 17395 bound_to 11000

$$$$
