AV-unprocessed.smi:1446|AV-procd|sdf|5889|dock2
  -GOLD-   22720 5573D 1   1.00000     0.00000
 Structure written by MMmdl.
 47 48  0  0  0  0  0  0  0  0  1 V2000
  142.4305  137.8458  152.9184 C   0  0  0  0  0  0  0  0  0  0  0  0
  143.8837  137.4025  153.0440 C   0  0  0  0  0  0  0  0  0  0  0  0
  144.1541  136.2224  153.2636 O   0  0  0  0  0  0  0  0  0  0  0  0
  144.8111  138.3623  152.9004 N   0  0  0  0  0  0  0  0  0  0  0  0
  146.2599  138.1633  152.9838 C   0  0  2  0  0  0  0  0  0  0  0  0
  146.8387  139.1496  154.0176 C   0  0  0  0  0  0  0  0  0  0  0  0
  146.0906  139.9334  154.6050 O   0  0  0  0  0  0  0  0  0  0  0  0
  148.1722  139.0898  154.1951 N   0  0  0  0  0  0  0  0  0  0  0  0
  148.9823  139.8749  155.0574 C   0  0  0  0  0  0  0  0  0  0  0  0
  150.2225  139.2988  155.4037 C   0  0  0  0  0  0  0  0  0  0  0  0
  151.1017  139.9999  156.2512 C   0  0  0  0  0  0  0  0  0  0  0  0
  150.7276  141.2715  156.7471 C   0  0  0  0  0  0  0  0  0  0  0  0
  151.5582  142.0356  157.5957 N   0  0  0  0  0  0  0  0  0  0  0  0
  151.2832  143.4698  157.6395 C   0  0  0  0  0  0  0  0  0  0  0  0
  152.4448  144.2175  158.3175 C   0  0  0  0  0  0  0  0  0  0  0  0
  152.6936  143.6590  159.6034 O   0  0  0  0  0  0  0  0  0  0  0  0
  153.0727  142.2893  159.5203 C   0  0  0  0  0  0  0  0  0  0  0  0
  151.9313  141.4727  158.8902 C   0  0  0  0  0  0  0  0  0  0  0  0
  149.4654  141.7625  156.3405 C   0  0  0  0  0  0  0  0  0  0  0  0
  148.6226  141.0933  155.5268 N   0  0  0  0  0  0  0  0  0  0  0  0
  146.8876  138.4302  151.5834 C   0  0  0  0  0  0  0  0  0  0  0  0
  146.9564  139.9357  151.2578 C   0  0  0  0  0  0  0  0  0  0  0  0
  146.1444  137.7023  150.4439 C   0  0  0  0  0  0  0  0  0  0  0  0
  142.1812  138.5579  153.7052 H   0  0  0  0  0  0  0  0  0  0  0  0
  141.7560  136.9930  153.0022 H   0  0  0  0  0  0  0  0  0  0  0  0
  142.2598  138.3221  151.9527 H   0  0  0  0  0  0  0  0  0  0  0  0
  144.4932  139.3054  152.7297 H   0  0  0  0  0  0  0  0  0  0  0  0
  146.4712  137.1351  153.2854 H   0  0  0  0  0  0  0  0  0  0  0  0
  148.6631  138.3986  153.6473 H   0  0  0  0  0  0  0  0  0  0  0  0
  150.5034  138.3264  155.0260 H   0  0  0  0  0  0  0  0  0  0  0  0
  152.0442  139.5422  156.5110 H   0  0  0  0  0  0  0  0  0  0  0  0
  151.1284  143.8837  156.6440 H   0  0  0  0  0  0  0  0  0  0  0  0
  150.3603  143.6333  158.1974 H   0  0  0  0  0  0  0  0  0  0  0  0
  153.3479  144.1678  157.7071 H   0  0  0  0  0  0  0  0  0  0  0  0
  152.1956  145.2726  158.4307 H   0  0  0  0  0  0  0  0  0  0  0  0
  153.9900  142.1890  158.9377 H   0  0  0  0  0  0  0  0  0  0  0  0
  153.2900  141.9191  160.5222 H   0  0  0  0  0  0  0  0  0  0  0  0
  151.0629  141.4769  159.5504 H   0  0  0  0  0  0  0  0  0  0  0  0
  152.2528  140.4372  158.7733 H   0  0  0  0  0  0  0  0  0  0  0  0
  149.1173  142.7347  156.6563 H   0  0  0  0  0  0  0  0  0  0  0  0
  147.9143  138.0596  151.5871 H   0  0  0  0  0  0  0  0  0  0  0  0
  145.9647  140.3887  151.2735 H   0  0  0  0  0  0  0  0  0  0  0  0
  147.3812  140.1043  150.2678 H   0  0  0  0  0  0  0  0  0  0  0  0
  147.5821  140.4795  151.9653 H   0  0  0  0  0  0  0  0  0  0  0  0
  145.0916  137.9849  150.4161 H   0  0  0  0  0  0  0  0  0  0  0  0
  146.1965  136.6181  150.5448 H   0  0  0  0  0  0  0  0  0  0  0  0
  146.5774  137.9479  149.4740 H   0  0  0  0  0  0  0  0  0  0  0  0
  1  2  1  0  0  0  0
  1 24  1  0  0  0  0
  1 25  1  0  0  0  0
  1 26  1  0  0  0  0
  2  3  2  0  0  0  0
  2  4  1  0  0  0  0
  4  5  1  0  0  0  0
  4 27  1  0  0  0  0
  5  6  1  0  0  0  0
  5 21  1  0  0  0  0
  5 28  1  0  0  0  0
  6  7  2  0  0  0  0
  6  8  1  0  0  0  0
  8  9  1  0  0  0  0
  8 29  1  0  0  0  0
  9 20  1  0  0  0  0
  9 10  2  0  0  0  0
 10 11  1  0  0  0  0
 10 30  1  0  0  0  0
 11 12  2  0  0  0  0
 11 31  1  0  0  0  0
 12 13  1  0  0  0  0
 12 19  1  0  0  0  0
 13 18  1  0  0  0  0
 13 14  1  0  0  0  0
 14 15  1  0  0  0  0
 14 32  1  0  0  0  0
 14 33  1  0  0  0  0
 15 16  1  0  0  0  0
 15 34  1  0  0  0  0
 15 35  1  0  0  0  0
 16 17  1  0  0  0  0
 17 18  1  0  0  0  0
 17 36  1  0  0  0  0
 17 37  1  0  0  0  0
 18 38  1  0  0  0  0
 18 39  1  0  0  0  0
 19 20  2  0  0  0  0
 19 40  1  0  0  0  0
 21 22  1  0  0  0  0
 21 23  1  0  0  0  0
 21 41  1  0  0  0  0
 22 42  1  0  0  0  0
 22 43  1  0  0  0  0
 22 44  1  0  0  0  0
 23 45  1  0  0  0  0
 23 46  1  0  0  0  0
 23 47  1  0  0  0  0
M  END
> <s_m_source_file>
AV-unprocessed.smi

> <i_m_source_file_index>
1446

> <i_lp_mmshare_version>
43012

> <i_f3d_flags>
0

> <s_epik_input>
W0NIM11DKD1PKVtOSF1bQ0BASF0oW0NIXShbQ0gzXSlbQ0gzXSlDKD1PKVtOSF1jMVtjSF1bY0hdYyhbY0hdbjEpTjJbQ0gyXVtDSDJdT1tDSDJdW0NIMl0y

> <s_epik_cmdline>
J2VwaWtfcHl0aG9uJywgJy1waCcsICc3LjAnLCAnLXRuJywgJzgnLCAnLW1hJywgJzIwMCcsICctbWV0YWxfYmluZGluZycsICctaW1hZScsICc8aW5maWxlLm1hZT4nLCAnLW9tYWUnLCAnPG91dGZpbGUubWFlPic=

> <r_lp_tautomer_probability>
1

> <r_epik_Ionization_Penalty>
0.00298315

> <r_epik_Ionization_Penalty_Charging>
0

> <r_epik_Ionization_Penalty_Neutral>
0.00298315

> <r_epik_State_Penalty>
0.0038483

> <r_epik_Charging_Adjusted_Penalty>
0.0038483

> <i_epik_Tot_Q>
0

> <i_epik_Tot_abs_Q>
0

> <r_epik_Metal_State_Penalty>
-0

> <b_epik_Metal_Only>
0

> <s_lp_Force_Field>
OPLS_2005

> <r_lp_Energy>
27.9322

> <b_lp_Chiralities_Consistent>
1

> <s_lp_Variant>
AV-unprocessed.smi:1446-1

> <Gold.Version>
5.8.1

> <Gold.Id.Protein>
6NUR|6NUR_protein|mol2

> <Gold.PLP.Fitness>
39.3122

> <Gold.PLP.PLP>
-34.1926

> <Gold.PLP.part.hbond>
-1.0000

> <Gold.PLP.part.metal>
0.0000

> <Gold.PLP.part.buried>
6.9400

> <Gold.PLP.part.nonpolar>
-39.8270

> <Gold.PLP.part.repulsive>
0.2689

> <Gold.PLP.ligand.clash>
0.0000

> <Gold.PLP.ligand.torsion>
0.6379

> <Gold.PLP.Chemscore.Hbond>
1.0000

> <Gold.PLP.Chemscore.CHOScore>
1.0000

> <Gold.PLP.Chemscore.Metal>
0.0000

> <Gold.Chemscore.Hbonds>
donor molecule, donor type, donor heavy atom, donor atom, acceptor molecule, acceptor atom, score
      L1  H     4    27       P1 10175  0.76
      L1  C    19    40       P1  8028  1.00

> <Gold.PLP.Chemscore.Internal.Correction>
0.3954

> <Gold.Rescore>
     Score         DG    S(hbond)    S(metal)    S(lipo)     H(rot)  DE(clash)    DE(int)     intcor
     12.52     -16.74       1.00        0.00     105.74       1.74       2.33       1.88       ----

> <Gold.Chemscore.Fitness>
12.5205

> <Gold.Chemscore.DG>
-16.7354

> <Gold.Chemscore.ZeroCoef>
-5.4800

> <Gold.Chemscore.Hbond>
0.9988

> <Gold.Chemscore.Metal>
0.0000

> <Gold.Chemscore.Lipo>
105.7447

> <Gold.Chemscore.Internal_Hbond>
0.0000

> <Gold.Chemscore.DEClash>
2.3344

> <Gold.Chemscore.DEInternal>
1.8805

> <Gold.Chemscore.Rot>
1.7394

> <Gold.Chemscore.Internal.Correction>
   9.000000E+99

> <Gold.Chemscore.Hbonds>
donor molecule, donor type, donor heavy atom, donor atom, acceptor molecule, acceptor atom, score
      L1  H     4    27       P1 10175  0.75

> <Gold.Chemscore.Hbond.Weighted>
-3.3361

> <Gold.Chemscore.Metal.Weighted>
-0.0000

> <Gold.Chemscore.Lipo.Weighted>
-12.3721

> <Gold.Chemscore.Internal_Hbond.Weighted>
0.0000

> <Gold.Chemscore.DEClash.Weighted>
2.3344

> <Gold.Chemscore.DEInternal.Weighted>
1.8805

> <Gold.Chemscore.Rot.Weighted>
4.4528

> <Gold.Chemscore.Internal.Correction.Weighted>
   9.000000E+99

> <Gold.Protein.RotatedTorsions>
[ 6907 6896 6895 6894 ] final   16.15 input  -60.11 | X-H torsion
[ 7974 7965 7964 7962 ] final  142.52 input  175.53 | X-H torsion
[ 8008 7997 7996 7995 ] final  169.51 input   59.86 | X-H torsion
[ 10167 10162 10161 10158 ] final -161.71 input  -65.29 | X-H torsion
[ 10718 10713 10712 10709 ] final  160.85 input   66.30 | X-H torsion
[ 10763 10752 10751 10750 ] final  -94.06 input  -60.55 | X-H torsion
[ 11005 11000 10999 10996 ] final  113.97 input  -57.11 | X-H torsion

> <Gold.Protein.ActiveResidues>
 VAL166  LYS551  ARG553  GLY616  TRP617  ASP618  TYR619  PRO620  LYS621  CYS622 
 ASP623  PHE694  ASN695  SER759  ASP760  ASP761  ALA762  ILE779  LEU786  VAL792 
 PHE793  MET794  SER795  GLU796  ALA797  LYS798  CYS799  TRP800  GLU811  SER814 

> <Gold.Protein.RotatedAtoms>
  151.8293  135.0626  160.0434 H   0  0  0  0  0  0  0  0  0  0  0  0  # atno 6907 bound_to 6896
  152.2892  133.5540  159.5555 H   0  0  0  0  0  0  0  0  0  0  0  0  # atno 6908 bound_to 6896
  150.7222  134.0369  159.3794 H   0  0  0  0  0  0  0  0  0  0  0  0  # atno 6909 bound_to 6896
  144.9000  139.5436  143.5758 H   0  0  0  0  0  0  0  0  0  0  0  0  # atno 7974 bound_to 7965
  156.1451  140.1562  156.8860 H   0  0  0  0  0  0  0  0  0  0  0  0  # atno 8008 bound_to 7997
  154.5021  140.0822  156.7856 H   0  0  0  0  0  0  0  0  0  0  0  0  # atno 8009 bound_to 7997
  155.4005  140.3414  155.4259 H   0  0  0  0  0  0  0  0  0  0  0  0  # atno 8010 bound_to 7997
  139.6445  144.0198  152.2117 H   0  0  0  0  0  0  0  0  0  0  0  0  # atno 10167 bound_to 10162
  157.1446  131.0549  151.2310 H   0  0  0  0  0  0  0  0  0  0  0  0  # atno 10718 bound_to 10713
  154.7019  135.5171  153.8539 H   0  0  0  0  0  0  0  0  0  0  0  0  # atno 10763 bound_to 10752
  153.0711  135.6601  154.0255 H   0  0  0  0  0  0  0  0  0  0  0  0  # atno 10764 bound_to 10752
  154.0113  135.3002  155.3371 H   0  0  0  0  0  0  0  0  0  0  0  0  # atno 10765 bound_to 10752
  139.8967  134.9559  156.6821 H   0  0  0  0  0  0  0  0  0  0  0  0  # atno 11005 bound_to 11000
  146.3103  139.7722  142.9025 LP  0  0  0  0  0  0  0  0  0  0  0  0  # atno 17320 bound_to 7965
  145.3633  141.0330  143.3272 LP  0  0  0  0  0  0  0  0  0  0  0  0  # atno 17321 bound_to 7965
  139.9896  144.6371  150.7826 LP  0  0  0  0  0  0  0  0  0  0  0  0  # atno 17342 bound_to 10162
  140.7507  143.2961  151.3202 LP  0  0  0  0  0  0  0  0  0  0  0  0  # atno 17343 bound_to 10162
  157.4276  130.7472  149.6963 LP  0  0  0  0  0  0  0  0  0  0  0  0  # atno 17370 bound_to 10713
  155.9782  130.4054  150.3665 LP  0  0  0  0  0  0  0  0  0  0  0  0  # atno 17371 bound_to 10713
  140.7291  133.9074  155.8199 LP  0  0  0  0  0  0  0  0  0  0  0  0  # atno 17394 bound_to 11000
  141.0167  134.0945  157.4164 LP  0  0  0  0  0  0  0  0  0  0  0  0  # atno 17395 bound_to 11000

$$$$
