AV-unprocessed.smi:2454|AV-procd|sdf|9695|dock10
  -GOLD-   2272013333D 1   1.00000     0.00000
 Structure written by MMmdl.
 42 43  0  0  0  0  0  0  0  0  1 V2000
  152.9372  138.4555  154.3981 C   0  0  0  0  0  0  0  0  0  0  0  0
  153.0894  139.5219  155.3183 O   0  0  0  0  0  0  0  0  0  0  0  0
  151.9496  139.6940  156.1482 C   0  0  0  0  0  0  0  0  0  0  0  0
  150.6932  140.0434  155.3696 C   0  0  0  0  0  0  0  0  0  0  0  0
  149.9948  139.0516  154.6487 C   0  0  0  0  0  0  0  0  0  0  0  0
  148.8386  139.4519  153.9413 C   0  0  0  0  0  0  0  0  0  0  0  0
  148.1630  138.4103  153.2398 N   0  0  0  0  0  0  0  0  0  0  0  0
  146.9176  138.3507  152.7213 C   0  0  0  0  0  0  0  0  0  0  0  0
  146.1423  139.3008  152.8160 O   0  0  0  0  0  0  0  0  0  0  0  0
  146.5878  137.2005  152.1116 N   0  0  0  0  0  0  0  0  0  0  0  0
  145.3183  136.9057  151.4519 C   0  0  2  0  0  0  0  0  0  0  0  0
  144.1610  137.0184  152.4621 C   0  0  0  0  0  0  0  0  0  0  0  0
  144.1897  135.8852  153.5017 C   0  0  0  0  0  0  0  0  0  0  0  0
  144.2028  134.5057  152.8246 C   0  0  0  0  0  0  0  0  0  0  0  0
  145.3799  134.3636  151.8363 C   0  0  1  0  0  0  0  0  0  0  0  0
  145.4057  132.9754  151.1645 C   0  0  0  0  0  0  0  0  0  0  0  0
  146.4152  132.8851  150.2978 F   0  0  0  0  0  0  0  0  0  0  0  0
  145.5440  132.0239  152.0880 F   0  0  0  0  0  0  0  0  0  0  0  0
  144.2608  132.7607  150.5162 F   0  0  0  0  0  0  0  0  0  0  0  0
  145.3424  135.5079  150.7972 C   0  0  0  0  0  0  0  0  0  0  0  0
  148.4423  140.7498  153.9820 N   0  0  0  0  0  0  0  0  0  0  0  0
  149.1744  141.6096  154.6938 C   0  0  0  0  0  0  0  0  0  0  0  0
  150.2771  141.3289  155.3876 N   0  0  0  0  0  0  0  0  0  0  0  0
  153.8378  138.3641  153.7913 H   0  0  0  0  0  0  0  0  0  0  0  0
  152.0956  138.6311  153.7268 H   0  0  0  0  0  0  0  0  0  0  0  0
  152.7820  137.5075  154.9145 H   0  0  0  0  0  0  0  0  0  0  0  0
  151.7608  138.7776  156.7094 H   0  0  0  0  0  0  0  0  0  0  0  0
  152.1385  140.4875  156.8730 H   0  0  0  0  0  0  0  0  0  0  0  0
  150.3362  138.0264  154.6406 H   0  0  0  0  0  0  0  0  0  0  0  0
  148.6941  137.5564  153.1492 H   0  0  0  0  0  0  0  0  0  0  0  0
  147.2888  136.4731  152.0845 H   0  0  0  0  0  0  0  0  0  0  0  0
  145.1562  137.6537  150.6738 H   0  0  0  0  0  0  0  0  0  0  0  0
  144.1894  137.9866  152.9636 H   0  0  0  0  0  0  0  0  0  0  0  0
  143.2126  136.9837  151.9243 H   0  0  0  0  0  0  0  0  0  0  0  0
  145.0684  135.9887  154.1396 H   0  0  0  0  0  0  0  0  0  0  0  0
  143.3236  135.9659  154.1593 H   0  0  0  0  0  0  0  0  0  0  0  0
  144.2592  133.7304  153.5890 H   0  0  0  0  0  0  0  0  0  0  0  0
  143.2593  134.3518  152.2996 H   0  0  0  0  0  0  0  0  0  0  0  0
  146.3044  134.4599  152.4080 H   0  0  0  0  0  0  0  0  0  0  0  0
  144.4550  135.3968  150.1730 H   0  0  0  0  0  0  0  0  0  0  0  0
  146.1941  135.4306  150.1203 H   0  0  0  0  0  0  0  0  0  0  0  0
  148.8382  142.6358  154.7087 H   0  0  0  0  0  0  0  0  0  0  0  0
  1  2  1  0  0  0  0
  1 24  1  0  0  0  0
  1 25  1  0  0  0  0
  1 26  1  0  0  0  0
  2  3  1  0  0  0  0
  3  4  1  0  0  0  0
  3 27  1  0  0  0  0
  3 28  1  0  0  0  0
  4 23  1  0  0  0  0
  4  5  2  0  0  0  0
  5  6  1  0  0  0  0
  5 29  1  0  0  0  0
  6  7  1  0  0  0  0
  6 21  2  0  0  0  0
  7  8  1  0  0  0  0
  7 30  1  0  0  0  0
  8  9  2  0  0  0  0
  8 10  1  0  0  0  0
 10 11  1  0  0  0  0
 10 31  1  0  0  0  0
 11 20  1  0  0  0  0
 11 12  1  0  0  0  0
 11 32  1  0  0  0  0
 12 13  1  0  0  0  0
 12 33  1  0  0  0  0
 12 34  1  0  0  0  0
 13 14  1  0  0  0  0
 13 35  1  0  0  0  0
 13 36  1  0  0  0  0
 14 15  1  0  0  0  0
 14 37  1  0  0  0  0
 14 38  1  0  0  0  0
 15 16  1  0  0  0  0
 15 20  1  0  0  0  0
 15 39  1  0  0  0  0
 16 17  1  0  0  0  0
 16 18  1  0  0  0  0
 16 19  1  0  0  0  0
 20 40  1  0  0  0  0
 20 41  1  0  0  0  0
 21 22  1  0  0  0  0
 22 23  2  0  0  0  0
 22 42  1  0  0  0  0
M  END
> <s_m_source_file>
AV-unprocessed.smi

> <i_m_source_file_index>
2454

> <i_lp_mmshare_version>
43012

> <i_f3d_flags>
0

> <s_epik_input>
W0NIM11PW0NIMl1jMVtjSF1jKG5bY0hdbjEpW05IXUMoPU8pW05IXVtDQEBIXTJbQ0gyXVtDSDJdW0NIMl1bQ0BASF0oQyhGKShGKUYpW0NIMl0y

> <s_epik_cmdline>
J2VwaWtfcHl0aG9uJywgJy1waCcsICc3LjAnLCAnLXRuJywgJzgnLCAnLW1hJywgJzIwMCcsICctbWV0YWxfYmluZGluZycsICctaW1hZScsICc8aW5maWxlLm1hZT4nLCAnLW9tYWUnLCAnPG91dGZpbGUubWFlPic=

> <r_lp_tautomer_probability>
1

> <r_epik_Ionization_Penalty>
3.01554e-05

> <r_epik_Ionization_Penalty_Charging>
0

> <r_epik_Ionization_Penalty_Neutral>
3.01554e-05

> <r_epik_State_Penalty>
-0

> <r_epik_Charging_Adjusted_Penalty>
0

> <i_epik_Tot_Q>
0

> <i_epik_Tot_abs_Q>
0

> <r_epik_Metal_State_Penalty>
-0

> <b_epik_Metal_Only>
0

> <s_lp_Force_Field>
OPLS_2005

> <r_lp_Energy>
13.8487

> <b_lp_Chiralities_Consistent>
1

> <s_lp_Variant>
AV-unprocessed.smi:2454-1

> <Gold.Version>
5.8.1

> <Gold.Id.Protein>
6NUR|6NUR_protein|mol2

> <Gold.PLP.Fitness>
48.2747

> <Gold.PLP.PLP>
-38.1049

> <Gold.PLP.part.hbond>
-4.7969

> <Gold.PLP.part.metal>
0.0000

> <Gold.PLP.part.buried>
1.0675

> <Gold.PLP.part.nonpolar>
-36.9959

> <Gold.PLP.part.repulsive>
2.9202

> <Gold.PLP.ligand.clash>
0.0000

> <Gold.PLP.ligand.torsion>
0.3044

> <Gold.PLP.Chemscore.Hbond>
2.5840

> <Gold.PLP.Chemscore.CHOScore>
1.0000

> <Gold.PLP.Chemscore.Metal>
0.0000

> <Gold.Chemscore.Hbonds>
donor molecule, donor type, donor heavy atom, donor atom, acceptor molecule, acceptor atom, score
      L1  H     7    30       P1  7948  0.75
      L1  H    10    31       P1  7948  0.83
      P1  H  7997  8009       L1     2  1.00
      L1  C    22    42       P1  8028  1.00

> <Gold.PLP.Chemscore.Internal.Correction>
0.0266

> <Gold.Rescore>
     Score         DG    S(hbond)    S(metal)    S(lipo)     H(rot)  DE(clash)    DE(int)     intcor
     12.14     -16.73       2.57        0.00      57.85       1.60       1.25       3.34       ----

> <Gold.Chemscore.Fitness>
12.1381

> <Gold.Chemscore.DG>
-16.7275

> <Gold.Chemscore.ZeroCoef>
-5.4800

> <Gold.Chemscore.Hbond>
2.5701

> <Gold.Chemscore.Metal>
0.0000

> <Gold.Chemscore.Lipo>
57.8498

> <Gold.Chemscore.Internal_Hbond>
0.0000

> <Gold.Chemscore.DEClash>
1.2526

> <Gold.Chemscore.DEInternal>
3.3368

> <Gold.Chemscore.Rot>
1.6035

> <Gold.Chemscore.Internal.Correction>
   9.000000E+99

> <Gold.Chemscore.Hbonds>
donor molecule, donor type, donor heavy atom, donor atom, acceptor molecule, acceptor atom, score
      L1  H     7    30       P1  7948  0.74
      L1  H    10    31       P1  7948  0.83
      P1  H  7997  8009       L1     2  0.69

> <Gold.Chemscore.Hbond.Weighted>
-8.5841

> <Gold.Chemscore.Metal.Weighted>
-0.0000

> <Gold.Chemscore.Lipo.Weighted>
-6.7684

> <Gold.Chemscore.Internal_Hbond.Weighted>
0.0000

> <Gold.Chemscore.DEClash.Weighted>
1.2526

> <Gold.Chemscore.DEInternal.Weighted>
3.3368

> <Gold.Chemscore.Rot.Weighted>
4.1050

> <Gold.Chemscore.Internal.Correction.Weighted>
   9.000000E+99

> <Gold.Protein.RotatedTorsions>
[ 6907 6896 6895 6894 ] final   35.62 input  -60.11 | X-H torsion
[ 7974 7965 7964 7962 ] final  157.08 input  175.53 | X-H torsion
[ 8008 7997 7996 7995 ] final -146.10 input   59.86 | X-H torsion
[ 10167 10162 10161 10158 ] final -170.16 input  -65.29 | X-H torsion
[ 10718 10713 10712 10709 ] final  176.84 input   66.30 | X-H torsion
[ 10763 10752 10751 10750 ] final  -74.42 input  -60.55 | X-H torsion
[ 11005 11000 10999 10996 ] final   -1.35 input  -57.11 | X-H torsion

> <Gold.Protein.ActiveResidues>
 VAL166  LYS551  ARG553  GLY616  TRP617  ASP618  TYR619  PRO620  LYS621  CYS622 
 ASP623  PHE694  ASN695  SER759  ASP760  ASP761  ALA762  ILE779  LEU786  VAL792 
 PHE793  MET794  SER795  GLU796  ALA797  LYS798  CYS799  TRP800  GLU811  SER814 

> <Gold.Protein.RotatedAtoms>
  152.1186  134.9222  160.0563 H   0  0  0  0  0  0  0  0  0  0  0  0  # atno 6907 bound_to 6896
  152.0372  133.3957  159.4330 H   0  0  0  0  0  0  0  0  0  0  0  0  # atno 6908 bound_to 6896
  150.6847  134.3376  159.4898 H   0  0  0  0  0  0  0  0  0  0  0  0  # atno 6909 bound_to 6896
  144.7924  139.7292  143.6216 H   0  0  0  0  0  0  0  0  0  0  0  0  # atno 7974 bound_to 7965
  155.5539  140.0619  157.2844 H   0  0  0  0  0  0  0  0  0  0  0  0  # atno 8008 bound_to 7997
  154.4412  140.1897  156.0759 H   0  0  0  0  0  0  0  0  0  0  0  0  # atno 8009 bound_to 7997
  156.0496  140.3286  155.7340 H   0  0  0  0  0  0  0  0  0  0  0  0  # atno 8010 bound_to 7997
  139.5878  144.1279  152.1597 H   0  0  0  0  0  0  0  0  0  0  0  0  # atno 10167 bound_to 10162
  156.9142  130.9919  151.3015 H   0  0  0  0  0  0  0  0  0  0  0  0  # atno 10718 bound_to 10713
  154.4728  135.5865  153.6334 H   0  0  0  0  0  0  0  0  0  0  0  0  # atno 10763 bound_to 10752
  152.9837  135.6071  154.3345 H   0  0  0  0  0  0  0  0  0  0  0  0  # atno 10764 bound_to 10752
  154.3229  135.2843  155.2490 H   0  0  0  0  0  0  0  0  0  0  0  0  # atno 10765 bound_to 10752
  140.6463  133.9444  155.8355 H   0  0  0  0  0  0  0  0  0  0  0  0  # atno 11005 bound_to 11000
  146.2181  139.5586  142.9636 LP  0  0  0  0  0  0  0  0  0  0  0  0  # atno 17320 bound_to 7965
  145.5759  141.0388  143.2148 LP  0  0  0  0  0  0  0  0  0  0  0  0  # atno 17321 bound_to 7965
  140.0847  144.5671  150.7097 LP  0  0  0  0  0  0  0  0  0  0  0  0  # atno 17342 bound_to 10162
  140.7147  143.2534  151.4472 LP  0  0  0  0  0  0  0  0  0  0  0  0  # atno 17343 bound_to 10162
  157.5948  130.8470  149.8713 LP  0  0  0  0  0  0  0  0  0  0  0  0  # atno 17370 bound_to 10713
  156.0521  130.3715  150.1176 LP  0  0  0  0  0  0  0  0  0  0  0  0  # atno 17371 bound_to 10713
  141.0569  134.0403  157.3710 LP  0  0  0  0  0  0  0  0  0  0  0  0  # atno 17394 bound_to 11000
  139.9062  135.0180  156.7493 LP  0  0  0  0  0  0  0  0  0  0  0  0  # atno 17395 bound_to 11000

$$$$
