AV-unprocessed.smi:2423|AV-procd|sdf|9558|dock9
  -GOLD-   2272013193D 1   1.00000     0.00000
 Structure written by MMmdl.
 37 39  0  0  0  0  0  0  0  0  1 V2000
  146.1942  139.0261  153.6678 O   0  0  0  0  0  0  0  0  0  0  0  0
  147.0182  138.2789  153.1453 C   0  0  0  0  0  0  0  0  0  0  0  0
  146.6308  137.2595  152.3595 N   0  0  0  0  0  0  0  0  0  0  0  0
  145.2622  136.8667  152.0218 C   0  0  0  0  0  0  0  0  0  0  0  0
  144.9868  135.3866  152.3472 C   0  0  0  0  0  0  0  0  0  0  0  0
  146.1585  134.5692  151.7938 C   0  0  0  0  0  0  0  0  0  0  0  0
  146.0765  133.6578  150.5911 C   0  0  0  0  0  0  0  0  0  0  0  0
  146.2367  133.0751  151.9825 C   0  0  0  0  0  0  0  0  0  0  0  0
  144.5543  135.1442  153.8148 C   0  0  0  0  0  0  0  0  0  0  0  0
  143.0936  135.2314  153.3752 C   0  0  0  0  0  0  0  0  0  0  0  0
  143.5808  134.8675  151.9737 C   0  0  0  0  0  0  0  0  0  0  0  0
  148.3550  138.3944  153.2714 N   0  0  0  0  0  0  0  0  0  0  0  0
  149.1097  139.3443  154.0124 C   0  0  0  0  0  0  0  0  0  0  0  0
  148.7107  140.6851  154.2323 C   0  0  0  0  0  0  0  0  0  0  0  0
  149.5458  141.5197  155.0018 C   0  0  0  0  0  0  0  0  0  0  0  0
  150.7081  141.1078  155.5509 N   0  0  0  0  0  0  0  0  0  0  0  0
  151.0792  139.8257  155.3495 C   0  0  0  0  0  0  0  0  0  0  0  0
  150.3181  138.9093  154.5966 C   0  0  0  0  0  0  0  0  0  0  0  0
  150.7466  137.6335  154.4364 F   0  0  0  0  0  0  0  0  0  0  0  0
  147.3637  136.7037  151.9425 H   0  0  0  0  0  0  0  0  0  0  0  0
  144.5612  137.5047  152.5628 H   0  0  0  0  0  0  0  0  0  0  0  0
  145.0986  137.0649  150.9613 H   0  0  0  0  0  0  0  0  0  0  0  0
  147.1074  135.0980  151.8612 H   0  0  0  0  0  0  0  0  0  0  0  0
  145.1216  133.5170  150.0924 H   0  0  0  0  0  0  0  0  0  0  0  0
  146.9435  133.6212  149.9345 H   0  0  0  0  0  0  0  0  0  0  0  0
  147.2047  132.6545  152.2463 H   0  0  0  0  0  0  0  0  0  0  0  0
  145.3755  132.5707  152.4160 H   0  0  0  0  0  0  0  0  0  0  0  0
  144.7957  134.1579  154.2084 H   0  0  0  0  0  0  0  0  0  0  0  0
  144.8581  135.9231  154.5149 H   0  0  0  0  0  0  0  0  0  0  0  0
  142.4323  134.4959  153.8341 H   0  0  0  0  0  0  0  0  0  0  0  0
  142.6860  136.2414  153.4376 H   0  0  0  0  0  0  0  0  0  0  0  0
  143.0832  135.4086  151.1683 H   0  0  0  0  0  0  0  0  0  0  0  0
  143.5597  133.7910  151.7945 H   0  0  0  0  0  0  0  0  0  0  0  0
  148.9036  137.7498  152.7213 H   0  0  0  0  0  0  0  0  0  0  0  0
  147.7878  141.0852  153.8427 H   0  0  0  0  0  0  0  0  0  0  0  0
  149.2681  142.5470  155.1863 H   0  0  0  0  0  0  0  0  0  0  0  0
  152.0099  139.5198  155.8041 H   0  0  0  0  0  0  0  0  0  0  0  0
  1  2  2  0  0  0  0
  2  3  1  0  0  0  0
  2 12  1  0  0  0  0
  3  4  1  0  0  0  0
  3 20  1  0  0  0  0
  4  5  1  0  0  0  0
  4 21  1  0  0  0  0
  4 22  1  0  0  0  0
  5 11  1  0  0  0  0
  5  6  1  0  0  0  0
  5  9  1  0  0  0  0
  6  8  1  0  0  0  0
  6  7  1  0  0  0  0
  6 23  1  0  0  0  0
  7  8  1  0  0  0  0
  7 24  1  0  0  0  0
  7 25  1  0  0  0  0
  8 26  1  0  0  0  0
  8 27  1  0  0  0  0
  9 10  1  0  0  0  0
  9 28  1  0  0  0  0
  9 29  1  0  0  0  0
 10 11  1  0  0  0  0
 10 30  1  0  0  0  0
 10 31  1  0  0  0  0
 11 32  1  0  0  0  0
 11 33  1  0  0  0  0
 12 13  1  0  0  0  0
 12 34  1  0  0  0  0
 13 18  1  0  0  0  0
 13 14  2  0  0  0  0
 14 15  1  0  0  0  0
 14 35  1  0  0  0  0
 15 16  2  0  0  0  0
 15 36  1  0  0  0  0
 16 17  1  0  0  0  0
 17 18  2  0  0  0  0
 17 37  1  0  0  0  0
 18 19  1  0  0  0  0
M  END
> <s_m_source_file>
AV-unprocessed.smi

> <i_m_source_file_index>
2423

> <i_lp_mmshare_version>
43012

> <i_f3d_flags>
0

> <s_epik_input>
W0NIMl0xW0NIMl1bQ0hdMUMyKFtDSDJdW0NIMl1bQ0gyXTIpW0NIMl1bTkhdQyg9TylbTkhdYzNbY0hdW2NIXW5bY0hdYzNG

> <s_epik_cmdline>
J2VwaWtfcHl0aG9uJywgJy1waCcsICc3LjAnLCAnLXRuJywgJzgnLCAnLW1hJywgJzIwMCcsICctbWV0YWxfYmluZGluZycsICctaW1hZScsICc8aW5maWxlLm1hZT4nLCAnLW9tYWUnLCAnPG91dGZpbGUubWFlPic=

> <r_epik_Ionization_Penalty>
0.00332314

> <r_epik_Ionization_Penalty_Charging>
0

> <r_epik_Ionization_Penalty_Neutral>
0.00332314

> <r_epik_State_Penalty>
0.00231995

> <r_epik_Charging_Adjusted_Penalty>
0.00231995

> <i_epik_Tot_Q>
0

> <i_epik_Tot_abs_Q>
0

> <r_epik_Metal_State_Penalty>
-0

> <b_epik_Metal_Only>
0

> <s_lp_Force_Field>
OPLS_2005

> <r_lp_Energy>
40.5055

> <b_lp_Chiralities_Consistent>
1

> <s_lp_Variant>
AV-unprocessed.smi:2423-1

> <Gold.Version>
5.8.1

> <Gold.Id.Protein>
6NUR|6NUR_protein|mol2

> <Gold.PLP.Fitness>
40.2572

> <Gold.PLP.PLP>
-32.5610

> <Gold.PLP.part.hbond>
-3.9873

> <Gold.PLP.part.metal>
0.0000

> <Gold.PLP.part.buried>
-0.2039

> <Gold.PLP.part.nonpolar>
-29.1578

> <Gold.PLP.part.repulsive>
0.3334

> <Gold.PLP.ligand.clash>
0.0000

> <Gold.PLP.ligand.torsion>
1.4639

> <Gold.PLP.Chemscore.Hbond>
1.9760

> <Gold.PLP.Chemscore.CHOScore>
1.0000

> <Gold.PLP.Chemscore.Metal>
0.0000

> <Gold.Chemscore.Hbonds>
donor molecule, donor type, donor heavy atom, donor atom, acceptor molecule, acceptor atom, score
      L1  H     3    20       P1  7948  1.00
      L1  H    12    34       P1  7948  0.98
      L1  C    15    36       P1  8028  1.00

> <Gold.PLP.Chemscore.Internal.Correction>
1.6960

> <Gold.Rescore>
     Score         DG    S(hbond)    S(metal)    S(lipo)     H(rot)  DE(clash)    DE(int)     intcor
     15.10     -16.52       1.94        0.00      69.43       1.40       0.01       1.41       ----

> <Gold.Chemscore.Fitness>
15.1005

> <Gold.Chemscore.DG>
-16.5172

> <Gold.Chemscore.ZeroCoef>
-5.4800

> <Gold.Chemscore.Hbond>
1.9447

> <Gold.Chemscore.Metal>
0.0000

> <Gold.Chemscore.Lipo>
69.4287

> <Gold.Chemscore.Internal_Hbond>
0.0000

> <Gold.Chemscore.DEClash>
0.0089

> <Gold.Chemscore.DEInternal>
1.4079

> <Gold.Chemscore.Rot>
1.3990

> <Gold.Chemscore.Internal.Correction>
   9.000000E+99

> <Gold.Chemscore.Hbonds>
donor molecule, donor type, donor heavy atom, donor atom, acceptor molecule, acceptor atom, score
      L1  H     3    20       P1  7948  0.96
      L1  H    12    34       P1  7948  0.93

> <Gold.Chemscore.Hbond.Weighted>
-6.4954

> <Gold.Chemscore.Metal.Weighted>
-0.0000

> <Gold.Chemscore.Lipo.Weighted>
-8.1232

> <Gold.Chemscore.Internal_Hbond.Weighted>
0.0000

> <Gold.Chemscore.DEClash.Weighted>
0.0089

> <Gold.Chemscore.DEInternal.Weighted>
1.4079

> <Gold.Chemscore.Rot.Weighted>
3.5814

> <Gold.Chemscore.Internal.Correction.Weighted>
   9.000000E+99

> <Gold.Protein.RotatedTorsions>
[ 6907 6896 6895 6894 ] final   13.82 input  -60.11 | X-H torsion
[ 7974 7965 7964 7962 ] final  -65.20 input  175.53 | X-H torsion
[ 8008 7997 7996 7995 ] final -157.47 input   59.86 | X-H torsion
[ 10167 10162 10161 10158 ] final -147.49 input  -65.29 | X-H torsion
[ 10718 10713 10712 10709 ] final   12.64 input   66.30 | X-H torsion
[ 10763 10752 10751 10750 ] final   64.77 input  -60.55 | X-H torsion
[ 11005 11000 10999 10996 ] final  -36.72 input  -57.11 | X-H torsion

> <Gold.Protein.ActiveResidues>
 VAL166  LYS551  ARG553  GLY616  TRP617  ASP618  TYR619  PRO620  LYS621  CYS622 
 ASP623  PHE694  ASN695  SER759  ASP760  ASP761  ALA762  ILE779  LEU786  VAL792 
 PHE793  MET794  SER795  GLU796  ALA797  LYS798  CYS799  TRP800  GLU811  SER814 

> <Gold.Protein.RotatedAtoms>
  151.7924  135.0732  160.0388 H   0  0  0  0  0  0  0  0  0  0  0  0  # atno 6907 bound_to 6896
  152.3147  133.5785  159.5712 H   0  0  0  0  0  0  0  0  0  0  0  0  # atno 6908 bound_to 6896
  150.7338  134.0017  159.3682 H   0  0  0  0  0  0  0  0  0  0  0  0  # atno 6909 bound_to 6896
  145.7572  140.8879  143.0449 H   0  0  0  0  0  0  0  0  0  0  0  0  # atno 7974 bound_to 7965
  155.7329  140.0804  157.2281 H   0  0  0  0  0  0  0  0  0  0  0  0  # atno 8008 bound_to 7997
  154.4031  140.1592  156.2583 H   0  0  0  0  0  0  0  0  0  0  0  0  # atno 8009 bound_to 7997
  155.9092  140.3405  155.6089 H   0  0  0  0  0  0  0  0  0  0  0  0  # atno 8010 bound_to 7997
  139.7617  143.8367  152.2608 H   0  0  0  0  0  0  0  0  0  0  0  0  # atno 10167 bound_to 10162
  157.0131  130.6125  149.5711 H   0  0  0  0  0  0  0  0  0  0  0  0  # atno 10718 bound_to 10713
  153.0069  135.5381  154.6563 H   0  0  0  0  0  0  0  0  0  0  0  0  # atno 10763 bound_to 10752
  154.5783  135.2847  155.0761 H   0  0  0  0  0  0  0  0  0  0  0  0  # atno 10764 bound_to 10752
  154.1900  135.6502  153.5110 H   0  0  0  0  0  0  0  0  0  0  0  0  # atno 10765 bound_to 10752
  140.9896  133.7012  156.1827 H   0  0  0  0  0  0  0  0  0  0  0  0  # atno 11005 bound_to 11000
  144.6837  139.9673  143.7481 LP  0  0  0  0  0  0  0  0  0  0  0  0  # atno 17320 bound_to 7965
  146.0299  139.3325  143.0761 LP  0  0  0  0  0  0  0  0  0  0  0  0  # atno 17321 bound_to 7965
  139.8376  144.7225  150.9372 LP  0  0  0  0  0  0  0  0  0  0  0  0  # atno 17342 bound_to 10162
  140.7807  143.4013  151.1144 LP  0  0  0  0  0  0  0  0  0  0  0  0  # atno 17343 bound_to 10162
  156.0129  130.5221  150.8044 LP  0  0  0  0  0  0  0  0  0  0  0  0  # atno 17370 bound_to 10713
  157.5306  131.0936  150.9960 LP  0  0  0  0  0  0  0  0  0  0  0  0  # atno 17371 bound_to 10713
  140.7060  134.4513  157.5584 LP  0  0  0  0  0  0  0  0  0  0  0  0  # atno 17394 bound_to 11000
  139.8986  134.8609  156.1994 LP  0  0  0  0  0  0  0  0  0  0  0  0  # atno 17395 bound_to 11000

$$$$
