AV-unprocessed.smi:1740|AV-procd|sdf|7013|dock2
  -GOLD-   22720 8223D 1   1.00000     0.00000
 Structure written by MMmdl.
 51 53  0  0  0  0  0  0  0  0  3 V2000
  148.2237  134.0255  154.2299 N   0  5  0  0  0  0  0  0  0  0  0  0
  149.0620  134.7838  154.9644 C   0  0  0  0  0  0  0  0  0  0  0  0
  150.1918  134.4996  155.3549 O   0  0  0  0  0  0  0  0  0  0  0  0
  148.4594  136.1488  155.3147 C   0  0  0  0  0  0  0  0  0  0  0  0
  149.2559  137.2511  154.7164 N   0  3  2  0  0  0  0  0  0  0  0  0
  150.6733  137.2243  155.1582 C   0  0  0  0  0  0  0  0  0  0  0  0
  151.5089  138.2883  154.4236 C   0  0  0  0  0  0  0  0  0  0  0  0
  150.9150  139.7004  154.5882 C   0  0  2  0  0  0  0  0  0  0  0  0
  151.0548  140.1838  155.9611 N   0  0  0  0  0  0  0  0  0  0  0  0
  152.1012  139.9525  156.7662 C   0  0  0  0  0  0  0  0  0  0  0  0
  153.0957  139.3152  156.4216 O   0  0  0  0  0  0  0  0  0  0  0  0
  151.9097  140.5134  157.9718 N   0  0  0  0  0  0  0  0  0  0  0  0
  152.7756  140.5342  159.1034 C   0  0  0  0  0  0  0  0  0  0  0  0
  153.5471  139.4090  159.4871 C   0  0  0  0  0  0  0  0  0  0  0  0
  154.3320  139.4748  160.6511 C   0  0  0  0  0  0  0  0  0  0  0  0
  154.3071  140.6597  161.4045 C   0  0  0  0  0  0  0  0  0  0  0  0
  153.5696  141.7341  161.0614 N   0  0  0  0  0  0  0  0  0  0  0  0
  152.8195  141.6915  159.9330 C   0  0  0  0  0  0  0  0  0  0  0  0
  152.0786  142.8522  159.6131 N   0  0  0  0  0  0  0  0  0  0  0  0
  152.3722  143.5150  158.3456 C   0  0  0  0  0  0  0  0  0  0  0  0
  152.2415  145.0202  158.6021 C   0  0  0  0  0  0  0  0  0  0  0  0
  151.3733  145.0999  159.8540 C   0  0  0  0  0  0  0  0  0  0  0  0
  151.8099  143.8619  160.6317 C   0  0  0  0  0  0  0  0  0  0  0  0
  149.4343  139.6851  154.1725 C   0  0  0  0  0  0  0  0  0  0  0  0
  148.6399  138.5916  154.9101 C   0  0  0  0  0  0  0  0  0  0  0  0
  147.2440  133.9454  154.5285 H   0  0  0  0  0  0  0  0  0  0  0  0
  147.4212  136.2075  154.9838 H   0  0  0  0  0  0  0  0  0  0  0  0
  148.4439  136.2376  156.4024 H   0  0  0  0  0  0  0  0  0  0  0  0
  150.7225  137.3792  156.2371 H   0  0  0  0  0  0  0  0  0  0  0  0
  151.0995  136.2400  154.9611 H   0  0  0  0  0  0  0  0  0  0  0  0
  152.5410  138.2625  154.7756 H   0  0  0  0  0  0  0  0  0  0  0  0
  151.5472  138.0389  153.3624 H   0  0  0  0  0  0  0  0  0  0  0  0
  151.4460  140.3879  153.9271 H   0  0  0  0  0  0  0  0  0  0  0  0
  150.2898  140.7294  156.3300 H   0  0  0  0  0  0  0  0  0  0  0  0
  151.0703  141.0653  158.0714 H   0  0  0  0  0  0  0  0  0  0  0  0
  153.5366  138.4873  158.9271 H   0  0  0  0  0  0  0  0  0  0  0  0
  154.9288  138.6314  160.9653 H   0  0  0  0  0  0  0  0  0  0  0  0
  154.8894  140.7458  162.3099 H   0  0  0  0  0  0  0  0  0  0  0  0
  153.3634  143.2597  157.9680 H   0  0  0  0  0  0  0  0  0  0  0  0
  151.6368  143.2000  157.6051 H   0  0  0  0  0  0  0  0  0  0  0  0
  153.2249  145.4426  158.8126 H   0  0  0  0  0  0  0  0  0  0  0  0
  151.8189  145.5601  157.7546 H   0  0  0  0  0  0  0  0  0  0  0  0
  151.5125  146.0248  160.4143 H   0  0  0  0  0  0  0  0  0  0  0  0
  150.3195  145.0196  159.5834 H   0  0  0  0  0  0  0  0  0  0  0  0
  151.0400  143.5284  161.3280 H   0  0  0  0  0  0  0  0  0  0  0  0
  152.7113  144.0921  161.2011 H   0  0  0  0  0  0  0  0  0  0  0  0
  148.9814  140.6615  154.3490 H   0  0  0  0  0  0  0  0  0  0  0  0
  149.3656  139.5098  153.0979 H   0  0  0  0  0  0  0  0  0  0  0  0
  147.6144  138.5907  154.5396 H   0  0  0  0  0  0  0  0  0  0  0  0
  148.5856  138.8170  155.9763 H   0  0  0  0  0  0  0  0  0  0  0  0
  149.2612  137.0673  153.7224 H   0  0  0  0  0  0  0  0  0  0  0  0
  1  2  1  0  0  0  0
  1 26  1  0  0  0  0
  2  3  2  0  0  0  0
  2  4  1  0  0  0  0
  4  5  1  0  0  0  0
  4 27  1  0  0  0  0
  4 28  1  0  0  0  0
  5 25  1  0  0  0  0
  5  6  1  0  0  0  0
  5 51  1  0  0  0  0
  6  7  1  0  0  0  0
  6 29  1  0  0  0  0
  6 30  1  0  0  0  0
  7  8  1  0  0  0  0
  7 31  1  0  0  0  0
  7 32  1  0  0  0  0
  8  9  1  0  0  0  0
  8 24  1  0  0  0  0
  8 33  1  0  0  0  0
  9 10  1  0  0  0  0
  9 34  1  0  0  0  0
 10 11  2  0  0  0  0
 10 12  1  0  0  0  0
 12 13  1  0  0  0  0
 12 35  1  0  0  0  0
 13 18  1  0  0  0  0
 13 14  2  0  0  0  0
 14 15  1  0  0  0  0
 14 36  1  0  0  0  0
 15 16  2  0  0  0  0
 15 37  1  0  0  0  0
 16 17  1  0  0  0  0
 16 38  1  0  0  0  0
 17 18  2  0  0  0  0
 18 19  1  0  0  0  0
 19 23  1  0  0  0  0
 19 20  1  0  0  0  0
 20 21  1  0  0  0  0
 20 39  1  0  0  0  0
 20 40  1  0  0  0  0
 21 22  1  0  0  0  0
 21 41  1  0  0  0  0
 21 42  1  0  0  0  0
 22 23  1  0  0  0  0
 22 43  1  0  0  0  0
 22 44  1  0  0  0  0
 23 45  1  0  0  0  0
 23 46  1  0  0  0  0
 24 25  1  0  0  0  0
 24 47  1  0  0  0  0
 24 48  1  0  0  0  0
 25 49  1  0  0  0  0
 25 50  1  0  0  0  0
M  CHG  1   1  -1
M  CHG  1   5   1
M  END
> <s_m_source_file>
AV-unprocessed.smi

> <i_m_source_file_index>
1740

> <i_lp_mmshare_version>
43012

> <i_f3d_flags>
0

> <s_epik_input>
W05IMl1DKD1PKVtDSDJdTjFbQ0gyXVtDSDJdW0NIXShbQ0gyXVtDSDJdMSlbTkhdQyg9TylbTkhdYzJbY0hdW2NIXVtjSF1uYzJOM1tDSDJdW0NIMl1bQ0gyXVtDSDJdMw==

> <s_epik_cmdline>
J2VwaWtfcHl0aG9uJywgJy1waCcsICc3LjAnLCAnLXRuJywgJzgnLCAnLW1hJywgJzIwMCcsICctbWV0YWxfYmluZGluZycsICctaW1hZScsICc8aW5maWxlLm1hZT4nLCAnLW9tYWUnLCAnPG91dGZpbGUubWFlPic=

> <r_lp_tautomer_probability>
1

> <r_epik_Ionization_Penalty>
5.80652

> <r_epik_Ionization_Penalty_Charging>
5.7288

> <r_epik_Ionization_Penalty_Neutral>
0.0777157

> <r_epik_State_Penalty>
6.60246

> <r_epik_Charging_Adjusted_Penalty>
12.3313

> <i_epik_Tot_Q>
0

> <i_epik_Tot_abs_Q>
2

> <r_epik_Metal_State_Penalty>
2.64988

> <b_epik_Metal_Only>
1

> <s_lp_Force_Field>
OPLS_2005

> <r_lp_Energy>
35.9305

> <b_lp_Chiralities_Consistent>
1

> <s_lp_Variant>
AV-unprocessed.smi:1740-8

> <Gold.Version>
5.8.1

> <Gold.Id.Protein>
6NUR|6NUR_protein|mol2

> <Gold.PLP.Fitness>
52.5804

> <Gold.PLP.PLP>
-44.9554

> <Gold.PLP.part.hbond>
-1.9239

> <Gold.PLP.part.metal>
0.0000

> <Gold.PLP.part.buried>
-4.2239

> <Gold.PLP.part.nonpolar>
-38.7444

> <Gold.PLP.part.repulsive>
0.2849

> <Gold.PLP.ligand.clash>
0.0000

> <Gold.PLP.ligand.torsion>
0.8702

> <Gold.PLP.Chemscore.Hbond>
3.0000

> <Gold.PLP.Chemscore.CHOScore>
0.0000

> <Gold.PLP.Chemscore.Metal>
0.0000

> <Gold.Chemscore.Hbonds>
donor molecule, donor type, donor heavy atom, donor atom, acceptor molecule, acceptor atom, score
      L1  H     5    51       P1  7948  1.95
      P1  H  7997  8010       L1    11  0.99

> <Gold.PLP.Chemscore.Internal.Correction>
0.3655

> <Gold.Rescore>
     Score         DG    S(hbond)    S(metal)    S(lipo)     H(rot)  DE(clash)    DE(int)     intcor
     15.24     -19.19       1.86        0.00     111.36       2.16       0.23       3.72       ----

> <Gold.Chemscore.Fitness>
15.2399

> <Gold.Chemscore.DG>
-19.1880

> <Gold.Chemscore.ZeroCoef>
-5.4800

> <Gold.Chemscore.Hbond>
1.8558

> <Gold.Chemscore.Metal>
0.0000

> <Gold.Chemscore.Lipo>
111.3639

> <Gold.Chemscore.Internal_Hbond>
0.0000

> <Gold.Chemscore.DEClash>
0.2264

> <Gold.Chemscore.DEInternal>
3.7218

> <Gold.Chemscore.Rot>
2.1562

> <Gold.Chemscore.Internal.Correction>
   9.000000E+99

> <Gold.Chemscore.Hbonds>
donor molecule, donor type, donor heavy atom, donor atom, acceptor molecule, acceptor atom, score
      L1  H     5    51       P1  7948  0.90
      P1  H  7997  8010       L1    11  0.84

> <Gold.Chemscore.Hbond.Weighted>
-6.1982

> <Gold.Chemscore.Metal.Weighted>
-0.0000

> <Gold.Chemscore.Lipo.Weighted>
-13.0296

> <Gold.Chemscore.Internal_Hbond.Weighted>
0.0000

> <Gold.Chemscore.DEClash.Weighted>
0.2264

> <Gold.Chemscore.DEInternal.Weighted>
3.7218

> <Gold.Chemscore.Rot.Weighted>
5.5198

> <Gold.Chemscore.Internal.Correction.Weighted>
   9.000000E+99

> <Gold.Protein.RotatedTorsions>
[ 6907 6896 6895 6894 ] final   30.24 input  -60.11 | X-H torsion
[ 7974 7965 7964 7962 ] final -148.07 input  175.53 | X-H torsion
[ 8008 7997 7996 7995 ] final   87.83 input   59.86 | X-H torsion
[ 10167 10162 10161 10158 ] final -164.93 input  -65.29 | X-H torsion
[ 10718 10713 10712 10709 ] final  -50.24 input   66.30 | X-H torsion
[ 10763 10752 10751 10750 ] final   19.16 input  -60.55 | X-H torsion
[ 11005 11000 10999 10996 ] final   82.67 input  -57.11 | X-H torsion

> <Gold.Protein.ActiveResidues>
 VAL166  LYS551  ARG553  GLY616  TRP617  ASP618  TYR619  PRO620  LYS621  CYS622 
 ASP623  PHE694  ASN695  SER759  ASP760  ASP761  ALA762  ILE779  LEU786  VAL792 
 PHE793  MET794  SER795  GLU796  ALA797  LYS798  CYS799  TRP800  GLU811  SER814 

> <Gold.Protein.RotatedAtoms>
  152.0431  134.9699  160.0573 H   0  0  0  0  0  0  0  0  0  0  0  0  # atno 6907 bound_to 6896
  152.1130  133.4306  159.4648 H   0  0  0  0  0  0  0  0  0  0  0  0  # atno 6908 bound_to 6896
  150.6844  134.2544  159.4567 H   0  0  0  0  0  0  0  0  0  0  0  0  # atno 6909 bound_to 6896
  144.8053  140.5245  143.5679 H   0  0  0  0  0  0  0  0  0  0  0  0  # atno 7974 bound_to 7965
  155.9802  140.3378  155.6656 H   0  0  0  0  0  0  0  0  0  0  0  0  # atno 8008 bound_to 7997
  155.6558  140.0710  157.2589 H   0  0  0  0  0  0  0  0  0  0  0  0  # atno 8009 bound_to 7997
  154.4190  140.1717  156.1711 H   0  0  0  0  0  0  0  0  0  0  0  0  # atno 8010 bound_to 7997
  139.6217  144.0612  152.1938 H   0  0  0  0  0  0  0  0  0  0  0  0  # atno 10167 bound_to 10162
  156.1818  130.4150  149.9495 H   0  0  0  0  0  0  0  0  0  0  0  0  # atno 10718 bound_to 10713
  153.1186  135.6714  153.9374 H   0  0  0  0  0  0  0  0  0  0  0  0  # atno 10763 bound_to 10752
  153.8896  135.3048  155.3448 H   0  0  0  0  0  0  0  0  0  0  0  0  # atno 10764 bound_to 10752
  154.7600  135.4992  153.9525 H   0  0  0  0  0  0  0  0  0  0  0  0  # atno 10765 bound_to 10752
  139.9056  134.8088  156.2205 H   0  0  0  0  0  0  0  0  0  0  0  0  # atno 11005 bound_to 11000
  145.5453  139.1476  143.3424 LP  0  0  0  0  0  0  0  0  0  0  0  0  # atno 17320 bound_to 7965
  146.2343  140.5592  142.8962 LP  0  0  0  0  0  0  0  0  0  0  0  0  # atno 17321 bound_to 7965
  140.0255  144.6120  150.7531 LP  0  0  0  0  0  0  0  0  0  0  0  0  # atno 17342 bound_to 10162
  140.7386  143.2780  151.3683 LP  0  0  0  0  0  0  0  0  0  0  0  0  # atno 17343 bound_to 10162
  156.7263  130.9026  151.3622 LP  0  0  0  0  0  0  0  0  0  0  0  0  # atno 17370 bound_to 10713
  157.6873  130.9198  150.0421 LP  0  0  0  0  0  0  0  0  0  0  0  0  # atno 17371 bound_to 10713
  141.0408  133.6939  156.1595 LP  0  0  0  0  0  0  0  0  0  0  0  0  # atno 17394 bound_to 11000
  140.6958  134.4617  157.5587 LP  0  0  0  0  0  0  0  0  0  0  0  0  # atno 17395 bound_to 11000

$$$$
