AV-unprocessed.smi:630|AV-procd|sdf|3120|dock6
  -GOLD-   22720 0 43D 1   1.00000     0.00000
 Structure written by MMmdl.
 37 38  0  0  0  0  0  0  0  0  1 V2000
  148.7784  144.2035  159.1922 N   0  0  0  0  0  0  0  0  0  0  0  0
  149.9463  144.7116  159.5944 C   0  0  0  0  0  0  0  0  0  0  0  0
  150.0092  145.6526  160.3831 O   0  0  0  0  0  0  0  0  0  0  0  0
  151.2281  144.0695  159.0289 C   0  0  1  0  0  0  0  0  0  0  0  0
  152.4035  144.2454  160.0229 C   0  0  0  0  0  0  0  0  0  0  0  0
  152.5764  143.1431  161.0818 C   0  0  0  0  0  0  0  0  0  0  0  0
  153.4449  141.9782  160.5817 C   0  0  0  0  0  0  0  0  0  0  0  0
  152.7586  141.0623  159.5590 C   0  0  0  0  0  0  0  0  0  0  0  0
  152.2250  141.7678  158.2985 C   0  0  0  0  0  0  0  0  0  0  0  0
  150.9571  142.6095  158.5615 C   0  0  2  0  0  0  0  0  0  0  0  0
  150.1428  142.6405  157.3423 N   0  0  0  0  0  0  0  0  0  0  0  0
  149.7029  141.5753  156.6544 C   0  0  0  0  0  0  0  0  0  0  0  0
  149.9441  140.4099  156.9693 O   0  0  0  0  0  0  0  0  0  0  0  0
  148.9704  141.9555  155.5928 N   0  0  0  0  0  0  0  0  0  0  0  0
  148.3223  141.1341  154.6332 C   0  0  0  0  0  0  0  0  0  0  0  0
  148.7117  139.8944  154.3138 N   0  0  0  0  0  0  0  0  0  0  0  0
  147.8902  139.3207  153.3401 C   0  0  0  0  0  0  0  0  0  0  0  0
  146.8723  140.1435  152.9267 C   0  0  0  0  0  0  0  0  0  0  0  0
  146.9049  141.6807  153.7491 S   0  0  0  0  0  0  0  0  0  0  0  0
  147.9165  144.5969  159.5412 H   0  0  0  0  0  0  0  0  0  0  0  0
  148.7597  143.4303  158.5437 H   0  0  0  0  0  0  0  0  0  0  0  0
  151.5092  144.6474  158.1458 H   0  0  0  0  0  0  0  0  0  0  0  0
  153.3330  144.3551  159.4629 H   0  0  0  0  0  0  0  0  0  0  0  0
  152.2911  145.1995  160.5410 H   0  0  0  0  0  0  0  0  0  0  0  0
  153.0799  143.5821  161.9439 H   0  0  0  0  0  0  0  0  0  0  0  0
  151.6138  142.7874  161.4504 H   0  0  0  0  0  0  0  0  0  0  0  0
  154.3754  142.3641  160.1637 H   0  0  0  0  0  0  0  0  0  0  0  0
  153.7383  141.3706  161.4386 H   0  0  0  0  0  0  0  0  0  0  0  0
  153.4776  140.3023  159.2516 H   0  0  0  0  0  0  0  0  0  0  0  0
  151.9479  140.5169  160.0438 H   0  0  0  0  0  0  0  0  0  0  0  0
  153.0033  142.3696  157.8277 H   0  0  0  0  0  0  0  0  0  0  0  0
  151.9851  140.9827  157.5797 H   0  0  0  0  0  0  0  0  0  0  0  0
  150.3933  142.0970  159.3433 H   0  0  0  0  0  0  0  0  0  0  0  0
  149.8917  143.5551  156.9975 H   0  0  0  0  0  0  0  0  0  0  0  0
  148.8594  142.9493  155.4568 H   0  0  0  0  0  0  0  0  0  0  0  0
  148.1029  138.3187  152.9978 H   0  0  0  0  0  0  0  0  0  0  0  0
  146.1082  139.9387  152.1914 H   0  0  0  0  0  0  0  0  0  0  0  0
  1  2  1  0  0  0  0
  1 20  1  0  0  0  0
  1 21  1  0  0  0  0
  2  3  2  0  0  0  0
  2  4  1  0  0  0  0
  4 10  1  0  0  0  0
  4  5  1  0  0  0  0
  4 22  1  0  0  0  0
  5  6  1  0  0  0  0
  5 23  1  0  0  0  0
  5 24  1  0  0  0  0
  6  7  1  0  0  0  0
  6 25  1  0  0  0  0
  6 26  1  0  0  0  0
  7  8  1  0  0  0  0
  7 27  1  0  0  0  0
  7 28  1  0  0  0  0
  8  9  1  0  0  0  0
  8 29  1  0  0  0  0
  8 30  1  0  0  0  0
  9 10  1  0  0  0  0
  9 31  1  0  0  0  0
  9 32  1  0  0  0  0
 10 11  1  0  0  0  0
 10 33  1  0  0  0  0
 11 12  1  0  0  0  0
 11 34  1  0  0  0  0
 12 13  2  0  0  0  0
 12 14  1  0  0  0  0
 14 15  1  0  0  0  0
 14 35  1  0  0  0  0
 15 19  1  0  0  0  0
 15 16  2  0  0  0  0
 16 17  1  0  0  0  0
 17 18  2  0  0  0  0
 17 36  1  0  0  0  0
 18 19  1  0  0  0  0
 18 37  1  0  0  0  0
M  END
> <s_m_source_file>
AV-unprocessed.smi

> <i_m_source_file_index>
630

> <i_lp_mmshare_version>
43012

> <i_f3d_flags>
0

> <s_epik_input>
W05IMl1DKD1PKVtDQEBIXTFbQ0gyXVtDSDJdW0NIMl1bQ0gyXVtDSDJdW0NASF0xW05IXUMoPU8pW05IXWMybltjSF1bY0hdczI=

> <s_epik_cmdline>
J2VwaWtfcHl0aG9uJywgJy1waCcsICc3LjAnLCAnLXRuJywgJzgnLCAnLW1hJywgJzIwMCcsICctbWV0YWxfYmluZGluZycsICctaW1hZScsICc8aW5maWxlLm1hZT4nLCAnLW9tYWUnLCAnPG91dGZpbGUubWFlPic=

> <r_lp_tautomer_probability>
0.999

> <r_epik_Ionization_Penalty>
0.000342689

> <r_epik_Ionization_Penalty_Charging>
0

> <r_epik_Ionization_Penalty_Neutral>
0.000342689

> <r_epik_State_Penalty>
0.000177984

> <r_epik_Charging_Adjusted_Penalty>
0.000177984

> <i_epik_Tot_Q>
0

> <i_epik_Tot_abs_Q>
0

> <r_epik_Metal_State_Penalty>
0.00743087

> <b_epik_Metal_Only>
0

> <s_lp_Force_Field>
OPLS_2005

> <r_lp_Energy>
11.5905

> <b_lp_Chiralities_Consistent>
1

> <s_lp_Variant>
AV-unprocessed.smi:630-4

> <Gold.Version>
5.8.1

> <Gold.Id.Protein>
6NUR|6NUR_protein|mol2

> <Gold.PLP.Fitness>
46.8825

> <Gold.PLP.PLP>
-36.7578

> <Gold.PLP.part.hbond>
-4.0000

> <Gold.PLP.part.metal>
0.0000

> <Gold.PLP.part.buried>
-4.1016

> <Gold.PLP.part.nonpolar>
-30.5972

> <Gold.PLP.part.repulsive>
0.8634

> <Gold.PLP.ligand.clash>
0.0000

> <Gold.PLP.ligand.torsion>
0.8623

> <Gold.PLP.Chemscore.Hbond>
2.0000

> <Gold.PLP.Chemscore.CHOScore>
1.9137

> <Gold.PLP.Chemscore.Metal>
0.0000

> <Gold.Chemscore.Hbonds>
donor molecule, donor type, donor heavy atom, donor atom, acceptor molecule, acceptor atom, score
      L1  H    11    34       P1  8028  1.00
      L1  H    14    35       P1  8028  1.00
      L1  C    17    36       P1  7948  1.00
      L1  C    18    37       P1 10175  0.91

> <Gold.PLP.Chemscore.Internal.Correction>
0.1083

> <Gold.Rescore>
     Score         DG    S(hbond)    S(metal)    S(lipo)     H(rot)  DE(clash)    DE(int)     intcor
     14.02     -19.05       1.96        0.00      93.38       1.52       0.67       4.36       ----

> <Gold.Chemscore.Fitness>
14.0156

> <Gold.Chemscore.DG>
-19.0507

> <Gold.Chemscore.ZeroCoef>
-5.4800

> <Gold.Chemscore.Hbond>
1.9558

> <Gold.Chemscore.Metal>
0.0000

> <Gold.Chemscore.Lipo>
93.3813

> <Gold.Chemscore.Internal_Hbond>
0.0000

> <Gold.Chemscore.DEClash>
0.6726

> <Gold.Chemscore.DEInternal>
4.3625

> <Gold.Chemscore.Rot>
1.5184

> <Gold.Chemscore.Internal.Correction>
   9.000000E+99

> <Gold.Chemscore.Hbonds>
donor molecule, donor type, donor heavy atom, donor atom, acceptor molecule, acceptor atom, score
      L1  H    11    34       P1  8028  0.88
      L1  H    14    35       P1  8028  1.00

> <Gold.Chemscore.Hbond.Weighted>
-6.5323

> <Gold.Chemscore.Metal.Weighted>
-0.0000

> <Gold.Chemscore.Lipo.Weighted>
-10.9256

> <Gold.Chemscore.Internal_Hbond.Weighted>
0.0000

> <Gold.Chemscore.DEClash.Weighted>
0.6726

> <Gold.Chemscore.DEInternal.Weighted>
4.3625

> <Gold.Chemscore.Rot.Weighted>
3.8872

> <Gold.Chemscore.Internal.Correction.Weighted>
   9.000000E+99

> <Gold.Protein.RotatedTorsions>
[ 6907 6896 6895 6894 ] final -167.85 input  -60.11 | X-H torsion
[ 7974 7965 7964 7962 ] final -151.43 input  175.53 | X-H torsion
[ 8008 7997 7996 7995 ] final  -95.68 input   59.86 | X-H torsion
[ 10167 10162 10161 10158 ] final    8.56 input  -65.29 | X-H torsion
[ 10718 10713 10712 10709 ] final   94.82 input   66.30 | X-H torsion
[ 10763 10752 10751 10750 ] final -140.45 input  -60.55 | X-H torsion
[ 11005 11000 10999 10996 ] final  -15.43 input  -57.11 | X-H torsion

> <Gold.Protein.ActiveResidues>
 VAL166  LYS551  ARG553  GLY616  TRP617  ASP618  TYR619  PRO620  LYS621  CYS622 
 ASP623  PHE694  ASN695  SER759  ASP760  ASP761  ALA762  ILE779  LEU786  VAL792 
 PHE793  MET794  SER795  GLU796  ALA797  LYS798  CYS799  TRP800  GLU811  SER814 

> <Gold.Protein.RotatedAtoms>
  151.4662  133.3580  159.2816 H   0  0  0  0  0  0  0  0  0  0  0  0  # atno 6907 bound_to 6896
  150.8992  134.8404  159.7358 H   0  0  0  0  0  0  0  0  0  0  0  0  # atno 6908 bound_to 6896
  152.4869  134.4581  159.9648 H   0  0  0  0  0  0  0  0  0  0  0  0  # atno 6909 bound_to 6896
  144.7850  140.4798  143.5812 H   0  0  0  0  0  0  0  0  0  0  0  0  # atno 7974 bound_to 7965
  154.7645  140.0478  157.1001 H   0  0  0  0  0  0  0  0  0  0  0  0  # atno 8008 bound_to 7997
  154.9897  140.3111  155.4892 H   0  0  0  0  0  0  0  0  0  0  0  0  # atno 8009 bound_to 7997
  156.2910  140.2221  156.5000 H   0  0  0  0  0  0  0  0  0  0  0  0  # atno 8010 bound_to 7997
  140.6307  143.8000  150.7291 H   0  0  0  0  0  0  0  0  0  0  0  0  # atno 10167 bound_to 10162
  157.6944  131.0525  150.4244 H   0  0  0  0  0  0  0  0  0  0  0  0  # atno 10718 bound_to 10713
  154.8578  135.3553  154.5709 H   0  0  0  0  0  0  0  0  0  0  0  0  # atno 10763 bound_to 10752
  153.6322  135.7002  153.5276 H   0  0  0  0  0  0  0  0  0  0  0  0  # atno 10764 bound_to 10752
  153.3040  135.4198  155.1237 H   0  0  0  0  0  0  0  0  0  0  0  0  # atno 10765 bound_to 10752
  140.7966  133.8247  155.9429 H   0  0  0  0  0  0  0  0  0  0  0  0  # atno 11005 bound_to 11000
  145.5946  139.1498  143.3163 LP  0  0  0  0  0  0  0  0  0  0  0  0  # atno 17320 bound_to 7965
  146.2078  140.6070  142.9073 LP  0  0  0  0  0  0  0  0  0  0  0  0  # atno 17321 bound_to 7965
  140.1611  143.4275  152.2066 LP  0  0  0  0  0  0  0  0  0  0  0  0  # atno 17342 bound_to 10162
  139.5521  144.7346  151.4403 LP  0  0  0  0  0  0  0  0  0  0  0  0  # atno 17343 bound_to 10162
  156.4616  130.4033  149.6572 LP  0  0  0  0  0  0  0  0  0  0  0  0  # atno 17370 bound_to 10713
  156.3685  130.7518  151.2499 LP  0  0  0  0  0  0  0  0  0  0  0  0  # atno 17371 bound_to 10713
  140.9337  134.1989  157.4846 LP  0  0  0  0  0  0  0  0  0  0  0  0  # atno 17394 bound_to 11000
  139.8726  134.9843  156.5235 LP  0  0  0  0  0  0  0  0  0  0  0  0  # atno 17395 bound_to 11000

$$$$
