AV-unprocessed.smi:101|AV-procd|sdf|915|dock3
  -GOLD-   2262017413D 1   1.00000     0.00000
 Structure written by MMmdl.
 44 46  0  0  0  0  0  0  0  0  1 V2000
  148.2646  135.3174  157.7370 C   0  0  0  0  0  0  0  0  0  0  0  0
  147.9413  136.2199  156.5576 C   0  0  0  0  0  0  0  0  0  0  0  0
  148.8421  137.0947  156.0409 C   0  0  0  0  0  0  0  0  0  0  0  0
  148.5797  137.9212  154.9542 N   0  0  0  0  0  0  0  0  0  0  0  0
  149.6125  138.8749  154.3873 C   0  0  2  0  0  0  0  0  0  0  0  0
  150.7927  138.7828  155.1338 O   0  0  0  0  0  0  0  0  0  0  0  0
  151.1703  140.0628  155.6289 C   0  0  2  0  0  0  0  0  0  0  0  0
  151.9229  139.9239  156.9620 C   0  0  0  0  0  0  0  0  0  0  0  0
  151.9005  141.1588  157.6603 O   0  0  0  0  0  0  0  0  0  0  0  0
  152.3665  141.2517  158.9179 C   0  0  0  0  0  0  0  0  0  0  0  0
  152.9397  140.3331  159.5067 O   0  0  0  0  0  0  0  0  0  0  0  0
  152.1052  142.5881  159.5258 C   0  0  0  0  0  0  0  0  0  0  0  0
  152.2953  142.7677  160.9156 C   0  0  0  0  0  0  0  0  0  0  0  0
  152.0496  144.0174  161.5169 C   0  0  0  0  0  0  0  0  0  0  0  0
  151.6146  145.1034  160.7353 C   0  0  0  0  0  0  0  0  0  0  0  0
  151.4277  144.9393  159.3508 C   0  0  0  0  0  0  0  0  0  0  0  0
  151.6700  143.6898  158.7478 C   0  0  0  0  0  0  0  0  0  0  0  0
  149.8686  140.8638  155.6782 C   0  0  1  0  0  0  0  0  0  0  0  0
  150.0756  142.2633  155.6432 O   0  0  0  0  0  0  0  0  0  0  0  0
  149.1128  140.3322  154.4680 C   0  0  1  0  0  0  0  0  0  0  0  0
  149.4103  141.0362  153.2757 O   0  0  0  0  0  0  0  0  0  0  0  0
  147.3128  137.8635  154.3374 C   0  0  0  0  0  0  0  0  0  0  0  0
  147.0121  138.5626  153.3702 O   0  0  0  0  0  0  0  0  0  0  0  0
  146.3848  136.9726  154.8724 N   0  0  0  0  0  0  0  0  0  0  0  0
  146.6054  136.1278  155.9625 C   0  0  0  0  0  0  0  0  0  0  0  0
  145.7040  135.3842  156.3462 O   0  0  0  0  0  0  0  0  0  0  0  0
  145.4759  136.9325  154.4344 H   0  0  0  0  0  0  0  0  0  0  0  0
  149.2957  135.4377  158.0705 H   0  0  0  0  0  0  0  0  0  0  0  0
  148.1249  134.2702  157.4666 H   0  0  0  0  0  0  0  0  0  0  0  0
  147.6110  135.5433  158.5801 H   0  0  0  0  0  0  0  0  0  0  0  0
  149.8128  137.1317  156.5097 H   0  0  0  0  0  0  0  0  0  0  0  0
  149.8002  138.5210  153.3711 H   0  0  0  0  0  0  0  0  0  0  0  0
  151.8366  140.5016  154.8843 H   0  0  0  0  0  0  0  0  0  0  0  0
  151.4665  139.1321  157.5577 H   0  0  0  0  0  0  0  0  0  0  0  0
  152.9600  139.6404  156.7809 H   0  0  0  0  0  0  0  0  0  0  0  0
  152.6284  141.9478  161.5357 H   0  0  0  0  0  0  0  0  0  0  0  0
  152.1954  144.1420  162.5797 H   0  0  0  0  0  0  0  0  0  0  0  0
  151.4263  146.0613  161.1973 H   0  0  0  0  0  0  0  0  0  0  0  0
  151.0943  145.7721  158.7493 H   0  0  0  0  0  0  0  0  0  0  0  0
  151.5119  143.5981  157.6832 H   0  0  0  0  0  0  0  0  0  0  0  0
  149.2970  140.6146  156.5728 H   0  0  0  0  0  0  0  0  0  0  0  0
  149.2333  142.6918  155.6559 H   0  0  0  0  0  0  0  0  0  0  0  0
  148.0343  140.3788  154.6245 H   0  0  0  0  0  0  0  0  0  0  0  0
  149.3721  140.4289  152.5525 H   0  0  0  0  0  0  0  0  0  0  0  0
  1  2  1  0  0  0  0
  1 28  1  0  0  0  0
  1 29  1  0  0  0  0
  1 30  1  0  0  0  0
  2 25  1  0  0  0  0
  2  3  2  0  0  0  0
  3  4  1  0  0  0  0
  3 31  1  0  0  0  0
  4  5  1  0  0  0  0
  4 22  1  0  0  0  0
  5 20  1  0  0  0  0
  5  6  1  0  0  0  0
  5 32  1  0  0  0  0
  6  7  1  0  0  0  0
  7  8  1  0  0  0  0
  7 18  1  0  0  0  0
  7 33  1  0  0  0  0
  8  9  1  0  0  0  0
  8 34  1  0  0  0  0
  8 35  1  0  0  0  0
  9 10  1  0  0  0  0
 10 11  2  0  0  0  0
 10 12  1  0  0  0  0
 12 17  1  0  0  0  0
 12 13  2  0  0  0  0
 13 14  1  0  0  0  0
 13 36  1  0  0  0  0
 14 15  2  0  0  0  0
 14 37  1  0  0  0  0
 15 16  1  0  0  0  0
 15 38  1  0  0  0  0
 16 17  2  0  0  0  0
 16 39  1  0  0  0  0
 17 40  1  0  0  0  0
 18 19  1  0  0  0  0
 18 20  1  0  0  0  0
 18 41  1  0  0  0  0
 19 42  1  0  0  0  0
 20 21  1  0  0  0  0
 20 43  1  0  0  0  0
 21 44  1  0  0  0  0
 22 23  2  0  0  0  0
 22 24  1  0  0  0  0
 24 27  1  0  0  0  0
 24 25  1  0  0  0  0
 25 26  2  0  0  0  0
M  END
> <s_m_source_file>
AV-unprocessed.smi

> <i_m_source_file_index>
101

> <i_lp_mmshare_version>
43012

> <i_f3d_flags>
0

> <s_epik_input>
Tz1jMVtuSF1jKD1PKW4oW2NIXWMxW0NIM10pW0NAQEhdMk9bQ0BIXShbQ0BASF0oW09IXSlbQ0BIXTJbT0hdKVtDSDJdT0MoPU8pYzNbY0hdW2NIXVtjSF1bY0hdW2NIXTM=

> <s_epik_cmdline>
J2VwaWtfcHl0aG9uJywgJy1waCcsICc3LjAnLCAnLXRuJywgJzgnLCAnLW1hJywgJzIwMCcsICctbWV0YWxfYmluZGluZycsICctaW1hZScsICc8aW5maWxlLm1hZT4nLCAnLW9tYWUnLCAnPG91dGZpbGUubWFlPic=

> <r_lp_tautomer_probability>
0.999537

> <r_epik_Ionization_Penalty>
0.00263537

> <r_epik_Ionization_Penalty_Charging>
0.00263428

> <r_epik_Ionization_Penalty_Neutral>
1.09111e-06

> <r_epik_State_Penalty>
0.00183335

> <r_epik_Charging_Adjusted_Penalty>
0.00446763

> <i_epik_Tot_Q>
0

> <i_epik_Tot_abs_Q>
0

> <r_epik_Metal_State_Penalty>
1.00528

> <b_epik_Metal_Only>
0

> <s_epik_Chemistry_Notes>
This compound has an ester and may undergo hydrolysis at high or low pH. This compound contains an acetal/aminal-like group ( X-CH(R)-Y where X, Y are N, S, or O) that may be acid/base labile, releasing an aldehyde.

> <s_lp_Force_Field>
OPLS_2005

> <r_lp_Energy>
35.2309

> <b_lp_Chiralities_Consistent>
1

> <s_lp_Variant>
AV-unprocessed.smi:101-3

> <Gold.Version>
5.8.1

> <Gold.Id.Protein>
6NUR|6NUR_protein|mol2

> <Gold.PLP.Fitness>
49.6064

> <Gold.PLP.PLP>
-42.7312

> <Gold.PLP.part.hbond>
-3.3172

> <Gold.PLP.part.metal>
0.0000

> <Gold.PLP.part.buried>
-4.2760

> <Gold.PLP.part.nonpolar>
-34.9067

> <Gold.PLP.part.repulsive>
0.2883

> <Gold.PLP.ligand.clash>
0.0000

> <Gold.PLP.ligand.torsion>
0.2917

> <Gold.PLP.Chemscore.Hbond>
2.4732

> <Gold.PLP.Chemscore.CHOScore>
0.0000

> <Gold.PLP.Chemscore.Metal>
0.0000

> <Gold.Chemscore.Hbonds>
donor molecule, donor type, donor heavy atom, donor atom, acceptor molecule, acceptor atom, score
      L1  H    19    42       P1  8028  0.51
      L1  H    21    44       P1  7957  0.83
      P1  H  7989  7998       L1    21  0.06
      P1  H  8011  8017       L1    21  0.80

> <Gold.PLP.Chemscore.Internal.Correction>
0.0390

> <Gold.Rescore>
     Score         DG    S(hbond)    S(metal)    S(lipo)     H(rot)  DE(clash)    DE(int)     intcor
     12.63     -14.62       1.87        0.00      97.38       3.32       0.28       1.72       ----

> <Gold.Chemscore.Fitness>
12.6302

> <Gold.Chemscore.DG>
-14.6247

> <Gold.Chemscore.ZeroCoef>
-5.4800

> <Gold.Chemscore.Hbond>
1.8693

> <Gold.Chemscore.Metal>
0.0000

> <Gold.Chemscore.Lipo>
97.3781

> <Gold.Chemscore.Internal_Hbond>
0.0000

> <Gold.Chemscore.DEClash>
0.2773

> <Gold.Chemscore.DEInternal>
1.7172

> <Gold.Chemscore.Rot>
3.3172

> <Gold.Chemscore.Internal.Correction>
   9.000000E+99

> <Gold.Chemscore.Hbonds>
donor molecule, donor type, donor heavy atom, donor atom, acceptor molecule, acceptor atom, score
      L1  H    19    42       P1  8028  0.49
      L1  H    21    44       P1  7957  0.79
      P1  H  8011  8017       L1    21  0.12

> <Gold.Chemscore.Hbond.Weighted>
-6.2434

> <Gold.Chemscore.Metal.Weighted>
-0.0000

> <Gold.Chemscore.Lipo.Weighted>
-11.3932

> <Gold.Chemscore.Internal_Hbond.Weighted>
0.0000

> <Gold.Chemscore.DEClash.Weighted>
0.2773

> <Gold.Chemscore.DEInternal.Weighted>
1.7172

> <Gold.Chemscore.Rot.Weighted>
8.4920

> <Gold.Chemscore.Internal.Correction.Weighted>
   9.000000E+99

> <Gold.Protein.RotatedTorsions>
[ 6907 6896 6895 6894 ] final    2.44 input  -60.11 | X-H torsion
[ 7974 7965 7964 7962 ] final   70.27 input  175.53 | X-H torsion
[ 8008 7997 7996 7995 ] final   91.95 input   59.86 | X-H torsion
[ 10167 10162 10161 10158 ] final   15.24 input  -65.29 | X-H torsion
[ 10718 10713 10712 10709 ] final   47.21 input   66.30 | X-H torsion
[ 10763 10752 10751 10750 ] final  103.46 input  -60.55 | X-H torsion
[ 11005 11000 10999 10996 ] final  -35.17 input  -57.11 | X-H torsion

> <Gold.Protein.ActiveResidues>
 VAL166  LYS551  ARG553  GLY616  TRP617  ASP618  TYR619  PRO620  LYS621  CYS622 
 ASP623  PHE694  ASN695  SER759  ASP760  ASP761  ALA762  ILE779  LEU786  VAL792 
 PHE793  MET794  SER795  GLU796  ALA797  LYS798  CYS799  TRP800  GLU811  SER814 

> <Gold.Protein.RotatedAtoms>
  151.6088  135.1042  160.0076 H   0  0  0  0  0  0  0  0  0  0  0  0  # atno 6907 bound_to 6896
  152.4219  133.7126  159.6498 H   0  0  0  0  0  0  0  0  0  0  0  0  # atno 6908 bound_to 6896
  150.8107  133.8355  159.3206 H   0  0  0  0  0  0  0  0  0  0  0  0  # atno 6909 bound_to 6896
  145.7802  139.2884  143.1270 H   0  0  0  0  0  0  0  0  0  0  0  0  # atno 7974 bound_to 7965
  156.0297  140.3331  155.7127 H   0  0  0  0  0  0  0  0  0  0  0  0  # atno 8008 bound_to 7997
  155.5902  140.0645  157.2778 H   0  0  0  0  0  0  0  0  0  0  0  0  # atno 8009 bound_to 7997
  154.4348  140.1828  156.1055 H   0  0  0  0  0  0  0  0  0  0  0  0  # atno 8010 bound_to 7997
  140.5881  143.8850  150.6848 H   0  0  0  0  0  0  0  0  0  0  0  0  # atno 10167 bound_to 10162
  157.4562  130.8168  149.7838 H   0  0  0  0  0  0  0  0  0  0  0  0  # atno 10718 bound_to 10713
  153.3529  135.3976  155.1660 H   0  0  0  0  0  0  0  0  0  0  0  0  # atno 10763 bound_to 10752
  154.8665  135.3661  154.5199 H   0  0  0  0  0  0  0  0  0  0  0  0  # atno 10764 bound_to 10752
  153.5652  135.7080  153.5589 H   0  0  0  0  0  0  0  0  0  0  0  0  # atno 10765 bound_to 10752
  140.9775  133.7075  156.1627 H   0  0  0  0  0  0  0  0  0  0  0  0  # atno 11005 bound_to 11000
  146.0081  140.8460  142.9984 LP  0  0  0  0  0  0  0  0  0  0  0  0  # atno 17320 bound_to 7965
  144.6797  140.2450  143.7339 LP  0  0  0  0  0  0  0  0  0  0  0  0  # atno 17321 bound_to 7965
  140.2366  143.3695  152.1522 LP  0  0  0  0  0  0  0  0  0  0  0  0  # atno 17342 bound_to 10162
  139.5210  144.7040  151.5409 LP  0  0  0  0  0  0  0  0  0  0  0  0  # atno 17343 bound_to 10162
  156.0008  130.3881  150.2613 LP  0  0  0  0  0  0  0  0  0  0  0  0  # atno 17370 bound_to 10713
  157.0788  131.0137  151.3164 LP  0  0  0  0  0  0  0  0  0  0  0  0  # atno 17371 bound_to 10713
  140.7237  134.4330  157.5572 LP  0  0  0  0  0  0  0  0  0  0  0  0  # atno 17394 bound_to 11000
  139.8936  134.8726  156.2214 LP  0  0  0  0  0  0  0  0  0  0  0  0  # atno 17395 bound_to 11000

$$$$
