AV-unprocessed.smi:1138|AV-procd|sdf|4867|dock5
  -GOLD-   22720 3433D 1   1.00000     0.00000
 Structure written by MMmdl.
 50 52  0  0  0  0  0  0  0  0  2 V2000
  152.2723  142.1417  158.6952 C   0  0  0  0  0  0  0  0  0  0  0  0
  151.5991  142.6956  157.5274 N   0  0  0  0  0  0  0  0  0  0  0  0
  151.5854  144.1362  157.2999 C   0  0  0  0  0  0  0  0  0  0  0  0
  150.9800  141.8318  156.5981 C   0  0  0  0  0  0  0  0  0  0  0  0
  151.4720  140.5384  156.2953 C   0  0  0  0  0  0  0  0  0  0  0  0
  150.7951  139.7321  155.3576 C   0  0  0  0  0  0  0  0  0  0  0  0
  149.6366  140.2196  154.7179 C   0  0  0  0  0  0  0  0  0  0  0  0
  148.9795  139.3624  153.7942 N   0  0  0  0  0  0  0  0  0  0  0  0
  147.6669  139.2751  153.5182 C   0  0  0  0  0  0  0  0  0  0  0  0
  146.7874  139.9797  154.0130 O   0  0  0  0  0  0  0  0  0  0  0  0
  147.4278  138.3233  152.6051 N   0  0  0  0  0  0  0  0  0  0  0  0
  146.1150  137.9760  152.0694 C   0  0  0  0  0  0  0  0  0  0  0  0
  145.2779  137.2843  153.1673 C   0  0  0  0  0  0  0  0  0  0  0  0
  143.9673  136.7124  152.5980 C   0  0  0  0  0  0  0  0  0  0  0  0
  144.2912  135.7972  151.4972 N   0  0  0  0  0  0  0  0  0  0  0  0
  144.1942  134.4495  151.6190 C   0  0  0  0  0  0  0  0  0  0  0  0
  143.7801  133.9092  152.6457 O   0  0  0  0  0  0  0  0  0  0  0  0
  144.5921  133.6283  150.4328 C   0  0  0  0  0  0  0  0  0  0  0  0
  144.3288  132.1340  150.4789 C   0  0  0  0  0  0  0  0  0  0  0  0
  145.7354  132.6528  150.6217 C   0  0  0  0  0  0  0  0  0  0  0  0
  144.8981  136.5176  150.3692 C   0  0  0  0  0  0  0  0  0  0  0  0
  146.2591  137.0796  150.8172 C   0  0  0  0  0  0  0  0  0  0  0  0
  149.1794  141.5144  155.0597 C   0  0  0  0  0  0  0  0  0  0  0  0
  149.8572  142.2522  155.9656 N   0  3  0  0  0  0  0  0  0  0  0  0
  151.5607  141.6195  159.3357 H   0  0  0  0  0  0  0  0  0  0  0  0
  152.7436  142.9247  159.2896 H   0  0  0  0  0  0  0  0  0  0  0  0
  153.0509  141.4406  158.3926 H   0  0  0  0  0  0  0  0  0  0  0  0
  150.5624  144.5002  157.1994 H   0  0  0  0  0  0  0  0  0  0  0  0
  152.1343  144.3851  156.3912 H   0  0  0  0  0  0  0  0  0  0  0  0
  152.0478  144.6728  158.1288 H   0  0  0  0  0  0  0  0  0  0  0  0
  152.3582  140.1463  156.7714 H   0  0  0  0  0  0  0  0  0  0  0  0
  151.1696  138.7443  155.1311 H   0  0  0  0  0  0  0  0  0  0  0  0
  149.5856  138.7685  153.2472 H   0  0  0  0  0  0  0  0  0  0  0  0
  148.2127  137.7963  152.2509 H   0  0  0  0  0  0  0  0  0  0  0  0
  145.5903  138.8889  151.7810 H   0  0  0  0  0  0  0  0  0  0  0  0
  145.8527  136.4727  153.6165 H   0  0  0  0  0  0  0  0  0  0  0  0
  145.0583  137.9884  153.9707 H   0  0  0  0  0  0  0  0  0  0  0  0
  143.3933  136.2330  153.3921 H   0  0  0  0  0  0  0  0  0  0  0  0
  143.3355  137.5200  152.2252 H   0  0  0  0  0  0  0  0  0  0  0  0
  144.4736  134.0989  149.4584 H   0  0  0  0  0  0  0  0  0  0  0  0
  143.8693  131.7034  151.3669 H   0  0  0  0  0  0  0  0  0  0  0  0
  144.0554  131.6525  149.5422 H   0  0  0  0  0  0  0  0  0  0  0  0
  146.4182  132.5264  149.7842 H   0  0  0  0  0  0  0  0  0  0  0  0
  146.1961  132.5876  151.6061 H   0  0  0  0  0  0  0  0  0  0  0  0
  145.0283  135.9105  149.4747 H   0  0  0  0  0  0  0  0  0  0  0  0
  144.2401  137.3342  150.0689 H   0  0  0  0  0  0  0  0  0  0  0  0
  146.7127  137.6427  150.0008 H   0  0  0  0  0  0  0  0  0  0  0  0
  146.9340  136.2493  151.0316 H   0  0  0  0  0  0  0  0  0  0  0  0
  148.2959  141.9893  154.6606 H   0  0  0  0  0  0  0  0  0  0  0  0
  149.4991  143.1810  156.1884 H   0  0  0  0  0  0  0  0  0  0  0  0
  1  2  1  0  0  0  0
  1 25  1  0  0  0  0
  1 26  1  0  0  0  0
  1 27  1  0  0  0  0
  2  3  1  0  0  0  0
  2  4  1  0  0  0  0
  3 28  1  0  0  0  0
  3 29  1  0  0  0  0
  3 30  1  0  0  0  0
  4 24  1  0  0  0  0
  4  5  2  0  0  0  0
  5  6  1  0  0  0  0
  5 31  1  0  0  0  0
  6  7  2  0  0  0  0
  6 32  1  0  0  0  0
  7  8  1  0  0  0  0
  7 23  1  0  0  0  0
  8  9  1  0  0  0  0
  8 33  1  0  0  0  0
  9 10  2  0  0  0  0
  9 11  1  0  0  0  0
 11 12  1  0  0  0  0
 11 34  1  0  0  0  0
 12 22  1  0  0  0  0
 12 13  1  0  0  0  0
 12 35  1  0  0  0  0
 13 14  1  0  0  0  0
 13 36  1  0  0  0  0
 13 37  1  0  0  0  0
 14 15  1  0  0  0  0
 14 38  1  0  0  0  0
 14 39  1  0  0  0  0
 15 16  1  0  0  0  0
 15 21  1  0  0  0  0
 16 17  2  0  0  0  0
 16 18  1  0  0  0  0
 18 20  1  0  0  0  0
 18 19  1  0  0  0  0
 18 40  1  0  0  0  0
 19 20  1  0  0  0  0
 19 41  1  0  0  0  0
 19 42  1  0  0  0  0
 20 43  1  0  0  0  0
 20 44  1  0  0  0  0
 21 22  1  0  0  0  0
 21 45  1  0  0  0  0
 21 46  1  0  0  0  0
 22 47  1  0  0  0  0
 22 48  1  0  0  0  0
 23 24  2  0  0  0  0
 23 49  1  0  0  0  0
 24 50  1  0  0  0  0
M  CHG  1  24   1
M  END
> <s_m_source_file>
AV-unprocessed.smi

> <i_m_source_file_index>
1138

> <i_lp_mmshare_version>
43012

> <i_f3d_flags>
0

> <s_epik_input>
W0NIM11OKFtDSDNdKWMxW2NIXVtjSF1jKFtjSF1uMSlbTkhdQyg9TylbTkhdW0NIXTJbQ0gyXVtDSDJdTihbQ0gyXVtDSDJdMilDKD1PKVtDSF0zW0NIMl1bQ0gyXTM=

> <s_epik_cmdline>
J2VwaWtfcHl0aG9uJywgJy1waCcsICc3LjAnLCAnLXRuJywgJzgnLCAnLW1hJywgJzIwMCcsICctbWV0YWxfYmluZGluZycsICctaW1hZScsICc8aW5maWxlLm1hZT4nLCAnLW9tYWUnLCAnPG91dGZpbGUubWFlPic=

> <r_lp_tautomer_probability>
0.999994

> <r_epik_Ionization_Penalty>
0.25564

> <r_epik_Ionization_Penalty_Charging>
0.25562

> <r_epik_Ionization_Penalty_Neutral>
1.99621e-05

> <r_epik_State_Penalty>
0.247139

> <r_epik_Charging_Adjusted_Penalty>
0.502759

> <i_epik_Tot_Q>
1

> <i_epik_Tot_abs_Q>
1

> <r_epik_Metal_State_Penalty>
0.536902

> <b_epik_Metal_Only>
0

> <s_lp_Force_Field>
OPLS_2005

> <r_lp_Energy>
38.8624

> <b_lp_Chiralities_Consistent>
1

> <s_lp_Variant>
AV-unprocessed.smi:1138-1

> <Gold.Version>
5.8.1

> <Gold.Id.Protein>
6NUR|6NUR_protein|mol2

> <Gold.PLP.Fitness>
50.4308

> <Gold.PLP.PLP>
-43.0377

> <Gold.PLP.part.hbond>
-3.7999

> <Gold.PLP.part.metal>
0.0000

> <Gold.PLP.part.buried>
4.2950

> <Gold.PLP.part.nonpolar>
-44.6576

> <Gold.PLP.part.repulsive>
0.5643

> <Gold.PLP.ligand.clash>
0.0000

> <Gold.PLP.ligand.torsion>
0.8589

> <Gold.PLP.Chemscore.Hbond>
3.0000

> <Gold.PLP.Chemscore.CHOScore>
0.0000

> <Gold.PLP.Chemscore.Metal>
0.0000

> <Gold.Chemscore.Hbonds>
donor molecule, donor type, donor heavy atom, donor atom, acceptor molecule, acceptor atom, score
      L1  H    11    34       P1  7948  1.00
      L1  H    24    50       P1  8028  1.98

> <Gold.PLP.Chemscore.Internal.Correction>
0.1110

> <Gold.Rescore>
     Score         DG    S(hbond)    S(metal)    S(lipo)     H(rot)  DE(clash)    DE(int)     intcor
     17.10     -21.75       1.95        0.00     109.78       1.21       3.26       1.39       ----

> <Gold.Chemscore.Fitness>
17.0989

> <Gold.Chemscore.DG>
-21.7520

> <Gold.Chemscore.ZeroCoef>
-5.4800

> <Gold.Chemscore.Hbond>
1.9516

> <Gold.Chemscore.Metal>
0.0000

> <Gold.Chemscore.Lipo>
109.7834

> <Gold.Chemscore.Internal_Hbond>
0.0000

> <Gold.Chemscore.DEClash>
3.2639

> <Gold.Chemscore.DEInternal>
1.3892

> <Gold.Chemscore.Rot>
1.2074

> <Gold.Chemscore.Internal.Correction>
   9.000000E+99

> <Gold.Chemscore.Hbonds>
donor molecule, donor type, donor heavy atom, donor atom, acceptor molecule, acceptor atom, score
      L1  H    11    34       P1  7948  0.95
      L1  H    24    50       P1  8028  0.94

> <Gold.Chemscore.Hbond.Weighted>
-6.5182

> <Gold.Chemscore.Metal.Weighted>
-0.0000

> <Gold.Chemscore.Lipo.Weighted>
-12.8447

> <Gold.Chemscore.Internal_Hbond.Weighted>
0.0000

> <Gold.Chemscore.DEClash.Weighted>
3.2639

> <Gold.Chemscore.DEInternal.Weighted>
1.3892

> <Gold.Chemscore.Rot.Weighted>
3.0909

> <Gold.Chemscore.Internal.Correction.Weighted>
   9.000000E+99

> <Gold.Protein.RotatedTorsions>
[ 6907 6896 6895 6894 ] final   98.03 input  -60.11 | X-H torsion
[ 7974 7965 7964 7962 ] final   19.00 input  175.53 | X-H torsion
[ 8008 7997 7996 7995 ] final  -40.84 input   59.86 | X-H torsion
[ 10167 10162 10161 10158 ] final -164.18 input  -65.29 | X-H torsion
[ 10718 10713 10712 10709 ] final   -4.50 input   66.30 | X-H torsion
[ 10763 10752 10751 10750 ] final  -90.90 input  -60.55 | X-H torsion
[ 11005 11000 10999 10996 ] final  -53.12 input  -57.11 | X-H torsion

> <Gold.Protein.ActiveResidues>
 VAL166  LYS551  ARG553  GLY616  TRP617  ASP618  TYR619  PRO620  LYS621  CYS622 
 ASP623  PHE694  ASN695  SER759  ASP760  ASP761  ALA762  ILE779  LEU786  VAL792 
 PHE793  MET794  SER795  GLU796  ALA797  LYS798  CYS799  TRP800  GLU811  SER814 

> <Gold.Protein.RotatedAtoms>
  152.5415  134.0643  159.8165 H   0  0  0  0  0  0  0  0  0  0  0  0  # atno 6907 bound_to 6896
  151.0766  133.5415  159.2630 H   0  0  0  0  0  0  0  0  0  0  0  0  # atno 6908 bound_to 6896
  151.2258  135.0544  159.9022 H   0  0  0  0  0  0  0  0  0  0  0  0  # atno 6909 bound_to 6896
  146.2165  139.8376  142.8647 H   0  0  0  0  0  0  0  0  0  0  0  0  # atno 7974 bound_to 7965
  154.4008  140.1515  156.3094 H   0  0  0  0  0  0  0  0  0  0  0  0  # atno 8008 bound_to 7997
  155.8629  140.3452  155.5747 H   0  0  0  0  0  0  0  0  0  0  0  0  # atno 8009 bound_to 7997
  155.7860  140.0850  157.2025 H   0  0  0  0  0  0  0  0  0  0  0  0  # atno 8010 bound_to 7997
  139.6269  144.0515  152.1982 H   0  0  0  0  0  0  0  0  0  0  0  0  # atno 10167 bound_to 10162
  156.7603  130.5267  149.5786 H   0  0  0  0  0  0  0  0  0  0  0  0  # atno 10718 bound_to 10713
  154.6705  135.5287  153.8132 H   0  0  0  0  0  0  0  0  0  0  0  0  # atno 10763 bound_to 10752
  153.0498  135.6528  154.0732 H   0  0  0  0  0  0  0  0  0  0  0  0  # atno 10764 bound_to 10752
  154.0631  135.2960  155.3301 H   0  0  0  0  0  0  0  0  0  0  0  0  # atno 10765 bound_to 10752
  141.0960  133.6624  156.4125 H   0  0  0  0  0  0  0  0  0  0  0  0  # atno 11005 bound_to 11000
  145.2932  141.0173  143.3651 LP  0  0  0  0  0  0  0  0  0  0  0  0  # atno 17320 bound_to 7965
  144.9062  139.4587  143.6609 LP  0  0  0  0  0  0  0  0  0  0  0  0  # atno 17321 bound_to 7965
  140.0171  144.6181  150.7598 LP  0  0  0  0  0  0  0  0  0  0  0  0  # atno 17342 bound_to 10162
  140.7416  143.2820  151.3570 LP  0  0  0  0  0  0  0  0  0  0  0  0  # atno 17343 bound_to 10162
  156.1343  130.6200  151.0378 LP  0  0  0  0  0  0  0  0  0  0  0  0  # atno 17370 bound_to 10713
  157.6737  131.0855  150.7548 LP  0  0  0  0  0  0  0  0  0  0  0  0  # atno 17371 bound_to 10713
  140.5140  134.6368  157.5294 LP  0  0  0  0  0  0  0  0  0  0  0  0  # atno 17394 bound_to 11000
  139.9796  134.7158  155.9884 LP  0  0  0  0  0  0  0  0  0  0  0  0  # atno 17395 bound_to 11000

$$$$
