AV-unprocessed.smi:3143|AV-procd|sdf|11975|dock7
  -GOLD-   2272017373D 1   1.00000     0.00000
 Structure written by MMmdl.
 38 39  0  0  0  0  0  0  0  0  2 V2000
  146.8522  140.7326  153.7745 C   0  0  0  0  0  0  0  0  0  0  0  0
  147.8221  139.5417  153.8326 C   0  0  1  0  0  0  0  0  0  0  0  0
  147.7668  138.7968  152.5536 N   0  3  0  0  0  0  0  0  0  0  0  0
  146.4039  138.4924  152.0683 C   0  0  0  0  0  0  0  0  0  0  0  0
  146.4245  137.3436  151.0508 C   0  0  0  0  0  0  0  0  0  0  0  0
  145.4790  136.3026  151.4031 N   0  0  0  0  0  0  0  0  0  0  0  0
  145.2796  135.0797  150.7971 C   0  0  0  0  0  0  0  0  0  0  0  0
  144.2836  134.4454  151.4830 C   0  0  0  0  0  0  0  0  0  0  0  0
  143.9334  135.3713  152.5054 C   0  0  0  0  0  0  0  0  0  0  0  0
  144.6511  136.4820  152.4547 N   0  0  0  0  0  0  0  0  0  0  0  0
  149.2497  140.0405  154.1346 C   0  0  0  0  0  0  0  0  0  0  0  0
  149.5023  141.2373  153.9861 O   0  0  0  0  0  0  0  0  0  0  0  0
  150.1820  139.1627  154.5638 N   0  0  0  0  0  0  0  0  0  0  0  0
  151.5756  139.4668  154.8897 C   0  0  0  0  0  0  0  0  0  0  0  0
  152.2612  138.1144  155.0860 C   0  0  0  0  0  0  0  0  0  0  0  0
  151.1311  137.1805  155.4939 C   0  0  0  0  0  0  0  0  0  0  0  0
  149.9064  137.7417  154.7716 C   0  0  0  0  0  0  0  0  0  0  0  0
  146.8511  141.2941  154.7094 H   0  0  0  0  0  0  0  0  0  0  0  0
  145.8304  140.3956  153.5973 H   0  0  0  0  0  0  0  0  0  0  0  0
  147.1151  141.4252  152.9737 H   0  0  0  0  0  0  0  0  0  0  0  0
  147.4795  138.8621  154.6129 H   0  0  0  0  0  0  0  0  0  0  0  0
  148.2260  139.3528  151.8469 H   0  0  0  0  0  0  0  0  0  0  0  0
  145.7664  138.2270  152.9126 H   0  0  0  0  0  0  0  0  0  0  0  0
  145.9771  139.3862  151.6115 H   0  0  0  0  0  0  0  0  0  0  0  0
  146.1817  137.7112  150.0528 H   0  0  0  0  0  0  0  0  0  0  0  0
  147.4203  136.9012  150.9932 H   0  0  0  0  0  0  0  0  0  0  0  0
  145.8545  134.7650  149.9383 H   0  0  0  0  0  0  0  0  0  0  0  0
  143.8687  133.4680  151.2856 H   0  0  0  0  0  0  0  0  0  0  0  0
  143.1850  135.2701  153.2778 H   0  0  0  0  0  0  0  0  0  0  0  0
  152.0709  140.0451  154.1089 H   0  0  0  0  0  0  0  0  0  0  0  0
  151.6069  140.0430  155.8157 H   0  0  0  0  0  0  0  0  0  0  0  0
  152.6874  137.7786  154.1395 H   0  0  0  0  0  0  0  0  0  0  0  0
  153.0664  138.1503  155.8204 H   0  0  0  0  0  0  0  0  0  0  0  0
  151.3303  136.1385  155.2417 H   0  0  0  0  0  0  0  0  0  0  0  0
  150.9797  137.2397  156.5728 H   0  0  0  0  0  0  0  0  0  0  0  0
  148.9970  137.5790  155.3523 H   0  0  0  0  0  0  0  0  0  0  0  0
  149.7803  137.2597  153.8008 H   0  0  0  0  0  0  0  0  0  0  0  0
  148.2776  137.9324  152.6670 H   0  0  0  0  0  0  0  0  0  0  0  0
  1  2  1  0  0  0  0
  1 18  1  0  0  0  0
  1 19  1  0  0  0  0
  1 20  1  0  0  0  0
  2  3  1  0  0  0  0
  2 11  1  0  0  0  0
  2 21  1  0  0  0  0
  3  4  1  0  0  0  0
  3 22  1  0  0  0  0
  3 38  1  0  0  0  0
  4  5  1  0  0  0  0
  4 23  1  0  0  0  0
  4 24  1  0  0  0  0
  5  6  1  0  0  0  0
  5 25  1  0  0  0  0
  5 26  1  0  0  0  0
  6 10  1  0  0  0  0
  6  7  1  0  0  0  0
  7  8  2  0  0  0  0
  7 27  1  0  0  0  0
  8  9  1  0  0  0  0
  8 28  1  0  0  0  0
  9 10  2  0  0  0  0
  9 29  1  0  0  0  0
 11 12  2  0  0  0  0
 11 13  1  0  0  0  0
 13 17  1  0  0  0  0
 13 14  1  0  0  0  0
 14 15  1  0  0  0  0
 14 30  1  0  0  0  0
 14 31  1  0  0  0  0
 15 16  1  0  0  0  0
 15 32  1  0  0  0  0
 15 33  1  0  0  0  0
 16 17  1  0  0  0  0
 16 34  1  0  0  0  0
 16 35  1  0  0  0  0
 17 36  1  0  0  0  0
 17 37  1  0  0  0  0
M  CHG  1   3   1
M  END
> <s_m_source_file>
AV-unprocessed.smi

> <i_m_source_file_index>
3143

> <i_lp_mmshare_version>
43012

> <i_f3d_flags>
0

> <s_epik_input>
W0NIMl0xW0NIMl1bQ0gyXVtDSDJdTjFDKD1PKVtDQEhdKFtDSDNdKVtOSF1bQ0gyXVtDSDJdbjJbY0hdW2NIXVtjSF1uMg==

> <s_epik_cmdline>
J2VwaWtfcHl0aG9uJywgJy1waCcsICc3LjAnLCAnLXRuJywgJzgnLCAnLW1hJywgJzIwMCcsICctbWV0YWxfYmluZGluZycsICctaW1hZScsICc8aW5maWxlLm1hZT4nLCAnLW9tYWUnLCAnPG91dGZpbGUubWFlPic=

> <r_lp_tautomer_probability>
1

> <r_epik_Ionization_Penalty>
0.203171

> <r_epik_Ionization_Penalty_Charging>
0.203168

> <r_epik_Ionization_Penalty_Neutral>
2.46932e-06

> <r_epik_State_Penalty>
0.193072

> <r_epik_Charging_Adjusted_Penalty>
0.39624

> <i_epik_Tot_Q>
1

> <i_epik_Tot_abs_Q>
1

> <r_epik_Metal_State_Penalty>
0.193323

> <b_epik_Metal_Only>
0

> <s_lp_Force_Field>
OPLS_2005

> <r_lp_Energy>
30.1321

> <b_lp_Chiralities_Consistent>
1

> <s_lp_Variant>
AV-unprocessed.smi:3143-2

> <Gold.Version>
5.8.1

> <Gold.Id.Protein>
6NUR|6NUR_protein|mol2

> <Gold.PLP.Fitness>
45.5417

> <Gold.PLP.PLP>
-32.5497

> <Gold.PLP.part.hbond>
-4.0000

> <Gold.PLP.part.metal>
0.0000

> <Gold.PLP.part.buried>
5.0643

> <Gold.PLP.part.nonpolar>
-34.5143

> <Gold.PLP.part.repulsive>
0.9505

> <Gold.PLP.ligand.clash>
0.0000

> <Gold.PLP.ligand.torsion>
0.9465

> <Gold.PLP.Chemscore.Hbond>
3.9485

> <Gold.PLP.Chemscore.CHOScore>
1.0000

> <Gold.PLP.Chemscore.Metal>
0.0000

> <Gold.Chemscore.Hbonds>
donor molecule, donor type, donor heavy atom, donor atom, acceptor molecule, acceptor atom, score
      L1  H     3    22       P1  7957  1.00
      L1  H     3    38       P1  7948  1.92
      P1  H  7989  7998       L1    12  0.16
      P1  H  8011  8017       L1    12  0.77
      L1  C     7    27       P1  7921  1.00

> <Gold.PLP.Chemscore.Internal.Correction>
0.0395

> <Gold.Rescore>
     Score         DG    S(hbond)    S(metal)    S(lipo)     H(rot)  DE(clash)    DE(int)     intcor
     14.82     -18.11       2.70        0.00      71.07       1.84       2.24       1.05       ----

> <Gold.Chemscore.Fitness>
14.8164

> <Gold.Chemscore.DG>
-18.1057

> <Gold.Chemscore.ZeroCoef>
-5.4800

> <Gold.Chemscore.Hbond>
2.7012

> <Gold.Chemscore.Metal>
0.0000

> <Gold.Chemscore.Lipo>
71.0706

> <Gold.Chemscore.Internal_Hbond>
0.0000

> <Gold.Chemscore.DEClash>
2.2376

> <Gold.Chemscore.DEInternal>
1.0517

> <Gold.Chemscore.Rot>
1.8405

> <Gold.Chemscore.Internal.Correction>
   9.000000E+99

> <Gold.Chemscore.Hbonds>
donor molecule, donor type, donor heavy atom, donor atom, acceptor molecule, acceptor atom, score
      L1  H     3    22       P1  7957  0.97
      L1  H     3    38       P1  7948  0.90
      P1  H  7989  7998       L1    12  0.02
      P1  H  8011  8017       L1    12  0.72

> <Gold.Chemscore.Hbond.Weighted>
-9.0221

> <Gold.Chemscore.Metal.Weighted>
-0.0000

> <Gold.Chemscore.Lipo.Weighted>
-8.3153

> <Gold.Chemscore.Internal_Hbond.Weighted>
0.0000

> <Gold.Chemscore.DEClash.Weighted>
2.2376

> <Gold.Chemscore.DEInternal.Weighted>
1.0517

> <Gold.Chemscore.Rot.Weighted>
4.7117

> <Gold.Chemscore.Internal.Correction.Weighted>
   9.000000E+99

> <Gold.Protein.RotatedTorsions>
[ 6907 6896 6895 6894 ] final  125.03 input  -60.11 | X-H torsion
[ 7974 7965 7964 7962 ] final  162.54 input  175.53 | X-H torsion
[ 8008 7997 7996 7995 ] final  -38.18 input   59.86 | X-H torsion
[ 10167 10162 10161 10158 ] final -160.61 input  -65.29 | X-H torsion
[ 10718 10713 10712 10709 ] final -139.35 input   66.30 | X-H torsion
[ 10763 10752 10751 10750 ] final -113.50 input  -60.55 | X-H torsion
[ 11005 11000 10999 10996 ] final -164.42 input  -57.11 | X-H torsion

> <Gold.Protein.ActiveResidues>
 VAL166  LYS551  ARG553  GLY616  TRP617  ASP618  TYR619  PRO620  LYS621  CYS622 
 ASP623  PHE694  ASN695  SER759  ASP760  ASP761  ALA762  ILE779  LEU786  VAL792 
 PHE793  MET794  SER795  GLU796  ALA797  LYS798  CYS799  TRP800  GLU811  SER814 

> <Gold.Protein.RotatedAtoms>
  152.4027  133.6842  159.6329 H   0  0  0  0  0  0  0  0  0  0  0  0  # atno 6907 bound_to 6896
  150.7916  133.8762  159.3281 H   0  0  0  0  0  0  0  0  0  0  0  0  # atno 6908 bound_to 6896
  151.6524  135.1001  160.0215 H   0  0  0  0  0  0  0  0  0  0  0  0  # atno 6909 bound_to 6896
  144.7632  139.8055  143.6325 H   0  0  0  0  0  0  0  0  0  0  0  0  # atno 7974 bound_to 7965
  154.4041  140.1584  156.2657 H   0  0  0  0  0  0  0  0  0  0  0  0  # atno 8008 bound_to 7997
  155.8997  140.3434  155.5995 H   0  0  0  0  0  0  0  0  0  0  0  0  # atno 8009 bound_to 7997
  155.7462  140.0799  157.2213 H   0  0  0  0  0  0  0  0  0  0  0  0  # atno 8010 bound_to 7997
  139.6526  144.0056  152.2172 H   0  0  0  0  0  0  0  0  0  0  0  0  # atno 10167 bound_to 10162
  156.3098  130.7475  151.1548 H   0  0  0  0  0  0  0  0  0  0  0  0  # atno 10718 bound_to 10713
  154.8399  135.4452  154.1359 H   0  0  0  0  0  0  0  0  0  0  0  0  # atno 10763 bound_to 10752
  153.2557  135.6931  153.7638 H   0  0  0  0  0  0  0  0  0  0  0  0  # atno 10764 bound_to 10752
  153.6933  135.3383  155.3183 H   0  0  0  0  0  0  0  0  0  0  0  0  # atno 10765 bound_to 10752
  140.5871  134.5082  157.5187 H   0  0  0  0  0  0  0  0  0  0  0  0  # atno 11005 bound_to 11000
  146.1714  139.4866  142.9925 LP  0  0  0  0  0  0  0  0  0  0  0  0  # atno 17320 bound_to 7965
  145.6554  141.0253  143.1738 LP  0  0  0  0  0  0  0  0  0  0  0  0  # atno 17321 bound_to 7965
  139.9774  144.6452  150.7932 LP  0  0  0  0  0  0  0  0  0  0  0  0  # atno 17342 bound_to 10162
  140.7545  143.3028  151.3038 LP  0  0  0  0  0  0  0  0  0  0  0  0  # atno 17343 bound_to 10162
  157.7388  131.0536  150.5271 LP  0  0  0  0  0  0  0  0  0  0  0  0  # atno 17370 bound_to 10713
  156.5409  130.4208  149.6154 LP  0  0  0  0  0  0  0  0  0  0  0  0  # atno 17371 bound_to 10713
  139.9291  134.7999  156.0983 LP  0  0  0  0  0  0  0  0  0  0  0  0  # atno 17394 bound_to 11000
  141.0959  133.6696  156.2644 LP  0  0  0  0  0  0  0  0  0  0  0  0  # atno 17395 bound_to 11000

$$$$
