AV-unprocessed.smi:2278|AV-procd|sdf|9179|dock9
  -GOLD-   2272012393D 1   1.00000     0.00000
 Structure written by MMmdl.
 46 47  0  0  0  0  0  0  0  0  2 V2000
  151.6534  140.6261  156.3149 C   0  0  0  0  0  0  0  0  0  0  0  0
  150.3069  140.3834  155.6565 C   0  0  0  0  0  0  0  0  0  0  0  0
  150.3312  139.5915  154.5050 N   0  0  0  0  0  0  0  0  0  0  0  0
  149.2304  139.3270  153.8812 C   0  0  0  0  0  0  0  0  0  0  0  0
  147.9908  139.8127  154.3303 N   0  0  0  0  0  0  0  0  0  0  0  0
  146.8146  139.4197  153.5336 C   0  0  0  0  0  0  0  0  0  0  0  0
  147.0422  138.1158  152.7350 C   0  0  2  0  0  0  0  0  0  0  0  0
  147.6223  138.4682  151.4952 O   0  0  0  0  0  0  0  0  0  0  0  0
  145.7448  137.3246  152.4583 C   0  0  0  0  0  0  0  0  0  0  0  0
  146.0051  135.9141  152.0740 N   0  3  2  0  0  0  0  0  0  0  0  0
  145.0987  135.4505  150.9921 C   0  0  0  0  0  0  0  0  0  0  0  0
  145.4783  134.0385  150.5155 C   0  0  0  0  0  0  0  0  0  0  0  0
  145.4762  133.0352  151.6810 C   0  0  1  0  0  0  0  0  0  0  0  0
  145.8857  131.6289  151.2214 C   0  0  0  0  0  0  0  0  0  0  0  0
  146.3921  133.5578  152.8004 C   0  0  0  0  0  0  0  0  0  0  0  0
  145.9939  134.9794  153.2308 C   0  0  0  0  0  0  0  0  0  0  0  0
  147.8799  140.6018  155.4386 C   0  0  0  0  0  0  0  0  0  0  0  0
  146.7889  141.0250  155.8255 O   0  0  0  0  0  0  0  0  0  0  0  0
  149.1408  140.8918  156.1402 C   0  0  0  0  0  0  0  0  0  0  0  0
  149.0524  141.7545  157.3931 C   0  0  0  0  0  0  0  0  0  0  0  0
  151.8707  141.6935  156.3599 H   0  0  0  0  0  0  0  0  0  0  0  0
  152.4599  140.1451  155.7597 H   0  0  0  0  0  0  0  0  0  0  0  0
  151.6601  140.2253  157.3289 H   0  0  0  0  0  0  0  0  0  0  0  0
  149.1941  138.7130  152.9795 H   0  0  0  0  0  0  0  0  0  0  0  0
  145.9261  139.3198  154.1597 H   0  0  0  0  0  0  0  0  0  0  0  0
  146.5659  140.2292  152.8438 H   0  0  0  0  0  0  0  0  0  0  0  0
  147.7635  137.4982  153.2687 H   0  0  0  0  0  0  0  0  0  0  0  0
  148.2540  139.1564  151.6403 H   0  0  0  0  0  0  0  0  0  0  0  0
  145.0885  137.3265  153.3283 H   0  0  0  0  0  0  0  0  0  0  0  0
  145.1960  137.8329  151.6637 H   0  0  0  0  0  0  0  0  0  0  0  0
  144.0671  135.4648  151.3481 H   0  0  0  0  0  0  0  0  0  0  0  0
  145.1523  136.1371  150.1463 H   0  0  0  0  0  0  0  0  0  0  0  0
  144.7817  133.7137  149.7416 H   0  0  0  0  0  0  0  0  0  0  0  0
  146.4653  134.0648  150.0507 H   0  0  0  0  0  0  0  0  0  0  0  0
  144.4603  132.9729  152.0742 H   0  0  0  0  0  0  0  0  0  0  0  0
  146.8964  131.6231  150.8119 H   0  0  0  0  0  0  0  0  0  0  0  0
  145.2118  131.2569  150.4491 H   0  0  0  0  0  0  0  0  0  0  0  0
  145.8584  130.9211  152.0501 H   0  0  0  0  0  0  0  0  0  0  0  0
  146.3474  132.8894  153.6611 H   0  0  0  0  0  0  0  0  0  0  0  0
  147.4296  133.5572  152.4629 H   0  0  0  0  0  0  0  0  0  0  0  0
  146.6831  135.3193  154.0028 H   0  0  0  0  0  0  0  0  0  0  0  0
  144.9998  134.9682  153.6812 H   0  0  0  0  0  0  0  0  0  0  0  0
  148.4082  141.2779  158.1325 H   0  0  0  0  0  0  0  0  0  0  0  0
  148.6264  142.7283  157.1500 H   0  0  0  0  0  0  0  0  0  0  0  0
  150.0180  141.9282  157.8648 H   0  0  0  0  0  0  0  0  0  0  0  0
  146.9376  135.8973  151.6853 H   0  0  0  0  0  0  0  0  0  0  0  0
  1  2  1  0  0  0  0
  1 21  1  0  0  0  0
  1 22  1  0  0  0  0
  1 23  1  0  0  0  0
  2 19  2  0  0  0  0
  2  3  1  0  0  0  0
  3  4  2  0  0  0  0
  4  5  1  0  0  0  0
  4 24  1  0  0  0  0
  5  6  1  0  0  0  0
  5 17  1  0  0  0  0
  6  7  1  0  0  0  0
  6 25  1  0  0  0  0
  6 26  1  0  0  0  0
  7  8  1  0  0  0  0
  7  9  1  0  0  0  0
  7 27  1  0  0  0  0
  8 28  1  0  0  0  0
  9 10  1  0  0  0  0
  9 29  1  0  0  0  0
  9 30  1  0  0  0  0
 10 16  1  0  0  0  0
 10 11  1  0  0  0  0
 10 46  1  0  0  0  0
 11 12  1  0  0  0  0
 11 31  1  0  0  0  0
 11 32  1  0  0  0  0
 12 13  1  0  0  0  0
 12 33  1  0  0  0  0
 12 34  1  0  0  0  0
 13 14  1  0  0  0  0
 13 15  1  0  0  0  0
 13 35  1  0  0  0  0
 14 36  1  0  0  0  0
 14 37  1  0  0  0  0
 14 38  1  0  0  0  0
 15 16  1  0  0  0  0
 15 39  1  0  0  0  0
 15 40  1  0  0  0  0
 16 41  1  0  0  0  0
 16 42  1  0  0  0  0
 17 18  2  0  0  0  0
 17 19  1  0  0  0  0
 19 20  1  0  0  0  0
 20 43  1  0  0  0  0
 20 44  1  0  0  0  0
 20 45  1  0  0  0  0
M  CHG  1  10   1
M  END
> <s_m_source_file>
AV-unprocessed.smi

> <i_m_source_file_index>
2278

> <i_lp_mmshare_version>
43012

> <i_f3d_flags>
0

> <s_epik_input>
W0NIM11jMW5bY0hdbihjKD1PKWMxW0NIM10pW0NIMl1bQ0BIXShbT0hdKVtDSDJdTjJbQ0gyXVtDSDJdW0NIXShbQ0gzXSlbQ0gyXVtDSDJdMg==

> <s_epik_cmdline>
J2VwaWtfcHl0aG9uJywgJy1waCcsICc3LjAnLCAnLXRuJywgJzgnLCAnLW1hJywgJzIwMCcsICctbWV0YWxfYmluZGluZycsICctaW1hZScsICc8aW5maWxlLm1hZT4nLCAnLW9tYWUnLCAnPG91dGZpbGUubWFlPic=

> <r_lp_tautomer_probability>
1

> <r_epik_Ionization_Penalty>
0.00139489

> <r_epik_Ionization_Penalty_Charging>
0.00136819

> <r_epik_Ionization_Penalty_Neutral>
2.66975e-05

> <r_epik_State_Penalty>
0.000910892

> <r_epik_Charging_Adjusted_Penalty>
0.00227908

> <i_epik_Tot_Q>
1

> <i_epik_Tot_abs_Q>
1

> <r_epik_Metal_State_Penalty>
-0

> <b_epik_Metal_Only>
0

> <s_lp_Force_Field>
OPLS_2005

> <r_lp_Energy>
28.1947

> <b_lp_Chiralities_Consistent>
1

> <s_lp_Variant>
AV-unprocessed.smi:2278-1

> <Gold.Version>
5.8.1

> <Gold.Id.Protein>
6NUR|6NUR_protein|mol2

> <Gold.PLP.Fitness>
42.8289

> <Gold.PLP.PLP>
-28.0216

> <Gold.PLP.part.hbond>
-4.9525

> <Gold.PLP.part.metal>
0.0000

> <Gold.PLP.part.buried>
1.8650

> <Gold.PLP.part.nonpolar>
-25.5675

> <Gold.PLP.part.repulsive>
0.2031

> <Gold.PLP.ligand.clash>
0.0000

> <Gold.PLP.ligand.torsion>
1.3074

> <Gold.PLP.Chemscore.Hbond>
4.5920

> <Gold.PLP.Chemscore.CHOScore>
1.2032

> <Gold.PLP.Chemscore.Metal>
0.0000

> <Gold.Chemscore.Hbonds>
donor molecule, donor type, donor heavy atom, donor atom, acceptor molecule, acceptor atom, score
      L1  H     8    28       P1  7957  0.98
      L1  H    10    46       P1  7948  2.00
      P1  H  7954  7966       L1     8  0.95
      P1  H  7989  7998       L1     3  0.61
      L1  C     4    24       P1  7948  0.59
      L1  C     4    24       P1  7957  0.60

> <Gold.PLP.Chemscore.Internal.Correction>
0.0365

> <Gold.Rescore>
     Score         DG    S(hbond)    S(metal)    S(lipo)     H(rot)  DE(clash)    DE(int)     intcor
     12.78     -15.03       2.11        0.00      69.51       2.20       0.95       1.30       ----

> <Gold.Chemscore.Fitness>
12.7827

> <Gold.Chemscore.DG>
-15.0251

> <Gold.Chemscore.ZeroCoef>
-5.4800

> <Gold.Chemscore.Hbond>
2.1079

> <Gold.Chemscore.Metal>
0.0000

> <Gold.Chemscore.Lipo>
69.5138

> <Gold.Chemscore.Internal_Hbond>
0.0000

> <Gold.Chemscore.DEClash>
0.9464

> <Gold.Chemscore.DEInternal>
1.2960

> <Gold.Chemscore.Rot>
2.1986

> <Gold.Chemscore.Internal.Correction>
   9.000000E+99

> <Gold.Chemscore.Hbonds>
donor molecule, donor type, donor heavy atom, donor atom, acceptor molecule, acceptor atom, score
      L1  H     8    28       P1  7957  0.86
      L1  H    10    46       P1  7948  0.91
      P1  H  7954  7966       L1     8  0.21
      P1  H  7989  7998       L1     3  0.06

> <Gold.Chemscore.Hbond.Weighted>
-7.0404

> <Gold.Chemscore.Metal.Weighted>
-0.0000

> <Gold.Chemscore.Lipo.Weighted>
-8.1331

> <Gold.Chemscore.Internal_Hbond.Weighted>
0.0000

> <Gold.Chemscore.DEClash.Weighted>
0.9464

> <Gold.Chemscore.DEInternal.Weighted>
1.2960

> <Gold.Chemscore.Rot.Weighted>
5.6285

> <Gold.Chemscore.Internal.Correction.Weighted>
   9.000000E+99

> <Gold.Protein.RotatedTorsions>
[ 6907 6896 6895 6894 ] final   70.47 input  -60.11 | X-H torsion
[ 7974 7965 7964 7962 ] final  -62.10 input  175.53 | X-H torsion
[ 8008 7997 7996 7995 ] final  130.45 input   59.86 | X-H torsion
[ 10167 10162 10161 10158 ] final  -80.09 input  -65.29 | X-H torsion
[ 10718 10713 10712 10709 ] final   13.73 input   66.30 | X-H torsion
[ 10763 10752 10751 10750 ] final   79.24 input  -60.55 | X-H torsion
[ 11005 11000 10999 10996 ] final -167.05 input  -57.11 | X-H torsion

> <Gold.Protein.ActiveResidues>
 VAL166  LYS551  ARG553  GLY616  TRP617  ASP618  TYR619  PRO620  LYS621  CYS622 
 ASP623  PHE694  ASN695  SER759  ASP760  ASP761  ALA762  ILE779  LEU786  VAL792 
 PHE793  MET794  SER795  GLU796  ALA797  LYS798  CYS799  TRP800  GLU811  SER814 

> <Gold.Protein.RotatedAtoms>
  152.4751  134.4863  159.9681 H   0  0  0  0  0  0  0  0  0  0  0  0  # atno 6907 bound_to 6896
  151.4881  133.3525  159.2857 H   0  0  0  0  0  0  0  0  0  0  0  0  # atno 6908 bound_to 6896
  150.8785  134.8199  159.7269 H   0  0  0  0  0  0  0  0  0  0  0  0  # atno 6909 bound_to 6896
  145.7954  140.8686  143.0259 H   0  0  0  0  0  0  0  0  0  0  0  0  # atno 7974 bound_to 7965
  156.2954  140.2596  156.2763 H   0  0  0  0  0  0  0  0  0  0  0  0  # atno 8008 bound_to 7997
  154.9645  140.0392  157.2224 H   0  0  0  0  0  0  0  0  0  0  0  0  # atno 8009 bound_to 7997
  154.7915  140.2812  155.5992 H   0  0  0  0  0  0  0  0  0  0  0  0  # atno 8010 bound_to 7997
  140.4534  143.2476  151.8455 H   0  0  0  0  0  0  0  0  0  0  0  0  # atno 10167 bound_to 10162
  157.0290  130.6185  149.5732 H   0  0  0  0  0  0  0  0  0  0  0  0  # atno 10718 bound_to 10713
  153.0937  135.4847  154.8739 H   0  0  0  0  0  0  0  0  0  0  0  0  # atno 10763 bound_to 10752
  154.7300  135.3058  154.8910 H   0  0  0  0  0  0  0  0  0  0  0  0  # atno 10764 bound_to 10752
  153.9549  135.6819  153.4797 H   0  0  0  0  0  0  0  0  0  0  0  0  # atno 10765 bound_to 10752
  140.5575  134.5366  157.5136 H   0  0  0  0  0  0  0  0  0  0  0  0  # atno 11005 bound_to 11000
  144.6776  140.0183  143.7484 LP  0  0  0  0  0  0  0  0  0  0  0  0  # atno 17320 bound_to 7965
  145.9933  139.3032  143.0971 LP  0  0  0  0  0  0  0  0  0  0  0  0  # atno 17321 bound_to 7965
  139.4799  144.5093  151.8955 LP  0  0  0  0  0  0  0  0  0  0  0  0  # atno 17342 bound_to 10162
  140.4179  144.2282  150.5887 LP  0  0  0  0  0  0  0  0  0  0  0  0  # atno 17343 bound_to 10162
  156.0076  130.5164  150.7882 LP  0  0  0  0  0  0  0  0  0  0  0  0  # atno 17370 bound_to 10713
  157.5192  131.0930  151.0100 LP  0  0  0  0  0  0  0  0  0  0  0  0  # atno 17371 bound_to 10713
  139.9424  134.7763  156.0645 LP  0  0  0  0  0  0  0  0  0  0  0  0  # atno 17394 bound_to 11000
  141.1134  133.6635  156.3035 LP  0  0  0  0  0  0  0  0  0  0  0  0  # atno 17395 bound_to 11000

$$$$
