AV-unprocessed.smi:2061|AV-procd|sdf|8392|dock1
  -GOLD-   2272011 73D 1   1.00000     0.00000
 Structure written by MMmdl.
 45 46  0  0  0  0  0  0  0  0  3 V2000
  146.1277  140.8256  154.9371 C   0  0  0  0  0  0  0  0  0  0  0  0
  147.1856  140.3514  155.8743 C   0  0  0  0  0  0  0  0  0  0  0  0
  148.5470  140.4686  155.8720 C   0  0  0  0  0  0  0  0  0  0  0  0
  148.9300  139.7914  157.0601 C   0  0  0  0  0  0  0  0  0  0  0  0
  150.2983  139.6745  157.4205 N   0  0  0  0  0  0  0  0  0  0  0  0
  151.3793  139.7048  156.6211 C   0  0  0  0  0  0  0  0  0  0  0  0
  151.2454  139.7168  155.3915 O   0  0  0  0  0  0  0  0  0  0  0  0
  152.5458  139.7333  157.3238 N   0  5  0  0  0  0  0  0  0  0  0  0
  152.6601  140.0471  158.7527 C   0  0  0  0  0  0  0  0  0  0  0  0
  153.6389  141.2274  159.0110 C   0  0  2  0  0  0  0  0  0  0  0  0
  155.0261  140.7996  159.5518 C   0  0  0  0  0  0  0  0  0  0  0  0
  152.9765  142.3168  159.7971 N   0  3  1  0  0  0  0  0  0  0  0  0
  153.6687  142.7735  161.0303 C   0  0  0  0  0  0  0  0  0  0  0  0
  152.7275  143.6717  161.8484 C   0  0  1  0  0  0  0  0  0  0  0  0
  153.4043  144.2147  163.1113 C   0  0  0  0  0  0  0  0  0  0  0  0
  152.3297  144.7815  161.0457 O   0  0  0  0  0  0  0  0  0  0  0  0
  151.6734  144.4358  159.8246 C   0  0  2  0  0  0  0  0  0  0  0  0
  150.2503  143.9012  160.0655 C   0  0  0  0  0  0  0  0  0  0  0  0
  152.5517  143.4834  158.9876 C   0  0  0  0  0  0  0  0  0  0  0  0
  147.8948  139.2963  157.7227 N   0  0  0  0  0  0  0  0  0  0  0  0
  146.7720  139.6559  156.9683 O   0  0  0  0  0  0  0  0  0  0  0  0
  146.3273  140.4797  153.9229 H   0  0  0  0  0  0  0  0  0  0  0  0
  146.0870  141.9148  154.9214 H   0  0  0  0  0  0  0  0  0  0  0  0
  145.1455  140.4556  155.2324 H   0  0  0  0  0  0  0  0  0  0  0  0
  149.1675  140.9612  155.1386 H   0  0  0  0  0  0  0  0  0  0  0  0
  150.4848  139.6037  158.4098 H   0  0  0  0  0  0  0  0  0  0  0  0
  151.6872  140.3046  159.1714 H   0  0  0  0  0  0  0  0  0  0  0  0
  152.9948  139.1857  159.3328 H   0  0  0  0  0  0  0  0  0  0  0  0
  153.8408  141.6306  158.0177 H   0  0  0  0  0  0  0  0  0  0  0  0
  155.5253  140.1044  158.8744 H   0  0  0  0  0  0  0  0  0  0  0  0
  154.9714  140.3142  160.5277 H   0  0  0  0  0  0  0  0  0  0  0  0
  155.6852  141.6625  159.6500 H   0  0  0  0  0  0  0  0  0  0  0  0
  153.9665  141.9200  161.6390 H   0  0  0  0  0  0  0  0  0  0  0  0
  154.5770  143.3198  160.7725 H   0  0  0  0  0  0  0  0  0  0  0  0
  151.8509  143.1010  162.1563 H   0  0  0  0  0  0  0  0  0  0  0  0
  153.7196  143.4020  163.7664 H   0  0  0  0  0  0  0  0  0  0  0  0
  152.7215  144.8496  163.6764 H   0  0  0  0  0  0  0  0  0  0  0  0
  154.2851  144.8084  162.8645 H   0  0  0  0  0  0  0  0  0  0  0  0
  151.5683  145.3658  159.2654 H   0  0  0  0  0  0  0  0  0  0  0  0
  149.7202  143.7715  159.1219 H   0  0  0  0  0  0  0  0  0  0  0  0
  149.6720  144.5962  160.6746 H   0  0  0  0  0  0  0  0  0  0  0  0
  150.2495  142.9354  160.5696 H   0  0  0  0  0  0  0  0  0  0  0  0
  153.4384  144.0078  158.6281 H   0  0  0  0  0  0  0  0  0  0  0  0
  151.9970  143.1549  158.1074 H   0  0  0  0  0  0  0  0  0  0  0  0
  152.1176  141.8900  160.1175 H   0  0  0  0  0  0  0  0  0  0  0  0
  1  2  1  0  0  0  0
  1 22  1  0  0  0  0
  1 23  1  0  0  0  0
  1 24  1  0  0  0  0
  2 21  1  0  0  0  0
  2  3  2  0  0  0  0
  3  4  1  0  0  0  0
  3 25  1  0  0  0  0
  4  5  1  0  0  0  0
  4 20  2  0  0  0  0
  5  6  1  0  0  0  0
  5 26  1  0  0  0  0
  6  7  2  0  0  0  0
  6  8  1  0  0  0  0
  8  9  1  0  0  0  0
  9 10  1  0  0  0  0
  9 27  1  0  0  0  0
  9 28  1  0  0  0  0
 10 11  1  0  0  0  0
 10 12  1  0  0  0  0
 10 29  1  0  0  0  0
 11 30  1  0  0  0  0
 11 31  1  0  0  0  0
 11 32  1  0  0  0  0
 12 19  1  0  0  0  0
 12 13  1  0  0  0  0
 12 45  1  0  0  0  0
 13 14  1  0  0  0  0
 13 33  1  0  0  0  0
 13 34  1  0  0  0  0
 14 15  1  0  0  0  0
 14 16  1  0  0  0  0
 14 35  1  0  0  0  0
 15 36  1  0  0  0  0
 15 37  1  0  0  0  0
 15 38  1  0  0  0  0
 16 17  1  0  0  0  0
 17 18  1  0  0  0  0
 17 19  1  0  0  0  0
 17 39  1  0  0  0  0
 18 40  1  0  0  0  0
 18 41  1  0  0  0  0
 18 42  1  0  0  0  0
 19 43  1  0  0  0  0
 19 44  1  0  0  0  0
 20 21  1  0  0  0  0
M  CHG  1   8  -1
M  CHG  1  12   1
M  END
> <s_m_source_file>
AV-unprocessed.smi

> <i_m_source_file_index>
2061

> <i_lp_mmshare_version>
43012

> <i_f3d_flags>
0

> <s_epik_input>
W0NIM11jMVtjSF1jKG5vMSlbTkhdQyg9TylbTkhdW0NIMl1bQ0BIXShbQ0gzXSlOMltDSDJdW0NAQEhdKFtDSDNdKU9bQ0BASF0oW0NIM10pW0NIMl0y

> <s_epik_cmdline>
J2VwaWtfcHl0aG9uJywgJy1waCcsICc3LjAnLCAnLXRuJywgJzgnLCAnLW1hJywgJzIwMCcsICctbWV0YWxfYmluZGluZycsICctaW1hZScsICc8aW5maWxlLm1hZT4nLCAnLW9tYWUnLCAnPG91dGZpbGUubWFlPic=

> <r_epik_Ionization_Penalty>
6.8073

> <r_epik_Ionization_Penalty_Charging>
6.80729

> <r_epik_Ionization_Penalty_Neutral>
5.65391e-06

> <r_epik_State_Penalty>
7.47323

> <r_epik_Charging_Adjusted_Penalty>
14.2805

> <i_epik_Tot_Q>
0

> <i_epik_Tot_abs_Q>
2

> <r_epik_Metal_State_Penalty>
3.40035

> <b_epik_Metal_Only>
1

> <s_lp_Force_Field>
OPLS_2005

> <r_lp_Energy>
16.7719

> <b_lp_Chiralities_Consistent>
1

> <s_lp_Variant>
AV-unprocessed.smi:2061-33

> <Gold.Version>
5.8.1

> <Gold.Id.Protein>
6NUR|6NUR_protein|mol2

> <Gold.PLP.Fitness>
43.3126

> <Gold.PLP.PLP>
-39.0883

> <Gold.PLP.part.hbond>
-2.0000

> <Gold.PLP.part.metal>
0.0000

> <Gold.PLP.part.buried>
-2.3995

> <Gold.PLP.part.nonpolar>
-33.7068

> <Gold.PLP.part.repulsive>
0.3667

> <Gold.PLP.ligand.clash>
0.4688

> <Gold.PLP.ligand.torsion>
2.2749

> <Gold.PLP.Chemscore.Hbond>
3.0000

> <Gold.PLP.Chemscore.CHOScore>
0.0000

> <Gold.PLP.Chemscore.Metal>
0.0000

> <Gold.Chemscore.Hbonds>
donor molecule, donor type, donor heavy atom, donor atom, acceptor molecule, acceptor atom, score
      P1  H  7989  7998       L1     7  0.46
      P1  H  7997  8008       L1     8  2.00

> <Gold.PLP.Chemscore.Internal.Correction>
0.2428

> <Gold.Rescore>
     Score         DG    S(hbond)    S(metal)    S(lipo)     H(rot)  DE(clash)    DE(int)     intcor
     16.03     -20.20       1.70        0.00     111.45       1.56       0.74       3.44       ----

> <Gold.Chemscore.Fitness>
16.0294

> <Gold.Chemscore.DG>
-20.2034

> <Gold.Chemscore.ZeroCoef>
-5.4800

> <Gold.Chemscore.Hbond>
1.6961

> <Gold.Chemscore.Metal>
0.0000

> <Gold.Chemscore.Lipo>
111.4463

> <Gold.Chemscore.Internal_Hbond>
0.0000

> <Gold.Chemscore.DEClash>
0.7387

> <Gold.Chemscore.DEInternal>
3.4353

> <Gold.Chemscore.Rot>
1.5550

> <Gold.Chemscore.Internal.Correction>
   9.000000E+99

> <Gold.Chemscore.Hbonds>
donor molecule, donor type, donor heavy atom, donor atom, acceptor molecule, acceptor atom, score
      P1  H  7989  7998       L1     7  0.45
      P1  H  7997  8008       L1     8  0.34

> <Gold.Chemscore.Hbond.Weighted>
-5.6650

> <Gold.Chemscore.Metal.Weighted>
-0.0000

> <Gold.Chemscore.Lipo.Weighted>
-13.0392

> <Gold.Chemscore.Internal_Hbond.Weighted>
0.0000

> <Gold.Chemscore.DEClash.Weighted>
0.7387

> <Gold.Chemscore.DEInternal.Weighted>
3.4353

> <Gold.Chemscore.Rot.Weighted>
3.9809

> <Gold.Chemscore.Internal.Correction.Weighted>
   9.000000E+99

> <Gold.Protein.RotatedTorsions>
[ 6907 6896 6895 6894 ] final   96.21 input  -60.11 | X-H torsion
[ 7974 7965 7964 7962 ] final -160.19 input  175.53 | X-H torsion
[ 8008 7997 7996 7995 ] final  -61.35 input   59.86 | X-H torsion
[ 10167 10162 10161 10158 ] final   88.04 input  -65.29 | X-H torsion
[ 10718 10713 10712 10709 ] final    1.52 input   66.30 | X-H torsion
[ 10763 10752 10751 10750 ] final  105.67 input  -60.55 | X-H torsion
[ 11005 11000 10999 10996 ] final  -20.38 input  -57.11 | X-H torsion

> <Gold.Protein.ActiveResidues>
 VAL166  LYS551  ARG553  GLY616  TRP617  ASP618  TYR619  PRO620  LYS621  CYS622 
 ASP623  PHE694  ASN695  SER759  ASP760  ASP761  ALA762  ILE779  LEU786  VAL792 
 PHE793  MET794  SER795  GLU796  ALA797  LYS798  CYS799  TRP800  GLU811  SER814 

> <Gold.Protein.RotatedAtoms>
  152.5437  134.0922  159.8281 H   0  0  0  0  0  0  0  0  0  0  0  0  # atno 6907 bound_to 6896
  151.1010  133.5236  159.2617 H   0  0  0  0  0  0  0  0  0  0  0  0  # atno 6908 bound_to 6896
  151.1991  135.0444  159.8919 H   0  0  0  0  0  0  0  0  0  0  0  0  # atno 6909 bound_to 6896
  144.7436  140.3578  143.6102 H   0  0  0  0  0  0  0  0  0  0  0  0  # atno 7974 bound_to 7965
  154.4443  140.1019  156.6417 H   0  0  0  0  0  0  0  0  0  0  0  0  # atno 8008 bound_to 7997
  155.5494  140.3485  155.4446 H   0  0  0  0  0  0  0  0  0  0  0  0  # atno 8009 bound_to 7997
  156.0539  140.1310  157.0007 H   0  0  0  0  0  0  0  0  0  0  0  0  # atno 8010 bound_to 7997
  139.8713  144.6491  150.8946 H   0  0  0  0  0  0  0  0  0  0  0  0  # atno 10167 bound_to 10162
  156.8493  130.5548  149.5671 H   0  0  0  0  0  0  0  0  0  0  0  0  # atno 10718 bound_to 10713
  153.3825  135.3902  155.1867 H   0  0  0  0  0  0  0  0  0  0  0  0  # atno 10763 bound_to 10752
  154.8709  135.3729  154.4839 H   0  0  0  0  0  0  0  0  0  0  0  0  # atno 10764 bound_to 10752
  153.5317  135.7085  153.5741 H   0  0  0  0  0  0  0  0  0  0  0  0  # atno 10765 bound_to 10752
  140.8458  133.7892  155.9911 H   0  0  0  0  0  0  0  0  0  0  0  0  # atno 11005 bound_to 11000
  145.7209  139.1709  143.2485 LP  0  0  0  0  0  0  0  0  0  0  0  0  # atno 17320 bound_to 7965
  146.1278  140.7226  142.9427 LP  0  0  0  0  0  0  0  0  0  0  0  0  # atno 17321 bound_to 7965
  140.7760  143.3662  151.1735 LP  0  0  0  0  0  0  0  0  0  0  0  0  # atno 17342 bound_to 10162
  139.7281  143.9115  152.3010 LP  0  0  0  0  0  0  0  0  0  0  0  0  # atno 17343 bound_to 10162
  156.0837  130.5841  150.9609 LP  0  0  0  0  0  0  0  0  0  0  0  0  # atno 17370 bound_to 10713
  157.6312  131.0921  150.8438 LP  0  0  0  0  0  0  0  0  0  0  0  0  # atno 17371 bound_to 10713
  140.8844  134.2571  157.5127 LP  0  0  0  0  0  0  0  0  0  0  0  0  # atno 17394 bound_to 11000
  139.8703  134.9631  156.4451 LP  0  0  0  0  0  0  0  0  0  0  0  0  # atno 17395 bound_to 11000

$$$$
