AV-unprocessed.smi:408|AV-procd|sdf|2503|dock6
  -GOLD-   2262022453D 1   1.00000     0.00000
 Structure written by MMmdl.
 41 42  0  0  0  0  0  0  0  0  1 V2000
  151.6815  145.4523  160.0880 C   0  0  0  0  0  0  0  0  0  0  0  0
  151.8603  144.2177  159.1887 C   0  0  0  0  0  0  0  0  0  0  0  0
  152.5920  144.6011  157.8932 C   0  0  0  0  0  0  0  0  0  0  0  0
  150.5227  143.5184  158.8712 C   0  0  0  0  0  0  0  0  0  0  0  0
  150.6420  142.3554  157.8681 C   0  0  0  0  0  0  0  0  0  0  0  0
  151.0401  141.1183  158.5300 N   0  0  0  0  0  0  0  0  0  0  0  0
  150.9480  139.8914  157.9934 C   0  0  0  0  0  0  0  0  0  0  0  0
  150.5139  139.6847  156.8590 O   0  0  0  0  0  0  0  0  0  0  0  0
  151.4005  138.7271  158.8825 C   0  0  0  0  0  0  0  0  0  0  0  0
  150.4285  137.5829  158.8230 C   0  0  0  0  0  0  0  0  0  0  0  0
  150.0583  136.8687  157.7092 C   0  0  0  0  0  0  0  0  0  0  0  0
  148.9013  135.6205  158.0877 S   0  0  0  0  0  0  0  0  0  0  0  0
  148.9496  136.1352  159.7668 C   0  0  0  0  0  0  0  0  0  0  0  0
  148.1712  135.4938  160.7687 N   0  0  0  0  0  0  0  0  0  0  0  0
  147.4528  136.0118  161.7867 C   0  0  0  0  0  0  0  0  0  0  0  0
  147.3944  137.2305  161.9415 O   0  0  0  0  0  0  0  0  0  0  0  0
  146.7205  135.0825  162.7020 C   0  0  0  0  0  0  0  0  0  0  0  0
  145.9045  133.9739  162.0640 C   0  0  0  0  0  0  0  0  0  0  0  0
  145.2062  135.1461  162.7006 C   0  0  0  0  0  0  0  0  0  0  0  0
  149.8055  137.1368  159.9927 N   0  0  0  0  0  0  0  0  0  0  0  0
  151.0104  146.1809  159.6323 H   0  0  0  0  0  0  0  0  0  0  0  0
  152.6362  145.9480  160.2662 H   0  0  0  0  0  0  0  0  0  0  0  0
  151.2738  145.1850  161.0624 H   0  0  0  0  0  0  0  0  0  0  0  0
  152.4956  143.5068  159.7190 H   0  0  0  0  0  0  0  0  0  0  0  0
  152.0083  145.3080  157.3026 H   0  0  0  0  0  0  0  0  0  0  0  0
  152.7804  143.7246  157.2726 H   0  0  0  0  0  0  0  0  0  0  0  0
  153.5565  145.0629  158.1069 H   0  0  0  0  0  0  0  0  0  0  0  0
  150.0658  143.1613  159.7953 H   0  0  0  0  0  0  0  0  0  0  0  0
  149.8332  144.2589  158.4630 H   0  0  0  0  0  0  0  0  0  0  0  0
  149.7010  142.2089  157.3351 H   0  0  0  0  0  0  0  0  0  0  0  0
  151.3956  142.5786  157.1136 H   0  0  0  0  0  0  0  0  0  0  0  0
  151.4042  141.2007  159.4684 H   0  0  0  0  0  0  0  0  0  0  0  0
  152.3934  138.3932  158.5770 H   0  0  0  0  0  0  0  0  0  0  0  0
  151.5006  139.0935  159.9048 H   0  0  0  0  0  0  0  0  0  0  0  0
  150.3944  137.0022  156.6919 H   0  0  0  0  0  0  0  0  0  0  0  0
  148.1177  134.4895  160.6806 H   0  0  0  0  0  0  0  0  0  0  0  0
  147.2327  134.8116  163.6233 H   0  0  0  0  0  0  0  0  0  0  0  0
  145.8686  133.9058  160.9781 H   0  0  0  0  0  0  0  0  0  0  0  0
  145.8754  133.0194  162.5855 H   0  0  0  0  0  0  0  0  0  0  0  0
  144.7080  134.9944  163.6560 H   0  0  0  0  0  0  0  0  0  0  0  0
  144.7238  135.8631  162.0384 H   0  0  0  0  0  0  0  0  0  0  0  0
  1  2  1  0  0  0  0
  1 21  1  0  0  0  0
  1 22  1  0  0  0  0
  1 23  1  0  0  0  0
  2  3  1  0  0  0  0
  2  4  1  0  0  0  0
  2 24  1  0  0  0  0
  3 25  1  0  0  0  0
  3 26  1  0  0  0  0
  3 27  1  0  0  0  0
  4  5  1  0  0  0  0
  4 28  1  0  0  0  0
  4 29  1  0  0  0  0
  5  6  1  0  0  0  0
  5 30  1  0  0  0  0
  5 31  1  0  0  0  0
  6  7  1  0  0  0  0
  6 32  1  0  0  0  0
  7  8  2  0  0  0  0
  7  9  1  0  0  0  0
  9 10  1  0  0  0  0
  9 33  1  0  0  0  0
  9 34  1  0  0  0  0
 10 20  1  0  0  0  0
 10 11  2  0  0  0  0
 11 12  1  0  0  0  0
 11 35  1  0  0  0  0
 12 13  1  0  0  0  0
 13 14  1  0  0  0  0
 13 20  2  0  0  0  0
 14 15  1  0  0  0  0
 14 36  1  0  0  0  0
 15 16  2  0  0  0  0
 15 17  1  0  0  0  0
 17 19  1  0  0  0  0
 17 18  1  0  0  0  0
 17 37  1  0  0  0  0
 18 19  1  0  0  0  0
 18 38  1  0  0  0  0
 18 39  1  0  0  0  0
 19 40  1  0  0  0  0
 19 41  1  0  0  0  0
M  END
> <s_m_source_file>
AV-unprocessed.smi

> <i_m_source_file_index>
408

> <i_lp_mmshare_version>
43012

> <i_f3d_flags>
0

> <s_epik_input>
W0NIM11bQ0hdKFtDSDNdKVtDSDJdW0NIMl1bTkhdQyg9TylbQ0gyXWMxW2NIXXNjKG4xKVtOSF1DKD1PKVtDSF0yW0NIMl1bQ0gyXTI=

> <s_epik_cmdline>
J2VwaWtfcHl0aG9uJywgJy1waCcsICc3LjAnLCAnLXRuJywgJzgnLCAnLW1hJywgJzIwMCcsICctbWV0YWxfYmluZGluZycsICctaW1hZScsICc8aW5maWxlLm1hZT4nLCAnLW9tYWUnLCAnPG91dGZpbGUubWFlPic=

> <r_lp_tautomer_probability>
1

> <r_epik_Ionization_Penalty>
0.000153743

> <r_epik_Ionization_Penalty_Charging>
0

> <r_epik_Ionization_Penalty_Neutral>
0.000153743

> <r_epik_State_Penalty>
-0

> <r_epik_Charging_Adjusted_Penalty>
0

> <i_epik_Tot_Q>
0

> <i_epik_Tot_abs_Q>
0

> <r_epik_Metal_State_Penalty>
0.0946566

> <b_epik_Metal_Only>
0

> <s_lp_Force_Field>
OPLS_2005

> <r_lp_Energy>
15.0159

> <b_lp_Chiralities_Consistent>
1

> <s_lp_Variant>
AV-unprocessed.smi:408-1

> <Gold.Version>
5.8.1

> <Gold.Id.Protein>
6NUR|6NUR_protein|mol2

> <Gold.PLP.Fitness>
44.2465

> <Gold.PLP.PLP>
-41.2556

> <Gold.PLP.part.hbond>
-3.0000

> <Gold.PLP.part.metal>
0.0000

> <Gold.PLP.part.buried>
-6.6571

> <Gold.PLP.part.nonpolar>
-32.7641

> <Gold.PLP.part.repulsive>
0.2851

> <Gold.PLP.ligand.clash>
0.0000

> <Gold.PLP.ligand.torsion>
0.9821

> <Gold.PLP.Chemscore.Hbond>
1.6160

> <Gold.PLP.Chemscore.CHOScore>
0.0000

> <Gold.PLP.Chemscore.Metal>
0.0000

> <Gold.Chemscore.Hbonds>
donor molecule, donor type, donor heavy atom, donor atom, acceptor molecule, acceptor atom, score
      P1  H  6931  6943       L1    16  0.88
      P1  H  6934  6947       L1    16  0.67

> <Gold.PLP.Chemscore.Internal.Correction>
0.1070

> <Gold.Rescore>
     Score         DG    S(hbond)    S(metal)    S(lipo)     H(rot)  DE(clash)    DE(int)     intcor
     14.91     -17.05       1.74        0.00      92.71       1.99       0.13       2.02       ----

> <Gold.Chemscore.Fitness>
14.9097

> <Gold.Chemscore.DG>
-17.0544

> <Gold.Chemscore.ZeroCoef>
-5.4800

> <Gold.Chemscore.Hbond>
1.7429

> <Gold.Chemscore.Metal>
0.0000

> <Gold.Chemscore.Lipo>
92.7104

> <Gold.Chemscore.Internal_Hbond>
0.0000

> <Gold.Chemscore.DEClash>
0.1267

> <Gold.Chemscore.DEInternal>
2.0181

> <Gold.Chemscore.Rot>
1.9899

> <Gold.Chemscore.Internal.Correction>
   9.000000E+99

> <Gold.Chemscore.Hbonds>
donor molecule, donor type, donor heavy atom, donor atom, acceptor molecule, acceptor atom, score
      P1  H  6931  6943       L1    16  0.83
      P1  H  6934  6947       L1    16  0.64

> <Gold.Chemscore.Hbond.Weighted>
-5.8214

> <Gold.Chemscore.Metal.Weighted>
-0.0000

> <Gold.Chemscore.Lipo.Weighted>
-10.8471

> <Gold.Chemscore.Internal_Hbond.Weighted>
0.0000

> <Gold.Chemscore.DEClash.Weighted>
0.1267

> <Gold.Chemscore.DEInternal.Weighted>
2.0181

> <Gold.Chemscore.Rot.Weighted>
5.0941

> <Gold.Chemscore.Internal.Correction.Weighted>
   9.000000E+99

> <Gold.Protein.RotatedTorsions>
[ 6907 6896 6895 6894 ] final  -55.83 input  -60.11 | X-H torsion
[ 7974 7965 7964 7962 ] final    4.48 input  175.53 | X-H torsion
[ 8008 7997 7996 7995 ] final  -56.38 input   59.86 | X-H torsion
[ 10167 10162 10161 10158 ] final  171.35 input  -65.29 | X-H torsion
[ 10718 10713 10712 10709 ] final   83.97 input   66.30 | X-H torsion
[ 10763 10752 10751 10750 ] final  -90.31 input  -60.55 | X-H torsion
[ 11005 11000 10999 10996 ] final  169.62 input  -57.11 | X-H torsion

> <Gold.Protein.ActiveResidues>
 VAL166  LYS551  ARG553  GLY616  TRP617  ASP618  TYR619  PRO620  LYS621  CYS622 
 ASP623  PHE694  ASN695  SER759  ASP760  ASP761  ALA762  ILE779  LEU786  VAL792 
 PHE793  MET794  SER795  GLU796  ALA797  LYS798  CYS799  TRP800  GLU811  SER814 

> <Gold.Protein.RotatedAtoms>
  150.8219  134.7430  159.6779 H   0  0  0  0  0  0  0  0  0  0  0  0  # atno 6907 bound_to 6896
  152.4333  134.5731  159.9936 H   0  0  0  0  0  0  0  0  0  0  0  0  # atno 6908 bound_to 6896
  151.5913  133.3329  159.3064 H   0  0  0  0  0  0  0  0  0  0  0  0  # atno 6909 bound_to 6896
  146.2444  140.0527  142.8374 H   0  0  0  0  0  0  0  0  0  0  0  0  # atno 7974 bound_to 7965
  154.4228  140.1131  156.5627 H   0  0  0  0  0  0  0  0  0  0  0  0  # atno 8008 bound_to 7997
  155.6294  140.3495  155.4659 H   0  0  0  0  0  0  0  0  0  0  0  0  # atno 8009 bound_to 7997
  155.9960  140.1189  157.0582 H   0  0  0  0  0  0  0  0  0  0  0  0  # atno 8010 bound_to 7997
  139.5044  144.3496  151.9936 H   0  0  0  0  0  0  0  0  0  0  0  0  # atno 10167 bound_to 10162
  157.6889  131.0113  150.2603 H   0  0  0  0  0  0  0  0  0  0  0  0  # atno 10718 bound_to 10713
  154.6644  135.5309  153.8058 H   0  0  0  0  0  0  0  0  0  0  0  0  # atno 10763 bound_to 10752
  153.0462  135.6513  154.0822 H   0  0  0  0  0  0  0  0  0  0  0  0  # atno 10764 bound_to 10752
  154.0728  135.2953  155.3285 H   0  0  0  0  0  0  0  0  0  0  0  0  # atno 10765 bound_to 10752
  140.2997  134.7605  157.3906 H   0  0  0  0  0  0  0  0  0  0  0  0  # atno 11005 bound_to 11000
  145.0969  140.9321  143.4735 LP  0  0  0  0  0  0  0  0  0  0  0  0  # atno 17320 bound_to 7965
  145.0712  139.3030  143.5831 LP  0  0  0  0  0  0  0  0  0  0  0  0  # atno 17321 bound_to 7965
  140.2933  144.3730  150.6082 LP  0  0  0  0  0  0  0  0  0  0  0  0  # atno 17342 bound_to 10162
  140.5930  143.2167  151.7217 LP  0  0  0  0  0  0  0  0  0  0  0  0  # atno 17343 bound_to 10162
  156.3183  130.3782  149.7598 LP  0  0  0  0  0  0  0  0  0  0  0  0  # atno 17370 bound_to 10713
  156.5176  130.8200  151.3192 LP  0  0  0  0  0  0  0  0  0  0  0  0  # atno 17371 bound_to 10713
  140.1120  134.5333  155.8258 LP  0  0  0  0  0  0  0  0  0  0  0  0  # atno 17394 bound_to 11000
  141.2130  133.6727  156.6707 LP  0  0  0  0  0  0  0  0  0  0  0  0  # atno 17395 bound_to 11000

$$$$
