AV-unprocessed.smi:1|AV-procd|sdf|14|dock2
  -GOLD-   2262015103D 1   1.00000     0.00000
 Structure written by MMmdl.
 57 62  0  0  0  0  0  0  0  0  1 V2000
  150.4269  128.8390  154.2450 O   0  0  0  0  0  0  0  0  0  0  0  0
  149.6019  129.6725  153.8608 C   0  0  0  0  0  0  0  0  0  0  0  0
  149.5705  131.0403  154.0989 N   0  0  0  0  0  0  0  0  0  0  0  0
  150.2207  131.5416  155.1053 C   0  0  0  0  0  0  0  0  0  0  0  0
  151.0137  130.9609  156.1033 N   0  0  0  0  0  0  0  0  0  0  0  0
  151.6416  131.6433  157.1559 C   0  0  0  0  0  0  0  0  0  0  0  0
  151.5797  132.9329  157.3510 N   0  0  0  0  0  0  0  0  0  0  0  0
  150.8133  133.5640  156.3796 C   0  0  0  0  0  0  0  0  0  0  0  0
  150.1500  133.0048  155.3078 C   0  0  0  0  0  0  0  0  0  0  0  0
  149.4936  133.9808  154.5657 N   0  0  0  0  0  0  0  0  0  0  0  0
  149.7931  135.0967  155.2242 C   0  0  0  0  0  0  0  0  0  0  0  0
  150.5733  134.9369  156.3090 N   0  0  0  0  0  0  0  0  0  0  0  0
  151.0571  136.0335  157.2072 C   0  0  1  0  0  0  0  0  0  0  0  0
  151.6111  137.0403  156.4186 O   0  0  0  0  0  0  0  0  0  0  0  0
  151.3557  138.3007  157.0172 C   0  0  1  0  0  0  0  0  0  0  0  0
  151.4834  139.4283  155.9852 C   0  0  0  0  0  0  0  0  0  0  0  0
  151.4304  140.6810  156.6492 O   0  0  0  0  0  0  0  0  0  0  0  0
  152.1851  140.8988  157.7444 C   0  0  0  0  0  0  0  0  0  0  0  0
  153.0818  140.1399  158.1180 O   0  0  0  0  0  0  0  0  0  0  0  0
  151.8245  142.1592  158.4554 C   0  0  0  0  0  0  0  0  0  0  0  0
  152.6423  142.6145  159.5160 C   0  0  0  0  0  0  0  0  0  0  0  0
  152.3288  143.8023  160.2049 C   0  0  0  0  0  0  0  0  0  0  0  0
  151.1918  144.5480  159.8433 C   0  0  0  0  0  0  0  0  0  0  0  0
  150.3690  144.1046  158.7915 C   0  0  0  0  0  0  0  0  0  0  0  0
  150.6824  142.9182  158.0999 C   0  0  0  0  0  0  0  0  0  0  0  0
  149.9675  138.1394  157.6391 C   0  0  1  0  0  0  0  0  0  0  0  0
  148.9352  138.3816  156.6990 O   0  0  0  0  0  0  0  0  0  0  0  0
  147.7244  137.2665  156.9679 S   0  0  0  0  0  0  0  0  0  0  0  0
  146.7853  137.8397  157.9442 O   0  0  0  0  0  0  0  0  0  0  0  0
  147.2830  136.7244  155.6742 O   0  0  0  0  0  0  0  0  0  0  0  0
  148.6408  136.1099  157.7510 O   0  0  0  0  0  0  0  0  0  0  0  0
  149.9204  136.6575  158.0438 C   0  0  1  0  0  0  0  0  0  0  0  0
  148.4665  129.1940  153.0161 C   0  0  0  0  0  0  0  0  0  0  0  0
  147.2843  129.9587  152.9216 C   0  0  0  0  0  0  0  0  0  0  0  0
  146.2154  129.5108  152.1211 C   0  0  0  0  0  0  0  0  0  0  0  0
  146.3259  128.2994  151.4111 C   0  0  0  0  0  0  0  0  0  0  0  0
  147.5060  127.5358  151.5006 C   0  0  0  0  0  0  0  0  0  0  0  0
  148.5757  127.9821  152.3012 C   0  0  0  0  0  0  0  0  0  0  0  0
  152.2081  130.9975  157.8284 H   0  0  0  0  0  0  0  0  0  0  0  0
  149.4375  136.0650  154.9041 H   0  0  0  0  0  0  0  0  0  0  0  0
  151.8294  135.5712  157.8234 H   0  0  0  0  0  0  0  0  0  0  0  0
  152.0914  138.4395  157.8114 H   0  0  0  0  0  0  0  0  0  0  0  0
  152.4331  139.3461  155.4556 H   0  0  0  0  0  0  0  0  0  0  0  0
  150.6894  139.3477  155.2412 H   0  0  0  0  0  0  0  0  0  0  0  0
  153.5207  142.0588  159.8115 H   0  0  0  0  0  0  0  0  0  0  0  0
  152.9620  144.1410  161.0118 H   0  0  0  0  0  0  0  0  0  0  0  0
  150.9514  145.4586  160.3722 H   0  0  0  0  0  0  0  0  0  0  0  0
  149.4953  144.6755  158.5140 H   0  0  0  0  0  0  0  0  0  0  0  0
  150.0293  142.6063  157.2980 H   0  0  0  0  0  0  0  0  0  0  0  0
  149.8234  138.8040  158.4918 H   0  0  0  0  0  0  0  0  0  0  0  0
  150.1557  136.5287  159.1007 H   0  0  0  0  0  0  0  0  0  0  0  0
  147.1934  130.8905  153.4613 H   0  0  0  0  0  0  0  0  0  0  0  0
  145.3113  130.0975  152.0503 H   0  0  0  0  0  0  0  0  0  0  0  0
  145.5059  127.9574  150.7971 H   0  0  0  0  0  0  0  0  0  0  0  0
  147.5913  126.6078  150.9547 H   0  0  0  0  0  0  0  0  0  0  0  0
  149.4785  127.3917  152.3634 H   0  0  0  0  0  0  0  0  0  0  0  0
  151.1393  129.9598  156.0637 H   0  0  0  0  0  0  0  0  0  0  0  0
  1  2  2  0  0  0  0
  2  3  1  0  0  0  0
  2 33  1  0  0  0  0
  3  4  2  0  0  0  0
  4  9  1  0  0  0  0
  4  5  1  0  0  0  0
  5  6  1  0  0  0  0
  5 57  1  0  0  0  0
  6  7  2  0  0  0  0
  6 39  1  0  0  0  0
  7  8  1  0  0  0  0
  8 12  1  0  0  0  0
  8  9  2  0  0  0  0
  9 10  1  0  0  0  0
 10 11  2  0  0  0  0
 11 12  1  0  0  0  0
 11 40  1  0  0  0  0
 12 13  1  0  0  0  0
 13 32  1  0  0  0  0
 13 14  1  0  0  0  0
 13 41  1  0  0  0  0
 14 15  1  0  0  0  0
 15 16  1  0  0  0  0
 15 26  1  0  0  0  0
 15 42  1  0  0  0  0
 16 17  1  0  0  0  0
 16 43  1  0  0  0  0
 16 44  1  0  0  0  0
 17 18  1  0  0  0  0
 18 19  2  0  0  0  0
 18 20  1  0  0  0  0
 20 25  1  0  0  0  0
 20 21  2  0  0  0  0
 21 22  1  0  0  0  0
 21 45  1  0  0  0  0
 22 23  2  0  0  0  0
 22 46  1  0  0  0  0
 23 24  1  0  0  0  0
 23 47  1  0  0  0  0
 24 25  2  0  0  0  0
 24 48  1  0  0  0  0
 25 49  1  0  0  0  0
 26 32  1  0  0  0  0
 26 27  1  0  0  0  0
 26 50  1  0  0  0  0
 27 28  1  0  0  0  0
 28 29  2  0  0  0  0
 28 30  2  0  0  0  0
 28 31  1  0  0  0  0
 31 32  1  0  0  0  0
 32 51  1  0  0  0  0
 33 38  1  0  0  0  0
 33 34  2  0  0  0  0
 34 35  1  0  0  0  0
 34 52  1  0  0  0  0
 35 36  2  0  0  0  0
 35 53  1  0  0  0  0
 36 37  1  0  0  0  0
 36 54  1  0  0  0  0
 37 38  2  0  0  0  0
 37 55  1  0  0  0  0
 38 56  1  0  0  0  0
M  END
> <s_m_source_file>
AV-unprocessed.smi

> <i_m_source_file_index>
1

> <i_lp_mmshare_version>
43012

> <i_f3d_flags>
0

> <s_epik_input>
W2NIXTFbY0hdW2NIXVtjSF1bY0hdYzFDKD1PKVtOSF1jKG5bY0hdbjIpYyhjMjMpbltjSF1uM1tDQEBIXShbQ0BIXShbQ0BIXTQ1KU9TKE81KSg9Tyk9TylPW0NASF00W0NIMl1PQyg9TyljNltjSF1bY0hdW2NIXVtjSF1bY0hdNg==

> <s_epik_cmdline>
J2VwaWtfcHl0aG9uJywgJy1waCcsICc3LjAnLCAnLXRuJywgJzgnLCAnLW1hJywgJzIwMCcsICctbWV0YWxfYmluZGluZycsICctaW1hZScsICc8aW5maWxlLm1hZT4nLCAnLW9tYWUnLCAnPG91dGZpbGUubWFlPic=

> <r_epik_Ionization_Penalty>
0.122545

> <r_epik_Ionization_Penalty_Charging>
0.122545

> <r_epik_Ionization_Penalty_Neutral>
7.8935e-16

> <r_epik_State_Penalty>
2.69178

> <r_epik_Charging_Adjusted_Penalty>
2.81433

> <i_epik_Tot_Q>
0

> <i_epik_Tot_abs_Q>
0

> <r_epik_Metal_State_Penalty>
3.02665

> <b_epik_Metal_Only>
0

> <s_epik_Chemistry_Notes>
This compound has an ester and may undergo hydrolysis at high or low pH. This compound contains an acetal/aminal-like group ( X-CH(R)-Y where X, Y are N, S, or O) that may be acid/base labile, releasing an aldehyde.

> <s_lp_Force_Field>
OPLS_2005

> <r_lp_Energy>
60.6373

> <b_lp_Chiralities_Consistent>
1

> <s_lp_Variant>
AV-unprocessed.smi:1-14

> <Gold.Version>
5.8.1

> <Gold.Id.Protein>
6NUR|6NUR_protein|mol2

> <Gold.PLP.Fitness>
58.5117

> <Gold.PLP.PLP>
-53.8013

> <Gold.PLP.part.hbond>
-2.0000

> <Gold.PLP.part.metal>
0.0000

> <Gold.PLP.part.buried>
-8.3028

> <Gold.PLP.part.nonpolar>
-44.2216

> <Gold.PLP.part.repulsive>
0.3629

> <Gold.PLP.ligand.clash>
0.0000

> <Gold.PLP.ligand.torsion>
0.7016

> <Gold.PLP.Chemscore.Hbond>
1.8960

> <Gold.PLP.Chemscore.CHOScore>
0.0000

> <Gold.PLP.Chemscore.Metal>
0.0000

> <Gold.Chemscore.Hbonds>
donor molecule, donor type, donor heavy atom, donor atom, acceptor molecule, acceptor atom, score
      P1  H  6896  6908       L1     7  0.88
      P1  H  7997  8009       L1    19  1.00

> <Gold.PLP.Chemscore.Internal.Correction>
0.4255

> <Gold.Rescore>
     Score         DG    S(hbond)    S(metal)    S(lipo)     H(rot)  DE(clash)    DE(int)     intcor
     16.62     -21.06       1.63        0.00     133.32       2.13       0.20       4.24       ----

> <Gold.Chemscore.Fitness>
16.6205

> <Gold.Chemscore.DG>
-21.0618

> <Gold.Chemscore.ZeroCoef>
-5.4800

> <Gold.Chemscore.Hbond>
1.6302

> <Gold.Chemscore.Metal>
0.0000

> <Gold.Chemscore.Lipo>
133.3186

> <Gold.Chemscore.Internal_Hbond>
0.0000

> <Gold.Chemscore.DEClash>
0.2034

> <Gold.Chemscore.DEInternal>
4.2379

> <Gold.Chemscore.Rot>
2.1333

> <Gold.Chemscore.Internal.Correction>
   9.000000E+99

> <Gold.Chemscore.Hbonds>
donor molecule, donor type, donor heavy atom, donor atom, acceptor molecule, acceptor atom, score
      P1  H  6896  6908       L1     7  0.67
      P1  H  7997  8009       L1    19  0.83

> <Gold.Chemscore.Hbond.Weighted>
-5.4449

> <Gold.Chemscore.Metal.Weighted>
-0.0000

> <Gold.Chemscore.Lipo.Weighted>
-15.5983

> <Gold.Chemscore.Internal_Hbond.Weighted>
0.0000

> <Gold.Chemscore.DEClash.Weighted>
0.2034

> <Gold.Chemscore.DEInternal.Weighted>
4.2379

> <Gold.Chemscore.Rot.Weighted>
5.4614

> <Gold.Chemscore.Internal.Correction.Weighted>
   9.000000E+99

> <Gold.Protein.RotatedTorsions>
[ 6907 6896 6895 6894 ] final   72.18 input  -60.11 | X-H torsion
[ 7974 7965 7964 7962 ] final   59.86 input  175.53 | X-H torsion
[ 8008 7997 7996 7995 ] final  160.02 input   59.86 | X-H torsion
[ 10167 10162 10161 10158 ] final  156.86 input  -65.29 | X-H torsion
[ 10718 10713 10712 10709 ] final -122.27 input   66.30 | X-H torsion
[ 10763 10752 10751 10750 ] final   -4.51 input  -60.55 | X-H torsion
[ 11005 11000 10999 10996 ] final  143.39 input  -57.11 | X-H torsion

> <Gold.Protein.ActiveResidues>
 VAL166  LYS551  ARG553  GLY616  TRP617  ASP618  TYR619  PRO620  LYS621  CYS622 
 ASP623  PHE694  ASN695  SER759  ASP760  ASP761  ALA762  ILE779  LEU786  VAL792 
 PHE793  MET794  SER795  GLU796  ALA797  LYS798  CYS799  TRP800  GLU811  SER814 

> <Gold.Protein.RotatedAtoms>
  152.4853  134.4609  159.9604 H   0  0  0  0  0  0  0  0  0  0  0  0  # atno 6907 bound_to 6896
  151.4607  133.3587  159.2816 H   0  0  0  0  0  0  0  0  0  0  0  0  # atno 6908 bound_to 6896
  150.8958  134.8392  159.7386 H   0  0  0  0  0  0  0  0  0  0  0  0  # atno 6909 bound_to 6896
  145.9025  139.3592  143.0584 H   0  0  0  0  0  0  0  0  0  0  0  0  # atno 7974 bound_to 7965
  156.2200  140.1815  156.7499 H   0  0  0  0  0  0  0  0  0  0  0  0  # atno 8008 bound_to 7997
  154.5851  140.0660  156.9188 H   0  0  0  0  0  0  0  0  0  0  0  0  # atno 8009 bound_to 7997
  155.2434  140.3323  155.4292 H   0  0  0  0  0  0  0  0  0  0  0  0  # atno 8010 bound_to 7997
  139.4822  144.4971  151.8224 H   0  0  0  0  0  0  0  0  0  0  0  0  # atno 10167 bound_to 10162
  156.1405  130.6462  150.9763 H   0  0  0  0  0  0  0  0  0  0  0  0  # atno 10718 bound_to 10713
  153.3859  135.7000  153.6531 H   0  0  0  0  0  0  0  0  0  0  0  0  # atno 10763 bound_to 10752
  153.5123  135.3629  155.2593 H   0  0  0  0  0  0  0  0  0  0  0  0  # atno 10764 bound_to 10752
  154.8697  135.4138  154.3166 H   0  0  0  0  0  0  0  0  0  0  0  0  # atno 10765 bound_to 10752
  140.0550  134.9235  157.1084 H   0  0  0  0  0  0  0  0  0  0  0  0  # atno 11005 bound_to 11000
  145.8774  140.9384  143.0619 LP  0  0  0  0  0  0  0  0  0  0  0  0  # atno 17320 bound_to 7965
  144.6737  140.0734  143.7472 LP  0  0  0  0  0  0  0  0  0  0  0  0  # atno 17321 bound_to 7965
  140.4460  144.1921  150.5894 LP  0  0  0  0  0  0  0  0  0  0  0  0  # atno 17342 bound_to 10162
  140.4634  143.2440  151.9189 LP  0  0  0  0  0  0  0  0  0  0  0  0  # atno 17343 bound_to 10162
  157.6571  131.0887  150.7923 LP  0  0  0  0  0  0  0  0  0  0  0  0  # atno 17370 bound_to 10713
  156.7998  130.4917  149.5371 LP  0  0  0  0  0  0  0  0  0  0  0  0  # atno 17371 bound_to 10713
  140.3858  134.2237  155.7168 LP  0  0  0  0  0  0  0  0  0  0  0  0  # atno 17394 bound_to 11000
  141.1948  133.8121  157.0743 LP  0  0  0  0  0  0  0  0  0  0  0  0  # atno 17395 bound_to 11000

$$$$
