AV-unprocessed.smi:100|AV-procd|sdf|910|dock10
  -GOLD-   2262017403D 1   1.00000     0.00000
 Structure written by MMmdl.
 31 33  0  0  0  0  0  0  0  0  1 V2000
  152.9891  139.6458  158.3963 N   0  0  0  0  0  0  0  0  0  0  0  0
  152.4744  139.8321  157.1730 C   0  0  0  0  0  0  0  0  0  0  0  0
  153.1905  139.4137  156.1030 N   0  0  0  0  0  0  0  0  0  0  0  0
  152.6996  139.5892  154.8714 C   0  0  0  0  0  0  0  0  0  0  0  0
  151.5421  140.1466  154.5038 N   0  0  0  0  0  0  0  0  0  0  0  0
  150.8217  140.5627  155.5863 C   0  0  0  0  0  0  0  0  0  0  0  0
  151.2167  140.4458  156.9473 C   0  0  0  0  0  0  0  0  0  0  0  0
  150.2370  140.9838  157.7718 N   0  0  0  0  0  0  0  0  0  0  0  0
  149.3163  141.3926  156.9397 C   0  0  0  0  0  0  0  0  0  0  0  0
  149.5875  141.1733  155.6059 N   0  0  0  0  0  0  0  0  0  0  0  0
  148.7575  141.5226  154.4161 C   0  0  1  0  0  0  0  0  0  0  0  0
  148.5809  140.3529  153.6759 O   0  0  0  0  0  0  0  0  0  0  0  0
  147.2312  140.2713  153.2399 C   0  0  1  0  0  0  0  0  0  0  0  0
  146.8482  138.8222  152.9029 C   0  0  0  0  0  0  0  0  0  0  0  0
  145.5847  138.7907  152.2750 O   0  0  0  0  0  0  0  0  0  0  0  0
  146.4620  140.8696  154.4184 C   0  0  1  0  0  0  0  0  0  0  0  0
  146.3429  139.9775  155.4042 F   0  0  0  0  0  0  0  0  0  0  0  0
  147.3685  142.0024  154.8725 C   0  0  2  0  0  0  0  0  0  0  0  0
  146.9949  143.2163  154.2519 O   0  0  0  0  0  0  0  0  0  0  0  0
  152.4738  139.9492  159.2101 H   0  0  0  0  0  0  0  0  0  0  0  0
  153.8882  139.1988  158.5016 H   0  0  0  0  0  0  0  0  0  0  0  0
  153.3227  139.2306  154.0655 H   0  0  0  0  0  0  0  0  0  0  0  0
  148.4076  141.8687  157.2785 H   0  0  0  0  0  0  0  0  0  0  0  0
  149.3340  142.2614  153.8570 H   0  0  0  0  0  0  0  0  0  0  0  0
  147.0976  140.9178  152.3700 H   0  0  0  0  0  0  0  0  0  0  0  0
  147.5992  138.3500  152.2685 H   0  0  0  0  0  0  0  0  0  0  0  0
  146.7747  138.2312  153.8163 H   0  0  0  0  0  0  0  0  0  0  0  0
  145.1473  139.6121  152.4385 H   0  0  0  0  0  0  0  0  0  0  0  0
  145.4537  141.1919  154.1551 H   0  0  0  0  0  0  0  0  0  0  0  0
  147.3324  142.1452  155.9541 H   0  0  0  0  0  0  0  0  0  0  0  0
  147.5983  143.8904  154.5256 H   0  0  0  0  0  0  0  0  0  0  0  0
  1  2  1  0  0  0  0
  1 20  1  0  0  0  0
  1 21  1  0  0  0  0
  2  7  1  0  0  0  0
  2  3  2  0  0  0  0
  3  4  1  0  0  0  0
  4  5  2  0  0  0  0
  4 22  1  0  0  0  0
  5  6  1  0  0  0  0
  6 10  1  0  0  0  0
  6  7  2  0  0  0  0
  7  8  1  0  0  0  0
  8  9  2  0  0  0  0
  9 10  1  0  0  0  0
  9 23  1  0  0  0  0
 10 11  1  0  0  0  0
 11 18  1  0  0  0  0
 11 12  1  0  0  0  0
 11 24  1  0  0  0  0
 12 13  1  0  0  0  0
 13 14  1  0  0  0  0
 13 16  1  0  0  0  0
 13 25  1  0  0  0  0
 14 15  1  0  0  0  0
 14 26  1  0  0  0  0
 14 27  1  0  0  0  0
 15 28  1  0  0  0  0
 16 17  1  0  0  0  0
 16 18  1  0  0  0  0
 16 29  1  0  0  0  0
 18 19  1  0  0  0  0
 18 30  1  0  0  0  0
 19 31  1  0  0  0  0
M  END
> <s_m_source_file>
AV-unprocessed.smi

> <i_m_source_file_index>
100

> <i_lp_mmshare_version>
43012

> <i_f3d_flags>
0

> <s_epik_input>
bjFbY0hdbmMoW05IMl0pYyhjMTIpbltjSF1uMltDQEBIXTNPW0NAQEhdKFtDSDJdW09IXSlbQ0BIXShGKVtDQEhdM1tPSF0=

> <s_epik_cmdline>
J2VwaWtfcHl0aG9uJywgJy1waCcsICc3LjAnLCAnLXRuJywgJzgnLCAnLW1hJywgJzIwMCcsICctbWV0YWxfYmluZGluZycsICctaW1hZScsICc8aW5maWxlLm1hZT4nLCAnLW9tYWUnLCAnPG91dGZpbGUubWFlPic=

> <r_lp_tautomer_probability>
1

> <r_epik_Ionization_Penalty>
0.000750324

> <r_epik_Ionization_Penalty_Charging>
0

> <r_epik_Ionization_Penalty_Neutral>
0.000750324

> <r_epik_State_Penalty>
-0

> <r_epik_Charging_Adjusted_Penalty>
0

> <i_epik_Tot_Q>
0

> <i_epik_Tot_abs_Q>
0

> <r_epik_Metal_State_Penalty>
-0

> <b_epik_Metal_Only>
0

> <s_epik_Chemistry_Notes>
This compound contains an acetal/aminal-like group ( X-CH(R)-Y where X, Y are N, S, or O) that may be acid/base labile, releasing an aldehyde.

> <s_lp_Force_Field>
OPLS_2005

> <r_lp_Energy>
27.3407

> <b_lp_Chiralities_Consistent>
1

> <s_lp_Variant>
AV-unprocessed.smi:100-14

> <Gold.Version>
5.8.1

> <Gold.Id.Protein>
6NUR|6NUR_protein|mol2

> <Gold.PLP.Fitness>
41.5366

> <Gold.PLP.PLP>
-30.1181

> <Gold.PLP.part.hbond>
-6.0000

> <Gold.PLP.part.metal>
0.0000

> <Gold.PLP.part.buried>
-3.0514

> <Gold.PLP.part.nonpolar>
-22.6731

> <Gold.PLP.part.repulsive>
2.3912

> <Gold.PLP.ligand.clash>
0.0000

> <Gold.PLP.ligand.torsion>
0.1669

> <Gold.PLP.Chemscore.Hbond>
3.9120

> <Gold.PLP.Chemscore.CHOScore>
0.0000

> <Gold.PLP.Chemscore.Metal>
0.0000

> <Gold.Chemscore.Hbonds>
donor molecule, donor type, donor heavy atom, donor atom, acceptor molecule, acceptor atom, score
      L1  H    15    28       P1 10175  0.94
      L1  H    19    31       P1  8028  0.75
      P1  H  7989  7998       L1     5  0.26
      P1  H  7997  8009       L1     3  0.45

> <Gold.PLP.Chemscore.Internal.Correction>
0.0163

> <Gold.Rescore>
     Score         DG    S(hbond)    S(metal)    S(lipo)     H(rot)  DE(clash)    DE(int)     intcor
      7.46      -8.92       2.43        0.00      29.75       3.19       1.41       0.04       ----

> <Gold.Chemscore.Fitness>
7.4631

> <Gold.Chemscore.DG>
-8.9150

> <Gold.Chemscore.ZeroCoef>
-5.4800

> <Gold.Chemscore.Hbond>
2.4315

> <Gold.Chemscore.Metal>
0.0000

> <Gold.Chemscore.Lipo>
29.7466

> <Gold.Chemscore.Internal_Hbond>
0.0000

> <Gold.Chemscore.DEClash>
1.4106

> <Gold.Chemscore.DEInternal>
0.0413

> <Gold.Chemscore.Rot>
3.1901

> <Gold.Chemscore.Internal.Correction>
   9.000000E+99

> <Gold.Chemscore.Hbonds>
donor molecule, donor type, donor heavy atom, donor atom, acceptor molecule, acceptor atom, score
      L1  H    15    28       P1 10175  0.91
      L1  H    19    31       P1  8028  0.09
      P1  H  7989  7998       L1     5  0.23
      P1  H  7997  8009       L1     3  0.03

> <Gold.Chemscore.Hbond.Weighted>
-8.1213

> <Gold.Chemscore.Metal.Weighted>
-0.0000

> <Gold.Chemscore.Lipo.Weighted>
-3.4804

> <Gold.Chemscore.Internal_Hbond.Weighted>
0.0000

> <Gold.Chemscore.DEClash.Weighted>
1.4106

> <Gold.Chemscore.DEInternal.Weighted>
0.0413

> <Gold.Chemscore.Rot.Weighted>
8.1667

> <Gold.Chemscore.Internal.Correction.Weighted>
   9.000000E+99

> <Gold.Protein.RotatedTorsions>
[ 6907 6896 6895 6894 ] final   56.08 input  -60.11 | X-H torsion
[ 7974 7965 7964 7962 ] final   78.74 input  175.53 | X-H torsion
[ 8008 7997 7996 7995 ] final -177.48 input   59.86 | X-H torsion
[ 10167 10162 10161 10158 ] final   84.74 input  -65.29 | X-H torsion
[ 10718 10713 10712 10709 ] final   63.92 input   66.30 | X-H torsion
[ 10763 10752 10751 10750 ] final -133.71 input  -60.55 | X-H torsion
[ 11005 11000 10999 10996 ] final -101.14 input  -57.11 | X-H torsion

> <Gold.Protein.ActiveResidues>
 VAL166  LYS551  ARG553  GLY616  TRP617  ASP618  TYR619  PRO620  LYS621  CYS622 
 ASP623  PHE694  ASN695  SER759  ASP760  ASP761  ALA762  ILE779  LEU786  VAL792 
 PHE793  MET794  SER795  GLU796  ALA797  LYS798  CYS799  TRP800  GLU811  SER814 

> <Gold.Protein.RotatedAtoms>
  152.3602  134.6883  160.0209 H   0  0  0  0  0  0  0  0  0  0  0  0  # atno 6907 bound_to 6896
  151.7209  133.3309  159.3323 H   0  0  0  0  0  0  0  0  0  0  0  0  # atno 6908 bound_to 6896
  150.7599  134.6383  159.6268 H   0  0  0  0  0  0  0  0  0  0  0  0  # atno 6909 bound_to 6896
  145.6732  139.2502  143.1856 H   0  0  0  0  0  0  0  0  0  0  0  0  # atno 7974 bound_to 7965
  156.0074  140.1233  157.0488 H   0  0  0  0  0  0  0  0  0  0  0  0  # atno 8008 bound_to 7997
  154.4263  140.1094  156.5851 H   0  0  0  0  0  0  0  0  0  0  0  0  # atno 8009 bound_to 7997
  155.6128  140.3471  155.4630 H   0  0  0  0  0  0  0  0  0  0  0  0  # atno 8010 bound_to 7997
  139.9050  144.6307  150.8597 H   0  0  0  0  0  0  0  0  0  0  0  0  # atno 10167 bound_to 10162
  157.6005  130.9132  149.9779 H   0  0  0  0  0  0  0  0  0  0  0  0  # atno 10718 bound_to 10713
  154.8729  135.3757  154.4616 H   0  0  0  0  0  0  0  0  0  0  0  0  # atno 10763 bound_to 10752
  153.5284  135.7028  153.5701 H   0  0  0  0  0  0  0  0  0  0  0  0  # atno 10764 bound_to 10752
  153.3916  135.3971  155.1892 H   0  0  0  0  0  0  0  0  0  0  0  0  # atno 10765 bound_to 10752
  141.1242  133.8455  157.1194 H   0  0  0  0  0  0  0  0  0  0  0  0  # atno 11005 bound_to 11000
  146.1027  140.7524  142.9541 LP  0  0  0  0  0  0  0  0  0  0  0  0  # atno 17320 bound_to 7965
  144.7050  140.3814  143.7125 LP  0  0  0  0  0  0  0  0  0  0  0  0  # atno 17321 bound_to 7965
  140.7698  143.3408  151.2211 LP  0  0  0  0  0  0  0  0  0  0  0  0  # atno 17342 bound_to 10162
  139.6992  143.9561  152.2897 LP  0  0  0  0  0  0  0  0  0  0  0  0  # atno 17343 bound_to 10162
  156.1077  130.3652  150.0105 LP  0  0  0  0  0  0  0  0  0  0  0  0  # atno 17370 bound_to 10713
  156.8209  130.9358  151.3641 LP  0  0  0  0  0  0  0  0  0  0  0  0  # atno 17371 bound_to 10713
  140.0226  134.9939  157.0623 LP  0  0  0  0  0  0  0  0  0  0  0  0  # atno 17394 bound_to 11000
  140.4414  134.1677  155.7174 LP  0  0  0  0  0  0  0  0  0  0  0  0  # atno 17395 bound_to 11000

$$$$
