AV-unprocessed.smi:625|AV-procd|sdf|3101|dock3
  -GOLD-   22720 0 23D 1   1.00000     0.00000
 Structure written by MMmdl.
 49 51  0  0  0  0  0  0  0  0  1 V2000
  146.9123  139.9966  153.3727 C   0  0  0  0  0  0  0  0  0  0  0  0
  148.0565  139.3308  153.9772 N   0  0  0  0  0  0  0  0  0  0  0  0
  149.1736  139.9563  154.3835 C   0  0  0  0  0  0  0  0  0  0  0  0
  149.3110  141.1754  154.2683 O   0  0  0  0  0  0  0  0  0  0  0  0
  150.1763  139.0595  154.9634 C   0  0  0  0  0  0  0  0  0  0  0  0
  151.6094  139.2876  154.8523 C   0  0  0  0  0  0  0  0  0  0  0  0
  152.4860  138.4071  155.3742 C   0  0  0  0  0  0  0  0  0  0  0  0
  152.0428  137.1949  156.0690 C   0  0  0  0  0  0  0  0  0  0  0  0
  152.8401  136.3726  156.5199 O   0  0  0  0  0  0  0  0  0  0  0  0
  150.6892  137.0326  156.1737 N   0  0  0  0  0  0  0  0  0  0  0  0
  150.1136  135.8406  156.8235 C   0  0  0  0  0  0  0  0  0  0  0  0
  149.2149  136.1481  158.0342 C   0  0  0  0  0  0  0  0  0  0  0  0
  149.5690  137.0049  158.8429 O   0  0  0  0  0  0  0  0  0  0  0  0
  148.0599  135.4706  158.1469 N   0  0  0  0  0  0  0  0  0  0  0  0
  147.0296  135.6759  159.1590 C   0  0  2  0  0  0  0  0  0  0  0  0
  146.3979  137.0677  158.9875 C   0  0  0  0  0  0  0  0  0  0  0  0
  147.6674  135.4847  160.5554 C   0  0  2  0  0  0  0  0  0  0  0  0
  147.6902  134.0245  161.0659 C   0  0  0  0  0  0  0  0  0  0  0  0
  147.1296  134.1493  162.4945 C   0  0  2  0  0  0  0  0  0  0  0  0
  145.6114  134.3939  162.4177 C   0  0  0  0  0  0  0  0  0  0  0  0
  145.5286  135.8488  161.9209 C   0  0  0  0  0  0  0  0  0  0  0  0
  147.0115  136.2355  161.7406 C   0  0  1  0  0  0  0  0  0  0  0  0
  147.6469  135.5168  162.9274 C   0  0  0  0  0  0  0  0  0  0  0  0
  149.7774  137.9536  155.6210 C   0  0  0  0  0  0  0  0  0  0  0  0
  146.1350  139.2672  153.1463 H   0  0  0  0  0  0  0  0  0  0  0  0
  147.1975  140.4911  152.4432 H   0  0  0  0  0  0  0  0  0  0  0  0
  146.4934  140.7419  154.0501 H   0  0  0  0  0  0  0  0  0  0  0  0
  147.9980  138.3299  154.0962 H   0  0  0  0  0  0  0  0  0  0  0  0
  152.0026  140.1614  154.3539 H   0  0  0  0  0  0  0  0  0  0  0  0
  153.5449  138.5978  155.2792 H   0  0  0  0  0  0  0  0  0  0  0  0
  149.5437  135.2399  156.1128 H   0  0  0  0  0  0  0  0  0  0  0  0
  150.9195  135.1861  157.1587 H   0  0  0  0  0  0  0  0  0  0  0  0
  147.8563  134.7809  157.4382 H   0  0  0  0  0  0  0  0  0  0  0  0
  146.2585  134.9195  159.0105 H   0  0  0  0  0  0  0  0  0  0  0  0
  145.5936  137.2278  159.7053 H   0  0  0  0  0  0  0  0  0  0  0  0
  145.9700  137.1879  157.9918 H   0  0  0  0  0  0  0  0  0  0  0  0
  147.1353  137.8585  159.1303 H   0  0  0  0  0  0  0  0  0  0  0  0
  148.7020  135.8278  160.4905 H   0  0  0  0  0  0  0  0  0  0  0  0
  147.0889  133.3477  160.4570 H   0  0  0  0  0  0  0  0  0  0  0  0
  148.7105  133.6386  161.0748 H   0  0  0  0  0  0  0  0  0  0  0  0
  147.4066  133.3210  163.1472 H   0  0  0  0  0  0  0  0  0  0  0  0
  145.1124  133.6950  161.7454 H   0  0  0  0  0  0  0  0  0  0  0  0
  145.1509  134.2983  163.4017 H   0  0  0  0  0  0  0  0  0  0  0  0
  144.9364  135.9540  161.0132 H   0  0  0  0  0  0  0  0  0  0  0  0
  145.0639  136.4782  162.6810 H   0  0  0  0  0  0  0  0  0  0  0  0
  147.1826  137.3122  161.7245 H   0  0  0  0  0  0  0  0  0  0  0  0
  147.2551  135.8420  163.8928 H   0  0  0  0  0  0  0  0  0  0  0  0
  148.7365  135.5816  162.9448 H   0  0  0  0  0  0  0  0  0  0  0  0
  148.7392  137.6806  155.7526 H   0  0  0  0  0  0  0  0  0  0  0  0
  1  2  1  0  0  0  0
  1 25  1  0  0  0  0
  1 26  1  0  0  0  0
  1 27  1  0  0  0  0
  2  3  1  0  0  0  0
  2 28  1  0  0  0  0
  3  4  2  0  0  0  0
  3  5  1  0  0  0  0
  5 24  2  0  0  0  0
  5  6  1  0  0  0  0
  6  7  2  0  0  0  0
  6 29  1  0  0  0  0
  7  8  1  0  0  0  0
  7 30  1  0  0  0  0
  8  9  2  0  0  0  0
  8 10  1  0  0  0  0
 10 11  1  0  0  0  0
 10 24  1  0  0  0  0
 11 12  1  0  0  0  0
 11 31  1  0  0  0  0
 11 32  1  0  0  0  0
 12 13  2  0  0  0  0
 12 14  1  0  0  0  0
 14 15  1  0  0  0  0
 14 33  1  0  0  0  0
 15 16  1  0  0  0  0
 15 17  1  0  0  0  0
 15 34  1  0  0  0  0
 16 35  1  0  0  0  0
 16 36  1  0  0  0  0
 16 37  1  0  0  0  0
 17 22  1  0  0  0  0
 17 18  1  0  0  0  0
 17 38  1  0  0  0  0
 18 19  1  0  0  0  0
 18 39  1  0  0  0  0
 18 40  1  0  0  0  0
 19 23  1  0  0  0  0
 19 20  1  0  0  0  0
 19 41  1  0  0  0  0
 20 21  1  0  0  0  0
 20 42  1  0  0  0  0
 20 43  1  0  0  0  0
 21 22  1  0  0  0  0
 21 44  1  0  0  0  0
 21 45  1  0  0  0  0
 22 23  1  0  0  0  0
 22 46  1  0  0  0  0
 23 47  1  0  0  0  0
 23 48  1  0  0  0  0
 24 49  1  0  0  0  0
M  END
> <s_m_source_file>
AV-unprocessed.smi

> <i_m_source_file_index>
625

> <i_lp_mmshare_version>
43012

> <i_f3d_flags>
0

> <s_epik_input>
W0NIM11bTkhdQyg9TyljMVtjSF1bY0hdYyg9TyluKFtjSF0xKVtDSDJdQyg9TylbTkhdW0NASF0oW0NIM10pW0NASF0oW0NIMl1bQ0BIXTIzKVtDQEhdKFtDSDJdMylbQ0gyXVtDSDJdMg==

> <s_epik_cmdline>
J2VwaWtfcHl0aG9uJywgJy1waCcsICc3LjAnLCAnLXRuJywgJzgnLCAnLW1hJywgJzIwMCcsICctbWV0YWxfYmluZGluZycsICctaW1hZScsICc8aW5maWxlLm1hZT4nLCAnLW9tYWUnLCAnPG91dGZpbGUubWFlPic=

> <r_lp_tautomer_probability>
1

> <r_epik_Ionization_Penalty>
3.7129e-07

> <r_epik_Ionization_Penalty_Charging>
5.04114e-08

> <r_epik_Ionization_Penalty_Neutral>
3.20879e-07

> <r_epik_State_Penalty>
-0

> <r_epik_Charging_Adjusted_Penalty>
5.04114e-08

> <i_epik_Tot_Q>
0

> <i_epik_Tot_abs_Q>
0

> <r_epik_Metal_State_Penalty>
-0

> <b_epik_Metal_Only>
0

> <s_lp_Force_Field>
OPLS_2005

> <r_lp_Energy>
63.5822

> <b_lp_Chiralities_Consistent>
1

> <s_lp_Variant>
AV-unprocessed.smi:625-1

> <Gold.Version>
5.8.1

> <Gold.Id.Protein>
6NUR|6NUR_protein|mol2

> <Gold.PLP.Fitness>
43.6367

> <Gold.PLP.PLP>
-40.7753

> <Gold.PLP.part.hbond>
-3.7111

> <Gold.PLP.part.metal>
0.0000

> <Gold.PLP.part.buried>
-1.8398

> <Gold.PLP.part.nonpolar>
-35.2477

> <Gold.PLP.part.repulsive>
0.7967

> <Gold.PLP.ligand.clash>
0.0144

> <Gold.PLP.ligand.torsion>
1.3264

> <Gold.PLP.Chemscore.Hbond>
1.8119

> <Gold.PLP.Chemscore.CHOScore>
0.0000

> <Gold.PLP.Chemscore.Metal>
0.0000

> <Gold.Chemscore.Hbonds>
donor molecule, donor type, donor heavy atom, donor atom, acceptor molecule, acceptor atom, score
      P1  H  8011  8017       L1     4  0.16
      P1  H 10752 10764       L1     9  1.00

> <Gold.PLP.Chemscore.Internal.Correction>
0.0928

> <Gold.Rescore>
     Score         DG    S(hbond)    S(metal)    S(lipo)     H(rot)  DE(clash)    DE(int)     intcor
     13.87     -16.30       1.25        0.00      93.41       1.67       0.83       1.60       ----

> <Gold.Chemscore.Fitness>
13.8697

> <Gold.Chemscore.DG>
-16.3049

> <Gold.Chemscore.ZeroCoef>
-5.4800

> <Gold.Chemscore.Hbond>
1.2496

> <Gold.Chemscore.Metal>
0.0000

> <Gold.Chemscore.Lipo>
93.4081

> <Gold.Chemscore.Internal_Hbond>
0.0000

> <Gold.Chemscore.DEClash>
0.8304

> <Gold.Chemscore.DEInternal>
1.6048

> <Gold.Chemscore.Rot>
1.6709

> <Gold.Chemscore.Internal.Correction>
   9.000000E+99

> <Gold.Chemscore.Hbonds>
donor molecule, donor type, donor heavy atom, donor atom, acceptor molecule, acceptor atom, score
      P1  H  8011  8017       L1     4  0.16
      P1  H 10752 10764       L1     9  0.77

> <Gold.Chemscore.Hbond.Weighted>
-4.1736

> <Gold.Chemscore.Metal.Weighted>
-0.0000

> <Gold.Chemscore.Lipo.Weighted>
-10.9287

> <Gold.Chemscore.Internal_Hbond.Weighted>
0.0000

> <Gold.Chemscore.DEClash.Weighted>
0.8304

> <Gold.Chemscore.DEInternal.Weighted>
1.6048

> <Gold.Chemscore.Rot.Weighted>
4.2774

> <Gold.Chemscore.Internal.Correction.Weighted>
   9.000000E+99

> <Gold.Protein.RotatedTorsions>
[ 6907 6896 6895 6894 ] final   58.89 input  -60.11 | X-H torsion
[ 7974 7965 7964 7962 ] final   65.98 input  175.53 | X-H torsion
[ 8008 7997 7996 7995 ] final   -8.92 input   59.86 | X-H torsion
[ 10167 10162 10161 10158 ] final  168.94 input  -65.29 | X-H torsion
[ 10718 10713 10712 10709 ] final   65.71 input   66.30 | X-H torsion
[ 10763 10752 10751 10750 ] final   -5.47 input  -60.55 | X-H torsion
[ 11005 11000 10999 10996 ] final  -83.05 input  -57.11 | X-H torsion

> <Gold.Protein.ActiveResidues>
 VAL166  LYS551  ARG553  GLY616  TRP617  ASP618  TYR619  PRO620  LYS621  CYS622 
 ASP623  PHE694  ASN695  SER759  ASP760  ASP761  ALA762  ILE779  LEU786  VAL792 
 PHE793  MET794  SER795  GLU796  ALA797  LYS798  CYS799  TRP800  GLU811  SER814 

> <Gold.Protein.RotatedAtoms>
  152.3865  134.6508  160.0123 H   0  0  0  0  0  0  0  0  0  0  0  0  # atno 6907 bound_to 6896
  151.6755  133.3307  159.3215 H   0  0  0  0  0  0  0  0  0  0  0  0  # atno 6908 bound_to 6896
  150.7790  134.6762  159.6463 H   0  0  0  0  0  0  0  0  0  0  0  0  # atno 6909 bound_to 6896
  145.8321  139.3145  143.0981 H   0  0  0  0  0  0  0  0  0  0  0  0  # atno 7974 bound_to 7965
  154.5695  140.2368  155.8213 H   0  0  0  0  0  0  0  0  0  0  0  0  # atno 8008 bound_to 7997
  156.2095  140.3030  155.9659 H   0  0  0  0  0  0  0  0  0  0  0  0  # atno 8009 bound_to 7997
  155.2739  140.0419  157.3000 H   0  0  0  0  0  0  0  0  0  0  0  0  # atno 8010 bound_to 7997
  139.4980  144.3759  151.9674 H   0  0  0  0  0  0  0  0  0  0  0  0  # atno 10167 bound_to 10162
  157.6123  130.9229  150.0013 H   0  0  0  0  0  0  0  0  0  0  0  0  # atno 10718 bound_to 10713
  153.3989  135.7004  153.6440 H   0  0  0  0  0  0  0  0  0  0  0  0  # atno 10763 bound_to 10752
  153.4982  135.3658  155.2527 H   0  0  0  0  0  0  0  0  0  0  0  0  # atno 10764 bound_to 10752
  154.8709  135.4105  154.3320 H   0  0  0  0  0  0  0  0  0  0  0  0  # atno 10765 bound_to 10752
  141.1660  133.7275  156.8662 H   0  0  0  0  0  0  0  0  0  0  0  0  # atno 11005 bound_to 11000
  145.9559  140.8873  143.0235 LP  0  0  0  0  0  0  0  0  0  0  0  0  # atno 17320 bound_to 7965
  144.6739  140.1745  143.7411 LP  0  0  0  0  0  0  0  0  0  0  0  0  # atno 17321 bound_to 7965
  140.3196  144.3444  150.6013 LP  0  0  0  0  0  0  0  0  0  0  0  0  # atno 17342 bound_to 10162
  140.5733  143.2179  151.7559 LP  0  0  0  0  0  0  0  0  0  0  0  0  # atno 17343 bound_to 10162
  156.1231  130.3645  149.9855 LP  0  0  0  0  0  0  0  0  0  0  0  0  # atno 17370 bound_to 10713
  156.7931  130.9263  151.3646 LP  0  0  0  0  0  0  0  0  0  0  0  0  # atno 17371 bound_to 10713
  140.1813  134.9031  157.2952 LP  0  0  0  0  0  0  0  0  0  0  0  0  # atno 17394 bound_to 11000
  140.2392  134.3816  155.7488 LP  0  0  0  0  0  0  0  0  0  0  0  0  # atno 17395 bound_to 11000

$$$$
