AV-unprocessed.smi:1125|AV-procd|sdf|4835|dock5
  -GOLD-   22720 3393D 1   1.00000     0.00000
 Structure written by MMmdl.
 46 47  0  0  0  0  0  0  0  0  2 V2000
  146.9516  132.8618  151.9638 C   0  0  0  0  0  0  0  0  0  0  0  0
  146.6887  134.3149  152.0372 N   0  3  2  0  0  0  0  0  0  0  0  0
  146.1071  134.7163  153.3424 C   0  0  0  0  0  0  0  0  0  0  0  0
  145.9590  136.2456  153.4378 C   0  0  0  0  0  0  0  0  0  0  0  0
  145.1366  136.8170  152.2666 C   0  0  2  0  0  0  0  0  0  0  0  0
  143.7319  136.4303  152.3619 N   0  0  0  0  0  0  0  0  0  0  0  0
  143.0140  136.3240  153.4913 C   0  0  0  0  0  0  0  0  0  0  0  0
  143.4848  136.5095  154.6129 O   0  0  0  0  0  0  0  0  0  0  0  0
  141.5407  135.9357  153.3290 C   0  0  0  0  0  0  0  0  0  0  0  0
  140.6466  137.1173  153.5829 C   0  0  0  0  0  0  0  0  0  0  0  0
  140.8593  138.4128  153.1849 C   0  0  0  0  0  0  0  0  0  0  0  0
  139.5537  139.4608  153.6641 S   0  0  0  0  0  0  0  0  0  0  0  0
  138.7433  138.0790  154.4104 C   0  0  0  0  0  0  0  0  0  0  0  0
  137.3956  138.1246  155.0888 C   0  0  0  0  0  0  0  0  0  0  0  0
  137.5283  137.6179  156.5383 C   0  0  0  0  0  0  0  0  0  0  0  0
  136.3727  137.2218  154.3659 C   0  0  0  0  0  0  0  0  0  0  0  0
  136.8448  139.5636  155.0656 C   0  0  0  0  0  0  0  0  0  0  0  0
  139.4508  136.9506  154.2899 N   0  0  0  0  0  0  0  0  0  0  0  0
  145.7265  136.3325  150.9302 C   0  0  0  0  0  0  0  0  0  0  0  0
  145.8801  134.8006  150.8912 C   0  0  0  0  0  0  0  0  0  0  0  0
  146.0238  132.2922  152.0324 H   0  0  0  0  0  0  0  0  0  0  0  0
  147.6069  132.5482  152.7770 H   0  0  0  0  0  0  0  0  0  0  0  0
  147.4423  132.6055  151.0242 H   0  0  0  0  0  0  0  0  0  0  0  0
  145.1383  134.2324  153.4762 H   0  0  0  0  0  0  0  0  0  0  0  0
  146.7489  134.3643  154.1510 H   0  0  0  0  0  0  0  0  0  0  0  0
  145.5077  136.5195  154.3922 H   0  0  0  0  0  0  0  0  0  0  0  0
  146.9505  136.6998  153.4328 H   0  0  0  0  0  0  0  0  0  0  0  0
  145.1949  137.9068  152.2893 H   0  0  0  0  0  0  0  0  0  0  0  0
  143.2475  136.2633  151.4914 H   0  0  0  0  0  0  0  0  0  0  0  0
  141.3877  135.5438  152.3226 H   0  0  0  0  0  0  0  0  0  0  0  0
  141.3035  135.1219  154.0153 H   0  0  0  0  0  0  0  0  0  0  0  0
  141.6972  138.8112  152.6321 H   0  0  0  0  0  0  0  0  0  0  0  0
  136.5660  137.6228  157.0516 H   0  0  0  0  0  0  0  0  0  0  0  0
  138.2092  138.2412  157.1190 H   0  0  0  0  0  0  0  0  0  0  0  0
  137.9128  136.5976  156.5679 H   0  0  0  0  0  0  0  0  0  0  0  0
  136.6887  136.1780  154.3600 H   0  0  0  0  0  0  0  0  0  0  0  0
  136.2247  137.5311  153.3304 H   0  0  0  0  0  0  0  0  0  0  0  0
  135.3982  137.2584  154.8542 H   0  0  0  0  0  0  0  0  0  0  0  0
  135.8624  139.6213  155.5352 H   0  0  0  0  0  0  0  0  0  0  0  0
  136.7446  139.9333  154.0444 H   0  0  0  0  0  0  0  0  0  0  0  0
  137.5001  140.2516  155.6009 H   0  0  0  0  0  0  0  0  0  0  0  0
  145.1047  136.6669  150.0985 H   0  0  0  0  0  0  0  0  0  0  0  0
  146.7040  136.7931  150.7817 H   0  0  0  0  0  0  0  0  0  0  0  0
  146.3603  134.5091  149.9562 H   0  0  0  0  0  0  0  0  0  0  0  0
  144.9007  134.3197  150.9044 H   0  0  0  0  0  0  0  0  0  0  0  0
  147.5871  134.7716  151.9696 H   0  0  0  0  0  0  0  0  0  0  0  0
  1  2  1  0  0  0  0
  1 21  1  0  0  0  0
  1 22  1  0  0  0  0
  1 23  1  0  0  0  0
  2 20  1  0  0  0  0
  2  3  1  0  0  0  0
  2 46  1  0  0  0  0
  3  4  1  0  0  0  0
  3 24  1  0  0  0  0
  3 25  1  0  0  0  0
  4  5  1  0  0  0  0
  4 26  1  0  0  0  0
  4 27  1  0  0  0  0
  5  6  1  0  0  0  0
  5 19  1  0  0  0  0
  5 28  1  0  0  0  0
  6  7  1  0  0  0  0
  6 29  1  0  0  0  0
  7  8  2  0  0  0  0
  7  9  1  0  0  0  0
  9 10  1  0  0  0  0
  9 30  1  0  0  0  0
  9 31  1  0  0  0  0
 10 18  1  0  0  0  0
 10 11  2  0  0  0  0
 11 12  1  0  0  0  0
 11 32  1  0  0  0  0
 12 13  1  0  0  0  0
 13 14  1  0  0  0  0
 13 18  2  0  0  0  0
 14 15  1  0  0  0  0
 14 16  1  0  0  0  0
 14 17  1  0  0  0  0
 15 33  1  0  0  0  0
 15 34  1  0  0  0  0
 15 35  1  0  0  0  0
 16 36  1  0  0  0  0
 16 37  1  0  0  0  0
 16 38  1  0  0  0  0
 17 39  1  0  0  0  0
 17 40  1  0  0  0  0
 17 41  1  0  0  0  0
 19 20  1  0  0  0  0
 19 42  1  0  0  0  0
 19 43  1  0  0  0  0
 20 44  1  0  0  0  0
 20 45  1  0  0  0  0
M  CHG  1   2   1
M  END
> <s_m_source_file>
AV-unprocessed.smi

> <i_m_source_file_index>
1125

> <i_lp_mmshare_version>
43012

> <i_f3d_flags>
0

> <s_epik_input>
W0NIM11OMVtDSDJdW0NIMl1bQ0hdKFtDSDJdW0NIMl0xKVtOSF1DKD1PKVtDSDJdYzJbY0hdc2MobjIpQyhbQ0gzXSkoW0NIM10pW0NIM10=

> <s_epik_cmdline>
J2VwaWtfcHl0aG9uJywgJy1waCcsICc3LjAnLCAnLXRuJywgJzgnLCAnLW1hJywgJzIwMCcsICctbWV0YWxfYmluZGluZycsICctaW1hZScsICc8aW5maWxlLm1hZT4nLCAnLW9tYWUnLCAnPG91dGZpbGUubWFlPic=

> <r_epik_Ionization_Penalty>
0.00829478

> <r_epik_Ionization_Penalty_Charging>
0.0082618

> <r_epik_Ionization_Penalty_Neutral>
3.29858e-05

> <r_epik_State_Penalty>
0.00621662

> <r_epik_Charging_Adjusted_Penalty>
0.0144784

> <i_epik_Tot_Q>
1

> <i_epik_Tot_abs_Q>
1

> <r_epik_Metal_State_Penalty>
0.00621672

> <b_epik_Metal_Only>
0

> <s_lp_Force_Field>
OPLS_2005

> <r_lp_Energy>
6.26884

> <b_lp_Chiralities_Consistent>
1

> <s_lp_Variant>
AV-unprocessed.smi:1125-2

> <Gold.Version>
5.8.1

> <Gold.Id.Protein>
6NUR|6NUR_protein|mol2

> <Gold.PLP.Fitness>
37.8360

> <Gold.PLP.PLP>
-29.6719

> <Gold.PLP.part.hbond>
-1.0000

> <Gold.PLP.part.metal>
0.0000

> <Gold.PLP.part.buried>
-3.0786

> <Gold.PLP.part.nonpolar>
-25.3412

> <Gold.PLP.part.repulsive>
0.1508

> <Gold.PLP.ligand.clash>
0.0000

> <Gold.PLP.ligand.torsion>
0.7620

> <Gold.PLP.Chemscore.Hbond>
2.0000

> <Gold.PLP.Chemscore.CHOScore>
1.2237

> <Gold.PLP.Chemscore.Metal>
0.0000

> <Gold.Chemscore.Hbonds>
donor molecule, donor type, donor heavy atom, donor atom, acceptor molecule, acceptor atom, score
      L1  H     2    46       P1  7948  2.00
      L1  C    11    32       P1 10160  0.23
      L1  C    11    32       P1 10175  1.00

> <Gold.PLP.Chemscore.Internal.Correction>
0.0170

> <Gold.Rescore>
     Score         DG    S(hbond)    S(metal)    S(lipo)     H(rot)  DE(clash)    DE(int)     intcor
     11.89     -14.40       0.85        0.00      82.58       1.40       0.05       2.46       ----

> <Gold.Chemscore.Fitness>
11.8868

> <Gold.Chemscore.DG>
-14.3961

> <Gold.Chemscore.ZeroCoef>
-5.4800

> <Gold.Chemscore.Hbond>
0.8521

> <Gold.Chemscore.Metal>
0.0000

> <Gold.Chemscore.Lipo>
82.5802

> <Gold.Chemscore.Internal_Hbond>
0.0000

> <Gold.Chemscore.DEClash>
0.0495

> <Gold.Chemscore.DEInternal>
2.4598

> <Gold.Chemscore.Rot>
1.4030

> <Gold.Chemscore.Internal.Correction>
   9.000000E+99

> <Gold.Chemscore.Hbonds>
donor molecule, donor type, donor heavy atom, donor atom, acceptor molecule, acceptor atom, score
      L1  H     2    46       P1  7948  0.69

> <Gold.Chemscore.Hbond.Weighted>
-2.8460

> <Gold.Chemscore.Metal.Weighted>
-0.0000

> <Gold.Chemscore.Lipo.Weighted>
-9.6619

> <Gold.Chemscore.Internal_Hbond.Weighted>
0.0000

> <Gold.Chemscore.DEClash.Weighted>
0.0495

> <Gold.Chemscore.DEInternal.Weighted>
2.4598

> <Gold.Chemscore.Rot.Weighted>
3.5917

> <Gold.Chemscore.Internal.Correction.Weighted>
   9.000000E+99

> <Gold.Protein.RotatedTorsions>
[ 6907 6896 6895 6894 ] final -170.52 input  -60.11 | X-H torsion
[ 7974 7965 7964 7962 ] final  -57.29 input  175.53 | X-H torsion
[ 8008 7997 7996 7995 ] final   17.95 input   59.86 | X-H torsion
[ 10167 10162 10161 10158 ] final   94.16 input  -65.29 | X-H torsion
[ 10718 10713 10712 10709 ] final  158.33 input   66.30 | X-H torsion
[ 10763 10752 10751 10750 ] final -149.12 input  -60.55 | X-H torsion
[ 11005 11000 10999 10996 ] final -132.75 input  -57.11 | X-H torsion

> <Gold.Protein.ActiveResidues>
 VAL166  LYS551  ARG553  GLY616  TRP617  ASP618  TYR619  PRO620  LYS621  CYS622 
 ASP623  PHE694  ASN695  SER759  ASP760  ASP761  ALA762  ILE779  LEU786  VAL792 
 PHE793  MET794  SER795  GLU796  ALA797  LYS798  CYS799  TRP800  GLU811  SER814 

> <Gold.Protein.RotatedAtoms>
  151.5090  133.3489  159.2881 H   0  0  0  0  0  0  0  0  0  0  0  0  # atno 6907 bound_to 6896
  150.8724  134.8103  159.7176 H   0  0  0  0  0  0  0  0  0  0  0  0  # atno 6908 bound_to 6896
  152.4708  134.4976  159.9766 H   0  0  0  0  0  0  0  0  0  0  0  0  # atno 6909 bound_to 6896
  145.8527  140.8341  142.9977 H   0  0  0  0  0  0  0  0  0  0  0  0  # atno 7974 bound_to 7965
  154.8988  140.2997  155.5329 H   0  0  0  0  0  0  0  0  0  0  0  0  # atno 8008 bound_to 7997
  156.3019  140.2410  156.3948 H   0  0  0  0  0  0  0  0  0  0  0  0  # atno 8009 bound_to 7997
  154.8542  140.0408  157.1613 H   0  0  0  0  0  0  0  0  0  0  0  0  # atno 8010 bound_to 7997
  139.8110  144.6773  150.9640 H   0  0  0  0  0  0  0  0  0  0  0  0  # atno 10167 bound_to 10162
  157.1793  131.0628  151.2140 H   0  0  0  0  0  0  0  0  0  0  0  0  # atno 10718 bound_to 10713
  154.8195  135.3317  154.7079 H   0  0  0  0  0  0  0  0  0  0  0  0  # atno 10763 bound_to 10752
  153.7714  135.6925  153.4910 H   0  0  0  0  0  0  0  0  0  0  0  0  # atno 10764 bound_to 10752
  153.2042  135.4505  155.0251 H   0  0  0  0  0  0  0  0  0  0  0  0  # atno 10765 bound_to 10752
  140.9142  134.1528  157.4365 H   0  0  0  0  0  0  0  0  0  0  0  0  # atno 11005 bound_to 11000
  144.6728  140.0978  143.7462 LP  0  0  0  0  0  0  0  0  0  0  0  0  # atno 17320 bound_to 7965
  145.9338  139.2624  143.1309 LP  0  0  0  0  0  0  0  0  0  0  0  0  # atno 17321 bound_to 7965
  140.7818  143.4185  151.0879 LP  0  0  0  0  0  0  0  0  0  0  0  0  # atno 17342 bound_to 10162
  139.7851  143.8298  152.3144 LP  0  0  0  0  0  0  0  0  0  0  0  0  # atno 17343 bound_to 10162
  157.3968  130.7311  149.6737 LP  0  0  0  0  0  0  0  0  0  0  0  0  # atno 17370 bound_to 10713
  155.9726  130.4131  150.4068 LP  0  0  0  0  0  0  0  0  0  0  0  0  # atno 17371 bound_to 10713
  139.8763  134.9947  156.5708 LP  0  0  0  0  0  0  0  0  0  0  0  0  # atno 17394 bound_to 11000
  140.8071  133.8459  155.8777 LP  0  0  0  0  0  0  0  0  0  0  0  0  # atno 17395 bound_to 11000

$$$$
