AV-unprocessed.smi:3002|AV-procd|sdf|11434|dock6
  -GOLD-   2272016363D 1   1.00000     0.00000
 Structure written by MMmdl.
 34 35  0  0  0  0  0  0  0  0  1 V2000
  148.4362  138.7298  155.7961 C   0  0  0  0  0  0  0  0  0  0  0  0
  149.9610  138.6055  155.9911 C   0  0  1  0  0  0  0  0  0  0  0  0
  150.6914  139.9402  155.7762 C   0  0  0  0  0  0  0  0  0  0  0  0
  151.4986  140.0729  154.8558 O   0  0  0  0  0  0  0  0  0  0  0  0
  150.3979  140.9259  156.6391 N   0  0  0  0  0  0  0  0  0  0  0  0
  150.9752  142.2656  156.6097 C   0  0  0  0  0  0  0  0  0  0  0  0
  151.1551  142.8619  158.0206 C   0  0  2  0  0  0  0  0  0  0  0  0
  152.1274  144.0598  158.0645 C   0  0  0  0  0  0  0  0  0  0  0  0
  152.4517  144.3719  159.5284 C   0  0  0  0  0  0  0  0  0  0  0  0
  152.4709  142.7528  160.3825 S   0  0  0  0  0  0  0  0  0  0  0  0
  153.8586  142.2816  160.5063 O   0  0  0  0  0  0  0  0  0  0  0  0
  151.5852  142.8171  161.5548 O   0  0  0  0  0  0  0  0  0  0  0  0
  151.6464  141.8183  159.0370 C   0  0  0  0  0  0  0  0  0  0  0  0
  150.3086  138.0441  157.2910 N   0  0  0  0  0  0  0  0  0  0  0  0
  149.9735  136.8723  157.8359 C   0  0  0  0  0  0  0  0  0  0  0  0
  150.5071  136.6605  159.0307 N   0  0  0  0  0  0  0  0  0  0  0  0
  151.2204  137.8174  159.1697 C   0  0  0  0  0  0  0  0  0  0  0  0
  151.1452  138.6753  158.1526 N   0  0  0  0  0  0  0  0  0  0  0  0
  148.1974  139.1024  154.7994 H   0  0  0  0  0  0  0  0  0  0  0  0
  147.9823  139.4087  156.5191 H   0  0  0  0  0  0  0  0  0  0  0  0
  147.9511  137.7596  155.9063 H   0  0  0  0  0  0  0  0  0  0  0  0
  150.3238  137.9070  155.2351 H   0  0  0  0  0  0  0  0  0  0  0  0
  149.7233  140.7359  157.3658 H   0  0  0  0  0  0  0  0  0  0  0  0
  151.9317  142.2421  156.0846 H   0  0  0  0  0  0  0  0  0  0  0  0
  150.3165  142.9013  156.0174 H   0  0  0  0  0  0  0  0  0  0  0  0
  150.1873  143.2201  158.3751 H   0  0  0  0  0  0  0  0  0  0  0  0
  153.0499  143.7921  157.5478 H   0  0  0  0  0  0  0  0  0  0  0  0
  151.7198  144.9346  157.5570 H   0  0  0  0  0  0  0  0  0  0  0  0
  153.4065  144.8815  159.6590 H   0  0  0  0  0  0  0  0  0  0  0  0
  151.6659  144.9804  159.9768 H   0  0  0  0  0  0  0  0  0  0  0  0
  150.8373  141.2110  159.4432 H   0  0  0  0  0  0  0  0  0  0  0  0
  152.3882  141.1533  158.5940 H   0  0  0  0  0  0  0  0  0  0  0  0
  149.3282  136.1574  157.3469 H   0  0  0  0  0  0  0  0  0  0  0  0
  151.8181  138.0306  160.0438 H   0  0  0  0  0  0  0  0  0  0  0  0
  1  2  1  0  0  0  0
  1 19  1  0  0  0  0
  1 20  1  0  0  0  0
  1 21  1  0  0  0  0
  2  3  1  0  0  0  0
  2 14  1  0  0  0  0
  2 22  1  0  0  0  0
  3  4  2  0  0  0  0
  3  5  1  0  0  0  0
  5  6  1  0  0  0  0
  5 23  1  0  0  0  0
  6  7  1  0  0  0  0
  6 24  1  0  0  0  0
  6 25  1  0  0  0  0
  7 13  1  0  0  0  0
  7  8  1  0  0  0  0
  7 26  1  0  0  0  0
  8  9  1  0  0  0  0
  8 27  1  0  0  0  0
  8 28  1  0  0  0  0
  9 10  1  0  0  0  0
  9 29  1  0  0  0  0
  9 30  1  0  0  0  0
 10 11  2  0  0  0  0
 10 12  2  0  0  0  0
 10 13  1  0  0  0  0
 13 31  1  0  0  0  0
 13 32  1  0  0  0  0
 14 18  1  0  0  0  0
 14 15  1  0  0  0  0
 15 16  2  0  0  0  0
 15 33  1  0  0  0  0
 16 17  1  0  0  0  0
 17 18  2  0  0  0  0
 17 34  1  0  0  0  0
M  END
> <s_m_source_file>
AV-unprocessed.smi

> <i_m_source_file_index>
3002

> <i_lp_mmshare_version>
43012

> <i_f3d_flags>
0

> <s_epik_input>
bjFbY0hdbltjSF1uMVtDQEhdKFtDSDNdKUMoPU8pW05IXVtDSDJdW0NAQEhdKFtDSDJdMilbQ0gyXVtDSDJdUzIoPU8pPU8=

> <s_epik_cmdline>
J2VwaWtfcHl0aG9uJywgJy1waCcsICc3LjAnLCAnLXRuJywgJzgnLCAnLW1hJywgJzIwMCcsICctbWV0YWxfYmluZGluZycsICctaW1hZScsICc8aW5maWxlLm1hZT4nLCAnLW9tYWUnLCAnPG91dGZpbGUubWFlPic=

> <r_lp_tautomer_probability>
1

> <r_epik_Ionization_Penalty>
1.1748e-05

> <r_epik_Ionization_Penalty_Charging>
0

> <r_epik_Ionization_Penalty_Neutral>
1.1748e-05

> <r_epik_State_Penalty>
-0

> <r_epik_Charging_Adjusted_Penalty>
0

> <i_epik_Tot_Q>
0

> <i_epik_Tot_abs_Q>
0

> <r_epik_Metal_State_Penalty>
-0

> <b_epik_Metal_Only>
0

> <s_lp_Force_Field>
OPLS_2005

> <r_lp_Energy>
11.4636

> <b_lp_Chiralities_Consistent>
1

> <s_lp_Variant>
AV-unprocessed.smi:3002-2

> <Gold.Version>
5.8.1

> <Gold.Id.Protein>
6NUR|6NUR_protein|mol2

> <Gold.PLP.Fitness>
37.4271

> <Gold.PLP.PLP>
-30.3361

> <Gold.PLP.part.hbond>
-2.9959

> <Gold.PLP.part.metal>
0.0000

> <Gold.PLP.part.buried>
-5.4132

> <Gold.PLP.part.nonpolar>
-21.9902

> <Gold.PLP.part.repulsive>
0.2402

> <Gold.PLP.ligand.clash>
0.0000

> <Gold.PLP.ligand.torsion>
0.3940

> <Gold.PLP.Chemscore.Hbond>
2.5920

> <Gold.PLP.Chemscore.CHOScore>
0.0000

> <Gold.PLP.Chemscore.Metal>
0.0000

> <Gold.Chemscore.Hbonds>
donor molecule, donor type, donor heavy atom, donor atom, acceptor molecule, acceptor atom, score
      P1  H  6896  6908       L1    16  1.00
      P1  H  6933  6945       L1    12  0.58
      P1  H  7989  7998       L1     4  1.00

> <Gold.PLP.Chemscore.Internal.Correction>
0.1029

> <Gold.Rescore>
     Score         DG    S(hbond)    S(metal)    S(lipo)     H(rot)  DE(clash)    DE(int)     intcor
     12.97     -14.73       2.77        0.00      52.30       2.39       0.03       1.74       ----

> <Gold.Chemscore.Fitness>
12.9744

> <Gold.Chemscore.DG>
-14.7349

> <Gold.Chemscore.ZeroCoef>
-5.4800

> <Gold.Chemscore.Hbond>
2.7743

> <Gold.Chemscore.Metal>
0.0000

> <Gold.Chemscore.Lipo>
52.2977

> <Gold.Chemscore.Internal_Hbond>
0.0000

> <Gold.Chemscore.DEClash>
0.0255

> <Gold.Chemscore.DEInternal>
1.7351

> <Gold.Chemscore.Rot>
2.3946

> <Gold.Chemscore.Internal.Correction>
   9.000000E+99

> <Gold.Chemscore.Hbonds>
donor molecule, donor type, donor heavy atom, donor atom, acceptor molecule, acceptor atom, score
      P1  H  6896  6908       L1    16  0.99
      P1  H  6933  6945       L1    12  0.56
      P1  H  7989  7998       L1     4  0.96

> <Gold.Chemscore.Hbond.Weighted>
-9.2662

> <Gold.Chemscore.Metal.Weighted>
-0.0000

> <Gold.Chemscore.Lipo.Weighted>
-6.1188

> <Gold.Chemscore.Internal_Hbond.Weighted>
0.0000

> <Gold.Chemscore.DEClash.Weighted>
0.0255

> <Gold.Chemscore.DEInternal.Weighted>
1.7351

> <Gold.Chemscore.Rot.Weighted>
6.1301

> <Gold.Chemscore.Internal.Correction.Weighted>
   9.000000E+99

> <Gold.Protein.RotatedTorsions>
[ 6907 6896 6895 6894 ] final -157.26 input  -60.11 | X-H torsion
[ 7974 7965 7964 7962 ] final    7.87 input  175.53 | X-H torsion
[ 8008 7997 7996 7995 ] final  139.92 input   59.86 | X-H torsion
[ 10167 10162 10161 10158 ] final -110.22 input  -65.29 | X-H torsion
[ 10718 10713 10712 10709 ] final  158.69 input   66.30 | X-H torsion
[ 10763 10752 10751 10750 ] final   26.06 input  -60.55 | X-H torsion
[ 11005 11000 10999 10996 ] final  124.78 input  -57.11 | X-H torsion

> <Gold.Protein.ActiveResidues>
 VAL166  LYS551  ARG553  GLY616  TRP617  ASP618  TYR619  PRO620  LYS621  CYS622 
 ASP623  PHE694  ASN695  SER759  ASP760  ASP761  ALA762  ILE779  LEU786  VAL792 
 PHE793  MET794  SER795  GLU796  ALA797  LYS798  CYS799  TRP800  GLU811  SER814 

> <Gold.Protein.RotatedAtoms>
  151.3002  133.4126  159.2638 H   0  0  0  0  0  0  0  0  0  0  0  0  # atno 6907 bound_to 6896
  151.0202  134.9464  159.8066 H   0  0  0  0  0  0  0  0  0  0  0  0  # atno 6908 bound_to 6896
  152.5322  134.2965  159.9115 H   0  0  0  0  0  0  0  0  0  0  0  0  # atno 6909 bound_to 6896
  146.2422  140.0018  142.8415 H   0  0  0  0  0  0  0  0  0  0  0  0  # atno 7974 bound_to 7965
  156.2985  140.2355  156.4317 H   0  0  0  0  0  0  0  0  0  0  0  0  # atno 8008 bound_to 7997
  154.8264  140.0435  157.1467 H   0  0  0  0  0  0  0  0  0  0  0  0  # atno 8009 bound_to 7997
  154.9257  140.3009  155.5197 H   0  0  0  0  0  0  0  0  0  0  0  0  # atno 8010 bound_to 7997
  140.1468  143.4232  152.1523 H   0  0  0  0  0  0  0  0  0  0  0  0  # atno 10167 bound_to 10162
  157.1744  131.0618  151.2165 H   0  0  0  0  0  0  0  0  0  0  0  0  # atno 10718 bound_to 10713
  153.0649  135.6569  154.0378 H   0  0  0  0  0  0  0  0  0  0  0  0  # atno 10763 bound_to 10752
  154.0038  135.2934  155.3401 H   0  0  0  0  0  0  0  0  0  0  0  0  # atno 10764 bound_to 10752
  154.7002  135.5247  153.8584 H   0  0  0  0  0  0  0  0  0  0  0  0  # atno 10765 bound_to 10752
  139.9375  134.9638  156.8461 H   0  0  0  0  0  0  0  0  0  0  0  0  # atno 11005 bound_to 11000
  145.1408  140.9570  143.4490 LP  0  0  0  0  0  0  0  0  0  0  0  0  # atno 17320 bound_to 7965
  145.0298  139.3351  143.6030 LP  0  0  0  0  0  0  0  0  0  0  0  0  # atno 17321 bound_to 7965
  139.5445  144.7286  151.4627 LP  0  0  0  0  0  0  0  0  0  0  0  0  # atno 17342 bound_to 10162
  140.6727  143.8258  150.7019 LP  0  0  0  0  0  0  0  0  0  0  0  0  # atno 17343 bound_to 10162
  157.4012  130.7334  149.6769 LP  0  0  0  0  0  0  0  0  0  0  0  0  # atno 17370 bound_to 10713
  155.9733  130.4120  150.4010 LP  0  0  0  0  0  0  0  0  0  0  0  0  # atno 17371 bound_to 10713
  140.6037  134.0147  155.7548 LP  0  0  0  0  0  0  0  0  0  0  0  0  # atno 17394 bound_to 11000
  141.0995  133.9790  157.3103 LP  0  0  0  0  0  0  0  0  0  0  0  0  # atno 17395 bound_to 11000

$$$$
