AV-unprocessed.smi:54|AV-procd|sdf|531|dock6
  -GOLD-   2262016403D 1   1.00000     0.00000
 Structure written by MMmdl.
 44 46  0  0  0  0  0  0  0  0  1 V2000
  145.9285  133.2316  151.8893 C   0  0  0  0  0  0  0  0  0  0  0  0
  147.0197  132.1981  152.2124 C   0  0  0  0  0  0  0  0  0  0  0  0
  146.4352  130.7791  152.3017 C   0  0  0  0  0  0  0  0  0  0  0  0
  147.7433  132.5649  153.5127 C   0  0  0  0  0  0  0  0  0  0  0  0
  147.6978  131.8440  154.5104 O   0  0  0  0  0  0  0  0  0  0  0  0
  148.4736  133.8202  153.4869 N   0  0  0  0  0  0  0  0  0  0  0  0
  149.2132  134.3548  154.4857 C   0  0  0  0  0  0  0  0  0  0  0  0
  149.6177  135.6159  154.4848 N   0  0  0  0  0  0  0  0  0  0  0  0
  150.3396  135.9928  155.5819 C   0  0  0  0  0  0  0  0  0  0  0  0
  150.6654  135.1892  156.6558 C   0  0  0  0  0  0  0  0  0  0  0  0
  151.4044  135.9086  157.5868 N   0  0  0  0  0  0  0  0  0  0  0  0
  151.4972  137.0985  157.0636 C   0  0  0  0  0  0  0  0  0  0  0  0
  150.8874  137.2364  155.8394 N   0  0  0  0  0  0  0  0  0  0  0  0
  150.8073  138.4815  155.0078 C   0  0  2  0  0  0  0  0  0  0  0  0
  151.2070  139.5639  155.7969 O   0  0  0  0  0  0  0  0  0  0  0  0
  150.1244  140.4705  156.0004 C   0  0  1  0  0  0  0  0  0  0  0  0
  150.6327  141.9053  156.2287 C   0  0  0  0  0  0  0  0  0  0  0  0
  149.6900  142.6411  156.9792 O   0  0  0  0  0  0  0  0  0  0  0  0
  149.2488  140.2637  154.7578 C   0  0  1  0  0  0  0  0  0  0  0  0
  149.7379  141.0371  153.6724 O   0  0  0  0  0  0  0  0  0  0  0  0
  149.3781  138.7616  154.5157 C   0  0  1  0  0  0  0  0  0  0  0  0
  149.1782  138.4243  153.1560 O   0  0  0  0  0  0  0  0  0  0  0  0
  150.2321  133.8214  156.6770 C   0  0  0  0  0  0  0  0  0  0  0  0
  150.4305  132.9732  157.5441 O   0  0  0  0  0  0  0  0  0  0  0  0
  149.4958  133.4815  155.5349 N   0  0  0  0  0  0  0  0  0  0  0  0
  151.5275  138.3342  154.2017 H   0  0  0  0  0  0  0  0  0  0  0  0
  149.5509  140.1542  156.8700 H   0  0  0  0  0  0  0  0  0  0  0  0
  148.2139  140.5537  154.9425 H   0  0  0  0  0  0  0  0  0  0  0  0
  148.6536  138.2287  155.1312 H   0  0  0  0  0  0  0  0  0  0  0  0
  146.3419  134.2388  151.8284 H   0  0  0  0  0  0  0  0  0  0  0  0
  145.1440  133.2376  152.6472 H   0  0  0  0  0  0  0  0  0  0  0  0
  145.4581  133.0138  150.9299 H   0  0  0  0  0  0  0  0  0  0  0  0
  147.7490  132.2114  151.4010 H   0  0  0  0  0  0  0  0  0  0  0  0
  147.2080  130.0458  152.5362 H   0  0  0  0  0  0  0  0  0  0  0  0
  145.9824  130.4846  151.3548 H   0  0  0  0  0  0  0  0  0  0  0  0
  145.6650  130.7093  153.0712 H   0  0  0  0  0  0  0  0  0  0  0  0
  148.3988  134.3597  152.6372 H   0  0  0  0  0  0  0  0  0  0  0  0
  152.0149  137.9077  157.5579 H   0  0  0  0  0  0  0  0  0  0  0  0
  151.6017  141.9116  156.7288 H   0  0  0  0  0  0  0  0  0  0  0  0
  150.7549  142.4158  155.2729 H   0  0  0  0  0  0  0  0  0  0  0  0
  149.2549  143.2492  156.4012 H   0  0  0  0  0  0  0  0  0  0  0  0
  149.3474  140.7133  152.8751 H   0  0  0  0  0  0  0  0  0  0  0  0
  149.0776  139.2235  152.6617 H   0  0  0  0  0  0  0  0  0  0  0  0
  149.1555  132.5328  155.4830 H   0  0  0  0  0  0  0  0  0  0  0  0
  1  2  1  0  0  0  0
  1 30  1  0  0  0  0
  1 31  1  0  0  0  0
  1 32  1  0  0  0  0
  2  3  1  0  0  0  0
  2  4  1  0  0  0  0
  2 33  1  0  0  0  0
  3 34  1  0  0  0  0
  3 35  1  0  0  0  0
  3 36  1  0  0  0  0
  4  5  2  0  0  0  0
  4  6  1  0  0  0  0
  6 37  1  0  0  0  0
  6  7  1  0  0  0  0
  7 25  1  0  0  0  0
  7  8  2  0  0  0  0
  8  9  1  0  0  0  0
  9 13  1  0  0  0  0
  9 10  2  0  0  0  0
 10 11  1  0  0  0  0
 10 23  1  0  0  0  0
 11 12  2  0  0  0  0
 12 13  1  0  0  0  0
 12 38  1  0  0  0  0
 13 14  1  0  0  0  0
 14 26  1  0  0  0  0
 14 21  1  0  0  0  0
 14 15  1  0  0  0  0
 15 16  1  0  0  0  0
 16 27  1  0  0  0  0
 16 17  1  0  0  0  0
 16 19  1  0  0  0  0
 17 18  1  0  0  0  0
 17 39  1  0  0  0  0
 17 40  1  0  0  0  0
 18 41  1  0  0  0  0
 19 28  1  0  0  0  0
 19 20  1  0  0  0  0
 19 21  1  0  0  0  0
 20 42  1  0  0  0  0
 21 29  1  0  0  0  0
 21 22  1  0  0  0  0
 22 43  1  0  0  0  0
 23 24  2  0  0  0  0
 23 25  1  0  0  0  0
 25 44  1  0  0  0  0
M  END
> <s_m_source_file>
AV-unprocessed.smi

> <i_m_source_file_index>
54

> <i_lp_mmshare_version>
43012

> <i_f3d_flags>
0

> <s_epik_input>
W0NIM11bQ0hdKFtDSDNdKUMoPU8pW05IXWMobjEpW25IXWMoPU8pYyhjMTIpbltjSF1uMltDQEBIXTNPW0NASF0oW0NIMl1bT0hdKVtDQEBIXShbT0hdKVtDQEhdM1tPSF0=

> <s_epik_cmdline>
J2VwaWtfcHl0aG9uJywgJy1waCcsICc3LjAnLCAnLXRuJywgJzgnLCAnLW1hJywgJzIwMCcsICctbWV0YWxfYmluZGluZycsICctaW1hZScsICc8aW5maWxlLm1hZT4nLCAnLW9tYWUnLCAnPG91dGZpbGUubWFlPic=

> <r_lp_tautomer_probability>
0.85571

> <r_epik_Ionization_Penalty>
0.0316551

> <r_epik_Ionization_Penalty_Charging>
0.0316043

> <r_epik_Ionization_Penalty_Neutral>
5.07097e-05

> <r_epik_State_Penalty>
3.15494e-07

> <r_epik_Charging_Adjusted_Penalty>
0.0316047

> <i_epik_Tot_Q>
0

> <i_epik_Tot_abs_Q>
0

> <r_epik_Metal_State_Penalty>
0.421206

> <b_epik_Metal_Only>
0

> <s_epik_Chemistry_Notes>
This compound contains an acetal/aminal-like group ( X-CH(R)-Y where X, Y are N, S, or O) that may be acid/base labile, releasing an aldehyde.

> <s_lp_Force_Field>
OPLS_2005

> <r_lp_Energy>
45.4171

> <b_lp_Chiralities_Consistent>
1

> <s_lp_Variant>
AV-unprocessed.smi:54-3

> <Gold.Version>
5.8.1

> <Gold.Id.Protein>
6NUR|6NUR_protein|mol2

> <Gold.PLP.Fitness>
47.8933

> <Gold.PLP.PLP>
-34.2378

> <Gold.PLP.part.hbond>
-8.5289

> <Gold.PLP.part.metal>
0.0000

> <Gold.PLP.part.buried>
-5.1714

> <Gold.PLP.part.nonpolar>
-23.5059

> <Gold.PLP.part.repulsive>
2.3981

> <Gold.PLP.ligand.clash>
0.0000

> <Gold.PLP.ligand.torsion>
0.7173

> <Gold.PLP.Chemscore.Hbond>
5.0200

> <Gold.PLP.Chemscore.CHOScore>
0.0000

> <Gold.PLP.Chemscore.Metal>
0.0000

> <Gold.Chemscore.Hbonds>
donor molecule, donor type, donor heavy atom, donor atom, acceptor molecule, acceptor atom, score
      L1  H     6    37       P1  7948  0.63
      L1  H    18    41       P1  8028  1.00
      L1  H    20    42       P1  7957  0.94
      L1  H    22    43       P1  7957  0.83
      P1  H  6896  6908       L1    24  1.00
      P1  H  6896  6909       L1    11  0.02
      P1  H  7989  7998       L1    20  0.32

> <Gold.PLP.Chemscore.Internal.Correction>
0.0300

> <Gold.Rescore>
     Score         DG    S(hbond)    S(metal)    S(lipo)     H(rot)  DE(clash)    DE(int)     intcor
     13.01     -14.63       4.33        0.00      43.20       4.05       0.04       1.58       ----

> <Gold.Chemscore.Fitness>
13.0113

> <Gold.Chemscore.DG>
-14.6309

> <Gold.Chemscore.ZeroCoef>
-5.4800

> <Gold.Chemscore.Hbond>
4.3300

> <Gold.Chemscore.Metal>
0.0000

> <Gold.Chemscore.Lipo>
43.2043

> <Gold.Chemscore.Internal_Hbond>
0.0000

> <Gold.Chemscore.DEClash>
0.0389

> <Gold.Chemscore.DEInternal>
1.5806

> <Gold.Chemscore.Rot>
4.0493

> <Gold.Chemscore.Internal.Correction>
   9.000000E+99

> <Gold.Chemscore.Hbonds>
donor molecule, donor type, donor heavy atom, donor atom, acceptor molecule, acceptor atom, score
      L1  H     6    37       P1  7948  0.09
      L1  H    18    41       P1  8028  0.99
      L1  H    20    42       P1  7957  0.91
      L1  H    22    43       P1  7957  0.83
      P1  H  6896  6908       L1    24  0.97
      P1  H  6896  6909       L1    11  0.02
      P1  H  7989  7998       L1    20  0.16

> <Gold.Chemscore.Hbond.Weighted>
-14.4622

> <Gold.Chemscore.Metal.Weighted>
-0.0000

> <Gold.Chemscore.Lipo.Weighted>
-5.0549

> <Gold.Chemscore.Internal_Hbond.Weighted>
0.0000

> <Gold.Chemscore.DEClash.Weighted>
0.0389

> <Gold.Chemscore.DEInternal.Weighted>
1.5806

> <Gold.Chemscore.Rot.Weighted>
10.3662

> <Gold.Chemscore.Internal.Correction.Weighted>
   9.000000E+99

> <Gold.Protein.RotatedTorsions>
[ 6907 6896 6895 6894 ] final   89.46 input  -60.11 | X-H torsion
[ 7974 7965 7964 7962 ] final -171.09 input  175.53 | X-H torsion
[ 8008 7997 7996 7995 ] final  125.00 input   59.86 | X-H torsion
[ 10167 10162 10161 10158 ] final -135.48 input  -65.29 | X-H torsion
[ 10718 10713 10712 10709 ] final   91.07 input   66.30 | X-H torsion
[ 10763 10752 10751 10750 ] final -144.44 input  -60.55 | X-H torsion
[ 11005 11000 10999 10996 ] final  -72.79 input  -57.11 | X-H torsion

> <Gold.Protein.ActiveResidues>
 VAL166  LYS551  ARG553  GLY616  TRP617  ASP618  TYR619  PRO620  LYS621  CYS622 
 ASP623  PHE694  ASN695  SER759  ASP760  ASP761  ALA762  ILE779  LEU786  VAL792 
 PHE793  MET794  SER795  GLU796  ALA797  LYS798  CYS799  TRP800  GLU811  SER814 

> <Gold.Protein.RotatedAtoms>
  152.5436  134.1962  159.8693 H   0  0  0  0  0  0  0  0  0  0  0  0  # atno 6907 bound_to 6896
  151.1954  133.4635  159.2603 H   0  0  0  0  0  0  0  0  0  0  0  0  # atno 6908 bound_to 6896
  151.1042  135.0002  159.8518 H   0  0  0  0  0  0  0  0  0  0  0  0  # atno 6909 bound_to 6896
  144.7161  140.1974  143.6342 H   0  0  0  0  0  0  0  0  0  0  0  0  # atno 7974 bound_to 7965
  156.2820  140.2726  156.1878 H   0  0  0  0  0  0  0  0  0  0  0  0  # atno 8008 bound_to 7997
  155.0489  140.0386  157.2554 H   0  0  0  0  0  0  0  0  0  0  0  0  # atno 8009 bound_to 7997
  154.7211  140.2688  155.6546 H   0  0  0  0  0  0  0  0  0  0  0  0  # atno 8010 bound_to 7997
  139.8775  143.6880  152.2632 H   0  0  0  0  0  0  0  0  0  0  0  0  # atno 10167 bound_to 10162
  157.6960  131.0394  150.3673 H   0  0  0  0  0  0  0  0  0  0  0  0  # atno 10718 bound_to 10713
  154.8428  135.3440  154.6346 H   0  0  0  0  0  0  0  0  0  0  0  0  # atno 10763 bound_to 10752
  153.6956  135.6972  153.5082 H   0  0  0  0  0  0  0  0  0  0  0  0  # atno 10764 bound_to 10752
  153.2562  135.4337  155.0802 H   0  0  0  0  0  0  0  0  0  0  0  0  # atno 10765 bound_to 10752
  141.1613  133.6858  156.7113 H   0  0  0  0  0  0  0  0  0  0  0  0  # atno 11005 bound_to 11000
  145.8712  139.2273  143.1660 LP  0  0  0  0  0  0  0  0  0  0  0  0  # atno 17320 bound_to 7965
  146.0083  140.8458  142.9984 LP  0  0  0  0  0  0  0  0  0  0  0  0  # atno 17321 bound_to 7965
  139.7227  144.7599  151.0930 LP  0  0  0  0  0  0  0  0  0  0  0  0  # atno 17342 bound_to 10162
  140.7750  143.5188  150.9562 LP  0  0  0  0  0  0  0  0  0  0  0  0  # atno 17343 bound_to 10162
  156.4102  130.3933  149.6897 LP  0  0  0  0  0  0  0  0  0  0  0  0  # atno 17370 bound_to 10713
  156.4183  130.7756  151.2772 LP  0  0  0  0  0  0  0  0  0  0  0  0  # atno 17371 bound_to 10713
  140.2885  134.8259  157.3996 LP  0  0  0  0  0  0  0  0  0  0  0  0  # atno 17394 bound_to 11000
  140.1368  134.5023  155.8062 LP  0  0  0  0  0  0  0  0  0  0  0  0  # atno 17395 bound_to 11000

$$$$
