AV-unprocessed.smi:861|AV-procd|sdf|3974|dock2
  -GOLD-   22720 1453D 1   1.00000     0.00000
 Structure written by MMmdl.
 45 46  0  0  0  0  0  0  0  0  3 V2000
  146.5447  127.9368  153.1254 C   0  0  0  0  0  0  0  0  0  0  0  0
  146.8387  127.9914  151.6165 C   0  0  0  0  0  0  0  0  0  0  0  0
  148.0214  127.0724  151.2723 C   0  0  0  0  0  0  0  0  0  0  0  0
  147.0988  129.4267  151.1135 C   0  0  0  0  0  0  0  0  0  0  0  0
  145.9899  130.4330  151.4795 C   0  0  0  0  0  0  0  0  0  0  0  0
  146.2254  131.7727  150.8769 N   0  3  1  0  0  0  0  0  0  0  0  0
  145.3592  132.0907  149.7128 C   0  0  0  0  0  0  0  0  0  0  0  0
  143.9457  132.5101  150.1586 C   0  0  0  0  0  0  0  0  0  0  0  0
  144.0336  133.5917  151.0784 O   0  0  0  0  0  0  0  0  0  0  0  0
  144.7508  133.2484  152.2602 C   0  0  2  0  0  0  0  0  0  0  0  0
  144.7147  134.4559  153.2090 C   0  0  0  0  0  0  0  0  0  0  0  0
  143.4782  134.5034  153.9750 N   0  0  0  0  0  0  0  0  0  0  0  0
  142.6265  135.6128  153.8871 C   0  0  0  0  0  0  0  0  0  0  0  0
  142.8797  136.7446  153.0778 C   0  0  0  0  0  0  0  0  0  0  0  0
  141.9412  137.7906  153.0828 C   0  0  0  0  0  0  0  0  0  0  0  0
  140.8040  137.6420  153.8964 C   0  0  0  0  0  0  0  0  0  0  0  0
  140.5800  136.5516  154.6629 N   0  0  0  0  0  0  0  0  0  0  0  0
  141.4968  135.5683  154.6372 N   0  3  0  0  0  0  0  0  0  0  0  0
  146.1966  132.8841  151.8604 C   0  0  0  0  0  0  0  0  0  0  0  0
  147.3674  128.3563  153.7053 H   0  0  0  0  0  0  0  0  0  0  0  0
  146.3986  126.9083  153.4570 H   0  0  0  0  0  0  0  0  0  0  0  0
  145.6390  128.4848  153.3829 H   0  0  0  0  0  0  0  0  0  0  0  0
  145.9663  127.6013  151.0904 H   0  0  0  0  0  0  0  0  0  0  0  0
  148.9361  127.4003  151.7675 H   0  0  0  0  0  0  0  0  0  0  0  0
  148.2112  127.0569  150.1986 H   0  0  0  0  0  0  0  0  0  0  0  0
  147.8257  126.0455  151.5825 H   0  0  0  0  0  0  0  0  0  0  0  0
  148.0566  129.7804  151.4979 H   0  0  0  0  0  0  0  0  0  0  0  0
  147.2064  129.3902  150.0299 H   0  0  0  0  0  0  0  0  0  0  0  0
  145.0112  130.0479  151.1935 H   0  0  0  0  0  0  0  0  0  0  0  0
  145.9700  130.5408  152.5637 H   0  0  0  0  0  0  0  0  0  0  0  0
  145.8180  132.9152  149.1653 H   0  0  0  0  0  0  0  0  0  0  0  0
  145.3078  131.2568  149.0139 H   0  0  0  0  0  0  0  0  0  0  0  0
  143.3642  132.8324  149.2948 H   0  0  0  0  0  0  0  0  0  0  0  0
  143.4033  131.6769  150.6067 H   0  0  0  0  0  0  0  0  0  0  0  0
  144.2754  132.3960  152.7493 H   0  0  0  0  0  0  0  0  0  0  0  0
  145.5491  134.3910  153.9084 H   0  0  0  0  0  0  0  0  0  0  0  0
  144.8357  135.3813  152.6445 H   0  0  0  0  0  0  0  0  0  0  0  0
  143.1716  133.6710  154.4585 H   0  0  0  0  0  0  0  0  0  0  0  0
  143.7656  136.8237  152.4656 H   0  0  0  0  0  0  0  0  0  0  0  0
  142.0866  138.6778  152.4843 H   0  0  0  0  0  0  0  0  0  0  0  0
  140.0533  138.4178  153.9346 H   0  0  0  0  0  0  0  0  0  0  0  0
  146.7933  132.6320  152.7379 H   0  0  0  0  0  0  0  0  0  0  0  0
  146.6778  133.7520  151.4067 H   0  0  0  0  0  0  0  0  0  0  0  0
  147.1738  131.7391  150.5300 H   0  0  0  0  0  0  0  0  0  0  0  0
  141.3332  134.7427  155.2139 H   0  0  0  0  0  0  0  0  0  0  0  0
  1  2  1  0  0  0  0
  1 20  1  0  0  0  0
  1 21  1  0  0  0  0
  1 22  1  0  0  0  0
  2  3  1  0  0  0  0
  2  4  1  0  0  0  0
  2 23  1  0  0  0  0
  3 24  1  0  0  0  0
  3 25  1  0  0  0  0
  3 26  1  0  0  0  0
  4  5  1  0  0  0  0
  4 27  1  0  0  0  0
  4 28  1  0  0  0  0
  5  6  1  0  0  0  0
  5 29  1  0  0  0  0
  5 30  1  0  0  0  0
  6 19  1  0  0  0  0
  6  7  1  0  0  0  0
  6 44  1  0  0  0  0
  7  8  1  0  0  0  0
  7 31  1  0  0  0  0
  7 32  1  0  0  0  0
  8  9  1  0  0  0  0
  8 33  1  0  0  0  0
  8 34  1  0  0  0  0
  9 10  1  0  0  0  0
 10 11  1  0  0  0  0
 10 19  1  0  0  0  0
 10 35  1  0  0  0  0
 11 12  1  0  0  0  0
 11 36  1  0  0  0  0
 11 37  1  0  0  0  0
 12 13  1  0  0  0  0
 12 38  1  0  0  0  0
 13 18  1  0  0  0  0
 13 14  2  0  0  0  0
 14 15  1  0  0  0  0
 14 39  1  0  0  0  0
 15 16  2  0  0  0  0
 15 40  1  0  0  0  0
 16 17  1  0  0  0  0
 16 41  1  0  0  0  0
 17 18  2  0  0  0  0
 18 45  1  0  0  0  0
 19 42  1  0  0  0  0
 19 43  1  0  0  0  0
M  CHG  1   6   1
M  CHG  1  18   1
M  END
> <s_m_source_file>
AV-unprocessed.smi

> <i_m_source_file_index>
861

> <i_lp_mmshare_version>
43012

> <i_f3d_flags>
0

> <s_epik_input>
W0NIM11bQ0hdKFtDSDNdKVtDSDJdW0NIMl1OMVtDSDJdW0NIMl1PW0NASF0oW0NIMl0xKVtDSDJdW05IXWMyW2NIXVtjSF1bY0hdbm4y

> <s_epik_cmdline>
J2VwaWtfcHl0aG9uJywgJy1waCcsICc3LjAnLCAnLXRuJywgJzgnLCAnLW1hJywgJzIwMCcsICctbWV0YWxfYmluZGluZycsICctaW1hZScsICc8aW5maWxlLm1hZT4nLCAnLW9tYWUnLCAnPG91dGZpbGUubWFlPic=

> <r_lp_tautomer_probability>
0.966961

> <r_epik_Ionization_Penalty>
2.478

> <r_epik_Ionization_Penalty_Charging>
2.47799

> <r_epik_Ionization_Penalty_Neutral>
3.15286e-06

> <r_epik_State_Penalty>
2.10794

> <r_epik_Charging_Adjusted_Penalty>
4.58594

> <i_epik_Tot_Q>
2

> <i_epik_Tot_abs_Q>
2

> <r_epik_Metal_State_Penalty>
2.11378

> <b_epik_Metal_Only>
0

> <s_lp_Force_Field>
OPLS_2005

> <r_lp_Energy>
35.7333

> <b_lp_Chiralities_Consistent>
1

> <s_lp_Variant>
AV-unprocessed.smi:861-9

> <Gold.Version>
5.8.1

> <Gold.Id.Protein>
6NUR|6NUR_protein|mol2

> <Gold.PLP.Fitness>
45.9337

> <Gold.PLP.PLP>
-36.0802

> <Gold.PLP.part.hbond>
-3.6424

> <Gold.PLP.part.metal>
0.0000

> <Gold.PLP.part.buried>
-2.3984

> <Gold.PLP.part.nonpolar>
-29.8977

> <Gold.PLP.part.repulsive>
0.2953

> <Gold.PLP.ligand.clash>
0.0000

> <Gold.PLP.ligand.torsion>
0.9256

> <Gold.PLP.Chemscore.Hbond>
3.8640

> <Gold.PLP.Chemscore.CHOScore>
0.0000

> <Gold.PLP.Chemscore.Metal>
0.0000

> <Gold.Chemscore.Hbonds>
donor molecule, donor type, donor heavy atom, donor atom, acceptor molecule, acceptor atom, score
      L1  H     6    44       P1 10747  1.00
      L1  H    12    38       P1 10957  2.00
      L1  H    18    45       P1 11000  0.85

> <Gold.PLP.Chemscore.Internal.Correction>
0.1126

> <Gold.Rescore>
     Score         DG    S(hbond)    S(metal)    S(lipo)     H(rot)  DE(clash)    DE(int)     intcor
     19.42     -21.71       2.80        0.00      97.75       1.78       1.42       0.88       ----

> <Gold.Chemscore.Fitness>
19.4190

> <Gold.Chemscore.DG>
-21.7145

> <Gold.Chemscore.ZeroCoef>
-5.4800

> <Gold.Chemscore.Hbond>
2.7978

> <Gold.Chemscore.Metal>
0.0000

> <Gold.Chemscore.Lipo>
97.7455

> <Gold.Chemscore.Internal_Hbond>
0.0000

> <Gold.Chemscore.DEClash>
1.4200

> <Gold.Chemscore.DEInternal>
0.8755

> <Gold.Chemscore.Rot>
1.7759

> <Gold.Chemscore.Internal.Correction>
   9.000000E+99

> <Gold.Chemscore.Hbonds>
donor molecule, donor type, donor heavy atom, donor atom, acceptor molecule, acceptor atom, score
      L1  H     6    44       P1 10747  0.92
      L1  H    12    38       P1 10957  0.96
      L1  H    18    45       P1 11000  0.67

> <Gold.Chemscore.Hbond.Weighted>
-9.3445

> <Gold.Chemscore.Metal.Weighted>
-0.0000

> <Gold.Chemscore.Lipo.Weighted>
-11.4362

> <Gold.Chemscore.Internal_Hbond.Weighted>
0.0000

> <Gold.Chemscore.DEClash.Weighted>
1.4200

> <Gold.Chemscore.DEInternal.Weighted>
0.8755

> <Gold.Chemscore.Rot.Weighted>
4.5462

> <Gold.Chemscore.Internal.Correction.Weighted>
   9.000000E+99

> <Gold.Protein.RotatedTorsions>
[ 6907 6896 6895 6894 ] final    4.13 input  -60.11 | X-H torsion
[ 7974 7965 7964 7962 ] final  156.43 input  175.53 | X-H torsion
[ 8008 7997 7996 7995 ] final  102.07 input   59.86 | X-H torsion
[ 10167 10162 10161 10158 ] final  -11.16 input  -65.29 | X-H torsion
[ 10718 10713 10712 10709 ] final    4.77 input   66.30 | X-H torsion
[ 10763 10752 10751 10750 ] final  135.50 input  -60.55 | X-H torsion
[ 11005 11000 10999 10996 ] final  177.47 input  -57.11 | X-H torsion

> <Gold.Protein.ActiveResidues>
 VAL166  LYS551  ARG553  GLY616  TRP617  ASP618  TYR619  PRO620  LYS621  CYS622 
 ASP623  PHE694  ASN695  SER759  ASP760  ASP761  ALA762  ILE779  LEU786  VAL792 
 PHE793  MET794  SER795  GLU796  ALA797  LYS798  CYS799  TRP800  GLU811  SER814 

> <Gold.Protein.RotatedAtoms>
  151.6363  135.1017  160.0131 H   0  0  0  0  0  0  0  0  0  0  0  0  # atno 6907 bound_to 6896
  152.4079  133.6913  159.6380 H   0  0  0  0  0  0  0  0  0  0  0  0  # atno 6908 bound_to 6896
  150.7972  133.8594  159.3268 H   0  0  0  0  0  0  0  0  0  0  0  0  # atno 6909 bound_to 6896
  144.7964  139.7202  143.6200 H   0  0  0  0  0  0  0  0  0  0  0  0  # atno 7974 bound_to 7965
  156.1359  140.3187  155.8420 H   0  0  0  0  0  0  0  0  0  0  0  0  # atno 8008 bound_to 7997
  155.4246  140.0514  157.3040 H   0  0  0  0  0  0  0  0  0  0  0  0  # atno 8009 bound_to 7997
  154.4936  140.2102  155.9507 H   0  0  0  0  0  0  0  0  0  0  0  0  # atno 8010 bound_to 7997
  140.7132  143.5669  150.9134 H   0  0  0  0  0  0  0  0  0  0  0  0  # atno 10167 bound_to 10162
  156.8975  130.5710  149.5648 H   0  0  0  0  0  0  0  0  0  0  0  0  # atno 10718 bound_to 10713
  153.8411  135.3091  155.3426 H   0  0  0  0  0  0  0  0  0  0  0  0  # atno 10763 bound_to 10752
  154.7932  135.4770  154.0104 H   0  0  0  0  0  0  0  0  0  0  0  0  # atno 10764 bound_to 10752
  153.1575  135.6855  153.8882 H   0  0  0  0  0  0  0  0  0  0  0  0  # atno 10765 bound_to 10752
  140.3845  134.6917  157.4471 H   0  0  0  0  0  0  0  0  0  0  0  0  # atno 11005 bound_to 11000
  146.2233  139.5676  142.9604 LP  0  0  0  0  0  0  0  0  0  0  0  0  # atno 17320 bound_to 7965
  145.5663  141.0399  143.2198 LP  0  0  0  0  0  0  0  0  0  0  0  0  # atno 17321 bound_to 7965
  139.9395  143.6398  152.3057 LP  0  0  0  0  0  0  0  0  0  0  0  0  # atno 17342 bound_to 10162
  139.6878  144.7650  151.1493 LP  0  0  0  0  0  0  0  0  0  0  0  0  # atno 17343 bound_to 10162
  156.0598  130.5653  150.9169 LP  0  0  0  0  0  0  0  0  0  0  0  0  # atno 17370 bound_to 10713
  157.6046  131.0939  150.8901 LP  0  0  0  0  0  0  0  0  0  0  0  0  # atno 17371 bound_to 10713
  140.0453  134.6208  155.8929 LP  0  0  0  0  0  0  0  0  0  0  0  0  # atno 17394 bound_to 11000
  141.1912  133.6571  156.5446 LP  0  0  0  0  0  0  0  0  0  0  0  0  # atno 17395 bound_to 11000

$$$$
