AV-unprocessed.smi:2229|AV-procd|sdf|9027|dock1
  -GOLD-   2272012233D 1   1.00000     0.00000
 Structure written by MMmdl.
 44 45  0  0  0  0  0  0  0  0  1 V2000
  152.3437  144.6093  158.3409 C   0  0  0  0  0  0  0  0  0  0  0  0
  151.9152  143.3760  159.1508 C   0  0  0  0  0  0  0  0  0  0  0  0
  152.9806  143.0353  160.2077 C   0  0  0  0  0  0  0  0  0  0  0  0
  151.6103  142.1887  158.2147 C   0  0  0  0  0  0  0  0  0  0  0  0
  150.6034  142.5142  157.0974 C   0  0  0  0  0  0  0  0  0  0  0  0
  150.0895  141.2652  156.3588 C   0  0  2  0  0  0  0  0  0  0  0  0
  151.1524  140.4743  155.5939 C   0  0  0  0  0  0  0  0  0  0  0  0
  150.3412  139.6025  154.6365 C   0  0  0  0  0  0  0  0  0  0  0  0
  149.1138  140.4417  154.2590 C   0  0  0  0  0  0  0  0  0  0  0  0
  149.0279  141.5818  155.2932 C   0  0  1  0  0  0  0  0  0  0  0  0
  147.7126  141.6847  155.9121 N   0  0  0  0  0  0  0  0  0  0  0  0
  146.5758  142.0258  155.2849 C   0  0  0  0  0  0  0  0  0  0  0  0
  146.5129  142.2043  154.0696 O   0  0  0  0  0  0  0  0  0  0  0  0
  145.3118  142.2196  156.1396 C   0  0  0  0  0  0  0  0  0  0  0  0
  144.6445  143.5158  155.9692 N   0  0  0  0  0  0  0  0  0  0  0  0
  144.0993  143.9365  154.7748 C   0  0  0  0  0  0  0  0  0  0  0  0
  143.5681  145.1072  154.8740 N   0  0  0  0  0  0  0  0  0  0  0  0
  143.7946  145.4251  156.1709 N   0  0  0  0  0  0  0  0  0  0  0  0
  144.4455  144.4862  156.8590 C   0  0  0  0  0  0  0  0  0  0  0  0
  144.7722  144.5124  158.0440 O   0  0  0  0  0  0  0  0  0  0  0  0
  143.4730  146.3146  156.5249 H   0  0  0  0  0  0  0  0  0  0  0  0
  153.2640  144.4198  157.7875 H   0  0  0  0  0  0  0  0  0  0  0  0
  152.5176  145.4668  158.9916 H   0  0  0  0  0  0  0  0  0  0  0  0
  151.5758  144.8964  157.6219 H   0  0  0  0  0  0  0  0  0  0  0  0
  150.9953  143.6385  159.6750 H   0  0  0  0  0  0  0  0  0  0  0  0
  153.9124  142.7136  159.7419 H   0  0  0  0  0  0  0  0  0  0  0  0
  152.6502  142.2412  160.8766 H   0  0  0  0  0  0  0  0  0  0  0  0
  153.2043  143.9020  160.8305 H   0  0  0  0  0  0  0  0  0  0  0  0
  152.5412  141.8565  157.7539 H   0  0  0  0  0  0  0  0  0  0  0  0
  151.2476  141.3445  158.8028 H   0  0  0  0  0  0  0  0  0  0  0  0
  149.7445  143.0290  157.5272 H   0  0  0  0  0  0  0  0  0  0  0  0
  151.0493  143.2088  156.3848 H   0  0  0  0  0  0  0  0  0  0  0  0
  149.6470  140.5873  157.0919 H   0  0  0  0  0  0  0  0  0  0  0  0
  151.7897  141.1530  155.0252 H   0  0  0  0  0  0  0  0  0  0  0  0
  151.7927  139.8835  156.2495 H   0  0  0  0  0  0  0  0  0  0  0  0
  150.9195  139.2941  153.7651 H   0  0  0  0  0  0  0  0  0  0  0  0
  150.0189  138.6982  155.1541 H   0  0  0  0  0  0  0  0  0  0  0  0
  149.2271  140.8590  153.2577 H   0  0  0  0  0  0  0  0  0  0  0  0
  148.2174  139.8199  154.2463 H   0  0  0  0  0  0  0  0  0  0  0  0
  149.2824  142.5238  154.8027 H   0  0  0  0  0  0  0  0  0  0  0  0
  147.6738  141.5496  156.9119 H   0  0  0  0  0  0  0  0  0  0  0  0
  144.6018  141.4304  155.8881 H   0  0  0  0  0  0  0  0  0  0  0  0
  145.5796  142.0636  157.1856 H   0  0  0  0  0  0  0  0  0  0  0  0
  144.1542  143.2899  153.8973 H   0  0  0  0  0  0  0  0  0  0  0  0
  1  2  1  0  0  0  0
  1 22  1  0  0  0  0
  1 23  1  0  0  0  0
  1 24  1  0  0  0  0
  2  3  1  0  0  0  0
  2  4  1  0  0  0  0
  2 25  1  0  0  0  0
  3 26  1  0  0  0  0
  3 27  1  0  0  0  0
  3 28  1  0  0  0  0
  4  5  1  0  0  0  0
  4 29  1  0  0  0  0
  4 30  1  0  0  0  0
  5  6  1  0  0  0  0
  5 31  1  0  0  0  0
  5 32  1  0  0  0  0
  6 10  1  0  0  0  0
  6  7  1  0  0  0  0
  6 33  1  0  0  0  0
  7  8  1  0  0  0  0
  7 34  1  0  0  0  0
  7 35  1  0  0  0  0
  8  9  1  0  0  0  0
  8 36  1  0  0  0  0
  8 37  1  0  0  0  0
  9 10  1  0  0  0  0
  9 38  1  0  0  0  0
  9 39  1  0  0  0  0
 10 11  1  0  0  0  0
 10 40  1  0  0  0  0
 11 12  1  0  0  0  0
 11 41  1  0  0  0  0
 12 13  2  0  0  0  0
 12 14  1  0  0  0  0
 14 15  1  0  0  0  0
 14 42  1  0  0  0  0
 14 43  1  0  0  0  0
 15 19  1  0  0  0  0
 15 16  1  0  0  0  0
 16 17  2  0  0  0  0
 16 44  1  0  0  0  0
 17 18  1  0  0  0  0
 18 21  1  0  0  0  0
 18 19  1  0  0  0  0
 19 20  2  0  0  0  0
M  END
> <s_m_source_file>
AV-unprocessed.smi

> <i_m_source_file_index>
2229

> <i_lp_mmshare_version>
43012

> <i_f3d_flags>
0

> <s_epik_input>
W0NIM11bQ0hdKFtDSDNdKVtDSDJdW0NIMl1bQ0BASF0xW0NIMl1bQ0gyXVtDSDJdW0NASF0xW05IXUMoPU8pW0NIMl1uMltjSF1uW25IXWMyPU8=

> <s_epik_cmdline>
J2VwaWtfcHl0aG9uJywgJy1waCcsICc3LjAnLCAnLXRuJywgJzgnLCAnLW1hJywgJzIwMCcsICctbWV0YWxfYmluZGluZycsICctaW1hZScsICc8aW5maWxlLm1hZT4nLCAnLW9tYWUnLCAnPG91dGZpbGUubWFlPic=

> <r_lp_tautomer_probability>
1

> <r_epik_Ionization_Penalty>
4.14174e-05

> <r_epik_Ionization_Penalty_Charging>
4.13165e-05

> <r_epik_Ionization_Penalty_Neutral>
1.00911e-07

> <r_epik_State_Penalty>
-0

> <r_epik_Charging_Adjusted_Penalty>
4.13165e-05

> <i_epik_Tot_Q>
0

> <i_epik_Tot_abs_Q>
0

> <r_epik_Metal_State_Penalty>
0.0399369

> <b_epik_Metal_Only>
0

> <s_lp_Force_Field>
OPLS_2005

> <r_lp_Energy>
36.5056

> <b_lp_Chiralities_Consistent>
1

> <s_lp_Variant>
AV-unprocessed.smi:2229-1

> <Gold.Version>
5.8.1

> <Gold.Id.Protein>
6NUR|6NUR_protein|mol2

> <Gold.PLP.Fitness>
40.9389

> <Gold.PLP.PLP>
-38.3012

> <Gold.PLP.part.hbond>
-0.8397

> <Gold.PLP.part.metal>
0.0000

> <Gold.PLP.part.buried>
-0.9075

> <Gold.PLP.part.nonpolar>
-36.6869

> <Gold.PLP.part.repulsive>
0.6266

> <Gold.PLP.ligand.clash>
0.0000

> <Gold.PLP.ligand.torsion>
0.1263

> <Gold.PLP.Chemscore.Hbond>
0.0000

> <Gold.PLP.Chemscore.CHOScore>
0.9434

> <Gold.PLP.Chemscore.Metal>
0.0000

> <Gold.Chemscore.Hbonds>
donor molecule, donor type, donor heavy atom, donor atom, acceptor molecule, acceptor atom, score
      L1  C    16    44       P1 10174  0.90

> <Gold.PLP.Chemscore.Internal.Correction>
0.0602

> <Gold.Rescore>
     Score         DG    S(hbond)    S(metal)    S(lipo)     H(rot)  DE(clash)    DE(int)     intcor
      9.67      -9.85       0.00        0.00      95.08       2.64       0.04       0.14       ----

> <Gold.Chemscore.Fitness>
9.6674

> <Gold.Chemscore.DG>
-9.8548

> <Gold.Chemscore.ZeroCoef>
-5.4800

> <Gold.Chemscore.Hbond>
0.0000

> <Gold.Chemscore.Metal>
0.0000

> <Gold.Chemscore.Lipo>
95.0843

> <Gold.Chemscore.Internal_Hbond>
0.0000

> <Gold.Chemscore.DEClash>
0.0428

> <Gold.Chemscore.DEInternal>
0.1446

> <Gold.Chemscore.Rot>
2.6368

> <Gold.Chemscore.Internal.Correction>
   9.000000E+99

> <Gold.Chemscore.Hbond.Weighted>
-0.0000

> <Gold.Chemscore.Metal.Weighted>
-0.0000

> <Gold.Chemscore.Lipo.Weighted>
-11.1249

> <Gold.Chemscore.Internal_Hbond.Weighted>
0.0000

> <Gold.Chemscore.DEClash.Weighted>
0.0428

> <Gold.Chemscore.DEInternal.Weighted>
0.1446

> <Gold.Chemscore.Rot.Weighted>
6.7501

> <Gold.Chemscore.Internal.Correction.Weighted>
   9.000000E+99

> <Gold.Protein.RotatedTorsions>
[ 6907 6896 6895 6894 ] final -168.00 input  -60.11 | X-H torsion
[ 7974 7965 7964 7962 ] final  -75.79 input  175.53 | X-H torsion
[ 8008 7997 7996 7995 ] final   21.40 input   59.86 | X-H torsion
[ 10167 10162 10161 10158 ] final  177.70 input  -65.29 | X-H torsion
[ 10718 10713 10712 10709 ] final  -49.60 input   66.30 | X-H torsion
[ 10763 10752 10751 10750 ] final   60.40 input  -60.55 | X-H torsion
[ 11005 11000 10999 10996 ] final  174.65 input  -57.11 | X-H torsion

> <Gold.Protein.ActiveResidues>
 VAL166  LYS551  ARG553  GLY616  TRP617  ASP618  TYR619  PRO620  LYS621  CYS622 
 ASP623  PHE694  ASN695  SER759  ASP760  ASP761  ALA762  ILE779  LEU786  VAL792 
 PHE793  MET794  SER795  GLU796  ALA797  LYS798  CYS799  TRP800  GLU811  SER814 

> <Gold.Protein.RotatedAtoms>
  151.4686  133.3574  159.2819 H   0  0  0  0  0  0  0  0  0  0  0  0  # atno 6907 bound_to 6896
  150.8976  134.8388  159.7348 H   0  0  0  0  0  0  0  0  0  0  0  0  # atno 6908 bound_to 6896
  152.4860  134.4603  159.9655 H   0  0  0  0  0  0  0  0  0  0  0  0  # atno 6909 bound_to 6896
  145.6214  140.9362  143.1136 H   0  0  0  0  0  0  0  0  0  0  0  0  # atno 7974 bound_to 7965
  154.9500  140.3064  155.5080 H   0  0  0  0  0  0  0  0  0  0  0  0  # atno 8008 bound_to 7997
  156.2988  140.2320  156.4514 H   0  0  0  0  0  0  0  0  0  0  0  0  # atno 8009 bound_to 7997
  154.8064  140.0431  157.1299 H   0  0  0  0  0  0  0  0  0  0  0  0  # atno 8010 bound_to 7997
  139.5264  144.2767  152.0582 H   0  0  0  0  0  0  0  0  0  0  0  0  # atno 10167 bound_to 10162
  156.1878  130.4152  149.9414 H   0  0  0  0  0  0  0  0  0  0  0  0  # atno 10718 bound_to 10713
  152.9920  135.5537  154.5868 H   0  0  0  0  0  0  0  0  0  0  0  0  # atno 10763 bound_to 10752
  154.5238  135.2809  155.1242 H   0  0  0  0  0  0  0  0  0  0  0  0  # atno 10764 bound_to 10752
  154.2584  135.6385  153.5318 H   0  0  0  0  0  0  0  0  0  0  0  0  # atno 10765 bound_to 10752
  140.3536  134.7173  157.4285 H   0  0  0  0  0  0  0  0  0  0  0  0  # atno 11005 bound_to 11000
  144.7230  139.7968  143.7375 LP  0  0  0  0  0  0  0  0  0  0  0  0  # atno 17320 bound_to 7965
  146.1428  139.4490  143.0098 LP  0  0  0  0  0  0  0  0  0  0  0  0  # atno 17321 bound_to 7965
  140.2224  144.4453  150.6336 LP  0  0  0  0  0  0  0  0  0  0  0  0  # atno 17342 bound_to 10162
  140.6410  143.2203  151.6291 LP  0  0  0  0  0  0  0  0  0  0  0  0  # atno 17343 bound_to 10162
  156.7164  130.8990  151.3614 LP  0  0  0  0  0  0  0  0  0  0  0  0  # atno 17370 bound_to 10713
  157.6910  130.9233  150.0514 LP  0  0  0  0  0  0  0  0  0  0  0  0  # atno 17371 bound_to 10713
  140.0683  134.5899  155.8671 LP  0  0  0  0  0  0  0  0  0  0  0  0  # atno 17394 bound_to 11000
  141.2005  133.6613  156.5899 LP  0  0  0  0  0  0  0  0  0  0  0  0  # atno 17395 bound_to 11000

$$$$
