AV-unprocessed.smi:653|AV-procd|sdf|3208|dock3
  -GOLD-   22720 0143D 1   1.00000     0.00000
 Structure written by MMmdl.
 45 46  0  0  0  0  0  0  0  0  2 V2000
  146.8201  138.5843  153.0675 C   0  0  0  0  0  0  0  0  0  0  0  0
  148.0578  139.1389  153.7408 C   0  0  0  0  0  0  0  0  0  0  0  0
  148.0209  140.2976  154.5456 C   0  0  0  0  0  0  0  0  0  0  0  0
  149.2111  140.7572  155.1466 C   0  0  0  0  0  0  0  0  0  0  0  0
  150.4149  140.0500  154.9312 C   0  0  0  0  0  0  0  0  0  0  0  0
  151.7125  140.5177  155.5671 C   0  0  0  0  0  0  0  0  0  0  0  0
  151.6728  140.3202  157.0843 C   0  0  0  0  0  0  0  0  0  0  0  0
  151.4433  139.2064  157.5561 O   0  0  0  0  0  0  0  0  0  0  0  0
  151.8996  141.4076  157.8369 N   0  0  0  0  0  0  0  0  0  0  0  0
  151.9057  141.4274  159.2957 C   0  0  0  0  0  0  0  0  0  0  0  0
  153.3353  141.5069  159.8671 C   0  0  2  0  0  0  0  0  0  0  0  0
  154.2091  140.3126  159.5340 C   0  0  0  0  0  0  0  0  0  0  0  0
  155.3113  140.4310  160.5808 C   0  0  0  0  0  0  0  0  0  0  0  0
  154.6867  140.9838  161.7351 O   0  0  0  0  0  0  0  0  0  0  0  0
  153.3977  141.4966  161.4016 C   0  0  1  0  0  0  0  0  0  0  0  0
  153.1341  142.8493  162.1030 C   0  0  0  0  0  0  0  0  0  0  0  0
  153.3613  142.8062  163.6253 C   0  0  0  0  0  0  0  0  0  0  0  0
  151.7221  143.3643  161.7826 C   0  0  0  0  0  0  0  0  0  0  0  0
  150.3907  138.8973  154.1162 C   0  0  0  0  0  0  0  0  0  0  0  0
  149.2293  138.4886  153.5598 N   0  3  0  0  0  0  0  0  0  0  0  0
  146.0654  139.3612  152.9419 H   0  0  0  0  0  0  0  0  0  0  0  0
  146.3907  137.7828  153.6689 H   0  0  0  0  0  0  0  0  0  0  0  0
  147.0610  138.1847  152.0819 H   0  0  0  0  0  0  0  0  0  0  0  0
  147.0934  140.8288  154.7036 H   0  0  0  0  0  0  0  0  0  0  0  0
  149.1971  141.6401  155.7689 H   0  0  0  0  0  0  0  0  0  0  0  0
  152.5502  139.9733  155.1281 H   0  0  0  0  0  0  0  0  0  0  0  0
  151.8749  141.5743  155.3503 H   0  0  0  0  0  0  0  0  0  0  0  0
  152.0757  142.2846  157.3682 H   0  0  0  0  0  0  0  0  0  0  0  0
  151.3059  142.2652  159.6544 H   0  0  0  0  0  0  0  0  0  0  0  0
  151.4087  140.5233  159.6487 H   0  0  0  0  0  0  0  0  0  0  0  0
  153.8303  142.3983  159.4832 H   0  0  0  0  0  0  0  0  0  0  0  0
  153.6572  139.3824  159.6762 H   0  0  0  0  0  0  0  0  0  0  0  0
  154.5923  140.3310  158.5132 H   0  0  0  0  0  0  0  0  0  0  0  0
  155.7825  139.4731  160.8015 H   0  0  0  0  0  0  0  0  0  0  0  0
  156.0858  141.1204  160.2418 H   0  0  0  0  0  0  0  0  0  0  0  0
  152.6741  140.7631  161.7617 H   0  0  0  0  0  0  0  0  0  0  0  0
  153.8340  143.5768  161.6908 H   0  0  0  0  0  0  0  0  0  0  0  0
  152.7127  142.0725  164.1045 H   0  0  0  0  0  0  0  0  0  0  0  0
  153.1491  143.7753  164.0774 H   0  0  0  0  0  0  0  0  0  0  0  0
  154.3910  142.5583  163.8792 H   0  0  0  0  0  0  0  0  0  0  0  0
  150.9568  142.6884  162.1652 H   0  0  0  0  0  0  0  0  0  0  0  0
  151.5723  143.4620  160.7070 H   0  0  0  0  0  0  0  0  0  0  0  0
  151.5507  144.3456  162.2260 H   0  0  0  0  0  0  0  0  0  0  0  0
  151.2576  138.2912  153.8971 H   0  0  0  0  0  0  0  0  0  0  0  0
  149.2362  137.6510  152.9774 H   0  0  0  0  0  0  0  0  0  0  0  0
  1  2  1  0  0  0  0
  1 21  1  0  0  0  0
  1 22  1  0  0  0  0
  1 23  1  0  0  0  0
  2 20  1  0  0  0  0
  2  3  2  0  0  0  0
  3  4  1  0  0  0  0
  3 24  1  0  0  0  0
  4  5  2  0  0  0  0
  4 25  1  0  0  0  0
  5  6  1  0  0  0  0
  5 19  1  0  0  0  0
  6  7  1  0  0  0  0
  6 26  1  0  0  0  0
  6 27  1  0  0  0  0
  7  8  2  0  0  0  0
  7  9  1  0  0  0  0
  9 10  1  0  0  0  0
  9 28  1  0  0  0  0
 10 11  1  0  0  0  0
 10 29  1  0  0  0  0
 10 30  1  0  0  0  0
 11 15  1  0  0  0  0
 11 12  1  0  0  0  0
 11 31  1  0  0  0  0
 12 13  1  0  0  0  0
 12 32  1  0  0  0  0
 12 33  1  0  0  0  0
 13 14  1  0  0  0  0
 13 34  1  0  0  0  0
 13 35  1  0  0  0  0
 14 15  1  0  0  0  0
 15 16  1  0  0  0  0
 15 36  1  0  0  0  0
 16 17  1  0  0  0  0
 16 18  1  0  0  0  0
 16 37  1  0  0  0  0
 17 38  1  0  0  0  0
 17 39  1  0  0  0  0
 17 40  1  0  0  0  0
 18 41  1  0  0  0  0
 18 42  1  0  0  0  0
 18 43  1  0  0  0  0
 19 20  2  0  0  0  0
 19 44  1  0  0  0  0
 20 45  1  0  0  0  0
M  CHG  1  20   1
M  END
> <s_m_source_file>
AV-unprocessed.smi

> <i_m_source_file_index>
653

> <i_lp_mmshare_version>
43012

> <i_f3d_flags>
0

> <s_epik_input>
W0NIM11jMVtjSF1bY0hdYyhbY0hdbjEpW0NIMl1DKD1PKVtOSF1bQ0gyXVtDQEBIXTJbQ0gyXVtDSDJdT1tDQEhdMltDSF0oW0NIM10pW0NIM10=

> <s_epik_cmdline>
J2VwaWtfcHl0aG9uJywgJy1waCcsICc3LjAnLCAnLXRuJywgJzgnLCAnLW1hJywgJzIwMCcsICctbWV0YWxfYmluZGluZycsICctaW1hZScsICc8aW5maWxlLm1hZT4nLCAnLW9tYWUnLCAnPG91dGZpbGUubWFlPic=

> <r_epik_Ionization_Penalty>
2.12486

> <r_epik_Ionization_Penalty_Charging>
2.12486

> <r_epik_Ionization_Penalty_Neutral>
9.0873e-08

> <r_epik_State_Penalty>
2.26279

> <r_epik_Charging_Adjusted_Penalty>
4.38765

> <i_epik_Tot_Q>
1

> <i_epik_Tot_abs_Q>
1

> <r_epik_Metal_State_Penalty>
2.27914

> <b_epik_Metal_Only>
0

> <s_lp_Force_Field>
OPLS_2005

> <r_lp_Energy>
26.2023

> <b_lp_Chiralities_Consistent>
1

> <s_lp_Variant>
AV-unprocessed.smi:653-5

> <Gold.Version>
5.8.1

> <Gold.Id.Protein>
6NUR|6NUR_protein|mol2

> <Gold.PLP.Fitness>
48.4800

> <Gold.PLP.PLP>
-42.8672

> <Gold.PLP.part.hbond>
-2.9087

> <Gold.PLP.part.metal>
0.0000

> <Gold.PLP.part.buried>
-2.2185

> <Gold.PLP.part.nonpolar>
-37.0188

> <Gold.PLP.part.repulsive>
0.1250

> <Gold.PLP.ligand.clash>
0.0000

> <Gold.PLP.ligand.torsion>
0.2220

> <Gold.PLP.Chemscore.Hbond>
2.0000

> <Gold.PLP.Chemscore.CHOScore>
0.0000

> <Gold.PLP.Chemscore.Metal>
0.0000

> <Gold.Chemscore.Hbonds>
donor molecule, donor type, donor heavy atom, donor atom, acceptor molecule, acceptor atom, score
      L1  H    20    45       P1  7948  2.00

> <Gold.PLP.Chemscore.Internal.Correction>
0.0568

> <Gold.Rescore>
     Score         DG    S(hbond)    S(metal)    S(lipo)     H(rot)  DE(clash)    DE(int)     intcor
     19.08     -19.30       1.00        0.00     123.98       1.57       0.05       0.17       ----

> <Gold.Chemscore.Fitness>
19.0827

> <Gold.Chemscore.DG>
-19.3012

> <Gold.Chemscore.ZeroCoef>
-5.4800

> <Gold.Chemscore.Hbond>
0.9985

> <Gold.Chemscore.Metal>
0.0000

> <Gold.Chemscore.Lipo>
123.9825

> <Gold.Chemscore.Internal_Hbond>
0.0000

> <Gold.Chemscore.DEClash>
0.0481

> <Gold.Chemscore.DEInternal>
0.1705

> <Gold.Chemscore.Rot>
1.5701

> <Gold.Chemscore.Internal.Correction>
   9.000000E+99

> <Gold.Chemscore.Hbonds>
donor molecule, donor type, donor heavy atom, donor atom, acceptor molecule, acceptor atom, score
      L1  H    20    45       P1  7948  0.98

> <Gold.Chemscore.Hbond.Weighted>
-3.3348

> <Gold.Chemscore.Metal.Weighted>
-0.0000

> <Gold.Chemscore.Lipo.Weighted>
-14.5060

> <Gold.Chemscore.Internal_Hbond.Weighted>
0.0000

> <Gold.Chemscore.DEClash.Weighted>
0.0481

> <Gold.Chemscore.DEInternal.Weighted>
0.1705

> <Gold.Chemscore.Rot.Weighted>
4.0196

> <Gold.Chemscore.Internal.Correction.Weighted>
   9.000000E+99

> <Gold.Protein.RotatedTorsions>
[ 6907 6896 6895 6894 ] final -121.58 input  -60.11 | X-H torsion
[ 7974 7965 7964 7962 ] final   33.78 input  175.53 | X-H torsion
[ 8008 7997 7996 7995 ] final  138.67 input   59.86 | X-H torsion
[ 10167 10162 10161 10158 ] final  145.59 input  -65.29 | X-H torsion
[ 10718 10713 10712 10709 ] final  171.52 input   66.30 | X-H torsion
[ 10763 10752 10751 10750 ] final -136.79 input  -60.55 | X-H torsion
[ 11005 11000 10999 10996 ] final -115.54 input  -57.11 | X-H torsion

> <Gold.Protein.ActiveResidues>
 VAL166  LYS551  ARG553  GLY616  TRP617  ASP618  TYR619  PRO620  LYS621  CYS622 
 ASP623  PHE694  ASN695  SER759  ASP760  ASP761  ALA762  ILE779  LEU786  VAL792 
 PHE793  MET794  SER795  GLU796  ALA797  LYS798  CYS799  TRP800  GLU811  SER814 

> <Gold.Protein.RotatedAtoms>
  150.8497  133.7806  159.3029 H   0  0  0  0  0  0  0  0  0  0  0  0  # atno 6907 bound_to 6896
  151.5482  135.1066  159.9953 H   0  0  0  0  0  0  0  0  0  0  0  0  # atno 6908 bound_to 6896
  152.4542  133.7647  159.6822 H   0  0  0  0  0  0  0  0  0  0  0  0  # atno 6909 bound_to 6896
  146.1398  139.6353  142.9171 H   0  0  0  0  0  0  0  0  0  0  0  0  # atno 7974 bound_to 7965
  156.2996  140.2387  156.4112 H   0  0  0  0  0  0  0  0  0  0  0  0  # atno 8008 bound_to 7997
  154.8439  140.0427  157.1580 H   0  0  0  0  0  0  0  0  0  0  0  0  # atno 8009 bound_to 7997
  154.9072  140.2985  155.5289 H   0  0  0  0  0  0  0  0  0  0  0  0  # atno 8010 bound_to 7997
  139.4923  144.5890  151.6718 H   0  0  0  0  0  0  0  0  0  0  0  0  # atno 10167 bound_to 10162
  156.9923  131.0151  151.2853 H   0  0  0  0  0  0  0  0  0  0  0  0  # atno 10718 bound_to 10713
  154.8676  135.3662  154.5118 H   0  0  0  0  0  0  0  0  0  0  0  0  # atno 10763 bound_to 10752
  153.5753  135.7019  153.5492 H   0  0  0  0  0  0  0  0  0  0  0  0  # atno 10764 bound_to 10752
  153.3506  135.4073  155.1605 H   0  0  0  0  0  0  0  0  0  0  0  0  # atno 10765 bound_to 10752
  141.0481  133.9731  157.2884 H   0  0  0  0  0  0  0  0  0  0  0  0  # atno 11005 bound_to 11000
  145.5074  141.0436  143.2507 LP  0  0  0  0  0  0  0  0  0  0  0  0  # atno 17320 bound_to 7965
  144.7779  139.6589  143.7167 LP  0  0  0  0  0  0  0  0  0  0  0  0  # atno 17321 bound_to 7965
  140.5513  144.0420  150.6128 LP  0  0  0  0  0  0  0  0  0  0  0  0  # atno 17342 bound_to 10162
  140.3475  143.2982  152.0522 LP  0  0  0  0  0  0  0  0  0  0  0  0  # atno 17343 bound_to 10162
  157.5450  130.8144  149.8074 LP  0  0  0  0  0  0  0  0  0  0  0  0  # atno 17370 bound_to 10713
  156.0202  130.3798  150.1985 LP  0  0  0  0  0  0  0  0  0  0  0  0  # atno 17371 bound_to 10713
  139.9328  135.0199  156.8456 LP  0  0  0  0  0  0  0  0  0  0  0  0  # atno 17394 bound_to 11000
  140.6109  134.0084  155.7576 LP  0  0  0  0  0  0  0  0  0  0  0  0  # atno 17395 bound_to 11000

$$$$
