AV-unprocessed.smi:1893|AV-procd|sdf|7677|dock7
  -GOLD-   22720 9413D 1   1.00000     0.00000
 Structure written by MMmdl.
 43 44  0  0  0  0  0  0  0  0  2 V2000
  143.8259  135.9529  150.9469 C   0  0  0  0  0  0  0  0  0  0  0  0
  145.3587  135.7637  150.9545 C   0  0  2  0  0  0  0  0  0  0  0  0
  145.7742  134.3213  150.5960 C   0  0  0  0  0  0  0  0  0  0  0  0
  145.4862  133.3359  151.7383 C   0  0  0  0  0  0  0  0  0  0  0  0
  146.1426  133.8278  153.0338 C   0  0  0  0  0  0  0  0  0  0  0  0
  145.7107  135.2656  153.3656 C   0  0  0  0  0  0  0  0  0  0  0  0
  146.0028  136.1878  152.2341 N   0  3  2  0  0  0  0  0  0  0  0  0
  145.7880  137.6204  152.5628 C   0  0  0  0  0  0  0  0  0  0  0  0
  146.4906  138.5617  151.5656 C   0  0  0  0  0  0  0  0  0  0  0  0
  147.0851  139.7046  152.2472 N   0  0  0  0  0  0  0  0  0  0  0  0
  147.8604  139.6298  153.3411 C   0  0  0  0  0  0  0  0  0  0  0  0
  148.1159  138.5654  153.9057 O   0  0  0  0  0  0  0  0  0  0  0  0
  148.4341  140.9583  153.8620 C   0  0  1  0  0  0  0  0  0  0  0  0
  147.3437  141.9929  154.2070 C   0  0  0  0  0  0  0  0  0  0  0  0
  149.3272  140.7178  154.9893 N   0  0  0  0  0  0  0  0  0  0  0  0
  149.4219  141.3515  156.1602 C   0  0  0  0  0  0  0  0  0  0  0  0
  150.3855  140.8914  156.9454 N   0  0  0  0  0  0  0  0  0  0  0  0
  150.8843  139.9062  156.1411 C   0  0  0  0  0  0  0  0  0  0  0  0
  150.2943  139.7672  154.9541 N   0  0  0  0  0  0  0  0  0  0  0  0
  143.4065  135.6455  149.9886 H   0  0  0  0  0  0  0  0  0  0  0  0
  143.5462  136.9961  151.0937 H   0  0  0  0  0  0  0  0  0  0  0  0
  143.3297  135.3662  151.7192 H   0  0  0  0  0  0  0  0  0  0  0  0
  145.7596  136.4060  150.1688 H   0  0  0  0  0  0  0  0  0  0  0  0
  145.2702  133.9962  149.6852 H   0  0  0  0  0  0  0  0  0  0  0  0
  146.8420  134.3020  150.3729 H   0  0  0  0  0  0  0  0  0  0  0  0
  144.4107  133.2306  151.8830 H   0  0  0  0  0  0  0  0  0  0  0  0
  145.8609  132.3447  151.4813 H   0  0  0  0  0  0  0  0  0  0  0  0
  145.8853  133.1616  153.8577 H   0  0  0  0  0  0  0  0  0  0  0  0
  147.2280  133.7877  152.9317 H   0  0  0  0  0  0  0  0  0  0  0  0
  144.6488  135.2961  153.6111 H   0  0  0  0  0  0  0  0  0  0  0  0
  146.2411  135.5886  154.2604 H   0  0  0  0  0  0  0  0  0  0  0  0
  144.7180  137.8322  152.5382 H   0  0  0  0  0  0  0  0  0  0  0  0
  146.1191  137.8232  153.5826 H   0  0  0  0  0  0  0  0  0  0  0  0
  147.2924  138.0446  151.0398 H   0  0  0  0  0  0  0  0  0  0  0  0
  145.7894  138.9052  150.8030 H   0  0  0  0  0  0  0  0  0  0  0  0
  146.9162  140.6159  151.8463 H   0  0  0  0  0  0  0  0  0  0  0  0
  149.0385  141.3811  153.0578 H   0  0  0  0  0  0  0  0  0  0  0  0
  146.7282  142.2220  153.3364 H   0  0  0  0  0  0  0  0  0  0  0  0
  147.7903  142.9285  154.5448 H   0  0  0  0  0  0  0  0  0  0  0  0
  146.6803  141.6403  154.9980 H   0  0  0  0  0  0  0  0  0  0  0  0
  148.7763  142.1707  156.4420 H   0  0  0  0  0  0  0  0  0  0  0  0
  151.7119  139.2778  156.4363 H   0  0  0  0  0  0  0  0  0  0  0  0
  146.9943  136.1025  152.0613 H   0  0  0  0  0  0  0  0  0  0  0  0
  1  2  1  0  0  0  0
  1 20  1  0  0  0  0
  1 21  1  0  0  0  0
  1 22  1  0  0  0  0
  2  7  1  0  0  0  0
  2  3  1  0  0  0  0
  2 23  1  0  0  0  0
  3  4  1  0  0  0  0
  3 24  1  0  0  0  0
  3 25  1  0  0  0  0
  4  5  1  0  0  0  0
  4 26  1  0  0  0  0
  4 27  1  0  0  0  0
  5  6  1  0  0  0  0
  5 28  1  0  0  0  0
  5 29  1  0  0  0  0
  6  7  1  0  0  0  0
  6 30  1  0  0  0  0
  6 31  1  0  0  0  0
  7  8  1  0  0  0  0
  7 43  1  0  0  0  0
  8  9  1  0  0  0  0
  8 32  1  0  0  0  0
  8 33  1  0  0  0  0
  9 10  1  0  0  0  0
  9 34  1  0  0  0  0
  9 35  1  0  0  0  0
 10 11  1  0  0  0  0
 10 36  1  0  0  0  0
 11 12  2  0  0  0  0
 11 13  1  0  0  0  0
 13 14  1  0  0  0  0
 13 15  1  0  0  0  0
 13 37  1  0  0  0  0
 14 38  1  0  0  0  0
 14 39  1  0  0  0  0
 14 40  1  0  0  0  0
 15 19  1  0  0  0  0
 15 16  1  0  0  0  0
 16 17  2  0  0  0  0
 16 41  1  0  0  0  0
 17 18  1  0  0  0  0
 18 19  2  0  0  0  0
 18 42  1  0  0  0  0
M  CHG  1   7   1
M  END
> <s_m_source_file>
AV-unprocessed.smi

> <i_m_source_file_index>
1893

> <i_lp_mmshare_version>
43012

> <i_f3d_flags>
0

> <s_epik_input>
W0NIM11bQ0BASF0xW0NIMl1bQ0gyXVtDSDJdW0NIMl1OMVtDSDJdW0NIMl1bTkhdQyg9TylbQ0BIXShbQ0gzXSluMltjSF1uW2NIXW4y

> <s_epik_cmdline>
J2VwaWtfcHl0aG9uJywgJy1waCcsICc3LjAnLCAnLXRuJywgJzgnLCAnLW1hJywgJzIwMCcsICctbWV0YWxfYmluZGluZycsICctaW1hZScsICc8aW5maWxlLm1hZT4nLCAnLW9tYWUnLCAnPG91dGZpbGUubWFlPic=

> <r_lp_tautomer_probability>
1

> <r_epik_Ionization_Penalty>
0.00266409

> <r_epik_Ionization_Penalty_Charging>
0.00265606

> <r_epik_Ionization_Penalty_Neutral>
8.02794e-06

> <r_epik_State_Penalty>
0.00184955

> <r_epik_Charging_Adjusted_Penalty>
0.00450561

> <i_epik_Tot_Q>
1

> <i_epik_Tot_abs_Q>
1

> <r_epik_Metal_State_Penalty>
-0

> <b_epik_Metal_Only>
0

> <s_lp_Force_Field>
OPLS_2005

> <r_lp_Energy>
24.5349

> <b_lp_Chiralities_Consistent>
1

> <s_lp_Variant>
AV-unprocessed.smi:1893-7

> <Gold.Version>
5.8.1

> <Gold.Id.Protein>
6NUR|6NUR_protein|mol2

> <Gold.PLP.Fitness>
45.9022

> <Gold.PLP.PLP>
-35.2236

> <Gold.PLP.part.hbond>
-3.0000

> <Gold.PLP.part.metal>
0.0000

> <Gold.PLP.part.buried>
0.2895

> <Gold.PLP.part.nonpolar>
-32.6820

> <Gold.PLP.part.repulsive>
0.4197

> <Gold.PLP.ligand.clash>
0.0000

> <Gold.PLP.ligand.torsion>
0.6575

> <Gold.PLP.Chemscore.Hbond>
3.0000

> <Gold.PLP.Chemscore.CHOScore>
0.9496

> <Gold.PLP.Chemscore.Metal>
0.0000

> <Gold.Chemscore.Hbonds>
donor molecule, donor type, donor heavy atom, donor atom, acceptor molecule, acceptor atom, score
      L1  H     7    43       P1  7948  2.00
      P1  H  7989  7998       L1    19  0.32
      L1  C    16    41       P1  8028  0.65

> <Gold.PLP.Chemscore.Internal.Correction>
0.1448

> <Gold.Rescore>
     Score         DG    S(hbond)    S(metal)    S(lipo)     H(rot)  DE(clash)    DE(int)     intcor
      8.59     -11.77       1.92        0.00      54.61       2.54       0.17       3.01       ----

> <Gold.Chemscore.Fitness>
8.5881

> <Gold.Chemscore.DG>
-11.7722

> <Gold.Chemscore.ZeroCoef>
-5.4800

> <Gold.Chemscore.Hbond>
1.9161

> <Gold.Chemscore.Metal>
0.0000

> <Gold.Chemscore.Lipo>
54.6075

> <Gold.Chemscore.Internal_Hbond>
0.0000

> <Gold.Chemscore.DEClash>
0.1702

> <Gold.Chemscore.DEInternal>
3.0138

> <Gold.Chemscore.Rot>
2.5377

> <Gold.Chemscore.Internal.Correction>
   9.000000E+99

> <Gold.Chemscore.Hbonds>
donor molecule, donor type, donor heavy atom, donor atom, acceptor molecule, acceptor atom, score
      L1  H     7    43       P1  7948  0.99
      P1  H  7989  7998       L1    19  0.02

> <Gold.Chemscore.Hbond.Weighted>
-6.3997

> <Gold.Chemscore.Metal.Weighted>
-0.0000

> <Gold.Chemscore.Lipo.Weighted>
-6.3891

> <Gold.Chemscore.Internal_Hbond.Weighted>
0.0000

> <Gold.Chemscore.DEClash.Weighted>
0.1702

> <Gold.Chemscore.DEInternal.Weighted>
3.0138

> <Gold.Chemscore.Rot.Weighted>
6.4966

> <Gold.Chemscore.Internal.Correction.Weighted>
   9.000000E+99

> <Gold.Protein.RotatedTorsions>
[ 6907 6896 6895 6894 ] final   -4.41 input  -60.11 | X-H torsion
[ 7974 7965 7964 7962 ] final   55.33 input  175.53 | X-H torsion
[ 8008 7997 7996 7995 ] final   51.75 input   59.86 | X-H torsion
[ 10167 10162 10161 10158 ] final  -88.23 input  -65.29 | X-H torsion
[ 10718 10713 10712 10709 ] final -157.64 input   66.30 | X-H torsion
[ 10763 10752 10751 10750 ] final  -44.94 input  -60.55 | X-H torsion
[ 11005 11000 10999 10996 ] final   10.24 input  -57.11 | X-H torsion

> <Gold.Protein.ActiveResidues>
 VAL166  LYS551  ARG553  GLY616  TRP617  ASP618  TYR619  PRO620  LYS621  CYS622 
 ASP623  PHE694  ASN695  SER759  ASP760  ASP761  ALA762  ILE779  LEU786  VAL792 
 PHE793  MET794  SER795  GLU796  ALA797  LYS798  CYS799  TRP800  GLU811  SER814 

> <Gold.Protein.RotatedAtoms>
  151.4981  135.1060  159.9821 H   0  0  0  0  0  0  0  0  0  0  0  0  # atno 6907 bound_to 6896
  152.4713  133.8032  159.6974 H   0  0  0  0  0  0  0  0  0  0  0  0  # atno 6908 bound_to 6896
  150.8724  133.7424  159.2983 H   0  0  0  0  0  0  0  0  0  0  0  0  # atno 6909 bound_to 6896
  145.9516  139.3977  143.0303 H   0  0  0  0  0  0  0  0  0  0  0  0  # atno 7974 bound_to 7965
  155.4405  140.3454  155.4289 H   0  0  0  0  0  0  0  0  0  0  0  0  # atno 8008 bound_to 7997
  156.1282  140.1506  156.9136 H   0  0  0  0  0  0  0  0  0  0  0  0  # atno 8009 bound_to 7997
  154.4874  140.0851  156.7497 H   0  0  0  0  0  0  0  0  0  0  0  0  # atno 8010 bound_to 7997
  140.3767  143.2768  151.9434 H   0  0  0  0  0  0  0  0  0  0  0  0  # atno 10167 bound_to 10162
  156.5430  130.8572  151.2755 H   0  0  0  0  0  0  0  0  0  0  0  0  # atno 10718 bound_to 10713
  154.0203  135.6670  153.4772 H   0  0  0  0  0  0  0  0  0  0  0  0  # atno 10763 bound_to 10752
  153.0583  135.5043  154.8029 H   0  0  0  0  0  0  0  0  0  0  0  0  # atno 10764 bound_to 10752
  154.6941  135.3067  154.9401 H   0  0  0  0  0  0  0  0  0  0  0  0  # atno 10765 bound_to 10752
  140.5168  134.0598  155.7833 H   0  0  0  0  0  0  0  0  0  0  0  0  # atno 11005 bound_to 11000
  145.8164  140.9701  143.0922 LP  0  0  0  0  0  0  0  0  0  0  0  0  # atno 17320 bound_to 7965
  144.6797  139.9985  143.7484 LP  0  0  0  0  0  0  0  0  0  0  0  0  # atno 17321 bound_to 7965
  139.4799  144.5857  151.7858 LP  0  0  0  0  0  0  0  0  0  0  0  0  # atno 17342 bound_to 10162
  140.4979  144.1213  150.5964 LP  0  0  0  0  0  0  0  0  0  0  0  0  # atno 17343 bound_to 10162
  157.7402  130.9845  150.2360 LP  0  0  0  0  0  0  0  0  0  0  0  0  # atno 17370 bound_to 10713
  156.2954  130.3751  149.7801 LP  0  0  0  0  0  0  0  0  0  0  0  0  # atno 17371 bound_to 10713
  141.1356  133.9227  157.2441 LP  0  0  0  0  0  0  0  0  0  0  0  0  # atno 17394 bound_to 11000
  139.9628  135.0150  156.9307 LP  0  0  0  0  0  0  0  0  0  0  0  0  # atno 17395 bound_to 11000

$$$$
