AV-unprocessed.smi:156|AV-procd|sdf|1287|dock2
  -GOLD-   2262018563D 1   1.00000     0.00000
 Structure written by MMmdl.
 51 53  0  0  0  0  0  0  0  0  1 V2000
  146.9133  137.3166  157.0585 C   0  0  0  0  0  0  0  0  0  0  0  0
  145.8933  136.2544  157.5252 C   0  0  2  0  0  0  0  0  0  0  0  0
  146.4897  135.0641  158.3401 C   0  0  2  0  0  0  0  0  0  0  0  0
  145.3742  134.2634  159.0412 C   0  0  0  0  0  0  0  0  0  0  0  0
  147.7390  135.6423  159.5934 S   0  0  0  0  0  0  0  0  0  0  0  0
  147.1584  134.8809  161.1671 C   0  0  0  0  0  0  0  0  0  0  0  0
  149.0409  135.0385  159.2706 O   0  0  0  0  0  0  0  0  0  0  0  0
  147.6295  137.1031  159.7255 O   0  0  0  0  0  0  0  0  0  0  0  0
  145.0194  135.8191  156.4230 N   0  0  0  0  0  0  0  0  0  0  0  0
  143.8798  136.6622  156.0763 C   0  0  0  0  0  0  0  0  0  0  0  0
  145.4764  135.0515  155.3971 C   0  0  0  0  0  0  0  0  0  0  0  0
  146.2799  133.9842  155.6453 N   0  0  0  0  0  0  0  0  0  0  0  0
  146.7399  133.2323  154.6419 C   0  0  0  0  0  0  0  0  0  0  0  0
  146.5259  133.3687  153.3327 N   0  0  0  0  0  0  0  0  0  0  0  0
  145.7234  134.4395  153.0715 C   0  0  0  0  0  0  0  0  0  0  0  0
  145.1602  135.3241  154.0350 C   0  0  0  0  0  0  0  0  0  0  0  0
  144.3841  136.2829  153.3954 N   0  0  0  0  0  0  0  0  0  0  0  0
  144.4869  135.9864  152.1290 C   0  0  0  0  0  0  0  0  0  0  0  0
  145.2840  134.9011  151.8418 N   0  0  0  0  0  0  0  0  0  0  0  0
  145.5690  134.3495  150.5244 C   0  0  0  0  0  0  0  0  0  0  0  0
  144.8166  133.0393  150.2061 C   0  0  0  0  0  0  0  0  0  0  0  0
  143.4432  133.3409  149.5829 C   0  0  0  0  0  0  0  0  0  0  0  0
  142.8067  132.1550  149.1533 O   0  0  0  0  0  0  0  0  0  0  0  0
  145.6510  131.9787  149.4749 C   0  0  0  0  0  0  0  0  0  0  0  0
  145.7663  131.1557  150.6543 O   0  0  0  0  0  0  0  0  0  0  0  0
  144.8051  131.9924  151.3306 C   0  0  0  0  0  0  0  0  0  0  0  0
  147.3275  137.8686  157.9012 H   0  0  0  0  0  0  0  0  0  0  0  0
  146.4479  138.0575  156.4085 H   0  0  0  0  0  0  0  0  0  0  0  0
  147.7456  136.8752  156.5109 H   0  0  0  0  0  0  0  0  0  0  0  0
  145.2311  136.7769  158.2171 H   0  0  0  0  0  0  0  0  0  0  0  0
  147.0331  134.3903  157.6798 H   0  0  0  0  0  0  0  0  0  0  0  0
  144.6142  133.9275  158.3359 H   0  0  0  0  0  0  0  0  0  0  0  0
  144.8749  134.8642  159.8017 H   0  0  0  0  0  0  0  0  0  0  0  0
  145.7605  133.3653  159.5201 H   0  0  0  0  0  0  0  0  0  0  0  0
  147.9167  135.0285  161.9357 H   0  0  0  0  0  0  0  0  0  0  0  0
  146.9983  133.8126  161.0215 H   0  0  0  0  0  0  0  0  0  0  0  0
  146.2329  135.3538  161.4935 H   0  0  0  0  0  0  0  0  0  0  0  0
  143.9489  137.0177  155.0473 H   0  0  0  0  0  0  0  0  0  0  0  0
  143.8228  137.5364  156.7254 H   0  0  0  0  0  0  0  0  0  0  0  0
  142.9485  136.1074  156.1888 H   0  0  0  0  0  0  0  0  0  0  0  0
  147.3705  132.4041  154.9295 H   0  0  0  0  0  0  0  0  0  0  0  0
  143.9742  136.5551  151.3676 H   0  0  0  0  0  0  0  0  0  0  0  0
  145.3450  135.1115  149.7772 H   0  0  0  0  0  0  0  0  0  0  0  0
  146.6464  134.1919  150.4606 H   0  0  0  0  0  0  0  0  0  0  0  0
  142.7878  133.8222  150.3095 H   0  0  0  0  0  0  0  0  0  0  0  0
  143.5212  134.0323  148.7439 H   0  0  0  0  0  0  0  0  0  0  0  0
  141.9360  132.1305  149.5200 H   0  0  0  0  0  0  0  0  0  0  0  0
  145.1149  131.4664  148.6746 H   0  0  0  0  0  0  0  0  0  0  0  0
  146.6177  132.3409  149.1232 H   0  0  0  0  0  0  0  0  0  0  0  0
  145.1796  132.3503  152.2886 H   0  0  0  0  0  0  0  0  0  0  0  0
  143.8468  131.4864  151.4568 H   0  0  0  0  0  0  0  0  0  0  0  0
  1  2  1  0  0  0  0
  1 27  1  0  0  0  0
  1 28  1  0  0  0  0
  1 29  1  0  0  0  0
  2  3  1  0  0  0  0
  2  9  1  0  0  0  0
  2 30  1  0  0  0  0
  3  4  1  0  0  0  0
  3  5  1  0  0  0  0
  3 31  1  0  0  0  0
  4 32  1  0  0  0  0
  4 33  1  0  0  0  0
  4 34  1  0  0  0  0
  5  6  1  0  0  0  0
  5  7  2  0  0  0  0
  5  8  2  0  0  0  0
  6 35  1  0  0  0  0
  6 36  1  0  0  0  0
  6 37  1  0  0  0  0
  9 10  1  0  0  0  0
  9 11  1  0  0  0  0
 10 38  1  0  0  0  0
 10 39  1  0  0  0  0
 10 40  1  0  0  0  0
 11 16  1  0  0  0  0
 11 12  2  0  0  0  0
 12 13  1  0  0  0  0
 13 14  2  0  0  0  0
 13 41  1  0  0  0  0
 14 15  1  0  0  0  0
 15 19  1  0  0  0  0
 15 16  2  0  0  0  0
 16 17  1  0  0  0  0
 17 18  2  0  0  0  0
 18 19  1  0  0  0  0
 18 42  1  0  0  0  0
 19 20  1  0  0  0  0
 20 21  1  0  0  0  0
 20 43  1  0  0  0  0
 20 44  1  0  0  0  0
 21 26  1  0  0  0  0
 21 22  1  0  0  0  0
 21 24  1  0  0  0  0
 22 23  1  0  0  0  0
 22 45  1  0  0  0  0
 22 46  1  0  0  0  0
 23 47  1  0  0  0  0
 24 25  1  0  0  0  0
 24 48  1  0  0  0  0
 24 49  1  0  0  0  0
 25 26  1  0  0  0  0
 26 50  1  0  0  0  0
 26 51  1  0  0  0  0
M  END
> <s_m_source_file>
AV-unprocessed.smi

> <i_m_source_file_index>
156

> <i_lp_mmshare_version>
43012

> <i_f3d_flags>
0

> <s_epik_input>
W0NIM11TKD1PKSg9TylbQ0BASF0oW0NIM10pW0NAQEhdKFtDSDNdKU4oW0NIM10pYyhuW2NIXW4xKWMoYzEyKW5bY0hdbjJbQ0gyXUMzKFtDSDJdW09IXSlbQ0gyXU9bQ0gyXTM=

> <s_epik_cmdline>
J2VwaWtfcHl0aG9uJywgJy1waCcsICc3LjAnLCAnLXRuJywgJzgnLCAnLW1hJywgJzIwMCcsICctbWV0YWxfYmluZGluZycsICctaW1hZScsICc8aW5maWxlLm1hZT4nLCAnLW9tYWUnLCAnPG91dGZpbGUubWFlPic=

> <r_lp_tautomer_probability>
1

> <r_epik_Ionization_Penalty>
0.00107697

> <r_epik_Ionization_Penalty_Charging>
0

> <r_epik_Ionization_Penalty_Neutral>
0.00107697

> <r_epik_State_Penalty>
0.000614712

> <r_epik_Charging_Adjusted_Penalty>
0.000614712

> <i_epik_Tot_Q>
0

> <i_epik_Tot_abs_Q>
0

> <r_epik_Metal_State_Penalty>
-0

> <b_epik_Metal_Only>
0

> <s_lp_Force_Field>
OPLS_2005

> <r_lp_Energy>
28.4574

> <b_lp_Chiralities_Consistent>
1

> <s_lp_Variant>
AV-unprocessed.smi:156-1

> <Gold.Version>
5.8.1

> <Gold.Id.Protein>
6NUR|6NUR_protein|mol2

> <Gold.PLP.Fitness>
36.9160

> <Gold.PLP.PLP>
-26.0034

> <Gold.PLP.part.hbond>
-4.6912

> <Gold.PLP.part.metal>
0.0000

> <Gold.PLP.part.buried>
-3.1103

> <Gold.PLP.part.nonpolar>
-19.0816

> <Gold.PLP.part.repulsive>
0.3621

> <Gold.PLP.ligand.clash>
0.0000

> <Gold.PLP.ligand.torsion>
1.9175

> <Gold.PLP.Chemscore.Hbond>
3.3711

> <Gold.PLP.Chemscore.CHOScore>
1.0000

> <Gold.PLP.Chemscore.Metal>
0.0000

> <Gold.Chemscore.Hbonds>
donor molecule, donor type, donor heavy atom, donor atom, acceptor molecule, acceptor atom, score
      L1  H    23    47       P1 10952  0.38
      P1  H  6896  6909       L1     7  1.00
      P1  H  6934  6947       L1     8  0.28
      P1  H 10785 10796       L1    23  0.86
      L1  C    18    42       P1 10171  0.94

> <Gold.PLP.Chemscore.Internal.Correction>
1.6343

> <Gold.Rescore>
     Score         DG    S(hbond)    S(metal)    S(lipo)     H(rot)  DE(clash)    DE(int)     intcor
      9.57     -14.72       3.19        0.00      58.10       3.21       0.30       4.85       ----

> <Gold.Chemscore.Fitness>
9.5724

> <Gold.Chemscore.DG>
-14.7231

> <Gold.Chemscore.ZeroCoef>
-5.4800

> <Gold.Chemscore.Hbond>
3.1935

> <Gold.Chemscore.Metal>
0.0000

> <Gold.Chemscore.Lipo>
58.1046

> <Gold.Chemscore.Internal_Hbond>
0.0000

> <Gold.Chemscore.DEClash>
0.3013

> <Gold.Chemscore.DEInternal>
4.8493

> <Gold.Chemscore.Rot>
3.2115

> <Gold.Chemscore.Internal.Correction>
   9.000000E+99

> <Gold.Chemscore.Hbonds>
donor molecule, donor type, donor heavy atom, donor atom, acceptor molecule, acceptor atom, score
      L1  H    23    47       P1 10952  0.37
      P1  H  6896  6909       L1     7  1.00
      P1  H  6934  6947       L1     8  0.28
      P1  H 10785 10796       L1    23  0.33

> <Gold.Chemscore.Hbond.Weighted>
-10.6663

> <Gold.Chemscore.Metal.Weighted>
-0.0000

> <Gold.Chemscore.Lipo.Weighted>
-6.7982

> <Gold.Chemscore.Internal_Hbond.Weighted>
0.0000

> <Gold.Chemscore.DEClash.Weighted>
0.3013

> <Gold.Chemscore.DEInternal.Weighted>
4.8493

> <Gold.Chemscore.Rot.Weighted>
8.2215

> <Gold.Chemscore.Internal.Correction.Weighted>
   9.000000E+99

> <Gold.Protein.RotatedTorsions>
[ 6907 6896 6895 6894 ] final   52.10 input  -60.11 | X-H torsion
[ 7974 7965 7964 7962 ] final  -67.83 input  175.53 | X-H torsion
[ 8008 7997 7996 7995 ] final -138.06 input   59.86 | X-H torsion
[ 10167 10162 10161 10158 ] final    9.26 input  -65.29 | X-H torsion
[ 10718 10713 10712 10709 ] final  -42.84 input   66.30 | X-H torsion
[ 10763 10752 10751 10750 ] final  111.52 input  -60.55 | X-H torsion
[ 11005 11000 10999 10996 ] final  -44.89 input  -57.11 | X-H torsion

> <Gold.Protein.ActiveResidues>
 VAL166  LYS551  ARG553  GLY616  TRP617  ASP618  TYR619  PRO620  LYS621  CYS622 
 ASP623  PHE694  ASN695  SER759  ASP760  ASP761  ALA762  ILE779  LEU786  VAL792 
 PHE793  MET794  SER795  GLU796  ALA797  LYS798  CYS799  TRP800  GLU811  SER814 

> <Gold.Protein.RotatedAtoms>
  152.3197  134.7395  160.0316 H   0  0  0  0  0  0  0  0  0  0  0  0  # atno 6907 bound_to 6896
  151.7848  133.3348  159.3490 H   0  0  0  0  0  0  0  0  0  0  0  0  # atno 6908 bound_to 6896
  150.7363  134.5829  159.5992 H   0  0  0  0  0  0  0  0  0  0  0  0  # atno 6909 bound_to 6896
  145.7242  140.9025  143.0614 H   0  0  0  0  0  0  0  0  0  0  0  0  # atno 7974 bound_to 7965
  155.4221  140.0519  157.3025 H   0  0  0  0  0  0  0  0  0  0  0  0  # atno 8008 bound_to 7997
  154.4898  140.2115  155.9533 H   0  0  0  0  0  0  0  0  0  0  0  0  # atno 8009 bound_to 7997
  156.1326  140.3169  155.8377 H   0  0  0  0  0  0  0  0  0  0  0  0  # atno 8010 bound_to 7997
  140.6265  143.8089  150.7240 H   0  0  0  0  0  0  0  0  0  0  0  0  # atno 10167 bound_to 10162
  156.2553  130.4192  149.8604 H   0  0  0  0  0  0  0  0  0  0  0  0  # atno 10718 bound_to 10713
  153.4645  135.3714  155.2357 H   0  0  0  0  0  0  0  0  0  0  0  0  # atno 10763 bound_to 10752
  154.8757  135.3916  154.3885 H   0  0  0  0  0  0  0  0  0  0  0  0  # atno 10764 bound_to 10752
  153.4464  135.7085  153.6201 H   0  0  0  0  0  0  0  0  0  0  0  0  # atno 10765 bound_to 10752
  141.0480  133.6753  156.2937 H   0  0  0  0  0  0  0  0  0  0  0  0  # atno 11005 bound_to 11000
  144.6909  139.9243  143.7469 LP  0  0  0  0  0  0  0  0  0  0  0  0  # atno 17320 bound_to 7965
  146.0597  139.3592  143.0588 LP  0  0  0  0  0  0  0  0  0  0  0  0  # atno 17321 bound_to 7965
  140.1691  143.4210  152.2014 LP  0  0  0  0  0  0  0  0  0  0  0  0  # atno 17342 bound_to 10162
  139.5485  144.7318  151.4509 LP  0  0  0  0  0  0  0  0  0  0  0  0  # atno 17343 bound_to 10162
  156.6138  130.8598  151.3460 LP  0  0  0  0  0  0  0  0  0  0  0  0  # atno 17370 bound_to 10713
  157.7230  130.9584  150.1516 LP  0  0  0  0  0  0  0  0  0  0  0  0  # atno 17371 bound_to 10713
  140.6109  134.5459  157.5533 LP  0  0  0  0  0  0  0  0  0  0  0  0  # atno 17394 bound_to 11000
  139.9327  134.7932  156.0886 LP  0  0  0  0  0  0  0  0  0  0  0  0  # atno 17395 bound_to 11000

$$$$
