AV-unprocessed.smi:1641|AV-procd|sdf|6556|dock9
  -GOLD-   22720 7243D 1   1.00000     0.00000
 Structure written by MMmdl.
 41 42  0  0  0  0  0  0  0  0  1 V2000
  143.4694  133.3588  151.6379 C   0  0  0  0  0  0  0  0  0  0  0  0
  144.2082  134.6417  151.8124 C   0  0  0  0  0  0  0  0  0  0  0  0
  145.3975  134.8750  151.2442 N   0  0  0  0  0  0  0  0  0  0  0  0
  145.8875  136.1375  151.5486 N   0  0  0  0  0  0  0  0  0  0  0  0
  145.0498  136.8212  152.3402 C   0  0  0  0  0  0  0  0  0  0  0  0
  145.3021  138.1388  152.8063 N   0  0  0  0  0  0  0  0  0  0  0  0
  146.3090  138.5680  153.5873 C   0  0  0  0  0  0  0  0  0  0  0  0
  147.2059  137.8605  154.0473 O   0  0  0  0  0  0  0  0  0  0  0  0
  146.2176  139.8857  153.8169 N   0  0  0  0  0  0  0  0  0  0  0  0
  147.1452  140.6573  154.6351 C   0  0  0  0  0  0  0  0  0  0  0  0
  148.5828  140.5614  154.0906 C   0  0  0  0  0  0  0  0  0  0  0  0
  149.5890  140.1590  155.0715 N   0  0  0  0  0  0  0  0  0  0  0  0
  150.0531  141.2776  155.8889 C   0  0  0  0  0  0  0  0  0  0  0  0
  151.1325  140.8453  156.9005 C   0  0  2  0  0  0  0  0  0  0  0  0
  151.6863  142.0310  157.6973 C   0  0  0  0  0  0  0  0  0  0  0  0
  152.2129  140.2332  156.2011 O   0  0  0  0  0  0  0  0  0  0  0  0
  151.8155  139.1068  155.4243 C   0  0  2  0  0  0  0  0  0  0  0  0
  153.0581  138.5368  154.7323 C   0  0  0  0  0  0  0  0  0  0  0  0
  150.7391  139.5482  154.4149 C   0  0  0  0  0  0  0  0  0  0  0  0
  143.5776  135.9711  152.7774 S   0  0  0  0  0  0  0  0  0  0  0  0
  142.7708  133.4422  150.8053 H   0  0  0  0  0  0  0  0  0  0  0  0
  142.9101  133.1212  152.5429 H   0  0  0  0  0  0  0  0  0  0  0  0
  144.1637  132.5428  151.4342 H   0  0  0  0  0  0  0  0  0  0  0  0
  144.6338  138.8360  152.5134 H   0  0  0  0  0  0  0  0  0  0  0  0
  145.4501  140.3921  153.4002 H   0  0  0  0  0  0  0  0  0  0  0  0
  146.8044  141.6919  154.6874 H   0  0  0  0  0  0  0  0  0  0  0  0
  147.1071  140.2639  155.6514 H   0  0  0  0  0  0  0  0  0  0  0  0
  148.5780  139.8346  153.2769 H   0  0  0  0  0  0  0  0  0  0  0  0
  148.8714  141.5123  153.6398 H   0  0  0  0  0  0  0  0  0  0  0  0
  150.4515  142.0637  155.2453 H   0  0  0  0  0  0  0  0  0  0  0  0
  149.2195  141.7156  156.4369 H   0  0  0  0  0  0  0  0  0  0  0  0
  150.7082  140.1217  157.5989 H   0  0  0  0  0  0  0  0  0  0  0  0
  150.8958  142.5305  158.2580 H   0  0  0  0  0  0  0  0  0  0  0  0
  152.1473  142.7679  157.0387 H   0  0  0  0  0  0  0  0  0  0  0  0
  152.4427  141.7021  158.4103 H   0  0  0  0  0  0  0  0  0  0  0  0
  151.4038  138.3451  156.0885 H   0  0  0  0  0  0  0  0  0  0  0  0
  152.8054  137.6655  154.1277 H   0  0  0  0  0  0  0  0  0  0  0  0
  153.8046  138.2282  155.4644 H   0  0  0  0  0  0  0  0  0  0  0  0
  153.5192  139.2769  154.0778 H   0  0  0  0  0  0  0  0  0  0  0  0
  150.4148  138.6836  153.8345 H   0  0  0  0  0  0  0  0  0  0  0  0
  151.1748  140.2534  153.7049 H   0  0  0  0  0  0  0  0  0  0  0  0
  1  2  1  0  0  0  0
  1 21  1  0  0  0  0
  1 22  1  0  0  0  0
  1 23  1  0  0  0  0
  2 20  1  0  0  0  0
  2  3  2  0  0  0  0
  3  4  1  0  0  0  0
  4  5  2  0  0  0  0
  5  6  1  0  0  0  0
  5 20  1  0  0  0  0
  6  7  1  0  0  0  0
  6 24  1  0  0  0  0
  7  8  2  0  0  0  0
  7  9  1  0  0  0  0
  9 10  1  0  0  0  0
  9 25  1  0  0  0  0
 10 11  1  0  0  0  0
 10 26  1  0  0  0  0
 10 27  1  0  0  0  0
 11 12  1  0  0  0  0
 11 28  1  0  0  0  0
 11 29  1  0  0  0  0
 12 19  1  0  0  0  0
 12 13  1  0  0  0  0
 13 14  1  0  0  0  0
 13 30  1  0  0  0  0
 13 31  1  0  0  0  0
 14 15  1  0  0  0  0
 14 16  1  0  0  0  0
 14 32  1  0  0  0  0
 15 33  1  0  0  0  0
 15 34  1  0  0  0  0
 15 35  1  0  0  0  0
 16 17  1  0  0  0  0
 17 18  1  0  0  0  0
 17 19  1  0  0  0  0
 17 36  1  0  0  0  0
 18 37  1  0  0  0  0
 18 38  1  0  0  0  0
 18 39  1  0  0  0  0
 19 40  1  0  0  0  0
 19 41  1  0  0  0  0
M  END
> <s_m_source_file>
AV-unprocessed.smi

> <i_m_source_file_index>
1641

> <i_lp_mmshare_version>
43012

> <i_f3d_flags>
0

> <s_epik_input>
W0NIM11jMW5uYyhzMSlbTkhdQyg9TylbTkhdW0NIMl1bQ0gyXU4yW0NIMl1bQ0BASF0oW0NIM10pT1tDQEBIXShbQ0gzXSlbQ0gyXTI=

> <s_epik_cmdline>
J2VwaWtfcHl0aG9uJywgJy1waCcsICc3LjAnLCAnLXRuJywgJzgnLCAnLW1hJywgJzIwMCcsICctbWV0YWxfYmluZGluZycsICctaW1hZScsICc8aW5maWxlLm1hZT4nLCAnLW9tYWUnLCAnPG91dGZpbGUubWFlPic=

> <r_lp_tautomer_probability>
1

> <r_epik_Ionization_Penalty>
0.221104

> <r_epik_Ionization_Penalty_Charging>
0

> <r_epik_Ionization_Penalty_Neutral>
0.221104

> <r_epik_State_Penalty>
0.209349

> <r_epik_Charging_Adjusted_Penalty>
0.209349

> <i_epik_Tot_Q>
0

> <i_epik_Tot_abs_Q>
0

> <r_epik_Metal_State_Penalty>
0.560954

> <b_epik_Metal_Only>
0

> <s_lp_Force_Field>
OPLS_2005

> <r_lp_Energy>
18.567

> <b_lp_Chiralities_Consistent>
1

> <s_lp_Variant>
AV-unprocessed.smi:1641-1

> <Gold.Version>
5.8.1

> <Gold.Id.Protein>
6NUR|6NUR_protein|mol2

> <Gold.PLP.Fitness>
36.3140

> <Gold.PLP.PLP>
-30.4524

> <Gold.PLP.part.hbond>
-2.8878

> <Gold.PLP.part.metal>
0.0000

> <Gold.PLP.part.buried>
-1.9234

> <Gold.PLP.part.nonpolar>
-25.5395

> <Gold.PLP.part.repulsive>
1.1630

> <Gold.PLP.ligand.clash>
0.0000

> <Gold.PLP.ligand.torsion>
1.1930

> <Gold.PLP.Chemscore.Hbond>
2.7475

> <Gold.PLP.Chemscore.CHOScore>
0.0000

> <Gold.PLP.Chemscore.Metal>
0.0000

> <Gold.Chemscore.Hbonds>
donor molecule, donor type, donor heavy atom, donor atom, acceptor molecule, acceptor atom, score
      L1  H     6    24       P1 10175  1.00
      L1  H     9    25       P1 10175  1.00
      P1  H  7997  8010       L1    16  0.76

> <Gold.PLP.Chemscore.Internal.Correction>
0.0051

> <Gold.Rescore>
     Score         DG    S(hbond)    S(metal)    S(lipo)     H(rot)  DE(clash)    DE(int)     intcor
     16.41     -17.88       2.49        0.00      69.89       1.60       0.22       1.25       ----

> <Gold.Chemscore.Fitness>
16.4134

> <Gold.Chemscore.DG>
-17.8803

> <Gold.Chemscore.ZeroCoef>
-5.4800

> <Gold.Chemscore.Hbond>
2.4888

> <Gold.Chemscore.Metal>
0.0000

> <Gold.Chemscore.Lipo>
69.8927

> <Gold.Chemscore.Internal_Hbond>
0.0000

> <Gold.Chemscore.DEClash>
0.2218

> <Gold.Chemscore.DEInternal>
1.2451

> <Gold.Chemscore.Rot>
1.5975

> <Gold.Chemscore.Internal.Correction>
   9.000000E+99

> <Gold.Chemscore.Hbonds>
donor molecule, donor type, donor heavy atom, donor atom, acceptor molecule, acceptor atom, score
      L1  H     6    24       P1 10175  1.00
      L1  H     9    25       P1 10175  0.92
      P1  H  7997  8010       L1    16  0.37

> <Gold.Chemscore.Hbond.Weighted>
-8.3125

> <Gold.Chemscore.Metal.Weighted>
-0.0000

> <Gold.Chemscore.Lipo.Weighted>
-8.1774

> <Gold.Chemscore.Internal_Hbond.Weighted>
0.0000

> <Gold.Chemscore.DEClash.Weighted>
0.2218

> <Gold.Chemscore.DEInternal.Weighted>
1.2451

> <Gold.Chemscore.Rot.Weighted>
4.0896

> <Gold.Chemscore.Internal.Correction.Weighted>
   9.000000E+99

> <Gold.Protein.RotatedTorsions>
[ 6907 6896 6895 6894 ] final  168.23 input  -60.11 | X-H torsion
[ 7974 7965 7964 7962 ] final  -62.87 input  175.53 | X-H torsion
[ 8008 7997 7996 7995 ] final   82.48 input   59.86 | X-H torsion
[ 10167 10162 10161 10158 ] final    6.24 input  -65.29 | X-H torsion
[ 10718 10713 10712 10709 ] final   76.93 input   66.30 | X-H torsion
[ 10763 10752 10751 10750 ] final  -45.87 input  -60.55 | X-H torsion
[ 11005 11000 10999 10996 ] final   52.81 input  -57.11 | X-H torsion

> <Gold.Protein.ActiveResidues>
 VAL166  LYS551  ARG553  GLY616  TRP617  ASP618  TYR619  PRO620  LYS621  CYS622 
 ASP623  PHE694  ASN695  SER759  ASP760  ASP761  ALA762  ILE779  LEU786  VAL792 
 PHE793  MET794  SER795  GLU796  ALA797  LYS798  CYS799  TRP800  GLU811  SER814 

> <Gold.Protein.RotatedAtoms>
  151.8509  133.3440  159.3672 H   0  0  0  0  0  0  0  0  0  0  0  0  # atno 6907 bound_to 6896
  150.7206  134.5299  159.5705 H   0  0  0  0  0  0  0  0  0  0  0  0  # atno 6908 bound_to 6896
  152.2793  134.7847  160.0450 H   0  0  0  0  0  0  0  0  0  0  0  0  # atno 6909 bound_to 6896
  145.7860  140.8736  143.0305 H   0  0  0  0  0  0  0  0  0  0  0  0  # atno 7974 bound_to 7965
  155.9111  140.3427  155.6099 H   0  0  0  0  0  0  0  0  0  0  0  0  # atno 8008 bound_to 7997
  155.7386  140.0804  157.2275 H   0  0  0  0  0  0  0  0  0  0  0  0  # atno 8009 bound_to 7997
  154.4056  140.1575  156.2577 H   0  0  0  0  0  0  0  0  0  0  0  0  # atno 8010 bound_to 7997
  140.6438  143.7710  150.7468 H   0  0  0  0  0  0  0  0  0  0  0  0  # atno 10167 bound_to 10162
  157.6692  130.9797  150.1568 H   0  0  0  0  0  0  0  0  0  0  0  0  # atno 10718 bound_to 10713
  154.0357  135.6651  153.4785 H   0  0  0  0  0  0  0  0  0  0  0  0  # atno 10763 bound_to 10752
  153.0522  135.5077  154.7891 H   0  0  0  0  0  0  0  0  0  0  0  0  # atno 10764 bound_to 10752
  154.6850  135.3051  154.9525 H   0  0  0  0  0  0  0  0  0  0  0  0  # atno 10765 bound_to 10752
  140.0819  134.5327  155.8938 H   0  0  0  0  0  0  0  0  0  0  0  0  # atno 11005 bound_to 11000
  144.6789  140.0056  143.7484 LP  0  0  0  0  0  0  0  0  0  0  0  0  # atno 17320 bound_to 7965
  146.0025  139.3103  143.0919 LP  0  0  0  0  0  0  0  0  0  0  0  0  # atno 17321 bound_to 7965
  140.1347  143.4495  152.2232 LP  0  0  0  0  0  0  0  0  0  0  0  0  # atno 17342 bound_to 10162
  139.5648  144.7428  151.4052 LP  0  0  0  0  0  0  0  0  0  0  0  0  # atno 17343 bound_to 10162
  156.2354  130.3686  149.8397 LP  0  0  0  0  0  0  0  0  0  0  0  0  # atno 17370 bound_to 10713
  156.6213  130.8627  151.3476 LP  0  0  0  0  0  0  0  0  0  0  0  0  # atno 17371 bound_to 10713
  141.2049  133.6643  156.6151 LP  0  0  0  0  0  0  0  0  0  0  0  0  # atno 17394 bound_to 11000
  140.3476  134.7796  157.4443 LP  0  0  0  0  0  0  0  0  0  0  0  0  # atno 17395 bound_to 11000

$$$$
