AV-unprocessed.smi:479|AV-procd|sdf|2675|dock9
  -GOLD-   2262023 93D 1   1.00000     0.00000
 Structure written by MMmdl.
 46 48  0  0  0  0  0  0  0  0  2 V2000
  149.4420  133.5083  155.0231 C   0  0  0  0  0  0  0  0  0  0  0  0
  149.6983  134.9046  155.0629 O   0  0  0  0  0  0  0  0  0  0  0  0
  149.3669  135.6028  156.2065 C   0  0  0  0  0  0  0  0  0  0  0  0
  148.7300  135.0157  157.3299 C   0  0  0  0  0  0  0  0  0  0  0  0
  148.4143  135.7859  158.4732 C   0  0  0  0  0  0  0  0  0  0  0  0
  147.7470  135.1898  159.6664 C   0  0  0  0  0  0  0  0  0  0  0  0
  147.4901  136.0948  160.8704 C   0  0  0  0  0  0  0  0  0  0  0  0
  147.3930  134.0128  159.7279 O   0  0  0  0  0  0  0  0  0  0  0  0
  148.7407  137.1585  158.4793 C   0  0  0  0  0  0  0  0  0  0  0  0
  149.3738  137.7490  157.3716 C   0  0  0  0  0  0  0  0  0  0  0  0
  149.6956  136.9764  156.2298 C   0  0  0  0  0  0  0  0  0  0  0  0
  150.3222  137.4872  155.1121 O   0  0  0  0  0  0  0  0  0  0  0  0
  150.6809  138.8623  155.1015 C   0  0  0  0  0  0  0  0  0  0  0  0
  152.0748  139.0101  155.7286 C   0  0  1  0  0  0  0  0  0  0  0  0
  152.8507  139.8570  154.9040 O   0  0  0  0  0  0  0  0  0  0  0  0
  152.0115  139.5771  157.1609 C   0  0  0  0  0  0  0  0  0  0  0  0
  151.5482  140.9710  157.2043 N   0  0  0  0  0  0  0  0  0  0  0  0
  150.7895  141.6592  156.3091 C   0  0  0  0  0  0  0  0  0  0  0  0
  150.6341  142.9246  156.7876 N   0  3  0  0  0  0  0  0  0  0  0  0
  151.3021  143.0470  158.0077 C   0  0  0  0  0  0  0  0  0  0  0  0
  151.4328  144.1320  158.8694 C   0  0  0  0  0  0  0  0  0  0  0  0
  152.1852  143.9209  160.0437 C   0  0  0  0  0  0  0  0  0  0  0  0
  152.7716  142.6698  160.3253 C   0  0  0  0  0  0  0  0  0  0  0  0
  152.6332  141.5771  159.4442 C   0  0  0  0  0  0  0  0  0  0  0  0
  151.8904  141.7943  158.2837 C   0  0  0  0  0  0  0  0  0  0  0  0
  149.7440  133.1153  154.0525 H   0  0  0  0  0  0  0  0  0  0  0  0
  148.3801  133.2925  155.1487 H   0  0  0  0  0  0  0  0  0  0  0  0
  150.0135  132.9775  155.7856 H   0  0  0  0  0  0  0  0  0  0  0  0
  148.4811  133.9666  157.3170 H   0  0  0  0  0  0  0  0  0  0  0  0
  146.8557  136.9353  160.5889 H   0  0  0  0  0  0  0  0  0  0  0  0
  148.4298  136.4796  161.2671 H   0  0  0  0  0  0  0  0  0  0  0  0
  146.9879  135.5406  161.6638 H   0  0  0  0  0  0  0  0  0  0  0  0
  148.5102  137.7760  159.3355 H   0  0  0  0  0  0  0  0  0  0  0  0
  149.6017  138.8026  157.4247 H   0  0  0  0  0  0  0  0  0  0  0  0
  150.6957  139.2221  154.0712 H   0  0  0  0  0  0  0  0  0  0  0  0
  149.9584  139.4595  155.6605 H   0  0  0  0  0  0  0  0  0  0  0  0
  152.5626  138.0346  155.7454 H   0  0  0  0  0  0  0  0  0  0  0  0
  152.4943  139.8327  154.0290 H   0  0  0  0  0  0  0  0  0  0  0  0
  151.3785  138.9646  157.8032 H   0  0  0  0  0  0  0  0  0  0  0  0
  153.0048  139.5607  157.6109 H   0  0  0  0  0  0  0  0  0  0  0  0
  150.3863  141.2716  155.3845 H   0  0  0  0  0  0  0  0  0  0  0  0
  150.9830  145.0907  158.6569 H   0  0  0  0  0  0  0  0  0  0  0  0
  152.3137  144.7342  160.7433 H   0  0  0  0  0  0  0  0  0  0  0  0
  153.3388  142.5446  161.2364 H   0  0  0  0  0  0  0  0  0  0  0  0
  153.0821  140.6222  159.6732 H   0  0  0  0  0  0  0  0  0  0  0  0
  150.1109  143.6495  156.3135 H   0  0  0  0  0  0  0  0  0  0  0  0
  1  2  1  0  0  0  0
  1 26  1  0  0  0  0
  1 27  1  0  0  0  0
  1 28  1  0  0  0  0
  2  3  1  0  0  0  0
  3 11  1  0  0  0  0
  3  4  2  0  0  0  0
  4  5  1  0  0  0  0
  4 29  1  0  0  0  0
  5  6  1  0  0  0  0
  5  9  2  0  0  0  0
  6  7  1  0  0  0  0
  6  8  2  0  0  0  0
  7 30  1  0  0  0  0
  7 31  1  0  0  0  0
  7 32  1  0  0  0  0
  9 10  1  0  0  0  0
  9 33  1  0  0  0  0
 10 11  2  0  0  0  0
 10 34  1  0  0  0  0
 11 12  1  0  0  0  0
 12 13  1  0  0  0  0
 13 14  1  0  0  0  0
 13 35  1  0  0  0  0
 13 36  1  0  0  0  0
 14 15  1  0  0  0  0
 14 16  1  0  0  0  0
 14 37  1  0  0  0  0
 15 38  1  0  0  0  0
 16 17  1  0  0  0  0
 16 39  1  0  0  0  0
 16 40  1  0  0  0  0
 17 25  1  0  0  0  0
 17 18  1  0  0  0  0
 18 19  2  0  0  0  0
 18 41  1  0  0  0  0
 19 20  1  0  0  0  0
 19 46  1  0  0  0  0
 20 25  2  0  0  0  0
 20 21  1  0  0  0  0
 21 22  2  0  0  0  0
 21 42  1  0  0  0  0
 22 23  1  0  0  0  0
 22 43  1  0  0  0  0
 23 24  2  0  0  0  0
 23 44  1  0  0  0  0
 24 25  1  0  0  0  0
 24 45  1  0  0  0  0
M  CHG  1  19   1
M  END
> <s_m_source_file>
AV-unprocessed.smi

> <i_m_source_file_index>
479

> <i_lp_mmshare_version>
43012

> <i_f3d_flags>
0

> <s_epik_input>
W0NIM11PYzFbY0hdYyhDKD1PKVtDSDNdKVtjSF1bY0hdYzFPW0NIMl1bQ0BIXShbT0hdKVtDSDJdbihbY0hdbjIpYyhjMjMpW2NIXVtjSF1bY0hdW2NIXTM=

> <s_epik_cmdline>
J2VwaWtfcHl0aG9uJywgJy1waCcsICc3LjAnLCAnLXRuJywgJzgnLCAnLW1hJywgJzIwMCcsICctbWV0YWxfYmluZGluZycsICctaW1hZScsICc8aW5maWxlLm1hZT4nLCAnLW9tYWUnLCAnPG91dGZpbGUubWFlPic=

> <r_lp_tautomer_probability>
0.99995

> <r_epik_Ionization_Penalty>
1.37698

> <r_epik_Ionization_Penalty_Charging>
1.37698

> <r_epik_Ionization_Penalty_Neutral>
2.3993e-06

> <r_epik_State_Penalty>
1.45717

> <r_epik_Charging_Adjusted_Penalty>
2.83415

> <i_epik_Tot_Q>
1

> <i_epik_Tot_abs_Q>
1

> <r_epik_Metal_State_Penalty>
5.49703

> <b_epik_Metal_Only>
0

> <s_lp_Force_Field>
OPLS_2005

> <r_lp_Energy>
29.5876

> <b_lp_Chiralities_Consistent>
1

> <s_lp_Variant>
AV-unprocessed.smi:479-4

> <Gold.Version>
5.8.1

> <Gold.Id.Protein>
6NUR|6NUR_protein|mol2

> <Gold.PLP.Fitness>
51.8442

> <Gold.PLP.PLP>
-45.0576

> <Gold.PLP.part.hbond>
-3.0000

> <Gold.PLP.part.metal>
0.0000

> <Gold.PLP.part.buried>
-6.4495

> <Gold.PLP.part.nonpolar>
-35.9502

> <Gold.PLP.part.repulsive>
0.2410

> <Gold.PLP.ligand.clash>
0.0000

> <Gold.PLP.ligand.torsion>
1.1796

> <Gold.PLP.Chemscore.Hbond>
3.0000

> <Gold.PLP.Chemscore.CHOScore>
0.0000

> <Gold.PLP.Chemscore.Metal>
0.0000

> <Gold.Chemscore.Hbonds>
donor molecule, donor type, donor heavy atom, donor atom, acceptor molecule, acceptor atom, score
      L1  H    19    46       P1  8028  2.00
      P1  H  7997  8008       L1    15  1.00

> <Gold.PLP.Chemscore.Internal.Correction>
0.1458

> <Gold.Rescore>
     Score         DG    S(hbond)    S(metal)    S(lipo)     H(rot)  DE(clash)    DE(int)     intcor
     17.10     -18.21       1.94        0.00     113.66       2.75       0.05       1.06       ----

> <Gold.Chemscore.Fitness>
17.1017

> <Gold.Chemscore.DG>
-18.2097

> <Gold.Chemscore.ZeroCoef>
-5.4800

> <Gold.Chemscore.Hbond>
1.9367

> <Gold.Chemscore.Metal>
0.0000

> <Gold.Chemscore.Lipo>
113.6570

> <Gold.Chemscore.Internal_Hbond>
0.0000

> <Gold.Chemscore.DEClash>
0.0472

> <Gold.Chemscore.DEInternal>
1.0608

> <Gold.Chemscore.Rot>
2.7487

> <Gold.Chemscore.Internal.Correction>
   9.000000E+99

> <Gold.Chemscore.Hbonds>
donor molecule, donor type, donor heavy atom, donor atom, acceptor molecule, acceptor atom, score
      L1  H    19    46       P1  8028  1.00
      P1  H  7997  8008       L1    15  0.60

> <Gold.Chemscore.Hbond.Weighted>
-6.4686

> <Gold.Chemscore.Metal.Weighted>
-0.0000

> <Gold.Chemscore.Lipo.Weighted>
-13.2979

> <Gold.Chemscore.Internal_Hbond.Weighted>
0.0000

> <Gold.Chemscore.DEClash.Weighted>
0.0472

> <Gold.Chemscore.DEInternal.Weighted>
1.0608

> <Gold.Chemscore.Rot.Weighted>
7.0368

> <Gold.Chemscore.Internal.Correction.Weighted>
   9.000000E+99

> <Gold.Protein.RotatedTorsions>
[ 6907 6896 6895 6894 ] final   85.56 input  -60.11 | X-H torsion
[ 7974 7965 7964 7962 ] final   88.25 input  175.53 | X-H torsion
[ 8008 7997 7996 7995 ] final  -13.27 input   59.86 | X-H torsion
[ 10167 10162 10161 10158 ] final   57.88 input  -65.29 | X-H torsion
[ 10718 10713 10712 10709 ] final  -89.10 input   66.30 | X-H torsion
[ 10763 10752 10751 10750 ] final -114.54 input  -60.55 | X-H torsion
[ 11005 11000 10999 10996 ] final  165.76 input  -57.11 | X-H torsion

> <Gold.Protein.ActiveResidues>
 VAL166  LYS551  ARG553  GLY616  TRP617  ASP618  TYR619  PRO620  LYS621  CYS622 
 ASP623  PHE694  ASN695  SER759  ASP760  ASP761  ALA762  ILE779  LEU786  VAL792 
 PHE793  MET794  SER795  GLU796  ALA797  LYS798  CYS799  TRP800  GLU811  SER814 

> <Gold.Protein.RotatedAtoms>
  152.5377  134.2568  159.8919 H   0  0  0  0  0  0  0  0  0  0  0  0  # atno 6907 bound_to 6896
  151.2529  133.4334  159.2620 H   0  0  0  0  0  0  0  0  0  0  0  0  # atno 6908 bound_to 6896
  151.0523  134.9695  159.8274 H   0  0  0  0  0  0  0  0  0  0  0  0  # atno 6909 bound_to 6896
  145.5482  139.2293  143.2527 H   0  0  0  0  0  0  0  0  0  0  0  0  # atno 7974 bound_to 7965
  154.5306  140.2254  155.8811 H   0  0  0  0  0  0  0  0  0  0  0  0  # atno 8008 bound_to 7997
  156.1760  140.3111  155.9023 H   0  0  0  0  0  0  0  0  0  0  0  0  # atno 8009 bound_to 7997
  155.3459  140.0453  157.3036 H   0  0  0  0  0  0  0  0  0  0  0  0  # atno 8010 bound_to 7997
  140.1932  144.4064  150.6561 H   0  0  0  0  0  0  0  0  0  0  0  0  # atno 10167 bound_to 10162
  155.9984  130.4860  150.5120 H   0  0  0  0  0  0  0  0  0  0  0  0  # atno 10718 bound_to 10713
  154.8444  135.4414  154.1521 H   0  0  0  0  0  0  0  0  0  0  0  0  # atno 10763 bound_to 10752
  153.2679  135.6942  153.7516 H   0  0  0  0  0  0  0  0  0  0  0  0  # atno 10764 bound_to 10752
  153.6768  135.3409  155.3143 H   0  0  0  0  0  0  0  0  0  0  0  0  # atno 10765 bound_to 10752
  140.2594  134.7914  157.3576 H   0  0  0  0  0  0  0  0  0  0  0  0  # atno 11005 bound_to 11000
  146.1935  140.6304  142.9135 LP  0  0  0  0  0  0  0  0  0  0  0  0  # atno 17320 bound_to 7965
  144.7543  140.5268  143.6780 LP  0  0  0  0  0  0  0  0  0  0  0  0  # atno 17321 bound_to 7965
  140.6441  143.2209  151.6224 LP  0  0  0  0  0  0  0  0  0  0  0  0  # atno 17342 bound_to 10162
  139.5247  144.3096  152.1004 LP  0  0  0  0  0  0  0  0  0  0  0  0  # atno 17343 bound_to 10162
  157.3092  131.0660  151.2013 LP  0  0  0  0  0  0  0  0  0  0  0  0  # atno 17370 bound_to 10713
  157.2965  130.6822  149.6141 LP  0  0  0  0  0  0  0  0  0  0  0  0  # atno 17371 bound_to 10713
  140.1479  134.4887  155.7982 LP  0  0  0  0  0  0  0  0  0  0  0  0  # atno 17394 bound_to 11000
  141.2192  133.6851  156.7327 LP  0  0  0  0  0  0  0  0  0  0  0  0  # atno 17395 bound_to 11000

$$$$
