AV-unprocessed.smi:3236|AV-procd|sdf|12361|dock2
  -GOLD-   2272018223D 1   1.00000     0.00000
 Structure written by MMmdl.
 41 42  0  0  0  0  0  0  0  0  2 V2000
  145.9759  143.1026  154.7078 C   0  0  0  0  0  0  0  0  0  0  0  0
  146.7229  141.7645  154.7894 C   0  0  0  0  0  0  0  0  0  0  0  0
  147.0913  141.4055  156.2456 C   0  0  0  0  0  0  0  0  0  0  0  0
  147.9372  140.1203  156.3089 C   0  0  0  0  0  0  0  0  0  0  0  0
  149.1291  140.2987  155.4706 N   0  0  0  0  0  0  0  0  0  0  0  0
  150.3760  140.4248  155.9867 C   0  0  0  0  0  0  0  0  0  0  0  0
  151.3627  140.6367  155.2792 O   0  0  0  0  0  0  0  0  0  0  0  0
  150.5697  140.2969  157.5054 C   0  0  0  0  0  0  0  0  0  0  0  0
  151.7109  141.0953  157.9979 N   0  3  0  0  0  0  0  0  0  0  0  0
  152.1939  140.6991  159.3357 C   0  0  0  0  0  0  0  0  0  0  0  0
  153.1728  141.7370  159.9122 C   0  0  0  0  0  0  0  0  0  0  0  0
  152.6733  143.0990  159.8237 N   0  0  0  0  0  0  0  0  0  0  0  0
  152.5557  143.8959  158.7039 C   0  0  0  0  0  0  0  0  0  0  0  0
  152.0160  145.0844  159.1048 C   0  0  0  0  0  0  0  0  0  0  0  0
  151.8216  144.9132  160.5038 C   0  0  0  0  0  0  0  0  0  0  0  0
  152.2116  143.7225  160.9297 N   0  0  0  0  0  0  0  0  0  0  0  0
  148.7716  140.4494  154.0540 C   0  0  0  0  0  0  0  0  0  0  0  0
  147.9731  141.7541  153.8832 C   0  0  0  0  0  0  0  0  0  0  0  0
  146.5991  143.9262  155.0575 H   0  0  0  0  0  0  0  0  0  0  0  0
  145.0729  143.0856  155.3188 H   0  0  0  0  0  0  0  0  0  0  0  0
  145.6763  143.3232  153.6830 H   0  0  0  0  0  0  0  0  0  0  0  0
  146.0478  140.9896  154.4230 H   0  0  0  0  0  0  0  0  0  0  0  0
  147.6491  142.2262  156.6994 H   0  0  0  0  0  0  0  0  0  0  0  0
  146.1857  141.2820  156.8405 H   0  0  0  0  0  0  0  0  0  0  0  0
  148.1785  139.8864  157.3467 H   0  0  0  0  0  0  0  0  0  0  0  0
  147.3591  139.2714  155.9414 H   0  0  0  0  0  0  0  0  0  0  0  0
  149.6618  140.6260  158.0127 H   0  0  0  0  0  0  0  0  0  0  0  0
  150.7417  139.2505  157.7617 H   0  0  0  0  0  0  0  0  0  0  0  0
  152.4718  140.9960  157.3406 H   0  0  0  0  0  0  0  0  0  0  0  0
  151.3383  140.5945  160.0038 H   0  0  0  0  0  0  0  0  0  0  0  0
  152.6693  139.7189  159.2772 H   0  0  0  0  0  0  0  0  0  0  0  0
  153.3886  141.5106  160.9573 H   0  0  0  0  0  0  0  0  0  0  0  0
  154.1230  141.6897  159.3789 H   0  0  0  0  0  0  0  0  0  0  0  0
  152.8633  143.5570  157.7255 H   0  0  0  0  0  0  0  0  0  0  0  0
  151.7886  145.9436  158.4911 H   0  0  0  0  0  0  0  0  0  0  0  0
  151.4100  145.6128  161.2166 H   0  0  0  0  0  0  0  0  0  0  0  0
  149.6272  140.4469  153.3807 H   0  0  0  0  0  0  0  0  0  0  0  0
  148.1617  139.5985  153.7463 H   0  0  0  0  0  0  0  0  0  0  0  0
  147.6785  141.8744  152.8402 H   0  0  0  0  0  0  0  0  0  0  0  0
  148.6129  142.6046  154.1240 H   0  0  0  0  0  0  0  0  0  0  0  0
  151.4352  142.0666  158.0239 H   0  0  0  0  0  0  0  0  0  0  0  0
  1  2  1  0  0  0  0
  1 19  1  0  0  0  0
  1 20  1  0  0  0  0
  1 21  1  0  0  0  0
  2 18  1  0  0  0  0
  2  3  1  0  0  0  0
  2 22  1  0  0  0  0
  3  4  1  0  0  0  0
  3 23  1  0  0  0  0
  3 24  1  0  0  0  0
  4  5  1  0  0  0  0
  4 25  1  0  0  0  0
  4 26  1  0  0  0  0
  5  6  1  0  0  0  0
  5 17  1  0  0  0  0
  6  7  2  0  0  0  0
  6  8  1  0  0  0  0
  8  9  1  0  0  0  0
  8 27  1  0  0  0  0
  8 28  1  0  0  0  0
  9 10  1  0  0  0  0
  9 29  1  0  0  0  0
  9 41  1  0  0  0  0
 10 11  1  0  0  0  0
 10 30  1  0  0  0  0
 10 31  1  0  0  0  0
 11 12  1  0  0  0  0
 11 32  1  0  0  0  0
 11 33  1  0  0  0  0
 12 16  1  0  0  0  0
 12 13  1  0  0  0  0
 13 14  2  0  0  0  0
 13 34  1  0  0  0  0
 14 15  1  0  0  0  0
 14 35  1  0  0  0  0
 15 16  2  0  0  0  0
 15 36  1  0  0  0  0
 17 18  1  0  0  0  0
 17 37  1  0  0  0  0
 17 38  1  0  0  0  0
 18 39  1  0  0  0  0
 18 40  1  0  0  0  0
M  CHG  1   9   1
M  END
> <s_m_source_file>
AV-unprocessed.smi

> <i_m_source_file_index>
3236

> <i_lp_mmshare_version>
43012

> <i_f3d_flags>
0

> <s_epik_input>
W0NIM11bQ0hdMVtDSDJdW0NIMl1OKFtDSDJdW0NIMl0xKUMoPU8pW0NIMl1bTkhdW0NIMl1bQ0gyXW4yW2NIXVtjSF1bY0hdbjI=

> <s_epik_cmdline>
J2VwaWtfcHl0aG9uJywgJy1waCcsICc3LjAnLCAnLXRuJywgJzgnLCAnLW1hJywgJzIwMCcsICctbWV0YWxfYmluZGluZycsICctaW1hZScsICc8aW5maWxlLm1hZT4nLCAnLW9tYWUnLCAnPG91dGZpbGUubWFlPic=

> <r_lp_tautomer_probability>
1

> <r_epik_Ionization_Penalty>
0.186057

> <r_epik_Ionization_Penalty_Charging>
0.186055

> <r_epik_Ionization_Penalty_Neutral>
2.36809e-06

> <r_epik_State_Penalty>
0.175633

> <r_epik_Charging_Adjusted_Penalty>
0.361687

> <i_epik_Tot_Q>
1

> <i_epik_Tot_abs_Q>
1

> <r_epik_Metal_State_Penalty>
0.176075

> <b_epik_Metal_Only>
0

> <s_lp_Force_Field>
OPLS_2005

> <r_lp_Energy>
21.8815

> <b_lp_Chiralities_Consistent>
1

> <s_lp_Variant>
AV-unprocessed.smi:3236-1

> <Gold.Version>
5.8.1

> <Gold.Id.Protein>
6NUR|6NUR_protein|mol2

> <Gold.PLP.Fitness>
43.2590

> <Gold.PLP.PLP>
-41.9310

> <Gold.PLP.part.hbond>
-1.0000

> <Gold.PLP.part.metal>
0.0000

> <Gold.PLP.part.buried>
-4.2725

> <Gold.PLP.part.nonpolar>
-36.0542

> <Gold.PLP.part.repulsive>
0.1987

> <Gold.PLP.ligand.clash>
0.0000

> <Gold.PLP.ligand.torsion>
0.6893

> <Gold.PLP.Chemscore.Hbond>
0.8800

> <Gold.PLP.Chemscore.CHOScore>
0.0000

> <Gold.PLP.Chemscore.Metal>
0.0000

> <Gold.Chemscore.Hbonds>
donor molecule, donor type, donor heavy atom, donor atom, acceptor molecule, acceptor atom, score
      P1  H  7989  7998       L1     7  0.82

> <Gold.PLP.Chemscore.Internal.Correction>
0.0667

> <Gold.Rescore>
     Score         DG    S(hbond)    S(metal)    S(lipo)     H(rot)  DE(clash)    DE(int)     intcor
     14.02     -14.71       0.94        0.00      91.30       1.80       0.03       0.67       ----

> <Gold.Chemscore.Fitness>
14.0171

> <Gold.Chemscore.DG>
-14.7137

> <Gold.Chemscore.ZeroCoef>
-5.4800

> <Gold.Chemscore.Hbond>
0.9432

> <Gold.Chemscore.Metal>
0.0000

> <Gold.Chemscore.Lipo>
91.2981

> <Gold.Chemscore.Internal_Hbond>
0.0000

> <Gold.Chemscore.DEClash>
0.0293

> <Gold.Chemscore.DEInternal>
0.6673

> <Gold.Chemscore.Rot>
1.7963

> <Gold.Chemscore.Internal.Correction>
   9.000000E+99

> <Gold.Chemscore.Hbonds>
donor molecule, donor type, donor heavy atom, donor atom, acceptor molecule, acceptor atom, score
      P1  H  7989  7998       L1     7  0.81

> <Gold.Chemscore.Hbond.Weighted>
-3.1503

> <Gold.Chemscore.Metal.Weighted>
-0.0000

> <Gold.Chemscore.Lipo.Weighted>
-10.6819

> <Gold.Chemscore.Internal_Hbond.Weighted>
0.0000

> <Gold.Chemscore.DEClash.Weighted>
0.0293

> <Gold.Chemscore.DEInternal.Weighted>
0.6673

> <Gold.Chemscore.Rot.Weighted>
4.5985

> <Gold.Chemscore.Internal.Correction.Weighted>
   9.000000E+99

> <Gold.Protein.RotatedTorsions>
[ 6907 6896 6895 6894 ] final  -20.30 input  -60.11 | X-H torsion
[ 7974 7965 7964 7962 ] final  177.95 input  175.53 | X-H torsion
[ 8008 7997 7996 7995 ] final   47.31 input   59.86 | X-H torsion
[ 10167 10162 10161 10158 ] final  -18.38 input  -65.29 | X-H torsion
[ 10718 10713 10712 10709 ] final  146.45 input   66.30 | X-H torsion
[ 10763 10752 10751 10750 ] final  -95.92 input  -60.55 | X-H torsion
[ 11005 11000 10999 10996 ] final -104.96 input  -57.11 | X-H torsion

> <Gold.Protein.ActiveResidues>
 VAL166  LYS551  ARG553  GLY616  TRP617  ASP618  TYR619  PRO620  LYS621  CYS622 
 ASP623  PHE694  ASN695  SER759  ASP760  ASP761  ALA762  ILE779  LEU786  VAL792 
 PHE793  MET794  SER795  GLU796  ALA797  LYS798  CYS799  TRP800  GLU811  SER814 

> <Gold.Protein.RotatedAtoms>
  151.2501  135.0619  159.9058 H   0  0  0  0  0  0  0  0  0  0  0  0  # atno 6907 bound_to 6896
  152.5381  134.0341  159.8048 H   0  0  0  0  0  0  0  0  0  0  0  0  # atno 6908 bound_to 6896
  151.0548  133.5544  159.2670 H   0  0  0  0  0  0  0  0  0  0  0  0  # atno 6909 bound_to 6896
  144.7162  140.0324  143.6439 H   0  0  0  0  0  0  0  0  0  0  0  0  # atno 7974 bound_to 7965
  155.3669  140.3421  155.4242 H   0  0  0  0  0  0  0  0  0  0  0  0  # atno 8008 bound_to 7997
  156.1683  140.1623  156.8526 H   0  0  0  0  0  0  0  0  0  0  0  0  # atno 8009 bound_to 7997
  154.5208  140.0767  156.8150 H   0  0  0  0  0  0  0  0  0  0  0  0  # atno 8010 bound_to 7997
  140.7258  143.4922  150.9976 H   0  0  0  0  0  0  0  0  0  0  0  0  # atno 10167 bound_to 10162
  157.3330  131.0923  151.1146 H   0  0  0  0  0  0  0  0  0  0  0  0  # atno 10718 bound_to 10713
  154.7192  135.5103  153.8785 H   0  0  0  0  0  0  0  0  0  0  0  0  # atno 10763 bound_to 10752
  153.0847  135.6642  153.9982 H   0  0  0  0  0  0  0  0  0  0  0  0  # atno 10764 bound_to 10752
  153.9808  135.3029  155.3400 H   0  0  0  0  0  0  0  0  0  0  0  0  # atno 10765 bound_to 10752
  141.1076  133.8767  157.1675 H   0  0  0  0  0  0  0  0  0  0  0  0  # atno 11005 bound_to 11000
  146.0092  139.3155  143.0881 LP  0  0  0  0  0  0  0  0  0  0  0  0  # atno 17320 bound_to 7965
  145.8702  140.9424  143.0654 LP  0  0  0  0  0  0  0  0  0  0  0  0  # atno 17321 bound_to 7965
  139.8627  143.7293  152.3172 LP  0  0  0  0  0  0  0  0  0  0  0  0  # atno 17342 bound_to 10162
  139.7514  144.7533  151.0500 LP  0  0  0  0  0  0  0  0  0  0  0  0  # atno 17343 bound_to 10162
  157.2387  130.6559  149.5880 LP  0  0  0  0  0  0  0  0  0  0  0  0  # atno 17370 bound_to 10713
  155.9698  130.4575  150.5965 LP  0  0  0  0  0  0  0  0  0  0  0  0  # atno 17371 bound_to 10713
  139.9954  135.0049  157.0070 LP  0  0  0  0  0  0  0  0  0  0  0  0  # atno 17394 bound_to 11000
  140.4861  134.1240  155.7225 LP  0  0  0  0  0  0  0  0  0  0  0  0  # atno 17395 bound_to 11000

$$$$
