AV-unprocessed.smi:2061|AV-procd|sdf|8368|dock9
  -GOLD-   2272011 43D 1   1.00000     0.00000
 Structure written by MMmdl.
 46 47  0  0  0  0  0  0  0  0  2 V2000
  138.3476  136.7036  154.2087 C   0  0  0  0  0  0  0  0  0  0  0  0
  139.8219  136.8879  154.0936 C   0  0  0  0  0  0  0  0  0  0  0  0
  140.5974  137.9067  153.6169 C   0  0  0  0  0  0  0  0  0  0  0  0
  141.9219  137.4154  153.8071 C   0  0  0  0  0  0  0  0  0  0  0  0
  143.1251  138.0911  153.4770 N   0  0  0  0  0  0  0  0  0  0  0  0
  144.3907  137.7064  153.7133 C   0  0  0  0  0  0  0  0  0  0  0  0
  144.7273  136.6588  154.2649 O   0  0  0  0  0  0  0  0  0  0  0  0
  145.2663  138.6182  153.2640 N   0  0  0  0  0  0  0  0  0  0  0  0
  146.7192  138.5404  153.4034 C   0  0  0  0  0  0  0  0  0  0  0  0
  147.3356  139.7441  154.1720 C   0  0  2  0  0  0  0  0  0  0  0  0
  147.3663  141.0066  153.2747 C   0  0  0  0  0  0  0  0  0  0  0  0
  148.6971  139.4261  154.7253 N   0  3  1  0  0  0  0  0  0  0  0  0
  149.6356  138.8617  153.7140 C   0  0  0  0  0  0  0  0  0  0  0  0
  151.0110  138.5173  154.3177 C   0  0  2  0  0  0  0  0  0  0  0  0
  151.0004  137.2559  155.2011 C   0  0  0  0  0  0  0  0  0  0  0  0
  151.5514  139.6499  154.9895 O   0  0  0  0  0  0  0  0  0  0  0  0
  150.7157  140.1718  156.0137 C   0  0  1  0  0  0  0  0  0  0  0  0
  151.4385  141.3700  156.6387 C   0  0  0  0  0  0  0  0  0  0  0  0
  149.3515  140.5689  155.4215 C   0  0  0  0  0  0  0  0  0  0  0  0
  141.9452  136.2133  154.3527 N   0  0  0  0  0  0  0  0  0  0  0  0
  140.6020  135.8659  154.5378 O   0  0  0  0  0  0  0  0  0  0  0  0
  137.8192  137.6242  153.9605 H   0  0  0  0  0  0  0  0  0  0  0  0
  138.0713  136.4191  155.2242 H   0  0  0  0  0  0  0  0  0  0  0  0
  138.0021  135.9222  153.5317 H   0  0  0  0  0  0  0  0  0  0  0  0
  140.2550  138.8431  153.2031 H   0  0  0  0  0  0  0  0  0  0  0  0
  143.0045  138.9838  153.0215 H   0  0  0  0  0  0  0  0  0  0  0  0
  144.8981  139.4462  152.8184 H   0  0  0  0  0  0  0  0  0  0  0  0
  146.8822  137.6096  153.9433 H   0  0  0  0  0  0  0  0  0  0  0  0
  147.2032  138.4233  152.4322 H   0  0  0  0  0  0  0  0  0  0  0  0
  146.6824  139.9598  155.0192 H   0  0  0  0  0  0  0  0  0  0  0  0
  146.3946  141.2194  152.8321 H   0  0  0  0  0  0  0  0  0  0  0  0
  148.0814  140.8960  152.4588 H   0  0  0  0  0  0  0  0  0  0  0  0
  147.6175  141.9090  153.8290 H   0  0  0  0  0  0  0  0  0  0  0  0
  149.2433  137.9517  153.2648 H   0  0  0  0  0  0  0  0  0  0  0  0
  149.7618  139.5859  152.9076 H   0  0  0  0  0  0  0  0  0  0  0  0
  151.6908  138.3113  153.4905 H   0  0  0  0  0  0  0  0  0  0  0  0
  150.7254  136.3778  154.6162 H   0  0  0  0  0  0  0  0  0  0  0  0
  150.2894  137.3297  156.0236 H   0  0  0  0  0  0  0  0  0  0  0  0
  151.9874  137.0708  155.6259 H   0  0  0  0  0  0  0  0  0  0  0  0
  150.5723  139.4236  156.7933 H   0  0  0  0  0  0  0  0  0  0  0  0
  150.8475  141.8116  157.4418 H   0  0  0  0  0  0  0  0  0  0  0  0
  151.6295  142.1469  155.8975 H   0  0  0  0  0  0  0  0  0  0  0  0
  152.3978  141.0691  157.0602 H   0  0  0  0  0  0  0  0  0  0  0  0
  149.4651  141.4016  154.7252 H   0  0  0  0  0  0  0  0  0  0  0  0
  148.7443  140.9204  156.2530 H   0  0  0  0  0  0  0  0  0  0  0  0
  148.5615  138.7082  155.4229 H   0  0  0  0  0  0  0  0  0  0  0  0
  1  2  1  0  0  0  0
  1 22  1  0  0  0  0
  1 23  1  0  0  0  0
  1 24  1  0  0  0  0
  2 21  1  0  0  0  0
  2  3  2  0  0  0  0
  3  4  1  0  0  0  0
  3 25  1  0  0  0  0
  4  5  1  0  0  0  0
  4 20  2  0  0  0  0
  5  6  1  0  0  0  0
  5 26  1  0  0  0  0
  6  7  2  0  0  0  0
  6  8  1  0  0  0  0
  8  9  1  0  0  0  0
  8 27  1  0  0  0  0
  9 10  1  0  0  0  0
  9 28  1  0  0  0  0
  9 29  1  0  0  0  0
 10 11  1  0  0  0  0
 10 12  1  0  0  0  0
 10 30  1  0  0  0  0
 11 31  1  0  0  0  0
 11 32  1  0  0  0  0
 11 33  1  0  0  0  0
 12 19  1  0  0  0  0
 12 13  1  0  0  0  0
 12 46  1  0  0  0  0
 13 14  1  0  0  0  0
 13 34  1  0  0  0  0
 13 35  1  0  0  0  0
 14 15  1  0  0  0  0
 14 16  1  0  0  0  0
 14 36  1  0  0  0  0
 15 37  1  0  0  0  0
 15 38  1  0  0  0  0
 15 39  1  0  0  0  0
 16 17  1  0  0  0  0
 17 18  1  0  0  0  0
 17 19  1  0  0  0  0
 17 40  1  0  0  0  0
 18 41  1  0  0  0  0
 18 42  1  0  0  0  0
 18 43  1  0  0  0  0
 19 44  1  0  0  0  0
 19 45  1  0  0  0  0
 20 21  1  0  0  0  0
M  CHG  1  12   1
M  END
> <s_m_source_file>
AV-unprocessed.smi

> <i_m_source_file_index>
2061

> <i_lp_mmshare_version>
43012

> <i_f3d_flags>
0

> <s_epik_input>
W0NIM11jMVtjSF1jKG5vMSlbTkhdQyg9TylbTkhdW0NIMl1bQ0BIXShbQ0gzXSlOMltDSDJdW0NAQEhdKFtDSDNdKU9bQ0BASF0oW0NIM10pW0NIMl0y

> <s_epik_cmdline>
J2VwaWtfcHl0aG9uJywgJy1waCcsICc3LjAnLCAnLXRuJywgJzgnLCAnLW1hJywgJzIwMCcsICctbWV0YWxfYmluZGluZycsICctaW1hZScsICc8aW5maWxlLm1hZT4nLCAnLW9tYWUnLCAnPG91dGZpbGUubWFlPic=

> <r_epik_Ionization_Penalty>
0.707076

> <r_epik_Ionization_Penalty_Charging>
0.707039

> <r_epik_Ionization_Penalty_Neutral>
3.6548e-05

> <r_epik_State_Penalty>
0.730276

> <r_epik_Charging_Adjusted_Penalty>
1.43732

> <i_epik_Tot_Q>
1

> <i_epik_Tot_abs_Q>
1

> <r_epik_Metal_State_Penalty>
0.743132

> <b_epik_Metal_Only>
0

> <s_lp_Force_Field>
OPLS_2005

> <r_lp_Energy>
23.7206

> <b_lp_Chiralities_Consistent>
1

> <s_lp_Variant>
AV-unprocessed.smi:2061-9

> <Gold.Version>
5.8.1

> <Gold.Id.Protein>
6NUR|6NUR_protein|mol2

> <Gold.PLP.Fitness>
40.7164

> <Gold.PLP.PLP>
-29.5166

> <Gold.PLP.part.hbond>
-3.8333

> <Gold.PLP.part.metal>
0.0000

> <Gold.PLP.part.buried>
-2.5940

> <Gold.PLP.part.nonpolar>
-23.5372

> <Gold.PLP.part.repulsive>
0.2192

> <Gold.PLP.ligand.clash>
0.0000

> <Gold.PLP.ligand.torsion>
0.2358

> <Gold.PLP.Chemscore.Hbond>
3.8720

> <Gold.PLP.Chemscore.CHOScore>
0.0000

> <Gold.PLP.Chemscore.Metal>
0.0000

> <Gold.Chemscore.Hbonds>
donor molecule, donor type, donor heavy atom, donor atom, acceptor molecule, acceptor atom, score
      L1  H     5    26       P1 10175  1.00
      L1  H     8    27       P1 10175  1.00
      P1  H  7989  7998       L1    16  0.95
      P1  H 11000 11005       L1    21  0.90

> <Gold.PLP.Chemscore.Internal.Correction>
0.0554

> <Gold.Rescore>
     Score         DG    S(hbond)    S(metal)    S(lipo)     H(rot)  DE(clash)    DE(int)     intcor
     17.76     -19.64       2.71        0.00      78.36       1.58       0.22       1.65       ----

> <Gold.Chemscore.Fitness>
17.7624

> <Gold.Chemscore.DG>
-19.6399

> <Gold.Chemscore.ZeroCoef>
-5.4800

> <Gold.Chemscore.Hbond>
2.7082

> <Gold.Chemscore.Metal>
0.0000

> <Gold.Chemscore.Lipo>
78.3577

> <Gold.Chemscore.Internal_Hbond>
0.0000

> <Gold.Chemscore.DEClash>
0.2231

> <Gold.Chemscore.DEInternal>
1.6544

> <Gold.Chemscore.Rot>
1.5834

> <Gold.Chemscore.Internal.Correction>
   9.000000E+99

> <Gold.Chemscore.Hbonds>
donor molecule, donor type, donor heavy atom, donor atom, acceptor molecule, acceptor atom, score
      L1  H     5    26       P1 10175  0.96
      L1  H     8    27       P1 10175  0.96
      P1  H  7989  7998       L1    16  0.17
      P1  H 11000 11005       L1    21  0.84

> <Gold.Chemscore.Hbond.Weighted>
-9.0455

> <Gold.Chemscore.Metal.Weighted>
-0.0000

> <Gold.Chemscore.Lipo.Weighted>
-9.1679

> <Gold.Chemscore.Internal_Hbond.Weighted>
0.0000

> <Gold.Chemscore.DEClash.Weighted>
0.2231

> <Gold.Chemscore.DEInternal.Weighted>
1.6544

> <Gold.Chemscore.Rot.Weighted>
4.0535

> <Gold.Chemscore.Internal.Correction.Weighted>
   9.000000E+99

> <Gold.Protein.RotatedTorsions>
[ 6907 6896 6895 6894 ] final -152.31 input  -60.11 | X-H torsion
[ 7974 7965 7964 7962 ] final -172.83 input  175.53 | X-H torsion
[ 8008 7997 7996 7995 ] final  117.92 input   59.86 | X-H torsion
[ 10167 10162 10161 10158 ] final  153.30 input  -65.29 | X-H torsion
[ 10718 10713 10712 10709 ] final   77.47 input   66.30 | X-H torsion
[ 10763 10752 10751 10750 ] final  122.96 input  -60.55 | X-H torsion
[ 11005 11000 10999 10996 ] final   43.06 input  -57.11 | X-H torsion

> <Gold.Protein.ActiveResidues>
 VAL166  LYS551  ARG553  GLY616  TRP617  ASP618  TYR619  PRO620  LYS621  CYS622 
 ASP623  PHE694  ASN695  SER759  ASP760  ASP761  ALA762  ILE779  LEU786  VAL792 
 PHE793  MET794  SER795  GLU796  ALA797  LYS798  CYS799  TRP800  GLU811  SER814 

> <Gold.Protein.RotatedAtoms>
  151.2260  133.4476  159.2601 H   0  0  0  0  0  0  0  0  0  0  0  0  # atno 6907 bound_to 6896
  151.0840  134.9875  159.8380 H   0  0  0  0  0  0  0  0  0  0  0  0  # atno 6908 bound_to 6896
  152.5427  134.2198  159.8836 H   0  0  0  0  0  0  0  0  0  0  0  0  # atno 6909 bound_to 6896
  144.7143  140.1714  143.6367 H   0  0  0  0  0  0  0  0  0  0  0  0  # atno 7974 bound_to 7965
  156.2520  140.2886  156.0754 H   0  0  0  0  0  0  0  0  0  0  0  0  # atno 8008 bound_to 7997
  155.1624  140.0400  157.2863 H   0  0  0  0  0  0  0  0  0  0  0  0  # atno 8009 bound_to 7997
  154.6383  140.2516  155.7359 H   0  0  0  0  0  0  0  0  0  0  0  0  # atno 8010 bound_to 7997
  139.4828  144.5284  151.7762 H   0  0  0  0  0  0  0  0  0  0  0  0  # atno 10167 bound_to 10162
  157.6711  130.9823  150.1646 H   0  0  0  0  0  0  0  0  0  0  0  0  # atno 10718 bound_to 10713
  153.6380  135.3384  155.3062 H   0  0  0  0  0  0  0  0  0  0  0  0  # atno 10763 bound_to 10752
  154.8566  135.4311  154.2035 H   0  0  0  0  0  0  0  0  0  0  0  0  # atno 10764 bound_to 10752
  153.2947  135.7020  153.7333 H   0  0  0  0  0  0  0  0  0  0  0  0  # atno 10765 bound_to 10752
  140.1680  134.4257  155.8275 H   0  0  0  0  0  0  0  0  0  0  0  0  # atno 11005 bound_to 11000
  145.8940  139.2392  143.1532 LP  0  0  0  0  0  0  0  0  0  0  0  0  # atno 17320 bound_to 7965
  145.9875  140.8631  143.0083 LP  0  0  0  0  0  0  0  0  0  0  0  0  # atno 17321 bound_to 7965
  140.4807  144.1453  150.5932 LP  0  0  0  0  0  0  0  0  0  0  0  0  # atno 17342 bound_to 10162
  140.4280  143.2581  151.9631 LP  0  0  0  0  0  0  0  0  0  0  0  0  # atno 17343 bound_to 10162
  156.2414  130.3691  149.8333 LP  0  0  0  0  0  0  0  0  0  0  0  0  # atno 17370 bound_to 10713
  156.6132  130.8595  151.3459 LP  0  0  0  0  0  0  0  0  0  0  0  0  # atno 17371 bound_to 10713
  141.2215  133.6943  156.7713 LP  0  0  0  0  0  0  0  0  0  0  0  0  # atno 17394 bound_to 11000
  140.2410  134.8613  157.3574 LP  0  0  0  0  0  0  0  0  0  0  0  0  # atno 17395 bound_to 11000

$$$$
