AV-unprocessed.smi:1561|AV-procd|sdf|6285|dock3
  -GOLD-   22720 6483D 1   1.00000     0.00000
 Structure written by MMmdl.
 33 34  0  0  0  0  0  0  0  0  1 V2000
  154.0283  141.7027  160.6664 C   0  0  0  0  0  0  0  0  0  0  0  0
  152.7042  141.4713  159.9093 C   0  0  2  0  0  0  0  0  0  0  0  0
  152.7202  140.1968  159.0510 C   0  0  0  0  0  0  0  0  0  0  0  0
  153.7816  139.7181  158.6495 O   0  0  0  0  0  0  0  0  0  0  0  0
  151.5215  139.6677  158.7601 N   0  0  0  0  0  0  0  0  0  0  0  0
  151.2969  138.5338  157.8717 C   0  0  0  0  0  0  0  0  0  0  0  0
  151.5844  138.8989  156.4025 C   0  0  1  0  0  0  0  0  0  0  0  0
  151.3932  137.7444  155.4257 C   0  0  0  0  0  0  0  0  0  0  0  0
  150.7594  138.3926  154.1895 C   0  0  0  0  0  0  0  0  0  0  0  0
  150.8037  139.7922  154.4292 O   0  0  0  0  0  0  0  0  0  0  0  0
  150.6758  139.9846  155.8268 C   0  0  0  0  0  0  0  0  0  0  0  0
  152.3257  142.6169  159.0889 N   0  0  0  0  0  0  0  0  0  0  0  0
  152.9923  143.8180  158.9518 C   0  0  0  0  0  0  0  0  0  0  0  0
  152.2464  144.6110  158.1280 C   0  0  0  0  0  0  0  0  0  0  0  0
  151.1170  143.8049  157.8155 C   0  0  0  0  0  0  0  0  0  0  0  0
  151.1619  142.6183  158.3976 N   0  0  0  0  0  0  0  0  0  0  0  0
  154.2579  140.8611  161.3207 H   0  0  0  0  0  0  0  0  0  0  0  0
  153.9666  142.5940  161.2915 H   0  0  0  0  0  0  0  0  0  0  0  0
  154.8728  141.8333  159.9887 H   0  0  0  0  0  0  0  0  0  0  0  0
  151.9237  141.3448  160.6615 H   0  0  0  0  0  0  0  0  0  0  0  0
  150.7012  140.1193  159.1377 H   0  0  0  0  0  0  0  0  0  0  0  0
  151.9111  137.6862  158.1802 H   0  0  0  0  0  0  0  0  0  0  0  0
  150.2587  138.2200  157.9837 H   0  0  0  0  0  0  0  0  0  0  0  0
  152.6154  139.2451  156.3114 H   0  0  0  0  0  0  0  0  0  0  0  0
  152.3477  137.2719  155.1908 H   0  0  0  0  0  0  0  0  0  0  0  0
  150.7322  136.9746  155.8267 H   0  0  0  0  0  0  0  0  0  0  0  0
  151.2835  138.1385  153.2680 H   0  0  0  0  0  0  0  0  0  0  0  0
  149.7192  138.0802  154.0856 H   0  0  0  0  0  0  0  0  0  0  0  0
  149.6367  139.8342  156.1245 H   0  0  0  0  0  0  0  0  0  0  0  0
  150.9792  140.9895  156.1226 H   0  0  0  0  0  0  0  0  0  0  0  0
  153.9320  144.0077  159.4495 H   0  0  0  0  0  0  0  0  0  0  0  0
  152.4701  145.6161  157.8029 H   0  0  0  0  0  0  0  0  0  0  0  0
  150.2692  144.0471  157.1918 H   0  0  0  0  0  0  0  0  0  0  0  0
  1  2  1  0  0  0  0
  1 17  1  0  0  0  0
  1 18  1  0  0  0  0
  1 19  1  0  0  0  0
  2  3  1  0  0  0  0
  2 12  1  0  0  0  0
  2 20  1  0  0  0  0
  3  4  2  0  0  0  0
  3  5  1  0  0  0  0
  5  6  1  0  0  0  0
  5 21  1  0  0  0  0
  6  7  1  0  0  0  0
  6 22  1  0  0  0  0
  6 23  1  0  0  0  0
  7 11  1  0  0  0  0
  7  8  1  0  0  0  0
  7 24  1  0  0  0  0
  8  9  1  0  0  0  0
  8 25  1  0  0  0  0
  8 26  1  0  0  0  0
  9 10  1  0  0  0  0
  9 27  1  0  0  0  0
  9 28  1  0  0  0  0
 10 11  1  0  0  0  0
 11 29  1  0  0  0  0
 11 30  1  0  0  0  0
 12 16  1  0  0  0  0
 12 13  1  0  0  0  0
 13 14  2  0  0  0  0
 13 31  1  0  0  0  0
 14 15  1  0  0  0  0
 14 32  1  0  0  0  0
 15 16  2  0  0  0  0
 15 33  1  0  0  0  0
M  END
> <s_m_source_file>
AV-unprocessed.smi

> <i_m_source_file_index>
1561

> <i_lp_mmshare_version>
43012

> <i_f3d_flags>
0

> <s_epik_input>
bjFbY0hdW2NIXVtjSF1uMVtDQEhdKFtDSDNdKUMoPU8pW05IXVtDSDJdW0NAQEhdMltDSDJdW0NIMl1PW0NIMl0y

> <s_epik_cmdline>
J2VwaWtfcHl0aG9uJywgJy1waCcsICc3LjAnLCAnLXRuJywgJzgnLCAnLW1hJywgJzIwMCcsICctbWV0YWxfYmluZGluZycsICctaW1hZScsICc8aW5maWxlLm1hZT4nLCAnLW9tYWUnLCAnPG91dGZpbGUubWFlPic=

> <r_lp_tautomer_probability>
1

> <r_epik_Ionization_Penalty>
3.82077e-05

> <r_epik_Ionization_Penalty_Charging>
0

> <r_epik_Ionization_Penalty_Neutral>
3.82077e-05

> <r_epik_State_Penalty>
-0

> <r_epik_Charging_Adjusted_Penalty>
0

> <i_epik_Tot_Q>
0

> <i_epik_Tot_abs_Q>
0

> <r_epik_Metal_State_Penalty>
-0

> <b_epik_Metal_Only>
0

> <s_lp_Force_Field>
OPLS_2005

> <r_lp_Energy>
22.0569

> <b_lp_Chiralities_Consistent>
1

> <s_lp_Variant>
AV-unprocessed.smi:1561-3

> <Gold.Version>
5.8.1

> <Gold.Id.Protein>
6NUR|6NUR_protein|mol2

> <Gold.PLP.Fitness>
43.8457

> <Gold.PLP.PLP>
-36.0698

> <Gold.PLP.part.hbond>
-2.0000

> <Gold.PLP.part.metal>
0.0000

> <Gold.PLP.part.buried>
-4.6379

> <Gold.PLP.part.nonpolar>
-30.3630

> <Gold.PLP.part.repulsive>
0.3137

> <Gold.PLP.ligand.clash>
0.0000

> <Gold.PLP.ligand.torsion>
0.6513

> <Gold.PLP.Chemscore.Hbond>
1.9913

> <Gold.PLP.Chemscore.CHOScore>
1.0000

> <Gold.PLP.Chemscore.Metal>
0.0000

> <Gold.Chemscore.Hbonds>
donor molecule, donor type, donor heavy atom, donor atom, acceptor molecule, acceptor atom, score
      P1  H  7989  7998       L1    10  1.00
      P1  H  7997  8009       L1     4  1.00
      L1  C    15    33       P1  8028  1.00

> <Gold.PLP.Chemscore.Internal.Correction>
0.1046

> <Gold.Rescore>
     Score         DG    S(hbond)    S(metal)    S(lipo)     H(rot)  DE(clash)    DE(int)     intcor
     18.06     -18.80       1.99        0.00      92.35       1.61       0.01       0.73       ----

> <Gold.Chemscore.Fitness>
18.0612

> <Gold.Chemscore.DG>
-18.8023

> <Gold.Chemscore.ZeroCoef>
-5.4800

> <Gold.Chemscore.Hbond>
1.9871

> <Gold.Chemscore.Metal>
0.0000

> <Gold.Chemscore.Lipo>
92.3533

> <Gold.Chemscore.Internal_Hbond>
0.0000

> <Gold.Chemscore.DEClash>
0.0118

> <Gold.Chemscore.DEInternal>
0.7293

> <Gold.Chemscore.Rot>
1.6094

> <Gold.Chemscore.Internal.Correction>
   9.000000E+99

> <Gold.Chemscore.Hbonds>
donor molecule, donor type, donor heavy atom, donor atom, acceptor molecule, acceptor atom, score
      P1  H  7989  7998       L1    10  0.98
      P1  H  7997  8009       L1     4  1.00

> <Gold.Chemscore.Hbond.Weighted>
-6.6370

> <Gold.Chemscore.Metal.Weighted>
-0.0000

> <Gold.Chemscore.Lipo.Weighted>
-10.8053

> <Gold.Chemscore.Internal_Hbond.Weighted>
0.0000

> <Gold.Chemscore.DEClash.Weighted>
0.0118

> <Gold.Chemscore.DEInternal.Weighted>
0.7293

> <Gold.Chemscore.Rot.Weighted>
4.1201

> <Gold.Chemscore.Internal.Correction.Weighted>
   9.000000E+99

> <Gold.Protein.RotatedTorsions>
[ 6907 6896 6895 6894 ] final  133.37 input  -60.11 | X-H torsion
[ 7974 7965 7964 7962 ] final  134.61 input  175.53 | X-H torsion
[ 8008 7997 7996 7995 ] final  134.78 input   59.86 | X-H torsion
[ 10167 10162 10161 10158 ] final   46.65 input  -65.29 | X-H torsion
[ 10718 10713 10712 10709 ] final    9.35 input   66.30 | X-H torsion
[ 10763 10752 10751 10750 ] final  163.70 input  -60.55 | X-H torsion
[ 11005 11000 10999 10996 ] final -121.38 input  -57.11 | X-H torsion

> <Gold.Protein.ActiveResidues>
 VAL166  LYS551  ARG553  GLY616  TRP617  ASP618  TYR619  PRO620  LYS621  CYS622 
 ASP623  PHE694  ASN695  SER759  ASP760  ASP761  ALA762  ILE779  LEU786  VAL792 
 PHE793  MET794  SER795  GLU796  ALA797  LYS798  CYS799  TRP800  GLU811  SER814 

> <Gold.Protein.RotatedAtoms>
  152.3226  133.5871  159.5754 H   0  0  0  0  0  0  0  0  0  0  0  0  # atno 6907 bound_to 6896
  150.7380  133.9987  159.3640 H   0  0  0  0  0  0  0  0  0  0  0  0  # atno 6908 bound_to 6896
  151.7870  135.0746  160.0433 H   0  0  0  0  0  0  0  0  0  0  0  0  # atno 6909 bound_to 6896
  144.9746  139.4569  143.5416 H   0  0  0  0  0  0  0  0  0  0  0  0  # atno 7974 bound_to 7965
  156.3000  140.2487  156.3473 H   0  0  0  0  0  0  0  0  0  0  0  0  # atno 8008 bound_to 7997
  154.8998  140.0406  157.1906 H   0  0  0  0  0  0  0  0  0  0  0  0  # atno 8009 bound_to 7997
  154.8512  140.2906  155.5601 H   0  0  0  0  0  0  0  0  0  0  0  0  # atno 8010 bound_to 7997
  140.3118  144.2812  150.6198 H   0  0  0  0  0  0  0  0  0  0  0  0  # atno 10167 bound_to 10162
  156.9650  130.5947  149.5665 H   0  0  0  0  0  0  0  0  0  0  0  0  # atno 10718 bound_to 10713
  154.2976  135.2759  155.2626 H   0  0  0  0  0  0  0  0  0  0  0  0  # atno 10763 bound_to 10752
  154.5077  135.5791  153.6583 H   0  0  0  0  0  0  0  0  0  0  0  0  # atno 10764 bound_to 10752
  152.9905  135.6173  154.3145 H   0  0  0  0  0  0  0  0  0  0  0  0  # atno 10765 bound_to 10752
  141.0074  134.0314  157.3459 H   0  0  0  0  0  0  0  0  0  0  0  0  # atno 11005 bound_to 11000
  146.3392  139.8980  142.8799 LP  0  0  0  0  0  0  0  0  0  0  0  0  # atno 17320 bound_to 7965
  145.2509  141.0043  143.3882 LP  0  0  0  0  0  0  0  0  0  0  0  0  # atno 17321 bound_to 7965
  140.5562  143.2199  151.7844 LP  0  0  0  0  0  0  0  0  0  0  0  0  # atno 17342 bound_to 10162
  139.4892  144.4411  151.9763 LP  0  0  0  0  0  0  0  0  0  0  0  0  # atno 17343 bound_to 10162
  156.0306  130.5397  150.8524 LP  0  0  0  0  0  0  0  0  0  0  0  0  # atno 17370 bound_to 10713
  157.5631  131.0946  150.9529 LP  0  0  0  0  0  0  0  0  0  0  0  0  # atno 17371 bound_to 10713
  139.9071  135.0182  156.7532 LP  0  0  0  0  0  0  0  0  0  0  0  0  # atno 17394 bound_to 11000
  140.6790  133.9492  155.7899 LP  0  0  0  0  0  0  0  0  0  0  0  0  # atno 17395 bound_to 11000

$$$$
