AV-unprocessed.smi:690|AV-procd|sdf|3362|dock5
  -GOLD-   22720 0343D 1   1.00000     0.00000
 Structure written by MMmdl.
 46 48  0  0  0  0  0  0  0  0  1 V2000
  146.5281  138.8591  151.4649 C   0  0  0  0  0  0  0  0  0  0  0  0
  146.9516  138.9657  152.9312 C   0  0  0  0  0  0  0  0  0  0  0  0
  147.2826  140.3146  153.2135 O   0  0  0  0  0  0  0  0  0  0  0  0
  147.1878  140.6290  154.5938 C   0  0  2  0  0  0  0  0  0  0  0  0
  147.4934  142.0891  154.9424 C   0  0  0  0  0  0  0  0  0  0  0  0
  148.1730  141.5302  156.1963 C   0  0  2  0  0  0  0  0  0  0  0  0
  149.3757  142.2633  156.5731 N   0  0  0  0  0  0  0  0  0  0  0  0
  150.3079  141.8086  157.4216 C   0  0  0  0  0  0  0  0  0  0  0  0
  150.2314  140.7151  157.9829 O   0  0  0  0  0  0  0  0  0  0  0  0
  151.4919  142.7485  157.6880 C   0  0  0  0  0  0  0  0  0  0  0  0
  152.1905  142.4543  158.9501 N   0  0  0  0  0  0  0  0  0  0  0  0
  152.1357  143.4361  159.9598 C   0  0  0  0  0  0  0  0  0  0  0  0
  152.7353  143.2657  161.1486 C   0  0  0  0  0  0  0  0  0  0  0  0
  153.4529  142.0347  161.3811 C   0  0  0  0  0  0  0  0  0  0  0  0
  153.5098  141.0882  160.4230 C   0  0  0  0  0  0  0  0  0  0  0  0
  152.8548  141.2696  159.1224 C   0  0  0  0  0  0  0  0  0  0  0  0
  152.9013  140.4101  158.2418 O   0  0  0  0  0  0  0  0  0  0  0  0
  148.4427  140.2250  155.4076 C   0  0  0  0  0  0  0  0  0  0  0  0
  149.7612  140.0707  154.6377 C   0  0  0  0  0  0  0  0  0  0  0  0
  149.8644  138.5976  154.2378 C   0  0  0  0  0  0  0  0  0  0  0  0
  149.0159  137.8348  155.2608 C   0  0  0  0  0  0  0  0  0  0  0  0
  148.3801  138.9005  156.1607 C   0  0  0  0  0  0  0  0  0  0  0  0
  146.2710  137.8316  151.2071 H   0  0  0  0  0  0  0  0  0  0  0  0
  147.3319  139.1797  150.8020 H   0  0  0  0  0  0  0  0  0  0  0  0
  145.6573  139.4830  151.2628 H   0  0  0  0  0  0  0  0  0  0  0  0
  146.1403  138.6303  153.5786 H   0  0  0  0  0  0  0  0  0  0  0  0
  147.8117  138.3210  153.1172 H   0  0  0  0  0  0  0  0  0  0  0  0
  146.2632  140.2714  155.0534 H   0  0  0  0  0  0  0  0  0  0  0  0
  148.1820  142.5650  154.2415 H   0  0  0  0  0  0  0  0  0  0  0  0
  146.6161  142.7070  155.1344 H   0  0  0  0  0  0  0  0  0  0  0  0
  147.4675  141.3780  157.0169 H   0  0  0  0  0  0  0  0  0  0  0  0
  149.5085  143.1738  156.1574 H   0  0  0  0  0  0  0  0  0  0  0  0
  152.1938  142.7008  156.8530 H   0  0  0  0  0  0  0  0  0  0  0  0
  151.1165  143.7726  157.6864 H   0  0  0  0  0  0  0  0  0  0  0  0
  151.5741  144.3242  159.7090 H   0  0  0  0  0  0  0  0  0  0  0  0
  152.6792  144.0274  161.9123 H   0  0  0  0  0  0  0  0  0  0  0  0
  153.9453  141.8712  162.3285 H   0  0  0  0  0  0  0  0  0  0  0  0
  154.0502  140.1729  160.6153 H   0  0  0  0  0  0  0  0  0  0  0  0
  149.8273  140.7264  153.7690 H   0  0  0  0  0  0  0  0  0  0  0  0
  150.6089  140.3138  155.2794 H   0  0  0  0  0  0  0  0  0  0  0  0
  149.4532  138.4531  153.2381 H   0  0  0  0  0  0  0  0  0  0  0  0
  150.8991  138.2540  154.2200 H   0  0  0  0  0  0  0  0  0  0  0  0
  148.2447  137.2595  154.7473 H   0  0  0  0  0  0  0  0  0  0  0  0
  149.6145  137.1336  155.8429 H   0  0  0  0  0  0  0  0  0  0  0  0
  148.9489  138.9769  157.0884 H   0  0  0  0  0  0  0  0  0  0  0  0
  147.3622  138.6267  156.4398 H   0  0  0  0  0  0  0  0  0  0  0  0
  1  2  1  0  0  0  0
  1 23  1  0  0  0  0
  1 24  1  0  0  0  0
  1 25  1  0  0  0  0
  2  3  1  0  0  0  0
  2 26  1  0  0  0  0
  2 27  1  0  0  0  0
  3  4  1  0  0  0  0
  4 18  1  0  0  0  0
  4  5  1  0  0  0  0
  4 28  1  0  0  0  0
  5  6  1  0  0  0  0
  5 29  1  0  0  0  0
  5 30  1  0  0  0  0
  6  7  1  0  0  0  0
  6 18  1  0  0  0  0
  6 31  1  0  0  0  0
  7  8  1  0  0  0  0
  7 32  1  0  0  0  0
  8  9  2  0  0  0  0
  8 10  1  0  0  0  0
 10 11  1  0  0  0  0
 10 33  1  0  0  0  0
 10 34  1  0  0  0  0
 11 16  1  0  0  0  0
 11 12  1  0  0  0  0
 12 13  2  0  0  0  0
 12 35  1  0  0  0  0
 13 14  1  0  0  0  0
 13 36  1  0  0  0  0
 14 15  2  0  0  0  0
 14 37  1  0  0  0  0
 15 16  1  0  0  0  0
 15 38  1  0  0  0  0
 16 17  2  0  0  0  0
 18 22  1  0  0  0  0
 18 19  1  0  0  0  0
 19 20  1  0  0  0  0
 19 39  1  0  0  0  0
 19 40  1  0  0  0  0
 20 21  1  0  0  0  0
 20 41  1  0  0  0  0
 20 42  1  0  0  0  0
 21 22  1  0  0  0  0
 21 43  1  0  0  0  0
 21 44  1  0  0  0  0
 22 45  1  0  0  0  0
 22 46  1  0  0  0  0
M  END
> <s_m_source_file>
AV-unprocessed.smi

> <i_m_source_file_index>
690

> <i_lp_mmshare_version>
43012

> <i_f3d_flags>
0

> <s_epik_input>
W0NIMl0xW0NIMl1bQ0gyXVtDSDJdQzEyW0NASF0oT1tDSDJdW0NIM10pW0NIMl1bQ0BIXTJbTkhdQyg9TylbQ0gyXW4zW2NIXVtjSF1bY0hdW2NIXWMzPU8=

> <s_epik_cmdline>
J2VwaWtfcHl0aG9uJywgJy1waCcsICc3LjAnLCAnLXRuJywgJzgnLCAnLW1hJywgJzIwMCcsICctbWV0YWxfYmluZGluZycsICctaW1hZScsICc8aW5maWxlLm1hZT4nLCAnLW9tYWUnLCAnPG91dGZpbGUubWFlPic=

> <r_lp_tautomer_probability>
1

> <r_epik_Ionization_Penalty>
4.11691e-07

> <r_epik_Ionization_Penalty_Charging>
3.92797e-07

> <r_epik_Ionization_Penalty_Neutral>
1.88943e-08

> <r_epik_State_Penalty>
-0

> <r_epik_Charging_Adjusted_Penalty>
3.92797e-07

> <i_epik_Tot_Q>
0

> <i_epik_Tot_abs_Q>
0

> <r_epik_Metal_State_Penalty>
-0

> <b_epik_Metal_Only>
0

> <s_lp_Force_Field>
OPLS_2005

> <r_lp_Energy>
45.5322

> <b_lp_Chiralities_Consistent>
1

> <s_lp_Variant>
AV-unprocessed.smi:690-3

> <Gold.Version>
5.8.1

> <Gold.Id.Protein>
6NUR|6NUR_protein|mol2

> <Gold.PLP.Fitness>
46.2176

> <Gold.PLP.PLP>
-41.6475

> <Gold.PLP.part.hbond>
-2.0000

> <Gold.PLP.part.metal>
0.0000

> <Gold.PLP.part.buried>
-0.8859

> <Gold.PLP.part.nonpolar>
-38.3224

> <Gold.PLP.part.repulsive>
1.0230

> <Gold.PLP.ligand.clash>
0.0000

> <Gold.PLP.ligand.torsion>
0.6765

> <Gold.PLP.Chemscore.Hbond>
1.8480

> <Gold.PLP.Chemscore.CHOScore>
0.0000

> <Gold.PLP.Chemscore.Metal>
0.0000

> <Gold.Chemscore.Hbonds>
donor molecule, donor type, donor heavy atom, donor atom, acceptor molecule, acceptor atom, score
      L1  H     7    32       P1  8028  1.00
      P1  H  7997  8010       L1    17  0.69

> <Gold.PLP.Chemscore.Internal.Correction>
0.3791

> <Gold.Rescore>
     Score         DG    S(hbond)    S(metal)    S(lipo)     H(rot)  DE(clash)    DE(int)     intcor
     15.23     -19.30       1.84        0.00     102.62       1.69       1.05       3.02       ----

> <Gold.Chemscore.Fitness>
15.2326

> <Gold.Chemscore.DG>
-19.3043

> <Gold.Chemscore.ZeroCoef>
-5.4800

> <Gold.Chemscore.Hbond>
1.8396

> <Gold.Chemscore.Metal>
0.0000

> <Gold.Chemscore.Lipo>
102.6202

> <Gold.Chemscore.Internal_Hbond>
0.0000

> <Gold.Chemscore.DEClash>
1.0525

> <Gold.Chemscore.DEInternal>
3.0192

> <Gold.Chemscore.Rot>
1.6900

> <Gold.Chemscore.Internal.Correction>
   9.000000E+99

> <Gold.Chemscore.Hbonds>
donor molecule, donor type, donor heavy atom, donor atom, acceptor molecule, acceptor atom, score
      L1  H     7    32       P1  8028  0.95
      P1  H  7997  8010       L1    17  0.68

> <Gold.Chemscore.Hbond.Weighted>
-6.1442

> <Gold.Chemscore.Metal.Weighted>
-0.0000

> <Gold.Chemscore.Lipo.Weighted>
-12.0066

> <Gold.Chemscore.Internal_Hbond.Weighted>
0.0000

> <Gold.Chemscore.DEClash.Weighted>
1.0525

> <Gold.Chemscore.DEInternal.Weighted>
3.0192

> <Gold.Chemscore.Rot.Weighted>
4.3265

> <Gold.Chemscore.Internal.Correction.Weighted>
   9.000000E+99

> <Gold.Protein.RotatedTorsions>
[ 6907 6896 6895 6894 ] final   76.41 input  -60.11 | X-H torsion
[ 7974 7965 7964 7962 ] final   -2.19 input  175.53 | X-H torsion
[ 8008 7997 7996 7995 ] final   44.48 input   59.86 | X-H torsion
[ 10167 10162 10161 10158 ] final -159.02 input  -65.29 | X-H torsion
[ 10718 10713 10712 10709 ] final  140.45 input   66.30 | X-H torsion
[ 10763 10752 10751 10750 ] final   90.75 input  -60.55 | X-H torsion
[ 11005 11000 10999 10996 ] final  134.10 input  -57.11 | X-H torsion

> <Gold.Protein.ActiveResidues>
 VAL166  LYS551  ARG553  GLY616  TRP617  ASP618  TYR619  PRO620  LYS621  CYS622 
 ASP623  PHE694  ASN695  SER759  ASP760  ASP761  ALA762  ILE779  LEU786  VAL792 
 PHE793  MET794  SER795  GLU796  ALA797  LYS798  CYS799  TRP800  GLU811  SER814 

> <Gold.Protein.RotatedAtoms>
  152.5071  134.3973  159.9404 H   0  0  0  0  0  0  0  0  0  0  0  0  # atno 6907 bound_to 6896
  151.3936  133.3774  159.2731 H   0  0  0  0  0  0  0  0  0  0  0  0  # atno 6908 bound_to 6896
  150.9414  134.8844  159.7673 H   0  0  0  0  0  0  0  0  0  0  0  0  # atno 6909 bound_to 6896
  146.2408  140.1533  142.8333 H   0  0  0  0  0  0  0  0  0  0  0  0  # atno 7974 bound_to 7965
  155.3200  140.3396  155.4241 H   0  0  0  0  0  0  0  0  0  0  0  0  # atno 8008 bound_to 7997
  156.1914  140.1699  156.8122 H   0  0  0  0  0  0  0  0  0  0  0  0  # atno 8009 bound_to 7997
  154.5446  140.0718  156.8551 H   0  0  0  0  0  0  0  0  0  0  0  0  # atno 8010 bound_to 7997
  139.6647  143.9850  152.2247 H   0  0  0  0  0  0  0  0  0  0  0  0  # atno 10167 bound_to 10162
  157.4031  131.1019  151.0531 H   0  0  0  0  0  0  0  0  0  0  0  0  # atno 10718 bound_to 10713
  153.2009  135.4422  155.0265 H   0  0  0  0  0  0  0  0  0  0  0  0  # atno 10763 bound_to 10752
  154.8146  135.3309  154.7213 H   0  0  0  0  0  0  0  0  0  0  0  0  # atno 10764 bound_to 10752
  153.7659  135.6988  153.4971 H   0  0  0  0  0  0  0  0  0  0  0  0  # atno 10765 bound_to 10752
  139.9893  134.9521  156.9818 H   0  0  0  0  0  0  0  0  0  0  0  0  # atno 11005 bound_to 11000
  145.0149  140.8746  143.5201 LP  0  0  0  0  0  0  0  0  0  0  0  0  # atno 17320 bound_to 7965
  145.1572  139.2479  143.5410 LP  0  0  0  0  0  0  0  0  0  0  0  0  # atno 17321 bound_to 7965
  139.9599  144.6565  150.8090 LP  0  0  0  0  0  0  0  0  0  0  0  0  # atno 17342 bound_to 10162
  140.7594  143.3129  151.2802 LP  0  0  0  0  0  0  0  0  0  0  0  0  # atno 17343 bound_to 10162
  157.1522  130.6189  149.5586 LP  0  0  0  0  0  0  0  0  0  0  0  0  # atno 17370 bound_to 10713
  155.9829  130.4845  150.6905 LP  0  0  0  0  0  0  0  0  0  0  0  0  # atno 17371 bound_to 10713
  140.4940  134.1165  155.7238 LP  0  0  0  0  0  0  0  0  0  0  0  0  # atno 17394 bound_to 11000
  141.1552  133.8896  157.1995 LP  0  0  0  0  0  0  0  0  0  0  0  0  # atno 17395 bound_to 11000

$$$$
