AV-unprocessed.smi:2258|AV-procd|sdf|9129|dock1
  -GOLD-   2272012333D 1   1.00000     0.00000
 Structure written by MMmdl.
 40 42  0  0  0  0  0  0  0  0  1 V2000
  150.3236  140.9574  155.5526 C   0  0  0  0  0  0  0  0  0  0  0  0
  149.0547  140.6716  154.8824 N   0  0  0  0  0  0  0  0  0  0  0  0
  148.0256  141.6195  154.9679 C   0  0  0  0  0  0  0  0  0  0  0  0
  146.8422  141.4042  154.3660 C   0  0  0  0  0  0  0  0  0  0  0  0
  146.6101  140.2337  153.6439 N   0  0  0  0  0  0  0  0  0  0  0  0
  147.5171  139.3033  153.5311 C   0  0  0  0  0  0  0  0  0  0  0  0
  147.3268  138.1163  152.8027 N   0  0  0  0  0  0  0  0  0  0  0  0
  146.1943  137.5011  152.3877 C   0  0  0  0  0  0  0  0  0  0  0  0
  145.0945  138.0102  152.5955 O   0  0  0  0  0  0  0  0  0  0  0  0
  146.3403  136.3556  151.6968 N   0  0  0  0  0  0  0  0  0  0  0  0
  145.2612  135.5283  151.1638 C   0  0  0  0  0  0  0  0  0  0  0  0
  145.4330  134.0328  151.4863 C   0  0  0  0  0  0  0  0  0  0  0  0
  144.2115  133.2882  150.9273 C   0  0  0  0  0  0  0  0  0  0  0  0
  144.2468  131.8108  150.6241 C   0  0  0  0  0  0  0  0  0  0  0  0
  144.0776  132.8113  149.4982 C   0  0  0  0  0  0  0  0  0  0  0  0
  146.7977  133.4106  151.1130 C   0  0  0  0  0  0  0  0  0  0  0  0
  146.8284  132.6866  152.4561 C   0  0  0  0  0  0  0  0  0  0  0  0
  145.8378  133.7383  152.9517 C   0  0  0  0  0  0  0  0  0  0  0  0
  148.8843  139.5125  154.1900 C   0  0  0  0  0  0  0  0  0  0  0  0
  149.7626  138.6546  154.0810 O   0  0  0  0  0  0  0  0  0  0  0  0
  150.2985  141.8933  156.1118 H   0  0  0  0  0  0  0  0  0  0  0  0
  151.1316  141.0316  154.8235 H   0  0  0  0  0  0  0  0  0  0  0  0
  150.5735  140.1635  156.2581 H   0  0  0  0  0  0  0  0  0  0  0  0
  148.2525  142.5090  155.5375 H   0  0  0  0  0  0  0  0  0  0  0  0
  146.0308  142.1157  154.4134 H   0  0  0  0  0  0  0  0  0  0  0  0
  148.1734  137.6620  152.4915 H   0  0  0  0  0  0  0  0  0  0  0  0
  147.2806  136.0157  151.5532 H   0  0  0  0  0  0  0  0  0  0  0  0
  144.2994  135.8962  151.5251 H   0  0  0  0  0  0  0  0  0  0  0  0
  145.2395  135.6771  150.0839 H   0  0  0  0  0  0  0  0  0  0  0  0
  143.2765  133.6483  151.3527 H   0  0  0  0  0  0  0  0  0  0  0  0
  145.2035  131.2988  150.7016 H   0  0  0  0  0  0  0  0  0  0  0  0
  143.3785  131.2211  150.9109 H   0  0  0  0  0  0  0  0  0  0  0  0
  143.0943  132.8832  149.0380 H   0  0  0  0  0  0  0  0  0  0  0  0
  144.9137  132.9277  148.8133 H   0  0  0  0  0  0  0  0  0  0  0  0
  146.7776  132.7516  150.2445 H   0  0  0  0  0  0  0  0  0  0  0  0
  147.5974  134.1482  151.0283 H   0  0  0  0  0  0  0  0  0  0  0  0
  146.4096  131.6811  152.4083 H   0  0  0  0  0  0  0  0  0  0  0  0
  147.7957  132.6991  152.9587 H   0  0  0  0  0  0  0  0  0  0  0  0
  146.3447  134.5795  153.4279 H   0  0  0  0  0  0  0  0  0  0  0  0
  145.0487  133.3552  153.5981 H   0  0  0  0  0  0  0  0  0  0  0  0
  1  2  1  0  0  0  0
  1 21  1  0  0  0  0
  1 22  1  0  0  0  0
  1 23  1  0  0  0  0
  2 19  1  0  0  0  0
  2  3  1  0  0  0  0
  3  4  2  0  0  0  0
  3 24  1  0  0  0  0
  4  5  1  0  0  0  0
  4 25  1  0  0  0  0
  5  6  2  0  0  0  0
  6  7  1  0  0  0  0
  6 19  1  0  0  0  0
  7  8  1  0  0  0  0
  7 26  1  0  0  0  0
  8  9  2  0  0  0  0
  8 10  1  0  0  0  0
 10 11  1  0  0  0  0
 10 27  1  0  0  0  0
 11 12  1  0  0  0  0
 11 28  1  0  0  0  0
 11 29  1  0  0  0  0
 12 18  1  0  0  0  0
 12 13  1  0  0  0  0
 12 16  1  0  0  0  0
 13 15  1  0  0  0  0
 13 14  1  0  0  0  0
 13 30  1  0  0  0  0
 14 15  1  0  0  0  0
 14 31  1  0  0  0  0
 14 32  1  0  0  0  0
 15 33  1  0  0  0  0
 15 34  1  0  0  0  0
 16 17  1  0  0  0  0
 16 35  1  0  0  0  0
 16 36  1  0  0  0  0
 17 18  1  0  0  0  0
 17 37  1  0  0  0  0
 17 38  1  0  0  0  0
 18 39  1  0  0  0  0
 18 40  1  0  0  0  0
 19 20  2  0  0  0  0
M  END
> <s_m_source_file>
AV-unprocessed.smi

> <i_m_source_file_index>
2258

> <i_lp_mmshare_version>
43012

> <i_f3d_flags>
0

> <s_epik_input>
W0NIM11uMVtjSF1bY0hdbmMoYzE9TylbTkhdQyg9TylbTkhdW0NIMl1DMihbQ0hdM1tDSDJdW0NIMl0zKVtDSDJdW0NIMl1bQ0gyXTI=

> <s_epik_cmdline>
J2VwaWtfcHl0aG9uJywgJy1waCcsICc3LjAnLCAnLXRuJywgJzgnLCAnLW1hJywgJzIwMCcsICctbWV0YWxfYmluZGluZycsICctaW1hZScsICc8aW5maWxlLm1hZT4nLCAnLW9tYWUnLCAnPG91dGZpbGUubWFlPic=

> <r_lp_tautomer_probability>
1

> <r_epik_Ionization_Penalty>
0.000665538

> <r_epik_Ionization_Penalty_Charging>
1.64466e-07

> <r_epik_Ionization_Penalty_Neutral>
0.000665373

> <r_epik_State_Penalty>
-0

> <r_epik_Charging_Adjusted_Penalty>
1.64466e-07

> <i_epik_Tot_Q>
0

> <i_epik_Tot_abs_Q>
0

> <r_epik_Metal_State_Penalty>
-0

> <b_epik_Metal_Only>
0

> <s_lp_Force_Field>
OPLS_2005

> <r_lp_Energy>
52.1357

> <b_lp_Chiralities_Consistent>
1

> <s_lp_Variant>
AV-unprocessed.smi:2258-1

> <Gold.Version>
5.8.1

> <Gold.Id.Protein>
6NUR|6NUR_protein|mol2

> <Gold.PLP.Fitness>
44.3883

> <Gold.PLP.PLP>
-35.7806

> <Gold.PLP.part.hbond>
-2.0000

> <Gold.PLP.part.metal>
0.0000

> <Gold.PLP.part.buried>
-5.2981

> <Gold.PLP.part.nonpolar>
-32.1631

> <Gold.PLP.part.repulsive>
2.9911

> <Gold.PLP.ligand.clash>
0.0000

> <Gold.PLP.ligand.torsion>
0.9883

> <Gold.PLP.Chemscore.Hbond>
1.9680

> <Gold.PLP.Chemscore.CHOScore>
1.0000

> <Gold.PLP.Chemscore.Metal>
0.0000

> <Gold.Chemscore.Hbonds>
donor molecule, donor type, donor heavy atom, donor atom, acceptor molecule, acceptor atom, score
      L1  H     7    26       P1  7948  0.99
      L1  H    10    27       P1  7948  0.98
      L1  C     3    24       P1  8028  1.00

> <Gold.PLP.Chemscore.Internal.Correction>
1.6803

> <Gold.Rescore>
     Score         DG    S(hbond)    S(metal)    S(lipo)     H(rot)  DE(clash)    DE(int)     intcor
     13.42     -16.21       1.84        0.00      71.51       1.47       0.53       2.25       ----

> <Gold.Chemscore.Fitness>
13.4209

> <Gold.Chemscore.DG>
-16.2050

> <Gold.Chemscore.ZeroCoef>
-5.4800

> <Gold.Chemscore.Hbond>
1.8361

> <Gold.Chemscore.Metal>
0.0000

> <Gold.Chemscore.Lipo>
71.5076

> <Gold.Chemscore.Internal_Hbond>
0.0000

> <Gold.Chemscore.DEClash>
0.5341

> <Gold.Chemscore.DEInternal>
2.2501

> <Gold.Chemscore.Rot>
1.4742

> <Gold.Chemscore.Internal.Correction>
   9.000000E+99

> <Gold.Chemscore.Hbonds>
donor molecule, donor type, donor heavy atom, donor atom, acceptor molecule, acceptor atom, score
      L1  H     7    26       P1  7948  0.94
      L1  H    10    27       P1  7948  0.93

> <Gold.Chemscore.Hbond.Weighted>
-6.1327

> <Gold.Chemscore.Metal.Weighted>
-0.0000

> <Gold.Chemscore.Lipo.Weighted>
-8.3664

> <Gold.Chemscore.Internal_Hbond.Weighted>
0.0000

> <Gold.Chemscore.DEClash.Weighted>
0.5341

> <Gold.Chemscore.DEInternal.Weighted>
2.2501

> <Gold.Chemscore.Rot.Weighted>
3.7740

> <Gold.Chemscore.Internal.Correction.Weighted>
   9.000000E+99

> <Gold.Protein.RotatedTorsions>
[ 6907 6896 6895 6894 ] final -109.59 input  -60.11 | X-H torsion
[ 7974 7965 7964 7962 ] final  -15.04 input  175.53 | X-H torsion
[ 8008 7997 7996 7995 ] final  116.50 input   59.86 | X-H torsion
[ 10167 10162 10161 10158 ] final  109.55 input  -65.29 | X-H torsion
[ 10718 10713 10712 10709 ] final -146.44 input   66.30 | X-H torsion
[ 10763 10752 10751 10750 ] final  -57.40 input  -60.55 | X-H torsion
[ 11005 11000 10999 10996 ] final  -63.74 input  -57.11 | X-H torsion

> <Gold.Protein.ActiveResidues>
 VAL166  LYS551  ARG553  GLY616  TRP617  ASP618  TYR619  PRO620  LYS621  CYS622 
 ASP623  PHE694  ASN695  SER759  ASP760  ASP761  ALA762  ILE779  LEU786  VAL792 
 PHE793  MET794  SER795  GLU796  ALA797  LYS798  CYS799  TRP800  GLU811  SER814 

> <Gold.Protein.RotatedAtoms>
  150.7572  133.9506  159.3484 H   0  0  0  0  0  0  0  0  0  0  0  0  # atno 6907 bound_to 6896
  151.7423  135.0849  160.0327 H   0  0  0  0  0  0  0  0  0  0  0  0  # atno 6908 bound_to 6896
  152.3520  133.6154  159.5988 H   0  0  0  0  0  0  0  0  0  0  0  0  # atno 6909 bound_to 6896
  146.2049  140.3435  142.8410 H   0  0  0  0  0  0  0  0  0  0  0  0  # atno 7974 bound_to 7965
  156.2442  140.2916  156.0532 H   0  0  0  0  0  0  0  0  0  0  0  0  # atno 8008 bound_to 7997
  155.1858  140.0405  157.2908 H   0  0  0  0  0  0  0  0  0  0  0  0  # atno 8009 bound_to 7997
  154.6228  140.2480  155.7535 H   0  0  0  0  0  0  0  0  0  0  0  0  # atno 8010 bound_to 7997
  139.6757  144.7122  151.1606 H   0  0  0  0  0  0  0  0  0  0  0  0  # atno 10167 bound_to 10162
  156.3950  130.7905  151.2110 H   0  0  0  0  0  0  0  0  0  0  0  0  # atno 10718 bound_to 10713
  154.2218  135.6376  153.5147 H   0  0  0  0  0  0  0  0  0  0  0  0  # atno 10763 bound_to 10752
  152.9967  135.5498  154.6106 H   0  0  0  0  0  0  0  0  0  0  0  0  # atno 10764 bound_to 10752
  154.5568  135.2906  155.0931 H   0  0  0  0  0  0  0  0  0  0  0  0  # atno 10765 bound_to 10752
  141.1403  133.6656  156.5726 H   0  0  0  0  0  0  0  0  0  0  0  0  # atno 11005 bound_to 11000
  144.8768  140.7347  143.6012 LP  0  0  0  0  0  0  0  0  0  0  0  0  # atno 17320 bound_to 7965
  145.3355  139.1747  143.4514 LP  0  0  0  0  0  0  0  0  0  0  0  0  # atno 17321 bound_to 7965
  140.7634  143.5775  150.8930 LP  0  0  0  0  0  0  0  0  0  0  0  0  # atno 17342 bound_to 10162
  139.9444  143.6345  152.3045 LP  0  0  0  0  0  0  0  0  0  0  0  0  # atno 17343 bound_to 10162
  157.7501  131.0304  150.4135 LP  0  0  0  0  0  0  0  0  0  0  0  0  # atno 17370 bound_to 10713
  156.4404  130.3990  149.6701 LP  0  0  0  0  0  0  0  0  0  0  0  0  # atno 17371 bound_to 10713
  140.3901  134.7448  157.4716 LP  0  0  0  0  0  0  0  0  0  0  0  0  # atno 17394 bound_to 11000
  140.0573  134.6046  155.8790 LP  0  0  0  0  0  0  0  0  0  0  0  0  # atno 17395 bound_to 11000

$$$$
