AV-unprocessed.smi:2506|AV-procd|sdf|9862|dock5
  -GOLD-   2272013493D 1   1.00000     0.00000
 Structure written by MMmdl.
 39 40  0  0  0  0  0  0  0  0  2 V2000
  150.3168  138.5283  154.5712 C   0  0  0  0  0  0  0  0  0  0  0  0
  149.3014  139.6542  154.4792 C   0  0  0  0  0  0  0  0  0  0  0  0
  149.7457  140.8702  154.8765 N   0  0  0  0  0  0  0  0  0  0  0  0
  148.8913  141.9048  154.8172 N   0  3  0  0  0  0  0  0  0  0  0  0
  147.6134  141.7839  154.3881 C   0  0  0  0  0  0  0  0  0  0  0  0
  147.1173  140.5359  153.9694 C   0  0  0  0  0  0  0  0  0  0  0  0
  147.9900  139.4249  154.0007 C   0  0  0  0  0  0  0  0  0  0  0  0
  147.6054  138.1090  153.6188 N   0  0  0  0  0  0  0  0  0  0  0  0
  146.3751  137.5692  153.6131 C   0  0  0  0  0  0  0  0  0  0  0  0
  145.3466  138.1447  153.9677 O   0  0  0  0  0  0  0  0  0  0  0  0
  146.4006  136.3150  153.1409 N   0  0  0  0  0  0  0  0  0  0  0  0
  145.2391  135.4450  152.9676 C   0  0  0  0  0  0  0  0  0  0  0  0
  145.1476  134.8404  151.5442 C   0  0  0  0  0  0  0  0  0  0  0  0
  145.1303  135.9562  150.4744 C   0  0  0  0  0  0  0  0  0  0  0  0
  146.2808  133.8372  151.2646 C   0  0  0  0  0  0  0  0  0  0  0  0
  145.7436  132.8758  150.1983 C   0  0  0  0  0  0  0  0  0  0  0  0
  144.2135  132.9424  150.2943 C   0  0  0  0  0  0  0  0  0  0  0  0
  143.8965  133.9568  151.4003 C   0  0  0  0  0  0  0  0  0  0  0  0
  150.4801  138.0835  153.5890 H   0  0  0  0  0  0  0  0  0  0  0  0
  149.9621  137.7508  155.2484 H   0  0  0  0  0  0  0  0  0  0  0  0
  151.2790  138.8840  154.9421 H   0  0  0  0  0  0  0  0  0  0  0  0
  147.0259  142.6903  154.3985 H   0  0  0  0  0  0  0  0  0  0  0  0
  146.0894  140.4561  153.6503 H   0  0  0  0  0  0  0  0  0  0  0  0
  148.3400  137.5391  153.2250 H   0  0  0  0  0  0  0  0  0  0  0  0
  147.2931  135.9289  152.8691 H   0  0  0  0  0  0  0  0  0  0  0  0
  145.3280  134.6473  153.7059 H   0  0  0  0  0  0  0  0  0  0  0  0
  144.3156  135.9721  153.2136 H   0  0  0  0  0  0  0  0  0  0  0  0
  144.9789  135.5576  149.4711 H   0  0  0  0  0  0  0  0  0  0  0  0
  146.0673  136.5127  150.4568 H   0  0  0  0  0  0  0  0  0  0  0  0
  144.3276  136.6695  150.6642 H   0  0  0  0  0  0  0  0  0  0  0  0
  147.2096  134.3191  150.9568 H   0  0  0  0  0  0  0  0  0  0  0  0
  146.5004  133.2676  152.1689 H   0  0  0  0  0  0  0  0  0  0  0  0
  146.0648  133.1970  149.2067 H   0  0  0  0  0  0  0  0  0  0  0  0
  146.1187  131.8632  150.3493 H   0  0  0  0  0  0  0  0  0  0  0  0
  143.7979  133.2776  149.3431 H   0  0  0  0  0  0  0  0  0  0  0  0
  143.7765  131.9678  150.5138 H   0  0  0  0  0  0  0  0  0  0  0  0
  143.7173  133.4110  152.3279 H   0  0  0  0  0  0  0  0  0  0  0  0
  142.9930  134.5309  151.1909 H   0  0  0  0  0  0  0  0  0  0  0  0
  149.2163  142.8253  155.1146 H   0  0  0  0  0  0  0  0  0  0  0  0
  1  2  1  0  0  0  0
  1 19  1  0  0  0  0
  1 20  1  0  0  0  0
  1 21  1  0  0  0  0
  2  7  1  0  0  0  0
  2  3  2  0  0  0  0
  3  4  1  0  0  0  0
  4  5  2  0  0  0  0
  4 39  1  0  0  0  0
  5  6  1  0  0  0  0
  5 22  1  0  0  0  0
  6  7  2  0  0  0  0
  6 23  1  0  0  0  0
  7  8  1  0  0  0  0
  8  9  1  0  0  0  0
  8 24  1  0  0  0  0
  9 10  2  0  0  0  0
  9 11  1  0  0  0  0
 11 12  1  0  0  0  0
 11 25  1  0  0  0  0
 12 13  1  0  0  0  0
 12 26  1  0  0  0  0
 12 27  1  0  0  0  0
 13 18  1  0  0  0  0
 13 14  1  0  0  0  0
 13 15  1  0  0  0  0
 14 28  1  0  0  0  0
 14 29  1  0  0  0  0
 14 30  1  0  0  0  0
 15 16  1  0  0  0  0
 15 31  1  0  0  0  0
 15 32  1  0  0  0  0
 16 17  1  0  0  0  0
 16 33  1  0  0  0  0
 16 34  1  0  0  0  0
 17 18  1  0  0  0  0
 17 35  1  0  0  0  0
 17 36  1  0  0  0  0
 18 37  1  0  0  0  0
 18 38  1  0  0  0  0
M  CHG  1   4   1
M  END
> <s_m_source_file>
AV-unprocessed.smi

> <i_m_source_file_index>
2506

> <i_lp_mmshare_version>
43012

> <i_f3d_flags>
0

> <s_epik_input>
W0NIM11jMW5uW2NIXVtjSF1jMVtOSF1DKD1PKVtOSF1bQ0gyXUMyKFtDSDNdKVtDSDJdW0NIMl1bQ0gyXVtDSDJdMg==

> <s_epik_cmdline>
J2VwaWtfcHl0aG9uJywgJy1waCcsICc3LjAnLCAnLXRuJywgJzgnLCAnLW1hJywgJzIwMCcsICctbWV0YWxfYmluZGluZycsICctaW1hZScsICc8aW5maWxlLm1hZT4nLCAnLW9tYWUnLCAnPG91dGZpbGUubWFlPic=

> <r_lp_tautomer_probability>
0.5088

> <r_epik_Ionization_Penalty>
1.13414

> <r_epik_Ionization_Penalty_Charging>
1.1341

> <r_epik_Ionization_Penalty_Neutral>
4.35135e-05

> <r_epik_State_Penalty>
2.14502

> <r_epik_Charging_Adjusted_Penalty>
3.27912

> <i_epik_Tot_Q>
1

> <i_epik_Tot_abs_Q>
1

> <r_epik_Metal_State_Penalty>
2.23434

> <b_epik_Metal_Only>
0

> <s_lp_Force_Field>
OPLS_2005

> <r_lp_Energy>
34.1821

> <b_lp_Chiralities_Consistent>
1

> <s_lp_Variant>
AV-unprocessed.smi:2506-2

> <Gold.Version>
5.8.1

> <Gold.Id.Protein>
6NUR|6NUR_protein|mol2

> <Gold.PLP.Fitness>
45.6484

> <Gold.PLP.PLP>
-32.9977

> <Gold.PLP.part.hbond>
-4.0000

> <Gold.PLP.part.metal>
0.0000

> <Gold.PLP.part.buried>
-2.2405

> <Gold.PLP.part.nonpolar>
-26.5575

> <Gold.PLP.part.repulsive>
1.5972

> <Gold.PLP.ligand.clash>
0.0000

> <Gold.PLP.ligand.torsion>
0.1903

> <Gold.PLP.Chemscore.Hbond>
4.3389

> <Gold.PLP.Chemscore.CHOScore>
0.0000

> <Gold.PLP.Chemscore.Metal>
0.0000

> <Gold.Chemscore.Hbonds>
donor molecule, donor type, donor heavy atom, donor atom, acceptor molecule, acceptor atom, score
      L1  H     4    39       P1  8028  2.00
      L1  H     8    24       P1  7948  1.00
      L1  H    11    25       P1  7948  0.93
      P1  H  7989  7998       L1     3  0.16

> <Gold.PLP.Chemscore.Internal.Correction>
0.0146

> <Gold.Rescore>
     Score         DG    S(hbond)    S(metal)    S(lipo)     H(rot)  DE(clash)    DE(int)     intcor
     20.15     -21.29       2.90        0.00      79.13       1.22       0.10       1.04       ----

> <Gold.Chemscore.Fitness>
20.1504

> <Gold.Chemscore.DG>
-21.2937

> <Gold.Chemscore.ZeroCoef>
-5.4800

> <Gold.Chemscore.Hbond>
2.8982

> <Gold.Chemscore.Metal>
0.0000

> <Gold.Chemscore.Lipo>
79.1339

> <Gold.Chemscore.Internal_Hbond>
0.0000

> <Gold.Chemscore.DEClash>
0.1045

> <Gold.Chemscore.DEInternal>
1.0388

> <Gold.Chemscore.Rot>
1.2207

> <Gold.Chemscore.Internal.Correction>
   9.000000E+99

> <Gold.Chemscore.Hbonds>
donor molecule, donor type, donor heavy atom, donor atom, acceptor molecule, acceptor atom, score
      L1  H     4    39       P1  8028  0.92
      L1  H     8    24       P1  7948  0.92
      L1  H    11    25       P1  7948  0.88
      P1  H  7989  7998       L1     3  0.02

> <Gold.Chemscore.Hbond.Weighted>
-9.6800

> <Gold.Chemscore.Metal.Weighted>
-0.0000

> <Gold.Chemscore.Lipo.Weighted>
-9.2587

> <Gold.Chemscore.Internal_Hbond.Weighted>
0.0000

> <Gold.Chemscore.DEClash.Weighted>
0.1045

> <Gold.Chemscore.DEInternal.Weighted>
1.0388

> <Gold.Chemscore.Rot.Weighted>
3.1250

> <Gold.Chemscore.Internal.Correction.Weighted>
   9.000000E+99

> <Gold.Protein.RotatedTorsions>
[ 6907 6896 6895 6894 ] final  101.48 input  -60.11 | X-H torsion
[ 7974 7965 7964 7962 ] final   63.43 input  175.53 | X-H torsion
[ 8008 7997 7996 7995 ] final  -47.51 input   59.86 | X-H torsion
[ 10167 10162 10161 10158 ] final  -58.32 input  -65.29 | X-H torsion
[ 10718 10713 10712 10709 ] final  152.44 input   66.30 | X-H torsion
[ 10763 10752 10751 10750 ] final   -5.09 input  -60.55 | X-H torsion
[ 11005 11000 10999 10996 ] final  148.25 input  -57.11 | X-H torsion

> <Gold.Protein.ActiveResidues>
 VAL166  LYS551  ARG553  GLY616  TRP617  ASP618  TYR619  PRO620  LYS621  CYS622 
 ASP623  PHE694  ASN695  SER759  ASP760  ASP761  ALA762  ILE779  LEU786  VAL792 
 PHE793  MET794  SER795  GLU796  ALA797  LYS798  CYS799  TRP800  GLU811  SER814 

> <Gold.Protein.RotatedAtoms>
  152.5348  134.0119  159.7941 H   0  0  0  0  0  0  0  0  0  0  0  0  # atno 6907 bound_to 6896
  151.0320  133.5774  159.2667 H   0  0  0  0  0  0  0  0  0  0  0  0  # atno 6908 bound_to 6896
  151.2776  135.0711  159.9211 H   0  0  0  0  0  0  0  0  0  0  0  0  # atno 6909 bound_to 6896
  145.8619  139.3321  143.0814 H   0  0  0  0  0  0  0  0  0  0  0  0  # atno 7974 bound_to 7965
  154.4017  140.1344  156.4187 H   0  0  0  0  0  0  0  0  0  0  0  0  # atno 8008 bound_to 7997
  155.7663  140.3485  155.5204 H   0  0  0  0  0  0  0  0  0  0  0  0  # atno 8009 bound_to 7997
  155.8810  140.0987  157.1475 H   0  0  0  0  0  0  0  0  0  0  0  0  # atno 8010 bound_to 7997
  140.6204  143.2417  151.5494 H   0  0  0  0  0  0  0  0  0  0  0  0  # atno 10167 bound_to 10162
  157.2577  131.0792  151.1687 H   0  0  0  0  0  0  0  0  0  0  0  0  # atno 10718 bound_to 10713
  153.3938  135.7002  153.6475 H   0  0  0  0  0  0  0  0  0  0  0  0  # atno 10763 bound_to 10752
  153.5037  135.3647  155.2553 H   0  0  0  0  0  0  0  0  0  0  0  0  # atno 10764 bound_to 10752
  154.8705  135.4118  154.3260 H   0  0  0  0  0  0  0  0  0  0  0  0  # atno 10765 bound_to 10752
  140.0944  134.9022  157.1700 H   0  0  0  0  0  0  0  0  0  0  0  0  # atno 11005 bound_to 11000
  145.9238  140.9097  143.0391 LP  0  0  0  0  0  0  0  0  0  0  0  0  # atno 17320 bound_to 7965
  144.6726  140.1324  143.7443 LP  0  0  0  0  0  0  0  0  0  0  0  0  # atno 17321 bound_to 7965
  139.5434  144.2586  152.1395 LP  0  0  0  0  0  0  0  0  0  0  0  0  # atno 17342 bound_to 10162
  140.1805  144.4849  150.6531 LP  0  0  0  0  0  0  0  0  0  0  0  0  # atno 17343 bound_to 10162
  157.3209  130.6937  149.6268 LP  0  0  0  0  0  0  0  0  0  0  0  0  # atno 17370 bound_to 10713
  155.9664  130.4335  150.5011 LP  0  0  0  0  0  0  0  0  0  0  0  0  # atno 17371 bound_to 10713
  140.3308  134.2812  155.7228 LP  0  0  0  0  0  0  0  0  0  0  0  0  # atno 17394 bound_to 11000
  141.2087  133.7769  157.0040 LP  0  0  0  0  0  0  0  0  0  0  0  0  # atno 17395 bound_to 11000

$$$$
