AV-unprocessed.smi:1988|AV-procd|sdf|8059|dock1
  -GOLD-   2272010263D 1   1.00000     0.00000
 Structure written by MMmdl.
 37 38  0  0  0  0  0  0  0  0  1 V2000
  147.8796  135.6786  157.9466 C   0  0  0  0  0  0  0  0  0  0  0  0
  148.3914  134.8287  156.8190 C   0  0  0  0  0  0  0  0  0  0  0  0
  149.3006  133.9000  157.0630 N   0  0  0  0  0  0  0  0  0  0  0  0
  149.5639  133.2894  155.8332 O   0  0  0  0  0  0  0  0  0  0  0  0
  148.7934  133.8811  154.8856 C   0  0  0  0  0  0  0  0  0  0  0  0
  148.9341  133.3621  153.4946 C   0  0  0  0  0  0  0  0  0  0  0  0
  148.0250  134.8668  155.4426 C   0  0  0  0  0  0  0  0  0  0  0  0
  147.0272  135.7784  154.7742 C   0  0  0  0  0  0  0  0  0  0  0  0
  147.4530  137.2370  154.9461 C   0  0  0  0  0  0  0  0  0  0  0  0
  147.2279  137.8225  156.0046 O   0  0  0  0  0  0  0  0  0  0  0  0
  148.0592  137.8120  153.8954 N   0  0  0  0  0  0  0  0  0  0  0  0
  148.5574  139.1828  153.8460 C   0  0  0  0  0  0  0  0  0  0  0  0
  149.9573  139.3163  154.4767 C   0  0  1  0  0  0  0  0  0  0  0  0
  149.9382  139.6649  155.9806 C   0  0  0  0  0  0  0  0  0  0  0  0
  151.3491  139.4798  156.5477 C   0  0  0  0  0  0  0  0  0  0  0  0
  152.0804  138.0873  155.6111 S   0  0  0  0  0  0  0  0  0  0  0  0
  153.3560  138.5239  155.0234 O   0  0  0  0  0  0  0  0  0  0  0  0
  151.9976  136.8574  156.4134 O   0  0  0  0  0  0  0  0  0  0  0  0
  150.7913  138.0362  154.3092 C   0  0  0  0  0  0  0  0  0  0  0  0
  147.7582  136.7152  157.6327 H   0  0  0  0  0  0  0  0  0  0  0  0
  148.5607  135.6714  158.7984 H   0  0  0  0  0  0  0  0  0  0  0  0
  146.9100  135.3207  158.2929 H   0  0  0  0  0  0  0  0  0  0  0  0
  148.5931  134.0970  152.7654 H   0  0  0  0  0  0  0  0  0  0  0  0
  148.3452  132.4548  153.3612 H   0  0  0  0  0  0  0  0  0  0  0  0
  149.9749  133.1264  153.2716 H   0  0  0  0  0  0  0  0  0  0  0  0
  146.9350  135.5605  153.7096 H   0  0  0  0  0  0  0  0  0  0  0  0
  146.0297  135.6457  155.1950 H   0  0  0  0  0  0  0  0  0  0  0  0
  148.2011  137.2488  153.0695 H   0  0  0  0  0  0  0  0  0  0  0  0
  148.5598  139.5618  152.8226 H   0  0  0  0  0  0  0  0  0  0  0  0
  147.8512  139.8050  154.3963 H   0  0  0  0  0  0  0  0  0  0  0  0
  150.4910  140.1183  153.9644 H   0  0  0  0  0  0  0  0  0  0  0  0
  149.5749  140.6767  156.1615 H   0  0  0  0  0  0  0  0  0  0  0  0
  149.2582  138.9856  156.4965 H   0  0  0  0  0  0  0  0  0  0  0  0
  151.9588  140.3653  156.3665 H   0  0  0  0  0  0  0  0  0  0  0  0
  151.3554  139.2629  157.6161 H   0  0  0  0  0  0  0  0  0  0  0  0
  150.1842  137.1468  154.4808 H   0  0  0  0  0  0  0  0  0  0  0  0
  151.2532  137.9545  153.3252 H   0  0  0  0  0  0  0  0  0  0  0  0
  1  2  1  0  0  0  0
  1 20  1  0  0  0  0
  1 21  1  0  0  0  0
  1 22  1  0  0  0  0
  2  7  1  0  0  0  0
  2  3  2  0  0  0  0
  3  4  1  0  0  0  0
  4  5  1  0  0  0  0
  5  6  1  0  0  0  0
  5  7  2  0  0  0  0
  6 23  1  0  0  0  0
  6 24  1  0  0  0  0
  6 25  1  0  0  0  0
  7  8  1  0  0  0  0
  8  9  1  0  0  0  0
  8 26  1  0  0  0  0
  8 27  1  0  0  0  0
  9 10  2  0  0  0  0
  9 11  1  0  0  0  0
 11 12  1  0  0  0  0
 11 28  1  0  0  0  0
 12 13  1  0  0  0  0
 12 29  1  0  0  0  0
 12 30  1  0  0  0  0
 13 19  1  0  0  0  0
 13 14  1  0  0  0  0
 13 31  1  0  0  0  0
 14 15  1  0  0  0  0
 14 32  1  0  0  0  0
 14 33  1  0  0  0  0
 15 16  1  0  0  0  0
 15 34  1  0  0  0  0
 15 35  1  0  0  0  0
 16 17  2  0  0  0  0
 16 18  2  0  0  0  0
 16 19  1  0  0  0  0
 19 36  1  0  0  0  0
 19 37  1  0  0  0  0
M  END
> <s_m_source_file>
AV-unprocessed.smi

> <i_m_source_file_index>
1988

> <i_lp_mmshare_version>
43012

> <i_f3d_flags>
0

> <s_epik_input>
W0NIM11jMW5vYyhbQ0gzXSljMVtDSDJdQyg9TylbTkhdW0NIMl1bQ0BASF0oW0NIMl0yKVtDSDJdW0NIMl1TMig9Tyk9Tw==

> <s_epik_cmdline>
J2VwaWtfcHl0aG9uJywgJy1waCcsICc3LjAnLCAnLXRuJywgJzgnLCAnLW1hJywgJzIwMCcsICctbWV0YWxfYmluZGluZycsICctaW1hZScsICc8aW5maWxlLm1hZT4nLCAnLW9tYWUnLCAnPG91dGZpbGUubWFlPic=

> <r_lp_tautomer_probability>
1

> <r_epik_Ionization_Penalty>
2.7503e-08

> <r_epik_Ionization_Penalty_Charging>
0

> <r_epik_Ionization_Penalty_Neutral>
2.7503e-08

> <r_epik_State_Penalty>
-0

> <r_epik_Charging_Adjusted_Penalty>
0

> <i_epik_Tot_Q>
0

> <i_epik_Tot_abs_Q>
0

> <r_epik_Metal_State_Penalty>
-0

> <b_epik_Metal_Only>
0

> <s_lp_Force_Field>
OPLS_2005

> <r_lp_Energy>
-1.59396

> <b_lp_Chiralities_Consistent>
1

> <s_lp_Variant>
AV-unprocessed.smi:1988-2

> <Gold.Version>
5.8.1

> <Gold.Id.Protein>
6NUR|6NUR_protein|mol2

> <Gold.PLP.Fitness>
35.7267

> <Gold.PLP.PLP>
-26.9908

> <Gold.PLP.part.hbond>
-4.0230

> <Gold.PLP.part.metal>
0.0000

> <Gold.PLP.part.buried>
-1.9850

> <Gold.PLP.part.nonpolar>
-20.9198

> <Gold.PLP.part.repulsive>
0.0020

> <Gold.PLP.ligand.clash>
0.0000

> <Gold.PLP.ligand.torsion>
0.8166

> <Gold.PLP.Chemscore.Hbond>
3.4480

> <Gold.PLP.Chemscore.CHOScore>
0.0000

> <Gold.PLP.Chemscore.Metal>
0.0000

> <Gold.Chemscore.Hbonds>
donor molecule, donor type, donor heavy atom, donor atom, acceptor molecule, acceptor atom, score
      L1  H    11    28       P1  7948  1.00
      P1  H  7997  8008       L1    17  0.44
      P1  H 10752 10763       L1    18  0.17

> <Gold.PLP.Chemscore.Internal.Correction>
0.0251

> <Gold.Rescore>
     Score         DG    S(hbond)    S(metal)    S(lipo)     H(rot)  DE(clash)    DE(int)     intcor
     15.46     -17.29       3.01        0.00      52.01       1.70       0.00       1.82       ----

> <Gold.Chemscore.Fitness>
15.4644

> <Gold.Chemscore.DG>
-17.2886

> <Gold.Chemscore.ZeroCoef>
-5.4800

> <Gold.Chemscore.Hbond>
3.0132

> <Gold.Chemscore.Metal>
0.0000

> <Gold.Chemscore.Lipo>
52.0139

> <Gold.Chemscore.Internal_Hbond>
0.0000

> <Gold.Chemscore.DEClash>
0.0000

> <Gold.Chemscore.DEInternal>
1.8242

> <Gold.Chemscore.Rot>
1.6958

> <Gold.Chemscore.Internal.Correction>
   9.000000E+99

> <Gold.Chemscore.Hbonds>
donor molecule, donor type, donor heavy atom, donor atom, acceptor molecule, acceptor atom, score
      L1  H    11    28       P1  7948  1.00
      P1  H  7997  8008       L1    17  0.42
      P1  H 10752 10763       L1    18  0.07

> <Gold.Chemscore.Hbond.Weighted>
-10.0642

> <Gold.Chemscore.Metal.Weighted>
-0.0000

> <Gold.Chemscore.Lipo.Weighted>
-6.0856

> <Gold.Chemscore.Internal_Hbond.Weighted>
0.0000

> <Gold.Chemscore.DEClash.Weighted>
0.0000

> <Gold.Chemscore.DEInternal.Weighted>
1.8242

> <Gold.Chemscore.Rot.Weighted>
4.3413

> <Gold.Chemscore.Internal.Correction.Weighted>
   9.000000E+99

> <Gold.Protein.RotatedTorsions>
[ 6907 6896 6895 6894 ] final    4.97 input  -60.11 | X-H torsion
[ 7974 7965 7964 7962 ] final  126.25 input  175.53 | X-H torsion
[ 8008 7997 7996 7995 ] final    2.03 input   59.86 | X-H torsion
[ 10167 10162 10161 10158 ] final  143.17 input  -65.29 | X-H torsion
[ 10718 10713 10712 10709 ] final   -3.97 input   66.30 | X-H torsion
[ 10763 10752 10751 10750 ] final  114.42 input  -60.55 | X-H torsion
[ 11005 11000 10999 10996 ] final   -5.67 input  -57.11 | X-H torsion

> <Gold.Protein.ActiveResidues>
 VAL166  LYS551  ARG553  GLY616  TRP617  ASP618  TYR619  PRO620  LYS621  CYS622 
 ASP623  PHE694  ASN695  SER759  ASP760  ASP761  ALA762  ILE779  LEU786  VAL792 
 PHE793  MET794  SER795  GLU796  ALA797  LYS798  CYS799  TRP800  GLU811  SER814 

> <Gold.Protein.RotatedAtoms>
  151.6500  135.1002  160.0158 H   0  0  0  0  0  0  0  0  0  0  0  0  # atno 6907 bound_to 6896
  152.4006  133.6808  159.6322 H   0  0  0  0  0  0  0  0  0  0  0  0  # atno 6908 bound_to 6896
  150.7907  133.8714  159.3301 H   0  0  0  0  0  0  0  0  0  0  0  0  # atno 6909 bound_to 6896
  145.0638  139.3784  143.4992 H   0  0  0  0  0  0  0  0  0  0  0  0  # atno 7974 bound_to 7965
  154.6867  140.2644  155.6853 H   0  0  0  0  0  0  0  0  0  0  0  0  # atno 8008 bound_to 7997
  156.2717  140.2799  156.1354 H   0  0  0  0  0  0  0  0  0  0  0  0  # atno 8009 bound_to 7997
  155.0954  140.0374  157.2671 H   0  0  0  0  0  0  0  0  0  0  0  0  # atno 8010 bound_to 7997
  139.4976  144.6058  151.6381 H   0  0  0  0  0  0  0  0  0  0  0  0  # atno 10167 bound_to 10162
  156.7682  130.5291  149.5772 H   0  0  0  0  0  0  0  0  0  0  0  0  # atno 10718 bound_to 10713
  153.5071  135.3626  155.2568 H   0  0  0  0  0  0  0  0  0  0  0  0  # atno 10763 bound_to 10752
  154.8744  135.4014  154.3412 H   0  0  0  0  0  0  0  0  0  0  0  0  # atno 10764 bound_to 10752
  153.4058  135.7076  153.6460 H   0  0  0  0  0  0  0  0  0  0  0  0  # atno 10765 bound_to 10752
  140.6937  133.9049  155.8635 H   0  0  0  0  0  0  0  0  0  0  0  0  # atno 11005 bound_to 11000
  146.3526  140.0349  142.8647 LP  0  0  0  0  0  0  0  0  0  0  0  0  # atno 17320 bound_to 7965
  145.1376  140.9553  143.4507 LP  0  0  0  0  0  0  0  0  0  0  0  0  # atno 17321 bound_to 7965
  140.5719  144.0093  150.6221 LP  0  0  0  0  0  0  0  0  0  0  0  0  # atno 17342 bound_to 10162
  140.3214  143.3135  152.0780 LP  0  0  0  0  0  0  0  0  0  0  0  0  # atno 17343 bound_to 10162
  156.1295  130.6167  151.0312 LP  0  0  0  0  0  0  0  0  0  0  0  0  # atno 17370 bound_to 10713
  157.6703  131.0863  150.7628 LP  0  0  0  0  0  0  0  0  0  0  0  0  # atno 17371 bound_to 10713
  141.0220  134.0875  157.4109 LP  0  0  0  0  0  0  0  0  0  0  0  0  # atno 17394 bound_to 11000
  139.8916  135.0119  156.6801 LP  0  0  0  0  0  0  0  0  0  0  0  0  # atno 17395 bound_to 11000

$$$$
