AV-unprocessed.smi:1757|AV-procd|sdf|7077|dock5
  -GOLD-   22720 8293D 1   1.00000     0.00000
 Structure written by MMmdl.
 39 40  0  0  0  0  0  0  0  0  3 V2000
  148.3908  133.2710  153.6438 C   0  0  0  0  0  0  0  0  0  0  0  0
  148.9112  134.5770  154.1015 N   0  3  2  0  0  0  0  0  0  0  0  0
  150.2105  134.4512  154.8079 C   0  0  0  0  0  0  0  0  0  0  0  0
  150.7862  135.8339  155.1571 C   0  0  0  0  0  0  0  0  0  0  0  0
  149.7880  136.6583  155.9870 C   0  0  1  0  0  0  0  0  0  0  0  0
  150.3134  138.0033  156.2073 N   0  0  0  0  0  0  0  0  0  0  0  0
  150.7613  138.4919  157.3731 C   0  0  0  0  0  0  0  0  0  0  0  0
  150.7800  137.8412  158.4177 O   0  0  0  0  0  0  0  0  0  0  0  0
  151.1562  139.7702  157.2323 N   0  0  0  0  0  0  0  0  0  0  0  0
  151.7141  140.6395  158.1850 C   0  0  0  0  0  0  0  0  0  0  0  0
  151.3807  141.9523  158.3265 C   0  0  0  0  0  0  0  0  0  0  0  0
  151.9833  142.8025  159.3458 C   0  0  0  0  0  0  0  0  0  0  0  0
  151.6626  144.2742  159.5320 C   0  0  0  0  0  0  0  0  0  0  0  0
  152.1530  144.7086  160.6924 F   0  0  0  0  0  0  0  0  0  0  0  0
  152.2154  144.9935  158.5559 F   0  0  0  0  0  0  0  0  0  0  0  0
  150.3475  144.4924  159.5229 F   0  0  0  0  0  0  0  0  0  0  0  0
  152.8940  142.1209  160.1283 C   0  0  0  0  0  0  0  0  0  0  0  0
  153.2697  140.8247  160.0635 N   0  5  0  0  0  0  0  0  0  0  0  0
  152.7045  140.0394  159.1033 C   0  0  0  0  0  0  0  0  0  0  0  0
  153.0006  138.8495  158.9871 O   0  0  0  0  0  0  0  0  0  0  0  0
  148.4387  136.7358  155.2529 C   0  0  0  0  0  0  0  0  0  0  0  0
  147.9151  135.3334  154.9002 C   0  0  0  0  0  0  0  0  0  0  0  0
  148.1734  132.6180  154.4902 H   0  0  0  0  0  0  0  0  0  0  0  0
  149.1169  132.7705  153.0023 H   0  0  0  0  0  0  0  0  0  0  0  0
  147.4739  133.4021  153.0680 H   0  0  0  0  0  0  0  0  0  0  0  0
  150.0775  133.8594  155.7151 H   0  0  0  0  0  0  0  0  0  0  0  0
  150.9186  133.9116  154.1778 H   0  0  0  0  0  0  0  0  0  0  0  0
  151.7212  135.7162  155.7065 H   0  0  0  0  0  0  0  0  0  0  0  0
  151.0330  136.3651  154.2367 H   0  0  0  0  0  0  0  0  0  0  0  0
  149.6316  136.1465  156.9383 H   0  0  0  0  0  0  0  0  0  0  0  0
  150.3349  138.6177  155.4064 H   0  0  0  0  0  0  0  0  0  0  0  0
  151.0040  140.1923  156.3280 H   0  0  0  0  0  0  0  0  0  0  0  0
  150.6350  142.4019  157.6920 H   0  0  0  0  0  0  0  0  0  0  0  0
  153.3958  142.7086  160.9267 H   0  0  0  0  0  0  0  0  0  0  0  0
  147.7067  137.2585  155.8700 H   0  0  0  0  0  0  0  0  0  0  0  0
  148.5460  137.3214  154.3384 H   0  0  0  0  0  0  0  0  0  0  0  0
  146.9865  135.4241  154.3352 H   0  0  0  0  0  0  0  0  0  0  0  0
  147.6796  134.7800  155.8108 H   0  0  0  0  0  0  0  0  0  0  0  0
  149.0874  135.1220  153.2695 H   0  0  0  0  0  0  0  0  0  0  0  0
  1  2  1  0  0  0  0
  1 23  1  0  0  0  0
  1 24  1  0  0  0  0
  1 25  1  0  0  0  0
  2 22  1  0  0  0  0
  2  3  1  0  0  0  0
  2 39  1  0  0  0  0
  3  4  1  0  0  0  0
  3 26  1  0  0  0  0
  3 27  1  0  0  0  0
  4  5  1  0  0  0  0
  4 28  1  0  0  0  0
  4 29  1  0  0  0  0
  5  6  1  0  0  0  0
  5 21  1  0  0  0  0
  5 30  1  0  0  0  0
  6  7  1  0  0  0  0
  6 31  1  0  0  0  0
  7  8  2  0  0  0  0
  7  9  1  0  0  0  0
  9 10  1  0  0  0  0
  9 32  1  0  0  0  0
 10 19  1  0  0  0  0
 10 11  2  0  0  0  0
 11 12  1  0  0  0  0
 11 33  1  0  0  0  0
 12 13  1  0  0  0  0
 12 17  2  0  0  0  0
 13 14  1  0  0  0  0
 13 15  1  0  0  0  0
 13 16  1  0  0  0  0
 17 18  1  0  0  0  0
 17 34  1  0  0  0  0
 18 19  1  0  0  0  0
 19 20  2  0  0  0  0
 21 22  1  0  0  0  0
 21 35  1  0  0  0  0
 21 36  1  0  0  0  0
 22 37  1  0  0  0  0
 22 38  1  0  0  0  0
M  CHG  1   2   1
M  CHG  1  18  -1
M  END
> <s_m_source_file>
AV-unprocessed.smi

> <i_m_source_file_index>
1757

> <i_lp_mmshare_version>
43012

> <i_f3d_flags>
0

> <s_epik_input>
W0NIM11OMVtDSDJdW0NIMl1bQ0hdKFtDSDJdW0NIMl0xKVtOSF1DKD1PKVtOSF1jMltjSF1jKEMoRikoRilGKVtjSF1bbkhdYzI9Tw==

> <s_epik_cmdline>
J2VwaWtfcHl0aG9uJywgJy1waCcsICc3LjAnLCAnLXRuJywgJzgnLCAnLW1hJywgJzIwMCcsICctbWV0YWxfYmluZGluZycsICctaW1hZScsICc8aW5maWxlLm1hZT4nLCAnLW9tYWUnLCAnPG91dGZpbGUubWFlPic=

> <r_lp_tautomer_probability>
1

> <r_epik_Ionization_Penalty>
3.04759

> <r_epik_Ionization_Penalty_Charging>
0.155898

> <r_epik_Ionization_Penalty_Neutral>
2.89169

> <r_epik_State_Penalty>
2.88714

> <r_epik_Charging_Adjusted_Penalty>
3.04304

> <i_epik_Tot_Q>
0

> <i_epik_Tot_abs_Q>
2

> <r_epik_Metal_State_Penalty>
0.445786

> <b_epik_Metal_Only>
1

> <s_lp_Force_Field>
OPLS_2005

> <r_lp_Energy>
29.3736

> <b_lp_Chiralities_Consistent>
1

> <s_lp_Variant>
AV-unprocessed.smi:1757-3

> <Gold.Version>
5.8.1

> <Gold.Id.Protein>
6NUR|6NUR_protein|mol2

> <Gold.PLP.Fitness>
43.1783

> <Gold.PLP.PLP>
-38.9516

> <Gold.PLP.part.hbond>
-1.0000

> <Gold.PLP.part.metal>
0.0000

> <Gold.PLP.part.buried>
-6.9179

> <Gold.PLP.part.nonpolar>
-30.8037

> <Gold.PLP.part.repulsive>
0.0440

> <Gold.PLP.ligand.clash>
0.0000

> <Gold.PLP.ligand.torsion>
0.8893

> <Gold.PLP.Chemscore.Hbond>
2.0000

> <Gold.PLP.Chemscore.CHOScore>
0.0000

> <Gold.PLP.Chemscore.Metal>
0.0000

> <Gold.Chemscore.Hbonds>
donor molecule, donor type, donor heavy atom, donor atom, acceptor molecule, acceptor atom, score
      L1  H     2    39       P1  7948  1.90

> <Gold.PLP.Chemscore.Internal.Correction>
0.0053

> <Gold.Rescore>
     Score         DG    S(hbond)    S(metal)    S(lipo)     H(rot)  DE(clash)    DE(int)     intcor
     10.13     -13.88       0.97        0.00      66.02       1.00       0.03       3.72       ----

> <Gold.Chemscore.Fitness>
10.1287

> <Gold.Chemscore.DG>
-13.8768

> <Gold.Chemscore.ZeroCoef>
-5.4800

> <Gold.Chemscore.Hbond>
0.9679

> <Gold.Chemscore.Metal>
0.0000

> <Gold.Chemscore.Lipo>
66.0171

> <Gold.Chemscore.Internal_Hbond>
0.0000

> <Gold.Chemscore.DEClash>
0.0316

> <Gold.Chemscore.DEInternal>
3.7166

> <Gold.Chemscore.Rot>
1.0000

> <Gold.Chemscore.Internal.Correction>
   9.000000E+99

> <Gold.Chemscore.Hbonds>
donor molecule, donor type, donor heavy atom, donor atom, acceptor molecule, acceptor atom, score
      L1  H     2    39       P1  7948  0.22

> <Gold.Chemscore.Hbond.Weighted>
-3.2328

> <Gold.Chemscore.Metal.Weighted>
-0.0000

> <Gold.Chemscore.Lipo.Weighted>
-7.7240

> <Gold.Chemscore.Internal_Hbond.Weighted>
0.0000

> <Gold.Chemscore.DEClash.Weighted>
0.0316

> <Gold.Chemscore.DEInternal.Weighted>
3.7166

> <Gold.Chemscore.Rot.Weighted>
2.5600

> <Gold.Chemscore.Internal.Correction.Weighted>
   9.000000E+99

> <Gold.Protein.RotatedTorsions>
[ 6907 6896 6895 6894 ] final -126.43 input  -60.11 | X-H torsion
[ 7974 7965 7964 7962 ] final  125.31 input  175.53 | X-H torsion
[ 8008 7997 7996 7995 ] final   80.02 input   59.86 | X-H torsion
[ 10167 10162 10161 10158 ] final  -47.97 input  -65.29 | X-H torsion
[ 10718 10713 10712 10709 ] final  167.87 input   66.30 | X-H torsion
[ 10763 10752 10751 10750 ] final  101.75 input  -60.55 | X-H torsion
[ 11005 11000 10999 10996 ] final -112.75 input  -57.11 | X-H torsion

> <Gold.Protein.ActiveResidues>
 VAL166  LYS551  ARG553  GLY616  TRP617  ASP618  TYR619  PRO620  LYS621  CYS622 
 ASP623  PHE694  ASN695  SER759  ASP760  ASP761  ALA762  ILE779  LEU786  VAL792 
 PHE793  MET794  SER795  GLU796  ALA797  LYS798  CYS799  TRP800  GLU811  SER814 

> <Gold.Protein.RotatedAtoms>
  150.8968  133.7170  159.2889 H   0  0  0  0  0  0  0  0  0  0  0  0  # atno 6907 bound_to 6896
  151.4702  135.1044  159.9759 H   0  0  0  0  0  0  0  0  0  0  0  0  # atno 6908 bound_to 6896
  152.4853  133.8310  159.7158 H   0  0  0  0  0  0  0  0  0  0  0  0  # atno 6909 bound_to 6896
  145.0745  139.3704  143.4941 H   0  0  0  0  0  0  0  0  0  0  0  0  # atno 7974 bound_to 7965
  155.8777  140.3445  155.5866 H   0  0  0  0  0  0  0  0  0  0  0  0  # atno 8008 bound_to 7997
  155.7755  140.0851  157.2105 H   0  0  0  0  0  0  0  0  0  0  0  0  # atno 8009 bound_to 7997
  154.4022  140.1510  156.2978 H   0  0  0  0  0  0  0  0  0  0  0  0  # atno 8010 bound_to 7997
  140.6752  143.2760  151.4003 H   0  0  0  0  0  0  0  0  0  0  0  0  # atno 10167 bound_to 10162
  157.0453  131.0298  151.2699 H   0  0  0  0  0  0  0  0  0  0  0  0  # atno 10718 bound_to 10713
  153.3307  135.4034  155.1493 H   0  0  0  0  0  0  0  0  0  0  0  0  # atno 10763 bound_to 10752
  154.8622  135.3610  154.5474 H   0  0  0  0  0  0  0  0  0  0  0  0  # atno 10764 bound_to 10752
  153.5913  135.7074  153.5481 H   0  0  0  0  0  0  0  0  0  0  0  0  # atno 10765 bound_to 10752
  141.0656  133.9464  157.2584 H   0  0  0  0  0  0  0  0  0  0  0  0  # atno 11005 bound_to 11000
  146.3529  140.0506  142.8636 LP  0  0  0  0  0  0  0  0  0  0  0  0  # atno 17320 bound_to 7965
  145.1252  140.9486  143.4576 LP  0  0  0  0  0  0  0  0  0  0  0  0  # atno 17321 bound_to 7965
  139.6040  144.1236  152.2229 LP  0  0  0  0  0  0  0  0  0  0  0  0  # atno 17342 bound_to 10162
  140.0629  144.5842  150.7249 LP  0  0  0  0  0  0  0  0  0  0  0  0  # atno 17343 bound_to 10162
  157.5073  130.7917  149.7667 LP  0  0  0  0  0  0  0  0  0  0  0  0  # atno 17370 bound_to 10713
  156.0025  130.3872  150.2552 LP  0  0  0  0  0  0  0  0  0  0  0  0  # atno 17371 bound_to 10713
  139.9474  135.0182  156.8892 LP  0  0  0  0  0  0  0  0  0  0  0  0  # atno 17394 bound_to 11000
  140.5779  134.0380  155.7453 LP  0  0  0  0  0  0  0  0  0  0  0  0  # atno 17395 bound_to 11000

$$$$
