AV-unprocessed.smi:1508|AV-procd|sdf|6089|dock2
  -GOLD-   22720 6213D 1   1.00000     0.00000
 Structure written by MMmdl.
 37 38  0  0  0  0  0  0  0  0  3 V2000
  149.6682  132.0574  154.0078 C   0  0  0  0  0  0  0  0  0  0  0  0
  148.7433  132.7077  152.9664 C   0  0  0  0  0  0  0  0  0  0  0  0
  147.6847  133.6809  153.5535 C   0  0  1  0  0  0  0  0  0  0  0  0
  148.2452  134.5544  154.7068 C   0  0  0  0  0  0  0  0  0  0  0  0
  149.3657  135.3851  154.2731 N   0  0  0  0  0  0  0  0  0  0  0  0
  150.5317  135.5538  154.9129 C   0  0  0  0  0  0  0  0  0  0  0  0
  150.7549  134.9506  155.9645 O   0  0  0  0  0  0  0  0  0  0  0  0
  151.3652  136.4199  154.2951 N   0  5  0  0  0  0  0  0  0  0  0  0
  151.3306  137.7250  154.6115 C   0  0  0  0  0  0  0  0  0  0  0  0
  150.6196  138.6158  153.9017 N   0  0  0  0  0  0  0  0  0  0  0  0
  150.7191  139.9102  154.3938 N   0  0  0  0  0  0  0  0  0  0  0  0
  151.5126  139.9635  155.4632 C   0  0  0  0  0  0  0  0  0  0  0  0
  152.2138  138.4390  155.9636 S   0  0  0  0  0  0  0  0  0  0  0  0
  147.0664  134.5111  152.4777 N   0  3  0  0  0  0  0  0  0  0  0  0
  146.5743  133.7564  151.2970 C   0  0  0  0  0  0  0  0  0  0  0  0
  145.2992  134.4571  150.8065 C   0  0  0  0  0  0  0  0  0  0  0  0
  145.2289  135.7516  151.6084 C   0  0  0  0  0  0  0  0  0  0  0  0
  145.9620  135.4003  152.8976 C   0  0  0  0  0  0  0  0  0  0  0  0
  150.3770  131.3861  153.5227 H   0  0  0  0  0  0  0  0  0  0  0  0
  149.1103  131.4688  154.7345 H   0  0  0  0  0  0  0  0  0  0  0  0
  150.2453  132.8031  154.5543 H   0  0  0  0  0  0  0  0  0  0  0  0
  149.3591  133.2245  152.2306 H   0  0  0  0  0  0  0  0  0  0  0  0
  148.2471  131.9201  152.3990 H   0  0  0  0  0  0  0  0  0  0  0  0
  146.8865  133.0702  153.9791 H   0  0  0  0  0  0  0  0  0  0  0  0
  147.4494  135.1498  155.1564 H   0  0  0  0  0  0  0  0  0  0  0  0
  148.6361  133.9268  155.5072 H   0  0  0  0  0  0  0  0  0  0  0  0
  149.2411  135.9001  153.4135 H   0  0  0  0  0  0  0  0  0  0  0  0
  151.6894  140.9068  155.9577 H   0  0  0  0  0  0  0  0  0  0  0  0
  147.3458  133.7466  150.5264 H   0  0  0  0  0  0  0  0  0  0  0  0
  146.3442  132.7204  151.5505 H   0  0  0  0  0  0  0  0  0  0  0  0
  145.3069  134.6359  149.7308 H   0  0  0  0  0  0  0  0  0  0  0  0
  144.4306  133.8368  151.0319 H   0  0  0  0  0  0  0  0  0  0  0  0
  145.7642  136.5437  151.0826 H   0  0  0  0  0  0  0  0  0  0  0  0
  144.2068  136.0913  151.7795 H   0  0  0  0  0  0  0  0  0  0  0  0
  145.2902  134.8628  153.5694 H   0  0  0  0  0  0  0  0  0  0  0  0
  146.3254  136.2896  153.4133 H   0  0  0  0  0  0  0  0  0  0  0  0
  147.7915  135.1239  152.1326 H   0  0  0  0  0  0  0  0  0  0  0  0
  1  2  1  0  0  0  0
  1 19  1  0  0  0  0
  1 20  1  0  0  0  0
  1 21  1  0  0  0  0
  2  3  1  0  0  0  0
  2 22  1  0  0  0  0
  2 23  1  0  0  0  0
  3  4  1  0  0  0  0
  3 14  1  0  0  0  0
  3 24  1  0  0  0  0
  4  5  1  0  0  0  0
  4 25  1  0  0  0  0
  4 26  1  0  0  0  0
  5  6  1  0  0  0  0
  5 27  1  0  0  0  0
  6  7  2  0  0  0  0
  6  8  1  0  0  0  0
  8  9  1  0  0  0  0
  9 13  1  0  0  0  0
  9 10  2  0  0  0  0
 10 11  1  0  0  0  0
 11 12  2  0  0  0  0
 12 13  1  0  0  0  0
 12 28  1  0  0  0  0
 14 18  1  0  0  0  0
 14 15  1  0  0  0  0
 14 37  1  0  0  0  0
 15 16  1  0  0  0  0
 15 29  1  0  0  0  0
 15 30  1  0  0  0  0
 16 17  1  0  0  0  0
 16 31  1  0  0  0  0
 16 32  1  0  0  0  0
 17 18  1  0  0  0  0
 17 33  1  0  0  0  0
 17 34  1  0  0  0  0
 18 35  1  0  0  0  0
 18 36  1  0  0  0  0
M  CHG  1   8  -1
M  CHG  1  14   1
M  END
> <s_m_source_file>
AV-unprocessed.smi

> <i_m_source_file_index>
1508

> <i_lp_mmshare_version>
43012

> <i_f3d_flags>
0

> <s_epik_input>
W0NIMl0xW0NIMl1bQ0gyXVtDSDJdTjFbQ0BIXShbQ0gyXVtDSDNdKVtDSDJdW05IXUMoPU8pW05IXWMybm5bY0hdczI=

> <s_epik_cmdline>
J2VwaWtfcHl0aG9uJywgJy1waCcsICc3LjAnLCAnLXRuJywgJzgnLCAnLW1hJywgJzIwMCcsICctbWV0YWxfYmluZGluZycsICctaW1hZScsICc8aW5maWxlLm1hZT4nLCAnLW9tYWUnLCAnPG91dGZpbGUubWFlPic=

> <r_lp_tautomer_probability>
1

> <r_epik_Ionization_Penalty>
3.98086

> <r_epik_Ionization_Penalty_Charging>
3.94833

> <r_epik_Ionization_Penalty_Neutral>
0.032525

> <r_epik_State_Penalty>
3.94643

> <r_epik_Charging_Adjusted_Penalty>
7.89477

> <i_epik_Tot_Q>
0

> <i_epik_Tot_abs_Q>
2

> <r_epik_Metal_State_Penalty>
0.605555

> <b_epik_Metal_Only>
1

> <s_lp_Force_Field>
OPLS_2005

> <r_lp_Energy>
25.5937

> <b_lp_Chiralities_Consistent>
1

> <s_lp_Variant>
AV-unprocessed.smi:1508-4

> <Gold.Version>
5.8.1

> <Gold.Id.Protein>
6NUR|6NUR_protein|mol2

> <Gold.PLP.Fitness>
45.3885

> <Gold.PLP.PLP>
-30.7688

> <Gold.PLP.part.hbond>
-4.0000

> <Gold.PLP.part.metal>
0.0000

> <Gold.PLP.part.buried>
-4.1683

> <Gold.PLP.part.nonpolar>
-23.4996

> <Gold.PLP.part.repulsive>
1.2411

> <Gold.PLP.ligand.clash>
0.0000

> <Gold.PLP.ligand.torsion>
1.7674

> <Gold.PLP.Chemscore.Hbond>
6.0000

> <Gold.PLP.Chemscore.CHOScore>
0.0000

> <Gold.PLP.Chemscore.Metal>
0.0000

> <Gold.Chemscore.Hbonds>
donor molecule, donor type, donor heavy atom, donor atom, acceptor molecule, acceptor atom, score
      L1  H     5    27       P1  7948  1.00
      L1  H    14    37       P1  7948  2.00
      P1  H  7989  7998       L1    11  0.75
      P1  H 10752 10763       L1     8  2.00

> <Gold.PLP.Chemscore.Internal.Correction>
0.1546

> <Gold.Rescore>
     Score         DG    S(hbond)    S(metal)    S(lipo)     H(rot)  DE(clash)    DE(int)     intcor
     16.13     -17.92       3.43        0.00      48.94       1.86       0.01       1.77       ----

> <Gold.Chemscore.Fitness>
16.1331

> <Gold.Chemscore.DG>
-17.9191

> <Gold.Chemscore.ZeroCoef>
-5.4800

> <Gold.Chemscore.Hbond>
3.4337

> <Gold.Chemscore.Metal>
0.0000

> <Gold.Chemscore.Lipo>
48.9365

> <Gold.Chemscore.Internal_Hbond>
0.0000

> <Gold.Chemscore.DEClash>
0.0126

> <Gold.Chemscore.DEInternal>
1.7734

> <Gold.Chemscore.Rot>
1.8575

> <Gold.Chemscore.Internal.Correction>
   9.000000E+99

> <Gold.Chemscore.Hbonds>
donor molecule, donor type, donor heavy atom, donor atom, acceptor molecule, acceptor atom, score
      L1  H     5    27       P1  7948  0.68
      L1  H    14    37       P1  7948  0.89
      P1  H  7989  7998       L1    11  0.08
      P1  H 10752 10763       L1     8  0.42

> <Gold.Chemscore.Hbond.Weighted>
-11.4686

> <Gold.Chemscore.Metal.Weighted>
-0.0000

> <Gold.Chemscore.Lipo.Weighted>
-5.7256

> <Gold.Chemscore.Internal_Hbond.Weighted>
0.0000

> <Gold.Chemscore.DEClash.Weighted>
0.0126

> <Gold.Chemscore.DEInternal.Weighted>
1.7734

> <Gold.Chemscore.Rot.Weighted>
4.7551

> <Gold.Chemscore.Internal.Correction.Weighted>
   9.000000E+99

> <Gold.Protein.RotatedTorsions>
[ 6907 6896 6895 6894 ] final  138.79 input  -60.11 | X-H torsion
[ 7974 7965 7964 7962 ] final -126.31 input  175.53 | X-H torsion
[ 8008 7997 7996 7995 ] final  136.02 input   59.86 | X-H torsion
[ 10167 10162 10161 10158 ] final  -22.92 input  -65.29 | X-H torsion
[ 10718 10713 10712 10709 ] final  -95.70 input   66.30 | X-H torsion
[ 10763 10752 10751 10750 ] final   47.35 input  -60.55 | X-H torsion
[ 11005 11000 10999 10996 ] final  137.58 input  -57.11 | X-H torsion

> <Gold.Protein.ActiveResidues>
 VAL166  LYS551  ARG553  GLY616  TRP617  ASP618  TYR619  PRO620  LYS621  CYS622 
 ASP623  PHE694  ASN695  SER759  ASP760  ASP761  ALA762  ILE779  LEU786  VAL792 
 PHE793  MET794  SER795  GLU796  ALA797  LYS798  CYS799  TRP800  GLU811  SER814 

> <Gold.Protein.RotatedAtoms>
  152.2625  133.5310  159.5389 H   0  0  0  0  0  0  0  0  0  0  0  0  # atno 6907 bound_to 6896
  150.7130  134.0810  159.3907 H   0  0  0  0  0  0  0  0  0  0  0  0  # atno 6908 bound_to 6896
  151.8727  135.0483  160.0531 H   0  0  0  0  0  0  0  0  0  0  0  0  # atno 6909 bound_to 6896
  144.9886  140.7710  143.4568 H   0  0  0  0  0  0  0  0  0  0  0  0  # atno 7974 bound_to 7965
  156.3004  140.2456  156.3677 H   0  0  0  0  0  0  0  0  0  0  0  0  # atno 8008 bound_to 7997
  154.8817  140.0412  157.1806 H   0  0  0  0  0  0  0  0  0  0  0  0  # atno 8009 bound_to 7997
  154.8688  140.2932  155.5497 H   0  0  0  0  0  0  0  0  0  0  0  0  # atno 8010 bound_to 7997
  140.7287  143.4491  151.0543 H   0  0  0  0  0  0  0  0  0  0  0  0  # atno 10167 bound_to 10162
  156.0048  130.5120  150.6116 H   0  0  0  0  0  0  0  0  0  0  0  0  # atno 10718 bound_to 10713
  152.9801  135.5979  154.3749 H   0  0  0  0  0  0  0  0  0  0  0  0  # atno 10763 bound_to 10752
  154.3419  135.2767  155.2420 H   0  0  0  0  0  0  0  0  0  0  0  0  # atno 10764 bound_to 10752
  154.4498  135.5992  153.6239 H   0  0  0  0  0  0  0  0  0  0  0  0  # atno 10765 bound_to 10752
  140.0124  134.9433  157.0305 H   0  0  0  0  0  0  0  0  0  0  0  0  # atno 11005 bound_to 11000
  145.2318  139.2112  143.5039 LP  0  0  0  0  0  0  0  0  0  0  0  0  # atno 17320 bound_to 7965
  146.3426  140.2196  142.8591 LP  0  0  0  0  0  0  0  0  0  0  0  0  # atno 17321 bound_to 7965
  139.8165  143.7878  152.3174 LP  0  0  0  0  0  0  0  0  0  0  0  0  # atno 17342 bound_to 10162
  139.7946  144.7397  150.9908 LP  0  0  0  0  0  0  0  0  0  0  0  0  # atno 17343 bound_to 10162
  157.3947  131.0801  151.1362 LP  0  0  0  0  0  0  0  0  0  0  0  0  # atno 17370 bound_to 10713
  157.2043  130.6409  149.5750 LP  0  0  0  0  0  0  0  0  0  0  0  0  # atno 17371 bound_to 10713
  140.4531  134.1562  155.7183 LP  0  0  0  0  0  0  0  0  0  0  0  0  # atno 17394 bound_to 11000
  141.1720  133.8590  157.1541 LP  0  0  0  0  0  0  0  0  0  0  0  0  # atno 17395 bound_to 11000

$$$$
