AV-unprocessed.smi:2544|AV-procd|sdf|9994|dock4
  -GOLD-   2272014 43D 1   1.00000     0.00000
 Structure written by MMmdl.
 40 41  0  0  0  0  0  0  0  0  1 V2000
  153.4637  143.0458  163.4119 C   0  0  0  0  0  0  0  0  0  0  0  0
  152.8323  143.6739  162.1644 C   0  0  0  0  0  0  0  0  0  0  0  0
  152.7856  142.7356  161.0522 N   0  0  0  0  0  0  0  0  0  0  0  0
  153.6720  141.6666  160.9727 C   0  0  0  0  0  0  0  0  0  0  0  0
  153.7123  140.7944  159.9472 C   0  0  0  0  0  0  0  0  0  0  0  0
  152.7736  140.9602  158.8188 C   0  0  0  0  0  0  0  0  0  0  0  0
  152.7781  140.1768  157.8694 O   0  0  0  0  0  0  0  0  0  0  0  0
  151.8358  142.1119  158.8956 C   0  0  0  0  0  0  0  0  0  0  0  0
  150.9457  142.2605  157.8186 N   0  0  0  0  0  0  0  0  0  0  0  0
  150.0902  141.3672  157.2880 C   0  0  0  0  0  0  0  0  0  0  0  0
  149.9056  140.2184  157.6888 O   0  0  0  0  0  0  0  0  0  0  0  0
  149.4362  141.8938  156.2423 N   0  0  0  0  0  0  0  0  0  0  0  0
  148.4489  141.1937  155.4252 C   0  0  0  0  0  0  0  0  0  0  0  0
  149.1156  139.9993  154.7169 C   0  0  0  0  0  0  0  0  0  0  0  0
  148.1208  139.2606  153.8067 C   0  0  0  0  0  0  0  0  0  0  0  0
  147.4822  140.2161  152.7864 C   0  0  0  0  0  0  0  0  0  0  0  0
  146.8168  141.4118  153.4862 C   0  0  0  0  0  0  0  0  0  0  0  0
  147.8101  142.1510  154.3976 C   0  0  0  0  0  0  0  0  0  0  0  0
  151.8993  142.9118  159.9912 C   0  0  0  0  0  0  0  0  0  0  0  0
  153.4828  143.7580  164.2367 H   0  0  0  0  0  0  0  0  0  0  0  0
  154.4900  142.7325  163.2186 H   0  0  0  0  0  0  0  0  0  0  0  0
  152.9015  142.1710  163.7396 H   0  0  0  0  0  0  0  0  0  0  0  0
  151.8228  144.0171  162.3942 H   0  0  0  0  0  0  0  0  0  0  0  0
  153.3962  144.5596  161.8695 H   0  0  0  0  0  0  0  0  0  0  0  0
  154.3399  141.5785  161.8175 H   0  0  0  0  0  0  0  0  0  0  0  0
  154.4164  139.9753  159.9308 H   0  0  0  0  0  0  0  0  0  0  0  0
  150.9523  143.1780  157.3973 H   0  0  0  0  0  0  0  0  0  0  0  0
  149.6447  142.8471  155.9831 H   0  0  0  0  0  0  0  0  0  0  0  0
  147.6638  140.8023  156.0754 H   0  0  0  0  0  0  0  0  0  0  0  0
  149.9613  140.3462  154.1214 H   0  0  0  0  0  0  0  0  0  0  0  0
  149.5206  139.3055  155.4546 H   0  0  0  0  0  0  0  0  0  0  0  0
  148.6260  138.4458  153.2875 H   0  0  0  0  0  0  0  0  0  0  0  0
  147.3408  138.8018  154.4156 H   0  0  0  0  0  0  0  0  0  0  0  0
  148.2447  140.5756  152.0943 H   0  0  0  0  0  0  0  0  0  0  0  0
  146.7465  139.6803  152.1857 H   0  0  0  0  0  0  0  0  0  0  0  0
  146.4112  142.0987  152.7430 H   0  0  0  0  0  0  0  0  0  0  0  0
  145.9699  141.0627  154.0785 H   0  0  0  0  0  0  0  0  0  0  0  0
  147.2969  142.9664  154.9088 H   0  0  0  0  0  0  0  0  0  0  0  0
  148.5883  142.6111  153.7867 H   0  0  0  0  0  0  0  0  0  0  0  0
  151.2466  143.7568  160.1410 H   0  0  0  0  0  0  0  0  0  0  0  0
  1  2  1  0  0  0  0
  1 20  1  0  0  0  0
  1 21  1  0  0  0  0
  1 22  1  0  0  0  0
  2  3  1  0  0  0  0
  2 23  1  0  0  0  0
  2 24  1  0  0  0  0
  3 19  1  0  0  0  0
  3  4  1  0  0  0  0
  4  5  2  0  0  0  0
  4 25  1  0  0  0  0
  5  6  1  0  0  0  0
  5 26  1  0  0  0  0
  6  7  2  0  0  0  0
  6  8  1  0  0  0  0
  8  9  1  0  0  0  0
  8 19  2  0  0  0  0
  9 10  1  0  0  0  0
  9 27  1  0  0  0  0
 10 11  2  0  0  0  0
 10 12  1  0  0  0  0
 12 13  1  0  0  0  0
 12 28  1  0  0  0  0
 13 18  1  0  0  0  0
 13 14  1  0  0  0  0
 13 29  1  0  0  0  0
 14 15  1  0  0  0  0
 14 30  1  0  0  0  0
 14 31  1  0  0  0  0
 15 16  1  0  0  0  0
 15 32  1  0  0  0  0
 15 33  1  0  0  0  0
 16 17  1  0  0  0  0
 16 34  1  0  0  0  0
 16 35  1  0  0  0  0
 17 18  1  0  0  0  0
 17 36  1  0  0  0  0
 17 37  1  0  0  0  0
 18 38  1  0  0  0  0
 18 39  1  0  0  0  0
 19 40  1  0  0  0  0
M  END
> <s_m_source_file>
AV-unprocessed.smi

> <i_m_source_file_index>
2544

> <i_lp_mmshare_version>
43012

> <i_f3d_flags>
0

> <s_epik_input>
W0NIM11bQ0gyXW4xW2NIXVtjSF1jKD1PKWMoW2NIXTEpW05IXUMoPU8pW05IXVtDSF0yW0NIMl1bQ0gyXVtDSDJdW0NIMl1bQ0gyXTI=

> <s_epik_cmdline>
J2VwaWtfcHl0aG9uJywgJy1waCcsICc3LjAnLCAnLXRuJywgJzgnLCAnLW1hJywgJzIwMCcsICctbWV0YWxfYmluZGluZycsICctaW1hZScsICc8aW5maWxlLm1hZT4nLCAnLW9tYWUnLCAnPG91dGZpbGUubWFlPic=

> <r_lp_tautomer_probability>
1

> <r_epik_Ionization_Penalty>
0.00144746

> <r_epik_Ionization_Penalty_Charging>
0.00142605

> <r_epik_Ionization_Penalty_Neutral>
2.14089e-05

> <r_epik_State_Penalty>
0.000952116

> <r_epik_Charging_Adjusted_Penalty>
0.00237816

> <i_epik_Tot_Q>
0

> <i_epik_Tot_abs_Q>
0

> <r_epik_Metal_State_Penalty>
-0

> <b_epik_Metal_Only>
0

> <s_lp_Force_Field>
OPLS_2005

> <r_lp_Energy>
3.66557

> <b_lp_Chiralities_Consistent>
1

> <s_lp_Variant>
AV-unprocessed.smi:2544-1

> <Gold.Version>
5.8.1

> <Gold.Id.Protein>
6NUR|6NUR_protein|mol2

> <Gold.PLP.Fitness>
44.0141

> <Gold.PLP.PLP>
-39.7998

> <Gold.PLP.part.hbond>
-2.0000

> <Gold.PLP.part.metal>
0.0000

> <Gold.PLP.part.buried>
0.6245

> <Gold.PLP.part.nonpolar>
-36.6641

> <Gold.PLP.part.repulsive>
0.0978

> <Gold.PLP.ligand.clash>
0.0000

> <Gold.PLP.ligand.torsion>
0.8277

> <Gold.PLP.Chemscore.Hbond>
1.9520

> <Gold.PLP.Chemscore.CHOScore>
0.0000

> <Gold.PLP.Chemscore.Metal>
0.0000

> <Gold.Chemscore.Hbonds>
donor molecule, donor type, donor heavy atom, donor atom, acceptor molecule, acceptor atom, score
      L1  H    12    28       P1  8028  0.89
      P1  H  7997  8009       L1     7  1.00

> <Gold.PLP.Chemscore.Internal.Correction>
0.0137

> <Gold.Rescore>
     Score         DG    S(hbond)    S(metal)    S(lipo)     H(rot)  DE(clash)    DE(int)     intcor
     15.04     -19.68       1.53        0.00     103.16       1.17       1.78       2.86       ----

> <Gold.Chemscore.Fitness>
15.0374

> <Gold.Chemscore.DG>
-19.6821

> <Gold.Chemscore.ZeroCoef>
-5.4800

> <Gold.Chemscore.Hbond>
1.5322

> <Gold.Chemscore.Metal>
0.0000

> <Gold.Chemscore.Lipo>
103.1593

> <Gold.Chemscore.Internal_Hbond>
0.0000

> <Gold.Chemscore.DEClash>
1.7812

> <Gold.Chemscore.DEInternal>
2.8635

> <Gold.Chemscore.Rot>
1.1660

> <Gold.Chemscore.Internal.Correction>
   9.000000E+99

> <Gold.Chemscore.Hbonds>
donor molecule, donor type, donor heavy atom, donor atom, acceptor molecule, acceptor atom, score
      L1  H    12    28       P1  8028  0.82
      P1  H  7997  8009       L1     7  0.84

> <Gold.Chemscore.Hbond.Weighted>
-5.1174

> <Gold.Chemscore.Metal.Weighted>
-0.0000

> <Gold.Chemscore.Lipo.Weighted>
-12.0696

> <Gold.Chemscore.Internal_Hbond.Weighted>
0.0000

> <Gold.Chemscore.DEClash.Weighted>
1.7812

> <Gold.Chemscore.DEInternal.Weighted>
2.8635

> <Gold.Chemscore.Rot.Weighted>
2.9850

> <Gold.Chemscore.Internal.Correction.Weighted>
   9.000000E+99

> <Gold.Protein.RotatedTorsions>
[ 6907 6896 6895 6894 ] final   10.08 input  -60.11 | X-H torsion
[ 7974 7965 7964 7962 ] final   34.23 input  175.53 | X-H torsion
[ 8008 7997 7996 7995 ] final  163.88 input   59.86 | X-H torsion
[ 10167 10162 10161 10158 ] final  -25.21 input  -65.29 | X-H torsion
[ 10718 10713 10712 10709 ] final   -4.82 input   66.30 | X-H torsion
[ 10763 10752 10751 10750 ] final -176.17 input  -60.55 | X-H torsion
[ 11005 11000 10999 10996 ] final   74.88 input  -57.11 | X-H torsion

> <Gold.Protein.ActiveResidues>
 VAL166  LYS551  ARG553  GLY616  TRP617  ASP618  TYR619  PRO620  LYS621  CYS622 
 ASP623  PHE694  ASN695  SER759  ASP760  ASP761  ALA762  ILE779  LEU786  VAL792 
 PHE793  MET794  SER795  GLU796  ALA797  LYS798  CYS799  TRP800  GLU811  SER814 

> <Gold.Protein.RotatedAtoms>
  151.7325  135.0872  160.0302 H   0  0  0  0  0  0  0  0  0  0  0  0  # atno 6907 bound_to 6896
  152.3532  133.6200  159.5968 H   0  0  0  0  0  0  0  0  0  0  0  0  # atno 6908 bound_to 6896
  150.7553  133.9458  159.3512 H   0  0  0  0  0  0  0  0  0  0  0  0  # atno 6909 bound_to 6896
  146.1367  139.6296  142.9190 H   0  0  0  0  0  0  0  0  0  0  0  0  # atno 7974 bound_to 7965
  156.1923  140.1711  156.8068 H   0  0  0  0  0  0  0  0  0  0  0  0  # atno 8008 bound_to 7997
  154.5486  140.0722  156.8662 H   0  0  0  0  0  0  0  0  0  0  0  0  # atno 8009 bound_to 7997
  155.3073  140.3365  155.4247 H   0  0  0  0  0  0  0  0  0  0  0  0  # atno 8010 bound_to 7997
  140.7287  143.4285  151.0839 H   0  0  0  0  0  0  0  0  0  0  0  0  # atno 10167 bound_to 10162
  156.7557  130.5253  149.5795 H   0  0  0  0  0  0  0  0  0  0  0  0  # atno 10718 bound_to 10713
  154.5756  135.2831  155.0784 H   0  0  0  0  0  0  0  0  0  0  0  0  # atno 10763 bound_to 10752
  154.2140  135.6403  153.5127 H   0  0  0  0  0  0  0  0  0  0  0  0  # atno 10764 bound_to 10752
  153.0071  135.5498  154.6393 H   0  0  0  0  0  0  0  0  0  0  0  0  # atno 10765 bound_to 10752
  139.9370  134.7470  156.1202 H   0  0  0  0  0  0  0  0  0  0  0  0  # atno 11005 bound_to 11000
  145.5140  141.0434  143.2472 LP  0  0  0  0  0  0  0  0  0  0  0  0  # atno 17320 bound_to 7965
  144.7747  139.6655  143.7180 LP  0  0  0  0  0  0  0  0  0  0  0  0  # atno 17321 bound_to 7965
  139.7939  143.8179  152.3155 LP  0  0  0  0  0  0  0  0  0  0  0  0  # atno 17342 bound_to 10162
  139.8172  144.7311  150.9619 LP  0  0  0  0  0  0  0  0  0  0  0  0  # atno 17343 bound_to 10162
  156.1372  130.6219  151.0416 LP  0  0  0  0  0  0  0  0  0  0  0  0  # atno 17370 bound_to 10713
  157.6757  131.0851  150.7500 LP  0  0  0  0  0  0  0  0  0  0  0  0  # atno 17371 bound_to 10713
  141.0988  133.6685  156.2706 LP  0  0  0  0  0  0  0  0  0  0  0  0  # atno 17394 bound_to 11000
  140.6050  134.5516  157.5524 LP  0  0  0  0  0  0  0  0  0  0  0  0  # atno 17395 bound_to 11000

$$$$
