AV-unprocessed.smi:550|AV-procd|sdf|2897|dock3
  -GOLD-   2262023393D 1   1.00000     0.00000
 Structure written by MMmdl.
 46 48  0  0  0  0  0  0  0  0  2 V2000
  146.5943  139.9167  154.0680 O   0  0  0  0  0  0  0  0  0  0  0  0
  147.5004  139.2946  153.5141 C   0  0  0  0  0  0  0  0  0  0  0  0
  147.2900  138.3780  152.5590 N   0  0  0  0  0  0  0  0  0  0  0  0
  145.9787  137.9825  152.0548 C   0  0  0  0  0  0  0  0  0  0  0  0
  145.5899  136.5623  152.5093 C   0  0  1  0  0  0  0  0  0  0  0  0
  144.0778  136.4245  152.7736 C   0  0  0  0  0  0  0  0  0  0  0  0
  143.7452  134.9385  152.9314 C   0  0  0  0  0  0  0  0  0  0  0  0
  144.8458  134.0675  151.7571 S   0  0  0  0  0  0  0  0  0  0  0  0
  145.5358  132.9754  152.4600 O   0  0  0  0  0  0  0  0  0  0  0  0
  144.1212  133.8220  150.5010 O   0  0  0  0  0  0  0  0  0  0  0  0
  146.0025  135.4685  151.5068 C   0  0  0  0  0  0  0  0  0  0  0  0
  148.8097  139.4188  153.7930 N   0  0  0  0  0  0  0  0  0  0  0  0
  149.4324  140.2985  154.7194 C   0  0  0  0  0  0  0  0  0  0  0  0
  150.7291  139.9720  155.1715 C   0  0  0  0  0  0  0  0  0  0  0  0
  151.3895  140.8250  156.0795 C   0  0  0  0  0  0  0  0  0  0  0  0
  150.7446  142.0050  156.5175 C   0  0  0  0  0  0  0  0  0  0  0  0
  151.3138  142.9196  157.4150 N   0  0  0  0  0  0  0  0  0  0  0  0
  150.3983  143.4550  158.4088 C   0  0  0  0  0  0  0  0  0  0  0  0
  151.2863  144.0740  159.4914 C   0  0  0  0  0  0  0  0  0  0  0  0
  152.6447  143.3812  159.3301 C   0  0  0  0  0  0  0  0  0  0  0  0
  152.4571  142.4151  158.1570 C   0  0  0  0  0  0  0  0  0  0  0  0
  149.5098  142.2901  156.0500 N   0  3  0  0  0  0  0  0  0  0  0  0
  148.8418  141.4999  155.1818 C   0  0  0  0  0  0  0  0  0  0  0  0
  148.0903  137.9112  152.1580 H   0  0  0  0  0  0  0  0  0  0  0  0
  145.2234  138.7034  152.3724 H   0  0  0  0  0  0  0  0  0  0  0  0
  146.0078  138.0315  150.9657 H   0  0  0  0  0  0  0  0  0  0  0  0
  146.0948  136.3469  153.4525 H   0  0  0  0  0  0  0  0  0  0  0  0
  143.7670  136.9964  153.6485 H   0  0  0  0  0  0  0  0  0  0  0  0
  143.5246  136.8200  151.9206 H   0  0  0  0  0  0  0  0  0  0  0  0
  143.9835  134.5942  153.9381 H   0  0  0  0  0  0  0  0  0  0  0  0
  142.7019  134.7055  152.7182 H   0  0  0  0  0  0  0  0  0  0  0  0
  145.8887  135.8110  150.4779 H   0  0  0  0  0  0  0  0  0  0  0  0
  147.0304  135.1338  151.6481 H   0  0  0  0  0  0  0  0  0  0  0  0
  149.4280  138.7757  153.3206 H   0  0  0  0  0  0  0  0  0  0  0  0
  151.2167  139.0702  154.8307 H   0  0  0  0  0  0  0  0  0  0  0  0
  152.3796  140.5721  156.4300 H   0  0  0  0  0  0  0  0  0  0  0  0
  149.7296  144.1952  157.9684 H   0  0  0  0  0  0  0  0  0  0  0  0
  149.7859  142.6598  158.8362 H   0  0  0  0  0  0  0  0  0  0  0  0
  151.3959  145.1463  159.3247 H   0  0  0  0  0  0  0  0  0  0  0  0
  150.8636  143.9340  160.4868 H   0  0  0  0  0  0  0  0  0  0  0  0
  153.4126  144.1194  159.0954 H   0  0  0  0  0  0  0  0  0  0  0  0
  152.9534  142.8571  160.2350 H   0  0  0  0  0  0  0  0  0  0  0  0
  152.2600  141.4090  158.5289 H   0  0  0  0  0  0  0  0  0  0  0  0
  153.3462  142.3725  157.5272 H   0  0  0  0  0  0  0  0  0  0  0  0
  147.8715  141.8704  154.8870 H   0  0  0  0  0  0  0  0  0  0  0  0
  149.0583  143.1486  156.3667 H   0  0  0  0  0  0  0  0  0  0  0  0
  1  2  2  0  0  0  0
  2  3  1  0  0  0  0
  2 12  1  0  0  0  0
  3  4  1  0  0  0  0
  3 24  1  0  0  0  0
  4  5  1  0  0  0  0
  4 25  1  0  0  0  0
  4 26  1  0  0  0  0
  5 11  1  0  0  0  0
  5  6  1  0  0  0  0
  5 27  1  0  0  0  0
  6  7  1  0  0  0  0
  6 28  1  0  0  0  0
  6 29  1  0  0  0  0
  7  8  1  0  0  0  0
  7 30  1  0  0  0  0
  7 31  1  0  0  0  0
  8  9  2  0  0  0  0
  8 10  2  0  0  0  0
  8 11  1  0  0  0  0
 11 32  1  0  0  0  0
 11 33  1  0  0  0  0
 12 13  1  0  0  0  0
 12 34  1  0  0  0  0
 13 23  1  0  0  0  0
 13 14  2  0  0  0  0
 14 15  1  0  0  0  0
 14 35  1  0  0  0  0
 15 16  2  0  0  0  0
 15 36  1  0  0  0  0
 16 17  1  0  0  0  0
 16 22  1  0  0  0  0
 17 21  1  0  0  0  0
 17 18  1  0  0  0  0
 18 19  1  0  0  0  0
 18 37  1  0  0  0  0
 18 38  1  0  0  0  0
 19 20  1  0  0  0  0
 19 39  1  0  0  0  0
 19 40  1  0  0  0  0
 20 21  1  0  0  0  0
 20 41  1  0  0  0  0
 20 42  1  0  0  0  0
 21 43  1  0  0  0  0
 21 44  1  0  0  0  0
 22 23  2  0  0  0  0
 22 46  1  0  0  0  0
 23 45  1  0  0  0  0
M  CHG  1  22   1
M  END
> <s_m_source_file>
AV-unprocessed.smi

> <i_m_source_file_index>
550

> <i_lp_mmshare_version>
43012

> <i_f3d_flags>
0

> <s_epik_input>
Tz1TMSg9TylbQ0gyXVtDSDJdW0NASF0oW0NIMl0xKVtDSDJdW05IXUMoPU8pW05IXWMyW2NIXVtjSF1jKG5bY0hdMilOM1tDSDJdW0NIMl1bQ0gyXVtDSDJdMw==

> <s_epik_cmdline>
J2VwaWtfcHl0aG9uJywgJy1waCcsICc3LjAnLCAnLXRuJywgJzgnLCAnLW1hJywgJzIwMCcsICctbWV0YWxfYmluZGluZycsICctaW1hZScsICc8aW5maWxlLm1hZT4nLCAnLW9tYWUnLCAnPG91dGZpbGUubWFlPic=

> <r_lp_tautomer_probability>
0.999994

> <r_epik_Ionization_Penalty>
1.12573

> <r_epik_Ionization_Penalty_Charging>
1.12571

> <r_epik_Ionization_Penalty_Neutral>
1.93198e-05

> <r_epik_State_Penalty>
1.18495

> <r_epik_Charging_Adjusted_Penalty>
2.31065

> <i_epik_Tot_Q>
1

> <i_epik_Tot_abs_Q>
1

> <r_epik_Metal_State_Penalty>
1.26884

> <b_epik_Metal_Only>
0

> <s_lp_Force_Field>
OPLS_2005

> <r_lp_Energy>
40.0908

> <b_lp_Chiralities_Consistent>
1

> <s_lp_Variant>
AV-unprocessed.smi:550-4

> <Gold.Version>
5.8.1

> <Gold.Id.Protein>
6NUR|6NUR_protein|mol2

> <Gold.PLP.Fitness>
47.5692

> <Gold.PLP.PLP>
-40.6883

> <Gold.PLP.part.hbond>
-4.0000

> <Gold.PLP.part.metal>
0.0000

> <Gold.PLP.part.buried>
-1.0623

> <Gold.PLP.part.nonpolar>
-36.6310

> <Gold.PLP.part.repulsive>
0.8350

> <Gold.PLP.ligand.clash>
0.0000

> <Gold.PLP.ligand.torsion>
1.0722

> <Gold.PLP.Chemscore.Hbond>
3.0000

> <Gold.PLP.Chemscore.CHOScore>
0.0000

> <Gold.PLP.Chemscore.Metal>
0.0000

> <Gold.Chemscore.Hbonds>
donor molecule, donor type, donor heavy atom, donor atom, acceptor molecule, acceptor atom, score
      L1  H     3    24       P1  7948  0.94
      L1  H    22    46       P1  8028  1.34

> <Gold.PLP.Chemscore.Internal.Correction>
0.0253

> <Gold.Rescore>
     Score         DG    S(hbond)    S(metal)    S(lipo)     H(rot)  DE(clash)    DE(int)     intcor
     18.12     -19.29       1.98        0.00      94.13       1.50       0.32       0.85       ----

> <Gold.Chemscore.Fitness>
18.1167

> <Gold.Chemscore.DG>
-19.2915

> <Gold.Chemscore.ZeroCoef>
-5.4800

> <Gold.Chemscore.Hbond>
1.9846

> <Gold.Chemscore.Metal>
0.0000

> <Gold.Chemscore.Lipo>
94.1314

> <Gold.Chemscore.Internal_Hbond>
0.0000

> <Gold.Chemscore.DEClash>
0.3232

> <Gold.Chemscore.DEInternal>
0.8516

> <Gold.Chemscore.Rot>
1.4962

> <Gold.Chemscore.Internal.Correction>
   9.000000E+99

> <Gold.Chemscore.Hbonds>
donor molecule, donor type, donor heavy atom, donor atom, acceptor molecule, acceptor atom, score
      L1  H     3    24       P1  7948  0.91
      L1  H    22    46       P1  8028  0.66

> <Gold.Chemscore.Hbond.Weighted>
-6.6284

> <Gold.Chemscore.Metal.Weighted>
-0.0000

> <Gold.Chemscore.Lipo.Weighted>
-11.0134

> <Gold.Chemscore.Internal_Hbond.Weighted>
0.0000

> <Gold.Chemscore.DEClash.Weighted>
0.3232

> <Gold.Chemscore.DEInternal.Weighted>
0.8516

> <Gold.Chemscore.Rot.Weighted>
3.8303

> <Gold.Chemscore.Internal.Correction.Weighted>
   9.000000E+99

> <Gold.Protein.RotatedTorsions>
[ 6907 6896 6895 6894 ] final  -39.52 input  -60.11 | X-H torsion
[ 7974 7965 7964 7962 ] final -171.60 input  175.53 | X-H torsion
[ 8008 7997 7996 7995 ] final   -5.88 input   59.86 | X-H torsion
[ 10167 10162 10161 10158 ] final  -99.93 input  -65.29 | X-H torsion
[ 10718 10713 10712 10709 ] final   12.88 input   66.30 | X-H torsion
[ 10763 10752 10751 10750 ] final   81.78 input  -60.55 | X-H torsion
[ 11005 11000 10999 10996 ] final  138.59 input  -57.11 | X-H torsion

> <Gold.Protein.ActiveResidues>
 VAL166  LYS551  ARG553  GLY616  TRP617  ASP618  TYR619  PRO620  LYS621  CYS622 
 ASP623  PHE694  ASN695  SER759  ASP760  ASP761  ALA762  ILE779  LEU786  VAL792 
 PHE793  MET794  SER795  GLU796  ALA797  LYS798  CYS799  TRP800  GLU811  SER814 

> <Gold.Protein.RotatedAtoms>
  150.9893  134.9231  159.7889 H   0  0  0  0  0  0  0  0  0  0  0  0  # atno 6907 bound_to 6896
  152.5246  134.3303  159.9190 H   0  0  0  0  0  0  0  0  0  0  0  0  # atno 6908 bound_to 6896
  151.3309  133.3959  159.2697 H   0  0  0  0  0  0  0  0  0  0  0  0  # atno 6909 bound_to 6896
  144.7155  140.1897  143.6350 H   0  0  0  0  0  0  0  0  0  0  0  0  # atno 7974 bound_to 7965
  154.5994  140.2447  155.7813 H   0  0  0  0  0  0  0  0  0  0  0  0  # atno 8008 bound_to 7997
  156.2301  140.2969  156.0118 H   0  0  0  0  0  0  0  0  0  0  0  0  # atno 8009 bound_to 7997
  155.2237  140.0401  157.2942 H   0  0  0  0  0  0  0  0  0  0  0  0  # atno 8010 bound_to 7997
  140.2573  143.3432  152.0659 H   0  0  0  0  0  0  0  0  0  0  0  0  # atno 10167 bound_to 10162
  157.0165  130.6138  149.5715 H   0  0  0  0  0  0  0  0  0  0  0  0  # atno 10718 bound_to 10713
  153.1146  135.4752  154.9094 H   0  0  0  0  0  0  0  0  0  0  0  0  # atno 10763 bound_to 10752
  154.7516  135.3107  154.8550 H   0  0  0  0  0  0  0  0  0  0  0  0  # atno 10764 bound_to 10752
  153.9130  135.6863  153.4804 H   0  0  0  0  0  0  0  0  0  0  0  0  # atno 10765 bound_to 10752
  140.0194  134.9403  157.0443 H   0  0  0  0  0  0  0  0  0  0  0  0  # atno 11005 bound_to 11000
  145.8779  139.2307  143.1622 LP  0  0  0  0  0  0  0  0  0  0  0  0  # atno 17320 bound_to 7965
  146.0022  140.8510  143.0013 LP  0  0  0  0  0  0  0  0  0  0  0  0  # atno 17321 bound_to 7965
  139.5027  144.6741  151.6170 LP  0  0  0  0  0  0  0  0  0  0  0  0  # atno 17342 bound_to 10162
  140.5994  143.9637  150.6376 LP  0  0  0  0  0  0  0  0  0  0  0  0  # atno 17343 bound_to 10162
  156.0117  130.5209  150.8010 LP  0  0  0  0  0  0  0  0  0  0  0  0  # atno 17370 bound_to 10713
  157.5281  131.0935  150.9990 LP  0  0  0  0  0  0  0  0  0  0  0  0  # atno 17371 bound_to 10713
  140.4413  134.1678  155.7174 LP  0  0  0  0  0  0  0  0  0  0  0  0  # atno 17394 bound_to 11000
  141.1764  133.8505  157.1406 LP  0  0  0  0  0  0  0  0  0  0  0  0  # atno 17395 bound_to 11000

$$$$
