AV-unprocessed.smi:3245|AV-procd|sdf|12404|dock2
  -GOLD-   2272018283D 1   1.00000     0.00000
 Structure written by MMmdl.
 35 36  0  0  0  0  0  0  0  0  1 V2000
  151.2425  141.3191  157.3276 C   0  0  0  0  0  0  0  0  0  0  0  0
  151.7496  140.8011  158.6842 C   0  0  2  0  0  0  0  0  0  0  0  0
  152.8464  141.7021  159.2994 C   0  0  0  0  0  0  0  0  0  0  0  0
  152.4244  143.0828  159.4470 N   0  0  0  0  0  0  0  0  0  0  0  0
  152.2372  144.0328  158.4648 C   0  0  0  0  0  0  0  0  0  0  0  0
  151.8432  145.1844  159.0839 C   0  0  0  0  0  0  0  0  0  0  0  0
  151.8222  144.8362  160.4634 C   0  0  0  0  0  0  0  0  0  0  0  0
  152.1717  143.5780  160.6777 N   0  0  0  0  0  0  0  0  0  0  0  0
  152.2736  139.4581  158.4721 N   0  0  0  0  0  0  0  0  0  0  0  0
  151.2235  138.5104  158.1250 C   0  0  0  0  0  0  0  0  0  0  0  0
  151.8416  137.1610  157.7180 C   0  0  0  0  0  0  0  0  0  0  0  0
  150.9222  136.3633  156.8979 N   0  0  0  0  0  0  0  0  0  0  0  0
  149.8516  135.7133  157.3743 C   0  0  0  0  0  0  0  0  0  0  0  0
  149.4684  135.6521  158.5421 O   0  0  0  0  0  0  0  0  0  0  0  0
  149.1453  135.0404  156.2176 C   0  0  0  0  0  0  0  0  0  0  0  0
  150.0151  135.4546  155.1381 N   0  0  0  0  0  0  0  0  0  0  0  0
  151.0295  136.2182  155.5643 C   0  0  0  0  0  0  0  0  0  0  0  0
  151.9023  136.7016  154.8447 O   0  0  0  0  0  0  0  0  0  0  0  0
  150.7705  142.2969  157.4254 H   0  0  0  0  0  0  0  0  0  0  0  0
  150.4971  140.6458  156.9028 H   0  0  0  0  0  0  0  0  0  0  0  0
  152.0562  141.4131  156.6075 H   0  0  0  0  0  0  0  0  0  0  0  0
  150.8944  140.7480  159.3597 H   0  0  0  0  0  0  0  0  0  0  0  0
  153.1506  141.3404  160.2817 H   0  0  0  0  0  0  0  0  0  0  0  0
  153.7409  141.6846  158.6748 H   0  0  0  0  0  0  0  0  0  0  0  0
  152.3954  143.8115  157.4194 H   0  0  0  0  0  0  0  0  0  0  0  0
  151.6071  146.1313  158.6217 H   0  0  0  0  0  0  0  0  0  0  0  0
  151.5655  145.4560  161.3099 H   0  0  0  0  0  0  0  0  0  0  0  0
  152.9566  139.4735  157.7281 H   0  0  0  0  0  0  0  0  0  0  0  0
  150.5275  138.3688  158.9512 H   0  0  0  0  0  0  0  0  0  0  0  0
  150.6490  138.9165  157.2916 H   0  0  0  0  0  0  0  0  0  0  0  0
  152.7522  137.3438  157.1456 H   0  0  0  0  0  0  0  0  0  0  0  0
  152.1618  136.6059  158.6016 H   0  0  0  0  0  0  0  0  0  0  0  0
  149.1299  133.9559  156.3292 H   0  0  0  0  0  0  0  0  0  0  0  0
  148.1323  135.4222  156.0876 H   0  0  0  0  0  0  0  0  0  0  0  0
  149.8595  135.1947  154.1749 H   0  0  0  0  0  0  0  0  0  0  0  0
  1  2  1  0  0  0  0
  1 19  1  0  0  0  0
  1 20  1  0  0  0  0
  1 21  1  0  0  0  0
  2  3  1  0  0  0  0
  2  9  1  0  0  0  0
  2 22  1  0  0  0  0
  3  4  1  0  0  0  0
  3 23  1  0  0  0  0
  3 24  1  0  0  0  0
  4  8  1  0  0  0  0
  4  5  1  0  0  0  0
  5  6  2  0  0  0  0
  5 25  1  0  0  0  0
  6  7  1  0  0  0  0
  6 26  1  0  0  0  0
  7  8  2  0  0  0  0
  7 27  1  0  0  0  0
  9 10  1  0  0  0  0
  9 28  1  0  0  0  0
 10 11  1  0  0  0  0
 10 29  1  0  0  0  0
 10 30  1  0  0  0  0
 11 12  1  0  0  0  0
 11 31  1  0  0  0  0
 11 32  1  0  0  0  0
 12 17  1  0  0  0  0
 12 13  1  0  0  0  0
 13 14  2  0  0  0  0
 13 15  1  0  0  0  0
 15 16  1  0  0  0  0
 15 33  1  0  0  0  0
 15 34  1  0  0  0  0
 16 17  1  0  0  0  0
 16 35  1  0  0  0  0
 17 18  2  0  0  0  0
M  END
> <s_m_source_file>
AV-unprocessed.smi

> <i_m_source_file_index>
3245

> <i_lp_mmshare_version>
43012

> <i_f3d_flags>
0

> <s_epik_input>
bjFbY0hdW2NIXVtjSF1uMVtDSDJdW0NAQEhdKFtDSDNdKVtOSF1bQ0gyXVtDSDJdTjJDKD1PKVtDSDJdW05IXUMyPU8=

> <s_epik_cmdline>
J2VwaWtfcHl0aG9uJywgJy1waCcsICc3LjAnLCAnLXRuJywgJzgnLCAnLW1hJywgJzIwMCcsICctbWV0YWxfYmluZGluZycsICctaW1hZScsICc8aW5maWxlLm1hZT4nLCAnLW9tYWUnLCAnPG91dGZpbGUubWFlPic=

> <r_lp_tautomer_probability>
1

> <r_epik_Ionization_Penalty>
2.14948

> <r_epik_Ionization_Penalty_Charging>
0

> <r_epik_Ionization_Penalty_Neutral>
2.14948

> <r_epik_State_Penalty>
2.28912

> <r_epik_Charging_Adjusted_Penalty>
2.28912

> <i_epik_Tot_Q>
0

> <i_epik_Tot_abs_Q>
0

> <r_epik_Metal_State_Penalty>
2.36471

> <b_epik_Metal_Only>
0

> <s_lp_Force_Field>
OPLS_2005

> <r_lp_Energy>
24.3933

> <b_lp_Chiralities_Consistent>
1

> <s_lp_Variant>
AV-unprocessed.smi:3245-3

> <Gold.Version>
5.8.1

> <Gold.Id.Protein>
6NUR|6NUR_protein|mol2

> <Gold.PLP.Fitness>
38.6747

> <Gold.PLP.PLP>
-33.5909

> <Gold.PLP.part.hbond>
-2.0000

> <Gold.PLP.part.metal>
0.0000

> <Gold.PLP.part.buried>
-6.0842

> <Gold.PLP.part.nonpolar>
-26.1253

> <Gold.PLP.part.repulsive>
0.2497

> <Gold.PLP.ligand.clash>
0.0000

> <Gold.PLP.ligand.torsion>
0.5057

> <Gold.PLP.Chemscore.Hbond>
2.0000

> <Gold.PLP.Chemscore.CHOScore>
0.0000

> <Gold.PLP.Chemscore.Metal>
0.0000

> <Gold.Chemscore.Hbonds>
donor molecule, donor type, donor heavy atom, donor atom, acceptor molecule, acceptor atom, score
      P1  H  6896  6908       L1    14  1.00
      P1  H 10752 10763       L1    18  1.00

> <Gold.PLP.Chemscore.Internal.Correction>
0.0952

> <Gold.Rescore>
     Score         DG    S(hbond)    S(metal)    S(lipo)     H(rot)  DE(clash)    DE(int)     intcor
     12.71     -13.31       1.93        0.00      70.11       2.66       0.10       0.50       ----

> <Gold.Chemscore.Fitness>
12.7086

> <Gold.Chemscore.DG>
-13.3090

> <Gold.Chemscore.ZeroCoef>
-5.4800

> <Gold.Chemscore.Hbond>
1.9277

> <Gold.Chemscore.Metal>
0.0000

> <Gold.Chemscore.Lipo>
70.1055

> <Gold.Chemscore.Internal_Hbond>
0.0000

> <Gold.Chemscore.DEClash>
0.1042

> <Gold.Chemscore.DEInternal>
0.4961

> <Gold.Chemscore.Rot>
2.6609

> <Gold.Chemscore.Internal.Correction>
   9.000000E+99

> <Gold.Chemscore.Hbonds>
donor molecule, donor type, donor heavy atom, donor atom, acceptor molecule, acceptor atom, score
      P1  H  6896  6908       L1    14  0.59
      P1  H 10752 10763       L1    18  0.56

> <Gold.Chemscore.Hbond.Weighted>
-6.4385

> <Gold.Chemscore.Metal.Weighted>
-0.0000

> <Gold.Chemscore.Lipo.Weighted>
-8.2023

> <Gold.Chemscore.Internal_Hbond.Weighted>
0.0000

> <Gold.Chemscore.DEClash.Weighted>
0.1042

> <Gold.Chemscore.DEInternal.Weighted>
0.4961

> <Gold.Chemscore.Rot.Weighted>
6.8118

> <Gold.Chemscore.Internal.Correction.Weighted>
   9.000000E+99

> <Gold.Protein.RotatedTorsions>
[ 6907 6896 6895 6894 ] final  158.67 input  -60.11 | X-H torsion
[ 7974 7965 7964 7962 ] final   51.55 input  175.53 | X-H torsion
[ 8008 7997 7996 7995 ] final  -11.08 input   59.86 | X-H torsion
[ 10167 10162 10161 10158 ] final  -42.89 input  -65.29 | X-H torsion
[ 10718 10713 10712 10709 ] final -154.64 input   66.30 | X-H torsion
[ 10763 10752 10751 10750 ] final   60.49 input  -60.55 | X-H torsion
[ 11005 11000 10999 10996 ] final   16.42 input  -57.11 | X-H torsion

> <Gold.Protein.ActiveResidues>
 VAL166  LYS551  ARG553  GLY616  TRP617  ASP618  TYR619  PRO620  LYS621  CYS622 
 ASP623  PHE694  ASN695  SER759  ASP760  ASP761  ALA762  ILE779  LEU786  VAL792 
 PHE793  MET794  SER795  GLU796  ALA797  LYS798  CYS799  TRP800  GLU811  SER814 

> <Gold.Protein.RotatedAtoms>
  151.9970  133.3811  159.4166 H   0  0  0  0  0  0  0  0  0  0  0  0  # atno 6907 bound_to 6896
  150.6914  134.3875  159.5071 H   0  0  0  0  0  0  0  0  0  0  0  0  # atno 6908 bound_to 6896
  152.1617  134.8906  160.0592 H   0  0  0  0  0  0  0  0  0  0  0  0  # atno 6909 bound_to 6896
  145.9903  139.4332  143.0078 H   0  0  0  0  0  0  0  0  0  0  0  0  # atno 7974 bound_to 7965
  154.5497  140.2312  155.8505 H   0  0  0  0  0  0  0  0  0  0  0  0  # atno 8008 bound_to 7997
  156.1935  140.3071  155.9341 H   0  0  0  0  0  0  0  0  0  0  0  0  # atno 8009 bound_to 7997
  155.3095  140.0435  157.3024 H   0  0  0  0  0  0  0  0  0  0  0  0  # atno 8010 bound_to 7997
  140.6953  143.3012  151.3274 H   0  0  0  0  0  0  0  0  0  0  0  0  # atno 10167 bound_to 10162
  156.5021  130.8396  151.2613 H   0  0  0  0  0  0  0  0  0  0  0  0  # atno 10718 bound_to 10713
  152.9922  135.5534  154.5881 H   0  0  0  0  0  0  0  0  0  0  0  0  # atno 10763 bound_to 10752
  154.5249  135.2810  155.1233 H   0  0  0  0  0  0  0  0  0  0  0  0  # atno 10764 bound_to 10752
  154.2571  135.6388  153.5314 H   0  0  0  0  0  0  0  0  0  0  0  0  # atno 10765 bound_to 10752
  140.4473  134.1260  155.7698 H   0  0  0  0  0  0  0  0  0  0  0  0  # atno 11005 bound_to 11000
  145.7640  140.9923  143.1184 LP  0  0  0  0  0  0  0  0  0  0  0  0  # atno 17320 bound_to 7965
  144.6887  139.9366  143.7473 LP  0  0  0  0  0  0  0  0  0  0  0  0  # atno 17321 bound_to 7965
  139.6401  144.0555  152.2548 LP  0  0  0  0  0  0  0  0  0  0  0  0  # atno 17342 bound_to 10162
  140.0058  144.6260  150.7690 LP  0  0  0  0  0  0  0  0  0  0  0  0  # atno 17343 bound_to 10162
  157.7461  130.9978  150.2830 LP  0  0  0  0  0  0  0  0  0  0  0  0  # atno 17370 bound_to 10713
  156.3323  130.3802  149.7480 LP  0  0  0  0  0  0  0  0  0  0  0  0  # atno 17371 bound_to 10713
  141.1679  133.8666  157.1659 LP  0  0  0  0  0  0  0  0  0  0  0  0  # atno 17394 bound_to 11000
  140.0030  135.0020  157.0231 LP  0  0  0  0  0  0  0  0  0  0  0  0  # atno 17395 bound_to 11000

$$$$
