AV-unprocessed.smi:2009|AV-procd|sdf|8148|dock8
  -GOLD-   2272010393D 1   1.00000     0.00000
 Structure written by MMmdl.
 37 38  0  0  0  0  0  0  0  0  2 V2000
  149.4861  142.0376  157.6969 C   0  0  0  0  0  0  0  0  0  0  0  0
  150.8862  141.4951  157.3797 C   0  0  1  0  0  0  0  0  0  0  0  0
  151.8721  141.7112  158.5550 C   0  0  0  0  0  0  0  0  0  0  0  0
  151.8875  143.0738  159.0806 N   0  0  0  0  0  0  0  0  0  0  0  0
  152.1855  144.2488  158.4163 C   0  0  0  0  0  0  0  0  0  0  0  0
  152.0808  145.2686  159.3178 C   0  0  0  0  0  0  0  0  0  0  0  0
  151.7209  144.6129  160.5277 C   0  0  0  0  0  0  0  0  0  0  0  0
  151.6150  143.3015  160.3874 N   0  0  0  0  0  0  0  0  0  0  0  0
  150.7824  140.0743  157.0771 N   0  5  0  0  0  0  0  0  0  0  0  0
  151.3969  139.5086  155.6872 S   0  0  0  0  0  0  0  0  0  0  0  0
  150.7681  140.0819  154.4862 O   0  0  0  0  0  0  0  0  0  0  0  0
  152.8656  139.4087  155.7123 O   0  0  0  0  0  0  0  0  0  0  0  0
  150.7893  137.8842  155.8170 N   0  0  0  0  0  0  0  0  0  0  0  0
  150.9306  137.2188  157.1290 C   0  0  0  0  0  0  0  0  0  0  0  0
  150.0290  135.9772  157.2346 C   0  0  0  0  0  0  0  0  0  0  0  0
  150.2862  135.0023  156.0831 C   0  0  0  0  0  0  0  0  0  0  0  0
  150.0973  135.7354  154.7530 C   0  0  0  0  0  0  0  0  0  0  0  0
  151.0034  136.9744  154.6676 C   0  0  0  0  0  0  0  0  0  0  0  0
  149.5221  143.1047  157.9172 H   0  0  0  0  0  0  0  0  0  0  0  0
  149.0494  141.5347  158.5606 H   0  0  0  0  0  0  0  0  0  0  0  0
  148.8097  141.9001  156.8523 H   0  0  0  0  0  0  0  0  0  0  0  0
  151.2614  142.0611  156.5256 H   0  0  0  0  0  0  0  0  0  0  0  0
  151.6185  141.0360  159.3738 H   0  0  0  0  0  0  0  0  0  0  0  0
  152.8872  141.4497  158.2525 H   0  0  0  0  0  0  0  0  0  0  0  0
  152.4332  144.2579  157.3648 H   0  0  0  0  0  0  0  0  0  0  0  0
  152.2362  146.3219  159.1388 H   0  0  0  0  0  0  0  0  0  0  0  0
  151.5372  145.0483  161.4987 H   0  0  0  0  0  0  0  0  0  0  0  0
  151.9762  136.9458  157.2763 H   0  0  0  0  0  0  0  0  0  0  0  0
  150.6694  137.9123  157.9279 H   0  0  0  0  0  0  0  0  0  0  0  0
  150.1957  135.4779  158.1892 H   0  0  0  0  0  0  0  0  0  0  0  0
  148.9826  136.2858  157.2265 H   0  0  0  0  0  0  0  0  0  0  0  0
  151.2994  134.6040  156.1498 H   0  0  0  0  0  0  0  0  0  0  0  0
  149.6063  134.1525  156.1472 H   0  0  0  0  0  0  0  0  0  0  0  0
  150.3114  135.0619  153.9228 H   0  0  0  0  0  0  0  0  0  0  0  0
  149.0551  136.0390  154.6449 H   0  0  0  0  0  0  0  0  0  0  0  0
  150.8089  137.4916  153.7288 H   0  0  0  0  0  0  0  0  0  0  0  0
  152.0521  136.6760  154.6454 H   0  0  0  0  0  0  0  0  0  0  0  0
  1  2  1  0  0  0  0
  1 19  1  0  0  0  0
  1 20  1  0  0  0  0
  1 21  1  0  0  0  0
  2  3  1  0  0  0  0
  2  9  1  0  0  0  0
  2 22  1  0  0  0  0
  3  4  1  0  0  0  0
  3 23  1  0  0  0  0
  3 24  1  0  0  0  0
  4  8  1  0  0  0  0
  4  5  1  0  0  0  0
  5  6  2  0  0  0  0
  5 25  1  0  0  0  0
  6  7  1  0  0  0  0
  6 26  1  0  0  0  0
  7  8  2  0  0  0  0
  7 27  1  0  0  0  0
  9 10  1  0  0  0  0
 10 11  2  0  0  0  0
 10 12  2  0  0  0  0
 10 13  1  0  0  0  0
 13 18  1  0  0  0  0
 13 14  1  0  0  0  0
 14 15  1  0  0  0  0
 14 28  1  0  0  0  0
 14 29  1  0  0  0  0
 15 16  1  0  0  0  0
 15 30  1  0  0  0  0
 15 31  1  0  0  0  0
 16 17  1  0  0  0  0
 16 32  1  0  0  0  0
 16 33  1  0  0  0  0
 17 18  1  0  0  0  0
 17 34  1  0  0  0  0
 17 35  1  0  0  0  0
 18 36  1  0  0  0  0
 18 37  1  0  0  0  0
M  CHG  1   9  -1
M  END
> <s_m_source_file>
AV-unprocessed.smi

> <i_m_source_file_index>
2009

> <i_lp_mmshare_version>
43012

> <i_f3d_flags>
0

> <s_epik_input>
bjFbY0hdW2NIXVtjSF1uMVtDSDJdW0NAQEhdKFtDSDNdKVtOSF1TKD1PKSg9TylOMltDSDJdW0NIMl1bQ0gyXVtDSDJdW0NIMl0y

> <s_epik_cmdline>
J2VwaWtfcHl0aG9uJywgJy1waCcsICc3LjAnLCAnLXRuJywgJzgnLCAnLW1hJywgJzIwMCcsICctbWV0YWxfYmluZGluZycsICctaW1hZScsICc8aW5maWxlLm1hZT4nLCAnLW9tYWUnLCAnPG91dGZpbGUubWFlPic=

> <r_lp_tautomer_probability>
1

> <r_epik_Ionization_Penalty>
1.75622

> <r_epik_Ionization_Penalty_Charging>
1.7562

> <r_epik_Ionization_Penalty_Neutral>
2.38826e-05

> <r_epik_State_Penalty>
1.86645

> <r_epik_Charging_Adjusted_Penalty>
3.62264

> <i_epik_Tot_Q>
-1

> <i_epik_Tot_abs_Q>
1

> <r_epik_Metal_State_Penalty>
0.460135

> <b_epik_Metal_Only>
0

> <s_lp_Force_Field>
OPLS_2005

> <r_lp_Energy>
6.21629

> <b_lp_Chiralities_Consistent>
1

> <s_lp_Variant>
AV-unprocessed.smi:2009-4

> <Gold.Version>
5.8.1

> <Gold.Id.Protein>
6NUR|6NUR_protein|mol2

> <Gold.PLP.Fitness>
40.4577

> <Gold.PLP.PLP>
-35.0626

> <Gold.PLP.part.hbond>
-2.0000

> <Gold.PLP.part.metal>
0.0000

> <Gold.PLP.part.buried>
-6.2536

> <Gold.PLP.part.nonpolar>
-27.8680

> <Gold.PLP.part.repulsive>
0.1698

> <Gold.PLP.ligand.clash>
0.0000

> <Gold.PLP.ligand.torsion>
1.0932

> <Gold.PLP.Chemscore.Hbond>
2.0000

> <Gold.PLP.Chemscore.CHOScore>
0.0000

> <Gold.PLP.Chemscore.Metal>
0.0000

> <Gold.Chemscore.Hbonds>
donor molecule, donor type, donor heavy atom, donor atom, acceptor molecule, acceptor atom, score
      P1  H  7989  7998       L1    11  0.99
      P1  H  7997  8008       L1    12  1.00

> <Gold.PLP.Chemscore.Internal.Correction>
1.5815

> <Gold.Rescore>
     Score         DG    S(hbond)    S(metal)    S(lipo)     H(rot)  DE(clash)    DE(int)     intcor
     16.63     -17.66       1.98        0.00      81.84       1.57       0.01       1.02       ----

> <Gold.Chemscore.Fitness>
16.6317

> <Gold.Chemscore.DG>
-17.6591

> <Gold.Chemscore.ZeroCoef>
-5.4800

> <Gold.Chemscore.Hbond>
1.9807

> <Gold.Chemscore.Metal>
0.0000

> <Gold.Chemscore.Lipo>
81.8411

> <Gold.Chemscore.Internal_Hbond>
0.0000

> <Gold.Chemscore.DEClash>
0.0073

> <Gold.Chemscore.DEInternal>
1.0201

> <Gold.Chemscore.Rot>
1.5672

> <Gold.Chemscore.Internal.Correction>
   9.000000E+99

> <Gold.Chemscore.Hbonds>
donor molecule, donor type, donor heavy atom, donor atom, acceptor molecule, acceptor atom, score
      P1  H  7989  7998       L1    11  0.91
      P1  H  7997  8008       L1    12  1.00

> <Gold.Chemscore.Hbond.Weighted>
-6.6156

> <Gold.Chemscore.Metal.Weighted>
-0.0000

> <Gold.Chemscore.Lipo.Weighted>
-9.5754

> <Gold.Chemscore.Internal_Hbond.Weighted>
0.0000

> <Gold.Chemscore.DEClash.Weighted>
0.0073

> <Gold.Chemscore.DEInternal.Weighted>
1.0201

> <Gold.Chemscore.Rot.Weighted>
4.0119

> <Gold.Chemscore.Internal.Correction.Weighted>
   9.000000E+99

> <Gold.Protein.RotatedTorsions>
[ 6907 6896 6895 6894 ] final -102.91 input  -60.11 | X-H torsion
[ 7974 7965 7964 7962 ] final -152.86 input  175.53 | X-H torsion
[ 8008 7997 7996 7995 ] final  -35.51 input   59.86 | X-H torsion
[ 10167 10162 10161 10158 ] final  129.84 input  -65.29 | X-H torsion
[ 10718 10713 10712 10709 ] final   97.33 input   66.30 | X-H torsion
[ 10763 10752 10751 10750 ] final -149.68 input  -60.55 | X-H torsion
[ 11005 11000 10999 10996 ] final  127.23 input  -57.11 | X-H torsion

> <Gold.Protein.ActiveResidues>
 VAL166  LYS551  ARG553  GLY616  TRP617  ASP618  TYR619  PRO620  LYS621  CYS622 
 ASP623  PHE694  ASN695  SER759  ASP760  ASP761  ALA762  ILE779  LEU786  VAL792 
 PHE793  MET794  SER795  GLU796  ALA797  LYS798  CYS799  TRP800  GLU811  SER814 

> <Gold.Protein.RotatedAtoms>
  150.7217  134.0509  159.3797 H   0  0  0  0  0  0  0  0  0  0  0  0  # atno 6907 bound_to 6896
  151.8486  135.0563  160.0465 H   0  0  0  0  0  0  0  0  0  0  0  0  # atno 6908 bound_to 6896
  152.2807  133.5432  159.5533 H   0  0  0  0  0  0  0  0  0  0  0  0  # atno 6909 bound_to 6896
  144.7771  140.4605  143.5865 H   0  0  0  0  0  0  0  0  0  0  0  0  # atno 7974 bound_to 7965
  154.4094  140.1655  156.2224 H   0  0  0  0  0  0  0  0  0  0  0  0  # atno 8008 bound_to 7997
  155.9352  140.3412  155.6259 H   0  0  0  0  0  0  0  0  0  0  0  0  # atno 8009 bound_to 7997
  155.7057  140.0750  157.2383 H   0  0  0  0  0  0  0  0  0  0  0  0  # atno 8010 bound_to 7997
  139.5458  144.6772  151.4477 H   0  0  0  0  0  0  0  0  0  0  0  0  # atno 10167 bound_to 10162
  157.6914  131.0606  150.4627 H   0  0  0  0  0  0  0  0  0  0  0  0  # atno 10718 bound_to 10713
  154.8163  135.3303  154.7165 H   0  0  0  0  0  0  0  0  0  0  0  0  # atno 10763 bound_to 10752
  153.7805  135.6919  153.4893 H   0  0  0  0  0  0  0  0  0  0  0  0  # atno 10764 bound_to 10752
  153.1983  135.4525  155.0183 H   0  0  0  0  0  0  0  0  0  0  0  0  # atno 10765 bound_to 10752
  139.9497  134.9624  156.8825 H   0  0  0  0  0  0  0  0  0  0  0  0  # atno 11005 bound_to 11000
  145.6154  139.1518  143.3052 LP  0  0  0  0  0  0  0  0  0  0  0  0  # atno 17320 bound_to 7965
  146.1958  140.6268  142.9125 LP  0  0  0  0  0  0  0  0  0  0  0  0  # atno 17321 bound_to 7965
  140.6706  143.8302  150.6995 LP  0  0  0  0  0  0  0  0  0  0  0  0  # atno 17342 bound_to 10162
  140.1725  143.4182  152.1991 LP  0  0  0  0  0  0  0  0  0  0  0  0  # atno 17343 bound_to 10162
  156.4970  130.4108  149.6374 LP  0  0  0  0  0  0  0  0  0  0  0  0  # atno 17370 bound_to 10713
  156.3363  130.7358  151.2296 LP  0  0  0  0  0  0  0  0  0  0  0  0  # atno 17371 bound_to 10713
  140.5749  134.0408  155.7443 LP  0  0  0  0  0  0  0  0  0  0  0  0  # atno 17394 bound_to 11000
  141.1157  133.9545  157.2827 LP  0  0  0  0  0  0  0  0  0  0  0  0  # atno 17395 bound_to 11000

$$$$
