AV-unprocessed.smi:2104|AV-procd|sdf|8586|dock9
  -GOLD-   2272011313D 1   1.00000     0.00000
 Structure written by MMmdl.
 43 44  0  0  0  0  0  0  0  0  1 V2000
  146.0596  134.1480  162.5489 C   0  0  0  0  0  0  0  0  0  0  0  0
  146.8847  135.1738  161.8509 C   0  0  0  0  0  0  0  0  0  0  0  0
  147.7695  135.1066  160.8115 C   0  0  0  0  0  0  0  0  0  0  0  0
  148.1926  136.4546  160.6642 C   0  0  0  0  0  0  0  0  0  0  0  0
  149.1356  136.8168  159.6689 N   0  0  0  0  0  0  0  0  0  0  0  0
  149.0429  137.8198  158.7795 C   0  0  0  0  0  0  0  0  0  0  0  0
  148.0972  138.6036  158.6891 O   0  0  0  0  0  0  0  0  0  0  0  0
  150.1199  137.8650  157.9829 N   0  0  0  0  0  0  0  0  0  0  0  0
  150.3157  138.8115  156.8896 C   0  0  0  0  0  0  0  0  0  0  0  0
  151.5461  139.6998  157.1236 C   0  0  0  0  0  0  0  0  0  0  0  0
  151.3440  140.4536  158.3102 O   0  0  0  0  0  0  0  0  0  0  0  0
  152.0155  141.7068  158.3374 C   0  0  1  0  0  0  0  0  0  0  0  0
  151.0909  142.8044  157.7704 C   0  0  0  0  0  0  0  0  0  0  0  0
  151.7181  144.1988  157.9113 C   0  0  0  0  0  0  0  0  0  0  0  0
  152.0839  144.4928  159.3725 C   0  0  0  0  0  0  0  0  0  0  0  0
  153.0140  143.4084  159.9366 C   0  0  0  0  0  0  0  0  0  0  0  0
  152.3983  142.0008  159.8055 C   0  0  2  0  0  0  0  0  0  0  0  0
  153.3545  140.9350  160.3670 C   0  0  0  0  0  0  0  0  0  0  0  0
  147.6169  137.2707  161.5337 N   0  0  0  0  0  0  0  0  0  0  0  0
  146.7763  136.4539  162.2992 O   0  0  0  0  0  0  0  0  0  0  0  0
  146.1203  133.1865  162.0389 H   0  0  0  0  0  0  0  0  0  0  0  0
  145.0121  134.4485  162.5794 H   0  0  0  0  0  0  0  0  0  0  0  0
  146.4029  134.0092  163.5743 H   0  0  0  0  0  0  0  0  0  0  0  0
  148.0654  134.2325  160.2504 H   0  0  0  0  0  0  0  0  0  0  0  0
  149.9697  136.2503  159.6282 H   0  0  0  0  0  0  0  0  0  0  0  0
  150.8485  137.1807  158.1250 H   0  0  0  0  0  0  0  0  0  0  0  0
  150.4123  138.2738  155.9452 H   0  0  0  0  0  0  0  0  0  0  0  0
  149.4219  139.4301  156.8050 H   0  0  0  0  0  0  0  0  0  0  0  0
  152.4440  139.0858  157.2065 H   0  0  0  0  0  0  0  0  0  0  0  0
  151.6853  140.3649  156.2714 H   0  0  0  0  0  0  0  0  0  0  0  0
  152.9328  141.6589  157.7469 H   0  0  0  0  0  0  0  0  0  0  0  0
  150.8705  142.6153  156.7200 H   0  0  0  0  0  0  0  0  0  0  0  0
  150.1346  142.7826  158.2946 H   0  0  0  0  0  0  0  0  0  0  0  0
  152.6117  144.2627  157.2891 H   0  0  0  0  0  0  0  0  0  0  0  0
  151.0274  144.9570  157.5409 H   0  0  0  0  0  0  0  0  0  0  0  0
  152.5632  145.4695  159.4466 H   0  0  0  0  0  0  0  0  0  0  0  0
  151.1761  144.5465  159.9747 H   0  0  0  0  0  0  0  0  0  0  0  0
  153.9695  143.4426  159.4110 H   0  0  0  0  0  0  0  0  0  0  0  0
  153.2306  143.6245  160.9834 H   0  0  0  0  0  0  0  0  0  0  0  0
  151.4869  141.9778  160.4051 H   0  0  0  0  0  0  0  0  0  0  0  0
  154.2817  140.8937  159.7945 H   0  0  0  0  0  0  0  0  0  0  0  0
  152.9044  139.9421  160.3406 H   0  0  0  0  0  0  0  0  0  0  0  0
  153.6135  141.1477  161.4045 H   0  0  0  0  0  0  0  0  0  0  0  0
  1  2  1  0  0  0  0
  1 21  1  0  0  0  0
  1 22  1  0  0  0  0
  1 23  1  0  0  0  0
  2 20  1  0  0  0  0
  2  3  2  0  0  0  0
  3  4  1  0  0  0  0
  3 24  1  0  0  0  0
  4  5  1  0  0  0  0
  4 19  2  0  0  0  0
  5  6  1  0  0  0  0
  5 25  1  0  0  0  0
  6  7  2  0  0  0  0
  6  8  1  0  0  0  0
  8  9  1  0  0  0  0
  8 26  1  0  0  0  0
  9 10  1  0  0  0  0
  9 27  1  0  0  0  0
  9 28  1  0  0  0  0
 10 11  1  0  0  0  0
 10 29  1  0  0  0  0
 10 30  1  0  0  0  0
 11 12  1  0  0  0  0
 12 17  1  0  0  0  0
 12 13  1  0  0  0  0
 12 31  1  0  0  0  0
 13 14  1  0  0  0  0
 13 32  1  0  0  0  0
 13 33  1  0  0  0  0
 14 15  1  0  0  0  0
 14 34  1  0  0  0  0
 14 35  1  0  0  0  0
 15 16  1  0  0  0  0
 15 36  1  0  0  0  0
 15 37  1  0  0  0  0
 16 17  1  0  0  0  0
 16 38  1  0  0  0  0
 16 39  1  0  0  0  0
 17 18  1  0  0  0  0
 17 40  1  0  0  0  0
 18 41  1  0  0  0  0
 18 42  1  0  0  0  0
 18 43  1  0  0  0  0
 19 20  1  0  0  0  0
M  END
> <s_m_source_file>
AV-unprocessed.smi

> <i_m_source_file_index>
2104

> <i_lp_mmshare_version>
43012

> <i_f3d_flags>
0

> <s_epik_input>
W0NIM11jMVtjSF1jKG5vMSlbTkhdQyg9TylbTkhdW0NIMl1bQ0gyXU9bQ0BASF0yW0NIMl1bQ0gyXVtDSDJdW0NIMl1bQ0BIXTJbQ0gzXQ==

> <s_epik_cmdline>
J2VwaWtfcHl0aG9uJywgJy1waCcsICc3LjAnLCAnLXRuJywgJzgnLCAnLW1hJywgJzIwMCcsICctbWV0YWxfYmluZGluZycsICctaW1hZScsICc8aW5maWxlLm1hZT4nLCAnLW9tYWUnLCAnPG91dGZpbGUubWFlPic=

> <r_lp_tautomer_probability>
1

> <r_epik_Ionization_Penalty>
2.94418e-05

> <r_epik_Ionization_Penalty_Charging>
0

> <r_epik_Ionization_Penalty_Neutral>
2.94418e-05

> <r_epik_State_Penalty>
-0

> <r_epik_Charging_Adjusted_Penalty>
0

> <i_epik_Tot_Q>
0

> <i_epik_Tot_abs_Q>
0

> <r_epik_Metal_State_Penalty>
0.0104148

> <b_epik_Metal_Only>
0

> <s_lp_Force_Field>
OPLS_2005

> <r_lp_Energy>
8.17473

> <b_lp_Chiralities_Consistent>
1

> <s_lp_Variant>
AV-unprocessed.smi:2104-4

> <Gold.Version>
5.8.1

> <Gold.Id.Protein>
6NUR|6NUR_protein|mol2

> <Gold.PLP.Fitness>
44.7593

> <Gold.PLP.PLP>
-41.3449

> <Gold.PLP.part.hbond>
-3.0000

> <Gold.PLP.part.metal>
0.0000

> <Gold.PLP.part.buried>
-5.8279

> <Gold.PLP.part.nonpolar>
-33.9637

> <Gold.PLP.part.repulsive>
0.3144

> <Gold.PLP.ligand.clash>
0.0000

> <Gold.PLP.ligand.torsion>
1.0084

> <Gold.PLP.Chemscore.Hbond>
1.8000

> <Gold.PLP.Chemscore.CHOScore>
0.0000

> <Gold.PLP.Chemscore.Metal>
0.0000

> <Gold.Chemscore.Hbonds>
donor molecule, donor type, donor heavy atom, donor atom, acceptor molecule, acceptor atom, score
      P1  H  6931  6943       L1    19  0.85
      P1  H  6934  6947       L1    19  0.78

> <Gold.PLP.Chemscore.Internal.Correction>
0.0311

> <Gold.Rescore>
     Score         DG    S(hbond)    S(metal)    S(lipo)     H(rot)  DE(clash)    DE(int)     intcor
     17.03     -18.17       1.50        0.00     104.08       1.75       0.02       1.12       ----

> <Gold.Chemscore.Fitness>
17.0287

> <Gold.Chemscore.DG>
-18.1674

> <Gold.Chemscore.ZeroCoef>
-5.4800

> <Gold.Chemscore.Hbond>
1.4959

> <Gold.Chemscore.Metal>
0.0000

> <Gold.Chemscore.Lipo>
104.0802

> <Gold.Chemscore.Internal_Hbond>
0.0000

> <Gold.Chemscore.DEClash>
0.0199

> <Gold.Chemscore.DEInternal>
1.1188

> <Gold.Chemscore.Rot>
1.7524

> <Gold.Chemscore.Internal.Correction>
   9.000000E+99

> <Gold.Chemscore.Hbonds>
donor molecule, donor type, donor heavy atom, donor atom, acceptor molecule, acceptor atom, score
      P1  H  6931  6943       L1    19  0.16
      P1  H  6934  6947       L1    19  0.74

> <Gold.Chemscore.Hbond.Weighted>
-4.9961

> <Gold.Chemscore.Metal.Weighted>
-0.0000

> <Gold.Chemscore.Lipo.Weighted>
-12.1774

> <Gold.Chemscore.Internal_Hbond.Weighted>
0.0000

> <Gold.Chemscore.DEClash.Weighted>
0.0199

> <Gold.Chemscore.DEInternal.Weighted>
1.1188

> <Gold.Chemscore.Rot.Weighted>
4.4861

> <Gold.Chemscore.Internal.Correction.Weighted>
   9.000000E+99

> <Gold.Protein.RotatedTorsions>
[ 6907 6896 6895 6894 ] final  158.55 input  -60.11 | X-H torsion
[ 7974 7965 7964 7962 ] final -131.61 input  175.53 | X-H torsion
[ 8008 7997 7996 7995 ] final   44.30 input   59.86 | X-H torsion
[ 10167 10162 10161 10158 ] final  170.74 input  -65.29 | X-H torsion
[ 10718 10713 10712 10709 ] final -149.64 input   66.30 | X-H torsion
[ 10763 10752 10751 10750 ] final  173.09 input  -60.55 | X-H torsion
[ 11005 11000 10999 10996 ] final -151.22 input  -57.11 | X-H torsion

> <Gold.Protein.ActiveResidues>
 VAL166  LYS551  ARG553  GLY616  TRP617  ASP618  TYR619  PRO620  LYS621  CYS622 
 ASP623  PHE694  ASN695  SER759  ASP760  ASP761  ALA762  ILE779  LEU786  VAL792 
 PHE793  MET794  SER795  GLU796  ALA797  LYS798  CYS799  TRP800  GLU811  SER814 

> <Gold.Protein.RotatedAtoms>
  151.9988  133.3818  159.4173 H   0  0  0  0  0  0  0  0  0  0  0  0  # atno 6907 bound_to 6896
  150.6912  134.3857  159.5063 H   0  0  0  0  0  0  0  0  0  0  0  0  # atno 6908 bound_to 6896
  152.1601  134.8919  160.0593 H   0  0  0  0  0  0  0  0  0  0  0  0  # atno 6909 bound_to 6896
  144.9363  140.7187  143.4874 H   0  0  0  0  0  0  0  0  0  0  0  0  # atno 7974 bound_to 7965
  155.3170  140.3394  155.4242 H   0  0  0  0  0  0  0  0  0  0  0  0  # atno 8008 bound_to 7997
  156.1928  140.1704  156.8096 H   0  0  0  0  0  0  0  0  0  0  0  0  # atno 8009 bound_to 7997
  154.5462  140.0715  156.8576 H   0  0  0  0  0  0  0  0  0  0  0  0  # atno 8010 bound_to 7997
  139.5027  144.3563  151.9870 H   0  0  0  0  0  0  0  0  0  0  0  0  # atno 10167 bound_to 10162
  156.4358  130.8098  151.2326 H   0  0  0  0  0  0  0  0  0  0  0  0  # atno 10718 bound_to 10713
  154.4352  135.2760  155.1885 H   0  0  0  0  0  0  0  0  0  0  0  0  # atno 10763 bound_to 10752
  154.3775  135.6095  153.5776 H   0  0  0  0  0  0  0  0  0  0  0  0  # atno 10764 bound_to 10752
  152.9838  135.5872  154.4670 H   0  0  0  0  0  0  0  0  0  0  0  0  # atno 10765 bound_to 10752
  140.7319  134.3611  157.5165 H   0  0  0  0  0  0  0  0  0  0  0  0  # atno 11005 bound_to 11000
  145.3061  139.1834  143.4663 LP  0  0  0  0  0  0  0  0  0  0  0  0  # atno 17320 bound_to 7965
  146.3268  140.3059  142.8623 LP  0  0  0  0  0  0  0  0  0  0  0  0  # atno 17321 bound_to 7965
  140.3000  144.3657  150.6063 LP  0  0  0  0  0  0  0  0  0  0  0  0  # atno 17342 bound_to 10162
  140.5881  143.2169  151.7305 LP  0  0  0  0  0  0  0  0  0  0  0  0  # atno 17343 bound_to 10162
  157.7507  131.0184  150.3624 LP  0  0  0  0  0  0  0  0  0  0  0  0  # atno 17370 bound_to 10713
  156.3971  130.3908  149.6987 LP  0  0  0  0  0  0  0  0  0  0  0  0  # atno 17371 bound_to 10713
  139.8824  134.9024  156.2832 LP  0  0  0  0  0  0  0  0  0  0  0  0  # atno 17394 bound_to 11000
  140.9913  133.7207  156.0818 LP  0  0  0  0  0  0  0  0  0  0  0  0  # atno 17395 bound_to 11000

$$$$
