AV-unprocessed.smi:2797|AV-procd|sdf|10784|dock8
  -GOLD-   2272015223D 1   1.00000     0.00000
 Structure written by MMmdl.
 38 39  0  0  0  0  0  0  0  0  2 V2000
  149.0419  132.0052  156.9328 C   0  0  0  0  0  0  0  0  0  0  0  0
  149.0206  131.0108  155.9155 O   0  0  0  0  0  0  0  0  0  0  0  0
  150.0174  131.0998  154.8909 C   0  0  0  0  0  0  0  0  0  0  0  0
  149.8736  132.3935  154.0779 C   0  0  0  0  0  0  0  0  0  0  0  0
  148.9069  132.2303  152.9963 N   0  0  0  0  0  0  0  0  0  0  0  0
  147.6750  132.7567  152.9650 C   0  0  0  0  0  0  0  0  0  0  0  0
  147.1860  133.4057  153.8889 O   0  0  0  0  0  0  0  0  0  0  0  0
  147.0539  132.4670  151.8093 N   0  0  0  0  0  0  0  0  0  0  0  0
  145.7532  132.8526  151.3787 C   0  0  0  0  0  0  0  0  0  0  0  0
  144.8618  133.6043  152.1857 C   0  0  0  0  0  0  0  0  0  0  0  0
  143.5985  133.9608  151.6758 C   0  0  0  0  0  0  0  0  0  0  0  0
  143.2507  133.5966  150.4243 N   0  3  0  0  0  0  0  0  0  0  0  0
  144.0672  132.8945  149.6081 C   0  0  0  0  0  0  0  0  0  0  0  0
  143.5565  132.5574  148.2206 C   0  0  0  0  0  0  0  0  0  0  0  0
  145.3490  132.5062  150.0650 C   0  0  0  0  0  0  0  0  0  0  0  0
  146.4063  131.6115  149.0254 Cl  0  0  0  0  0  0  0  0  0  0  0  0
  151.3719  130.8257  155.5728 C   0  0  0  0  0  0  0  0  0  0  0  0
  151.1979  129.3389  155.2578 C   0  0  0  0  0  0  0  0  0  0  0  0
  150.2261  129.7581  154.1539 C   0  0  0  0  0  0  0  0  0  0  0  0
  148.2728  131.7704  157.6682 H   0  0  0  0  0  0  0  0  0  0  0  0
  148.8207  132.9980  156.5446 H   0  0  0  0  0  0  0  0  0  0  0  0
  149.9919  132.0441  157.4627 H   0  0  0  0  0  0  0  0  0  0  0  0
  149.5003  133.1918  154.7197 H   0  0  0  0  0  0  0  0  0  0  0  0
  150.8348  132.7521  153.7094 H   0  0  0  0  0  0  0  0  0  0  0  0
  149.2181  131.7030  152.1937 H   0  0  0  0  0  0  0  0  0  0  0  0
  147.5487  131.8462  151.1854 H   0  0  0  0  0  0  0  0  0  0  0  0
  145.1263  133.9267  153.1811 H   0  0  0  0  0  0  0  0  0  0  0  0
  142.8631  134.5293  152.2266 H   0  0  0  0  0  0  0  0  0  0  0  0
  143.5320  131.4768  148.0775 H   0  0  0  0  0  0  0  0  0  0  0  0
  144.2074  132.9915  147.4612 H   0  0  0  0  0  0  0  0  0  0  0  0
  142.5483  132.9422  148.0616 H   0  0  0  0  0  0  0  0  0  0  0  0
  152.2131  131.2678  155.0361 H   0  0  0  0  0  0  0  0  0  0  0  0
  151.4110  131.0656  156.6361 H   0  0  0  0  0  0  0  0  0  0  0  0
  152.0994  128.8357  154.9074 H   0  0  0  0  0  0  0  0  0  0  0  0
  150.7109  128.7891  156.0648 H   0  0  0  0  0  0  0  0  0  0  0  0
  149.3569  129.1107  154.0521 H   0  0  0  0  0  0  0  0  0  0  0  0
  150.7273  129.8841  153.1926 H   0  0  0  0  0  0  0  0  0  0  0  0
  142.3309  133.8688  150.0761 H   0  0  0  0  0  0  0  0  0  0  0  0
  1  2  1  0  0  0  0
  1 20  1  0  0  0  0
  1 21  1  0  0  0  0
  1 22  1  0  0  0  0
  2  3  1  0  0  0  0
  3 19  1  0  0  0  0
  3  4  1  0  0  0  0
  3 17  1  0  0  0  0
  4  5  1  0  0  0  0
  4 23  1  0  0  0  0
  4 24  1  0  0  0  0
  5  6  1  0  0  0  0
  5 25  1  0  0  0  0
  6  7  2  0  0  0  0
  6  8  1  0  0  0  0
  8  9  1  0  0  0  0
  8 26  1  0  0  0  0
  9 15  1  0  0  0  0
  9 10  2  0  0  0  0
 10 11  1  0  0  0  0
 10 27  1  0  0  0  0
 11 12  2  0  0  0  0
 11 28  1  0  0  0  0
 12 13  1  0  0  0  0
 12 38  1  0  0  0  0
 13 14  1  0  0  0  0
 13 15  2  0  0  0  0
 14 29  1  0  0  0  0
 14 30  1  0  0  0  0
 14 31  1  0  0  0  0
 15 16  1  0  0  0  0
 17 18  1  0  0  0  0
 17 32  1  0  0  0  0
 17 33  1  0  0  0  0
 18 19  1  0  0  0  0
 18 34  1  0  0  0  0
 18 35  1  0  0  0  0
 19 36  1  0  0  0  0
 19 37  1  0  0  0  0
M  CHG  1  12   1
M  END
> <s_m_source_file>
AV-unprocessed.smi

> <i_m_source_file_index>
2797

> <i_lp_mmshare_version>
43012

> <i_f3d_flags>
0

> <s_epik_input>
W0NIMl0xW0NIMl1bQ0gyXUMxKE9bQ0gzXSlbQ0gyXVtOSF1DKD1PKVtOSF1jMltjSF1bY0hdbmMoW0NIM10pYzJDbA==

> <s_epik_cmdline>
J2VwaWtfcHl0aG9uJywgJy1waCcsICc3LjAnLCAnLXRuJywgJzgnLCAnLW1hJywgJzIwMCcsICctbWV0YWxfYmluZGluZycsICctaW1hZScsICc8aW5maWxlLm1hZT4nLCAnLW9tYWUnLCAnPG91dGZpbGUubWFlPic=

> <r_epik_Ionization_Penalty>
2.42651

> <r_epik_Ionization_Penalty_Charging>
2.42649

> <r_epik_Ionization_Penalty_Neutral>
1.93283e-05

> <r_epik_State_Penalty>
2.58622

> <r_epik_Charging_Adjusted_Penalty>
5.01271

> <i_epik_Tot_Q>
1

> <i_epik_Tot_abs_Q>
1

> <r_epik_Metal_State_Penalty>
2.59605

> <b_epik_Metal_Only>
0

> <s_lp_Force_Field>
OPLS_2005

> <r_lp_Energy>
25.6694

> <b_lp_Chiralities_Consistent>
1

> <s_lp_Variant>
AV-unprocessed.smi:2797-2

> <Gold.Version>
5.8.1

> <Gold.Id.Protein>
6NUR|6NUR_protein|mol2

> <Gold.PLP.Fitness>
45.6653

> <Gold.PLP.PLP>
-34.8836

> <Gold.PLP.part.hbond>
-3.0000

> <Gold.PLP.part.metal>
0.0000

> <Gold.PLP.part.buried>
-2.7977

> <Gold.PLP.part.nonpolar>
-28.1357

> <Gold.PLP.part.repulsive>
0.1086

> <Gold.PLP.ligand.clash>
0.0000

> <Gold.PLP.ligand.torsion>
0.5400

> <Gold.PLP.Chemscore.Hbond>
3.8600

> <Gold.PLP.Chemscore.CHOScore>
0.0000

> <Gold.PLP.Chemscore.Metal>
0.0000

> <Gold.Chemscore.Hbonds>
donor molecule, donor type, donor heavy atom, donor atom, acceptor molecule, acceptor atom, score
      L1  H     5    25       P1 10747  0.88
      L1  H     8    26       P1 10747  1.00
      L1  H    12    38       P1 10186  1.98

> <Gold.PLP.Chemscore.Internal.Correction>
0.2818

> <Gold.Rescore>
     Score         DG    S(hbond)    S(metal)    S(lipo)     H(rot)  DE(clash)    DE(int)     intcor
     18.82     -21.11       2.38        0.00      97.10       1.44       0.41       1.88       ----

> <Gold.Chemscore.Fitness>
18.8206

> <Gold.Chemscore.DG>
-21.1128

> <Gold.Chemscore.ZeroCoef>
-5.4800

> <Gold.Chemscore.Hbond>
2.3808

> <Gold.Chemscore.Metal>
0.0000

> <Gold.Chemscore.Lipo>
97.1024

> <Gold.Chemscore.Internal_Hbond>
0.0000

> <Gold.Chemscore.DEClash>
0.4147

> <Gold.Chemscore.DEInternal>
1.8775

> <Gold.Chemscore.Rot>
1.4375

> <Gold.Chemscore.Internal.Correction>
   9.000000E+99

> <Gold.Chemscore.Hbonds>
donor molecule, donor type, donor heavy atom, donor atom, acceptor molecule, acceptor atom, score
      L1  H     5    25       P1 10747  0.42
      L1  H     8    26       P1 10747  0.98
      L1  H    12    38       P1 10186  0.92

> <Gold.Chemscore.Hbond.Weighted>
-7.9518

> <Gold.Chemscore.Metal.Weighted>
-0.0000

> <Gold.Chemscore.Lipo.Weighted>
-11.3610

> <Gold.Chemscore.Internal_Hbond.Weighted>
0.0000

> <Gold.Chemscore.DEClash.Weighted>
0.4147

> <Gold.Chemscore.DEInternal.Weighted>
1.8775

> <Gold.Chemscore.Rot.Weighted>
3.6800

> <Gold.Chemscore.Internal.Correction.Weighted>
   9.000000E+99

> <Gold.Protein.RotatedTorsions>
[ 6907 6896 6895 6894 ] final -112.83 input  -60.11 | X-H torsion
[ 7974 7965 7964 7962 ] final   70.39 input  175.53 | X-H torsion
[ 8008 7997 7996 7995 ] final  -57.05 input   59.86 | X-H torsion
[ 10167 10162 10161 10158 ] final  151.61 input  -65.29 | X-H torsion
[ 10718 10713 10712 10709 ] final   19.59 input   66.30 | X-H torsion
[ 10763 10752 10751 10750 ] final  -93.42 input  -60.55 | X-H torsion
[ 11005 11000 10999 10996 ] final -142.48 input  -57.11 | X-H torsion

> <Gold.Protein.ActiveResidues>
 VAL166  LYS551  ARG553  GLY616  TRP617  ASP618  TYR619  PRO620  LYS621  CYS622 
 ASP623  PHE694  ASN695  SER759  ASP760  ASP761  ALA762  ILE779  LEU786  VAL792 
 PHE793  MET794  SER795  GLU796  ALA797  LYS798  CYS799  TRP800  GLU811  SER814 

> <Gold.Protein.RotatedAtoms>
  150.7786  133.9032  159.3347 H   0  0  0  0  0  0  0  0  0  0  0  0  # atno 6907 bound_to 6896
  151.6900  135.0946  160.0241 H   0  0  0  0  0  0  0  0  0  0  0  0  # atno 6908 bound_to 6896
  152.3830  133.6534  159.6212 H   0  0  0  0  0  0  0  0  0  0  0  0  # atno 6909 bound_to 6896
  145.7787  139.2877  143.1278 H   0  0  0  0  0  0  0  0  0  0  0  0  # atno 7974 bound_to 7965
  154.4253  140.1116  156.5735 H   0  0  0  0  0  0  0  0  0  0  0  0  # atno 8008 bound_to 7997
  155.6187  140.3495  155.4626 H   0  0  0  0  0  0  0  0  0  0  0  0  # atno 8009 bound_to 7997
  156.0041  140.1205  157.0508 H   0  0  0  0  0  0  0  0  0  0  0  0  # atno 8010 bound_to 7997
  139.4839  144.5427  151.7537 H   0  0  0  0  0  0  0  0  0  0  0  0  # atno 10167 bound_to 10162
  157.1126  130.6515  149.5901 H   0  0  0  0  0  0  0  0  0  0  0  0  # atno 10718 bound_to 10713
  154.6957  135.5195  153.8455 H   0  0  0  0  0  0  0  0  0  0  0  0  # atno 10763 bound_to 10752
  153.0666  135.6587  154.0351 H   0  0  0  0  0  0  0  0  0  0  0  0  # atno 10764 bound_to 10752
  154.0218  135.2993  155.3359 H   0  0  0  0  0  0  0  0  0  0  0  0  # atno 10765 bound_to 10752
  140.8220  134.2619  157.4896 H   0  0  0  0  0  0  0  0  0  0  0  0  # atno 11005 bound_to 11000
  146.0096  140.8448  142.9978 LP  0  0  0  0  0  0  0  0  0  0  0  0  # atno 17320 bound_to 7965
  144.6800  140.2470  143.7336 LP  0  0  0  0  0  0  0  0  0  0  0  0  # atno 17321 bound_to 7965
  140.4969  144.1228  150.5962 LP  0  0  0  0  0  0  0  0  0  0  0  0  # atno 17342 bound_to 10162
  140.4107  143.2658  151.9836 LP  0  0  0  0  0  0  0  0  0  0  0  0  # atno 17343 bound_to 10162
  155.9847  130.4873  150.6995 LP  0  0  0  0  0  0  0  0  0  0  0  0  # atno 17370 bound_to 10713
  157.4546  131.0876  151.0810 LP  0  0  0  0  0  0  0  0  0  0  0  0  # atno 17371 bound_to 10713
  139.8708  134.9540  156.4164 LP  0  0  0  0  0  0  0  0  0  0  0  0  # atno 17394 bound_to 11000
  140.9088  133.7726  155.9767 LP  0  0  0  0  0  0  0  0  0  0  0  0  # atno 17395 bound_to 11000

$$$$
