AV-unprocessed.smi:87|AV-procd|sdf|821|dock10
  -GOLD-   2262017223D 1   1.00000     0.00000
 Structure written by MMmdl.
 58 60  0  0  0  0  0  0  0  0  1 V2000
  148.0337  139.6320  153.9063 C   0  0  0  0  0  0  0  0  0  0  0  0
  149.4373  139.0316  154.0749 C   0  0  0  0  0  0  0  0  0  0  0  0
  150.4191  139.9189  154.8766 C   0  0  0  0  0  0  0  0  0  0  0  0
  151.7284  139.1639  155.2004 C   0  0  0  0  0  0  0  0  0  0  0  0
  151.6796  137.6614  154.8864 C   0  0  0  0  0  0  0  0  0  0  0  0
  149.7491  140.4345  156.1758 C   0  0  0  0  0  0  0  0  0  0  0  0
  150.6259  140.4058  157.3497 N   0  0  0  0  0  0  0  0  0  0  0  0
  150.7931  141.6634  158.0750 C   0  0  0  0  0  0  0  0  0  0  0  0
  151.2193  142.8233  157.1630 C   0  0  0  0  0  0  0  0  0  0  0  0
  151.8045  143.9412  157.9170 C   0  0  0  0  0  0  0  0  0  0  0  0
  152.2644  144.8212  158.5106 N   0  0  0  0  0  0  0  0  0  0  0  0
  150.5797  139.3195  158.1639 C   0  0  0  0  0  0  0  0  0  0  0  0
  151.7124  138.8748  158.7719 N   0  0  0  0  0  0  0  0  0  0  0  0
  151.6808  137.7829  159.5415 C   0  0  0  0  0  0  0  0  0  0  0  0
  150.6446  136.9914  159.8244 N   0  0  0  0  0  0  0  0  0  0  0  0
  149.5058  137.4339  159.2189 C   0  0  0  0  0  0  0  0  0  0  0  0
  149.3840  138.5821  158.3873 C   0  0  0  0  0  0  0  0  0  0  0  0
  148.0677  138.7233  157.9638 N   0  0  0  0  0  0  0  0  0  0  0  0
  147.4519  137.7016  158.4926 C   0  0  0  0  0  0  0  0  0  0  0  0
  148.2446  136.8666  159.2470 N   0  0  0  0  0  0  0  0  0  0  0  0
  147.8327  135.6460  159.9146 C   0  0  0  0  0  0  0  0  0  0  0  0
  147.7948  135.7792  161.4538 C   0  0  1  0  0  0  0  0  0  0  0  0
  147.4642  137.1221  161.7460 O   0  0  0  0  0  0  0  0  0  0  0  0
  146.7886  134.8425  162.1634 C   0  0  2  0  0  0  0  0  0  0  0  0
  146.8552  133.3829  161.7041 C   0  0  0  0  0  0  0  0  0  0  0  0
  145.4699  132.8826  162.0413 C   0  0  0  0  0  0  0  0  0  0  0  0
  144.6143  134.0882  161.6735 C   0  0  0  0  0  0  0  0  0  0  0  0
  145.4403  135.2276  161.8901 O   0  0  0  0  0  0  0  0  0  0  0  0
  147.3679  138.9180  153.4213 H   0  0  0  0  0  0  0  0  0  0  0  0
  148.0428  140.5317  153.2925 H   0  0  0  0  0  0  0  0  0  0  0  0
  147.5957  139.8862  154.8719 H   0  0  0  0  0  0  0  0  0  0  0  0
  149.3156  138.0730  154.5797 H   0  0  0  0  0  0  0  0  0  0  0  0
  149.8595  138.8002  153.0965 H   0  0  0  0  0  0  0  0  0  0  0  0
  150.6819  140.7708  154.2491 H   0  0  0  0  0  0  0  0  0  0  0  0
  152.5634  139.6226  154.6694 H   0  0  0  0  0  0  0  0  0  0  0  0
  151.9596  139.2610  156.2600 H   0  0  0  0  0  0  0  0  0  0  0  0
  152.5918  137.1697  155.2246 H   0  0  0  0  0  0  0  0  0  0  0  0
  151.5865  137.4690  153.8183 H   0  0  0  0  0  0  0  0  0  0  0  0
  150.8400  137.1815  155.3899 H   0  0  0  0  0  0  0  0  0  0  0  0
  149.4065  141.4576  156.0162 H   0  0  0  0  0  0  0  0  0  0  0  0
  148.8540  139.8580  156.4064 H   0  0  0  0  0  0  0  0  0  0  0  0
  149.8739  141.9273  158.5970 H   0  0  0  0  0  0  0  0  0  0  0  0
  151.5426  141.5192  158.8534 H   0  0  0  0  0  0  0  0  0  0  0  0
  151.9566  142.4905  156.4327 H   0  0  0  0  0  0  0  0  0  0  0  0
  150.3662  143.2157  156.6095 H   0  0  0  0  0  0  0  0  0  0  0  0
  152.6223  137.4985  159.9877 H   0  0  0  0  0  0  0  0  0  0  0  0
  146.3996  137.5190  158.3306 H   0  0  0  0  0  0  0  0  0  0  0  0
  146.8496  135.3663  159.5339 H   0  0  0  0  0  0  0  0  0  0  0  0
  148.5187  134.8492  159.6234 H   0  0  0  0  0  0  0  0  0  0  0  0
  148.7916  135.5957  161.8564 H   0  0  0  0  0  0  0  0  0  0  0  0
  146.7183  137.3682  161.2207 H   0  0  0  0  0  0  0  0  0  0  0  0
  146.9347  134.8812  163.2442 H   0  0  0  0  0  0  0  0  0  0  0  0
  147.0184  133.3251  160.6269 H   0  0  0  0  0  0  0  0  0  0  0  0
  147.6441  132.8161  162.1994 H   0  0  0  0  0  0  0  0  0  0  0  0
  145.1927  131.9796  161.4970 H   0  0  0  0  0  0  0  0  0  0  0  0
  145.3948  132.6776  163.1102 H   0  0  0  0  0  0  0  0  0  0  0  0
  144.3418  134.0564  160.6181 H   0  0  0  0  0  0  0  0  0  0  0  0
  143.6965  134.1435  162.2592 H   0  0  0  0  0  0  0  0  0  0  0  0
  1  2  1  0  0  0  0
  1 29  1  0  0  0  0
  1 30  1  0  0  0  0
  1 31  1  0  0  0  0
  2  3  1  0  0  0  0
  2 32  1  0  0  0  0
  2 33  1  0  0  0  0
  3  4  1  0  0  0  0
  3  6  1  0  0  0  0
  3 34  1  0  0  0  0
  4  5  1  0  0  0  0
  4 35  1  0  0  0  0
  4 36  1  0  0  0  0
  5 37  1  0  0  0  0
  5 38  1  0  0  0  0
  5 39  1  0  0  0  0
  6  7  1  0  0  0  0
  6 40  1  0  0  0  0
  6 41  1  0  0  0  0
  7  8  1  0  0  0  0
  7 12  1  0  0  0  0
  8  9  1  0  0  0  0
  8 42  1  0  0  0  0
  8 43  1  0  0  0  0
  9 10  1  0  0  0  0
  9 44  1  0  0  0  0
  9 45  1  0  0  0  0
 10 11  3  0  0  0  0
 12 17  1  0  0  0  0
 12 13  2  0  0  0  0
 13 14  1  0  0  0  0
 14 15  2  0  0  0  0
 14 46  1  0  0  0  0
 15 16  1  0  0  0  0
 16 20  1  0  0  0  0
 16 17  2  0  0  0  0
 17 18  1  0  0  0  0
 18 19  2  0  0  0  0
 19 20  1  0  0  0  0
 19 47  1  0  0  0  0
 20 21  1  0  0  0  0
 21 22  1  0  0  0  0
 21 48  1  0  0  0  0
 21 49  1  0  0  0  0
 22 23  1  0  0  0  0
 22 24  1  0  0  0  0
 22 50  1  0  0  0  0
 23 51  1  0  0  0  0
 24 28  1  0  0  0  0
 24 25  1  0  0  0  0
 24 52  1  0  0  0  0
 25 26  1  0  0  0  0
 25 53  1  0  0  0  0
 25 54  1  0  0  0  0
 26 27  1  0  0  0  0
 26 55  1  0  0  0  0
 26 56  1  0  0  0  0
 27 28  1  0  0  0  0
 27 57  1  0  0  0  0
 27 58  1  0  0  0  0
M  END
> <s_m_source_file>
AV-unprocessed.smi

> <i_m_source_file_index>
87

> <i_lp_mmshare_version>
43012

> <i_f3d_flags>
0

> <s_epik_input>
W0NIM11bQ0gyXVtDSF0oW0NIMl1bQ0gzXSlbQ0gyXU4oW0NIMl1bQ0gyXUMjTiljKG5bY0hdbjEpYyhjMTIpbltjSF1uMltDSDJdW0NASF0oW09IXSlbQ0BASF0zW0NIMl1bQ0gyXVtDSDJdTzM=

> <s_epik_cmdline>
J2VwaWtfcHl0aG9uJywgJy1waCcsICc3LjAnLCAnLXRuJywgJzgnLCAnLW1hJywgJzIwMCcsICctbWV0YWxfYmluZGluZycsICctaW1hZScsICc8aW5maWxlLm1hZT4nLCAnLW9tYWUnLCAnPG91dGZpbGUubWFlPic=

> <r_lp_tautomer_probability>
1

> <r_epik_Ionization_Penalty>
0.000348566

> <r_epik_Ionization_Penalty_Charging>
0

> <r_epik_Ionization_Penalty_Neutral>
0.000348566

> <r_epik_State_Penalty>
-0

> <r_epik_Charging_Adjusted_Penalty>
0

> <i_epik_Tot_Q>
0

> <i_epik_Tot_abs_Q>
0

> <r_epik_Metal_State_Penalty>
-0

> <b_epik_Metal_Only>
0

> <s_lp_Force_Field>
OPLS_2005

> <r_lp_Energy>
32.9267

> <b_lp_Chiralities_Consistent>
1

> <s_lp_Variant>
AV-unprocessed.smi:87-2

> <Gold.Version>
5.8.1

> <Gold.Id.Protein>
6NUR|6NUR_protein|mol2

> <Gold.PLP.Fitness>
49.7798

> <Gold.PLP.PLP>
-49.2454

> <Gold.PLP.part.hbond>
-3.2889

> <Gold.PLP.part.metal>
0.0000

> <Gold.PLP.part.buried>
-4.3176

> <Gold.PLP.part.nonpolar>
-41.1499

> <Gold.PLP.part.repulsive>
0.0386

> <Gold.PLP.ligand.clash>
0.0000

> <Gold.PLP.ligand.torsion>
3.1924

> <Gold.PLP.Chemscore.Hbond>
2.0000

> <Gold.PLP.Chemscore.CHOScore>
0.0000

> <Gold.PLP.Chemscore.Metal>
0.0000

> <Gold.Chemscore.Hbonds>
donor molecule, donor type, donor heavy atom, donor atom, acceptor molecule, acceptor atom, score
      P1  H  6896  6907       L1    15  1.00
      P1  H  6931  6943       L1    23  0.98

> <Gold.PLP.Chemscore.Internal.Correction>
0.9192

> <Gold.Rescore>
     Score         DG    S(hbond)    S(metal)    S(lipo)     H(rot)  DE(clash)    DE(int)     intcor
      9.67     -13.82       1.79        0.00      99.68       3.64       0.46       3.69       ----

> <Gold.Chemscore.Fitness>
9.6715

> <Gold.Chemscore.DG>
-13.8237

> <Gold.Chemscore.ZeroCoef>
-5.4800

> <Gold.Chemscore.Hbond>
1.7938

> <Gold.Chemscore.Metal>
0.0000

> <Gold.Chemscore.Lipo>
99.6789

> <Gold.Chemscore.Internal_Hbond>
0.0000

> <Gold.Chemscore.DEClash>
0.4637

> <Gold.Chemscore.DEInternal>
3.6885

> <Gold.Chemscore.Rot>
3.6368

> <Gold.Chemscore.Internal.Correction>
   9.000000E+99

> <Gold.Chemscore.Hbonds>
donor molecule, donor type, donor heavy atom, donor atom, acceptor molecule, acceptor atom, score
      P1  H  6896  6907       L1    15  0.83
      P1  H  6931  6943       L1    23  0.78

> <Gold.Chemscore.Hbond.Weighted>
-5.9914

> <Gold.Chemscore.Metal.Weighted>
-0.0000

> <Gold.Chemscore.Lipo.Weighted>
-11.6624

> <Gold.Chemscore.Internal_Hbond.Weighted>
0.0000

> <Gold.Chemscore.DEClash.Weighted>
0.4637

> <Gold.Chemscore.DEInternal.Weighted>
3.6885

> <Gold.Chemscore.Rot.Weighted>
9.3102

> <Gold.Chemscore.Internal.Correction.Weighted>
   9.000000E+99

> <Gold.Protein.RotatedTorsions>
[ 6907 6896 6895 6894 ] final  -28.93 input  -60.11 | X-H torsion
[ 7974 7965 7964 7962 ] final  142.79 input  175.53 | X-H torsion
[ 8008 7997 7996 7995 ] final  -35.71 input   59.86 | X-H torsion
[ 10167 10162 10161 10158 ] final   40.37 input  -65.29 | X-H torsion
[ 10718 10713 10712 10709 ] final  -61.53 input   66.30 | X-H torsion
[ 10763 10752 10751 10750 ] final -120.85 input  -60.55 | X-H torsion
[ 11005 11000 10999 10996 ] final  -19.03 input  -57.11 | X-H torsion

> <Gold.Protein.ActiveResidues>
 VAL166  LYS551  ARG553  GLY616  TRP617  ASP618  TYR619  PRO620  LYS621  CYS622 
 ASP623  PHE694  ASN695  SER759  ASP760  ASP761  ALA762  ILE779  LEU786  VAL792 
 PHE793  MET794  SER795  GLU796  ALA797  LYS798  CYS799  TRP800  GLU811  SER814 

> <Gold.Protein.RotatedAtoms>
  151.1261  135.0105  159.8560 H   0  0  0  0  0  0  0  0  0  0  0  0  # atno 6907 bound_to 6896
  152.5449  134.1665  159.8589 H   0  0  0  0  0  0  0  0  0  0  0  0  # atno 6908 bound_to 6896
  151.1727  133.4729  159.2627 H   0  0  0  0  0  0  0  0  0  0  0  0  # atno 6909 bound_to 6896
  144.8977  139.5468  143.5768 H   0  0  0  0  0  0  0  0  0  0  0  0  # atno 7974 bound_to 7965
  154.4089  140.1650  156.2256 H   0  0  0  0  0  0  0  0  0  0  0  0  # atno 8008 bound_to 7997
  155.9326  140.3413  155.6239 H   0  0  0  0  0  0  0  0  0  0  0  0  # atno 8009 bound_to 7997
  155.7087  140.0754  157.2371 H   0  0  0  0  0  0  0  0  0  0  0  0  # atno 8010 bound_to 7997
  140.3749  144.2057  150.6132 H   0  0  0  0  0  0  0  0  0  0  0  0  # atno 10167 bound_to 10162
  156.0915  130.4199  150.1007 H   0  0  0  0  0  0  0  0  0  0  0  0  # atno 10718 bound_to 10713
  154.8654  135.4188  154.2526 H   0  0  0  0  0  0  0  0  0  0  0  0  # atno 10763 bound_to 10752
  153.3469  135.6996  153.6826 H   0  0  0  0  0  0  0  0  0  0  0  0  # atno 10764 bound_to 10752
  153.5781  135.3578  155.2837 H   0  0  0  0  0  0  0  0  0  0  0  0  # atno 10765 bound_to 10752
  140.8326  133.7985  155.9775 H   0  0  0  0  0  0  0  0  0  0  0  0  # atno 11005 bound_to 11000
  146.3090  139.7681  142.9034 LP  0  0  0  0  0  0  0  0  0  0  0  0  # atno 17320 bound_to 7965
  145.3672  141.0336  143.3252 LP  0  0  0  0  0  0  0  0  0  0  0  0  # atno 17321 bound_to 7965
  140.4996  143.2322  151.8698 LP  0  0  0  0  0  0  0  0  0  0  0  0  # atno 17342 bound_to 10162
  139.4800  144.5074  151.8979 LP  0  0  0  0  0  0  0  0  0  0  0  0  # atno 17343 bound_to 10162
  156.9016  130.9622  151.3575 LP  0  0  0  0  0  0  0  0  0  0  0  0  # atno 17370 bound_to 10713
  157.6066  130.8552  149.8885 LP  0  0  0  0  0  0  0  0  0  0  0  0  # atno 17371 bound_to 10713
  140.8981  134.2412  157.5057 LP  0  0  0  0  0  0  0  0  0  0  0  0  # atno 17394 bound_to 11000
  139.8704  134.9694  156.4663 LP  0  0  0  0  0  0  0  0  0  0  0  0  # atno 17395 bound_to 11000

$$$$
