AV-unprocessed.smi:103|AV-procd|sdf|986|dock2
  -GOLD-   2262017553D 1   1.00000     0.00000
 Structure written by MMmdl.
 53 55  0  0  0  0  0  0  0  0  1 V2000
  147.3767  141.6397  153.8392 C   0  0  0  0  0  0  0  0  0  0  0  0
  148.6164  140.7844  154.0642 C   0  0  0  0  0  0  0  0  0  0  0  0
  149.7457  141.2738  154.0324 O   0  0  0  0  0  0  0  0  0  0  0  0
  148.3114  139.4958  154.2955 O   0  0  0  0  0  0  0  0  0  0  0  0
  149.2912  138.5996  154.8003 C   0  0  0  0  0  0  0  0  0  0  0  0
  149.4070  138.7741  156.3201 C   0  0  1  0  0  0  0  0  0  0  0  0
  148.1975  138.3053  156.9133 O   0  0  0  0  0  0  0  0  0  0  0  0
  148.4790  137.4191  157.9449 C   0  0  1  0  0  0  0  0  0  0  0  0
  147.3823  136.4019  158.0425 N   0  0  0  0  0  0  0  0  0  0  0  0
  146.6866  135.9751  159.1549 C   0  0  0  0  0  0  0  0  0  0  0  0
  146.8662  136.6015  160.8201 S   0  0  0  0  0  0  0  0  0  0  0  0
  146.2481  135.1897  161.8224 C   0  0  0  0  0  0  0  0  0  0  0  0
  148.3071  136.7781  161.0597 O   0  0  0  0  0  0  0  0  0  0  0  0
  145.9399  137.7356  160.9602 O   0  0  0  0  0  0  0  0  0  0  0  0
  145.7384  135.1007  158.9547 N   0  0  0  0  0  0  0  0  0  0  0  0
  145.8345  134.8406  157.5948 C   0  0  0  0  0  0  0  0  0  0  0  0
  145.1483  133.9744  156.7069 C   0  0  0  0  0  0  0  0  0  0  0  0
  144.1612  133.1575  157.0998 N   0  0  0  0  0  0  0  0  0  0  0  0
  145.5075  133.9677  155.4020 N   0  0  0  0  0  0  0  0  0  0  0  0
  146.4912  134.7713  154.9855 C   0  0  0  0  0  0  0  0  0  0  0  0
  147.2204  135.6345  155.6965 N   0  0  0  0  0  0  0  0  0  0  0  0
  146.8580  135.6425  157.0132 C   0  0  0  0  0  0  0  0  0  0  0  0
  149.8346  136.7867  157.6296 C   0  0  1  0  0  0  0  0  0  0  0  0
  149.6989  135.6485  156.7855 O   0  0  0  0  0  0  0  0  0  0  0  0
  150.7797  134.9742  156.3664 C   0  0  0  0  0  0  0  0  0  0  0  0
  150.4108  133.7378  155.5576 C   0  0  0  0  0  0  0  0  0  0  0  0
  151.9530  135.2735  156.5857 O   0  0  0  0  0  0  0  0  0  0  0  0
  150.5442  137.9220  156.9080 C   0  0  2  0  0  0  0  0  0  0  0  0
  151.3067  138.6896  157.8325 O   0  0  0  0  0  0  0  0  0  0  0  0
  152.1123  139.6753  157.3971 C   0  0  0  0  0  0  0  0  0  0  0  0
  152.2650  140.7964  158.4164 C   0  0  0  0  0  0  0  0  0  0  0  0
  152.6890  139.7141  156.3105 O   0  0  0  0  0  0  0  0  0  0  0  0
  146.6887  141.1418  153.1557 H   0  0  0  0  0  0  0  0  0  0  0  0
  147.6505  142.6041  153.4108 H   0  0  0  0  0  0  0  0  0  0  0  0
  146.8621  141.8142  154.7841 H   0  0  0  0  0  0  0  0  0  0  0  0
  149.0739  137.5572  154.5635 H   0  0  0  0  0  0  0  0  0  0  0  0
  150.2420  138.8411  154.3247 H   0  0  0  0  0  0  0  0  0  0  0  0
  149.5519  139.8276  156.5642 H   0  0  0  0  0  0  0  0  0  0  0  0
  148.4682  137.9677  158.8861 H   0  0  0  0  0  0  0  0  0  0  0  0
  146.3038  135.4444  162.8804 H   0  0  0  0  0  0  0  0  0  0  0  0
  146.8629  134.3111  161.6276 H   0  0  0  0  0  0  0  0  0  0  0  0
  145.2144  134.9751  161.5538 H   0  0  0  0  0  0  0  0  0  0  0  0
  143.8765  133.1417  158.0686 H   0  0  0  0  0  0  0  0  0  0  0  0
  143.7066  132.5569  156.4275 H   0  0  0  0  0  0  0  0  0  0  0  0
  146.7271  134.7176  153.9328 H   0  0  0  0  0  0  0  0  0  0  0  0
  150.3221  136.5125  158.5664 H   0  0  0  0  0  0  0  0  0  0  0  0
  149.4713  133.8918  155.0257 H   0  0  0  0  0  0  0  0  0  0  0  0
  150.2973  132.8776  156.2174 H   0  0  0  0  0  0  0  0  0  0  0  0
  151.1882  133.5144  154.8268 H   0  0  0  0  0  0  0  0  0  0  0  0
  151.1951  137.5471  156.1160 H   0  0  0  0  0  0  0  0  0  0  0  0
  151.3472  140.9220  158.9914 H   0  0  0  0  0  0  0  0  0  0  0  0
  152.4881  141.7383  157.9147 H   0  0  0  0  0  0  0  0  0  0  0  0
  153.0791  140.5700  159.1052 H   0  0  0  0  0  0  0  0  0  0  0  0
  1  2  1  0  0  0  0
  1 33  1  0  0  0  0
  1 34  1  0  0  0  0
  1 35  1  0  0  0  0
  2  3  2  0  0  0  0
  2  4  1  0  0  0  0
  4  5  1  0  0  0  0
  5  6  1  0  0  0  0
  5 36  1  0  0  0  0
  5 37  1  0  0  0  0
  6 28  1  0  0  0  0
  6  7  1  0  0  0  0
  6 38  1  0  0  0  0
  7  8  1  0  0  0  0
  8  9  1  0  0  0  0
  8 23  1  0  0  0  0
  8 39  1  0  0  0  0
  9 22  1  0  0  0  0
  9 10  1  0  0  0  0
 10 11  1  0  0  0  0
 10 15  2  0  0  0  0
 11 12  1  0  0  0  0
 11 13  2  0  0  0  0
 11 14  2  0  0  0  0
 12 40  1  0  0  0  0
 12 41  1  0  0  0  0
 12 42  1  0  0  0  0
 15 16  1  0  0  0  0
 16 22  2  0  0  0  0
 16 17  1  0  0  0  0
 17 18  1  0  0  0  0
 17 19  2  0  0  0  0
 18 43  1  0  0  0  0
 18 44  1  0  0  0  0
 19 20  1  0  0  0  0
 20 21  2  0  0  0  0
 20 45  1  0  0  0  0
 21 22  1  0  0  0  0
 23 24  1  0  0  0  0
 23 28  1  0  0  0  0
 23 46  1  0  0  0  0
 24 25  1  0  0  0  0
 25 26  1  0  0  0  0
 25 27  2  0  0  0  0
 26 47  1  0  0  0  0
 26 48  1  0  0  0  0
 26 49  1  0  0  0  0
 28 29  1  0  0  0  0
 28 50  1  0  0  0  0
 29 30  1  0  0  0  0
 30 31  1  0  0  0  0
 30 32  2  0  0  0  0
 31 51  1  0  0  0  0
 31 52  1  0  0  0  0
 31 53  1  0  0  0  0
M  END
> <s_m_source_file>
AV-unprocessed.smi

> <i_m_source_file_index>
103

> <i_lp_mmshare_version>
43012

> <i_f3d_flags>
0

> <s_epik_input>
W0NIM11DKD1PKU9bQ0gyXVtDQEBIXTFPW0NASF0oW0NAQEhdKE9DKD1PKVtDSDNdKVtDQEhdMU9DKD1PKVtDSDNdKW4oYyhuMilTKD1PKSg9TylbQ0gzXSljKGMyMyluW2NIXW5jM1tOSDJd

> <s_epik_cmdline>
J2VwaWtfcHl0aG9uJywgJy1waCcsICc3LjAnLCAnLXRuJywgJzgnLCAnLW1hJywgJzIwMCcsICctbWV0YWxfYmluZGluZycsICctaW1hZScsICc8aW5maWxlLm1hZT4nLCAnLW9tYWUnLCAnPG91dGZpbGUubWFlPic=

> <r_lp_tautomer_probability>
1

> <r_epik_Ionization_Penalty>
1.51338e-05

> <r_epik_Ionization_Penalty_Charging>
0

> <r_epik_Ionization_Penalty_Neutral>
1.51338e-05

> <r_epik_State_Penalty>
-0

> <r_epik_Charging_Adjusted_Penalty>
0

> <i_epik_Tot_Q>
0

> <i_epik_Tot_abs_Q>
0

> <r_epik_Metal_State_Penalty>
-0

> <b_epik_Metal_Only>
0

> <s_epik_Chemistry_Notes>
This compound has an ester and may undergo hydrolysis at high or low pH. This compound contains an acetal/aminal-like group ( X-CH(R)-Y where X, Y are N, S, or O) that may be acid/base labile, releasing an aldehyde.

> <s_lp_Force_Field>
OPLS_2005

> <r_lp_Energy>
13.7998

> <b_lp_Chiralities_Consistent>
1

> <s_lp_Variant>
AV-unprocessed.smi:103-10

> <Gold.Version>
5.8.1

> <Gold.Id.Protein>
6NUR|6NUR_protein|mol2

> <Gold.PLP.Fitness>
44.6448

> <Gold.PLP.PLP>
-28.9031

> <Gold.PLP.part.hbond>
-7.0000

> <Gold.PLP.part.metal>
0.0000

> <Gold.PLP.part.buried>
-5.3178

> <Gold.PLP.part.nonpolar>
-16.4551

> <Gold.PLP.part.repulsive>
0.4255

> <Gold.PLP.ligand.clash>
0.0000

> <Gold.PLP.ligand.torsion>
2.0952

> <Gold.PLP.Chemscore.Hbond>
5.8216

> <Gold.PLP.Chemscore.CHOScore>
0.0000

> <Gold.PLP.Chemscore.Metal>
0.0000

> <Gold.Chemscore.Hbonds>
donor molecule, donor type, donor heavy atom, donor atom, acceptor molecule, acceptor atom, score
      L1  H    18    44       P1 10957  0.94
      P1  H  6931  6943       L1    13  1.00
      P1  H  6934  6947       L1    14  0.90
      P1  H  7989  7998       L1     3  0.34
      P1  H  7997  8008       L1    32  1.00
      P1  H  8011  8017       L1     3  0.72
      P1  H 10752 10763       L1    27  1.00

> <Gold.PLP.Chemscore.Internal.Correction>
2.4674

> <Gold.Rescore>
     Score         DG    S(hbond)    S(metal)    S(lipo)     H(rot)  DE(clash)    DE(int)     intcor
     11.35     -16.60       5.25        0.00      38.11       4.25       0.07       5.18       ----

> <Gold.Chemscore.Fitness>
11.3515

> <Gold.Chemscore.DG>
-16.6007

> <Gold.Chemscore.ZeroCoef>
-5.4800

> <Gold.Chemscore.Hbond>
5.2486

> <Gold.Chemscore.Metal>
0.0000

> <Gold.Chemscore.Lipo>
38.1104

> <Gold.Chemscore.Internal_Hbond>
0.0000

> <Gold.Chemscore.DEClash>
0.0659

> <Gold.Chemscore.DEInternal>
5.1833

> <Gold.Chemscore.Rot>
4.2456

> <Gold.Chemscore.Internal.Correction>
   9.000000E+99

> <Gold.Chemscore.Hbonds>
donor molecule, donor type, donor heavy atom, donor atom, acceptor molecule, acceptor atom, score
      L1  H    18    44       P1 10957  0.90
      P1  H  6931  6943       L1    13  0.99
      P1  H  6934  6947       L1    14  0.18
      P1  H  7989  7998       L1     3  0.31
      P1  H  7997  8008       L1    32  0.93
      P1  H  8011  8017       L1     3  0.37
      P1  H 10752 10763       L1    27  0.97

> <Gold.Chemscore.Hbond.Weighted>
-17.5304

> <Gold.Chemscore.Metal.Weighted>
-0.0000

> <Gold.Chemscore.Lipo.Weighted>
-4.4589

> <Gold.Chemscore.Internal_Hbond.Weighted>
0.0000

> <Gold.Chemscore.DEClash.Weighted>
0.0659

> <Gold.Chemscore.DEInternal.Weighted>
5.1833

> <Gold.Chemscore.Rot.Weighted>
10.8687

> <Gold.Chemscore.Internal.Correction.Weighted>
   9.000000E+99

> <Gold.Protein.RotatedTorsions>
[ 6907 6896 6895 6894 ] final   65.15 input  -60.11 | X-H torsion
[ 7974 7965 7964 7962 ] final  -10.61 input  175.53 | X-H torsion
[ 8008 7997 7996 7995 ] final  -44.68 input   59.86 | X-H torsion
[ 10167 10162 10161 10158 ] final  137.14 input  -65.29 | X-H torsion
[ 10718 10713 10712 10709 ] final  139.00 input   66.30 | X-H torsion
[ 10763 10752 10751 10750 ] final  109.57 input  -60.55 | X-H torsion
[ 11005 11000 10999 10996 ] final  122.31 input  -57.11 | X-H torsion

> <Gold.Protein.ActiveResidues>
 VAL166  LYS551  ARG553  GLY616  TRP617  ASP618  TYR619  PRO620  LYS621  CYS622 
 ASP623  PHE694  ASN695  SER759  ASP760  ASP761  ALA762  ILE779  LEU786  VAL792 
 PHE793  MET794  SER795  GLU796  ALA797  LYS798  CYS799  TRP800  GLU811  SER814 

> <Gold.Protein.RotatedAtoms>
  152.4386  134.5637  159.9901 H   0  0  0  0  0  0  0  0  0  0  0  0  # atno 6907 bound_to 6896
  151.5741  133.3380  159.3003 H   0  0  0  0  0  0  0  0  0  0  0  0  # atno 6908 bound_to 6896
  150.8288  134.7566  159.6900 H   0  0  0  0  0  0  0  0  0  0  0  0  # atno 6909 bound_to 6896
  146.2215  140.2790  142.8361 H   0  0  0  0  0  0  0  0  0  0  0  0  # atno 7974 bound_to 7965
  154.3998  140.1416  156.3722 H   0  0  0  0  0  0  0  0  0  0  0  0  # atno 8008 bound_to 7997
  155.8082  140.3473  155.5421 H   0  0  0  0  0  0  0  0  0  0  0  0  # atno 8009 bound_to 7997
  155.8414  140.0927  157.1722 H   0  0  0  0  0  0  0  0  0  0  0  0  # atno 8010 bound_to 7997
  139.5155  144.6426  151.5528 H   0  0  0  0  0  0  0  0  0  0  0  0  # atno 10167 bound_to 10162
  157.4192  131.1037  151.0372 H   0  0  0  0  0  0  0  0  0  0  0  0  # atno 10718 bound_to 10713
  153.4365  135.3776  155.2202 H   0  0  0  0  0  0  0  0  0  0  0  0  # atno 10763 bound_to 10752
  154.8752  135.3852  154.4204 H   0  0  0  0  0  0  0  0  0  0  0  0  # atno 10764 bound_to 10752
  153.4744  135.7087  153.6038 H   0  0  0  0  0  0  0  0  0  0  0  0  # atno 10765 bound_to 10752
  139.9263  134.9641  156.8090 H   0  0  0  0  0  0  0  0  0  0  0  0  # atno 11005 bound_to 11000
  144.9211  140.7869  143.5747 LP  0  0  0  0  0  0  0  0  0  0  0  0  # atno 17320 bound_to 7965
  145.2726  139.1948  143.4833 LP  0  0  0  0  0  0  0  0  0  0  0  0  # atno 17321 bound_to 7965
  140.6198  143.9279  150.6517 LP  0  0  0  0  0  0  0  0  0  0  0  0  # atno 17342 bound_to 10162
  140.2549  143.3566  152.1373 LP  0  0  0  0  0  0  0  0  0  0  0  0  # atno 17343 bound_to 10162
  157.1308  130.6101  149.5529 LP  0  0  0  0  0  0  0  0  0  0  0  0  # atno 17370 bound_to 10713
  155.9875  130.4914  150.7128 LP  0  0  0  0  0  0  0  0  0  0  0  0  # atno 17371 bound_to 10713
  140.6327  133.9891  155.7669 LP  0  0  0  0  0  0  0  0  0  0  0  0  # atno 17394 bound_to 11000
  141.0822  134.0044  157.3368 LP  0  0  0  0  0  0  0  0  0  0  0  0  # atno 17395 bound_to 11000

$$$$
