AV-unprocessed.smi:2083|AV-procd|sdf|8490|dock8
  -GOLD-   2272011193D 1   1.00000     0.00000
 Structure written by MMmdl.
 45 46  0  0  0  0  0  0  0  0  2 V2000
  150.8583  141.7527  158.0009 C   0  0  0  0  0  0  0  0  0  0  0  0
  150.7002  140.7819  156.8813 C   0  0  0  0  0  0  0  0  0  0  0  0
  150.0007  139.6150  156.7540 C   0  0  0  0  0  0  0  0  0  0  0  0
  150.2998  139.2062  155.4274 C   0  0  0  0  0  0  0  0  0  0  0  0
  149.7583  138.0078  154.8966 N   0  0  0  0  0  0  0  0  0  0  0  0
  149.2616  136.9617  155.5779 C   0  0  0  0  0  0  0  0  0  0  0  0
  149.2134  136.8693  156.8049 O   0  0  0  0  0  0  0  0  0  0  0  0
  148.8170  136.0064  154.7486 N   0  0  0  0  0  0  0  0  0  0  0  0
  148.2065  134.7495  155.1726 C   0  0  0  0  0  0  0  0  0  0  0  0
  148.0827  133.7096  154.0228 C   0  0  2  0  0  0  0  0  0  0  0  0
  149.4859  133.2747  153.5422 C   0  0  0  0  0  0  0  0  0  0  0  0
  147.2662  134.1768  152.8533 N   0  3  1  0  0  0  0  0  0  0  0  0
  146.9430  133.0620  151.9174 C   0  0  0  0  0  0  0  0  0  0  0  0
  146.2909  133.5778  150.6266 C   0  0  0  0  0  0  0  0  0  0  0  0
  145.0161  134.3641  150.9440 C   0  0  0  0  0  0  0  0  0  0  0  0
  145.3379  135.5038  151.9210 C   0  0  1  0  0  0  0  0  0  0  0  0
  144.0783  136.3057  152.2794 C   0  0  0  0  0  0  0  0  0  0  0  0
  146.0375  134.9586  153.1838 C   0  0  0  0  0  0  0  0  0  0  0  0
  151.1062  140.0483  154.7999 N   0  0  0  0  0  0  0  0  0  0  0  0
  151.3675  141.0625  155.7290 O   0  0  0  0  0  0  0  0  0  0  0  0
  150.1822  141.5134  158.8220 H   0  0  0  0  0  0  0  0  0  0  0  0
  150.6398  142.7675  157.6682 H   0  0  0  0  0  0  0  0  0  0  0  0
  151.8778  141.7341  158.3860 H   0  0  0  0  0  0  0  0  0  0  0  0
  149.3782  139.1337  157.4936 H   0  0  0  0  0  0  0  0  0  0  0  0
  149.7382  137.9458  153.8895 H   0  0  0  0  0  0  0  0  0  0  0  0
  148.8944  136.1638  153.7541 H   0  0  0  0  0  0  0  0  0  0  0  0
  148.8058  134.3619  155.9978 H   0  0  0  0  0  0  0  0  0  0  0  0
  147.2206  134.9805  155.5777 H   0  0  0  0  0  0  0  0  0  0  0  0
  147.5790  132.8353  154.4383 H   0  0  0  0  0  0  0  0  0  0  0  0
  150.0829  132.8639  154.3563 H   0  0  0  0  0  0  0  0  0  0  0  0
  150.0363  134.1187  153.1256 H   0  0  0  0  0  0  0  0  0  0  0  0
  149.4471  132.5003  152.7782 H   0  0  0  0  0  0  0  0  0  0  0  0
  147.8383  132.5041  151.6488 H   0  0  0  0  0  0  0  0  0  0  0  0
  146.2753  132.3548  152.4127 H   0  0  0  0  0  0  0  0  0  0  0  0
  146.9940  134.2125  150.0855 H   0  0  0  0  0  0  0  0  0  0  0  0
  146.0571  132.7417  149.9668 H   0  0  0  0  0  0  0  0  0  0  0  0
  144.5851  134.7613  150.0242 H   0  0  0  0  0  0  0  0  0  0  0  0
  144.2697  133.6973  151.3783 H   0  0  0  0  0  0  0  0  0  0  0  0
  146.0290  136.1865  151.4236 H   0  0  0  0  0  0  0  0  0  0  0  0
  143.3430  135.6823  152.7892 H   0  0  0  0  0  0  0  0  0  0  0  0
  143.6055  136.7148  151.3860 H   0  0  0  0  0  0  0  0  0  0  0  0
  144.3176  137.1426  152.9361 H   0  0  0  0  0  0  0  0  0  0  0  0
  145.3532  134.3350  153.7617 H   0  0  0  0  0  0  0  0  0  0  0  0
  146.2897  135.8223  153.7976 H   0  0  0  0  0  0  0  0  0  0  0  0
  147.8598  134.8173  152.3461 H   0  0  0  0  0  0  0  0  0  0  0  0
  1  2  1  0  0  0  0
  1 21  1  0  0  0  0
  1 22  1  0  0  0  0
  1 23  1  0  0  0  0
  2 20  1  0  0  0  0
  2  3  2  0  0  0  0
  3  4  1  0  0  0  0
  3 24  1  0  0  0  0
  4  5  1  0  0  0  0
  4 19  2  0  0  0  0
  5  6  1  0  0  0  0
  5 25  1  0  0  0  0
  6  7  2  0  0  0  0
  6  8  1  0  0  0  0
  8  9  1  0  0  0  0
  8 26  1  0  0  0  0
  9 10  1  0  0  0  0
  9 27  1  0  0  0  0
  9 28  1  0  0  0  0
 10 11  1  0  0  0  0
 10 12  1  0  0  0  0
 10 29  1  0  0  0  0
 11 30  1  0  0  0  0
 11 31  1  0  0  0  0
 11 32  1  0  0  0  0
 12 18  1  0  0  0  0
 12 13  1  0  0  0  0
 12 45  1  0  0  0  0
 13 14  1  0  0  0  0
 13 33  1  0  0  0  0
 13 34  1  0  0  0  0
 14 15  1  0  0  0  0
 14 35  1  0  0  0  0
 14 36  1  0  0  0  0
 15 16  1  0  0  0  0
 15 37  1  0  0  0  0
 15 38  1  0  0  0  0
 16 17  1  0  0  0  0
 16 18  1  0  0  0  0
 16 39  1  0  0  0  0
 17 40  1  0  0  0  0
 17 41  1  0  0  0  0
 17 42  1  0  0  0  0
 18 43  1  0  0  0  0
 18 44  1  0  0  0  0
 19 20  1  0  0  0  0
M  CHG  1  12   1
M  END
> <s_m_source_file>
AV-unprocessed.smi

> <i_m_source_file_index>
2083

> <i_lp_mmshare_version>
43012

> <i_f3d_flags>
0

> <s_epik_input>
W0NIM11jMVtjSF1jKG5vMSlbTkhdQyg9TylbTkhdW0NIMl1bQ0BIXShbQ0gzXSlOMltDSDJdW0NIMl1bQ0gyXVtDQEBIXShbQ0gzXSlbQ0gyXTI=

> <s_epik_cmdline>
J2VwaWtfcHl0aG9uJywgJy1waCcsICc3LjAnLCAnLXRuJywgJzgnLCAnLW1hJywgJzIwMCcsICctbWV0YWxfYmluZGluZycsICctaW1hZScsICc8aW5maWxlLm1hZT4nLCAnLW9tYWUnLCAnPG91dGZpbGUubWFlPic=

> <r_epik_Ionization_Penalty>
0.00216453

> <r_epik_Ionization_Penalty_Charging>
0.00212879

> <r_epik_Ionization_Penalty_Neutral>
3.57418e-05

> <r_epik_State_Penalty>
0.00146033

> <r_epik_Charging_Adjusted_Penalty>
0.00358912

> <i_epik_Tot_Q>
1

> <i_epik_Tot_abs_Q>
1

> <r_epik_Metal_State_Penalty>
0.0215827

> <b_epik_Metal_Only>
0

> <s_lp_Force_Field>
OPLS_2005

> <r_lp_Energy>
19.0311

> <b_lp_Chiralities_Consistent>
1

> <s_lp_Variant>
AV-unprocessed.smi:2083-1

> <Gold.Version>
5.8.1

> <Gold.Id.Protein>
6NUR|6NUR_protein|mol2

> <Gold.PLP.Fitness>
38.3795

> <Gold.PLP.PLP>
-27.5080

> <Gold.PLP.part.hbond>
-4.0000

> <Gold.PLP.part.metal>
0.0000

> <Gold.PLP.part.buried>
-3.8802

> <Gold.PLP.part.nonpolar>
-18.9441

> <Gold.PLP.part.repulsive>
0.1143

> <Gold.PLP.ligand.clash>
0.0000

> <Gold.PLP.ligand.torsion>
0.3697

> <Gold.PLP.Chemscore.Hbond>
3.8500

> <Gold.PLP.Chemscore.CHOScore>
0.0000

> <Gold.PLP.Chemscore.Metal>
0.0000

> <Gold.Chemscore.Hbonds>
donor molecule, donor type, donor heavy atom, donor atom, acceptor molecule, acceptor atom, score
      L1  H     8    26       P1  7948  1.00
      L1  H    12    45       P1  7948  2.00
      P1  H  7989  7998       L1    19  0.80

> <Gold.PLP.Chemscore.Internal.Correction>
0.0609

> <Gold.Rescore>
     Score         DG    S(hbond)    S(metal)    S(lipo)     H(rot)  DE(clash)    DE(int)     intcor
     15.00     -16.72       2.54        0.00      57.31       1.55       0.11       1.61       ----

> <Gold.Chemscore.Fitness>
15.0002

> <Gold.Chemscore.DG>
-16.7234

> <Gold.Chemscore.ZeroCoef>
-5.4800

> <Gold.Chemscore.Hbond>
2.5446

> <Gold.Chemscore.Metal>
0.0000

> <Gold.Chemscore.Lipo>
57.3139

> <Gold.Chemscore.Internal_Hbond>
0.0000

> <Gold.Chemscore.DEClash>
0.1086

> <Gold.Chemscore.DEInternal>
1.6146

> <Gold.Chemscore.Rot>
1.5474

> <Gold.Chemscore.Internal.Correction>
   9.000000E+99

> <Gold.Chemscore.Hbonds>
donor molecule, donor type, donor heavy atom, donor atom, acceptor molecule, acceptor atom, score
      L1  H     8    26       P1  7948  0.99
      L1  H    12    45       P1  7948  0.74
      P1  H  7989  7998       L1    19  0.12

> <Gold.Chemscore.Hbond.Weighted>
-8.4989

> <Gold.Chemscore.Metal.Weighted>
-0.0000

> <Gold.Chemscore.Lipo.Weighted>
-6.7057

> <Gold.Chemscore.Internal_Hbond.Weighted>
0.0000

> <Gold.Chemscore.DEClash.Weighted>
0.1086

> <Gold.Chemscore.DEInternal.Weighted>
1.6146

> <Gold.Chemscore.Rot.Weighted>
3.9612

> <Gold.Chemscore.Internal.Correction.Weighted>
   9.000000E+99

> <Gold.Protein.RotatedTorsions>
[ 6907 6896 6895 6894 ] final -101.87 input  -60.11 | X-H torsion
[ 7974 7965 7964 7962 ] final  -44.94 input  175.53 | X-H torsion
[ 8008 7997 7996 7995 ] final  148.48 input   59.86 | X-H torsion
[ 10167 10162 10161 10158 ] final  120.87 input  -65.29 | X-H torsion
[ 10718 10713 10712 10709 ] final   19.22 input   66.30 | X-H torsion
[ 10763 10752 10751 10750 ] final -147.17 input  -60.55 | X-H torsion
[ 11005 11000 10999 10996 ] final   -5.36 input  -57.11 | X-H torsion

> <Gold.Protein.ActiveResidues>
 VAL166  LYS551  ARG553  GLY616  TRP617  ASP618  TYR619  PRO620  LYS621  CYS622 
 ASP623  PHE694  ASN695  SER759  ASP760  ASP761  ALA762  ILE779  LEU786  VAL792 
 PHE793  MET794  SER795  GLU796  ALA797  LYS798  CYS799  TRP800  GLU811  SER814 

> <Gold.Protein.RotatedAtoms>
  150.7172  134.0668  159.3850 H   0  0  0  0  0  0  0  0  0  0  0  0  # atno 6907 bound_to 6896
  151.8649  135.0508  160.0482 H   0  0  0  0  0  0  0  0  0  0  0  0  # atno 6908 bound_to 6896
  152.2688  133.5328  159.5463 H   0  0  0  0  0  0  0  0  0  0  0  0  # atno 6909 bound_to 6896
  145.9870  140.7222  142.9335 H   0  0  0  0  0  0  0  0  0  0  0  0  # atno 7974 bound_to 7965
  156.2790  140.2127  156.5704 H   0  0  0  0  0  0  0  0  0  0  0  0  # atno 8008 bound_to 7997
  154.7140  140.0509  157.0600 H   0  0  0  0  0  0  0  0  0  0  0  0  # atno 8009 bound_to 7997
  155.0567  140.3162  155.4677 H   0  0  0  0  0  0  0  0  0  0  0  0  # atno 8010 bound_to 7997
  139.5955  144.7040  151.3188 H   0  0  0  0  0  0  0  0  0  0  0  0  # atno 10167 bound_to 10162
  157.1073  130.6494  149.5888 H   0  0  0  0  0  0  0  0  0  0  0  0  # atno 10718 bound_to 10713
  154.8299  135.3367  154.6776 H   0  0  0  0  0  0  0  0  0  0  0  0  # atno 10763 bound_to 10752
  153.7397  135.6946  153.4974 H   0  0  0  0  0  0  0  0  0  0  0  0  # atno 10764 bound_to 10752
  153.2252  135.4435  155.0486 H   0  0  0  0  0  0  0  0  0  0  0  0  # atno 10765 bound_to 10752
  140.6903  133.9077  155.8613 H   0  0  0  0  0  0  0  0  0  0  0  0  # atno 11005 bound_to 11000
  144.6877  140.3005  143.7264 LP  0  0  0  0  0  0  0  0  0  0  0  0  # atno 17320 bound_to 7965
  145.7686  139.1849  143.2225 LP  0  0  0  0  0  0  0  0  0  0  0  0  # atno 17321 bound_to 7965
  140.7208  143.7141  150.7746 LP  0  0  0  0  0  0  0  0  0  0  0  0  # atno 17342 bound_to 10162
  140.0706  143.5064  152.2581 LP  0  0  0  0  0  0  0  0  0  0  0  0  # atno 17343 bound_to 10162
  155.9859  130.4891  150.7052 LP  0  0  0  0  0  0  0  0  0  0  0  0  # atno 17370 bound_to 10713
  157.4589  131.0881  151.0767 LP  0  0  0  0  0  0  0  0  0  0  0  0  # atno 17371 bound_to 10713
  141.0247  134.0840  157.4082 LP  0  0  0  0  0  0  0  0  0  0  0  0  # atno 17394 bound_to 11000
  139.8925  135.0125  156.6852 LP  0  0  0  0  0  0  0  0  0  0  0  0  # atno 17395 bound_to 11000

$$$$
