AV-unprocessed.smi:765|AV-procd|sdf|3646|dock7
  -GOLD-   22720 1 53D 1   1.00000     0.00000
 Structure written by MMmdl.
 39 40  0  0  0  0  0  0  0  0  1 V2000
  152.7888  139.2301  154.9781 C   0  0  0  0  0  0  0  0  0  0  0  0
  151.8527  139.5325  156.1568 C   0  0  1  0  0  0  0  0  0  0  0  0
  150.3783  139.5436  155.7140 C   0  0  0  0  0  0  0  0  0  0  0  0
  149.4331  139.8141  156.8932 C   0  0  0  0  0  0  0  0  0  0  0  0
  149.6619  138.7987  158.0262 C   0  0  0  0  0  0  0  0  0  0  0  0
  151.1305  138.7830  158.5186 C   0  0  2  0  0  0  0  0  0  0  0  0
  151.3204  137.6941  159.4954 C   0  0  0  0  0  0  0  0  0  0  0  0
  151.4710  136.8402  160.2616 N   0  0  0  0  0  0  0  0  0  0  0  0
  151.4917  140.0743  159.1096 N   0  0  0  0  0  0  0  0  0  0  0  0
  152.6926  140.4486  159.5808 C   0  0  0  0  0  0  0  0  0  0  0  0
  153.7045  139.7536  159.4869 O   0  0  0  0  0  0  0  0  0  0  0  0
  152.7303  141.8086  160.2941 C   0  0  2  0  0  0  0  0  0  0  0  0
  152.1266  141.7681  161.7109 C   0  0  0  0  0  0  0  0  0  0  0  0
  152.0713  142.8143  159.4696 N   0  0  0  0  0  0  0  0  0  0  0  0
  151.9257  144.1679  159.7059 C   0  0  0  0  0  0  0  0  0  0  0  0
  151.2070  144.6897  158.6692 C   0  0  0  0  0  0  0  0  0  0  0  0
  150.9528  143.5653  157.8358 C   0  0  0  0  0  0  0  0  0  0  0  0
  151.4672  142.4456  158.3182 N   0  0  0  0  0  0  0  0  0  0  0  0
  152.0627  138.5288  157.3121 C   0  0  0  0  0  0  0  0  0  0  0  0
  152.5969  138.2402  154.5625 H   0  0  0  0  0  0  0  0  0  0  0  0
  153.8336  139.2639  155.2879 H   0  0  0  0  0  0  0  0  0  0  0  0
  152.6596  139.9579  154.1766 H   0  0  0  0  0  0  0  0  0  0  0  0
  152.1017  140.5314  156.5179 H   0  0  0  0  0  0  0  0  0  0  0  0
  150.2255  140.3006  154.9437 H   0  0  0  0  0  0  0  0  0  0  0  0
  150.1232  138.5857  155.2589 H   0  0  0  0  0  0  0  0  0  0  0  0
  149.5856  140.8285  157.2631 H   0  0  0  0  0  0  0  0  0  0  0  0
  148.3976  139.7647  156.5557 H   0  0  0  0  0  0  0  0  0  0  0  0
  148.9783  139.0065  158.8497 H   0  0  0  0  0  0  0  0  0  0  0  0
  149.3942  137.8042  157.6666 H   0  0  0  0  0  0  0  0  0  0  0  0
  150.7314  140.7273  159.2337 H   0  0  0  0  0  0  0  0  0  0  0  0
  153.7812  142.0869  160.3949 H   0  0  0  0  0  0  0  0  0  0  0  0
  152.6483  141.0474  162.3416 H   0  0  0  0  0  0  0  0  0  0  0  0
  151.0708  141.4949  161.6956 H   0  0  0  0  0  0  0  0  0  0  0  0
  152.2075  142.7421  162.1942 H   0  0  0  0  0  0  0  0  0  0  0  0
  152.3362  144.6400  160.5866 H   0  0  0  0  0  0  0  0  0  0  0  0
  150.9067  145.7174  158.5290 H   0  0  0  0  0  0  0  0  0  0  0  0
  150.4106  143.5293  156.9024 H   0  0  0  0  0  0  0  0  0  0  0  0
  151.8944  137.5175  156.9386 H   0  0  0  0  0  0  0  0  0  0  0  0
  153.1032  138.5567  157.6396 H   0  0  0  0  0  0  0  0  0  0  0  0
  1  2  1  0  0  0  0
  1 20  1  0  0  0  0
  1 21  1  0  0  0  0
  1 22  1  0  0  0  0
  2 19  1  0  0  0  0
  2  3  1  0  0  0  0
  2 23  1  0  0  0  0
  3  4  1  0  0  0  0
  3 24  1  0  0  0  0
  3 25  1  0  0  0  0
  4  5  1  0  0  0  0
  4 26  1  0  0  0  0
  4 27  1  0  0  0  0
  5  6  1  0  0  0  0
  5 28  1  0  0  0  0
  5 29  1  0  0  0  0
  6  7  1  0  0  0  0
  6  9  1  0  0  0  0
  6 19  1  0  0  0  0
  7  8  3  0  0  0  0
  9 10  1  0  0  0  0
  9 30  1  0  0  0  0
 10 11  2  0  0  0  0
 10 12  1  0  0  0  0
 12 13  1  0  0  0  0
 12 14  1  0  0  0  0
 12 31  1  0  0  0  0
 13 32  1  0  0  0  0
 13 33  1  0  0  0  0
 13 34  1  0  0  0  0
 14 18  1  0  0  0  0
 14 15  1  0  0  0  0
 15 16  2  0  0  0  0
 15 35  1  0  0  0  0
 16 17  1  0  0  0  0
 16 36  1  0  0  0  0
 17 18  2  0  0  0  0
 17 37  1  0  0  0  0
 19 38  1  0  0  0  0
 19 39  1  0  0  0  0
M  END
> <s_m_source_file>
AV-unprocessed.smi

> <i_m_source_file_index>
765

> <i_lp_mmshare_version>
43012

> <i_f3d_flags>
0

> <s_epik_input>
W0NIM11bQ0BASF0oW0NIMl0xKVtDSDJdW0NIMl1bQ0gyXVtDQEBdMShDI04pW05IXUMoPU8pW0NASF0oW0NIM10pbjJbY0hdW2NIXVtjSF1uMg==

> <s_epik_cmdline>
J2VwaWtfcHl0aG9uJywgJy1waCcsICc3LjAnLCAnLXRuJywgJzgnLCAnLW1hJywgJzIwMCcsICctbWV0YWxfYmluZGluZycsICctaW1hZScsICc8aW5maWxlLm1hZT4nLCAnLW9tYWUnLCAnPG91dGZpbGUubWFlPic=

> <r_lp_tautomer_probability>
1

> <r_epik_Ionization_Penalty>
2.71142e-05

> <r_epik_Ionization_Penalty_Charging>
0

> <r_epik_Ionization_Penalty_Neutral>
2.71142e-05

> <r_epik_State_Penalty>
-0

> <r_epik_Charging_Adjusted_Penalty>
0

> <i_epik_Tot_Q>
0

> <i_epik_Tot_abs_Q>
0

> <r_epik_Metal_State_Penalty>
-0

> <b_epik_Metal_Only>
0

> <s_lp_Force_Field>
OPLS_2005

> <r_lp_Energy>
10.6921

> <b_lp_Chiralities_Consistent>
1

> <s_lp_Variant>
AV-unprocessed.smi:765-4

> <Gold.Version>
5.8.1

> <Gold.Id.Protein>
6NUR|6NUR_protein|mol2

> <Gold.PLP.Fitness>
47.1408

> <Gold.PLP.PLP>
-38.8047

> <Gold.PLP.part.hbond>
-2.0000

> <Gold.PLP.part.metal>
0.0000

> <Gold.PLP.part.buried>
-1.9552

> <Gold.PLP.part.nonpolar>
-34.6449

> <Gold.PLP.part.repulsive>
0.1574

> <Gold.PLP.ligand.clash>
0.0000

> <Gold.PLP.ligand.torsion>
0.3674

> <Gold.PLP.Chemscore.Hbond>
2.0000

> <Gold.PLP.Chemscore.CHOScore>
1.0000

> <Gold.PLP.Chemscore.Metal>
0.0000

> <Gold.Chemscore.Hbonds>
donor molecule, donor type, donor heavy atom, donor atom, acceptor molecule, acceptor atom, score
      P1  H  6896  6909       L1     8  1.00
      L1  C    17    37       P1  8028  1.00

> <Gold.PLP.Chemscore.Internal.Correction>
0.0710

> <Gold.Rescore>
     Score         DG    S(hbond)    S(metal)    S(lipo)     H(rot)  DE(clash)    DE(int)     intcor
     14.68     -18.70       1.92        0.00      89.36       1.42       0.03       3.99       ----

> <Gold.Chemscore.Fitness>
14.6808

> <Gold.Chemscore.DG>
-18.7040

> <Gold.Chemscore.ZeroCoef>
-5.4800

> <Gold.Chemscore.Hbond>
1.9162

> <Gold.Chemscore.Metal>
0.0000

> <Gold.Chemscore.Lipo>
89.3567

> <Gold.Chemscore.Internal_Hbond>
0.0000

> <Gold.Chemscore.DEClash>
0.0310

> <Gold.Chemscore.DEInternal>
3.9923

> <Gold.Chemscore.Rot>
1.4183

> <Gold.Chemscore.Internal.Correction>
   9.000000E+99

> <Gold.Chemscore.Hbonds>
donor molecule, donor type, donor heavy atom, donor atom, acceptor molecule, acceptor atom, score
      P1  H  6896  6909       L1     8  1.00

> <Gold.Chemscore.Hbond.Weighted>
-6.4002

> <Gold.Chemscore.Metal.Weighted>
-0.0000

> <Gold.Chemscore.Lipo.Weighted>
-10.4547

> <Gold.Chemscore.Internal_Hbond.Weighted>
0.0000

> <Gold.Chemscore.DEClash.Weighted>
0.0310

> <Gold.Chemscore.DEInternal.Weighted>
3.9923

> <Gold.Chemscore.Rot.Weighted>
3.6309

> <Gold.Chemscore.Internal.Correction.Weighted>
   9.000000E+99

> <Gold.Protein.RotatedTorsions>
[ 6907 6896 6895 6894 ] final  121.41 input  -60.11 | X-H torsion
[ 7974 7965 7964 7962 ] final -107.10 input  175.53 | X-H torsion
[ 8008 7997 7996 7995 ] final  117.40 input   59.86 | X-H torsion
[ 10167 10162 10161 10158 ] final -107.26 input  -65.29 | X-H torsion
[ 10718 10713 10712 10709 ] final   92.33 input   66.30 | X-H torsion
[ 10763 10752 10751 10750 ] final  107.43 input  -60.55 | X-H torsion
[ 11005 11000 10999 10996 ] final -122.01 input  -57.11 | X-H torsion

> <Gold.Protein.ActiveResidues>
 VAL166  LYS551  ARG553  GLY616  TRP617  ASP618  TYR619  PRO620  LYS621  CYS622 
 ASP623  PHE694  ASN695  SER759  ASP760  ASP761  ALA762  ILE779  LEU786  VAL792 
 PHE793  MET794  SER795  GLU796  ALA797  LYS798  CYS799  TRP800  GLU811  SER814 

> <Gold.Protein.RotatedAtoms>
  152.4324  133.7301  159.6582 H   0  0  0  0  0  0  0  0  0  0  0  0  # atno 6907 bound_to 6896
  150.8204  133.8251  159.3147 H   0  0  0  0  0  0  0  0  0  0  0  0  # atno 6908 bound_to 6896
  151.5935  135.1054  160.0096 H   0  0  0  0  0  0  0  0  0  0  0  0  # atno 6909 bound_to 6896
  145.2095  140.9090  143.3323 H   0  0  0  0  0  0  0  0  0  0  0  0  # atno 7974 bound_to 7965
  156.2492  140.2897  156.0673 H   0  0  0  0  0  0  0  0  0  0  0  0  # atno 8008 bound_to 7997
  155.1710  140.0402  157.2880 H   0  0  0  0  0  0  0  0  0  0  0  0  # atno 8009 bound_to 7997
  154.6326  140.2503  155.7423 H   0  0  0  0  0  0  0  0  0  0  0  0  # atno 8010 bound_to 7997
  140.1789  143.3982  152.1297 H   0  0  0  0  0  0  0  0  0  0  0  0  # atno 10167 bound_to 10162
  157.6959  131.0439  150.3865 H   0  0  0  0  0  0  0  0  0  0  0  0  # atno 10718 bound_to 10713
  153.4066  135.3845  155.2023 H   0  0  0  0  0  0  0  0  0  0  0  0  # atno 10763 bound_to 10752
  154.8734  135.3784  154.4553 H   0  0  0  0  0  0  0  0  0  0  0  0  # atno 10764 bound_to 10752
  153.5056  135.7088  153.5870 H   0  0  0  0  0  0  0  0  0  0  0  0  # atno 10765 bound_to 10752
  141.0027  134.0379  157.3516 H   0  0  0  0  0  0  0  0  0  0  0  0  # atno 11005 bound_to 11000
  144.9870  139.3727  143.6234 LP  0  0  0  0  0  0  0  0  0  0  0  0  # atno 17320 bound_to 7965
  146.3400  139.9035  142.8791 LP  0  0  0  0  0  0  0  0  0  0  0  0  # atno 17321 bound_to 7965
  139.5305  144.7153  151.5074 LP  0  0  0  0  0  0  0  0  0  0  0  0  # atno 17342 bound_to 10162
  140.6533  143.8652  150.6808 LP  0  0  0  0  0  0  0  0  0  0  0  0  # atno 17343 bound_to 10162
  156.4273  130.3965  149.6784 LP  0  0  0  0  0  0  0  0  0  0  0  0  # atno 17370 bound_to 10713
  156.4014  130.7677  151.2684 LP  0  0  0  0  0  0  0  0  0  0  0  0  # atno 17371 bound_to 10713
  139.9047  135.0176  156.7432 LP  0  0  0  0  0  0  0  0  0  0  0  0  # atno 17394 bound_to 11000
  140.6862  133.9430  155.7939 LP  0  0  0  0  0  0  0  0  0  0  0  0  # atno 17395 bound_to 11000

$$$$
