AV-unprocessed.smi:1824|AV-procd|sdf|7410|dock1
  -GOLD-   22720 9 83D 1   1.00000     0.00000
 Structure written by MMmdl.
 45 47  0  0  0  0  0  0  0  0  2 V2000
  151.8513  144.9793  159.5984 C   0  0  0  0  0  0  0  0  0  0  0  0
  152.4274  143.5958  159.2782 C   0  0  2  0  0  0  0  0  0  0  0  0
  151.3743  142.6531  158.6653 C   0  0  0  0  0  0  0  0  0  0  0  0
  151.9068  141.3156  158.4327 N   0  0  0  0  0  0  0  0  0  0  0  0
  150.8939  140.4446  157.8348 C   0  0  0  0  0  0  0  0  0  0  0  0
  150.2265  140.9923  156.5583 C   0  0  1  0  0  0  0  0  0  0  0  0
  151.0800  140.7231  155.4650 O   0  0  0  0  0  0  0  0  0  0  0  0
  148.8493  140.3523  156.2904 C   0  0  0  0  0  0  0  0  0  0  0  0
  148.1299  140.9951  155.1840 N   0  0  0  0  0  0  0  0  0  0  0  0
  148.3412  140.9269  153.8414 C   0  0  0  0  0  0  0  0  0  0  0  0
  147.3999  141.7054  153.2386 N   0  3  0  0  0  0  0  0  0  0  0  0
  146.5733  142.2753  154.2103 C   0  0  0  0  0  0  0  0  0  0  0  0
  145.4829  143.1314  154.0946 C   0  0  0  0  0  0  0  0  0  0  0  0
  144.8552  143.5270  155.2946 C   0  0  0  0  0  0  0  0  0  0  0  0
  143.7886  144.3591  155.2390 F   0  0  0  0  0  0  0  0  0  0  0  0
  145.3160  143.0727  156.5489 C   0  0  0  0  0  0  0  0  0  0  0  0
  144.6841  143.4757  157.6766 F   0  0  0  0  0  0  0  0  0  0  0  0
  146.4233  142.2054  156.6535 C   0  0  0  0  0  0  0  0  0  0  0  0
  147.0364  141.8207  155.4623 C   0  0  0  0  0  0  0  0  0  0  0  0
  152.4321  140.7925  159.6917 C   0  0  0  0  0  0  0  0  0  0  0  0
  153.4884  141.7299  160.3074 C   0  0  2  0  0  0  0  0  0  0  0  0
  153.9873  141.2278  161.6663 C   0  0  0  0  0  0  0  0  0  0  0  0
  152.9165  143.0222  160.4876 O   0  0  0  0  0  0  0  0  0  0  0  0
  151.4740  145.4651  158.6981 H   0  0  0  0  0  0  0  0  0  0  0  0
  152.6137  145.6274  160.0310 H   0  0  0  0  0  0  0  0  0  0  0  0
  151.0292  144.9095  160.3113 H   0  0  0  0  0  0  0  0  0  0  0  0
  153.2595  143.7155  158.5823 H   0  0  0  0  0  0  0  0  0  0  0  0
  150.5094  142.5948  159.3283 H   0  0  0  0  0  0  0  0  0  0  0  0
  151.0176  143.0762  157.7254 H   0  0  0  0  0  0  0  0  0  0  0  0
  151.3380  139.4706  157.6217 H   0  0  0  0  0  0  0  0  0  0  0  0
  150.1082  140.2580  158.5686 H   0  0  0  0  0  0  0  0  0  0  0  0
  150.1310  142.0757  156.6196 H   0  0  0  0  0  0  0  0  0  0  0  0
  151.7084  140.0691  155.7294 H   0  0  0  0  0  0  0  0  0  0  0  0
  148.9612  139.2956  156.0429 H   0  0  0  0  0  0  0  0  0  0  0  0
  148.2155  140.3947  157.1771 H   0  0  0  0  0  0  0  0  0  0  0  0
  149.1163  140.3601  153.3451 H   0  0  0  0  0  0  0  0  0  0  0  0
  145.1261  143.4810  153.1372 H   0  0  0  0  0  0  0  0  0  0  0  0
  146.7687  141.8630  157.6177 H   0  0  0  0  0  0  0  0  0  0  0  0
  151.6149  140.6478  160.4002 H   0  0  0  0  0  0  0  0  0  0  0  0
  152.8878  139.8157  159.5364 H   0  0  0  0  0  0  0  0  0  0  0  0
  154.3409  141.8121  159.6307 H   0  0  0  0  0  0  0  0  0  0  0  0
  154.4456  140.2428  161.5763 H   0  0  0  0  0  0  0  0  0  0  0  0
  153.1697  141.1531  162.3837 H   0  0  0  0  0  0  0  0  0  0  0  0
  154.7340  141.9049  162.0815 H   0  0  0  0  0  0  0  0  0  0  0  0
  147.3287  141.8347  152.2372 H   0  0  0  0  0  0  0  0  0  0  0  0
  1  2  1  0  0  0  0
  1 24  1  0  0  0  0
  1 25  1  0  0  0  0
  1 26  1  0  0  0  0
  2 23  1  0  0  0  0
  2  3  1  0  0  0  0
  2 27  1  0  0  0  0
  3  4  1  0  0  0  0
  3 28  1  0  0  0  0
  3 29  1  0  0  0  0
  4  5  1  0  0  0  0
  4 20  1  0  0  0  0
  5  6  1  0  0  0  0
  5 30  1  0  0  0  0
  5 31  1  0  0  0  0
  6  7  1  0  0  0  0
  6  8  1  0  0  0  0
  6 32  1  0  0  0  0
  7 33  1  0  0  0  0
  8  9  1  0  0  0  0
  8 34  1  0  0  0  0
  8 35  1  0  0  0  0
  9 19  1  0  0  0  0
  9 10  1  0  0  0  0
 10 11  2  0  0  0  0
 10 36  1  0  0  0  0
 11 12  1  0  0  0  0
 11 45  1  0  0  0  0
 12 19  2  0  0  0  0
 12 13  1  0  0  0  0
 13 14  2  0  0  0  0
 13 37  1  0  0  0  0
 14 15  1  0  0  0  0
 14 16  1  0  0  0  0
 16 17  1  0  0  0  0
 16 18  2  0  0  0  0
 18 19  1  0  0  0  0
 18 38  1  0  0  0  0
 20 21  1  0  0  0  0
 20 39  1  0  0  0  0
 20 40  1  0  0  0  0
 21 22  1  0  0  0  0
 21 23  1  0  0  0  0
 21 41  1  0  0  0  0
 22 42  1  0  0  0  0
 22 43  1  0  0  0  0
 22 44  1  0  0  0  0
M  CHG  1  11   1
M  END
> <s_m_source_file>
AV-unprocessed.smi

> <i_m_source_file_index>
1824

> <i_lp_mmshare_version>
43012

> <i_f3d_flags>
0

> <s_epik_input>
W0NIM11bQ0BASF0xW0NIMl1OKFtDSDJdW0NASF0oTzEpW0NIM10pW0NIMl1bQ0BIXShbT0hdKVtDSDJdbihbY0hdbjIpYyhjMjMpW2NIXWMoRiljKEYpW2NIXTM=

> <s_epik_cmdline>
J2VwaWtfcHl0aG9uJywgJy1waCcsICc3LjAnLCAnLXRuJywgJzgnLCAnLW1hJywgJzIwMCcsICctbWV0YWxfYmluZGluZycsICctaW1hZScsICc8aW5maWxlLm1hZT4nLCAnLW9tYWUnLCAnPG91dGZpbGUubWFlPic=

> <r_epik_Ionization_Penalty>
2.58709

> <r_epik_Ionization_Penalty_Charging>
2.37273

> <r_epik_Ionization_Penalty_Neutral>
0.214359

> <r_epik_State_Penalty>
2.71799

> <r_epik_Charging_Adjusted_Penalty>
5.09071

> <i_epik_Tot_Q>
1

> <i_epik_Tot_abs_Q>
1

> <r_epik_Metal_State_Penalty>
6.80217

> <b_epik_Metal_Only>
0

> <s_lp_Force_Field>
OPLS_2005

> <r_lp_Energy>
28.8683

> <b_lp_Chiralities_Consistent>
1

> <s_lp_Variant>
AV-unprocessed.smi:1824-18

> <Gold.Version>
5.8.1

> <Gold.Id.Protein>
6NUR|6NUR_protein|mol2

> <Gold.PLP.Fitness>
49.4696

> <Gold.PLP.PLP>
-44.8926

> <Gold.PLP.part.hbond>
-1.0635

> <Gold.PLP.part.metal>
0.0000

> <Gold.PLP.part.buried>
-2.5280

> <Gold.PLP.part.nonpolar>
-41.0953

> <Gold.PLP.part.repulsive>
0.1621

> <Gold.PLP.ligand.clash>
0.0000

> <Gold.PLP.ligand.torsion>
0.4311

> <Gold.PLP.Chemscore.Hbond>
0.8640

> <Gold.PLP.Chemscore.CHOScore>
0.9448

> <Gold.PLP.Chemscore.Metal>
0.0000

> <Gold.Chemscore.Hbonds>
donor molecule, donor type, donor heavy atom, donor atom, acceptor molecule, acceptor atom, score
      P1  H  7989  7998       L1     7  0.72
      L1  C    10    36       P1  7957  1.00

> <Gold.PLP.Chemscore.Internal.Correction>
0.0127

> <Gold.Rescore>
     Score         DG    S(hbond)    S(metal)    S(lipo)     H(rot)  DE(clash)    DE(int)     intcor
     13.38     -13.95       0.68        0.00     103.76       2.32       0.18       0.39       ----

> <Gold.Chemscore.Fitness>
13.3796

> <Gold.Chemscore.DG>
-13.9533

> <Gold.Chemscore.ZeroCoef>
-5.4800

> <Gold.Chemscore.Hbond>
0.6813

> <Gold.Chemscore.Metal>
0.0000

> <Gold.Chemscore.Lipo>
103.7559

> <Gold.Chemscore.Internal_Hbond>
0.0000

> <Gold.Chemscore.DEClash>
0.1834

> <Gold.Chemscore.DEInternal>
0.3903

> <Gold.Chemscore.Rot>
2.3210

> <Gold.Chemscore.Internal.Correction>
   9.000000E+99

> <Gold.Chemscore.Hbonds>
donor molecule, donor type, donor heavy atom, donor atom, acceptor molecule, acceptor atom, score
      P1  H  7989  7998       L1     7  0.13

> <Gold.Chemscore.Hbond.Weighted>
-2.2755

> <Gold.Chemscore.Metal.Weighted>
-0.0000

> <Gold.Chemscore.Lipo.Weighted>
-12.1394

> <Gold.Chemscore.Internal_Hbond.Weighted>
0.0000

> <Gold.Chemscore.DEClash.Weighted>
0.1834

> <Gold.Chemscore.DEInternal.Weighted>
0.3903

> <Gold.Chemscore.Rot.Weighted>
5.9416

> <Gold.Chemscore.Internal.Correction.Weighted>
   9.000000E+99

> <Gold.Protein.RotatedTorsions>
[ 6907 6896 6895 6894 ] final   89.96 input  -60.11 | X-H torsion
[ 7974 7965 7964 7962 ] final  163.83 input  175.53 | X-H torsion
[ 8008 7997 7996 7995 ] final -112.03 input   59.86 | X-H torsion
[ 10167 10162 10161 10158 ] final -111.64 input  -65.29 | X-H torsion
[ 10718 10713 10712 10709 ] final   95.42 input   66.30 | X-H torsion
[ 10763 10752 10751 10750 ] final  -62.94 input  -60.55 | X-H torsion
[ 11005 11000 10999 10996 ] final  -26.65 input  -57.11 | X-H torsion

> <Gold.Protein.ActiveResidues>
 VAL166  LYS551  ARG553  GLY616  TRP617  ASP618  TYR619  PRO620  LYS621  CYS622 
 ASP623  PHE694  ASN695  SER759  ASP760  ASP761  ALA762  ILE779  LEU786  VAL792 
 PHE793  MET794  SER795  GLU796  ALA797  LYS798  CYS799  TRP800  GLU811  SER814 

> <Gold.Protein.RotatedAtoms>
  152.5441  134.1886  159.8664 H   0  0  0  0  0  0  0  0  0  0  0  0  # atno 6907 bound_to 6896
  151.1883  133.4676  159.2602 H   0  0  0  0  0  0  0  0  0  0  0  0  # atno 6908 bound_to 6896
  151.1109  135.0038  159.8549 H   0  0  0  0  0  0  0  0  0  0  0  0  # atno 6909 bound_to 6896
  144.7572  139.8238  143.6345 H   0  0  0  0  0  0  0  0  0  0  0  0  # atno 7974 bound_to 7965
  154.9990  140.0394  157.2352 H   0  0  0  0  0  0  0  0  0  0  0  0  # atno 8008 bound_to 7997
  154.7561  140.2776  155.6229 H   0  0  0  0  0  0  0  0  0  0  0  0  # atno 8009 bound_to 7997
  156.2895  140.2637  156.2327 H   0  0  0  0  0  0  0  0  0  0  0  0  # atno 8010 bound_to 7997
  140.1314  143.4357  152.1625 H   0  0  0  0  0  0  0  0  0  0  0  0  # atno 10167 bound_to 10162
  157.6939  131.0545  150.4336 H   0  0  0  0  0  0  0  0  0  0  0  0  # atno 10718 bound_to 10713
  154.3075  135.6222  153.5451 H   0  0  0  0  0  0  0  0  0  0  0  0  # atno 10763 bound_to 10752
  152.9833  135.5693  154.5214 H   0  0  0  0  0  0  0  0  0  0  0  0  # atno 10764 bound_to 10752
  154.4857  135.2865  155.1512 H   0  0  0  0  0  0  0  0  0  0  0  0  # atno 10765 bound_to 10752
  140.9048  133.7500  156.0591 H   0  0  0  0  0  0  0  0  0  0  0  0  # atno 11005 bound_to 11000
  146.1596  139.4705  142.9997 LP  0  0  0  0  0  0  0  0  0  0  0  0  # atno 17320 bound_to 7965
  145.6739  141.0209  143.1643 LP  0  0  0  0  0  0  0  0  0  0  0  0  # atno 17321 bound_to 7965
  139.5518  144.7343  151.4413 LP  0  0  0  0  0  0  0  0  0  0  0  0  # atno 17342 bound_to 10162
  140.6815  143.8071  150.7127 LP  0  0  0  0  0  0  0  0  0  0  0  0  # atno 17343 bound_to 10162
  156.4701  130.4050  149.6523 LP  0  0  0  0  0  0  0  0  0  0  0  0  # atno 17370 bound_to 10713
  156.3607  130.7480  151.2452 LP  0  0  0  0  0  0  0  0  0  0  0  0  # atno 17371 bound_to 10713
  140.8185  134.3317  157.5389 LP  0  0  0  0  0  0  0  0  0  0  0  0  # atno 17394 bound_to 11000
  139.8748  134.9295  156.3478 LP  0  0  0  0  0  0  0  0  0  0  0  0  # atno 17395 bound_to 11000

$$$$
