AV-unprocessed.smi:193|AV-procd|sdf|1501|dock3
  -GOLD-   2262019333D 1   1.00000     0.00000
 Structure written by MMmdl.
 62 66  0  0  0  0  0  0  0  0  2 V2000
  148.2966  141.2899  155.1940 C   0  0  0  0  0  0  0  0  0  0  0  0
  149.5841  140.6669  155.7550 C   0  0  1  0  0  0  0  0  0  0  0  0
  150.0789  139.5691  154.7857 C   0  0  0  0  0  0  0  0  0  0  0  0
  151.1420  138.7273  155.3332 N   0  0  0  0  0  0  0  0  0  0  0  0
  150.7994  137.5621  155.9454 C   0  0  0  0  0  0  0  0  0  0  0  0
  151.6743  136.5211  155.9413 N   0  0  0  0  0  0  0  0  0  0  0  0
  151.3486  135.3600  156.5163 C   0  0  0  0  0  0  0  0  0  0  0  0
  150.2186  135.0282  157.1419 N   0  0  0  0  0  0  0  0  0  0  0  0
  149.3380  136.0689  157.1582 C   0  0  0  0  0  0  0  0  0  0  0  0
  149.5466  137.3591  156.5926 C   0  0  0  0  0  0  0  0  0  0  0  0
  148.4343  138.1599  156.8259 N   0  0  0  0  0  0  0  0  0  0  0  0
  147.6134  137.3861  157.4815 C   0  0  0  0  0  0  0  0  0  0  0  0
  148.0704  136.1085  157.7125 N   0  0  0  0  0  0  0  0  0  0  0  0
  147.3646  135.0426  158.4071 C   0  0  0  0  0  0  0  0  0  0  0  0
  146.9660  135.3955  159.8622 C   0  0  0  0  0  0  0  0  0  0  0  0
  146.3944  134.2391  160.4487 O   0  0  0  0  0  0  0  0  0  0  0  0
  148.2136  135.7884  160.6789 C   0  0  0  0  0  0  0  0  0  0  0  0
  147.8500  136.3153  162.0785 C   0  0  0  0  0  0  0  0  0  0  0  0
  146.9428  137.4049  161.9663 O   0  0  0  0  0  0  0  0  0  0  0  0
  145.7048  137.0299  161.3753 C   0  0  0  0  0  0  0  0  0  0  0  0
  145.9308  136.5400  159.9339 C   0  0  0  0  0  0  0  0  0  0  0  0
  152.3588  139.3804  155.8105 C   0  0  0  0  0  0  0  0  0  0  0  0
  152.1329  140.0879  157.1595 C   0  0  0  0  0  0  0  0  0  0  0  0
  151.6442  141.4875  157.0457 N   0  3  2  0  0  0  0  0  0  0  0  0
  151.1917  142.0151  158.3553 C   0  0  1  0  0  0  0  0  0  0  0  0
  152.3192  142.3843  159.2930 C   0  0  0  0  0  0  0  0  0  0  0  0
  151.5187  143.4751  158.6153 C   0  0  1  0  0  0  0  0  0  0  0  0
  152.1767  144.3820  157.5912 C   0  0  0  0  0  0  0  0  0  0  0  0
  150.6574  141.7618  155.9638 C   0  0  0  0  0  0  0  0  0  0  0  0
  148.4728  141.7669  154.2292 H   0  0  0  0  0  0  0  0  0  0  0  0
  147.8948  142.0446  155.8710 H   0  0  0  0  0  0  0  0  0  0  0  0
  147.5226  140.5345  155.0551 H   0  0  0  0  0  0  0  0  0  0  0  0
  149.3200  140.2241  156.7161 H   0  0  0  0  0  0  0  0  0  0  0  0
  149.2439  138.9386  154.4762 H   0  0  0  0  0  0  0  0  0  0  0  0
  150.4463  140.0257  153.8661 H   0  0  0  0  0  0  0  0  0  0  0  0
  152.0995  134.5854  156.4655 H   0  0  0  0  0  0  0  0  0  0  0  0
  146.6414  137.7250  157.8097 H   0  0  0  0  0  0  0  0  0  0  0  0
  146.4805  134.7799  157.8244 H   0  0  0  0  0  0  0  0  0  0  0  0
  148.0036  134.1586  158.3996 H   0  0  0  0  0  0  0  0  0  0  0  0
  145.4656  134.3807  160.5506 H   0  0  0  0  0  0  0  0  0  0  0  0
  148.8978  134.9430  160.7639 H   0  0  0  0  0  0  0  0  0  0  0  0
  148.7603  136.5698  160.1492 H   0  0  0  0  0  0  0  0  0  0  0  0
  147.4169  135.5274  162.6967 H   0  0  0  0  0  0  0  0  0  0  0  0
  148.7480  136.6594  162.5917 H   0  0  0  0  0  0  0  0  0  0  0  0
  145.2182  136.2626  161.9791 H   0  0  0  0  0  0  0  0  0  0  0  0
  145.0416  137.8951  161.3735 H   0  0  0  0  0  0  0  0  0  0  0  0
  146.2827  137.3799  159.3335 H   0  0  0  0  0  0  0  0  0  0  0  0
  144.9778  136.2319  159.5022 H   0  0  0  0  0  0  0  0  0  0  0  0
  153.1502  138.6429  155.9313 H   0  0  0  0  0  0  0  0  0  0  0  0
  152.7291  140.0783  155.0590 H   0  0  0  0  0  0  0  0  0  0  0  0
  151.4651  139.5026  157.7938 H   0  0  0  0  0  0  0  0  0  0  0  0
  153.0843  140.1253  157.6904 H   0  0  0  0  0  0  0  0  0  0  0  0
  150.2794  141.5742  158.7537 H   0  0  0  0  0  0  0  0  0  0  0  0
  152.1545  142.2373  160.3583 H   0  0  0  0  0  0  0  0  0  0  0  0
  153.3435  142.2301  158.9586 H   0  0  0  0  0  0  0  0  0  0  0  0
  150.8060  144.0000  159.2487 H   0  0  0  0  0  0  0  0  0  0  0  0
  152.9525  143.8574  157.0332 H   0  0  0  0  0  0  0  0  0  0  0  0
  152.6365  145.2339  158.0927 H   0  0  0  0  0  0  0  0  0  0  0  0
  151.4328  144.7581  156.8888 H   0  0  0  0  0  0  0  0  0  0  0  0
  151.2011  141.9276  155.0333 H   0  0  0  0  0  0  0  0  0  0  0  0
  150.1779  142.7182  156.1778 H   0  0  0  0  0  0  0  0  0  0  0  0
  152.4539  142.0394  156.8012 H   0  0  0  0  0  0  0  0  0  0  0  0
  1  2  1  0  0  0  0
  1 30  1  0  0  0  0
  1 31  1  0  0  0  0
  1 32  1  0  0  0  0
  2 29  1  0  0  0  0
  2  3  1  0  0  0  0
  2 33  1  0  0  0  0
  3  4  1  0  0  0  0
  3 34  1  0  0  0  0
  3 35  1  0  0  0  0
  4  5  1  0  0  0  0
  4 22  1  0  0  0  0
  5 10  1  0  0  0  0
  5  6  2  0  0  0  0
  6  7  1  0  0  0  0
  7  8  2  0  0  0  0
  7 36  1  0  0  0  0
  8  9  1  0  0  0  0
  9 13  1  0  0  0  0
  9 10  2  0  0  0  0
 10 11  1  0  0  0  0
 11 12  2  0  0  0  0
 12 13  1  0  0  0  0
 12 37  1  0  0  0  0
 13 14  1  0  0  0  0
 14 15  1  0  0  0  0
 14 38  1  0  0  0  0
 14 39  1  0  0  0  0
 15 21  1  0  0  0  0
 15 16  1  0  0  0  0
 15 17  1  0  0  0  0
 16 40  1  0  0  0  0
 17 18  1  0  0  0  0
 17 41  1  0  0  0  0
 17 42  1  0  0  0  0
 18 19  1  0  0  0  0
 18 43  1  0  0  0  0
 18 44  1  0  0  0  0
 19 20  1  0  0  0  0
 20 21  1  0  0  0  0
 20 45  1  0  0  0  0
 20 46  1  0  0  0  0
 21 47  1  0  0  0  0
 21 48  1  0  0  0  0
 22 23  1  0  0  0  0
 22 49  1  0  0  0  0
 22 50  1  0  0  0  0
 23 24  1  0  0  0  0
 23 51  1  0  0  0  0
 23 52  1  0  0  0  0
 24 25  1  0  0  0  0
 24 29  1  0  0  0  0
 24 62  1  0  0  0  0
 25 27  1  0  0  0  0
 25 26  1  0  0  0  0
 25 53  1  0  0  0  0
 26 27  1  0  0  0  0
 26 54  1  0  0  0  0
 26 55  1  0  0  0  0
 27 28  1  0  0  0  0
 27 56  1  0  0  0  0
 28 57  1  0  0  0  0
 28 58  1  0  0  0  0
 28 59  1  0  0  0  0
 29 60  1  0  0  0  0
 29 61  1  0  0  0  0
M  CHG  1  24   1
M  END
> <s_m_source_file>
AV-unprocessed.smi

> <i_m_source_file_index>
193

> <i_lp_mmshare_version>
43012

> <i_f3d_flags>
0

> <s_epik_input>
W0NIM11bQ0BASF0xW0NIMl1bQ0BIXTFOKFtDSDJdMilbQ0gyXVtDSDJdTihbQ0gyXVtDQEhdMltDSDNdKWMobltjSF1uMyljKGMzNCluW2NIXW40W0NIMl1DNShbT0hdKVtDSDJdW0NIMl1PW0NIMl1bQ0gyXTU=

> <s_epik_cmdline>
J2VwaWtfcHl0aG9uJywgJy1waCcsICc3LjAnLCAnLXRuJywgJzgnLCAnLW1hJywgJzIwMCcsICctbWV0YWxfYmluZGluZycsICctaW1hZScsICc8aW5maWxlLm1hZT4nLCAnLW9tYWUnLCAnPG91dGZpbGUubWFlPic=

> <r_lp_tautomer_probability>
1

> <r_epik_Ionization_Penalty>
0.0540825

> <r_epik_Ionization_Penalty_Charging>
0.0538476

> <r_epik_Ionization_Penalty_Neutral>
0.000234891

> <r_epik_State_Penalty>
0.0200719

> <r_epik_Charging_Adjusted_Penalty>
0.0739194

> <i_epik_Tot_Q>
1

> <i_epik_Tot_abs_Q>
1

> <r_epik_Metal_State_Penalty>
0.0199414

> <b_epik_Metal_Only>
0

> <s_lp_Force_Field>
OPLS_2005

> <r_lp_Energy>
56.4216

> <b_lp_Chiralities_Consistent>
1

> <s_lp_Variant>
AV-unprocessed.smi:193-6

> <Gold.Version>
5.8.1

> <Gold.Id.Protein>
6NUR|6NUR_protein|mol2

> <Gold.PLP.Fitness>
43.8389

> <Gold.PLP.PLP>
-39.4027

> <Gold.PLP.part.hbond>
-3.7867

> <Gold.PLP.part.metal>
0.0000

> <Gold.PLP.part.buried>
-3.4297

> <Gold.PLP.part.nonpolar>
-32.6242

> <Gold.PLP.part.repulsive>
0.1096

> <Gold.PLP.ligand.clash>
0.0000

> <Gold.PLP.ligand.torsion>
1.3507

> <Gold.PLP.Chemscore.Hbond>
1.8910

> <Gold.PLP.Chemscore.CHOScore>
0.0000

> <Gold.PLP.Chemscore.Metal>
0.0000

> <Gold.Chemscore.Hbonds>
donor molecule, donor type, donor heavy atom, donor atom, acceptor molecule, acceptor atom, score
      P1  H  6896  6907       L1     8  0.03
      P1  H  6934  6947       L1    19  0.64
      P1  H 10752 10765       L1     6  0.45

> <Gold.PLP.Chemscore.Internal.Correction>
1.4647

> <Gold.Rescore>
     Score         DG    S(hbond)    S(metal)    S(lipo)     H(rot)  DE(clash)    DE(int)     intcor
     13.34     -16.99       1.23        0.00     105.51       1.93       0.03       3.63       ----

> <Gold.Chemscore.Fitness>
13.3395

> <Gold.Chemscore.DG>
-16.9928

> <Gold.Chemscore.ZeroCoef>
-5.4800

> <Gold.Chemscore.Hbond>
1.2294

> <Gold.Chemscore.Metal>
0.0000

> <Gold.Chemscore.Lipo>
105.5115

> <Gold.Chemscore.Internal_Hbond>
0.0000

> <Gold.Chemscore.DEClash>
0.0280

> <Gold.Chemscore.DEInternal>
3.6253

> <Gold.Chemscore.Rot>
1.9290

> <Gold.Chemscore.Internal.Correction>
   9.000000E+99

> <Gold.Chemscore.Hbonds>
donor molecule, donor type, donor heavy atom, donor atom, acceptor molecule, acceptor atom, score
      P1  H  6896  6907       L1     8  0.04
      P1  H  6934  6947       L1    19  0.09
      P1  H 10752 10765       L1     6  0.02

> <Gold.Chemscore.Hbond.Weighted>
-4.1063

> <Gold.Chemscore.Metal.Weighted>
-0.0000

> <Gold.Chemscore.Lipo.Weighted>
-12.3448

> <Gold.Chemscore.Internal_Hbond.Weighted>
0.0000

> <Gold.Chemscore.DEClash.Weighted>
0.0280

> <Gold.Chemscore.DEInternal.Weighted>
3.6253

> <Gold.Chemscore.Rot.Weighted>
4.9383

> <Gold.Chemscore.Internal.Correction.Weighted>
   9.000000E+99

> <Gold.Protein.RotatedTorsions>
[ 6907 6896 6895 6894 ] final  -87.46 input  -60.11 | X-H torsion
[ 7974 7965 7964 7962 ] final  160.67 input  175.53 | X-H torsion
[ 8008 7997 7996 7995 ] final  -79.35 input   59.86 | X-H torsion
[ 10167 10162 10161 10158 ] final   44.19 input  -65.29 | X-H torsion
[ 10718 10713 10712 10709 ] final   73.84 input   66.30 | X-H torsion
[ 10763 10752 10751 10750 ] final -166.54 input  -60.55 | X-H torsion
[ 11005 11000 10999 10996 ] final   47.86 input  -57.11 | X-H torsion

> <Gold.Protein.ActiveResidues>
 VAL166  LYS551  ARG553  GLY616  TRP617  ASP618  TYR619  PRO620  LYS621  CYS622 
 ASP623  PHE694  ASN695  SER759  ASP760  ASP761  ALA762  ILE779  LEU786  VAL792 
 PHE793  MET794  SER795  GLU796  ALA797  LYS798  CYS799  TRP800  GLU811  SER814 

> <Gold.Protein.RotatedAtoms>
  150.6866  134.2892  159.4659 H   0  0  0  0  0  0  0  0  0  0  0  0  # atno 6907 bound_to 6896
  152.0799  134.9475  160.0583 H   0  0  0  0  0  0  0  0  0  0  0  0  # atno 6908 bound_to 6896
  152.0832  133.4128  159.4547 H   0  0  0  0  0  0  0  0  0  0  0  0  # atno 6909 bound_to 6896
  144.7725  139.7790  143.6291 H   0  0  0  0  0  0  0  0  0  0  0  0  # atno 7974 bound_to 7965
  154.5777  140.0680  156.9058 H   0  0  0  0  0  0  0  0  0  0  0  0  # atno 8008 bound_to 7997
  155.2519  140.3352  155.4263 H   0  0  0  0  0  0  0  0  0  0  0  0  # atno 8009 bound_to 7997
  156.2166  140.1781  156.7560 H   0  0  0  0  0  0  0  0  0  0  0  0  # atno 8010 bound_to 7997
  140.3367  144.2521  150.6160 H   0  0  0  0  0  0  0  0  0  0  0  0  # atno 10167 bound_to 10162
  157.6566  130.9648  150.1126 H   0  0  0  0  0  0  0  0  0  0  0  0  # atno 10718 bound_to 10713
  154.6823  135.2956  154.9596 H   0  0  0  0  0  0  0  0  0  0  0  0  # atno 10763 bound_to 10752
  154.0587  135.6634  153.4813 H   0  0  0  0  0  0  0  0  0  0  0  0  # atno 10764 bound_to 10752
  153.0555  135.5147  154.7872 H   0  0  0  0  0  0  0  0  0  0  0  0  # atno 10765 bound_to 10752
  140.1241  134.4790  155.8573 H   0  0  0  0  0  0  0  0  0  0  0  0  # atno 11005 bound_to 11000
  146.1881  139.5107  142.9823 LP  0  0  0  0  0  0  0  0  0  0  0  0  # atno 17320 bound_to 7965
  145.6283  141.0309  143.1877 LP  0  0  0  0  0  0  0  0  0  0  0  0  # atno 17321 bound_to 7965
  140.5347  143.2236  151.8183 LP  0  0  0  0  0  0  0  0  0  0  0  0  # atno 17342 bound_to 10162
  139.4847  144.4677  151.9464 LP  0  0  0  0  0  0  0  0  0  0  0  0  # atno 17343 bound_to 10162
  156.2018  130.3661  149.8778 LP  0  0  0  0  0  0  0  0  0  0  0  0  # atno 17370 bound_to 10713
  156.6680  130.8809  151.3558 LP  0  0  0  0  0  0  0  0  0  0  0  0  # atno 17371 bound_to 10713
  141.2158  133.6771  156.6945 LP  0  0  0  0  0  0  0  0  0  0  0  0  # atno 17394 bound_to 11000
  140.2926  134.8228  157.4030 LP  0  0  0  0  0  0  0  0  0  0  0  0  # atno 17395 bound_to 11000

$$$$
