AV-unprocessed.smi:2720|AV-procd|sdf|10499|dock6
  -GOLD-   2272014543D 1   1.00000     0.00000
 Structure written by MMmdl.
 32 33  0  0  0  0  0  0  0  0  3 V2000
  144.0032  137.8617  152.4999 O   0  0  0  0  0  0  0  0  0  0  0  0
  145.0490  136.9197  152.3378 C   0  0  0  0  0  0  0  0  0  0  0  0
  144.3853  135.5188  152.2538 C   0  0  0  0  0  0  0  0  0  0  0  0
  145.2908  134.3999  151.7588 C   0  0  0  0  0  0  0  0  0  0  0  0
  146.4570  134.0438  152.4737 C   0  0  0  0  0  0  0  0  0  0  0  0
  147.2746  133.0044  151.9845 C   0  0  0  0  0  0  0  0  0  0  0  0
  146.9381  132.3638  150.8437 N   0  3  0  0  0  0  0  0  0  0  0  0
  145.8348  132.6737  150.1286 C   0  0  0  0  0  0  0  0  0  0  0  0
  144.9802  133.7051  150.5686 C   0  0  0  0  0  0  0  0  0  0  0  0
  145.7860  137.2449  151.0174 C   0  0  0  0  0  0  0  0  0  0  0  0
  146.5376  138.5884  151.0685 C   0  0  0  0  0  0  0  0  0  0  0  0
  147.4666  138.6266  152.2168 N   0  3  0  0  0  0  0  0  0  0  0  0
  146.7833  138.4163  153.5098 C   0  0  0  0  0  0  0  0  0  0  0  0
  146.0320  137.0710  153.5268 C   0  0  0  0  0  0  0  0  0  0  0  0
  143.8895  138.3331  151.6881 H   0  0  0  0  0  0  0  0  0  0  0  0
  143.9573  135.2370  153.2174 H   0  0  0  0  0  0  0  0  0  0  0  0
  143.5380  135.5668  151.5684 H   0  0  0  0  0  0  0  0  0  0  0  0
  146.7242  134.5574  153.3859 H   0  0  0  0  0  0  0  0  0  0  0  0
  148.1812  132.6692  152.4671 H   0  0  0  0  0  0  0  0  0  0  0  0
  145.6709  132.0926  149.2328 H   0  0  0  0  0  0  0  0  0  0  0  0
  144.0972  133.9570  149.9991 H   0  0  0  0  0  0  0  0  0  0  0  0
  146.5070  136.4549  150.8016 H   0  0  0  0  0  0  0  0  0  0  0  0
  145.0842  137.2473  150.1822 H   0  0  0  0  0  0  0  0  0  0  0  0
  147.1051  138.7375  150.1498 H   0  0  0  0  0  0  0  0  0  0  0  0
  145.8361  139.4203  151.1444 H   0  0  0  0  0  0  0  0  0  0  0  0
  148.1622  137.9042  152.0959 H   0  0  0  0  0  0  0  0  0  0  0  0
  147.5235  138.4442  154.3098 H   0  0  0  0  0  0  0  0  0  0  0  0
  146.0938  139.2423  153.6895 H   0  0  0  0  0  0  0  0  0  0  0  0
  145.5088  136.9714  154.4787 H   0  0  0  0  0  0  0  0  0  0  0  0
  146.7625  136.2612  153.4942 H   0  0  0  0  0  0  0  0  0  0  0  0
  147.9295  139.5244  152.2331 H   0  0  0  0  0  0  0  0  0  0  0  0
  147.5439  131.6148  150.5068 H   0  0  0  0  0  0  0  0  0  0  0  0
  1  2  1  0  0  0  0
  1 15  1  0  0  0  0
  2 14  1  0  0  0  0
  2  3  1  0  0  0  0
  2 10  1  0  0  0  0
  3  4  1  0  0  0  0
  3 16  1  0  0  0  0
  3 17  1  0  0  0  0
  4  9  1  0  0  0  0
  4  5  2  0  0  0  0
  5  6  1  0  0  0  0
  5 18  1  0  0  0  0
  6  7  2  0  0  0  0
  6 19  1  0  0  0  0
  7  8  1  0  0  0  0
  7 32  1  0  0  0  0
  8  9  2  0  0  0  0
  8 20  1  0  0  0  0
  9 21  1  0  0  0  0
 10 11  1  0  0  0  0
 10 22  1  0  0  0  0
 10 23  1  0  0  0  0
 11 12  1  0  0  0  0
 11 24  1  0  0  0  0
 11 25  1  0  0  0  0
 12 13  1  0  0  0  0
 12 26  1  0  0  0  0
 12 31  1  0  0  0  0
 13 14  1  0  0  0  0
 13 27  1  0  0  0  0
 13 28  1  0  0  0  0
 14 29  1  0  0  0  0
 14 30  1  0  0  0  0
M  CHG  1   7   1
M  CHG  1  12   1
M  END
> <s_m_source_file>
AV-unprocessed.smi

> <i_m_source_file_index>
2720

> <i_lp_mmshare_version>
43012

> <i_f3d_flags>
0

> <s_epik_input>
W0NIMl0xW0NIMl1bTkhdW0NIMl1bQ0gyXUMxKFtPSF0pW0NIMl1jMltjSF1bY0hdbltjSF1bY0hdMg==

> <s_epik_cmdline>
J2VwaWtfcHl0aG9uJywgJy1waCcsICc3LjAnLCAnLXRuJywgJzgnLCAnLW1hJywgJzIwMCcsICctbWV0YWxfYmluZGluZycsICctaW1hZScsICc8aW5maWxlLm1hZT4nLCAnLW9tYWUnLCAnPG91dGZpbGUubWFlPic=

> <r_epik_Ionization_Penalty>
1.30405

> <r_epik_Ionization_Penalty_Charging>
1.30405

> <r_epik_Ionization_Penalty_Neutral>
5.30574e-07

> <r_epik_State_Penalty>
1.37793

> <r_epik_Charging_Adjusted_Penalty>
2.68198

> <i_epik_Tot_Q>
2

> <i_epik_Tot_abs_Q>
2

> <r_epik_Metal_State_Penalty>
5.40982

> <b_epik_Metal_Only>
0

> <s_lp_Force_Field>
OPLS_2005

> <r_lp_Energy>
28.3784

> <b_lp_Chiralities_Consistent>
1

> <s_lp_Variant>
AV-unprocessed.smi:2720-2

> <Gold.Version>
5.8.1

> <Gold.Id.Protein>
6NUR|6NUR_protein|mol2

> <Gold.PLP.Fitness>
38.2874

> <Gold.PLP.PLP>
-25.0153

> <Gold.PLP.part.hbond>
-5.0000

> <Gold.PLP.part.metal>
0.0000

> <Gold.PLP.part.buried>
2.3259

> <Gold.PLP.part.nonpolar>
-23.2877

> <Gold.PLP.part.repulsive>
0.1458

> <Gold.PLP.ligand.clash>
0.0000

> <Gold.PLP.ligand.torsion>
0.1270

> <Gold.PLP.Chemscore.Hbond>
4.5075

> <Gold.PLP.Chemscore.CHOScore>
0.0000

> <Gold.PLP.Chemscore.Metal>
0.0000

> <Gold.Chemscore.Hbonds>
donor molecule, donor type, donor heavy atom, donor atom, acceptor molecule, acceptor atom, score
      L1  H     1    15       P1 10171  1.00
      L1  H     7    32       P1 10747  1.00
      L1  H    12    26       P1  7948  2.00
      L1  H    12    31       P1  7957  0.51

> <Gold.PLP.Chemscore.Internal.Correction>
0.0035

> <Gold.Rescore>
     Score         DG    S(hbond)    S(metal)    S(lipo)     H(rot)  DE(clash)    DE(int)     intcor
     18.80     -20.60       3.53        0.00      64.97       1.67       1.63       0.17       ----

> <Gold.Chemscore.Fitness>
18.7999

> <Gold.Chemscore.DG>
-20.5975

> <Gold.Chemscore.ZeroCoef>
-5.4800

> <Gold.Chemscore.Hbond>
3.5295

> <Gold.Chemscore.Metal>
0.0000

> <Gold.Chemscore.Lipo>
64.9736

> <Gold.Chemscore.Internal_Hbond>
0.0000

> <Gold.Chemscore.DEClash>
1.6295

> <Gold.Chemscore.DEInternal>
0.1682

> <Gold.Chemscore.Rot>
1.6691

> <Gold.Chemscore.Internal.Correction>
   9.000000E+99

> <Gold.Chemscore.Hbonds>
donor molecule, donor type, donor heavy atom, donor atom, acceptor molecule, acceptor atom, score
      L1  H     1    15       P1 10171  0.97
      L1  H     7    32       P1 10747  0.98
      L1  H    12    26       P1  7948  1.00
      L1  H    12    31       P1  7957  0.46

> <Gold.Chemscore.Hbond.Weighted>
-11.7885

> <Gold.Chemscore.Metal.Weighted>
-0.0000

> <Gold.Chemscore.Lipo.Weighted>
-7.6019

> <Gold.Chemscore.Internal_Hbond.Weighted>
0.0000

> <Gold.Chemscore.DEClash.Weighted>
1.6295

> <Gold.Chemscore.DEInternal.Weighted>
0.1682

> <Gold.Chemscore.Rot.Weighted>
4.2728

> <Gold.Chemscore.Internal.Correction.Weighted>
   9.000000E+99

> <Gold.Protein.RotatedTorsions>
[ 6907 6896 6895 6894 ] final -137.56 input  -60.11 | X-H torsion
[ 7974 7965 7964 7962 ] final    2.78 input  175.53 | X-H torsion
[ 8008 7997 7996 7995 ] final  -57.56 input   59.86 | X-H torsion
[ 10167 10162 10161 10158 ] final   10.19 input  -65.29 | X-H torsion
[ 10718 10713 10712 10709 ] final  -28.55 input   66.30 | X-H torsion
[ 10763 10752 10751 10750 ] final  -23.71 input  -60.55 | X-H torsion
[ 11005 11000 10999 10996 ] final -120.48 input  -57.11 | X-H torsion

> <Gold.Protein.ActiveResidues>
 VAL166  LYS551  ARG553  GLY616  TRP617  ASP618  TYR619  PRO620  LYS621  CYS622 
 ASP623  PHE694  ASN695  SER759  ASP760  ASP761  ALA762  ILE779  LEU786  VAL792 
 PHE793  MET794  SER795  GLU796  ALA797  LYS798  CYS799  TRP800  GLU811  SER814 

> <Gold.Protein.RotatedAtoms>
  151.0239  133.5851  159.2667 H   0  0  0  0  0  0  0  0  0  0  0  0  # atno 6907 bound_to 6896
  151.2957  135.0754  159.9230 H   0  0  0  0  0  0  0  0  0  0  0  0  # atno 6908 bound_to 6896
  152.5329  133.9930  159.7913 H   0  0  0  0  0  0  0  0  0  0  0  0  # atno 6909 bound_to 6896
  146.2444  140.0784  142.8358 H   0  0  0  0  0  0  0  0  0  0  0  0  # atno 7974 bound_to 7965
  154.4273  140.1104  156.5817 H   0  0  0  0  0  0  0  0  0  0  0  0  # atno 8008 bound_to 7997
  155.6105  140.3494  155.4602 H   0  0  0  0  0  0  0  0  0  0  0  0  # atno 8009 bound_to 7997
  156.0103  140.1217  157.0450 H   0  0  0  0  0  0  0  0  0  0  0  0  # atno 8010 bound_to 7997
  140.6209  143.8206  150.7174 H   0  0  0  0  0  0  0  0  0  0  0  0  # atno 10167 bound_to 10162
  156.4238  130.4431  149.7165 H   0  0  0  0  0  0  0  0  0  0  0  0  # atno 10718 bound_to 10713
  153.6721  135.6971  153.5144 H   0  0  0  0  0  0  0  0  0  0  0  0  # atno 10763 bound_to 10752
  153.2550  135.4263  155.0835 H   0  0  0  0  0  0  0  0  0  0  0  0  # atno 10764 bound_to 10752
  154.8423  135.3540  154.6265 H   0  0  0  0  0  0  0  0  0  0  0  0  # atno 10765 bound_to 10752
  141.0140  134.0222  157.3375 H   0  0  0  0  0  0  0  0  0  0  0  0  # atno 11005 bound_to 11000
  145.0754  140.9185  143.4857 LP  0  0  0  0  0  0  0  0  0  0  0  0  # atno 17320 bound_to 7965
  145.0926  139.2879  143.5727 LP  0  0  0  0  0  0  0  0  0  0  0  0  # atno 17321 bound_to 7965
  140.1796  143.4126  152.1942 LP  0  0  0  0  0  0  0  0  0  0  0  0  # atno 17342 bound_to 10162
  139.5438  144.7280  151.4649 LP  0  0  0  0  0  0  0  0  0  0  0  0  # atno 17343 bound_to 10162
  156.4095  130.7715  151.2727 LP  0  0  0  0  0  0  0  0  0  0  0  0  # atno 17370 bound_to 10713
  157.7508  131.0215  150.3755 LP  0  0  0  0  0  0  0  0  0  0  0  0  # atno 17371 bound_to 10713
  139.9106  135.0189  156.7676 LP  0  0  0  0  0  0  0  0  0  0  0  0  # atno 17394 bound_to 11000
  140.6685  133.9580  155.7843 LP  0  0  0  0  0  0  0  0  0  0  0  0  # atno 17395 bound_to 11000

$$$$
