AV-unprocessed.smi:15|AV-procd|sdf|80|dock4
  -GOLD-   2262015213D 1   1.00000     0.00000
 Structure written by MMmdl.
 53 56  0  0  0  0  0  0  0  0  1 V2000
  151.8260  141.4277  157.5215 C   0  0  0  0  0  0  0  0  0  0  0  0
  151.2146  140.6193  156.3700 C   0  0  0  0  0  0  0  0  0  0  0  0
  149.9371  140.0018  156.7263 N   0  0  0  0  0  0  0  0  0  0  0  0
  148.7185  140.8120  156.7794 C   0  0  0  0  0  0  0  0  0  0  0  0
  147.8482  140.6808  155.5151 C   0  0  1  0  0  0  0  0  0  0  0  0
  148.3550  141.5083  154.3363 C   0  0  0  0  0  0  0  0  0  0  0  0
  147.7973  140.7798  153.1227 C   0  0  0  0  0  0  0  0  0  0  0  0
  147.3810  139.4107  153.6684 C   0  0  0  0  0  0  0  0  0  0  0  0
  147.9076  139.3650  154.9859 O   0  0  0  0  0  0  0  0  0  0  0  0
  149.9687  138.9861  157.6233 C   0  0  0  0  0  0  0  0  0  0  0  0
  151.1879  138.5493  158.0306 N   0  0  0  0  0  0  0  0  0  0  0  0
  151.2857  137.5343  158.8937 C   0  0  0  0  0  0  0  0  0  0  0  0
  150.3091  136.8203  159.4561 N   0  0  0  0  0  0  0  0  0  0  0  0
  149.0820  137.2467  159.0411 C   0  0  0  0  0  0  0  0  0  0  0  0
  148.8204  138.3160  158.1382 C   0  0  0  0  0  0  0  0  0  0  0  0
  147.4487  138.4423  157.9462 N   0  0  0  0  0  0  0  0  0  0  0  0
  146.9313  137.5100  158.6979 C   0  0  0  0  0  0  0  0  0  0  0  0
  147.8415  136.7368  159.3814 N   0  0  0  0  0  0  0  0  0  0  0  0
  147.5473  135.6295  160.2769 C   0  0  0  0  0  0  0  0  0  0  0  0
  147.1846  136.0683  161.7220 C   0  0  1  0  0  0  0  0  0  0  0  0
  148.2456  136.8329  162.2634 O   0  0  0  0  0  0  0  0  0  0  0  0
  145.8951  136.8749  161.8208 C   0  0  0  0  0  0  0  0  0  0  0  0
  144.8259  135.7869  161.8459 C   0  0  0  0  0  0  0  0  0  0  0  0
  145.4378  134.6610  162.4690 O   0  0  0  0  0  0  0  0  0  0  0  0
  146.8302  134.8997  162.6619 C   0  0  1  0  0  0  0  0  0  0  0  0
  147.6334  133.6026  162.4853 C   0  0  0  0  0  0  0  0  0  0  0  0
  152.7349  141.9324  157.1939 H   0  0  0  0  0  0  0  0  0  0  0  0
  152.0950  140.7927  158.3650 H   0  0  0  0  0  0  0  0  0  0  0  0
  151.1336  142.1910  157.8780 H   0  0  0  0  0  0  0  0  0  0  0  0
  151.0682  141.2912  155.5231 H   0  0  0  0  0  0  0  0  0  0  0  0
  151.9178  139.8534  156.0434 H   0  0  0  0  0  0  0  0  0  0  0  0
  148.1370  140.5027  157.6471 H   0  0  0  0  0  0  0  0  0  0  0  0
  148.9648  141.8599  156.9553 H   0  0  0  0  0  0  0  0  0  0  0  0
  146.8094  140.9430  155.7216 H   0  0  0  0  0  0  0  0  0  0  0  0
  148.0393  142.5507  154.3885 H   0  0  0  0  0  0  0  0  0  0  0  0
  149.4453  141.4884  154.3036 H   0  0  0  0  0  0  0  0  0  0  0  0
  146.9370  141.3031  152.7040 H   0  0  0  0  0  0  0  0  0  0  0  0
  148.5515  140.6919  152.3399 H   0  0  0  0  0  0  0  0  0  0  0  0
  146.2940  139.3291  153.7147 H   0  0  0  0  0  0  0  0  0  0  0  0
  147.7598  138.5844  153.0665 H   0  0  0  0  0  0  0  0  0  0  0  0
  152.2907  137.2512  159.1701 H   0  0  0  0  0  0  0  0  0  0  0  0
  145.8645  137.3546  158.7688 H   0  0  0  0  0  0  0  0  0  0  0  0
  146.7335  135.0488  159.8413 H   0  0  0  0  0  0  0  0  0  0  0  0
  148.4166  134.9708  160.2869 H   0  0  0  0  0  0  0  0  0  0  0  0
  148.9204  136.2406  162.5577 H   0  0  0  0  0  0  0  0  0  0  0  0
  145.8625  137.4194  162.7662 H   0  0  0  0  0  0  0  0  0  0  0  0
  145.7475  137.6048  161.0256 H   0  0  0  0  0  0  0  0  0  0  0  0
  143.9291  136.0998  162.3808 H   0  0  0  0  0  0  0  0  0  0  0  0
  144.5349  135.5103  160.8321 H   0  0  0  0  0  0  0  0  0  0  0  0
  146.9382  135.2350  163.6954 H   0  0  0  0  0  0  0  0  0  0  0  0
  148.7017  133.7852  162.6011 H   0  0  0  0  0  0  0  0  0  0  0  0
  147.4699  133.1552  161.5049 H   0  0  0  0  0  0  0  0  0  0  0  0
  147.3410  132.8642  163.2321 H   0  0  0  0  0  0  0  0  0  0  0  0
  1  2  1  0  0  0  0
  1 27  1  0  0  0  0
  1 28  1  0  0  0  0
  1 29  1  0  0  0  0
  2  3  1  0  0  0  0
  2 30  1  0  0  0  0
  2 31  1  0  0  0  0
  3  4  1  0  0  0  0
  3 10  1  0  0  0  0
  4  5  1  0  0  0  0
  4 32  1  0  0  0  0
  4 33  1  0  0  0  0
  5  9  1  0  0  0  0
  5  6  1  0  0  0  0
  5 34  1  0  0  0  0
  6  7  1  0  0  0  0
  6 35  1  0  0  0  0
  6 36  1  0  0  0  0
  7  8  1  0  0  0  0
  7 37  1  0  0  0  0
  7 38  1  0  0  0  0
  8  9  1  0  0  0  0
  8 39  1  0  0  0  0
  8 40  1  0  0  0  0
 10 15  1  0  0  0  0
 10 11  2  0  0  0  0
 11 12  1  0  0  0  0
 12 13  2  0  0  0  0
 12 41  1  0  0  0  0
 13 14  1  0  0  0  0
 14 18  1  0  0  0  0
 14 15  2  0  0  0  0
 15 16  1  0  0  0  0
 16 17  2  0  0  0  0
 17 18  1  0  0  0  0
 17 42  1  0  0  0  0
 18 19  1  0  0  0  0
 19 20  1  0  0  0  0
 19 43  1  0  0  0  0
 19 44  1  0  0  0  0
 20 25  1  0  0  0  0
 20 21  1  0  0  0  0
 20 22  1  0  0  0  0
 21 45  1  0  0  0  0
 22 23  1  0  0  0  0
 22 46  1  0  0  0  0
 22 47  1  0  0  0  0
 23 24  1  0  0  0  0
 23 48  1  0  0  0  0
 23 49  1  0  0  0  0
 24 25  1  0  0  0  0
 25 26  1  0  0  0  0
 25 50  1  0  0  0  0
 26 51  1  0  0  0  0
 26 52  1  0  0  0  0
 26 53  1  0  0  0  0
M  END
> <s_m_source_file>
AV-unprocessed.smi

> <i_m_source_file_index>
15

> <i_lp_mmshare_version>
43012

> <i_f3d_flags>
0

> <s_epik_input>
TzFbQ0gyXVtDSDJdW0NIMl1bQ0BIXTFbQ0gyXU4oW0NIMl1bQ0gzXSljKG5bY0hdbjIpYyhjMjMpbltjSF1uM1tDSDJdW0NAQF00KFtPSF0pW0NIMl1bQ0gyXU9bQ0BIXTRbQ0gzXQ==

> <s_epik_cmdline>
J2VwaWtfcHl0aG9uJywgJy1waCcsICc3LjAnLCAnLXRuJywgJzgnLCAnLW1hJywgJzIwMCcsICctbWV0YWxfYmluZGluZycsICctaW1hZScsICc8aW5maWxlLm1hZT4nLCAnLW9tYWUnLCAnPG91dGZpbGUubWFlPic=

> <r_lp_tautomer_probability>
1

> <r_epik_Ionization_Penalty>
0.00360814

> <r_epik_Ionization_Penalty_Charging>
0

> <r_epik_Ionization_Penalty_Neutral>
0.00360814

> <r_epik_State_Penalty>
0.00237482

> <r_epik_Charging_Adjusted_Penalty>
0.00237482

> <i_epik_Tot_Q>
0

> <i_epik_Tot_abs_Q>
0

> <r_epik_Metal_State_Penalty>
-0

> <b_epik_Metal_Only>
0

> <s_lp_Force_Field>
OPLS_2005

> <r_lp_Energy>
45.9982

> <b_lp_Chiralities_Consistent>
1

> <s_lp_Variant>
AV-unprocessed.smi:15-2

> <Gold.Version>
5.8.1

> <Gold.Id.Protein>
6NUR|6NUR_protein|mol2

> <Gold.PLP.Fitness>
43.5743

> <Gold.PLP.PLP>
-38.7516

> <Gold.PLP.part.hbond>
-2.2948

> <Gold.PLP.part.metal>
0.0000

> <Gold.PLP.part.buried>
-7.5791

> <Gold.PLP.part.nonpolar>
-29.5133

> <Gold.PLP.part.repulsive>
0.0457

> <Gold.PLP.ligand.clash>
0.0000

> <Gold.PLP.ligand.torsion>
1.0433

> <Gold.PLP.Chemscore.Hbond>
2.0000

> <Gold.PLP.Chemscore.CHOScore>
0.0000

> <Gold.PLP.Chemscore.Metal>
0.0000

> <Gold.Chemscore.Hbonds>
donor molecule, donor type, donor heavy atom, donor atom, acceptor molecule, acceptor atom, score
      P1  H  6896  6908       L1    13  1.00
      P1  H  6931  6943       L1    21  1.00

> <Gold.PLP.Chemscore.Internal.Correction>
0.9092

> <Gold.Rescore>
     Score         DG    S(hbond)    S(metal)    S(lipo)     H(rot)  DE(clash)    DE(int)     intcor
     12.01     -15.75       1.93        0.00      86.10       2.44       0.71       3.03       ----

> <Gold.Chemscore.Fitness>
12.0054

> <Gold.Chemscore.DG>
-15.7496

> <Gold.Chemscore.ZeroCoef>
-5.4800

> <Gold.Chemscore.Hbond>
1.9313

> <Gold.Chemscore.Metal>
0.0000

> <Gold.Chemscore.Lipo>
86.0988

> <Gold.Chemscore.Internal_Hbond>
0.0000

> <Gold.Chemscore.DEClash>
0.7146

> <Gold.Chemscore.DEInternal>
3.0296

> <Gold.Chemscore.Rot>
2.4431

> <Gold.Chemscore.Internal.Correction>
   9.000000E+99

> <Gold.Chemscore.Hbonds>
donor molecule, donor type, donor heavy atom, donor atom, acceptor molecule, acceptor atom, score
      P1  H  6896  6908       L1    13  0.54
      P1  H  6931  6943       L1    21  0.50

> <Gold.Chemscore.Hbond.Weighted>
-6.4505

> <Gold.Chemscore.Metal.Weighted>
-0.0000

> <Gold.Chemscore.Lipo.Weighted>
-10.0736

> <Gold.Chemscore.Internal_Hbond.Weighted>
0.0000

> <Gold.Chemscore.DEClash.Weighted>
0.7146

> <Gold.Chemscore.DEInternal.Weighted>
3.0296

> <Gold.Chemscore.Rot.Weighted>
6.2544

> <Gold.Chemscore.Internal.Correction.Weighted>
   9.000000E+99

> <Gold.Protein.RotatedTorsions>
[ 6907 6896 6895 6894 ] final -151.51 input  -60.11 | X-H torsion
[ 7974 7965 7964 7962 ] final  -55.41 input  175.53 | X-H torsion
[ 8008 7997 7996 7995 ] final -173.91 input   59.86 | X-H torsion
[ 10167 10162 10161 10158 ] final  -92.48 input  -65.29 | X-H torsion
[ 10718 10713 10712 10709 ] final  172.81 input   66.30 | X-H torsion
[ 10763 10752 10751 10750 ] final  109.84 input  -60.55 | X-H torsion
[ 11005 11000 10999 10996 ] final  -15.01 input  -57.11 | X-H torsion

> <Gold.Protein.ActiveResidues>
 VAL166  LYS551  ARG553  GLY616  TRP617  ASP618  TYR619  PRO620  LYS621  CYS622 
 ASP623  PHE694  ASN695  SER759  ASP760  ASP761  ALA762  ILE779  LEU786  VAL792 
 PHE793  MET794  SER795  GLU796  ALA797  LYS798  CYS799  TRP800  GLU811  SER814 

> <Gold.Protein.RotatedAtoms>
  151.2142  133.4539  159.2598 H   0  0  0  0  0  0  0  0  0  0  0  0  # atno 6907 bound_to 6896
  151.0947  134.9937  159.8430 H   0  0  0  0  0  0  0  0  0  0  0  0  # atno 6908 bound_to 6896
  152.5438  134.2073  159.8789 H   0  0  0  0  0  0  0  0  0  0  0  0  # atno 6909 bound_to 6896
  145.8745  140.8191  142.9871 H   0  0  0  0  0  0  0  0  0  0  0  0  # atno 7974 bound_to 7965
  155.9635  140.1149  157.0875 H   0  0  0  0  0  0  0  0  0  0  0  0  # atno 8008 bound_to 7997
  154.4138  140.1177  156.5277 H   0  0  0  0  0  0  0  0  0  0  0  0  # atno 8009 bound_to 7997
  155.6690  140.3473  155.4813 H   0  0  0  0  0  0  0  0  0  0  0  0  # atno 8010 bound_to 7997
  140.3344  143.2977  151.9906 H   0  0  0  0  0  0  0  0  0  0  0  0  # atno 10167 bound_to 10162
  156.9734  131.0097  151.2899 H   0  0  0  0  0  0  0  0  0  0  0  0  # atno 10718 bound_to 10713
  153.4404  135.3767  155.2224 H   0  0  0  0  0  0  0  0  0  0  0  0  # atno 10763 bound_to 10752
  154.8753  135.3861  154.4159 H   0  0  0  0  0  0  0  0  0  0  0  0  # atno 10764 bound_to 10752
  153.4704  135.7087  153.6060 H   0  0  0  0  0  0  0  0  0  0  0  0  # atno 10765 bound_to 10752
  140.7923  133.8278  155.9391 H   0  0  0  0  0  0  0  0  0  0  0  0  # atno 11005 bound_to 11000
  144.6726  140.1289  143.7445 LP  0  0  0  0  0  0  0  0  0  0  0  0  # atno 17320 bound_to 7965
  145.9097  139.2480  143.1444 LP  0  0  0  0  0  0  0  0  0  0  0  0  # atno 17321 bound_to 7965
  139.4851  144.6209  151.7257 LP  0  0  0  0  0  0  0  0  0  0  0  0  # atno 17342 bound_to 10162
  140.5368  144.0643  150.6073 LP  0  0  0  0  0  0  0  0  0  0  0  0  # atno 17343 bound_to 10162
  157.5576  130.8224  149.8225 LP  0  0  0  0  0  0  0  0  0  0  0  0  # atno 17370 bound_to 10713
  156.0273  130.3775  150.1786 LP  0  0  0  0  0  0  0  0  0  0  0  0  # atno 17371 bound_to 10713
  140.9377  134.1940  157.4819 LP  0  0  0  0  0  0  0  0  0  0  0  0  # atno 17394 bound_to 11000
  139.8730  134.9859  156.5302 LP  0  0  0  0  0  0  0  0  0  0  0  0  # atno 17395 bound_to 11000

$$$$
