AV-unprocessed.smi:3163|AV-procd|sdf|12077|dock7
  -GOLD-   2272017503D 1   1.00000     0.00000
 Structure written by MMmdl.
 37 38  0  0  0  0  0  0  0  0  3 V2000
  144.3121  132.2139  149.1717 C   0  0  0  0  0  0  0  0  0  0  0  0
  145.0093  132.4863  150.4462 N   0  3  1  0  0  0  0  0  0  0  0  0
  146.4754  132.6296  150.3161 C   0  0  0  0  0  0  0  0  0  0  0  0
  146.8839  133.6256  151.3986 C   0  0  0  0  0  0  0  0  0  0  0  0
  145.7031  134.5926  151.4248 C   0  0  2  0  0  0  0  0  0  0  0  0
  145.6282  135.4492  152.7035 C   0  0  0  0  0  0  0  0  0  0  0  0
  146.7046  136.4337  152.7716 N   0  0  0  0  0  0  0  0  0  0  0  0
  146.6527  137.6031  153.4259 C   0  0  0  0  0  0  0  0  0  0  0  0
  145.6564  137.9975  154.0311 O   0  0  0  0  0  0  0  0  0  0  0  0
  147.8094  138.2783  153.3096 N   0  0  0  0  0  0  0  0  0  0  0  0
  148.1577  139.5440  153.8565 C   0  0  0  0  0  0  0  0  0  0  0  0
  147.1815  140.5644  153.8132 C   0  0  0  0  0  0  0  0  0  0  0  0
  147.4843  141.8405  154.3306 C   0  0  0  0  0  0  0  0  0  0  0  0
  148.7055  142.0813  154.8535 N   0  3  0  0  0  0  0  0  0  0  0  0
  149.6758  141.1435  154.9038 C   0  0  0  0  0  0  0  0  0  0  0  0
  149.4313  139.8488  154.4022 C   0  0  0  0  0  0  0  0  0  0  0  0
  144.5001  133.6668  151.1829 C   0  0  0  0  0  0  0  0  0  0  0  0
  144.4228  133.0476  148.4773 H   0  0  0  0  0  0  0  0  0  0  0  0
  143.2481  132.0522  149.3466 H   0  0  0  0  0  0  0  0  0  0  0  0
  144.7159  131.3170  148.7010 H   0  0  0  0  0  0  0  0  0  0  0  0
  146.9821  131.6693  150.4160 H   0  0  0  0  0  0  0  0  0  0  0  0
  146.7247  133.0396  149.3356 H   0  0  0  0  0  0  0  0  0  0  0  0
  146.9798  133.1155  152.3585 H   0  0  0  0  0  0  0  0  0  0  0  0
  147.8320  134.1188  151.1816 H   0  0  0  0  0  0  0  0  0  0  0  0
  145.8017  135.2548  150.5625 H   0  0  0  0  0  0  0  0  0  0  0  0
  144.6533  135.9323  152.7894 H   0  0  0  0  0  0  0  0  0  0  0  0
  145.7233  134.8034  153.5768 H   0  0  0  0  0  0  0  0  0  0  0  0
  147.5635  136.1934  152.2981 H   0  0  0  0  0  0  0  0  0  0  0  0
  148.5085  137.8580  152.7145 H   0  0  0  0  0  0  0  0  0  0  0  0
  146.2046  140.3742  153.3922 H   0  0  0  0  0  0  0  0  0  0  0  0
  146.7920  142.6697  154.3396 H   0  0  0  0  0  0  0  0  0  0  0  0
  150.6155  141.4561  155.3355 H   0  0  0  0  0  0  0  0  0  0  0  0
  150.2290  139.1227  154.4349 H   0  0  0  0  0  0  0  0  0  0  0  0
  143.6975  134.1828  150.6541 H   0  0  0  0  0  0  0  0  0  0  0  0
  144.0919  133.3081  152.1282 H   0  0  0  0  0  0  0  0  0  0  0  0
  144.8490  131.6911  151.0483 H   0  0  0  0  0  0  0  0  0  0  0  0
  148.9057  143.0121  155.2210 H   0  0  0  0  0  0  0  0  0  0  0  0
  1  2  1  0  0  0  0
  1 18  1  0  0  0  0
  1 19  1  0  0  0  0
  1 20  1  0  0  0  0
  2 17  1  0  0  0  0
  2  3  1  0  0  0  0
  2 36  1  0  0  0  0
  3  4  1  0  0  0  0
  3 21  1  0  0  0  0
  3 22  1  0  0  0  0
  4  5  1  0  0  0  0
  4 23  1  0  0  0  0
  4 24  1  0  0  0  0
  5  6  1  0  0  0  0
  5 17  1  0  0  0  0
  5 25  1  0  0  0  0
  6  7  1  0  0  0  0
  6 26  1  0  0  0  0
  6 27  1  0  0  0  0
  7  8  1  0  0  0  0
  7 28  1  0  0  0  0
  8  9  2  0  0  0  0
  8 10  1  0  0  0  0
 10 11  1  0  0  0  0
 10 29  1  0  0  0  0
 11 16  1  0  0  0  0
 11 12  2  0  0  0  0
 12 13  1  0  0  0  0
 12 30  1  0  0  0  0
 13 14  2  0  0  0  0
 13 31  1  0  0  0  0
 14 15  1  0  0  0  0
 14 37  1  0  0  0  0
 15 16  2  0  0  0  0
 15 32  1  0  0  0  0
 16 33  1  0  0  0  0
 17 34  1  0  0  0  0
 17 35  1  0  0  0  0
M  CHG  1   2   1
M  CHG  1  14   1
M  END
> <s_m_source_file>
AV-unprocessed.smi

> <i_m_source_file_index>
3163

> <i_lp_mmshare_version>
43012

> <i_f3d_flags>
0

> <s_epik_input>
W0NIM11OMVtDSDJdW0NIMl1bQ0BIXShbQ0gyXTEpW0NIMl1bTkhdQyg9TylbTkhdYzJbY0hdW2NIXW5bY0hdW2NIXTI=

> <s_epik_cmdline>
J2VwaWtfcHl0aG9uJywgJy1waCcsICc3LjAnLCAnLXRuJywgJzgnLCAnLW1hJywgJzIwMCcsICctbWV0YWxfYmluZGluZycsICctaW1hZScsICc8aW5maWxlLm1hZT4nLCAnLW9tYWUnLCAnPG91dGZpbGUubWFlPic=

> <r_epik_Ionization_Penalty>
1.09034

> <r_epik_Ionization_Penalty_Charging>
1.09032

> <r_epik_Ionization_Penalty_Neutral>
1.86664e-05

> <r_epik_State_Penalty>
1.14521

> <r_epik_Charging_Adjusted_Penalty>
2.23553

> <i_epik_Tot_Q>
2

> <i_epik_Tot_abs_Q>
2

> <r_epik_Metal_State_Penalty>
1.23399

> <b_epik_Metal_Only>
0

> <s_lp_Force_Field>
OPLS_2005

> <r_lp_Energy>
39.8127

> <b_lp_Chiralities_Consistent>
1

> <s_lp_Variant>
AV-unprocessed.smi:3163-7

> <Gold.Version>
5.8.1

> <Gold.Id.Protein>
6NUR|6NUR_protein|mol2

> <Gold.PLP.Fitness>
43.3830

> <Gold.PLP.PLP>
-32.4636

> <Gold.PLP.part.hbond>
-3.2089

> <Gold.PLP.part.metal>
0.0000

> <Gold.PLP.part.buried>
-4.6380

> <Gold.PLP.part.nonpolar>
-26.8566

> <Gold.PLP.part.repulsive>
1.5278

> <Gold.PLP.ligand.clash>
0.0000

> <Gold.PLP.ligand.torsion>
0.5421

> <Gold.PLP.Chemscore.Hbond>
4.0000

> <Gold.PLP.Chemscore.CHOScore>
0.0000

> <Gold.PLP.Chemscore.Metal>
0.0000

> <Gold.Chemscore.Hbonds>
donor molecule, donor type, donor heavy atom, donor atom, acceptor molecule, acceptor atom, score
      L1  H     7    28       P1  7948  0.78
      L1  H    10    29       P1  7948  0.86
      L1  H    14    37       P1  8028  2.00

> <Gold.PLP.Chemscore.Internal.Correction>
0.0037

> <Gold.Rescore>
     Score         DG    S(hbond)    S(metal)    S(lipo)     H(rot)  DE(clash)    DE(int)     intcor
     19.49     -21.24       2.95        0.00      78.33       1.27       0.19       1.56       ----

> <Gold.Chemscore.Fitness>
19.4864

> <Gold.Chemscore.DG>
-21.2393

> <Gold.Chemscore.ZeroCoef>
-5.4800

> <Gold.Chemscore.Hbond>
2.9493

> <Gold.Chemscore.Metal>
0.0000

> <Gold.Chemscore.Lipo>
78.3345

> <Gold.Chemscore.Internal_Hbond>
0.0000

> <Gold.Chemscore.DEClash>
0.1936

> <Gold.Chemscore.DEInternal>
1.5594

> <Gold.Chemscore.Rot>
1.2721

> <Gold.Chemscore.Internal.Correction>
   9.000000E+99

> <Gold.Chemscore.Hbonds>
donor molecule, donor type, donor heavy atom, donor atom, acceptor molecule, acceptor atom, score
      L1  H     7    28       P1  7948  0.77
      L1  H    10    29       P1  7948  0.85
      L1  H    14    37       P1  8028  1.00

> <Gold.Chemscore.Hbond.Weighted>
-9.8507

> <Gold.Chemscore.Metal.Weighted>
-0.0000

> <Gold.Chemscore.Lipo.Weighted>
-9.1651

> <Gold.Chemscore.Internal_Hbond.Weighted>
0.0000

> <Gold.Chemscore.DEClash.Weighted>
0.1936

> <Gold.Chemscore.DEInternal.Weighted>
1.5594

> <Gold.Chemscore.Rot.Weighted>
3.2565

> <Gold.Chemscore.Internal.Correction.Weighted>
   9.000000E+99

> <Gold.Protein.RotatedTorsions>
[ 6907 6896 6895 6894 ] final  -29.63 input  -60.11 | X-H torsion
[ 7974 7965 7964 7962 ] final    6.29 input  175.53 | X-H torsion
[ 8008 7997 7996 7995 ] final -109.14 input   59.86 | X-H torsion
[ 10167 10162 10161 10158 ] final  -25.99 input  -65.29 | X-H torsion
[ 10718 10713 10712 10709 ] final  157.35 input   66.30 | X-H torsion
[ 10763 10752 10751 10750 ] final  -10.18 input  -60.55 | X-H torsion
[ 11005 11000 10999 10996 ] final   26.64 input  -57.11 | X-H torsion

> <Gold.Protein.ActiveResidues>
 VAL166  LYS551  ARG553  GLY616  TRP617  ASP618  TYR619  PRO620  LYS621  CYS622 
 ASP623  PHE694  ASN695  SER759  ASP760  ASP761  ALA762  ILE779  LEU786  VAL792 
 PHE793  MET794  SER795  GLU796  ALA797  LYS798  CYS799  TRP800  GLU811  SER814 

> <Gold.Protein.RotatedAtoms>
  151.1166  135.0056  159.8518 H   0  0  0  0  0  0  0  0  0  0  0  0  # atno 6907 bound_to 6896
  152.5446  134.1773  159.8631 H   0  0  0  0  0  0  0  0  0  0  0  0  # atno 6908 bound_to 6896
  151.1827  133.4670  159.2627 H   0  0  0  0  0  0  0  0  0  0  0  0  # atno 6909 bound_to 6896
  146.2435  140.0256  142.8394 H   0  0  0  0  0  0  0  0  0  0  0  0  # atno 7974 bound_to 7965
  154.9549  140.0400  157.2162 H   0  0  0  0  0  0  0  0  0  0  0  0  # atno 8008 bound_to 7997
  154.7944  140.2841  155.5946 H   0  0  0  0  0  0  0  0  0  0  0  0  # atno 8009 bound_to 7997
  156.2954  140.2567  156.2798 H   0  0  0  0  0  0  0  0  0  0  0  0  # atno 8010 bound_to 7997
  140.7284  143.4217  151.0941 H   0  0  0  0  0  0  0  0  0  0  0  0  # atno 10167 bound_to 10162
  157.1926  131.0658  151.2070 H   0  0  0  0  0  0  0  0  0  0  0  0  # atno 10718 bound_to 10713
  153.4655  135.7016  153.6025 H   0  0  0  0  0  0  0  0  0  0  0  0  # atno 10763 bound_to 10752
  153.4301  135.3804  155.2165 H   0  0  0  0  0  0  0  0  0  0  0  0  # atno 10764 bound_to 10752
  154.8726  135.3948  154.4086 H   0  0  0  0  0  0  0  0  0  0  0  0  # atno 10765 bound_to 10752
  140.3348  134.2398  155.7697 H   0  0  0  0  0  0  0  0  0  0  0  0  # atno 11005 bound_to 11000
  145.1201  140.9457  143.4605 LP  0  0  0  0  0  0  0  0  0  0  0  0  # atno 17320 bound_to 7965
  145.0489  139.3197  143.5938 LP  0  0  0  0  0  0  0  0  0  0  0  0  # atno 17321 bound_to 7965
  139.7863  143.8283  152.3145 LP  0  0  0  0  0  0  0  0  0  0  0  0  # atno 17342 bound_to 10162
  139.8251  144.7278  150.9522 LP  0  0  0  0  0  0  0  0  0  0  0  0  # atno 17343 bound_to 10162
  157.3845  130.7249  149.6654 LP  0  0  0  0  0  0  0  0  0  0  0  0  # atno 17370 bound_to 10713
  155.9710  130.4163  150.4225 LP  0  0  0  0  0  0  0  0  0  0  0  0  # atno 17371 bound_to 10713
  141.2054  133.7861  157.0235 LP  0  0  0  0  0  0  0  0  0  0  0  0  # atno 17394 bound_to 11000
  140.0830  134.9637  157.1655 LP  0  0  0  0  0  0  0  0  0  0  0  0  # atno 17395 bound_to 11000

$$$$
