AV-unprocessed.smi:2152|AV-procd|sdf|8762|dock3
  -GOLD-   2272011543D 1   1.00000     0.00000
 Structure written by MMmdl.
 41 42  0  0  0  0  0  0  0  0  1 V2000
  151.3982  144.8417  159.4793 C   0  0  0  0  0  0  0  0  0  0  0  0
  151.8206  143.5891  160.2684 C   0  0  2  0  0  0  0  0  0  0  0  0
  152.4889  143.9877  161.5999 C   0  0  0  0  0  0  0  0  0  0  0  0
  152.9182  142.7590  162.4158 C   0  0  0  0  0  0  0  0  0  0  0  0
  153.8514  141.8545  161.5997 C   0  0  0  0  0  0  0  0  0  0  0  0
  153.1935  141.4356  160.2772 C   0  0  0  0  0  0  0  0  0  0  0  0
  152.7495  142.6590  159.4489 C   0  0  1  0  0  0  0  0  0  0  0  0
  152.0736  142.2083  158.2345 N   0  0  0  0  0  0  0  0  0  0  0  0
  150.8148  141.7496  158.1671 C   0  0  0  0  0  0  0  0  0  0  0  0
  150.0631  141.6864  159.1409 O   0  0  0  0  0  0  0  0  0  0  0  0
  150.3293  141.3187  156.7771 C   0  0  0  0  0  0  0  0  0  0  0  0
  150.6149  139.9078  156.4883 N   0  0  0  0  0  0  0  0  0  0  0  0
  151.3214  139.5696  155.3486 C   0  0  0  0  0  0  0  0  0  0  0  0
  151.6106  138.2961  155.0023 C   0  0  0  0  0  0  0  0  0  0  0  0
  151.1854  137.1779  155.8358 C   0  0  0  0  0  0  0  0  0  0  0  0
  151.4130  136.0025  155.5473 O   0  0  0  0  0  0  0  0  0  0  0  0
  150.4765  137.5528  157.0026 N   0  0  0  0  0  0  0  0  0  0  0  0
  149.9953  136.5138  157.8895 C   0  0  0  0  0  0  0  0  0  0  0  0
  150.1632  138.8855  157.3506 C   0  0  0  0  0  0  0  0  0  0  0  0
  149.5145  139.1589  158.3641 O   0  0  0  0  0  0  0  0  0  0  0  0
  152.2658  145.4300  159.1789 H   0  0  0  0  0  0  0  0  0  0  0  0
  150.7540  145.4842  160.0803 H   0  0  0  0  0  0  0  0  0  0  0  0
  150.8439  144.5835  158.5768 H   0  0  0  0  0  0  0  0  0  0  0  0
  150.9129  143.0336  160.5101 H   0  0  0  0  0  0  0  0  0  0  0  0
  153.3608  144.6126  161.4015 H   0  0  0  0  0  0  0  0  0  0  0  0
  151.8048  144.5953  162.1933 H   0  0  0  0  0  0  0  0  0  0  0  0
  153.4167  143.0770  163.3319 H   0  0  0  0  0  0  0  0  0  0  0  0
  152.0361  142.1955  162.7226 H   0  0  0  0  0  0  0  0  0  0  0  0
  154.7850  142.3797  161.3943 H   0  0  0  0  0  0  0  0  0  0  0  0
  154.1142  140.9701  162.1808 H   0  0  0  0  0  0  0  0  0  0  0  0
  153.8911  140.8255  159.7019 H   0  0  0  0  0  0  0  0  0  0  0  0
  152.3317  140.8011  160.4891 H   0  0  0  0  0  0  0  0  0  0  0  0
  153.6383  143.2320  159.1756 H   0  0  0  0  0  0  0  0  0  0  0  0
  152.6133  142.2307  157.3814 H   0  0  0  0  0  0  0  0  0  0  0  0
  149.2552  141.5011  156.7213 H   0  0  0  0  0  0  0  0  0  0  0  0
  150.7764  141.9544  156.0102 H   0  0  0  0  0  0  0  0  0  0  0  0
  151.6551  140.3625  154.6950 H   0  0  0  0  0  0  0  0  0  0  0  0
  152.1618  138.1014  154.0942 H   0  0  0  0  0  0  0  0  0  0  0  0
  150.1910  136.8232  158.9178 H   0  0  0  0  0  0  0  0  0  0  0  0
  150.5213  135.5766  157.7081 H   0  0  0  0  0  0  0  0  0  0  0  0
  148.9262  136.4063  157.7007 H   0  0  0  0  0  0  0  0  0  0  0  0
  1  2  1  0  0  0  0
  1 21  1  0  0  0  0
  1 22  1  0  0  0  0
  1 23  1  0  0  0  0
  2  7  1  0  0  0  0
  2  3  1  0  0  0  0
  2 24  1  0  0  0  0
  3  4  1  0  0  0  0
  3 25  1  0  0  0  0
  3 26  1  0  0  0  0
  4  5  1  0  0  0  0
  4 27  1  0  0  0  0
  4 28  1  0  0  0  0
  5  6  1  0  0  0  0
  5 29  1  0  0  0  0
  5 30  1  0  0  0  0
  6  7  1  0  0  0  0
  6 31  1  0  0  0  0
  6 32  1  0  0  0  0
  7  8  1  0  0  0  0
  7 33  1  0  0  0  0
  8  9  1  0  0  0  0
  8 34  1  0  0  0  0
  9 10  2  0  0  0  0
  9 11  1  0  0  0  0
 11 12  1  0  0  0  0
 11 35  1  0  0  0  0
 11 36  1  0  0  0  0
 12 19  1  0  0  0  0
 12 13  1  0  0  0  0
 13 14  2  0  0  0  0
 13 37  1  0  0  0  0
 14 15  1  0  0  0  0
 14 38  1  0  0  0  0
 15 16  2  0  0  0  0
 15 17  1  0  0  0  0
 17 18  1  0  0  0  0
 17 19  1  0  0  0  0
 18 39  1  0  0  0  0
 18 40  1  0  0  0  0
 18 41  1  0  0  0  0
 19 20  2  0  0  0  0
M  END
> <s_m_source_file>
AV-unprocessed.smi

> <i_m_source_file_index>
2152

> <i_lp_mmshare_version>
43012

> <i_f3d_flags>
0

> <s_epik_input>
W0NIM11bQ0BASF0xW0NIMl1bQ0gyXVtDSDJdW0NIMl1bQ0BIXTFbTkhdQyg9TylbQ0gyXW4yW2NIXVtjSF1jKD1PKW4oW0NIM10pYzI9Tw==

> <s_epik_cmdline>
J2VwaWtfcHl0aG9uJywgJy1waCcsICc3LjAnLCAnLXRuJywgJzgnLCAnLW1hJywgJzIwMCcsICctbWV0YWxfYmluZGluZycsICctaW1hZScsICc8aW5maWxlLm1hZT4nLCAnLW9tYWUnLCAnPG91dGZpbGUubWFlPic=

> <r_lp_tautomer_probability>
1

> <r_epik_Ionization_Penalty>
3.20555e-08

> <r_epik_Ionization_Penalty_Charging>
1.30086e-08

> <r_epik_Ionization_Penalty_Neutral>
1.90469e-08

> <r_epik_State_Penalty>
-0

> <r_epik_Charging_Adjusted_Penalty>
1.30086e-08

> <i_epik_Tot_Q>
0

> <i_epik_Tot_abs_Q>
0

> <r_epik_Metal_State_Penalty>
-0

> <b_epik_Metal_Only>
0

> <s_lp_Force_Field>
OPLS_2005

> <r_lp_Energy>
17.5308

> <b_lp_Chiralities_Consistent>
1

> <s_lp_Variant>
AV-unprocessed.smi:2152-1

> <Gold.Version>
5.8.1

> <Gold.Id.Protein>
6NUR|6NUR_protein|mol2

> <Gold.PLP.Fitness>
44.3655

> <Gold.PLP.PLP>
-42.5578

> <Gold.PLP.part.hbond>
-2.0000

> <Gold.PLP.part.metal>
0.0000

> <Gold.PLP.part.buried>
-3.5427

> <Gold.PLP.part.nonpolar>
-36.8634

> <Gold.PLP.part.repulsive>
0.1803

> <Gold.PLP.ligand.clash>
0.0000

> <Gold.PLP.ligand.torsion>
0.6004

> <Gold.PLP.Chemscore.Hbond>
1.0000

> <Gold.PLP.Chemscore.CHOScore>
0.0000

> <Gold.PLP.Chemscore.Metal>
0.0000

> <Gold.Chemscore.Hbonds>
donor molecule, donor type, donor heavy atom, donor atom, acceptor molecule, acceptor atom, score
      P1  H 10752 10764       L1    16  1.00

> <Gold.PLP.Chemscore.Internal.Correction>
0.0085

> <Gold.Rescore>
     Score         DG    S(hbond)    S(metal)    S(lipo)     H(rot)  DE(clash)    DE(int)     intcor
     14.31     -17.01       0.98        0.00     103.93       1.52       0.00       2.70       ----

> <Gold.Chemscore.Fitness>
14.3074

> <Gold.Chemscore.DG>
-17.0124

> <Gold.Chemscore.ZeroCoef>
-5.4800

> <Gold.Chemscore.Hbond>
0.9805

> <Gold.Chemscore.Metal>
0.0000

> <Gold.Chemscore.Lipo>
103.9251

> <Gold.Chemscore.Internal_Hbond>
0.0000

> <Gold.Chemscore.DEClash>
0.0015

> <Gold.Chemscore.DEInternal>
2.7035

> <Gold.Chemscore.Rot>
1.5242

> <Gold.Chemscore.Internal.Correction>
   9.000000E+99

> <Gold.Chemscore.Hbonds>
donor molecule, donor type, donor heavy atom, donor atom, acceptor molecule, acceptor atom, score
      P1  H 10752 10764       L1    16  0.98

> <Gold.Chemscore.Hbond.Weighted>
-3.2750

> <Gold.Chemscore.Metal.Weighted>
-0.0000

> <Gold.Chemscore.Lipo.Weighted>
-12.1592

> <Gold.Chemscore.Internal_Hbond.Weighted>
0.0000

> <Gold.Chemscore.DEClash.Weighted>
0.0015

> <Gold.Chemscore.DEInternal.Weighted>
2.7035

> <Gold.Chemscore.Rot.Weighted>
3.9019

> <Gold.Chemscore.Internal.Correction.Weighted>
   9.000000E+99

> <Gold.Protein.RotatedTorsions>
[ 6907 6896 6895 6894 ] final  -74.21 input  -60.11 | X-H torsion
[ 7974 7965 7964 7962 ] final -169.37 input  175.53 | X-H torsion
[ 8008 7997 7996 7995 ] final  159.92 input   59.86 | X-H torsion
[ 10167 10162 10161 10158 ] final   26.31 input  -65.29 | X-H torsion
[ 10718 10713 10712 10709 ] final -109.24 input   66.30 | X-H torsion
[ 10763 10752 10751 10750 ] final  -46.31 input  -60.55 | X-H torsion
[ 11005 11000 10999 10996 ] final   54.83 input  -57.11 | X-H torsion

> <Gold.Protein.ActiveResidues>
 VAL166  LYS551  ARG553  GLY616  TRP617  ASP618  TYR619  PRO620  LYS621  CYS622 
 ASP623  PHE694  ASN695  SER759  ASP760  ASP761  ALA762  ILE779  LEU786  VAL792 
 PHE793  MET794  SER795  GLU796  ALA797  LYS798  CYS799  TRP800  GLU811  SER814 

> <Gold.Protein.RotatedAtoms>
  150.7101  134.4902  159.5511 H   0  0  0  0  0  0  0  0  0  0  0  0  # atno 6907 bound_to 6896
  152.2521  134.8119  160.0453 H   0  0  0  0  0  0  0  0  0  0  0  0  # atno 6908 bound_to 6896
  151.8862  133.3471  159.3820 H   0  0  0  0  0  0  0  0  0  0  0  0  # atno 6909 bound_to 6896
  144.7186  140.2231  143.6313 H   0  0  0  0  0  0  0  0  0  0  0  0  # atno 7974 bound_to 7965
  156.2207  140.1818  156.7484 H   0  0  0  0  0  0  0  0  0  0  0  0  # atno 8008 bound_to 7997
  154.5861  140.0658  156.9201 H   0  0  0  0  0  0  0  0  0  0  0  0  # atno 8009 bound_to 7997
  155.2418  140.3322  155.4294 H   0  0  0  0  0  0  0  0  0  0  0  0  # atno 8010 bound_to 7997
  140.5034  144.0279  150.6342 H   0  0  0  0  0  0  0  0  0  0  0  0  # atno 10167 bound_to 10162
  156.0527  130.5754  150.8073 H   0  0  0  0  0  0  0  0  0  0  0  0  # atno 10718 bound_to 10713
  154.0429  135.6641  153.4792 H   0  0  0  0  0  0  0  0  0  0  0  0  # atno 10763 bound_to 10752
  153.0494  135.5094  154.7825 H   0  0  0  0  0  0  0  0  0  0  0  0  # atno 10764 bound_to 10752
  154.6807  135.3044  154.9583 H   0  0  0  0  0  0  0  0  0  0  0  0  # atno 10765 bound_to 10752
  140.0655  134.5542  155.9104 H   0  0  0  0  0  0  0  0  0  0  0  0  # atno 11005 bound_to 11000
  145.8482  139.2162  143.1787 LP  0  0  0  0  0  0  0  0  0  0  0  0  # atno 17320 bound_to 7965
  146.0285  140.8281  142.9888 LP  0  0  0  0  0  0  0  0  0  0  0  0  # atno 17321 bound_to 7965
  140.3581  143.2924  152.0414 LP  0  0  0  0  0  0  0  0  0  0  0  0  # atno 17342 bound_to 10162
  139.4877  144.6324  151.7044 LP  0  0  0  0  0  0  0  0  0  0  0  0  # atno 17343 bound_to 10162
  157.5468  131.0942  150.9751 LP  0  0  0  0  0  0  0  0  0  0  0  0  # atno 17370 bound_to 10713
  157.0020  130.5603  149.5312 LP  0  0  0  0  0  0  0  0  0  0  0  0  # atno 17371 bound_to 10713
  141.1991  133.6605  156.5826 LP  0  0  0  0  0  0  0  0  0  0  0  0  # atno 17394 bound_to 11000
  140.3705  134.7610  157.4595 LP  0  0  0  0  0  0  0  0  0  0  0  0  # atno 17395 bound_to 11000

$$$$
