AV-unprocessed.smi:261|AV-procd|sdf|1983|dock3
  -GOLD-   2262021163D 1   1.00000     0.00000
 Structure written by MMmdl.
 51 54  0  0  0  0  0  0  0  0  1 V2000
  152.1409  144.4222  159.5965 C   0  0  0  0  0  0  0  0  0  0  0  0
  152.7345  143.1502  159.3956 O   0  0  0  0  0  0  0  0  0  0  0  0
  151.8050  142.1488  159.0100 C   0  0  1  0  0  0  0  0  0  0  0  0
  150.9992  142.5970  157.7972 C   0  0  0  0  0  0  0  0  0  0  0  0
  150.4918  141.2727  157.2099 C   0  0  1  0  0  0  0  0  0  0  0  0
  150.1961  141.3847  155.7076 C   0  0  0  0  0  0  0  0  0  0  0  0
  149.4087  142.3918  155.3237 N   0  0  0  0  0  0  0  0  0  0  0  0
  150.6789  140.5893  154.9031 O   0  0  0  0  0  0  0  0  0  0  0  0
  151.5670  140.3166  157.4895 N   0  0  0  0  0  0  0  0  0  0  0  0
  151.1619  139.0428  157.6881 C   0  0  0  0  0  0  0  0  0  0  0  0
  150.8148  138.6904  158.9497 N   0  0  0  0  0  0  0  0  0  0  0  0
  150.4185  137.4402  159.2080 C   0  0  0  0  0  0  0  0  0  0  0  0
  150.3048  136.4091  158.3673 N   0  0  0  0  0  0  0  0  0  0  0  0
  150.6566  136.7628  157.0977 C   0  0  0  0  0  0  0  0  0  0  0  0
  151.0908  138.0489  156.6720 C   0  0  0  0  0  0  0  0  0  0  0  0
  151.3619  138.0331  155.3089 N   0  0  0  0  0  0  0  0  0  0  0  0
  151.1038  136.8055  154.9489 C   0  0  0  0  0  0  0  0  0  0  0  0
  150.6749  135.9757  155.9600 N   0  0  0  0  0  0  0  0  0  0  0  0
  150.3284  134.5701  155.8378 C   0  0  0  0  0  0  0  0  0  0  0  0
  149.2858  134.3116  154.7291 C   0  0  2  0  0  0  0  0  0  0  0  0
  148.0110  134.6534  155.2381 O   0  0  0  0  0  0  0  0  0  0  0  0
  149.2345  132.8375  154.2787 C   0  0  2  0  0  0  0  0  0  0  0  0
  148.1564  132.5192  153.2398 C   0  0  0  0  0  0  0  0  0  0  0  0
  147.8941  131.0351  153.4357 C   0  0  0  0  0  0  0  0  0  0  0  0
  148.4695  130.7415  154.8230 C   0  0  0  0  0  0  0  0  0  0  0  0
  148.8168  132.0119  155.3562 O   0  0  0  0  0  0  0  0  0  0  0  0
  152.4652  140.8632  158.5025 C   0  0  0  0  0  0  0  0  0  0  0  0
  151.1157  141.9231  159.8261 H   0  0  0  0  0  0  0  0  0  0  0  0
  149.5811  140.9790  157.7366 H   0  0  0  0  0  0  0  0  0  0  0  0
  152.9121  145.1453  159.8610 H   0  0  0  0  0  0  0  0  0  0  0  0
  151.4116  144.4010  160.4067 H   0  0  0  0  0  0  0  0  0  0  0  0
  151.6473  144.7745  158.6899 H   0  0  0  0  0  0  0  0  0  0  0  0
  150.1895  143.2769  158.0645 H   0  0  0  0  0  0  0  0  0  0  0  0
  151.6518  143.1134  157.0903 H   0  0  0  0  0  0  0  0  0  0  0  0
  149.1818  142.5116  154.3472 H   0  0  0  0  0  0  0  0  0  0  0  0
  149.0423  143.0308  156.0141 H   0  0  0  0  0  0  0  0  0  0  0  0
  150.1566  137.2366  160.2358 H   0  0  0  0  0  0  0  0  0  0  0  0
  151.2199  136.4683  153.9289 H   0  0  0  0  0  0  0  0  0  0  0  0
  151.2486  134.0215  155.6366 H   0  0  0  0  0  0  0  0  0  0  0  0
  149.9585  134.2116  156.7994 H   0  0  0  0  0  0  0  0  0  0  0  0
  149.5056  134.9497  153.8721 H   0  0  0  0  0  0  0  0  0  0  0  0
  147.4186  133.9366  155.0698 H   0  0  0  0  0  0  0  0  0  0  0  0
  150.2076  132.5042  153.9114 H   0  0  0  0  0  0  0  0  0  0  0  0
  147.2465  133.0800  153.4591 H   0  0  0  0  0  0  0  0  0  0  0  0
  148.4650  132.7612  152.2221 H   0  0  0  0  0  0  0  0  0  0  0  0
  146.8276  130.8140  153.3800 H   0  0  0  0  0  0  0  0  0  0  0  0
  148.4028  130.4389  152.6774 H   0  0  0  0  0  0  0  0  0  0  0  0
  147.7594  130.2272  155.4708 H   0  0  0  0  0  0  0  0  0  0  0  0
  149.3671  130.1262  154.7445 H   0  0  0  0  0  0  0  0  0  0  0  0
  153.4103  141.0926  158.0089 H   0  0  0  0  0  0  0  0  0  0  0  0
  152.6855  140.1723  159.3180 H   0  0  0  0  0  0  0  0  0  0  0  0
  1  2  1  0  0  0  0
  1 30  1  0  0  0  0
  1 31  1  0  0  0  0
  1 32  1  0  0  0  0
  2  3  1  0  0  0  0
  3 28  1  0  0  0  0
  3 27  1  0  0  0  0
  3  4  1  0  0  0  0
  4  5  1  0  0  0  0
  4 33  1  0  0  0  0
  4 34  1  0  0  0  0
  5 29  1  0  0  0  0
  5  6  1  0  0  0  0
  5  9  1  0  0  0  0
  6  7  1  0  0  0  0
  6  8  2  0  0  0  0
  7 35  1  0  0  0  0
  7 36  1  0  0  0  0
  9 10  1  0  0  0  0
  9 27  1  0  0  0  0
 10 15  1  0  0  0  0
 10 11  2  0  0  0  0
 11 12  1  0  0  0  0
 12 13  2  0  0  0  0
 12 37  1  0  0  0  0
 13 14  1  0  0  0  0
 14 18  1  0  0  0  0
 14 15  2  0  0  0  0
 15 16  1  0  0  0  0
 16 17  2  0  0  0  0
 17 18  1  0  0  0  0
 17 38  1  0  0  0  0
 18 19  1  0  0  0  0
 19 20  1  0  0  0  0
 19 39  1  0  0  0  0
 19 40  1  0  0  0  0
 20 21  1  0  0  0  0
 20 22  1  0  0  0  0
 20 41  1  0  0  0  0
 21 42  1  0  0  0  0
 22 26  1  0  0  0  0
 22 23  1  0  0  0  0
 22 43  1  0  0  0  0
 23 24  1  0  0  0  0
 23 44  1  0  0  0  0
 23 45  1  0  0  0  0
 24 25  1  0  0  0  0
 24 46  1  0  0  0  0
 24 47  1  0  0  0  0
 25 26  1  0  0  0  0
 25 48  1  0  0  0  0
 25 49  1  0  0  0  0
 27 50  1  0  0  0  0
 27 51  1  0  0  0  0
M  END
> <s_m_source_file>
AV-unprocessed.smi

> <i_m_source_file_index>
261

> <i_lp_mmshare_version>
43012

> <i_f3d_flags>
0

> <s_epik_input>
W0NIM11PW0NASF0xW0NIMl1bQ0BASF0oQyg9TylbTkgyXSlOKFtDSDJdMSljKG5bY0hdbjIpYyhjMjMpbltjSF1uM1tDSDJdW0NASF0oW09IXSlbQ0BASF00W0NIMl1bQ0gyXVtDSDJdTzQ=

> <s_epik_cmdline>
J2VwaWtfcHl0aG9uJywgJy1waCcsICc3LjAnLCAnLXRuJywgJzgnLCAnLW1hJywgJzIwMCcsICctbWV0YWxfYmluZGluZycsICctaW1hZScsICc8aW5maWxlLm1hZT4nLCAnLW9tYWUnLCAnPG91dGZpbGUubWFlPic=

> <r_lp_tautomer_probability>
1

> <r_epik_Ionization_Penalty>
0.000713824

> <r_epik_Ionization_Penalty_Charging>
0

> <r_epik_Ionization_Penalty_Neutral>
0.000713824

> <r_epik_State_Penalty>
0.000402132

> <r_epik_Charging_Adjusted_Penalty>
0.000402132

> <i_epik_Tot_Q>
0

> <i_epik_Tot_abs_Q>
0

> <r_epik_Metal_State_Penalty>
-0

> <b_epik_Metal_Only>
0

> <s_lp_Force_Field>
OPLS_2005

> <r_lp_Energy>
45.6621

> <b_lp_Chiralities_Consistent>
1

> <s_lp_Variant>
AV-unprocessed.smi:261-1

> <Gold.Version>
5.8.1

> <Gold.Id.Protein>
6NUR|6NUR_protein|mol2

> <Gold.PLP.Fitness>
48.1599

> <Gold.PLP.PLP>
-39.9083

> <Gold.PLP.part.hbond>
-2.9308

> <Gold.PLP.part.metal>
0.0000

> <Gold.PLP.part.buried>
-6.3204

> <Gold.PLP.part.nonpolar>
-31.2673

> <Gold.PLP.part.repulsive>
0.3496

> <Gold.PLP.ligand.clash>
0.0000

> <Gold.PLP.ligand.torsion>
1.0479

> <Gold.PLP.Chemscore.Hbond>
2.3864

> <Gold.PLP.Chemscore.CHOScore>
1.0000

> <Gold.PLP.Chemscore.Metal>
0.0000

> <Gold.Chemscore.Hbonds>
donor molecule, donor type, donor heavy atom, donor atom, acceptor molecule, acceptor atom, score
      L1  H     7    36       P1  8028  0.42
      P1  H  6896  6907       L1    13  0.70
      P1  H  7989  7998       L1     8  0.98
      L1  C    17    38       P1  7949  1.00

> <Gold.PLP.Chemscore.Internal.Correction>
0.1883

> <Gold.Rescore>
     Score         DG    S(hbond)    S(metal)    S(lipo)     H(rot)  DE(clash)    DE(int)     intcor
     11.09     -13.67       2.50        0.00      76.84       3.57       0.11       2.48       ----

> <Gold.Chemscore.Fitness>
11.0866

> <Gold.Chemscore.DG>
-13.6704

> <Gold.Chemscore.ZeroCoef>
-5.4800

> <Gold.Chemscore.Hbond>
2.4999

> <Gold.Chemscore.Metal>
0.0000

> <Gold.Chemscore.Lipo>
76.8385

> <Gold.Chemscore.Internal_Hbond>
0.0000

> <Gold.Chemscore.DEClash>
0.1075

> <Gold.Chemscore.DEInternal>
2.4763

> <Gold.Chemscore.Rot>
3.5740

> <Gold.Chemscore.Internal.Correction>
   9.000000E+99

> <Gold.Chemscore.Hbonds>
donor molecule, donor type, donor heavy atom, donor atom, acceptor molecule, acceptor atom, score
      L1  H     7    36       P1  8028  0.42
      P1  H  6896  6907       L1    13  0.11
      P1  H  7989  7998       L1     8  0.93

> <Gold.Chemscore.Hbond.Weighted>
-8.3498

> <Gold.Chemscore.Metal.Weighted>
-0.0000

> <Gold.Chemscore.Lipo.Weighted>
-8.9901

> <Gold.Chemscore.Internal_Hbond.Weighted>
0.0000

> <Gold.Chemscore.DEClash.Weighted>
0.1075

> <Gold.Chemscore.DEInternal.Weighted>
2.4763

> <Gold.Chemscore.Rot.Weighted>
9.1495

> <Gold.Chemscore.Internal.Correction.Weighted>
   9.000000E+99

> <Gold.Protein.RotatedTorsions>
[ 6907 6896 6895 6894 ] final  -45.99 input  -60.11 | X-H torsion
[ 7974 7965 7964 7962 ] final  130.23 input  175.53 | X-H torsion
[ 8008 7997 7996 7995 ] final  100.01 input   59.86 | X-H torsion
[ 10167 10162 10161 10158 ] final   70.16 input  -65.29 | X-H torsion
[ 10718 10713 10712 10709 ] final  -24.65 input   66.30 | X-H torsion
[ 10763 10752 10751 10750 ] final  -54.00 input  -60.55 | X-H torsion
[ 11005 11000 10999 10996 ] final -109.61 input  -57.11 | X-H torsion

> <Gold.Protein.ActiveResidues>
 VAL166  LYS551  ARG553  GLY616  TRP617  ASP618  TYR619  PRO620  LYS621  CYS622 
 ASP623  PHE694  ASN695  SER759  ASP760  ASP761  ALA762  ILE779  LEU786  VAL792 
 PHE793  MET794  SER795  GLU796  ALA797  LYS798  CYS799  TRP800  GLU811  SER814 

> <Gold.Protein.RotatedAtoms>
  150.9161  134.8578  159.7457 H   0  0  0  0  0  0  0  0  0  0  0  0  # atno 6907 bound_to 6896
  152.4969  134.4288  159.9515 H   0  0  0  0  0  0  0  0  0  0  0  0  # atno 6908 bound_to 6896
  151.4326  133.3626  159.2806 H   0  0  0  0  0  0  0  0  0  0  0  0  # atno 6909 bound_to 6896
  145.0201  139.4140  143.5202 H   0  0  0  0  0  0  0  0  0  0  0  0  # atno 7974 bound_to 7965
  156.1162  140.3220  155.8142 H   0  0  0  0  0  0  0  0  0  0  0  0  # atno 8008 bound_to 7997
  155.4586  140.0537  157.3010 H   0  0  0  0  0  0  0  0  0  0  0  0  # atno 8009 bound_to 7997
  154.4794  140.2046  155.9813 H   0  0  0  0  0  0  0  0  0  0  0  0  # atno 8010 bound_to 7997
  140.0599  144.5241  150.7302 H   0  0  0  0  0  0  0  0  0  0  0  0  # atno 10167 bound_to 10162
  156.4748  130.4532  149.6847 H   0  0  0  0  0  0  0  0  0  0  0  0  # atno 10718 bound_to 10713
  154.1678  135.6464  153.5002 H   0  0  0  0  0  0  0  0  0  0  0  0  # atno 10763 bound_to 10752
  153.0092  135.5376  154.6644 H   0  0  0  0  0  0  0  0  0  0  0  0  # atno 10764 bound_to 10752
  154.5975  135.2940  155.0543 H   0  0  0  0  0  0  0  0  0  0  0  0  # atno 10765 bound_to 10752
  141.0838  133.9175  157.2231 H   0  0  0  0  0  0  0  0  0  0  0  0  # atno 11005 bound_to 11000
  146.3484  139.9694  142.8708 LP  0  0  0  0  0  0  0  0  0  0  0  0  # atno 17320 bound_to 7965
  145.1907  140.9810  143.4212 LP  0  0  0  0  0  0  0  0  0  0  0  0  # atno 17321 bound_to 7965
  140.7177  143.2559  151.4382 LP  0  0  0  0  0  0  0  0  0  0  0  0  # atno 17342 bound_to 10162
  139.5900  144.1520  152.2077 LP  0  0  0  0  0  0  0  0  0  0  0  0  # atno 17343 bound_to 10162
  156.3581  130.7467  151.2436 LP  0  0  0  0  0  0  0  0  0  0  0  0  # atno 17370 bound_to 10713
  157.7488  131.0358  150.4379 LP  0  0  0  0  0  0  0  0  0  0  0  0  # atno 17371 bound_to 10713
  139.9654  135.0143  156.9372 LP  0  0  0  0  0  0  0  0  0  0  0  0  # atno 17394 bound_to 11000
  140.5410  134.0720  155.7341 LP  0  0  0  0  0  0  0  0  0  0  0  0  # atno 17395 bound_to 11000

$$$$
