AV-unprocessed.smi:2886|AV-procd|sdf|11095|dock2
  -GOLD-   2272015563D 1   1.00000     0.00000
 Structure written by MMmdl.
 27 29  0  0  0  0  0  0  0  0  2 V2000
  151.3448  138.9807  154.3097 O   0  0  0  0  0  0  0  0  0  0  0  0
  151.6888  139.3984  155.4141 C   0  0  0  0  0  0  0  0  0  0  0  0
  152.6656  138.7879  156.1512 N   0  5  0  0  0  0  0  0  0  0  0  0
  153.0290  139.3104  157.4496 N   0  0  0  0  0  0  0  0  0  0  0  0
  152.4575  140.3457  157.9246 C   0  0  0  0  0  0  0  0  0  0  0  0
  151.3994  141.0788  157.1866 C   0  0  0  0  0  0  0  0  0  0  0  0
  150.7753  142.2077  157.7031 N   0  0  0  0  0  0  0  0  0  0  0  0
  151.0004  142.8709  158.9795 C   0  0  2  0  0  0  0  0  0  0  0  0
  150.4177  144.2858  159.0161 C   0  0  0  0  0  0  0  0  0  0  0  0
  151.6506  145.1230  159.3797 C   0  0  1  0  0  0  0  0  0  0  0  0
  152.1222  144.8713  160.8186 C   0  0  0  0  0  0  0  0  0  0  0  0
  152.7518  143.4829  160.7030 C   0  0  0  0  0  0  0  0  0  0  0  0
  152.4933  143.1405  159.2295 C   0  0  2  0  0  0  0  0  0  0  0  0
  152.6473  144.4272  158.6517 O   0  0  0  0  0  0  0  0  0  0  0  0
  151.0401  140.5914  155.9716 C   0  0  0  0  0  0  0  0  0  0  0  0
  149.8055  141.3710  155.0365 Cl  0  0  0  0  0  0  0  0  0  0  0  0
  152.7247  140.7355  158.9092 H   0  0  0  0  0  0  0  0  0  0  0  0
  150.1772  142.7166  157.0678 H   0  0  0  0  0  0  0  0  0  0  0  0
  150.6091  142.2597  159.7923 H   0  0  0  0  0  0  0  0  0  0  0  0
  150.0331  144.5851  158.0400 H   0  0  0  0  0  0  0  0  0  0  0  0
  149.6119  144.3899  159.7434 H   0  0  0  0  0  0  0  0  0  0  0  0
  151.5601  146.1781  159.1209 H   0  0  0  0  0  0  0  0  0  0  0  0
  152.8698  145.6061  161.1193 H   0  0  0  0  0  0  0  0  0  0  0  0
  151.3001  144.9065  161.5343 H   0  0  0  0  0  0  0  0  0  0  0  0
  153.8223  143.5318  160.9049 H   0  0  0  0  0  0  0  0  0  0  0  0
  152.3085  142.7571  161.3857 H   0  0  0  0  0  0  0  0  0  0  0  0
  153.1648  142.3780  158.8328 H   0  0  0  0  0  0  0  0  0  0  0  0
  1  2  2  0  0  0  0
  2 15  1  0  0  0  0
  2  3  1  0  0  0  0
  3  4  1  0  0  0  0
  4  5  2  0  0  0  0
  5  6  1  0  0  0  0
  5 17  1  0  0  0  0
  6  7  1  0  0  0  0
  6 15  2  0  0  0  0
  7  8  1  0  0  0  0
  7 18  1  0  0  0  0
  8 13  1  0  0  0  0
  8  9  1  0  0  0  0
  8 19  1  0  0  0  0
  9 10  1  0  0  0  0
  9 20  1  0  0  0  0
  9 21  1  0  0  0  0
 10 14  1  0  0  0  0
 10 11  1  0  0  0  0
 10 22  1  0  0  0  0
 11 12  1  0  0  0  0
 11 23  1  0  0  0  0
 11 24  1  0  0  0  0
 12 13  1  0  0  0  0
 12 25  1  0  0  0  0
 12 26  1  0  0  0  0
 13 14  1  0  0  0  0
 13 27  1  0  0  0  0
 15 16  1  0  0  0  0
M  CHG  1   3  -1
M  END
> <s_m_source_file>
AV-unprocessed.smi

> <i_m_source_file_index>
2886

> <i_lp_mmshare_version>
43012

> <i_f3d_flags>
0

> <s_epik_input>
Tz1jMVtuSF1uW2NIXWMoYzFDbClbTkhdW0NASF0oW0NIMl1bQ0BASF0yMylbQ0BASF0oTzMpW0NIMl1bQ0gyXTI=

> <s_epik_cmdline>
J2VwaWtfcHl0aG9uJywgJy1waCcsICc3LjAnLCAnLXRuJywgJzgnLCAnLW1hJywgJzIwMCcsICctbWV0YWxfYmluZGluZycsICctaW1hZScsICc8aW5maWxlLm1hZT4nLCAnLW9tYWUnLCAnPG91dGZpbGUubWFlPic=

> <r_lp_tautomer_probability>
0.986175

> <r_epik_Ionization_Penalty>
3.84253

> <r_epik_Ionization_Penalty_Charging>
0.0129711

> <r_epik_Ionization_Penalty_Neutral>
3.82956

> <r_epik_State_Penalty>
3.8249

> <r_epik_Charging_Adjusted_Penalty>
3.83787

> <i_epik_Tot_Q>
-1

> <i_epik_Tot_abs_Q>
1

> <r_epik_Metal_State_Penalty>
0.57612

> <b_epik_Metal_Only>
1

> <s_lp_Force_Field>
OPLS_2005

> <r_lp_Energy>
60.5374

> <b_lp_Chiralities_Consistent>
1

> <s_lp_Variant>
AV-unprocessed.smi:2886-9

> <Gold.Version>
5.8.1

> <Gold.Id.Protein>
6NUR|6NUR_protein|mol2

> <Gold.PLP.Fitness>
38.3997

> <Gold.PLP.PLP>
-34.0377

> <Gold.PLP.part.hbond>
-2.7434

> <Gold.PLP.part.metal>
0.0000

> <Gold.PLP.part.buried>
-3.2699

> <Gold.PLP.part.nonpolar>
-27.0189

> <Gold.PLP.part.repulsive>
0.1971

> <Gold.PLP.ligand.clash>
0.0000

> <Gold.PLP.ligand.torsion>
0.1538

> <Gold.PLP.Chemscore.Hbond>
1.5500

> <Gold.PLP.Chemscore.CHOScore>
0.0000

> <Gold.PLP.Chemscore.Metal>
0.0000

> <Gold.Chemscore.Hbonds>
donor molecule, donor type, donor heavy atom, donor atom, acceptor molecule, acceptor atom, score
      P1  H  7989  7998       L1     1  0.51
      P1  H  7997  8010       L1     4  0.90

> <Gold.PLP.Chemscore.Internal.Correction>
0.0195

> <Gold.Rescore>
     Score         DG    S(hbond)    S(metal)    S(lipo)     H(rot)  DE(clash)    DE(int)     intcor
     14.10     -14.26       0.14        0.00      92.85       1.00       0.04       0.12       ----

> <Gold.Chemscore.Fitness>
14.0973

> <Gold.Chemscore.DG>
-14.2554

> <Gold.Chemscore.ZeroCoef>
-5.4800

> <Gold.Chemscore.Hbond>
0.1414

> <Gold.Chemscore.Metal>
0.0000

> <Gold.Chemscore.Lipo>
92.8468

> <Gold.Chemscore.Internal_Hbond>
0.0000

> <Gold.Chemscore.DEClash>
0.0416

> <Gold.Chemscore.DEInternal>
0.1165

> <Gold.Chemscore.Rot>
1.0000

> <Gold.Chemscore.Internal.Correction>
   9.000000E+99

> <Gold.Chemscore.Hbonds>
donor molecule, donor type, donor heavy atom, donor atom, acceptor molecule, acceptor atom, score
      P1  H  7989  7998       L1     1  0.03
      P1  H  7997  8010       L1     4  0.05

> <Gold.Chemscore.Hbond.Weighted>
-0.4723

> <Gold.Chemscore.Metal.Weighted>
-0.0000

> <Gold.Chemscore.Lipo.Weighted>
-10.8631

> <Gold.Chemscore.Internal_Hbond.Weighted>
0.0000

> <Gold.Chemscore.DEClash.Weighted>
0.0416

> <Gold.Chemscore.DEInternal.Weighted>
0.1165

> <Gold.Chemscore.Rot.Weighted>
2.5600

> <Gold.Chemscore.Internal.Correction.Weighted>
   9.000000E+99

> <Gold.Protein.RotatedTorsions>
[ 6907 6896 6895 6894 ] final -150.17 input  -60.11 | X-H torsion
[ 7974 7965 7964 7962 ] final  -77.89 input  175.53 | X-H torsion
[ 8008 7997 7996 7995 ] final   33.02 input   59.86 | X-H torsion
[ 10167 10162 10161 10158 ] final   13.73 input  -65.29 | X-H torsion
[ 10718 10713 10712 10709 ] final -171.19 input   66.30 | X-H torsion
[ 10763 10752 10751 10750 ] final -137.82 input  -60.55 | X-H torsion
[ 11005 11000 10999 10996 ] final  -37.80 input  -57.11 | X-H torsion

> <Gold.Protein.ActiveResidues>
 VAL166  LYS551  ARG553  GLY616  TRP617  ASP618  TYR619  PRO620  LYS621  CYS622 
 ASP623  PHE694  ASN695  SER759  ASP760  ASP761  ALA762  ILE779  LEU786  VAL792 
 PHE793  MET794  SER795  GLU796  ALA797  LYS798  CYS799  TRP800  GLU811  SER814 

> <Gold.Protein.RotatedAtoms>
  151.1946  133.4647  159.2595 H   0  0  0  0  0  0  0  0  0  0  0  0  # atno 6907 bound_to 6896
  151.1129  135.0037  159.8512 H   0  0  0  0  0  0  0  0  0  0  0  0  # atno 6908 bound_to 6896
  152.5451  134.1864  159.8709 H   0  0  0  0  0  0  0  0  0  0  0  0  # atno 6909 bound_to 6896
  145.5937  140.9424  143.1278 H   0  0  0  0  0  0  0  0  0  0  0  0  # atno 7974 bound_to 7965
  155.1319  140.3258  155.4472 H   0  0  0  0  0  0  0  0  0  0  0  0  # atno 8008 bound_to 7997
  156.2632  140.2009  156.6387 H   0  0  0  0  0  0  0  0  0  0  0  0  # atno 8009 bound_to 7997
  154.6606  140.0547  157.0045 H   0  0  0  0  0  0  0  0  0  0  0  0  # atno 8010 bound_to 7997
  140.5983  143.8657  150.6939 H   0  0  0  0  0  0  0  0  0  0  0  0  # atno 10167 bound_to 10162
  156.7373  130.9329  151.3108 H   0  0  0  0  0  0  0  0  0  0  0  0  # atno 10718 bound_to 10713
  154.8652  135.3630  154.5285 H   0  0  0  0  0  0  0  0  0  0  0  0  # atno 10763 bound_to 10752
  153.5912  135.7015  153.5427 H   0  0  0  0  0  0  0  0  0  0  0  0  # atno 10764 bound_to 10752
  153.3372  135.4108  155.1505 H   0  0  0  0  0  0  0  0  0  0  0  0  # atno 10765 bound_to 10752
  140.9980  133.6970  156.1969 H   0  0  0  0  0  0  0  0  0  0  0  0  # atno 11005 bound_to 11000
  144.7340  139.7640  143.7336 LP  0  0  0  0  0  0  0  0  0  0  0  0  # atno 17320 bound_to 7965
  146.1628  139.4748  142.9977 LP  0  0  0  0  0  0  0  0  0  0  0  0  # atno 17321 bound_to 7965
  140.2197  143.3819  152.1653 LP  0  0  0  0  0  0  0  0  0  0  0  0  # atno 17342 bound_to 10162
  139.5273  144.7118  151.5183 LP  0  0  0  0  0  0  0  0  0  0  0  0  # atno 17343 bound_to 10162
  157.6833  130.9161  150.0323 LP  0  0  0  0  0  0  0  0  0  0  0  0  # atno 17370 bound_to 10713
  156.1488  130.3642  149.9469 LP  0  0  0  0  0  0  0  0  0  0  0  0  # atno 17371 bound_to 10713
  140.6935  134.4640  157.5588 LP  0  0  0  0  0  0  0  0  0  0  0  0  # atno 17394 bound_to 11000
  139.9024  134.8525  156.1841 LP  0  0  0  0  0  0  0  0  0  0  0  0  # atno 17395 bound_to 11000

$$$$
