AV-unprocessed.smi:2473|AV-procd|sdf|9744|dock9
  -GOLD-   2272013383D 1   1.00000     0.00000
 Structure written by MMmdl.
 48 49  0  0  0  0  0  0  0  0  2 V2000
  153.6339  140.7782  160.1845 C   0  0  0  0  0  0  0  0  0  0  0  0
  152.8790  141.7800  159.2991 C   0  0  1  0  0  0  0  0  0  0  0  0
  151.5107  141.2231  158.8705 C   0  0  0  0  0  0  0  0  0  0  0  0
  150.7487  142.2200  157.9766 C   0  0  1  0  0  0  0  0  0  0  0  0
  149.3894  141.6375  157.5680 C   0  0  0  0  0  0  0  0  0  0  0  0
  149.0383  140.5281  157.9704 O   0  0  0  0  0  0  0  0  0  0  0  0
  148.6422  142.3882  156.7449 N   0  0  0  0  0  0  0  0  0  0  0  0
  147.3556  141.9906  156.1818 C   0  0  0  0  0  0  0  0  0  0  0  0
  147.3550  141.9740  154.6395 C   0  0  0  0  0  0  0  0  0  0  0  0
  147.3787  140.5959  154.0431 C   0  0  0  0  0  0  0  0  0  0  0  0
  146.4013  140.0625  153.3005 N   0  3  0  0  0  0  0  0  0  0  0  0
  146.7385  138.7981  152.9020 C   0  0  0  0  0  0  0  0  0  0  0  0
  147.9781  138.5450  153.4274 C   0  0  0  0  0  0  0  0  0  0  0  0
  148.3460  139.6655  154.1270 N   0  0  0  0  0  0  0  0  0  0  0  0
  149.5953  139.8505  154.8685 C   0  0  0  0  0  0  0  0  0  0  0  0
  150.5858  143.5755  158.7011 C   0  0  0  0  0  0  0  0  0  0  0  0
  151.9280  144.1872  159.1744 C   0  0  0  0  0  0  0  0  0  0  0  0
  152.7680  144.6772  157.9745 C   0  0  0  0  0  0  0  0  0  0  0  0
  151.6288  145.4082  160.0664 C   0  0  0  0  0  0  0  0  0  0  0  0
  152.7082  143.1395  160.0085 C   0  0  0  0  0  0  0  0  0  0  0  0
  153.0881  140.5715  161.1055 H   0  0  0  0  0  0  0  0  0  0  0  0
  154.6172  141.1608  160.4593 H   0  0  0  0  0  0  0  0  0  0  0  0
  153.7833  139.8305  159.6663 H   0  0  0  0  0  0  0  0  0  0  0  0
  153.4809  141.9284  158.4025 H   0  0  0  0  0  0  0  0  0  0  0  0
  151.6516  140.2815  158.3375 H   0  0  0  0  0  0  0  0  0  0  0  0
  150.9194  140.9892  159.7578 H   0  0  0  0  0  0  0  0  0  0  0  0
  151.3289  142.3783  157.0668 H   0  0  0  0  0  0  0  0  0  0  0  0
  149.0022  143.2916  156.4723 H   0  0  0  0  0  0  0  0  0  0  0  0
  147.0549  141.0179  156.5741 H   0  0  0  0  0  0  0  0  0  0  0  0
  146.6145  142.7076  156.5361 H   0  0  0  0  0  0  0  0  0  0  0  0
  146.4807  142.4961  154.2526 H   0  0  0  0  0  0  0  0  0  0  0  0
  148.2293  142.4987  154.2533 H   0  0  0  0  0  0  0  0  0  0  0  0
  146.0880  138.1890  152.2914 H   0  0  0  0  0  0  0  0  0  0  0  0
  148.6087  137.6702  153.3589 H   0  0  0  0  0  0  0  0  0  0  0  0
  150.2375  138.9811  154.7256 H   0  0  0  0  0  0  0  0  0  0  0  0
  149.3709  139.9631  155.9293 H   0  0  0  0  0  0  0  0  0  0  0  0
  150.1105  140.7378  154.5032 H   0  0  0  0  0  0  0  0  0  0  0  0
  150.0667  144.2824  158.0518 H   0  0  0  0  0  0  0  0  0  0  0  0
  149.9385  143.4386  159.5692 H   0  0  0  0  0  0  0  0  0  0  0  0
  153.7005  145.1340  158.3076 H   0  0  0  0  0  0  0  0  0  0  0  0
  152.2273  145.4275  157.3962 H   0  0  0  0  0  0  0  0  0  0  0  0
  153.0331  143.8738  157.2890 H   0  0  0  0  0  0  0  0  0  0  0  0
  152.5476  145.8723  160.4269 H   0  0  0  0  0  0  0  0  0  0  0  0
  151.0388  145.1310  160.9407 H   0  0  0  0  0  0  0  0  0  0  0  0
  151.0681  146.1694  159.5229 H   0  0  0  0  0  0  0  0  0  0  0  0
  152.1847  142.9718  160.9512 H   0  0  0  0  0  0  0  0  0  0  0  0
  153.6869  143.5381  160.2793 H   0  0  0  0  0  0  0  0  0  0  0  0
  145.5352  140.5317  153.0673 H   0  0  0  0  0  0  0  0  0  0  0  0
  1  2  1  0  0  0  0
  1 21  1  0  0  0  0
  1 22  1  0  0  0  0
  1 23  1  0  0  0  0
  2 20  1  0  0  0  0
  2  3  1  0  0  0  0
  2 24  1  0  0  0  0
  3  4  1  0  0  0  0
  3 25  1  0  0  0  0
  3 26  1  0  0  0  0
  4  5  1  0  0  0  0
  4 16  1  0  0  0  0
  4 27  1  0  0  0  0
  5  6  2  0  0  0  0
  5  7  1  0  0  0  0
  7  8  1  0  0  0  0
  7 28  1  0  0  0  0
  8  9  1  0  0  0  0
  8 29  1  0  0  0  0
  8 30  1  0  0  0  0
  9 10  1  0  0  0  0
  9 31  1  0  0  0  0
  9 32  1  0  0  0  0
 10 14  1  0  0  0  0
 10 11  2  0  0  0  0
 11 12  1  0  0  0  0
 11 48  1  0  0  0  0
 12 13  2  0  0  0  0
 12 33  1  0  0  0  0
 13 14  1  0  0  0  0
 13 34  1  0  0  0  0
 14 15  1  0  0  0  0
 15 35  1  0  0  0  0
 15 36  1  0  0  0  0
 15 37  1  0  0  0  0
 16 17  1  0  0  0  0
 16 38  1  0  0  0  0
 16 39  1  0  0  0  0
 17 18  1  0  0  0  0
 17 19  1  0  0  0  0
 17 20  1  0  0  0  0
 18 40  1  0  0  0  0
 18 41  1  0  0  0  0
 18 42  1  0  0  0  0
 19 43  1  0  0  0  0
 19 44  1  0  0  0  0
 19 45  1  0  0  0  0
 20 46  1  0  0  0  0
 20 47  1  0  0  0  0
M  CHG  1  11   1
M  END
> <s_m_source_file>
AV-unprocessed.smi

> <i_m_source_file_index>
2473

> <i_lp_mmshare_version>
43012

> <i_f3d_flags>
0

> <s_epik_input>
W0NIM11bQ0BASF0oW0NIMl0xKVtDSDJdW0NASF0oW0NIMl1DMShbQ0gzXSlbQ0gzXSlDKD1PKVtOSF1bQ0gyXVtDSDJdYzJuW2NIXVtjSF1uMltDSDNd

> <s_epik_cmdline>
J2VwaWtfcHl0aG9uJywgJy1waCcsICc3LjAnLCAnLXRuJywgJzgnLCAnLW1hJywgJzIwMCcsICctbWV0YWxfYmluZGluZycsICctaW1hZScsICc8aW5maWxlLm1hZT4nLCAnLW9tYWUnLCAnPG91dGZpbGUubWFlPic=

> <r_lp_tautomer_probability>
1

> <r_epik_Ionization_Penalty>
0.0796112

> <r_epik_Ionization_Penalty_Charging>
0

> <r_epik_Ionization_Penalty_Neutral>
0.0796112

> <r_epik_State_Penalty>
0.0704541

> <r_epik_Charging_Adjusted_Penalty>
0.0704541

> <i_epik_Tot_Q>
1

> <i_epik_Tot_abs_Q>
1

> <r_epik_Metal_State_Penalty>
0.409899

> <b_epik_Metal_Only>
0

> <s_lp_Force_Field>
OPLS_2005

> <r_lp_Energy>
16.0975

> <b_lp_Chiralities_Consistent>
1

> <s_lp_Variant>
AV-unprocessed.smi:2473-2

> <Gold.Version>
5.8.1

> <Gold.Id.Protein>
6NUR|6NUR_protein|mol2

> <Gold.PLP.Fitness>
56.1937

> <Gold.PLP.PLP>
-44.8723

> <Gold.PLP.part.hbond>
-2.0000

> <Gold.PLP.part.metal>
0.0000

> <Gold.PLP.part.buried>
-1.2889

> <Gold.PLP.part.nonpolar>
-41.2319

> <Gold.PLP.part.repulsive>
0.0118

> <Gold.PLP.ligand.clash>
0.0000

> <Gold.PLP.ligand.torsion>
0.3516

> <Gold.PLP.Chemscore.Hbond>
3.0000

> <Gold.PLP.Chemscore.CHOScore>
1.0000

> <Gold.PLP.Chemscore.Metal>
0.0000

> <Gold.Chemscore.Hbonds>
donor molecule, donor type, donor heavy atom, donor atom, acceptor molecule, acceptor atom, score
      L1  H     7    28       P1  8028  1.00
      L1  H    11    48       P1 10175  2.00
      L1  C    13    34       P1  7948  1.00

> <Gold.PLP.Chemscore.Internal.Correction>
0.0246

> <Gold.Rescore>
     Score         DG    S(hbond)    S(metal)    S(lipo)     H(rot)  DE(clash)    DE(int)     intcor
     20.86     -21.85       1.94        0.00     119.08       1.58       0.52       0.46       ----

> <Gold.Chemscore.Fitness>
20.8645

> <Gold.Chemscore.DG>
-21.8482

> <Gold.Chemscore.ZeroCoef>
-5.4800

> <Gold.Chemscore.Hbond>
1.9419

> <Gold.Chemscore.Metal>
0.0000

> <Gold.Chemscore.Lipo>
119.0754

> <Gold.Chemscore.Internal_Hbond>
0.0000

> <Gold.Chemscore.DEClash>
0.5234

> <Gold.Chemscore.DEInternal>
0.4604

> <Gold.Chemscore.Rot>
1.5818

> <Gold.Chemscore.Internal.Correction>
   9.000000E+99

> <Gold.Chemscore.Hbonds>
donor molecule, donor type, donor heavy atom, donor atom, acceptor molecule, acceptor atom, score
      L1  H     7    28       P1  8028  0.94
      L1  H    11    48       P1 10175  0.81

> <Gold.Chemscore.Hbond.Weighted>
-6.4859

> <Gold.Chemscore.Metal.Weighted>
-0.0000

> <Gold.Chemscore.Lipo.Weighted>
-13.9318

> <Gold.Chemscore.Internal_Hbond.Weighted>
0.0000

> <Gold.Chemscore.DEClash.Weighted>
0.5234

> <Gold.Chemscore.DEInternal.Weighted>
0.4604

> <Gold.Chemscore.Rot.Weighted>
4.0495

> <Gold.Chemscore.Internal.Correction.Weighted>
   9.000000E+99

> <Gold.Protein.RotatedTorsions>
[ 6907 6896 6895 6894 ] final   42.20 input  -60.11 | X-H torsion
[ 7974 7965 7964 7962 ] final  176.37 input  175.53 | X-H torsion
[ 8008 7997 7996 7995 ] final   29.58 input   59.86 | X-H torsion
[ 10167 10162 10161 10158 ] final   52.66 input  -65.29 | X-H torsion
[ 10718 10713 10712 10709 ] final   38.98 input   66.30 | X-H torsion
[ 10763 10752 10751 10750 ] final -124.38 input  -60.55 | X-H torsion
[ 11005 11000 10999 10996 ] final  167.70 input  -57.11 | X-H torsion

> <Gold.Protein.ActiveResidues>
 VAL166  LYS551  ARG553  GLY616  TRP617  ASP618  TYR619  PRO620  LYS621  CYS622 
 ASP623  PHE694  ASN695  SER759  ASP760  ASP761  ALA762  ILE779  LEU786  VAL792 
 PHE793  MET794  SER795  GLU796  ALA797  LYS798  CYS799  TRP800  GLU811  SER814 

> <Gold.Protein.RotatedAtoms>
  152.2049  134.8555  160.0503 H   0  0  0  0  0  0  0  0  0  0  0  0  # atno 6907 bound_to 6896
  151.9395  133.3628  159.3968 H   0  0  0  0  0  0  0  0  0  0  0  0  # atno 6908 bound_to 6896
  150.6963  134.4379  159.5322 H   0  0  0  0  0  0  0  0  0  0  0  0  # atno 6909 bound_to 6896
  144.7185  140.0086  143.6440 H   0  0  0  0  0  0  0  0  0  0  0  0  # atno 7974 bound_to 7965
  155.0768  140.3206  155.4613 H   0  0  0  0  0  0  0  0  0  0  0  0  # atno 8008 bound_to 7997
  156.2777  140.2102  156.5841 H   0  0  0  0  0  0  0  0  0  0  0  0  # atno 8009 bound_to 7997
  154.7010  140.0507  157.0446 H   0  0  0  0  0  0  0  0  0  0  0  0  # atno 8010 bound_to 7997
  140.2490  144.3500  150.6354 H   0  0  0  0  0  0  0  0  0  0  0  0  # atno 10167 bound_to 10162
  157.3653  130.7671  149.7078 H   0  0  0  0  0  0  0  0  0  0  0  0  # atno 10718 bound_to 10713
  154.8722  135.4066  154.3096 H   0  0  0  0  0  0  0  0  0  0  0  0  # atno 10763 bound_to 10752
  153.3942  135.7016  153.6478 H   0  0  0  0  0  0  0  0  0  0  0  0  # atno 10764 bound_to 10752
  153.5248  135.3680  155.2619 H   0  0  0  0  0  0  0  0  0  0  0  0  # atno 10765 bound_to 10752
  140.2795  134.7762  157.3746 H   0  0  0  0  0  0  0  0  0  0  0  0  # atno 11005 bound_to 11000
  146.0277  139.3307  143.0774 LP  0  0  0  0  0  0  0  0  0  0  0  0  # atno 17320 bound_to 7965
  145.8491  140.9539  143.0759 LP  0  0  0  0  0  0  0  0  0  0  0  0  # atno 17321 bound_to 7965
  140.6055  143.2167  151.6989 LP  0  0  0  0  0  0  0  0  0  0  0  0  # atno 17342 bound_to 10162
  139.5052  144.3725  152.0456 LP  0  0  0  0  0  0  0  0  0  0  0  0  # atno 17343 bound_to 10162
  155.9745  130.4102  150.3920 LP  0  0  0  0  0  0  0  0  0  0  0  0  # atno 17370 bound_to 10713
  157.2003  131.0436  151.2654 LP  0  0  0  0  0  0  0  0  0  0  0  0  # atno 17371 bound_to 10713
  140.1297  134.5112  155.8116 LP  0  0  0  0  0  0  0  0  0  0  0  0  # atno 17394 bound_to 11000
  141.2165  133.6785  156.7016 LP  0  0  0  0  0  0  0  0  0  0  0  0  # atno 17395 bound_to 11000

$$$$
