AV-unprocessed.smi:1696|AV-procd|sdf|6802|dock4
  -GOLD-   22720 7573D 1   1.00000     0.00000
 Structure written by MMmdl.
 38 39  0  0  0  0  0  0  0  0  3 V2000
  147.0348  140.6142  153.1978 C   0  0  0  0  0  0  0  0  0  0  0  0
  147.0153  139.0877  153.0203 C   0  0  0  0  0  0  0  0  0  0  0  0
  147.5056  138.2842  154.2555 C   0  0  1  0  0  0  0  0  0  0  0  0
  146.6605  137.0099  154.5132 C   0  0  0  0  0  0  0  0  0  0  0  0
  146.7810  136.0461  153.4228 N   0  0  0  0  0  0  0  0  0  0  0  0
  146.0755  134.9162  153.2720 C   0  0  0  0  0  0  0  0  0  0  0  0
  145.2057  134.6136  154.0916 O   0  0  0  0  0  0  0  0  0  0  0  0
  146.4273  134.2052  152.1777 N   0  5  0  0  0  0  0  0  0  0  0  0
  145.5152  133.4476  151.5471 C   0  0  0  0  0  0  0  0  0  0  0  0
  145.8323  132.5677  150.5903 N   0  0  0  0  0  0  0  0  0  0  0  0
  144.7269  131.8936  150.0681 C   0  0  0  0  0  0  0  0  0  0  0  0
  143.5395  132.2757  150.6340 C   0  0  0  0  0  0  0  0  0  0  0  0
  143.7759  133.5008  151.8476 S   0  0  0  0  0  0  0  0  0  0  0  0
  148.9618  137.9746  154.1475 N   0  3  0  0  0  0  0  0  0  0  0  0
  149.8646  139.1542  154.1694 C   0  0  0  0  0  0  0  0  0  0  0  0
  151.1163  138.7556  154.9637 C   0  0  0  0  0  0  0  0  0  0  0  0
  151.0043  137.2453  155.1339 C   0  0  0  0  0  0  0  0  0  0  0  0
  149.4980  137.0142  155.1364 C   0  0  0  0  0  0  0  0  0  0  0  0
  146.6604  141.1079  152.3009 H   0  0  0  0  0  0  0  0  0  0  0  0
  148.0429  140.9870  153.3752 H   0  0  0  0  0  0  0  0  0  0  0  0
  146.4079  140.9298  154.0318 H   0  0  0  0  0  0  0  0  0  0  0  0
  146.0047  138.7820  152.7509 H   0  0  0  0  0  0  0  0  0  0  0  0
  147.6189  138.8303  152.1497 H   0  0  0  0  0  0  0  0  0  0  0  0
  147.3828  138.9268  155.1291 H   0  0  0  0  0  0  0  0  0  0  0  0
  146.9228  136.5706  155.4766 H   0  0  0  0  0  0  0  0  0  0  0  0
  145.6009  137.2568  154.5750 H   0  0  0  0  0  0  0  0  0  0  0  0
  147.4758  136.2447  152.7177 H   0  0  0  0  0  0  0  0  0  0  0  0
  144.8778  131.1577  149.2922 H   0  0  0  0  0  0  0  0  0  0  0  0
  142.5464  131.9154  150.4124 H   0  0  0  0  0  0  0  0  0  0  0  0
  150.1161  139.4303  153.1449 H   0  0  0  0  0  0  0  0  0  0  0  0
  149.3926  140.0180  154.6400 H   0  0  0  0  0  0  0  0  0  0  0  0
  152.0412  139.0518  154.4676 H   0  0  0  0  0  0  0  0  0  0  0  0
  151.0976  139.2369  155.9427 H   0  0  0  0  0  0  0  0  0  0  0  0
  151.4558  136.7400  154.2789 H   0  0  0  0  0  0  0  0  0  0  0  0
  151.4921  136.8808  156.0384 H   0  0  0  0  0  0  0  0  0  0  0  0
  149.0938  137.2382  156.1252 H   0  0  0  0  0  0  0  0  0  0  0  0
  149.2431  135.9840  154.8859 H   0  0  0  0  0  0  0  0  0  0  0  0
  149.0976  137.5379  153.2468 H   0  0  0  0  0  0  0  0  0  0  0  0
  1  2  1  0  0  0  0
  1 19  1  0  0  0  0
  1 20  1  0  0  0  0
  1 21  1  0  0  0  0
  2  3  1  0  0  0  0
  2 22  1  0  0  0  0
  2 23  1  0  0  0  0
  3  4  1  0  0  0  0
  3 14  1  0  0  0  0
  3 24  1  0  0  0  0
  4  5  1  0  0  0  0
  4 25  1  0  0  0  0
  4 26  1  0  0  0  0
  5  6  1  0  0  0  0
  5 27  1  0  0  0  0
  6  7  2  0  0  0  0
  6  8  1  0  0  0  0
  8  9  1  0  0  0  0
  9 13  1  0  0  0  0
  9 10  2  0  0  0  0
 10 11  1  0  0  0  0
 11 12  2  0  0  0  0
 11 28  1  0  0  0  0
 12 13  1  0  0  0  0
 12 29  1  0  0  0  0
 14 18  1  0  0  0  0
 14 15  1  0  0  0  0
 14 38  1  0  0  0  0
 15 16  1  0  0  0  0
 15 30  1  0  0  0  0
 15 31  1  0  0  0  0
 16 17  1  0  0  0  0
 16 32  1  0  0  0  0
 16 33  1  0  0  0  0
 17 18  1  0  0  0  0
 17 34  1  0  0  0  0
 17 35  1  0  0  0  0
 18 36  1  0  0  0  0
 18 37  1  0  0  0  0
M  CHG  1   8  -1
M  CHG  1  14   1
M  END
> <s_m_source_file>
AV-unprocessed.smi

> <i_m_source_file_index>
1696

> <i_lp_mmshare_version>
43012

> <i_f3d_flags>
0

> <s_epik_input>
W0NIMl0xW0NIMl1bQ0gyXVtDSDJdTjFbQ0BIXShbQ0gyXVtDSDNdKVtDSDJdW05IXUMoPU8pW05IXWMybltjSF1bY0hdczI=

> <s_epik_cmdline>
J2VwaWtfcHl0aG9uJywgJy1waCcsICc3LjAnLCAnLXRuJywgJzgnLCAnLW1hJywgJzIwMCcsICctbWV0YWxfYmluZGluZycsICctaW1hZScsICc8aW5maWxlLm1hZT4nLCAnLW9tYWUnLCAnPG91dGZpbGUubWFlPic=

> <r_lp_tautomer_probability>
1

> <r_epik_Ionization_Penalty>
7.71903

> <r_epik_Ionization_Penalty_Charging>
6.3282

> <r_epik_Ionization_Penalty_Neutral>
1.39083

> <r_epik_State_Penalty>
6.32705

> <r_epik_Charging_Adjusted_Penalty>
12.6552

> <i_epik_Tot_Q>
0

> <i_epik_Tot_abs_Q>
2

> <r_epik_Metal_State_Penalty>
2.26116

> <b_epik_Metal_Only>
1

> <s_lp_Force_Field>
OPLS_2005

> <r_lp_Energy>
23.2163

> <b_lp_Chiralities_Consistent>
1

> <s_lp_Variant>
AV-unprocessed.smi:1696-4

> <Gold.Version>
5.8.1

> <Gold.Id.Protein>
6NUR|6NUR_protein|mol2

> <Gold.PLP.Fitness>
40.9726

> <Gold.PLP.PLP>
-29.8834

> <Gold.PLP.part.hbond>
-2.0000

> <Gold.PLP.part.metal>
0.0000

> <Gold.PLP.part.buried>
-3.6403

> <Gold.PLP.part.nonpolar>
-24.8509

> <Gold.PLP.part.repulsive>
0.4469

> <Gold.PLP.ligand.clash>
0.0000

> <Gold.PLP.ligand.torsion>
0.8883

> <Gold.PLP.Chemscore.Hbond>
3.0000

> <Gold.PLP.Chemscore.CHOScore>
1.1407

> <Gold.PLP.Chemscore.Metal>
0.0000

> <Gold.Chemscore.Hbonds>
donor molecule, donor type, donor heavy atom, donor atom, acceptor molecule, acceptor atom, score
      L1  H     5    27       P1  7948  1.00
      L1  H    14    38       P1  7948  2.00
      L1  C    12    29       P1 10952  1.00

> <Gold.PLP.Chemscore.Internal.Correction>
0.4435

> <Gold.Rescore>
     Score         DG    S(hbond)    S(metal)    S(lipo)     H(rot)  DE(clash)    DE(int)     intcor
     13.76     -15.81       1.99        0.00      69.24       1.73       0.02       2.03       ----

> <Gold.Chemscore.Fitness>
13.7605

> <Gold.Chemscore.DG>
-15.8053

> <Gold.Chemscore.ZeroCoef>
-5.4800

> <Gold.Chemscore.Hbond>
1.9898

> <Gold.Chemscore.Metal>
0.0000

> <Gold.Chemscore.Lipo>
69.2350

> <Gold.Chemscore.Internal_Hbond>
0.0000

> <Gold.Chemscore.DEClash>
0.0195

> <Gold.Chemscore.DEInternal>
2.0253

> <Gold.Chemscore.Rot>
1.7270

> <Gold.Chemscore.Internal.Correction>
   9.000000E+99

> <Gold.Chemscore.Hbonds>
donor molecule, donor type, donor heavy atom, donor atom, acceptor molecule, acceptor atom, score
      L1  H     5    27       P1  7948  1.00
      L1  H    14    38       P1  7948  0.99

> <Gold.Chemscore.Hbond.Weighted>
-6.6460

> <Gold.Chemscore.Metal.Weighted>
-0.0000

> <Gold.Chemscore.Lipo.Weighted>
-8.1005

> <Gold.Chemscore.Internal_Hbond.Weighted>
0.0000

> <Gold.Chemscore.DEClash.Weighted>
0.0195

> <Gold.Chemscore.DEInternal.Weighted>
2.0253

> <Gold.Chemscore.Rot.Weighted>
4.4212

> <Gold.Chemscore.Internal.Correction.Weighted>
   9.000000E+99

> <Gold.Protein.RotatedTorsions>
[ 6907 6896 6895 6894 ] final  106.17 input  -60.11 | X-H torsion
[ 7974 7965 7964 7962 ] final  138.50 input  175.53 | X-H torsion
[ 8008 7997 7996 7995 ] final  -66.40 input   59.86 | X-H torsion
[ 10167 10162 10161 10158 ] final  117.10 input  -65.29 | X-H torsion
[ 10718 10713 10712 10709 ] final  142.96 input   66.30 | X-H torsion
[ 10763 10752 10751 10750 ] final  124.96 input  -60.55 | X-H torsion
[ 11005 11000 10999 10996 ] final  122.73 input  -57.11 | X-H torsion

> <Gold.Protein.ActiveResidues>
 VAL166  LYS551  ARG553  GLY616  TRP617  ASP618  TYR619  PRO620  LYS621  CYS622 
 ASP623  PHE694  ASN695  SER759  ASP760  ASP761  ALA762  ILE779  LEU786  VAL792 
 PHE793  MET794  SER795  GLU796  ALA797  LYS798  CYS799  TRP800  GLU811  SER814 

> <Gold.Protein.RotatedAtoms>
  152.5203  133.9420  159.7630 H   0  0  0  0  0  0  0  0  0  0  0  0  # atno 6907 bound_to 6896
  150.9748  133.6298  159.2739 H   0  0  0  0  0  0  0  0  0  0  0  0  # atno 6908 bound_to 6896
  151.3497  135.0887  159.9451 H   0  0  0  0  0  0  0  0  0  0  0  0  # atno 6909 bound_to 6896
  144.9366  139.4981  143.5592 H   0  0  0  0  0  0  0  0  0  0  0  0  # atno 7974 bound_to 7965
  154.4732  140.0913  156.7197 H   0  0  0  0  0  0  0  0  0  0  0  0  # atno 8008 bound_to 7997
  155.4667  140.3463  155.4302 H   0  0  0  0  0  0  0  0  0  0  0  0  # atno 8009 bound_to 7997
  156.1074  140.1438  156.9374 H   0  0  0  0  0  0  0  0  0  0  0  0  # atno 8010 bound_to 7997
  139.6201  144.7099  151.2652 H   0  0  0  0  0  0  0  0  0  0  0  0  # atno 10167 bound_to 10162
  157.3745  131.0983  151.0797 H   0  0  0  0  0  0  0  0  0  0  0  0  # atno 10718 bound_to 10713
  153.6696  135.3332  155.3150 H   0  0  0  0  0  0  0  0  0  0  0  0  # atno 10763 bound_to 10752
  154.8494  135.4383  154.1718 H   0  0  0  0  0  0  0  0  0  0  0  0  # atno 10764 bound_to 10752
  153.2706  135.7000  153.7560 H   0  0  0  0  0  0  0  0  0  0  0  0  # atno 10765 bound_to 10752
  139.9281  134.9641  156.8153 H   0  0  0  0  0  0  0  0  0  0  0  0  # atno 11005 bound_to 11000
  146.3269  139.8356  142.8900 LP  0  0  0  0  0  0  0  0  0  0  0  0  # atno 17320 bound_to 7965
  145.3057  141.0206  143.3583 LP  0  0  0  0  0  0  0  0  0  0  0  0  # atno 17321 bound_to 7965
  140.7377  143.6671  150.8114 LP  0  0  0  0  0  0  0  0  0  0  0  0  # atno 17342 bound_to 10162
  140.0280  143.5473  152.2772 LP  0  0  0  0  0  0  0  0  0  0  0  0  # atno 17343 bound_to 10162
  157.1888  130.6342  149.5697 LP  0  0  0  0  0  0  0  0  0  0  0  0  # atno 17370 bound_to 10713
  155.9762  130.4729  150.6515 LP  0  0  0  0  0  0  0  0  0  0  0  0  # atno 17371 bound_to 10713
  140.6279  133.9933  155.7648 LP  0  0  0  0  0  0  0  0  0  0  0  0  # atno 17394 bound_to 11000
  141.0852  134.0001  157.3324 LP  0  0  0  0  0  0  0  0  0  0  0  0  # atno 17395 bound_to 11000

$$$$
