AV-unprocessed.smi:101|AV-procd|sdf|919|dock4
  -GOLD-   2262017423D 1   1.00000     0.00000
 Structure written by MMmdl.
 44 46  0  0  0  0  0  0  0  0  1 V2000
  147.8068  133.1693  152.9270 C   0  0  0  0  0  0  0  0  0  0  0  0
  148.6541  133.3976  154.1678 C   0  0  0  0  0  0  0  0  0  0  0  0
  149.3940  134.5216  154.3467 C   0  0  0  0  0  0  0  0  0  0  0  0
  150.1789  134.7568  155.4675 N   0  0  0  0  0  0  0  0  0  0  0  0
  150.9943  136.0215  155.6031 C   0  0  2  0  0  0  0  0  0  0  0  0
  150.4222  136.8138  156.5986 O   0  0  0  0  0  0  0  0  0  0  0  0
  150.4033  138.1702  156.1760 C   0  0  2  0  0  0  0  0  0  0  0  0
  149.3357  138.9677  156.9380 C   0  0  0  0  0  0  0  0  0  0  0  0
  149.8808  140.2183  157.3241 O   0  0  0  0  0  0  0  0  0  0  0  0
  150.9724  140.2641  158.1121 C   0  0  0  0  0  0  0  0  0  0  0  0
  151.5383  139.2612  158.5521 O   0  0  0  0  0  0  0  0  0  0  0  0
  151.4253  141.6566  158.3954 C   0  0  0  0  0  0  0  0  0  0  0  0
  152.2297  141.9060  159.5318 C   0  0  0  0  0  0  0  0  0  0  0  0
  152.6744  143.2101  159.8241 C   0  0  0  0  0  0  0  0  0  0  0  0
  152.3216  144.2808  158.9822 C   0  0  0  0  0  0  0  0  0  0  0  0
  151.5226  144.0461  157.8481 C   0  0  0  0  0  0  0  0  0  0  0  0
  151.0754  142.7428  157.5554 C   0  0  0  0  0  0  0  0  0  0  0  0
  150.2105  138.0811  154.6567 C   0  0  2  0  0  0  0  0  0  0  0  0
  148.8424  137.9453  154.3175 O   0  0  0  0  0  0  0  0  0  0  0  0
  150.9822  136.8196  154.2857 C   0  0  1  0  0  0  0  0  0  0  0  0
  152.2938  137.1576  153.8786 O   0  0  0  0  0  0  0  0  0  0  0  0
  150.2526  133.7766  156.4782 C   0  0  0  0  0  0  0  0  0  0  0  0
  150.9546  133.8993  157.4812 O   0  0  0  0  0  0  0  0  0  0  0  0
  149.4882  132.6252  156.2983 N   0  0  0  0  0  0  0  0  0  0  0  0
  148.6703  132.3555  155.1982 C   0  0  0  0  0  0  0  0  0  0  0  0
  148.0384  131.3012  155.1553 O   0  0  0  0  0  0  0  0  0  0  0  0
  149.5331  131.9237  157.0228 H   0  0  0  0  0  0  0  0  0  0  0  0
  147.8756  134.0054  152.2305 H   0  0  0  0  0  0  0  0  0  0  0  0
  146.7579  133.0462  153.1990 H   0  0  0  0  0  0  0  0  0  0  0  0
  148.1331  132.2703  152.4027 H   0  0  0  0  0  0  0  0  0  0  0  0
  149.3709  135.2691  153.5672 H   0  0  0  0  0  0  0  0  0  0  0  0
  151.9915  135.7268  155.9362 H   0  0  0  0  0  0  0  0  0  0  0  0
  151.3894  138.5959  156.3705 H   0  0  0  0  0  0  0  0  0  0  0  0
  148.4709  139.1414  156.2963 H   0  0  0  0  0  0  0  0  0  0  0  0
  148.9942  138.4125  157.8130 H   0  0  0  0  0  0  0  0  0  0  0  0
  152.5154  141.0993  160.1915 H   0  0  0  0  0  0  0  0  0  0  0  0
  153.2880  143.3881  160.6949 H   0  0  0  0  0  0  0  0  0  0  0  0
  152.6640  145.2806  159.2058 H   0  0  0  0  0  0  0  0  0  0  0  0
  151.2523  144.8669  157.2003 H   0  0  0  0  0  0  0  0  0  0  0  0
  150.4636  142.5979  156.6768 H   0  0  0  0  0  0  0  0  0  0  0  0
  150.5899  138.9689  154.1486 H   0  0  0  0  0  0  0  0  0  0  0  0
  148.7807  137.5258  153.4729 H   0  0  0  0  0  0  0  0  0  0  0  0
  150.5034  136.2561  153.4828 H   0  0  0  0  0  0  0  0  0  0  0  0
  152.2828  137.3441  152.9524 H   0  0  0  0  0  0  0  0  0  0  0  0
  1  2  1  0  0  0  0
  1 28  1  0  0  0  0
  1 29  1  0  0  0  0
  1 30  1  0  0  0  0
  2 25  1  0  0  0  0
  2  3  2  0  0  0  0
  3  4  1  0  0  0  0
  3 31  1  0  0  0  0
  4  5  1  0  0  0  0
  4 22  1  0  0  0  0
  5 20  1  0  0  0  0
  5  6  1  0  0  0  0
  5 32  1  0  0  0  0
  6  7  1  0  0  0  0
  7  8  1  0  0  0  0
  7 18  1  0  0  0  0
  7 33  1  0  0  0  0
  8  9  1  0  0  0  0
  8 34  1  0  0  0  0
  8 35  1  0  0  0  0
  9 10  1  0  0  0  0
 10 11  2  0  0  0  0
 10 12  1  0  0  0  0
 12 17  1  0  0  0  0
 12 13  2  0  0  0  0
 13 14  1  0  0  0  0
 13 36  1  0  0  0  0
 14 15  2  0  0  0  0
 14 37  1  0  0  0  0
 15 16  1  0  0  0  0
 15 38  1  0  0  0  0
 16 17  2  0  0  0  0
 16 39  1  0  0  0  0
 17 40  1  0  0  0  0
 18 19  1  0  0  0  0
 18 20  1  0  0  0  0
 18 41  1  0  0  0  0
 19 42  1  0  0  0  0
 20 21  1  0  0  0  0
 20 43  1  0  0  0  0
 21 44  1  0  0  0  0
 22 23  2  0  0  0  0
 22 24  1  0  0  0  0
 24 27  1  0  0  0  0
 24 25  1  0  0  0  0
 25 26  2  0  0  0  0
M  END
> <s_m_source_file>
AV-unprocessed.smi

> <i_m_source_file_index>
101

> <i_lp_mmshare_version>
43012

> <i_f3d_flags>
0

> <s_epik_input>
Tz1jMVtuSF1jKD1PKW4oW2NIXWMxW0NIM10pW0NAQEhdMk9bQ0BIXShbQ0BASF0oW09IXSlbQ0BIXTJbT0hdKVtDSDJdT0MoPU8pYzNbY0hdW2NIXVtjSF1bY0hdW2NIXTM=

> <s_epik_cmdline>
J2VwaWtfcHl0aG9uJywgJy1waCcsICc3LjAnLCAnLXRuJywgJzgnLCAnLW1hJywgJzIwMCcsICctbWV0YWxfYmluZGluZycsICctaW1hZScsICc8aW5maWxlLm1hZT4nLCAnLW9tYWUnLCAnPG91dGZpbGUubWFlPic=

> <r_lp_tautomer_probability>
0.999537

> <r_epik_Ionization_Penalty>
0.00263537

> <r_epik_Ionization_Penalty_Charging>
0.00263428

> <r_epik_Ionization_Penalty_Neutral>
1.09111e-06

> <r_epik_State_Penalty>
0.00183335

> <r_epik_Charging_Adjusted_Penalty>
0.00446763

> <i_epik_Tot_Q>
0

> <i_epik_Tot_abs_Q>
0

> <r_epik_Metal_State_Penalty>
1.00528

> <b_epik_Metal_Only>
0

> <s_epik_Chemistry_Notes>
This compound has an ester and may undergo hydrolysis at high or low pH. This compound contains an acetal/aminal-like group ( X-CH(R)-Y where X, Y are N, S, or O) that may be acid/base labile, releasing an aldehyde.

> <s_lp_Force_Field>
OPLS_2005

> <r_lp_Energy>
30.9331

> <b_lp_Chiralities_Consistent>
1

> <s_lp_Variant>
AV-unprocessed.smi:101-7

> <Gold.Version>
5.8.1

> <Gold.Id.Protein>
6NUR|6NUR_protein|mol2

> <Gold.PLP.Fitness>
47.9278

> <Gold.PLP.PLP>
-39.4990

> <Gold.PLP.part.hbond>
-3.7780

> <Gold.PLP.part.metal>
0.0000

> <Gold.PLP.part.buried>
-0.0825

> <Gold.PLP.part.nonpolar>
-37.1050

> <Gold.PLP.part.repulsive>
0.0372

> <Gold.PLP.ligand.clash>
0.0000

> <Gold.PLP.ligand.torsion>
1.0489

> <Gold.PLP.Chemscore.Hbond>
2.5485

> <Gold.PLP.Chemscore.CHOScore>
0.9479

> <Gold.PLP.Chemscore.Metal>
0.0000

> <Gold.Chemscore.Hbonds>
donor molecule, donor type, donor heavy atom, donor atom, acceptor molecule, acceptor atom, score
      L1  H    19    42       P1  7948  0.93
      L1  H    21    44       P1  7949  0.17
      P1  H  6896  6909       L1    23  0.37
      P1  H 10752 10763       L1    21  0.61
      L1  C     3    31       P1  7948  0.74

> <Gold.PLP.Chemscore.Internal.Correction>
0.0373

> <Gold.Rescore>
     Score         DG    S(hbond)    S(metal)    S(lipo)     H(rot)  DE(clash)    DE(int)     intcor
     12.22     -15.84       2.13        0.00     100.38       3.32       0.91       2.71       ----

> <Gold.Chemscore.Fitness>
12.2172

> <Gold.Chemscore.DG>
-15.8443

> <Gold.Chemscore.ZeroCoef>
-5.4800

> <Gold.Chemscore.Hbond>
2.1294

> <Gold.Chemscore.Metal>
0.0000

> <Gold.Chemscore.Lipo>
100.3777

> <Gold.Chemscore.Internal_Hbond>
0.0000

> <Gold.Chemscore.DEClash>
0.9147

> <Gold.Chemscore.DEInternal>
2.7125

> <Gold.Chemscore.Rot>
3.3172

> <Gold.Chemscore.Internal.Correction>
   9.000000E+99

> <Gold.Chemscore.Hbonds>
donor molecule, donor type, donor heavy atom, donor atom, acceptor molecule, acceptor atom, score
      L1  H    19    42       P1  7948  0.89
      L1  H    21    44       P1  7949  0.17
      P1  H  6896  6909       L1    23  0.36
      P1  H 10752 10763       L1    21  0.06

> <Gold.Chemscore.Hbond.Weighted>
-7.1122

> <Gold.Chemscore.Metal.Weighted>
-0.0000

> <Gold.Chemscore.Lipo.Weighted>
-11.7442

> <Gold.Chemscore.Internal_Hbond.Weighted>
0.0000

> <Gold.Chemscore.DEClash.Weighted>
0.9147

> <Gold.Chemscore.DEInternal.Weighted>
2.7125

> <Gold.Chemscore.Rot.Weighted>
8.4920

> <Gold.Chemscore.Internal.Correction.Weighted>
   9.000000E+99

> <Gold.Protein.RotatedTorsions>
[ 6907 6896 6895 6894 ] final  -43.61 input  -60.11 | X-H torsion
[ 7974 7965 7964 7962 ] final  -54.83 input  175.53 | X-H torsion
[ 8008 7997 7996 7995 ] final   31.89 input   59.86 | X-H torsion
[ 10167 10162 10161 10158 ] final  -19.03 input  -65.29 | X-H torsion
[ 10718 10713 10712 10709 ] final  -77.50 input   66.30 | X-H torsion
[ 10763 10752 10751 10750 ] final    5.96 input  -60.55 | X-H torsion
[ 11005 11000 10999 10996 ] final   85.91 input  -57.11 | X-H torsion

> <Gold.Protein.ActiveResidues>
 VAL166  LYS551  ARG553  GLY616  TRP617  ASP618  TYR619  PRO620  LYS621  CYS622 
 ASP623  PHE694  ASN695  SER759  ASP760  ASP761  ALA762  ILE779  LEU786  VAL792 
 PHE793  MET794  SER795  GLU796  ALA797  LYS798  CYS799  TRP800  GLU811  SER814 

> <Gold.Protein.RotatedAtoms>
  150.9420  134.8828  159.7617 H   0  0  0  0  0  0  0  0  0  0  0  0  # atno 6907 bound_to 6896
  152.5084  134.3928  159.9400 H   0  0  0  0  0  0  0  0  0  0  0  0  # atno 6908 bound_to 6896
  151.3948  133.3736  159.2760 H   0  0  0  0  0  0  0  0  0  0  0  0  # atno 6909 bound_to 6896
  145.8812  140.8143  142.9839 H   0  0  0  0  0  0  0  0  0  0  0  0  # atno 7974 bound_to 7965
  155.1137  140.3241  155.4515 H   0  0  0  0  0  0  0  0  0  0  0  0  # atno 8008 bound_to 7997
  156.2683  140.2039  156.6209 H   0  0  0  0  0  0  0  0  0  0  0  0  # atno 8009 bound_to 7997
  154.6736  140.0534  157.0179 H   0  0  0  0  0  0  0  0  0  0  0  0  # atno 8010 bound_to 7997
  140.7264  143.4858  151.0057 H   0  0  0  0  0  0  0  0  0  0  0  0  # atno 10167 bound_to 10162
  156.0143  130.4493  150.3354 H   0  0  0  0  0  0  0  0  0  0  0  0  # atno 10718 bound_to 10713
  153.2532  135.6916  153.7656 H   0  0  0  0  0  0  0  0  0  0  0  0  # atno 10763 bound_to 10752
  153.6743  135.3339  155.3162 H   0  0  0  0  0  0  0  0  0  0  0  0  # atno 10764 bound_to 10752
  154.8402  135.4507  154.1497 H   0  0  0  0  0  0  0  0  0  0  0  0  # atno 10765 bound_to 10752
  139.8959  134.8319  156.2647 H   0  0  0  0  0  0  0  0  0  0  0  0  # atno 11005 bound_to 11000
  144.6727  140.1386  143.7438 LP  0  0  0  0  0  0  0  0  0  0  0  0  # atno 17320 bound_to 7965
  145.9022  139.2437  143.1487 LP  0  0  0  0  0  0  0  0  0  0  0  0  # atno 17321 bound_to 7965
  139.8559  143.7377  152.3176 LP  0  0  0  0  0  0  0  0  0  0  0  0  # atno 17342 bound_to 10162
  139.7576  144.7516  151.0413 LP  0  0  0  0  0  0  0  0  0  0  0  0  # atno 17343 bound_to 10162
  157.1451  131.0306  151.2910 LP  0  0  0  0  0  0  0  0  0  0  0  0  # atno 17370 bound_to 10713
  157.4439  130.7560  149.7093 LP  0  0  0  0  0  0  0  0  0  0  0  0  # atno 17371 bound_to 10713
  141.0140  133.7079  156.1158 LP  0  0  0  0  0  0  0  0  0  0  0  0  # atno 17394 bound_to 11000
  140.7328  134.4236  157.5564 LP  0  0  0  0  0  0  0  0  0  0  0  0  # atno 17395 bound_to 11000

$$$$
