AV-unprocessed.smi:2279|AV-procd|sdf|9186|dock9
  -GOLD-   2272012403D 1   1.00000     0.00000
 Structure written by MMmdl.
 58 60  0  0  0  0  0  0  0  0  3 V2000
  151.8918  145.3798  160.1606 C   0  0  0  0  0  0  0  0  0  0  0  0
  152.1504  143.9054  159.9316 C   0  0  0  0  0  0  0  0  0  0  0  0
  153.0360  143.1898  160.7598 C   0  0  0  0  0  0  0  0  0  0  0  0
  153.2335  141.8203  160.4955 C   0  0  0  0  0  0  0  0  0  0  0  0
  154.1765  140.9913  161.3421 C   0  0  0  0  0  0  0  0  0  0  0  0
  152.6098  141.1663  159.4925 N   0  0  0  0  0  0  0  0  0  0  0  0
  151.7530  141.8445  158.6894 C   0  0  0  0  0  0  0  0  0  0  0  0
  151.0559  141.2500  157.6037 N   0  0  0  0  0  0  0  0  0  0  0  0
  149.8043  141.5072  157.1842 C   0  0  0  0  0  0  0  0  0  0  0  0
  149.0553  142.3610  157.6601 O   0  0  0  0  0  0  0  0  0  0  0  0
  149.4620  140.7199  156.1531 N   0  0  0  0  0  0  0  0  0  0  0  0
  148.1795  140.7677  155.4560 C   0  0  2  0  0  0  0  0  0  0  0  0
  147.2752  139.6144  155.9226 C   0  0  0  0  0  0  0  0  0  0  0  0
  145.9616  139.5991  155.1185 C   0  0  0  0  0  0  0  0  0  0  0  0
  146.2104  139.4599  153.6545 N   0  3  2  0  0  0  0  0  0  0  0  0
  146.6822  138.1080  153.1911 C   0  0  2  0  0  0  0  0  0  0  0  0
  145.7989  137.5230  152.0623 C   0  0  0  0  0  0  0  0  0  0  0  0
  144.3957  137.1389  152.5689 C   0  0  0  0  0  0  0  0  0  0  0  0
  144.4762  136.1641  153.6855 N   0  3  2  0  0  0  0  0  0  0  0  0
  143.1416  135.7204  154.1427 C   0  0  0  0  0  0  0  0  0  0  0  0
  145.3220  136.6540  154.8025 C   0  0  0  0  0  0  0  0  0  0  0  0
  146.7295  137.0329  154.3049 C   0  0  0  0  0  0  0  0  0  0  0  0
  147.0412  140.6074  153.1846 C   0  0  0  0  0  0  0  0  0  0  0  0
  148.3874  140.6994  153.9312 C   0  0  0  0  0  0  0  0  0  0  0  0
  151.5038  143.2222  158.8815 C   0  0  0  0  0  0  0  0  0  0  0  0
  152.5705  145.7892  160.9097 H   0  0  0  0  0  0  0  0  0  0  0  0
  150.8690  145.5342  160.5048 H   0  0  0  0  0  0  0  0  0  0  0  0
  152.0312  145.9380  159.2345 H   0  0  0  0  0  0  0  0  0  0  0  0
  153.5507  143.6773  161.5749 H   0  0  0  0  0  0  0  0  0  0  0  0
  154.7612  141.6205  162.0136 H   0  0  0  0  0  0  0  0  0  0  0  0
  154.8700  140.4366  160.7091 H   0  0  0  0  0  0  0  0  0  0  0  0
  153.6142  140.2776  161.9448 H   0  0  0  0  0  0  0  0  0  0  0  0
  151.5697  140.5496  157.0899 H   0  0  0  0  0  0  0  0  0  0  0  0
  150.1390  140.0466  155.8246 H   0  0  0  0  0  0  0  0  0  0  0  0
  147.6714  141.7037  155.6970 H   0  0  0  0  0  0  0  0  0  0  0  0
  147.7904  138.6589  155.8174 H   0  0  0  0  0  0  0  0  0  0  0  0
  147.0523  139.7272  156.9844 H   0  0  0  0  0  0  0  0  0  0  0  0
  145.2750  138.8441  155.4957 H   0  0  0  0  0  0  0  0  0  0  0  0
  145.4392  140.5431  155.2821 H   0  0  0  0  0  0  0  0  0  0  0  0
  147.6962  138.2191  152.8078 H   0  0  0  0  0  0  0  0  0  0  0  0
  145.7220  138.1892  151.2057 H   0  0  0  0  0  0  0  0  0  0  0  0
  146.2809  136.6265  151.6692 H   0  0  0  0  0  0  0  0  0  0  0  0
  143.8530  138.0281  152.8932 H   0  0  0  0  0  0  0  0  0  0  0  0
  143.8225  136.7011  151.7504 H   0  0  0  0  0  0  0  0  0  0  0  0
  142.5721  136.5534  154.5573 H   0  0  0  0  0  0  0  0  0  0  0  0
  143.2330  134.9524  154.9114 H   0  0  0  0  0  0  0  0  0  0  0  0
  142.5725  135.2953  153.3154 H   0  0  0  0  0  0  0  0  0  0  0  0
  144.8426  137.5101  155.2793 H   0  0  0  0  0  0  0  0  0  0  0  0
  145.4028  135.8749  155.5614 H   0  0  0  0  0  0  0  0  0  0  0  0
  147.2020  136.1357  153.9019 H   0  0  0  0  0  0  0  0  0  0  0  0
  147.3733  137.3231  155.1338 H   0  0  0  0  0  0  0  0  0  0  0  0
  147.2044  140.5851  152.1097 H   0  0  0  0  0  0  0  0  0  0  0  0
  146.4784  141.5249  153.3628 H   0  0  0  0  0  0  0  0  0  0  0  0
  148.9295  141.5835  153.5928 H   0  0  0  0  0  0  0  0  0  0  0  0
  149.0175  139.8471  153.6757 H   0  0  0  0  0  0  0  0  0  0  0  0
  150.8200  143.7522  158.2339 H   0  0  0  0  0  0  0  0  0  0  0  0
  145.3064  139.5830  153.2213 H   0  0  0  0  0  0  0  0  0  0  0  0
  144.9363  135.3434  153.3169 H   0  0  0  0  0  0  0  0  0  0  0  0
  1  2  1  0  0  0  0
  1 26  1  0  0  0  0
  1 27  1  0  0  0  0
  1 28  1  0  0  0  0
  2 25  1  0  0  0  0
  2  3  2  0  0  0  0
  3  4  1  0  0  0  0
  3 29  1  0  0  0  0
  4  5  1  0  0  0  0
  4  6  2  0  0  0  0
  5 30  1  0  0  0  0
  5 31  1  0  0  0  0
  5 32  1  0  0  0  0
  6  7  1  0  0  0  0
  7  8  1  0  0  0  0
  7 25  2  0  0  0  0
  8  9  1  0  0  0  0
  8 33  1  0  0  0  0
  9 10  2  0  0  0  0
  9 11  1  0  0  0  0
 11 12  1  0  0  0  0
 11 34  1  0  0  0  0
 12 24  1  0  0  0  0
 12 13  1  0  0  0  0
 12 35  1  0  0  0  0
 13 14  1  0  0  0  0
 13 36  1  0  0  0  0
 13 37  1  0  0  0  0
 14 15  1  0  0  0  0
 14 38  1  0  0  0  0
 14 39  1  0  0  0  0
 15 16  1  0  0  0  0
 15 23  1  0  0  0  0
 15 57  1  0  0  0  0
 16 22  1  0  0  0  0
 16 17  1  0  0  0  0
 16 40  1  0  0  0  0
 17 18  1  0  0  0  0
 17 41  1  0  0  0  0
 17 42  1  0  0  0  0
 18 19  1  0  0  0  0
 18 43  1  0  0  0  0
 18 44  1  0  0  0  0
 19 20  1  0  0  0  0
 19 21  1  0  0  0  0
 19 58  1  0  0  0  0
 20 45  1  0  0  0  0
 20 46  1  0  0  0  0
 20 47  1  0  0  0  0
 21 22  1  0  0  0  0
 21 48  1  0  0  0  0
 21 49  1  0  0  0  0
 22 50  1  0  0  0  0
 22 51  1  0  0  0  0
 23 24  1  0  0  0  0
 23 52  1  0  0  0  0
 23 53  1  0  0  0  0
 24 54  1  0  0  0  0
 24 55  1  0  0  0  0
 25 56  1  0  0  0  0
M  CHG  1  15   1
M  CHG  1  19   1
M  END
> <s_m_source_file>
AV-unprocessed.smi

> <i_m_source_file_index>
2279

> <i_lp_mmshare_version>
43012

> <i_f3d_flags>
0

> <s_epik_input>
W0NIM11jMVtjSF1jKFtDSDNdKW5jKFtjSF0xKVtOSF1DKD1PKVtOSF1bQ0hdMltDSDJdW0NIMl1OKFtDSDJdW0NIMl0yKVtDSF0zW0NIMl1bQ0gyXU4oW0NIM10pW0NIMl1bQ0gyXTM=

> <s_epik_cmdline>
J2VwaWtfcHl0aG9uJywgJy1waCcsICc3LjAnLCAnLXRuJywgJzgnLCAnLW1hJywgJzIwMCcsICctbWV0YWxfYmluZGluZycsICctaW1hZScsICc8aW5maWxlLm1hZT4nLCAnLW9tYWUnLCAnPG91dGZpbGUubWFlPic=

> <r_epik_Ionization_Penalty>
0.180973

> <r_epik_Ionization_Penalty_Charging>
0.180787

> <r_epik_Ionization_Penalty_Neutral>
0.000186186

> <r_epik_State_Penalty>
0.153592

> <r_epik_Charging_Adjusted_Penalty>
0.334379

> <i_epik_Tot_Q>
2

> <i_epik_Tot_abs_Q>
2

> <r_epik_Metal_State_Penalty>
0.153604

> <b_epik_Metal_Only>
0

> <s_lp_Force_Field>
OPLS_2005

> <r_lp_Energy>
49.6144

> <b_lp_Chiralities_Consistent>
1

> <s_lp_Variant>
AV-unprocessed.smi:2279-4

> <Gold.Version>
5.8.1

> <Gold.Id.Protein>
6NUR|6NUR_protein|mol2

> <Gold.PLP.Fitness>
40.4234

> <Gold.PLP.PLP>
-38.1385

> <Gold.PLP.part.hbond>
-1.0000

> <Gold.PLP.part.metal>
0.0000

> <Gold.PLP.part.buried>
-3.3489

> <Gold.PLP.part.nonpolar>
-34.1750

> <Gold.PLP.part.repulsive>
0.5831

> <Gold.PLP.ligand.clash>
0.0000

> <Gold.PLP.ligand.torsion>
1.8809

> <Gold.PLP.Chemscore.Hbond>
2.0000

> <Gold.PLP.Chemscore.CHOScore>
0.0000

> <Gold.PLP.Chemscore.Metal>
0.0000

> <Gold.Chemscore.Hbonds>
donor molecule, donor type, donor heavy atom, donor atom, acceptor molecule, acceptor atom, score
      L1  H    15    57       P1 10175  2.00

> <Gold.PLP.Chemscore.Internal.Correction>
0.0467

> <Gold.Rescore>
     Score         DG    S(hbond)    S(metal)    S(lipo)     H(rot)  DE(clash)    DE(int)     intcor
     14.32     -18.46       0.99        0.00     109.15       1.21       0.34       3.80       ----

> <Gold.Chemscore.Fitness>
14.3151

> <Gold.Chemscore.DG>
-18.4563

> <Gold.Chemscore.ZeroCoef>
-5.4800

> <Gold.Chemscore.Hbond>
0.9886

> <Gold.Chemscore.Metal>
0.0000

> <Gold.Chemscore.Lipo>
109.1506

> <Gold.Chemscore.Internal_Hbond>
0.0000

> <Gold.Chemscore.DEClash>
0.3385

> <Gold.Chemscore.DEInternal>
3.8028

> <Gold.Chemscore.Rot>
1.2095

> <Gold.Chemscore.Internal.Correction>
   9.000000E+99

> <Gold.Chemscore.Hbonds>
donor molecule, donor type, donor heavy atom, donor atom, acceptor molecule, acceptor atom, score
      L1  H    15    57       P1 10175  0.96

> <Gold.Chemscore.Hbond.Weighted>
-3.3020

> <Gold.Chemscore.Metal.Weighted>
-0.0000

> <Gold.Chemscore.Lipo.Weighted>
-12.7706

> <Gold.Chemscore.Internal_Hbond.Weighted>
0.0000

> <Gold.Chemscore.DEClash.Weighted>
0.3385

> <Gold.Chemscore.DEInternal.Weighted>
3.8028

> <Gold.Chemscore.Rot.Weighted>
3.0963

> <Gold.Chemscore.Internal.Correction.Weighted>
   9.000000E+99

> <Gold.Protein.RotatedTorsions>
[ 6907 6896 6895 6894 ] final  -24.60 input  -60.11 | X-H torsion
[ 7974 7965 7964 7962 ] final  135.18 input  175.53 | X-H torsion
[ 8008 7997 7996 7995 ] final   30.11 input   59.86 | X-H torsion
[ 10167 10162 10161 10158 ] final -130.74 input  -65.29 | X-H torsion
[ 10718 10713 10712 10709 ] final  -26.23 input   66.30 | X-H torsion
[ 10763 10752 10751 10750 ] final  -21.23 input  -60.55 | X-H torsion
[ 11005 11000 10999 10996 ] final   50.15 input  -57.11 | X-H torsion

> <Gold.Protein.ActiveResidues>
 VAL166  LYS551  ARG553  GLY616  TRP617  ASP618  TYR619  PRO620  LYS621  CYS622 
 ASP623  PHE694  ASN695  SER759  ASP760  ASP761  ALA762  ILE779  LEU786  VAL792 
 PHE793  MET794  SER795  GLU796  ALA797  LYS798  CYS799  TRP800  GLU811  SER814 

> <Gold.Protein.RotatedAtoms>
  151.1872  135.0386  159.8816 H   0  0  0  0  0  0  0  0  0  0  0  0  # atno 6907 bound_to 6896
  152.5441  134.0997  159.8322 H   0  0  0  0  0  0  0  0  0  0  0  0  # atno 6908 bound_to 6896
  151.1121  133.5118  159.2637 H   0  0  0  0  0  0  0  0  0  0  0  0  # atno 6909 bound_to 6896
  144.9689  139.4627  143.5443 H   0  0  0  0  0  0  0  0  0  0  0  0  # atno 7974 bound_to 7965
  155.0852  140.3214  155.4589 H   0  0  0  0  0  0  0  0  0  0  0  0  # atno 8008 bound_to 7997
  156.2757  140.2087  156.5926 H   0  0  0  0  0  0  0  0  0  0  0  0  # atno 8009 bound_to 7997
  154.6946  140.0513  157.0385 H   0  0  0  0  0  0  0  0  0  0  0  0  # atno 8010 bound_to 7997
  139.9262  143.6325  152.2541 H   0  0  0  0  0  0  0  0  0  0  0  0  # atno 10167 bound_to 10162
  156.4539  130.4489  149.6972 H   0  0  0  0  0  0  0  0  0  0  0  0  # atno 10718 bound_to 10713
  153.6329  135.6988  153.5269 H   0  0  0  0  0  0  0  0  0  0  0  0  # atno 10763 bound_to 10752
  153.2845  135.4176  155.1109 H   0  0  0  0  0  0  0  0  0  0  0  0  # atno 10764 bound_to 10752
  154.8518  135.3610  154.5872 H   0  0  0  0  0  0  0  0  0  0  0  0  # atno 10765 bound_to 10752
  140.1042  134.5040  155.8735 H   0  0  0  0  0  0  0  0  0  0  0  0  # atno 11005 bound_to 11000
  146.3376  139.8888  142.8812 LP  0  0  0  0  0  0  0  0  0  0  0  0  # atno 17320 bound_to 7965
  145.2588  141.0070  143.3838 LP  0  0  0  0  0  0  0  0  0  0  0  0  # atno 17321 bound_to 7965
  139.6820  144.7655  151.1591 LP  0  0  0  0  0  0  0  0  0  0  0  0  # atno 17342 bound_to 10162
  140.7649  143.5711  150.8995 LP  0  0  0  0  0  0  0  0  0  0  0  0  # atno 17343 bound_to 10162
  156.3787  130.7568  151.2558 LP  0  0  0  0  0  0  0  0  0  0  0  0  # atno 17370 bound_to 10713
  157.7501  131.0302  150.4126 LP  0  0  0  0  0  0  0  0  0  0  0  0  # atno 17371 bound_to 10713
  141.2114  133.6706  156.6579 LP  0  0  0  0  0  0  0  0  0  0  0  0  # atno 17394 bound_to 11000
  140.3178  134.8033  157.4228 LP  0  0  0  0  0  0  0  0  0  0  0  0  # atno 17395 bound_to 11000

$$$$
