AV-unprocessed.smi:3245|AV-procd|sdf|12402|dock7
  -GOLD-   2272018283D 1   1.00000     0.00000
 Structure written by MMmdl.
 36 37  0  0  0  0  0  0  0  0  2 V2000
  147.9237  142.1627  153.7511 C   0  0  0  0  0  0  0  0  0  0  0  0
  149.0471  141.4535  154.5191 C   0  0  2  0  0  0  0  0  0  0  0  0
  148.9724  139.9258  154.3048 C   0  0  0  0  0  0  0  0  0  0  0  0
  150.2691  139.2774  154.3850 N   0  0  0  0  0  0  0  0  0  0  0  0
  150.5921  137.9671  154.1021 C   0  0  0  0  0  0  0  0  0  0  0  0
  151.9356  137.8283  154.3024 C   0  0  0  0  0  0  0  0  0  0  0  0
  152.3524  139.1237  154.7177 C   0  0  0  0  0  0  0  0  0  0  0  0
  151.3525  139.9894  154.7655 N   0  0  0  0  0  0  0  0  0  0  0  0
  148.9536  141.7974  155.9563 N   0  3  0  0  0  0  0  0  0  0  0  0
  150.1438  141.4500  156.7595 C   0  0  0  0  0  0  0  0  0  0  0  0
  150.0796  142.1058  158.1463 C   0  0  0  0  0  0  0  0  0  0  0  0
  151.2511  141.7557  158.9530 N   0  0  0  0  0  0  0  0  0  0  0  0
  152.0536  142.6527  159.5407 C   0  0  0  0  0  0  0  0  0  0  0  0
  151.9561  143.8790  159.5057 O   0  0  0  0  0  0  0  0  0  0  0  0
  153.1317  141.9078  160.2973 C   0  0  0  0  0  0  0  0  0  0  0  0
  152.7290  140.5494  160.0017 N   0  0  0  0  0  0  0  0  0  0  0  0
  151.6367  140.4967  159.2285 C   0  0  0  0  0  0  0  0  0  0  0  0
  151.0857  139.4651  158.8477 O   0  0  0  0  0  0  0  0  0  0  0  0
  147.9907  141.9597  152.6818 H   0  0  0  0  0  0  0  0  0  0  0  0
  147.9779  143.2439  153.8826 H   0  0  0  0  0  0  0  0  0  0  0  0
  146.9404  141.8345  154.0903 H   0  0  0  0  0  0  0  0  0  0  0  0
  149.9941  141.8240  154.1226 H   0  0  0  0  0  0  0  0  0  0  0  0
  148.3012  139.4686  155.0342 H   0  0  0  0  0  0  0  0  0  0  0  0
  148.5524  139.7078  153.3221 H   0  0  0  0  0  0  0  0  0  0  0  0
  149.8489  137.2524  153.7809 H   0  0  0  0  0  0  0  0  0  0  0  0
  152.5308  136.9364  154.1736 H   0  0  0  0  0  0  0  0  0  0  0  0
  153.3448  139.4586  154.9810 H   0  0  0  0  0  0  0  0  0  0  0  0
  148.8099  142.7936  156.0389 H   0  0  0  0  0  0  0  0  0  0  0  0
  150.2146  140.3683  156.8718 H   0  0  0  0  0  0  0  0  0  0  0  0
  151.0390  141.7713  156.2255 H   0  0  0  0  0  0  0  0  0  0  0  0
  150.0019  143.1897  158.0443 H   0  0  0  0  0  0  0  0  0  0  0  0
  149.1720  141.7916  158.6649 H   0  0  0  0  0  0  0  0  0  0  0  0
  154.1253  142.1280  159.9060 H   0  0  0  0  0  0  0  0  0  0  0  0
  153.0914  142.1157  161.3668 H   0  0  0  0  0  0  0  0  0  0  0  0
  153.2224  139.7409  160.3517 H   0  0  0  0  0  0  0  0  0  0  0  0
  148.1482  141.3235  156.3404 H   0  0  0  0  0  0  0  0  0  0  0  0
  1  2  1  0  0  0  0
  1 19  1  0  0  0  0
  1 20  1  0  0  0  0
  1 21  1  0  0  0  0
  2  3  1  0  0  0  0
  2  9  1  0  0  0  0
  2 22  1  0  0  0  0
  3  4  1  0  0  0  0
  3 23  1  0  0  0  0
  3 24  1  0  0  0  0
  4  8  1  0  0  0  0
  4  5  1  0  0  0  0
  5  6  2  0  0  0  0
  5 25  1  0  0  0  0
  6  7  1  0  0  0  0
  6 26  1  0  0  0  0
  7  8  2  0  0  0  0
  7 27  1  0  0  0  0
  9 10  1  0  0  0  0
  9 28  1  0  0  0  0
  9 36  1  0  0  0  0
 10 11  1  0  0  0  0
 10 29  1  0  0  0  0
 10 30  1  0  0  0  0
 11 12  1  0  0  0  0
 11 31  1  0  0  0  0
 11 32  1  0  0  0  0
 12 17  1  0  0  0  0
 12 13  1  0  0  0  0
 13 14  2  0  0  0  0
 13 15  1  0  0  0  0
 15 16  1  0  0  0  0
 15 33  1  0  0  0  0
 15 34  1  0  0  0  0
 16 17  1  0  0  0  0
 16 35  1  0  0  0  0
 17 18  2  0  0  0  0
M  CHG  1   9   1
M  END
> <s_m_source_file>
AV-unprocessed.smi

> <i_m_source_file_index>
3245

> <i_lp_mmshare_version>
43012

> <i_f3d_flags>
0

> <s_epik_input>
bjFbY0hdW2NIXVtjSF1uMVtDSDJdW0NAQEhdKFtDSDNdKVtOSF1bQ0gyXVtDSDJdTjJDKD1PKVtDSDJdW05IXUMyPU8=

> <s_epik_cmdline>
J2VwaWtfcHl0aG9uJywgJy1waCcsICc3LjAnLCAnLXRuJywgJzgnLCAnLW1hJywgJzIwMCcsICctbWV0YWxfYmluZGluZycsICctaW1hZScsICc8aW5maWxlLm1hZT4nLCAnLW9tYWUnLCAnPG91dGZpbGUubWFlPic=

> <r_lp_tautomer_probability>
1

> <r_epik_Ionization_Penalty>
0.0160742

> <r_epik_Ionization_Penalty_Charging>
0.0159586

> <r_epik_Ionization_Penalty_Neutral>
0.000115543

> <r_epik_State_Penalty>
0.0125702

> <r_epik_Charging_Adjusted_Penalty>
0.0285288

> <i_epik_Tot_Q>
1

> <i_epik_Tot_abs_Q>
1

> <r_epik_Metal_State_Penalty>
0.0881892

> <b_epik_Metal_Only>
0

> <s_lp_Force_Field>
OPLS_2005

> <r_lp_Energy>
19.7378

> <b_lp_Chiralities_Consistent>
1

> <s_lp_Variant>
AV-unprocessed.smi:3245-1

> <Gold.Version>
5.8.1

> <Gold.Id.Protein>
6NUR|6NUR_protein|mol2

> <Gold.PLP.Fitness>
49.5876

> <Gold.PLP.PLP>
-38.6405

> <Gold.PLP.part.hbond>
-2.0000

> <Gold.PLP.part.metal>
0.0000

> <Gold.PLP.part.buried>
-4.6526

> <Gold.PLP.part.nonpolar>
-32.3142

> <Gold.PLP.part.repulsive>
0.2474

> <Gold.PLP.ligand.clash>
0.0000

> <Gold.PLP.ligand.torsion>
0.5439

> <Gold.PLP.Chemscore.Hbond>
3.0000

> <Gold.PLP.Chemscore.CHOScore>
0.9999

> <Gold.PLP.Chemscore.Metal>
0.0000

> <Gold.Chemscore.Hbonds>
donor molecule, donor type, donor heavy atom, donor atom, acceptor molecule, acceptor atom, score
      L1  H     9    28       P1  8028  2.00
      P1  H  7989  7998       L1     8  1.00
      L1  C     5    25       P1  7948  1.00

> <Gold.PLP.Chemscore.Internal.Correction>
0.0351

> <Gold.Rescore>
     Score         DG    S(hbond)    S(metal)    S(lipo)     H(rot)  DE(clash)    DE(int)     intcor
     10.98     -12.82       1.91        0.00      68.21       2.74       0.09       1.76       ----

> <Gold.Chemscore.Fitness>
10.9754

> <Gold.Chemscore.DG>
-12.8214

> <Gold.Chemscore.ZeroCoef>
-5.4800

> <Gold.Chemscore.Hbond>
1.9066

> <Gold.Chemscore.Metal>
0.0000

> <Gold.Chemscore.Lipo>
68.2054

> <Gold.Chemscore.Internal_Hbond>
0.0000

> <Gold.Chemscore.DEClash>
0.0899

> <Gold.Chemscore.DEInternal>
1.7562

> <Gold.Chemscore.Rot>
2.7369

> <Gold.Chemscore.Internal.Correction>
   9.000000E+99

> <Gold.Chemscore.Hbonds>
donor molecule, donor type, donor heavy atom, donor atom, acceptor molecule, acceptor atom, score
      L1  H     9    28       P1  8028  0.98
      P1  H  7989  7998       L1     8  0.11

> <Gold.Chemscore.Hbond.Weighted>
-6.3679

> <Gold.Chemscore.Metal.Weighted>
-0.0000

> <Gold.Chemscore.Lipo.Weighted>
-7.9800

> <Gold.Chemscore.Internal_Hbond.Weighted>
0.0000

> <Gold.Chemscore.DEClash.Weighted>
0.0899

> <Gold.Chemscore.DEInternal.Weighted>
1.7562

> <Gold.Chemscore.Rot.Weighted>
7.0065

> <Gold.Chemscore.Internal.Correction.Weighted>
   9.000000E+99

> <Gold.Protein.RotatedTorsions>
[ 6907 6896 6895 6894 ] final  -40.55 input  -60.11 | X-H torsion
[ 7974 7965 7964 7962 ] final  -62.09 input  175.53 | X-H torsion
[ 8008 7997 7996 7995 ] final   19.03 input   59.86 | X-H torsion
[ 10167 10162 10161 10158 ] final   13.29 input  -65.29 | X-H torsion
[ 10718 10713 10712 10709 ] final  -28.42 input   66.30 | X-H torsion
[ 10763 10752 10751 10750 ] final  -82.29 input  -60.55 | X-H torsion
[ 11005 11000 10999 10996 ] final  102.35 input  -57.11 | X-H torsion

> <Gold.Protein.ActiveResidues>
 VAL166  LYS551  ARG553  GLY616  TRP617  ASP618  TYR619  PRO620  LYS621  CYS622 
 ASP623  PHE694  ASN695  SER759  ASP760  ASP761  ALA762  ILE779  LEU786  VAL792 
 PHE793  MET794  SER795  GLU796  ALA797  LYS798  CYS799  TRP800  GLU811  SER814 

> <Gold.Protein.RotatedAtoms>
  150.9771  134.9133  159.7822 H   0  0  0  0  0  0  0  0  0  0  0  0  # atno 6907 bound_to 6896
  152.5209  134.3461  159.9244 H   0  0  0  0  0  0  0  0  0  0  0  0  # atno 6908 bound_to 6896
  151.3469  133.3899  159.2711 H   0  0  0  0  0  0  0  0  0  0  0  0  # atno 6909 bound_to 6896
  145.7955  140.8685  143.0258 H   0  0  0  0  0  0  0  0  0  0  0  0  # atno 7974 bound_to 7965
  154.9147  140.3019  155.5248 H   0  0  0  0  0  0  0  0  0  0  0  0  # atno 8008 bound_to 7997
  156.3013  140.2382  156.4125 H   0  0  0  0  0  0  0  0  0  0  0  0  # atno 8009 bound_to 7997
  154.8391  140.0414  157.1518 H   0  0  0  0  0  0  0  0  0  0  0  0  # atno 8010 bound_to 7997
  140.6012  143.8600  150.6967 H   0  0  0  0  0  0  0  0  0  0  0  0  # atno 10167 bound_to 10162
  156.4255  130.4435  149.7153 H   0  0  0  0  0  0  0  0  0  0  0  0  # atno 10718 bound_to 10713
  154.5740  135.5596  153.7121 H   0  0  0  0  0  0  0  0  0  0  0  0  # atno 10763 bound_to 10752
  153.0058  135.6304  154.2075 H   0  0  0  0  0  0  0  0  0  0  0  0  # atno 10764 bound_to 10752
  154.2015  135.2877  155.2969 H   0  0  0  0  0  0  0  0  0  0  0  0  # atno 10765 bound_to 10752
  139.8777  134.9220  156.5044 H   0  0  0  0  0  0  0  0  0  0  0  0  # atno 11005 bound_to 11000
  144.6776  140.0184  143.7484 LP  0  0  0  0  0  0  0  0  0  0  0  0  # atno 17320 bound_to 7965
  145.9933  139.3032  143.0972 LP  0  0  0  0  0  0  0  0  0  0  0  0  # atno 17321 bound_to 7965
  140.2147  143.3856  152.1691 LP  0  0  0  0  0  0  0  0  0  0  0  0  # atno 17342 bound_to 10162
  139.5292  144.7140  151.5116 LP  0  0  0  0  0  0  0  0  0  0  0  0  # atno 17343 bound_to 10162
  156.4077  130.7706  151.2718 LP  0  0  0  0  0  0  0  0  0  0  0  0  # atno 17370 bound_to 10713
  157.7508  131.0221  150.3776 LP  0  0  0  0  0  0  0  0  0  0  0  0  # atno 17371 bound_to 10713
  140.8566  133.8091  155.9222 LP  0  0  0  0  0  0  0  0  0  0  0  0  # atno 17394 bound_to 11000
  140.9091  134.2282  157.4996 LP  0  0  0  0  0  0  0  0  0  0  0  0  # atno 17395 bound_to 11000

$$$$
