AV-unprocessed.smi:3140|AV-procd|sdf|11959|dock2
  -GOLD-   2272017353D 1   1.00000     0.00000
 Structure written by MMmdl.
 38 39  0  0  0  0  0  0  0  0  2 V2000
  152.0815  144.4142  156.5909 C   0  0  0  0  0  0  0  0  0  0  0  0
  151.6388  143.8447  157.9454 C   0  0  1  0  0  0  0  0  0  0  0  0
  152.2934  144.6255  159.1060 C   0  0  0  0  0  0  0  0  0  0  0  0
  152.6652  143.7754  160.2229 N   0  0  0  0  0  0  0  0  0  0  0  0
  152.3813  143.9443  161.5618 C   0  0  0  0  0  0  0  0  0  0  0  0
  152.9575  142.9037  162.2326 C   0  0  0  0  0  0  0  0  0  0  0  0
  153.5754  142.1378  161.2047 C   0  0  0  0  0  0  0  0  0  0  0  0
  153.3984  142.6623  160.0025 N   0  0  0  0  0  0  0  0  0  0  0  0
  150.1612  143.8859  158.0366 N   0  3  0  0  0  0  0  0  0  0  0  0
  149.5064  142.5640  158.1201 C   0  0  0  0  0  0  0  0  0  0  0  0
  149.5650  141.8352  156.7694 C   0  0  0  0  0  0  0  0  0  0  0  0
  150.6705  140.8825  156.7228 N   0  0  0  0  0  0  0  0  0  0  0  0
  151.5234  140.6713  157.8802 C   0  0  0  0  0  0  0  0  0  0  0  0
  152.4102  139.4745  157.5062 C   0  0  0  0  0  0  0  0  0  0  0  0
  152.2580  139.3016  155.9910 C   0  0  0  0  0  0  0  0  0  0  0  0
  151.0525  140.1647  155.6595 C   0  0  0  0  0  0  0  0  0  0  0  0
  150.5225  140.1762  154.5494 O   0  0  0  0  0  0  0  0  0  0  0  0
  153.1650  144.3647  156.4796 H   0  0  0  0  0  0  0  0  0  0  0  0
  151.7836  145.4574  156.4796 H   0  0  0  0  0  0  0  0  0  0  0  0
  151.6422  143.8524  155.7658 H   0  0  0  0  0  0  0  0  0  0  0  0
  151.9711  142.8058  157.9837 H   0  0  0  0  0  0  0  0  0  0  0  0
  153.1967  145.1260  158.7544 H   0  0  0  0  0  0  0  0  0  0  0  0
  151.6262  145.4113  159.4649 H   0  0  0  0  0  0  0  0  0  0  0  0
  151.8047  144.7836  161.9226 H   0  0  0  0  0  0  0  0  0  0  0  0
  152.9411  142.7171  163.2963 H   0  0  0  0  0  0  0  0  0  0  0  0
  154.1462  141.2253  161.2961 H   0  0  0  0  0  0  0  0  0  0  0  0
  149.9110  144.4287  158.8514 H   0  0  0  0  0  0  0  0  0  0  0  0
  149.9988  141.9709  158.8922 H   0  0  0  0  0  0  0  0  0  0  0  0
  148.4693  142.6866  158.4304 H   0  0  0  0  0  0  0  0  0  0  0  0
  148.6290  141.3037  156.5886 H   0  0  0  0  0  0  0  0  0  0  0  0
  149.6722  142.5570  155.9584 H   0  0  0  0  0  0  0  0  0  0  0  0
  152.1253  141.5649  158.0512 H   0  0  0  0  0  0  0  0  0  0  0  0
  150.9367  140.4755  158.7786 H   0  0  0  0  0  0  0  0  0  0  0  0
  153.4490  139.6346  157.7975 H   0  0  0  0  0  0  0  0  0  0  0  0
  152.0620  138.5758  158.0171 H   0  0  0  0  0  0  0  0  0  0  0  0
  153.1312  139.6784  155.4574 H   0  0  0  0  0  0  0  0  0  0  0  0
  152.0946  138.2615  155.7076 H   0  0  0  0  0  0  0  0  0  0  0  0
  149.8032  144.3542  157.2165 H   0  0  0  0  0  0  0  0  0  0  0  0
  1  2  1  0  0  0  0
  1 18  1  0  0  0  0
  1 19  1  0  0  0  0
  1 20  1  0  0  0  0
  2  3  1  0  0  0  0
  2  9  1  0  0  0  0
  2 21  1  0  0  0  0
  3  4  1  0  0  0  0
  3 22  1  0  0  0  0
  3 23  1  0  0  0  0
  4  8  1  0  0  0  0
  4  5  1  0  0  0  0
  5  6  2  0  0  0  0
  5 24  1  0  0  0  0
  6  7  1  0  0  0  0
  6 25  1  0  0  0  0
  7  8  2  0  0  0  0
  7 26  1  0  0  0  0
  9 10  1  0  0  0  0
  9 27  1  0  0  0  0
  9 38  1  0  0  0  0
 10 11  1  0  0  0  0
 10 28  1  0  0  0  0
 10 29  1  0  0  0  0
 11 12  1  0  0  0  0
 11 30  1  0  0  0  0
 11 31  1  0  0  0  0
 12 16  1  0  0  0  0
 12 13  1  0  0  0  0
 13 14  1  0  0  0  0
 13 32  1  0  0  0  0
 13 33  1  0  0  0  0
 14 15  1  0  0  0  0
 14 34  1  0  0  0  0
 14 35  1  0  0  0  0
 15 16  1  0  0  0  0
 15 36  1  0  0  0  0
 15 37  1  0  0  0  0
 16 17  2  0  0  0  0
M  CHG  1   9   1
M  END
> <s_m_source_file>
AV-unprocessed.smi

> <i_m_source_file_index>
3140

> <i_lp_mmshare_version>
43012

> <i_f3d_flags>
0

> <s_epik_input>
bjFbY0hdW2NIXVtjSF1uMVtDSDJdW0NAQEhdKFtDSDNdKVtOSF1bQ0gyXVtDSDJdTjJbQ0gyXVtDSDJdW0NIMl1DMj1P

> <s_epik_cmdline>
J2VwaWtfcHl0aG9uJywgJy1waCcsICc3LjAnLCAnLXRuJywgJzgnLCAnLW1hJywgJzIwMCcsICctbWV0YWxfYmluZGluZycsICctaW1hZScsICc8aW5maWxlLm1hZT4nLCAnLW9tYWUnLCAnPG91dGZpbGUubWFlPic=

> <r_lp_tautomer_probability>
1

> <r_epik_Ionization_Penalty>
0.00826299

> <r_epik_Ionization_Penalty_Charging>
0.00825899

> <r_epik_Ionization_Penalty_Neutral>
3.99893e-06

> <r_epik_State_Penalty>
0.00621436

> <r_epik_Charging_Adjusted_Penalty>
0.0144734

> <i_epik_Tot_Q>
1

> <i_epik_Tot_abs_Q>
1

> <r_epik_Metal_State_Penalty>
0.00621472

> <b_epik_Metal_Only>
0

> <s_lp_Force_Field>
OPLS_2005

> <r_lp_Energy>
19.0418

> <b_lp_Chiralities_Consistent>
1

> <s_lp_Variant>
AV-unprocessed.smi:3140-2

> <Gold.Version>
5.8.1

> <Gold.Id.Protein>
6NUR|6NUR_protein|mol2

> <Gold.PLP.Fitness>
48.3796

> <Gold.PLP.PLP>
-42.5468

> <Gold.PLP.part.hbond>
-2.6051

> <Gold.PLP.part.metal>
0.0000

> <Gold.PLP.part.buried>
-4.5699

> <Gold.PLP.part.nonpolar>
-35.4432

> <Gold.PLP.part.repulsive>
0.1316

> <Gold.PLP.ligand.clash>
0.0000

> <Gold.PLP.ligand.torsion>
1.6413

> <Gold.PLP.Chemscore.Hbond>
3.0000

> <Gold.PLP.Chemscore.CHOScore>
0.0000

> <Gold.PLP.Chemscore.Metal>
0.0000

> <Gold.Chemscore.Hbonds>
donor molecule, donor type, donor heavy atom, donor atom, acceptor molecule, acceptor atom, score
      L1  H     9    38       P1  8028  2.00
      P1  H  7989  7998       L1    17  1.00

> <Gold.PLP.Chemscore.Internal.Correction>
0.1154

> <Gold.Rescore>
     Score         DG    S(hbond)    S(metal)    S(lipo)     H(rot)  DE(clash)    DE(int)     intcor
     15.23     -18.52       1.96        0.00     100.50       2.06       1.59       1.70       ----

> <Gold.Chemscore.Fitness>
15.2321

> <Gold.Chemscore.DG>
-18.5244

> <Gold.Chemscore.ZeroCoef>
-5.4800

> <Gold.Chemscore.Hbond>
1.9606

> <Gold.Chemscore.Metal>
0.0000

> <Gold.Chemscore.Lipo>
100.5007

> <Gold.Chemscore.Internal_Hbond>
0.0000

> <Gold.Chemscore.DEClash>
1.5890

> <Gold.Chemscore.DEInternal>
1.7033

> <Gold.Chemscore.Rot>
2.0557

> <Gold.Chemscore.Internal.Correction>
   9.000000E+99

> <Gold.Chemscore.Hbonds>
donor molecule, donor type, donor heavy atom, donor atom, acceptor molecule, acceptor atom, score
      L1  H     9    38       P1  8028  0.40
      P1  H  7989  7998       L1    17  0.60

> <Gold.Chemscore.Hbond.Weighted>
-6.5485

> <Gold.Chemscore.Metal.Weighted>
-0.0000

> <Gold.Chemscore.Lipo.Weighted>
-11.7586

> <Gold.Chemscore.Internal_Hbond.Weighted>
0.0000

> <Gold.Chemscore.DEClash.Weighted>
1.5890

> <Gold.Chemscore.DEInternal.Weighted>
1.7033

> <Gold.Chemscore.Rot.Weighted>
5.2627

> <Gold.Chemscore.Internal.Correction.Weighted>
   9.000000E+99

> <Gold.Protein.RotatedTorsions>
[ 6907 6896 6895 6894 ] final  -91.22 input  -60.11 | X-H torsion
[ 7974 7965 7964 7962 ] final  -88.36 input  175.53 | X-H torsion
[ 8008 7997 7996 7995 ] final -111.91 input   59.86 | X-H torsion
[ 10167 10162 10161 10158 ] final  126.10 input  -65.29 | X-H torsion
[ 10718 10713 10712 10709 ] final  135.59 input   66.30 | X-H torsion
[ 10763 10752 10751 10750 ] final   87.75 input  -60.55 | X-H torsion
[ 11005 11000 10999 10996 ] final -111.49 input  -57.11 | X-H torsion

> <Gold.Protein.ActiveResidues>
 VAL166  LYS551  ARG553  GLY616  TRP617  ASP618  TYR619  PRO620  LYS621  CYS622 
 ASP623  PHE694  ASN695  SER759  ASP760  ASP761  ALA762  ILE779  LEU786  VAL792 
 PHE793  MET794  SER795  GLU796  ALA797  LYS798  CYS799  TRP800  GLU811  SER814 

> <Gold.Protein.RotatedAtoms>
  150.6890  134.2311  159.4434 H   0  0  0  0  0  0  0  0  0  0  0  0  # atno 6907 bound_to 6896
  152.0262  134.9792  160.0581 H   0  0  0  0  0  0  0  0  0  0  0  0  # atno 6908 bound_to 6896
  152.1349  133.4395  159.4776 H   0  0  0  0  0  0  0  0  0  0  0  0  # atno 6909 bound_to 6896
  145.4542  140.9561  143.2005 H   0  0  0  0  0  0  0  0  0  0  0  0  # atno 7974 bound_to 7965
  154.9970  140.0394  157.2344 H   0  0  0  0  0  0  0  0  0  0  0  0  # atno 8008 bound_to 7997
  154.7577  140.2778  155.6217 H   0  0  0  0  0  0  0  0  0  0  0  0  # atno 8009 bound_to 7997
  156.2898  140.2634  156.2347 H   0  0  0  0  0  0  0  0  0  0  0  0  # atno 8010 bound_to 7997
  139.5649  144.6905  151.3938 H   0  0  0  0  0  0  0  0  0  0  0  0  # atno 10167 bound_to 10162
  157.4555  131.1069  150.9982 H   0  0  0  0  0  0  0  0  0  0  0  0  # atno 10718 bound_to 10713
  153.1699  135.4532  154.9888 H   0  0  0  0  0  0  0  0  0  0  0  0  # atno 10763 bound_to 10752
  154.7958  135.3237  154.7672 H   0  0  0  0  0  0  0  0  0  0  0  0  # atno 10764 bound_to 10752
  153.8149  135.6951  153.4890 H   0  0  0  0  0  0  0  0  0  0  0  0  # atno 10765 bound_to 10752
  141.0731  133.9346  157.2444 H   0  0  0  0  0  0  0  0  0  0  0  0  # atno 11005 bound_to 11000
  144.8043  139.6082  143.7058 LP  0  0  0  0  0  0  0  0  0  0  0  0  # atno 17320 bound_to 7965
  146.2487  139.6154  142.9442 LP  0  0  0  0  0  0  0  0  0  0  0  0  # atno 17321 bound_to 7965
  140.6932  143.7812  150.7287 LP  0  0  0  0  0  0  0  0  0  0  0  0  # atno 17342 bound_to 10162
  140.1300  143.4534  152.2260 LP  0  0  0  0  0  0  0  0  0  0  0  0  # atno 17343 bound_to 10162
  157.0797  130.5898  149.5418 LP  0  0  0  0  0  0  0  0  0  0  0  0  # atno 17370 bound_to 10713
  156.0005  130.5083  150.7646 LP  0  0  0  0  0  0  0  0  0  0  0  0  # atno 17371 bound_to 10713
  139.9544  135.0169  156.9086 LP  0  0  0  0  0  0  0  0  0  0  0  0  # atno 17394 bound_to 11000
  140.5631  134.0516  155.7405 LP  0  0  0  0  0  0  0  0  0  0  0  0  # atno 17395 bound_to 11000

$$$$
