AV-unprocessed.smi:193|AV-procd|sdf|1514|dock1
  -GOLD-   2262019353D 1   1.00000     0.00000
 Structure written by MMmdl.
 61 65  0  0  0  0  0  0  0  0  1 V2000
  149.8146  141.8303  155.3533 C   0  0  0  0  0  0  0  0  0  0  0  0
  150.6963  141.3126  156.4990 C   0  0  2  0  0  0  0  0  0  0  0  0
  150.5492  139.7775  156.6058 C   0  0  0  0  0  0  0  0  0  0  0  0
  151.5021  139.1632  157.5315 N   0  0  0  0  0  0  0  0  0  0  0  0
  151.8571  137.8675  157.3375 C   0  0  0  0  0  0  0  0  0  0  0  0
  153.0622  137.4274  157.7875 N   0  0  0  0  0  0  0  0  0  0  0  0
  153.4297  136.1564  157.5994 C   0  0  0  0  0  0  0  0  0  0  0  0
  152.7575  135.1736  156.9973 N   0  0  0  0  0  0  0  0  0  0  0  0
  151.5448  135.6062  156.5479 C   0  0  0  0  0  0  0  0  0  0  0  0
  151.0184  136.9223  156.6807 C   0  0  0  0  0  0  0  0  0  0  0  0
  149.7447  136.9795  156.1266 N   0  0  0  0  0  0  0  0  0  0  0  0
  149.5364  135.7718  155.6801 C   0  0  0  0  0  0  0  0  0  0  0  0
  150.5712  134.8856  155.8775 N   0  0  0  0  0  0  0  0  0  0  0  0
  150.6047  133.4870  155.4775 C   0  0  0  0  0  0  0  0  0  0  0  0
  150.6975  132.4864  156.6633 C   0  0  0  0  0  0  0  0  0  0  0  0
  150.0653  133.0860  157.7781 O   0  0  0  0  0  0  0  0  0  0  0  0
  149.9491  131.1737  156.3585 C   0  0  0  0  0  0  0  0  0  0  0  0
  150.7340  130.2891  155.3717 C   0  0  0  0  0  0  0  0  0  0  0  0
  152.0434  130.0370  155.8714 O   0  0  0  0  0  0  0  0  0  0  0  0
  152.8157  131.2199  156.0478 C   0  0  0  0  0  0  0  0  0  0  0  0
  152.1396  132.1322  157.0855 C   0  0  0  0  0  0  0  0  0  0  0  0
  151.5914  139.6788  158.8956 C   0  0  0  0  0  0  0  0  0  0  0  0
  152.3066  141.0376  158.9028 C   0  0  0  0  0  0  0  0  0  0  0  0
  151.3915  142.1758  158.7983 N   0  0  0  0  0  0  0  0  0  0  0  0
  152.1713  143.3702  158.4988 C   0  0  1  0  0  0  0  0  0  0  0  0
  151.4429  144.6943  158.4382 C   0  0  0  0  0  0  0  0  0  0  0  0
  152.3789  144.4075  159.5886 C   0  0  1  0  0  0  0  0  0  0  0  0
  151.8286  144.2551  160.9936 C   0  0  0  0  0  0  0  0  0  0  0  0
  150.3057  142.0153  157.8231 C   0  0  0  0  0  0  0  0  0  0  0  0
  148.7603  141.6220  155.5390 H   0  0  0  0  0  0  0  0  0  0  0  0
  150.0845  141.3618  154.4065 H   0  0  0  0  0  0  0  0  0  0  0  0
  149.9256  142.9076  155.2269 H   0  0  0  0  0  0  0  0  0  0  0  0
  151.7248  141.5597  156.2321 H   0  0  0  0  0  0  0  0  0  0  0  0
  149.5357  139.5140  156.9105 H   0  0  0  0  0  0  0  0  0  0  0  0
  150.6981  139.3495  155.6134 H   0  0  0  0  0  0  0  0  0  0  0  0
  154.4019  135.8885  157.9863 H   0  0  0  0  0  0  0  0  0  0  0  0
  148.6177  135.4944  155.1842 H   0  0  0  0  0  0  0  0  0  0  0  0
  149.7146  133.2817  154.8811 H   0  0  0  0  0  0  0  0  0  0  0  0
  151.4488  133.3618  154.8001 H   0  0  0  0  0  0  0  0  0  0  0  0
  149.4966  133.7739  157.4685 H   0  0  0  0  0  0  0  0  0  0  0  0
  149.8062  130.6096  157.2817 H   0  0  0  0  0  0  0  0  0  0  0  0
  148.9513  131.3801  155.9696 H   0  0  0  0  0  0  0  0  0  0  0  0
  150.2225  129.3353  155.2416 H   0  0  0  0  0  0  0  0  0  0  0  0
  150.7922  130.7474  154.3840 H   0  0  0  0  0  0  0  0  0  0  0  0
  153.8106  130.9379  156.3926 H   0  0  0  0  0  0  0  0  0  0  0  0
  152.9462  131.7305  155.0930 H   0  0  0  0  0  0  0  0  0  0  0  0
  152.7391  133.0257  157.2585 H   0  0  0  0  0  0  0  0  0  0  0  0
  152.1199  131.6023  158.0393 H   0  0  0  0  0  0  0  0  0  0  0  0
  150.5979  139.7470  159.3400 H   0  0  0  0  0  0  0  0  0  0  0  0
  152.1419  138.9876  159.5333 H   0  0  0  0  0  0  0  0  0  0  0  0
  152.8527  141.1446  159.8398 H   0  0  0  0  0  0  0  0  0  0  0  0
  153.0598  141.0631  158.1132 H   0  0  0  0  0  0  0  0  0  0  0  0
  152.9958  143.2757  157.7940 H   0  0  0  0  0  0  0  0  0  0  0  0
  151.7724  145.4137  157.6915 H   0  0  0  0  0  0  0  0  0  0  0  0
  150.3739  144.6963  158.6438 H   0  0  0  0  0  0  0  0  0  0  0  0
  153.3387  144.9195  159.5608 H   0  0  0  0  0  0  0  0  0  0  0  0
  150.8430  143.7888  160.9822 H   0  0  0  0  0  0  0  0  0  0  0  0
  151.7398  145.2335  161.4657 H   0  0  0  0  0  0  0  0  0  0  0  0
  152.4988  143.6412  161.5949 H   0  0  0  0  0  0  0  0  0  0  0  0
  149.8836  143.0000  157.6178 H   0  0  0  0  0  0  0  0  0  0  0  0
  149.4957  141.4597  158.2965 H   0  0  0  0  0  0  0  0  0  0  0  0
  1  2  1  0  0  0  0
  1 30  1  0  0  0  0
  1 31  1  0  0  0  0
  1 32  1  0  0  0  0
  2 29  1  0  0  0  0
  2  3  1  0  0  0  0
  2 33  1  0  0  0  0
  3  4  1  0  0  0  0
  3 34  1  0  0  0  0
  3 35  1  0  0  0  0
  4  5  1  0  0  0  0
  4 22  1  0  0  0  0
  5 10  1  0  0  0  0
  5  6  2  0  0  0  0
  6  7  1  0  0  0  0
  7  8  2  0  0  0  0
  7 36  1  0  0  0  0
  8  9  1  0  0  0  0
  9 13  1  0  0  0  0
  9 10  2  0  0  0  0
 10 11  1  0  0  0  0
 11 12  2  0  0  0  0
 12 13  1  0  0  0  0
 12 37  1  0  0  0  0
 13 14  1  0  0  0  0
 14 15  1  0  0  0  0
 14 38  1  0  0  0  0
 14 39  1  0  0  0  0
 15 21  1  0  0  0  0
 15 16  1  0  0  0  0
 15 17  1  0  0  0  0
 16 40  1  0  0  0  0
 17 18  1  0  0  0  0
 17 41  1  0  0  0  0
 17 42  1  0  0  0  0
 18 19  1  0  0  0  0
 18 43  1  0  0  0  0
 18 44  1  0  0  0  0
 19 20  1  0  0  0  0
 20 21  1  0  0  0  0
 20 45  1  0  0  0  0
 20 46  1  0  0  0  0
 21 47  1  0  0  0  0
 21 48  1  0  0  0  0
 22 23  1  0  0  0  0
 22 49  1  0  0  0  0
 22 50  1  0  0  0  0
 23 24  1  0  0  0  0
 23 51  1  0  0  0  0
 23 52  1  0  0  0  0
 24 25  1  0  0  0  0
 24 29  1  0  0  0  0
 25 27  1  0  0  0  0
 25 26  1  0  0  0  0
 25 53  1  0  0  0  0
 26 27  1  0  0  0  0
 26 54  1  0  0  0  0
 26 55  1  0  0  0  0
 27 28  1  0  0  0  0
 27 56  1  0  0  0  0
 28 57  1  0  0  0  0
 28 58  1  0  0  0  0
 28 59  1  0  0  0  0
 29 60  1  0  0  0  0
 29 61  1  0  0  0  0
M  END
> <s_m_source_file>
AV-unprocessed.smi

> <i_m_source_file_index>
193

> <i_lp_mmshare_version>
43012

> <i_f3d_flags>
0

> <s_epik_input>
W0NIM11bQ0BASF0xW0NIMl1bQ0BIXTFOKFtDSDJdMilbQ0gyXVtDSDJdTihbQ0gyXVtDQEhdMltDSDNdKWMobltjSF1uMyljKGMzNCluW2NIXW40W0NIMl1DNShbT0hdKVtDSDJdW0NIMl1PW0NIMl1bQ0gyXTU=

> <s_epik_cmdline>
J2VwaWtfcHl0aG9uJywgJy1waCcsICc3LjAnLCAnLXRuJywgJzgnLCAnLW1hJywgJzIwMCcsICctbWV0YWxfYmluZGluZycsICctaW1hZScsICc8aW5maWxlLm1hZT4nLCAnLW9tYWUnLCAnPG91dGZpbGUubWFlPic=

> <r_lp_tautomer_probability>
1

> <r_epik_Ionization_Penalty>
1.45227

> <r_epik_Ionization_Penalty_Charging>
0

> <r_epik_Ionization_Penalty_Neutral>
1.45227

> <r_epik_State_Penalty>
2.02377

> <r_epik_Charging_Adjusted_Penalty>
2.02377

> <i_epik_Tot_Q>
0

> <i_epik_Tot_abs_Q>
0

> <r_epik_Metal_State_Penalty>
2.01937

> <b_epik_Metal_Only>
0

> <s_lp_Force_Field>
OPLS_2005

> <r_lp_Energy>
54.496

> <b_lp_Chiralities_Consistent>
1

> <s_lp_Variant>
AV-unprocessed.smi:193-19

> <Gold.Version>
5.8.1

> <Gold.Id.Protein>
6NUR|6NUR_protein|mol2

> <Gold.PLP.Fitness>
45.8948

> <Gold.PLP.PLP>
-43.6540

> <Gold.PLP.part.hbond>
-2.0363

> <Gold.PLP.part.metal>
0.0000

> <Gold.PLP.part.buried>
-5.1371

> <Gold.PLP.part.nonpolar>
-37.0207

> <Gold.PLP.part.repulsive>
0.0503

> <Gold.PLP.ligand.clash>
0.0000

> <Gold.PLP.ligand.torsion>
1.9298

> <Gold.PLP.Chemscore.Hbond>
1.5525

> <Gold.PLP.Chemscore.CHOScore>
0.0000

> <Gold.PLP.Chemscore.Metal>
0.0000

> <Gold.Chemscore.Hbonds>
donor molecule, donor type, donor heavy atom, donor atom, acceptor molecule, acceptor atom, score
      P1  H  6896  6907       L1    16  1.00
      P1  H 10752 10764       L1     8  0.49

> <Gold.PLP.Chemscore.Internal.Correction>
1.4429

> <Gold.Rescore>
     Score         DG    S(hbond)    S(metal)    S(lipo)     H(rot)  DE(clash)    DE(int)     intcor
     14.81     -18.02       0.96        0.00     121.65       1.91       0.11       3.10       ----

> <Gold.Chemscore.Fitness>
14.8136

> <Gold.Chemscore.DG>
-18.0240

> <Gold.Chemscore.ZeroCoef>
-5.4800

> <Gold.Chemscore.Hbond>
0.9558

> <Gold.Chemscore.Metal>
0.0000

> <Gold.Chemscore.Lipo>
121.6506

> <Gold.Chemscore.Internal_Hbond>
0.0000

> <Gold.Chemscore.DEClash>
0.1124

> <Gold.Chemscore.DEInternal>
3.0980

> <Gold.Chemscore.Rot>
1.9068

> <Gold.Chemscore.Internal.Correction>
   9.000000E+99

> <Gold.Chemscore.Hbonds>
donor molecule, donor type, donor heavy atom, donor atom, acceptor molecule, acceptor atom, score
      P1  H  6896  6907       L1    16  0.85
      P1  H 10752 10764       L1     8  0.01

> <Gold.Chemscore.Hbond.Weighted>
-3.1923

> <Gold.Chemscore.Metal.Weighted>
-0.0000

> <Gold.Chemscore.Lipo.Weighted>
-14.2331

> <Gold.Chemscore.Internal_Hbond.Weighted>
0.0000

> <Gold.Chemscore.DEClash.Weighted>
0.1124

> <Gold.Chemscore.DEInternal.Weighted>
3.0980

> <Gold.Chemscore.Rot.Weighted>
4.8814

> <Gold.Chemscore.Internal.Correction.Weighted>
   9.000000E+99

> <Gold.Protein.RotatedTorsions>
[ 6907 6896 6895 6894 ] final -149.24 input  -60.11 | X-H torsion
[ 7974 7965 7964 7962 ] final  -79.77 input  175.53 | X-H torsion
[ 8008 7997 7996 7995 ] final  -15.83 input   59.86 | X-H torsion
[ 10167 10162 10161 10158 ] final  -70.96 input  -65.29 | X-H torsion
[ 10718 10713 10712 10709 ] final  115.57 input   66.30 | X-H torsion
[ 10763 10752 10751 10750 ] final   -5.49 input  -60.55 | X-H torsion
[ 11005 11000 10999 10996 ] final   20.81 input  -57.11 | X-H torsion

> <Gold.Protein.ActiveResidues>
 VAL166  LYS551  ARG553  GLY616  TRP617  ASP618  TYR619  PRO620  LYS621  CYS622 
 ASP623  PHE694  ASN695  SER759  ASP760  ASP761  ALA762  ILE779  LEU786  VAL792 
 PHE793  MET794  SER795  GLU796  ALA797  LYS798  CYS799  TRP800  GLU811  SER814 

> <Gold.Protein.RotatedAtoms>
  151.1814  133.4723  159.2593 H   0  0  0  0  0  0  0  0  0  0  0  0  # atno 6907 bound_to 6896
  151.1256  135.0102  159.8569 H   0  0  0  0  0  0  0  0  0  0  0  0  # atno 6908 bound_to 6896
  152.5458  134.1721  159.8654 H   0  0  0  0  0  0  0  0  0  0  0  0  # atno 6909 bound_to 6896
  145.5688  140.9469  143.1407 H   0  0  0  0  0  0  0  0  0  0  0  0  # atno 7974 bound_to 7965
  154.5100  140.2186  155.9176 H   0  0  0  0  0  0  0  0  0  0  0  0  # atno 8008 bound_to 7997
  156.1540  140.3155  155.8661 H   0  0  0  0  0  0  0  0  0  0  0  0  # atno 8009 bound_to 7997
  155.3883  140.0476  157.3032 H   0  0  0  0  0  0  0  0  0  0  0  0  # atno 8010 bound_to 7997
  140.5311  143.2321  151.7260 H   0  0  0  0  0  0  0  0  0  0  0  0  # atno 10167 bound_to 10162
  157.6214  131.1014  150.7348 H   0  0  0  0  0  0  0  0  0  0  0  0  # atno 10718 bound_to 10713
  153.3993  135.7004  153.6438 H   0  0  0  0  0  0  0  0  0  0  0  0  # atno 10763 bound_to 10752
  153.4978  135.3659  155.2525 H   0  0  0  0  0  0  0  0  0  0  0  0  # atno 10764 bound_to 10752
  154.8709  135.4104  154.3324 H   0  0  0  0  0  0  0  0  0  0  0  0  # atno 10765 bound_to 10752
  140.3985  134.1744  155.7663 H   0  0  0  0  0  0  0  0  0  0  0  0  # atno 11005 bound_to 11000
  144.7448  139.7351  143.7296 LP  0  0  0  0  0  0  0  0  0  0  0  0  # atno 17320 bound_to 7965
  146.1799  139.4987  142.9873 LP  0  0  0  0  0  0  0  0  0  0  0  0  # atno 17321 bound_to 7965
  139.4955  144.4112  152.0078 LP  0  0  0  0  0  0  0  0  0  0  0  0  # atno 17342 bound_to 10162
  140.3214  144.3423  150.6008 LP  0  0  0  0  0  0  0  0  0  0  0  0  # atno 17343 bound_to 10162
  156.7705  130.4827  149.5419 LP  0  0  0  0  0  0  0  0  0  0  0  0  # atno 17370 bound_to 10713
  156.1361  130.6212  151.0402 LP  0  0  0  0  0  0  0  0  0  0  0  0  # atno 17371 bound_to 10713
  141.1865  133.8300  157.1065 LP  0  0  0  0  0  0  0  0  0  0  0  0  # atno 17394 bound_to 11000
  140.0354  134.9881  157.0860 LP  0  0  0  0  0  0  0  0  0  0  0  0  # atno 17395 bound_to 11000

$$$$
