AV-unprocessed.smi:1899|AV-procd|sdf|7707|dock4
  -GOLD-   22720 9443D 1   1.00000     0.00000
 Structure written by MMmdl.
 33 34  0  0  0  0  0  0  0  0  1 V2000
  152.7914  140.1795  157.8434 O   0  0  0  0  0  0  0  0  0  0  0  0
  151.7854  140.8749  157.9876 C   0  0  0  0  0  0  0  0  0  0  0  0
  150.6959  140.7645  157.2110 N   0  0  0  0  0  0  0  0  0  0  0  0
  150.5176  139.7842  156.1436 C   0  0  0  0  0  0  0  0  0  0  0  0
  150.2690  140.4596  154.7818 C   0  0  0  0  0  0  0  0  0  0  0  0
  148.8633  140.7256  154.5375 N   0  0  0  0  0  0  0  0  0  0  0  0
  148.0239  140.0539  153.6578 C   0  0  0  0  0  0  0  0  0  0  0  0
  146.7908  140.6578  153.7525 C   0  0  0  0  0  0  0  0  0  0  0  0
  146.8456  141.6917  154.6843 N   0  0  0  0  0  0  0  0  0  0  0  0
  148.1032  141.6709  155.1070 C   0  0  0  0  0  0  0  0  0  0  0  0
  151.7195  141.9113  159.1163 C   0  0  2  0  0  0  0  0  0  0  0  0
  151.6029  143.3488  158.5585 C   0  0  0  0  0  0  0  0  0  0  0  0
  151.8069  144.3999  159.6359 C   0  0  0  0  0  0  0  0  0  0  0  0
  152.3499  144.1332  160.8363 C   0  0  0  0  0  0  0  0  0  0  0  0
  152.8257  142.7518  161.2501 C   0  0  0  0  0  0  0  0  0  0  0  0
  152.9404  141.7926  160.0506 C   0  0  0  0  0  0  0  0  0  0  0  0
  149.9169  141.3788  157.3996 H   0  0  0  0  0  0  0  0  0  0  0  0
  151.4298  139.1900  156.0879 H   0  0  0  0  0  0  0  0  0  0  0  0
  149.7149  139.0829  156.3782 H   0  0  0  0  0  0  0  0  0  0  0  0
  150.8222  141.3973  154.7134 H   0  0  0  0  0  0  0  0  0  0  0  0
  150.6369  139.8203  153.9785 H   0  0  0  0  0  0  0  0  0  0  0  0
  148.3664  139.2314  153.0475 H   0  0  0  0  0  0  0  0  0  0  0  0
  145.8760  140.4296  153.2258 H   0  0  0  0  0  0  0  0  0  0  0  0
  148.4824  142.3638  155.8436 H   0  0  0  0  0  0  0  0  0  0  0  0
  150.8280  141.7086  159.7131 H   0  0  0  0  0  0  0  0  0  0  0  0
  152.3343  143.5318  157.7700 H   0  0  0  0  0  0  0  0  0  0  0  0
  150.6167  143.4927  158.1159 H   0  0  0  0  0  0  0  0  0  0  0  0
  151.5033  145.4083  159.3964 H   0  0  0  0  0  0  0  0  0  0  0  0
  152.4558  144.9232  161.5653 H   0  0  0  0  0  0  0  0  0  0  0  0
  153.7903  142.8375  161.7511 H   0  0  0  0  0  0  0  0  0  0  0  0
  152.1208  142.3568  161.9822 H   0  0  0  0  0  0  0  0  0  0  0  0
  153.0568  140.7690  160.4096 H   0  0  0  0  0  0  0  0  0  0  0  0
  153.8488  142.0267  159.4930 H   0  0  0  0  0  0  0  0  0  0  0  0
  1  2  2  0  0  0  0
  2  3  1  0  0  0  0
  2 11  1  0  0  0  0
  3  4  1  0  0  0  0
  3 17  1  0  0  0  0
  4  5  1  0  0  0  0
  4 18  1  0  0  0  0
  4 19  1  0  0  0  0
  5  6  1  0  0  0  0
  5 20  1  0  0  0  0
  5 21  1  0  0  0  0
  6 10  1  0  0  0  0
  6  7  1  0  0  0  0
  7  8  2  0  0  0  0
  7 22  1  0  0  0  0
  8  9  1  0  0  0  0
  8 23  1  0  0  0  0
  9 10  2  0  0  0  0
 10 24  1  0  0  0  0
 11 16  1  0  0  0  0
 11 12  1  0  0  0  0
 11 25  1  0  0  0  0
 12 13  1  0  0  0  0
 12 26  1  0  0  0  0
 12 27  1  0  0  0  0
 13 14  2  0  0  0  0
 13 28  1  0  0  0  0
 14 15  1  0  0  0  0
 14 29  1  0  0  0  0
 15 16  1  0  0  0  0
 15 30  1  0  0  0  0
 15 31  1  0  0  0  0
 16 32  1  0  0  0  0
 16 33  1  0  0  0  0
M  END
> <s_m_source_file>
AV-unprocessed.smi

> <i_m_source_file_index>
1899

> <i_lp_mmshare_version>
43012

> <i_f3d_flags>
0

> <s_epik_input>
W0NIMl0xW0NIMl1bQ0hdPVtDSF1bQ0gyXVtDQEhdMUMoPU8pW05IXVtDSDJdW0NIMl1uMltjSF1bY0hdbltjSF0y

> <s_epik_cmdline>
J2VwaWtfcHl0aG9uJywgJy1waCcsICc3LjAnLCAnLXRuJywgJzgnLCAnLW1hJywgJzIwMCcsICctbWV0YWxfYmluZGluZycsICctaW1hZScsICc8aW5maWxlLm1hZT4nLCAnLW9tYWUnLCAnPG91dGZpbGUubWFlPic=

> <r_lp_tautomer_probability>
1

> <r_epik_Ionization_Penalty>
0.598506

> <r_epik_Ionization_Penalty_Charging>
0.598506

> <r_epik_Ionization_Penalty_Neutral>
1.57027e-08

> <r_epik_State_Penalty>
0.612686

> <r_epik_Charging_Adjusted_Penalty>
1.21119

> <i_epik_Tot_Q>
0

> <i_epik_Tot_abs_Q>
0

> <r_epik_Metal_State_Penalty>
0.300712

> <b_epik_Metal_Only>
0

> <s_lp_Force_Field>
OPLS_2005

> <r_lp_Energy>
9.97921

> <b_lp_Chiralities_Consistent>
1

> <s_lp_Variant>
AV-unprocessed.smi:1899-3

> <Gold.Version>
5.8.1

> <Gold.Id.Protein>
6NUR|6NUR_protein|mol2

> <Gold.PLP.Fitness>
43.0448

> <Gold.PLP.PLP>
-33.0452

> <Gold.PLP.part.hbond>
-1.0000

> <Gold.PLP.part.metal>
0.0000

> <Gold.PLP.part.buried>
0.7478

> <Gold.PLP.part.nonpolar>
-32.3536

> <Gold.PLP.part.repulsive>
0.1651

> <Gold.PLP.ligand.clash>
0.0000

> <Gold.PLP.ligand.torsion>
0.4025

> <Gold.PLP.Chemscore.Hbond>
0.9920

> <Gold.PLP.Chemscore.CHOScore>
2.5959

> <Gold.PLP.Chemscore.Metal>
0.0000

> <Gold.Chemscore.Hbonds>
donor molecule, donor type, donor heavy atom, donor atom, acceptor molecule, acceptor atom, score
      P1  H  7997  8010       L1     1  1.00
      L1  C     7    22       P1  7957  0.62
      L1  C     8    23       P1 10175  1.00
      L1  C    10    24       P1  8028  0.98

> <Gold.PLP.Chemscore.Internal.Correction>
0.0408

> <Gold.Rescore>
     Score         DG    S(hbond)    S(metal)    S(lipo)     H(rot)  DE(clash)    DE(int)     intcor
     14.03     -14.52       0.94        0.00      89.81       1.80       0.10       0.39       ----

> <Gold.Chemscore.Fitness>
14.0330

> <Gold.Chemscore.DG>
-14.5165

> <Gold.Chemscore.ZeroCoef>
-5.4800

> <Gold.Chemscore.Hbond>
0.9427

> <Gold.Chemscore.Metal>
0.0000

> <Gold.Chemscore.Lipo>
89.8136

> <Gold.Chemscore.Internal_Hbond>
0.0000

> <Gold.Chemscore.DEClash>
0.0961

> <Gold.Chemscore.DEInternal>
0.3874

> <Gold.Chemscore.Rot>
1.8048

> <Gold.Chemscore.Internal.Correction>
   9.000000E+99

> <Gold.Chemscore.Hbonds>
donor molecule, donor type, donor heavy atom, donor atom, acceptor molecule, acceptor atom, score
      P1  H  7997  8010       L1     1  0.94

> <Gold.Chemscore.Hbond.Weighted>
-3.1486

> <Gold.Chemscore.Metal.Weighted>
-0.0000

> <Gold.Chemscore.Lipo.Weighted>
-10.5082

> <Gold.Chemscore.Internal_Hbond.Weighted>
0.0000

> <Gold.Chemscore.DEClash.Weighted>
0.0961

> <Gold.Chemscore.DEInternal.Weighted>
0.3874

> <Gold.Chemscore.Rot.Weighted>
4.6203

> <Gold.Chemscore.Internal.Correction.Weighted>
   9.000000E+99

> <Gold.Protein.RotatedTorsions>
[ 6907 6896 6895 6894 ] final -100.75 input  -60.11 | X-H torsion
[ 7974 7965 7964 7962 ] final  -77.24 input  175.53 | X-H torsion
[ 8008 7997 7996 7995 ] final   45.94 input   59.86 | X-H torsion
[ 10167 10162 10161 10158 ] final -128.04 input  -65.29 | X-H torsion
[ 10718 10713 10712 10709 ] final  164.86 input   66.30 | X-H torsion
[ 10763 10752 10751 10750 ] final  -15.74 input  -60.55 | X-H torsion
[ 11005 11000 10999 10996 ] final -117.58 input  -57.11 | X-H torsion

> <Gold.Protein.ActiveResidues>
 VAL166  LYS551  ARG553  GLY616  TRP617  ASP618  TYR619  PRO620  LYS621  CYS622 
 ASP623  PHE694  ASN695  SER759  ASP760  ASP761  ALA762  ILE779  LEU786  VAL792 
 PHE793  MET794  SER795  GLU796  ALA797  LYS798  CYS799  TRP800  GLU811  SER814 

> <Gold.Protein.RotatedAtoms>
  150.7127  134.0840  159.3907 H   0  0  0  0  0  0  0  0  0  0  0  0  # atno 6907 bound_to 6896
  151.8824  135.0446  160.0499 H   0  0  0  0  0  0  0  0  0  0  0  0  # atno 6908 bound_to 6896
  152.2557  133.5218  159.5388 H   0  0  0  0  0  0  0  0  0  0  0  0  # atno 6909 bound_to 6896
  145.6022  140.9406  143.1234 H   0  0  0  0  0  0  0  0  0  0  0  0  # atno 7974 bound_to 7965
  155.3442  140.3410  155.4239 H   0  0  0  0  0  0  0  0  0  0  0  0  # atno 8008 bound_to 7997
  156.1797  140.1660  156.8332 H   0  0  0  0  0  0  0  0  0  0  0  0  # atno 8009 bound_to 7997
  154.5321  140.0743  156.8345 H   0  0  0  0  0  0  0  0  0  0  0  0  # atno 8010 bound_to 7997
  139.9545  143.6018  152.2465 H   0  0  0  0  0  0  0  0  0  0  0  0  # atno 10167 bound_to 10162
  157.0883  131.0411  151.2547 H   0  0  0  0  0  0  0  0  0  0  0  0  # atno 10718 bound_to 10713
  153.5480  135.7012  153.5605 H   0  0  0  0  0  0  0  0  0  0  0  0  # atno 10763 bound_to 10752
  153.3542  135.3987  155.1669 H   0  0  0  0  0  0  0  0  0  0  0  0  # atno 10764 bound_to 10752
  154.8665  135.3773  154.4989 H   0  0  0  0  0  0  0  0  0  0  0  0  # atno 10765 bound_to 10752
  141.0345  133.9931  157.3092 H   0  0  0  0  0  0  0  0  0  0  0  0  # atno 11005 bound_to 11000
  144.7305  139.7741  143.7349 LP  0  0  0  0  0  0  0  0  0  0  0  0  # atno 17320 bound_to 7965
  146.1567  139.4668  143.0014 LP  0  0  0  0  0  0  0  0  0  0  0  0  # atno 17321 bound_to 7965
  139.6602  144.7662  151.1978 LP  0  0  0  0  0  0  0  0  0  0  0  0  # atno 17342 bound_to 10162
  140.7572  143.6022  150.8688 LP  0  0  0  0  0  0  0  0  0  0  0  0  # atno 17343 bound_to 10162
  157.4742  130.7727  149.7352 LP  0  0  0  0  0  0  0  0  0  0  0  0  # atno 17370 bound_to 10713
  155.9905  130.3944  150.3027 LP  0  0  0  0  0  0  0  0  0  0  0  0  # atno 17371 bound_to 10713
  139.9231  135.0201  156.8136 LP  0  0  0  0  0  0  0  0  0  0  0  0  # atno 17394 bound_to 11000
  140.6347  133.9873  155.7679 LP  0  0  0  0  0  0  0  0  0  0  0  0  # atno 17395 bound_to 11000

$$$$
