AV-unprocessed.smi:390|AV-procd|sdf|2478|dock3
  -GOLD-   2262022423D 1   1.00000     0.00000
 Structure written by MMmdl.
 31 32  0  0  0  0  0  0  0  0  1 V2000
  148.8747  141.4451  154.3537 N   0  0  0  0  0  0  0  0  0  0  0  0
  149.5451  141.4776  155.2964 C   0  0  0  0  0  0  0  0  0  0  0  0
  150.3837  141.4907  156.4488 C   0  0  0  0  0  0  0  0  0  0  0  0
  150.8617  142.6426  156.9673 C   0  0  0  0  0  0  0  0  0  0  0  0
  151.6703  142.6821  158.0847 N   0  0  0  0  0  0  0  0  0  0  0  0
  152.2921  143.9026  158.5142 C   0  0  0  0  0  0  0  0  0  0  0  0
  152.2546  144.3086  159.9747 C   0  0  0  0  0  0  0  0  0  0  0  0
  151.4174  145.0527  158.9631 C   0  0  0  0  0  0  0  0  0  0  0  0
  152.0998  141.4830  158.6944 C   0  0  0  0  0  0  0  0  0  0  0  0
  152.9068  141.4914  159.6278 O   0  0  0  0  0  0  0  0  0  0  0  0
  151.5760  140.2757  158.1709 N   0  0  0  0  0  0  0  0  0  0  0  0
  151.9986  139.0263  158.7896 C   0  0  0  0  0  0  0  0  0  0  0  0
  152.9537  138.1813  157.9312 C   0  0  0  0  0  0  0  0  0  0  0  0
  153.2010  138.5085  156.7673 O   0  0  0  0  0  0  0  0  0  0  0  0
  153.4658  137.1010  158.5547 N   0  0  0  0  0  0  0  0  0  0  0  0
  154.3222  136.1927  158.0486 C   0  0  0  0  0  0  0  0  0  0  0  0
  154.5582  135.2034  158.9122 N   0  0  0  0  0  0  0  0  0  0  0  0
  154.8465  136.2290  156.9352 O   0  0  0  0  0  0  0  0  0  0  0  0
  150.7155  140.1989  157.0457 C   0  0  0  0  0  0  0  0  0  0  0  0
  150.3063  139.1204  156.6112 O   0  0  0  0  0  0  0  0  0  0  0  0
  150.5986  143.5760  156.4907 H   0  0  0  0  0  0  0  0  0  0  0  0
  153.1944  144.1781  157.9710 H   0  0  0  0  0  0  0  0  0  0  0  0
  151.7287  143.6632  160.6758 H   0  0  0  0  0  0  0  0  0  0  0  0
  153.1292  144.8166  160.3760 H   0  0  0  0  0  0  0  0  0  0  0  0
  151.7325  146.0582  158.6919 H   0  0  0  0  0  0  0  0  0  0  0  0
  150.3409  144.8957  158.9972 H   0  0  0  0  0  0  0  0  0  0  0  0
  152.4569  139.2656  159.7506 H   0  0  0  0  0  0  0  0  0  0  0  0
  151.1013  138.4587  159.0417 H   0  0  0  0  0  0  0  0  0  0  0  0
  153.1718  136.9587  159.5094 H   0  0  0  0  0  0  0  0  0  0  0  0
  154.1150  135.1997  159.8189 H   0  0  0  0  0  0  0  0  0  0  0  0
  155.1855  134.4563  158.6509 H   0  0  0  0  0  0  0  0  0  0  0  0
  1  2  3  0  0  0  0
  2  3  1  0  0  0  0
  3 19  1  0  0  0  0
  3  4  2  0  0  0  0
  4  5  1  0  0  0  0
  4 21  1  0  0  0  0
  5  6  1  0  0  0  0
  5  9  1  0  0  0  0
  6  8  1  0  0  0  0
  6  7  1  0  0  0  0
  6 22  1  0  0  0  0
  7  8  1  0  0  0  0
  7 23  1  0  0  0  0
  7 24  1  0  0  0  0
  8 25  1  0  0  0  0
  8 26  1  0  0  0  0
  9 10  2  0  0  0  0
  9 11  1  0  0  0  0
 11 12  1  0  0  0  0
 11 19  1  0  0  0  0
 12 13  1  0  0  0  0
 12 27  1  0  0  0  0
 12 28  1  0  0  0  0
 13 14  2  0  0  0  0
 13 15  1  0  0  0  0
 15 16  1  0  0  0  0
 15 29  1  0  0  0  0
 16 17  1  0  0  0  0
 16 18  2  0  0  0  0
 17 30  1  0  0  0  0
 17 31  1  0  0  0  0
 19 20  2  0  0  0  0
M  END
> <s_m_source_file>
AV-unprocessed.smi

> <i_m_source_file_index>
390

> <i_lp_mmshare_version>
43012

> <i_f3d_flags>
0

> <s_epik_input>
TiNDYzFbY0hdbihbQ0hdMltDSDJdW0NIMl0yKWMoPU8pbihjMT1PKVtDSDJdQyg9TylbTkhdQyg9TylbTkgyXQ==

> <s_epik_cmdline>
J2VwaWtfcHl0aG9uJywgJy1waCcsICc3LjAnLCAnLXRuJywgJzgnLCAnLW1hJywgJzIwMCcsICctbWV0YWxfYmluZGluZycsICctaW1hZScsICc8aW5maWxlLm1hZT4nLCAnLW9tYWUnLCAnPG91dGZpbGUubWFlPic=

> <r_lp_tautomer_probability>
1

> <r_epik_Ionization_Penalty>
3.12406e-05

> <r_epik_Ionization_Penalty_Charging>
4.21484e-11

> <r_epik_Ionization_Penalty_Neutral>
3.12406e-05

> <r_epik_State_Penalty>
-0

> <r_epik_Charging_Adjusted_Penalty>
4.21484e-11

> <i_epik_Tot_Q>
0

> <i_epik_Tot_abs_Q>
0

> <r_epik_Metal_State_Penalty>
-0

> <b_epik_Metal_Only>
0

> <s_lp_Force_Field>
OPLS_2005

> <r_lp_Energy>
30.8642

> <b_lp_Chiralities_Consistent>
1

> <s_lp_Variant>
AV-unprocessed.smi:390-1

> <Gold.Version>
5.8.1

> <Gold.Id.Protein>
6NUR|6NUR_protein|mol2

> <Gold.PLP.Fitness>
45.6164

> <Gold.PLP.PLP>
-35.0929

> <Gold.PLP.part.hbond>
-3.8569

> <Gold.PLP.part.metal>
0.0000

> <Gold.PLP.part.buried>
-4.0728

> <Gold.PLP.part.nonpolar>
-27.0374

> <Gold.PLP.part.repulsive>
0.4222

> <Gold.PLP.ligand.clash>
0.0000

> <Gold.PLP.ligand.torsion>
0.2719

> <Gold.PLP.Chemscore.Hbond>
2.6160

> <Gold.PLP.Chemscore.CHOScore>
1.0000

> <Gold.PLP.Chemscore.Metal>
0.0000

> <Gold.Chemscore.Hbonds>
donor molecule, donor type, donor heavy atom, donor atom, acceptor molecule, acceptor atom, score
      P1  H  7997  8008       L1    14  1.00
      P1  H  8011  8017       L1     1  0.02
      P1  H 10752 10764       L1    18  1.00
      L1  C     4    21       P1  8028  1.00

> <Gold.PLP.Chemscore.Internal.Correction>
0.2194

> <Gold.Rescore>
     Score         DG    S(hbond)    S(metal)    S(lipo)     H(rot)  DE(clash)    DE(int)     intcor
     13.39     -15.41       2.53        0.00      58.32       2.09       0.20       1.83       ----

> <Gold.Chemscore.Fitness>
13.3882

> <Gold.Chemscore.DG>
-15.4121

> <Gold.Chemscore.ZeroCoef>
-5.4800

> <Gold.Chemscore.Hbond>
2.5334

> <Gold.Chemscore.Metal>
0.0000

> <Gold.Chemscore.Lipo>
58.3247

> <Gold.Chemscore.Internal_Hbond>
0.0000

> <Gold.Chemscore.DEClash>
0.1977

> <Gold.Chemscore.DEInternal>
1.8261

> <Gold.Chemscore.Rot>
2.0913

> <Gold.Chemscore.Internal.Correction>
   9.000000E+99

> <Gold.Chemscore.Hbonds>
donor molecule, donor type, donor heavy atom, donor atom, acceptor molecule, acceptor atom, score
      P1  H  7997  8008       L1    14  0.86
      P1  H  8011  8017       L1     1  0.05
      P1  H 10752 10764       L1    18  0.98

> <Gold.Chemscore.Hbond.Weighted>
-8.4617

> <Gold.Chemscore.Metal.Weighted>
-0.0000

> <Gold.Chemscore.Lipo.Weighted>
-6.8240

> <Gold.Chemscore.Internal_Hbond.Weighted>
0.0000

> <Gold.Chemscore.DEClash.Weighted>
0.1977

> <Gold.Chemscore.DEInternal.Weighted>
1.8261

> <Gold.Chemscore.Rot.Weighted>
5.3537

> <Gold.Chemscore.Internal.Correction.Weighted>
   9.000000E+99

> <Gold.Protein.RotatedTorsions>
[ 6907 6896 6895 6894 ] final  125.50 input  -60.11 | X-H torsion
[ 7974 7965 7964 7962 ] final   67.34 input  175.53 | X-H torsion
[ 8008 7997 7996 7995 ] final  -56.00 input   59.86 | X-H torsion
[ 10167 10162 10161 10158 ] final   77.82 input  -65.29 | X-H torsion
[ 10718 10713 10712 10709 ] final -161.87 input   66.30 | X-H torsion
[ 10763 10752 10751 10750 ] final   47.14 input  -60.55 | X-H torsion
[ 11005 11000 10999 10996 ] final   15.38 input  -57.11 | X-H torsion

> <Gold.Protein.ActiveResidues>
 VAL166  LYS551  ARG553  GLY616  TRP617  ASP618  TYR619  PRO620  LYS621  CYS622 
 ASP623  PHE694  ASN695  SER759  ASP760  ASP761  ALA762  ILE779  LEU786  VAL792 
 PHE793  MET794  SER795  GLU796  ALA797  LYS798  CYS799  TRP800  GLU811  SER814 

> <Gold.Protein.RotatedAtoms>
  152.3986  133.6784  159.6296 H   0  0  0  0  0  0  0  0  0  0  0  0  # atno 6907 bound_to 6896
  150.7881  133.8831  159.3300 H   0  0  0  0  0  0  0  0  0  0  0  0  # atno 6908 bound_to 6896
  151.6601  135.0992  160.0229 H   0  0  0  0  0  0  0  0  0  0  0  0  # atno 6909 bound_to 6896
  145.8158  139.3057  143.1072 H   0  0  0  0  0  0  0  0  0  0  0  0  # atno 7974 bound_to 7965
  154.4214  140.1140  156.5568 H   0  0  0  0  0  0  0  0  0  0  0  0  # atno 8008 bound_to 7997
  155.6353  140.3496  155.4677 H   0  0  0  0  0  0  0  0  0  0  0  0  # atno 8009 bound_to 7997
  155.9915  140.1180  157.0623 H   0  0  0  0  0  0  0  0  0  0  0  0  # atno 8010 bound_to 7997
  139.9775  144.5851  150.7930 H   0  0  0  0  0  0  0  0  0  0  0  0  # atno 10167 bound_to 10162
  156.6024  130.8816  151.2917 H   0  0  0  0  0  0  0  0  0  0  0  0  # atno 10718 bound_to 10713
  152.9803  135.5986  154.3713 H   0  0  0  0  0  0  0  0  0  0  0  0  # atno 10763 bound_to 10752
  154.3386  135.2768  155.2436 H   0  0  0  0  0  0  0  0  0  0  0  0  # atno 10764 bound_to 10752
  154.4528  135.5985  153.6258 H   0  0  0  0  0  0  0  0  0  0  0  0  # atno 10765 bound_to 10752
  140.4589  134.1147  155.7713 H   0  0  0  0  0  0  0  0  0  0  0  0  # atno 11005 bound_to 11000
  145.9728  140.8746  143.0154 LP  0  0  0  0  0  0  0  0  0  0  0  0  # atno 17320 bound_to 7965
  144.6752  140.1970  143.7391 LP  0  0  0  0  0  0  0  0  0  0  0  0  # atno 17321 bound_to 7965
  140.7501  143.2949  151.3231 LP  0  0  0  0  0  0  0  0  0  0  0  0  # atno 17342 bound_to 10162
  139.6435  144.0495  152.2573 LP  0  0  0  0  0  0  0  0  0  0  0  0  # atno 17343 bound_to 10162
  157.7276  130.9645  150.1706 LP  0  0  0  0  0  0  0  0  0  0  0  0  # atno 17370 bound_to 10713
  156.2458  130.3695  149.8286 LP  0  0  0  0  0  0  0  0  0  0  0  0  # atno 17371 bound_to 10713
  141.1630  133.8757  157.1794 LP  0  0  0  0  0  0  0  0  0  0  0  0  # atno 17394 bound_to 11000
  139.9958  135.0047  157.0079 LP  0  0  0  0  0  0  0  0  0  0  0  0  # atno 17395 bound_to 11000

$$$$
