AV-unprocessed.smi:113|AV-procd|sdf|1094|dock6
  -GOLD-   2262018203D 1   1.00000     0.00000
 Structure written by MMmdl.
 52 55  0  0  0  0  0  0  0  0  1 V2000
  153.1686  139.3069  159.5818 C   0  0  0  0  0  0  0  0  0  0  0  0
  152.3881  140.5541  159.2221 C   0  0  0  0  0  0  0  0  0  0  0  0
  151.7033  140.6465  157.9973 C   0  0  0  0  0  0  0  0  0  0  0  0
  150.9915  141.8305  157.6965 C   0  0  0  0  0  0  0  0  0  0  0  0
  150.2286  141.9835  156.3756 C   0  0  0  0  0  0  0  0  0  0  0  0
  150.0939  140.7890  155.5541 N   0  0  0  0  0  0  0  0  0  0  0  0
  151.2782  140.1893  155.0591 C   0  0  0  0  0  0  0  0  0  0  0  0
  152.3927  140.6396  155.3333 O   0  0  0  0  0  0  0  0  0  0  0  0
  151.0721  139.0272  154.1906 C   0  0  0  0  0  0  0  0  0  0  0  0
  152.2979  138.3367  153.6139 C   0  0  0  0  0  0  0  0  0  0  0  0
  149.8138  138.6077  153.9159 C   0  0  0  0  0  0  0  0  0  0  0  0
  148.6744  139.2120  154.4189 N   0  0  0  0  0  0  0  0  0  0  0  0
  147.3013  138.7137  154.0424 C   0  0  1  0  0  0  0  0  0  0  0  0
  147.1754  138.5620  152.5325 C   0  0  0  0  0  0  0  0  0  0  0  0
  146.1138  137.4846  152.4271 C   0  0  2  0  0  0  0  0  0  0  0  0
  144.8272  138.0695  152.3620 O   0  0  0  0  0  0  0  0  0  0  0  0
  146.2686  136.6754  153.7312 C   0  0  1  0  0  0  0  0  0  0  0  0
  146.9458  135.3103  153.5306 C   0  0  0  0  0  0  0  0  0  0  0  0
  148.3289  135.4754  153.3014 O   0  0  0  0  0  0  0  0  0  0  0  0
  147.1104  137.4477  154.5868 O   0  0  0  0  0  0  0  0  0  0  0  0
  148.7878  140.3472  155.2456 C   0  0  0  0  0  0  0  0  0  0  0  0
  147.7856  140.9365  155.6577 O   0  0  0  0  0  0  0  0  0  0  0  0
  151.0074  142.8778  158.6568 C   0  0  0  0  0  0  0  0  0  0  0  0
  150.3238  144.0973  158.4323 C   0  0  0  0  0  0  0  0  0  0  0  0
  150.3525  145.1220  159.3948 C   0  0  0  0  0  0  0  0  0  0  0  0
  151.0635  144.9385  160.5920 C   0  0  0  0  0  0  0  0  0  0  0  0
  151.7453  143.7303  160.8229 C   0  0  0  0  0  0  0  0  0  0  0  0
  151.7317  142.6886  159.8708 C   0  0  0  0  0  0  0  0  0  0  0  0
  152.4031  141.5458  160.1336 N   0  0  0  0  0  0  0  0  0  0  0  0
  152.8858  138.4683  158.9448 H   0  0  0  0  0  0  0  0  0  0  0  0
  152.9838  139.0206  160.6177 H   0  0  0  0  0  0  0  0  0  0  0  0
  154.2375  139.4838  159.4598 H   0  0  0  0  0  0  0  0  0  0  0  0
  151.7347  139.8147  157.3100 H   0  0  0  0  0  0  0  0  0  0  0  0
  149.2233  142.3640  156.5625 H   0  0  0  0  0  0  0  0  0  0  0  0
  150.6971  142.7514  155.7577 H   0  0  0  0  0  0  0  0  0  0  0  0
  152.0276  137.4887  152.9841 H   0  0  0  0  0  0  0  0  0  0  0  0
  152.9383  137.9659  154.4151 H   0  0  0  0  0  0  0  0  0  0  0  0
  152.8773  139.0323  153.0057 H   0  0  0  0  0  0  0  0  0  0  0  0
  149.6963  137.7588  153.2575 H   0  0  0  0  0  0  0  0  0  0  0  0
  146.5643  139.3909  154.4776 H   0  0  0  0  0  0  0  0  0  0  0  0
  146.9212  139.5076  152.0519 H   0  0  0  0  0  0  0  0  0  0  0  0
  148.1197  138.1968  152.1256 H   0  0  0  0  0  0  0  0  0  0  0  0
  146.2546  136.8751  151.5339 H   0  0  0  0  0  0  0  0  0  0  0  0
  144.7128  138.4554  151.5071 H   0  0  0  0  0  0  0  0  0  0  0  0
  145.3065  136.5368  154.2280 H   0  0  0  0  0  0  0  0  0  0  0  0
  146.7891  134.6648  154.3956 H   0  0  0  0  0  0  0  0  0  0  0  0
  146.5165  134.8021  152.6665 H   0  0  0  0  0  0  0  0  0  0  0  0
  148.4453  136.0342  152.5482 H   0  0  0  0  0  0  0  0  0  0  0  0
  149.7681  144.2710  157.5236 H   0  0  0  0  0  0  0  0  0  0  0  0
  149.8285  146.0489  159.2134 H   0  0  0  0  0  0  0  0  0  0  0  0
  151.0871  145.7235  161.3335 H   0  0  0  0  0  0  0  0  0  0  0  0
  152.2894  143.6013  161.7471 H   0  0  0  0  0  0  0  0  0  0  0  0
  1  2  1  0  0  0  0
  1 30  1  0  0  0  0
  1 31  1  0  0  0  0
  1 32  1  0  0  0  0
  2 29  1  0  0  0  0
  2  3  2  0  0  0  0
  3  4  1  0  0  0  0
  3 33  1  0  0  0  0
  4  5  1  0  0  0  0
  4 23  2  0  0  0  0
  5  6  1  0  0  0  0
  5 34  1  0  0  0  0
  5 35  1  0  0  0  0
  6 21  1  0  0  0  0
  6  7  1  0  0  0  0
  7  8  2  0  0  0  0
  7  9  1  0  0  0  0
  9 10  1  0  0  0  0
  9 11  2  0  0  0  0
 10 36  1  0  0  0  0
 10 37  1  0  0  0  0
 10 38  1  0  0  0  0
 11 12  1  0  0  0  0
 11 39  1  0  0  0  0
 12 13  1  0  0  0  0
 12 21  1  0  0  0  0
 13 20  1  0  0  0  0
 13 14  1  0  0  0  0
 13 40  1  0  0  0  0
 14 15  1  0  0  0  0
 14 41  1  0  0  0  0
 14 42  1  0  0  0  0
 15 16  1  0  0  0  0
 15 17  1  0  0  0  0
 15 43  1  0  0  0  0
 16 44  1  0  0  0  0
 17 18  1  0  0  0  0
 17 20  1  0  0  0  0
 17 45  1  0  0  0  0
 18 19  1  0  0  0  0
 18 46  1  0  0  0  0
 18 47  1  0  0  0  0
 19 48  1  0  0  0  0
 21 22  2  0  0  0  0
 23 28  1  0  0  0  0
 23 24  1  0  0  0  0
 24 25  2  0  0  0  0
 24 49  1  0  0  0  0
 25 26  1  0  0  0  0
 25 50  1  0  0  0  0
 26 27  2  0  0  0  0
 26 51  1  0  0  0  0
 27 28  1  0  0  0  0
 27 52  1  0  0  0  0
 28 29  2  0  0  0  0
M  END
> <s_m_source_file>
AV-unprocessed.smi

> <i_m_source_file_index>
113

> <i_lp_mmshare_version>
43012

> <i_f3d_flags>
0

> <s_epik_input>
W2NIXTFbY0hdW2NIXVtjSF1jKGMxMiluYyhbQ0gzXSlbY0hdYzJbQ0gyXW4zYyg9TyljKFtDSDNdKVtjSF1uKGMzPU8pW0NAQEhdNFtDSDJdW0NAQEhdKFtPSF0pW0NASF0oTzQpW0NIMl1bT0hd

> <s_epik_cmdline>
J2VwaWtfcHl0aG9uJywgJy1waCcsICc3LjAnLCAnLXRuJywgJzgnLCAnLW1hJywgJzIwMCcsICctbWV0YWxfYmluZGluZycsICctaW1hZScsICc8aW5maWxlLm1hZT4nLCAnLW9tYWUnLCAnPG91dGZpbGUubWFlPic=

> <r_lp_tautomer_probability>
1

> <r_epik_Ionization_Penalty>
0.214728

> <r_epik_Ionization_Penalty_Charging>
3.04883e-08

> <r_epik_Ionization_Penalty_Neutral>
0.214728

> <r_epik_State_Penalty>
0.204913

> <r_epik_Charging_Adjusted_Penalty>
0.204913

> <i_epik_Tot_Q>
0

> <i_epik_Tot_abs_Q>
0

> <r_epik_Metal_State_Penalty>
0.000244761

> <b_epik_Metal_Only>
0

> <s_epik_Chemistry_Notes>
This compound contains an acetal/aminal-like group ( X-CH(R)-Y where X, Y are N, S, or O) that may be acid/base labile, releasing an aldehyde.

> <s_lp_Force_Field>
OPLS_2005

> <r_lp_Energy>
39.8803

> <b_lp_Chiralities_Consistent>
1

> <s_lp_Variant>
AV-unprocessed.smi:113-4

> <Gold.Version>
5.8.1

> <Gold.Id.Protein>
6NUR|6NUR_protein|mol2

> <Gold.PLP.Fitness>
62.1944

> <Gold.PLP.PLP>
-50.7816

> <Gold.PLP.part.hbond>
-3.9017

> <Gold.PLP.part.metal>
0.0000

> <Gold.PLP.part.buried>
0.0675

> <Gold.PLP.part.nonpolar>
-47.5177

> <Gold.PLP.part.repulsive>
0.1345

> <Gold.PLP.ligand.clash>
0.0000

> <Gold.PLP.ligand.torsion>
0.3120

> <Gold.PLP.Chemscore.Hbond>
3.0000

> <Gold.PLP.Chemscore.CHOScore>
1.0000

> <Gold.PLP.Chemscore.Metal>
0.0000

> <Gold.Chemscore.Hbonds>
donor molecule, donor type, donor heavy atom, donor atom, acceptor molecule, acceptor atom, score
      L1  H    16    44       P1 10171  1.00
      P1  H  7997  8010       L1     8  0.47
      L1  C    11    39       P1  7948  1.00

> <Gold.PLP.Chemscore.Internal.Correction>
0.0368

> <Gold.Rescore>
     Score         DG    S(hbond)    S(metal)    S(lipo)     H(rot)  DE(clash)    DE(int)     intcor
     19.82     -22.99       2.74        0.00     135.76       2.95       1.27       1.90       ----

> <Gold.Chemscore.Fitness>
19.8161

> <Gold.Chemscore.DG>
-22.9854

> <Gold.Chemscore.ZeroCoef>
-5.4800

> <Gold.Chemscore.Hbond>
2.7441

> <Gold.Chemscore.Metal>
0.0000

> <Gold.Chemscore.Lipo>
135.7605

> <Gold.Chemscore.Internal_Hbond>
0.0000

> <Gold.Chemscore.DEClash>
1.2707

> <Gold.Chemscore.DEInternal>
1.8986

> <Gold.Chemscore.Rot>
2.9469

> <Gold.Chemscore.Internal.Correction>
   9.000000E+99

> <Gold.Chemscore.Hbonds>
donor molecule, donor type, donor heavy atom, donor atom, acceptor molecule, acceptor atom, score
      L1  H    16    44       P1 10171  0.97
      P1  H  7997  8010       L1     8  0.47

> <Gold.Chemscore.Hbond.Weighted>
-9.1653

> <Gold.Chemscore.Metal.Weighted>
-0.0000

> <Gold.Chemscore.Lipo.Weighted>
-15.8840

> <Gold.Chemscore.Internal_Hbond.Weighted>
0.0000

> <Gold.Chemscore.DEClash.Weighted>
1.2707

> <Gold.Chemscore.DEInternal.Weighted>
1.8986

> <Gold.Chemscore.Rot.Weighted>
7.5439

> <Gold.Chemscore.Internal.Correction.Weighted>
   9.000000E+99

> <Gold.Protein.RotatedTorsions>
[ 6907 6896 6895 6894 ] final  -19.24 input  -60.11 | X-H torsion
[ 7974 7965 7964 7962 ] final   86.80 input  175.53 | X-H torsion
[ 8008 7997 7996 7995 ] final   80.86 input   59.86 | X-H torsion
[ 10167 10162 10161 10158 ] final  132.09 input  -65.29 | X-H torsion
[ 10718 10713 10712 10709 ] final  -78.88 input   66.30 | X-H torsion
[ 10763 10752 10751 10750 ] final  -49.41 input  -60.55 | X-H torsion
[ 11005 11000 10999 10996 ] final  -69.44 input  -57.11 | X-H torsion

> <Gold.Protein.ActiveResidues>
 VAL166  LYS551  ARG553  GLY616  TRP617  ASP618  TYR619  PRO620  LYS621  CYS622 
 ASP623  PHE694  ASN695  SER759  ASP760  ASP761  ALA762  ILE779  LEU786  VAL792 
 PHE793  MET794  SER795  GLU796  ALA797  LYS798  CYS799  TRP800  GLU811  SER814 

> <Gold.Protein.RotatedAtoms>
  151.2660  135.0669  159.9115 H   0  0  0  0  0  0  0  0  0  0  0  0  # atno 6907 bound_to 6896
  152.5358  134.0180  159.7979 H   0  0  0  0  0  0  0  0  0  0  0  0  # atno 6908 bound_to 6896
  151.0411  133.5655  159.2682 H   0  0  0  0  0  0  0  0  0  0  0  0  # atno 6909 bound_to 6896
  145.5675  139.2310  143.2425 H   0  0  0  0  0  0  0  0  0  0  0  0  # atno 7974 bound_to 7965
  155.8893  140.3439  155.5944 H   0  0  0  0  0  0  0  0  0  0  0  0  # atno 8008 bound_to 7997
  155.7629  140.0835  157.2165 H   0  0  0  0  0  0  0  0  0  0  0  0  # atno 8009 bound_to 7997
  154.4032  140.1532  156.2840 H   0  0  0  0  0  0  0  0  0  0  0  0  # atno 8010 bound_to 7997
  139.5355  144.6677  151.4802 H   0  0  0  0  0  0  0  0  0  0  0  0  # atno 10167 bound_to 10162
  156.0106  130.4530  150.3563 H   0  0  0  0  0  0  0  0  0  0  0  0  # atno 10718 bound_to 10713
  154.0937  135.6573  153.4856 H   0  0  0  0  0  0  0  0  0  0  0  0  # atno 10763 bound_to 10752
  153.0313  135.5208  154.7355 H   0  0  0  0  0  0  0  0  0  0  0  0  # atno 10764 bound_to 10752
  154.6487  135.2998  154.9983 H   0  0  0  0  0  0  0  0  0  0  0  0  # atno 10765 bound_to 10752
  141.1554  133.6764  156.6600 H   0  0  0  0  0  0  0  0  0  0  0  0  # atno 11005 bound_to 11000
  146.1808  140.6500  142.9190 LP  0  0  0  0  0  0  0  0  0  0  0  0  # atno 17320 bound_to 7965
  144.7453  140.5052  143.6840 LP  0  0  0  0  0  0  0  0  0  0  0  0  # atno 17321 bound_to 7965
  140.6558  143.8602  150.6834 LP  0  0  0  0  0  0  0  0  0  0  0  0  # atno 17342 bound_to 10162
  140.1981  143.3982  152.1812 LP  0  0  0  0  0  0  0  0  0  0  0  0  # atno 17343 bound_to 10162
  157.1654  131.0355  151.2821 LP  0  0  0  0  0  0  0  0  0  0  0  0  # atno 17370 bound_to 10713
  157.4275  130.7472  149.6963 LP  0  0  0  0  0  0  0  0  0  0  0  0  # atno 17371 bound_to 10713
  140.3254  134.7973  157.4285 LP  0  0  0  0  0  0  0  0  0  0  0  0  # atno 17394 bound_to 11000
  140.1061  134.5407  155.8308 LP  0  0  0  0  0  0  0  0  0  0  0  0  # atno 17395 bound_to 11000

$$$$
