AV-unprocessed.smi:2962|AV-procd|sdf|11318|dock5
  -GOLD-   2272016223D 1   1.00000     0.00000
 Structure written by MMmdl.
 37 38  0  0  0  0  0  0  0  0  2 V2000
  152.9350  138.6072  154.7807 C   0  0  0  0  0  0  0  0  0  0  0  0
  152.8680  139.3834  155.9635 O   0  0  0  0  0  0  0  0  0  0  0  0
  152.0758  138.7740  156.9701 C   0  0  0  0  0  0  0  0  0  0  0  0
  151.9551  139.7208  158.1721 C   0  0  0  0  0  0  0  0  0  0  0  0
  151.5164  141.0667  157.7780 N   0  0  0  0  0  0  0  0  0  0  0  0
  150.7770  141.4795  156.7117 C   0  0  0  0  0  0  0  0  0  0  0  0
  150.0959  140.4586  155.4478 S   0  0  0  0  0  0  0  0  0  0  0  0
  148.5901  141.3227  154.9172 C   0  0  1  0  0  0  0  0  0  0  0  0
  147.9855  140.6366  153.6825 C   0  0  0  0  0  0  0  0  0  0  0  0
  147.5686  141.4199  156.0574 C   0  0  0  0  0  0  0  0  0  0  0  0
  147.4364  142.6051  156.6594 N   0  0  0  0  0  0  0  0  0  0  0  0
  146.9189  140.4360  156.4052 O   0  0  0  0  0  0  0  0  0  0  0  0
  150.6369  142.8301  156.8008 N   0  3  0  0  0  0  0  0  0  0  0  0
  151.3040  143.2917  157.9371 C   0  0  0  0  0  0  0  0  0  0  0  0
  151.4503  144.5774  158.4488 C   0  0  0  0  0  0  0  0  0  0  0  0
  152.2007  144.7041  159.6364 C   0  0  0  0  0  0  0  0  0  0  0  0
  152.7712  143.5802  160.2687 C   0  0  0  0  0  0  0  0  0  0  0  0
  152.6155  142.2811  159.7420 C   0  0  0  0  0  0  0  0  0  0  0  0
  151.8721  142.1644  158.5681 C   0  0  0  0  0  0  0  0  0  0  0  0
  153.5426  139.1231  154.0374 H   0  0  0  0  0  0  0  0  0  0  0  0
  151.9434  138.4502  154.3541 H   0  0  0  0  0  0  0  0  0  0  0  0
  153.3918  137.6354  154.9732 H   0  0  0  0  0  0  0  0  0  0  0  0
  151.0831  138.5458  156.5792 H   0  0  0  0  0  0  0  0  0  0  0  0
  152.5286  137.8310  157.2797 H   0  0  0  0  0  0  0  0  0  0  0  0
  151.2293  139.3287  158.8851 H   0  0  0  0  0  0  0  0  0  0  0  0
  152.9014  139.7997  158.7081 H   0  0  0  0  0  0  0  0  0  0  0  0
  148.8865  142.3325  154.6292 H   0  0  0  0  0  0  0  0  0  0  0  0
  147.0765  141.1415  153.3532 H   0  0  0  0  0  0  0  0  0  0  0  0
  147.7348  139.5942  153.8839 H   0  0  0  0  0  0  0  0  0  0  0  0
  148.6873  140.6507  152.8480 H   0  0  0  0  0  0  0  0  0  0  0  0
  146.7880  142.7164  157.4249 H   0  0  0  0  0  0  0  0  0  0  0  0
  148.0002  143.3852  156.3531 H   0  0  0  0  0  0  0  0  0  0  0  0
  151.0157  145.4404  157.9660 H   0  0  0  0  0  0  0  0  0  0  0  0
  152.3424  145.6832  160.0706 H   0  0  0  0  0  0  0  0  0  0  0  0
  153.3404  143.7173  161.1767 H   0  0  0  0  0  0  0  0  0  0  0  0
  153.0574  141.4264  160.2327 H   0  0  0  0  0  0  0  0  0  0  0  0
  150.1291  143.3914  156.1293 H   0  0  0  0  0  0  0  0  0  0  0  0
  1  2  1  0  0  0  0
  1 20  1  0  0  0  0
  1 21  1  0  0  0  0
  1 22  1  0  0  0  0
  2  3  1  0  0  0  0
  3  4  1  0  0  0  0
  3 23  1  0  0  0  0
  3 24  1  0  0  0  0
  4  5  1  0  0  0  0
  4 25  1  0  0  0  0
  4 26  1  0  0  0  0
  5 19  1  0  0  0  0
  5  6  1  0  0  0  0
  6  7  1  0  0  0  0
  6 13  2  0  0  0  0
  7  8  1  0  0  0  0
  8  9  1  0  0  0  0
  8 10  1  0  0  0  0
  8 27  1  0  0  0  0
  9 28  1  0  0  0  0
  9 29  1  0  0  0  0
  9 30  1  0  0  0  0
 10 11  1  0  0  0  0
 10 12  2  0  0  0  0
 11 31  1  0  0  0  0
 11 32  1  0  0  0  0
 13 14  1  0  0  0  0
 13 37  1  0  0  0  0
 14 19  2  0  0  0  0
 14 15  1  0  0  0  0
 15 16  2  0  0  0  0
 15 33  1  0  0  0  0
 16 17  1  0  0  0  0
 16 34  1  0  0  0  0
 17 18  2  0  0  0  0
 17 35  1  0  0  0  0
 18 19  1  0  0  0  0
 18 36  1  0  0  0  0
M  CHG  1  13   1
M  END
> <s_m_source_file>
AV-unprocessed.smi

> <i_m_source_file_index>
2962

> <i_lp_mmshare_version>
43012

> <i_f3d_flags>
0

> <s_epik_input>
W2NIXTFbY0hdW2NIXVtjSF1jKGMxMiluKFtDSDJdW0NIMl1PW0NIM10pYyhuMilTW0NASF0oW0NIM10pQyg9TylbTkgyXQ==

> <s_epik_cmdline>
J2VwaWtfcHl0aG9uJywgJy1waCcsICc3LjAnLCAnLXRuJywgJzgnLCAnLW1hJywgJzIwMCcsICctbWV0YWxfYmluZGluZycsICctaW1hZScsICc8aW5maWxlLm1hZT4nLCAnLW9tYWUnLCAnPG91dGZpbGUubWFlPic=

> <r_epik_Ionization_Penalty>
2.01771

> <r_epik_Ionization_Penalty_Charging>
2.01771

> <r_epik_Ionization_Penalty_Neutral>
3.318e-07

> <r_epik_State_Penalty>
2.14773

> <r_epik_Charging_Adjusted_Penalty>
4.16544

> <i_epik_Tot_Q>
1

> <i_epik_Tot_abs_Q>
1

> <r_epik_Metal_State_Penalty>
2.1675

> <b_epik_Metal_Only>
0

> <s_lp_Force_Field>
OPLS_2005

> <r_lp_Energy>
8.26224

> <b_lp_Chiralities_Consistent>
1

> <s_lp_Variant>
AV-unprocessed.smi:2962-4

> <Gold.Version>
5.8.1

> <Gold.Id.Protein>
6NUR|6NUR_protein|mol2

> <Gold.PLP.Fitness>
52.0549

> <Gold.PLP.PLP>
-42.7569

> <Gold.PLP.part.hbond>
-3.0000

> <Gold.PLP.part.metal>
0.0000

> <Gold.PLP.part.buried>
-4.0116

> <Gold.PLP.part.nonpolar>
-36.4280

> <Gold.PLP.part.repulsive>
0.0634

> <Gold.PLP.ligand.clash>
0.0000

> <Gold.PLP.ligand.torsion>
1.0897

> <Gold.PLP.Chemscore.Hbond>
3.8000

> <Gold.PLP.Chemscore.CHOScore>
0.0000

> <Gold.PLP.Chemscore.Metal>
0.0000

> <Gold.Chemscore.Hbonds>
donor molecule, donor type, donor heavy atom, donor atom, acceptor molecule, acceptor atom, score
      L1  H    11    32       P1  8028  0.85
      L1  H    13    37       P1  8028  2.00
      P1  H  7997  8010       L1     2  1.00

> <Gold.PLP.Chemscore.Internal.Correction>
0.0774

> <Gold.Rescore>
     Score         DG    S(hbond)    S(metal)    S(lipo)     H(rot)  DE(clash)    DE(int)     intcor
     16.60     -18.49       2.00        0.00     110.41       2.57       0.05       1.84       ----

> <Gold.Chemscore.Fitness>
16.6032

> <Gold.Chemscore.DG>
-18.4882

> <Gold.Chemscore.ZeroCoef>
-5.4800

> <Gold.Chemscore.Hbond>
1.9984

> <Gold.Chemscore.Metal>
0.0000

> <Gold.Chemscore.Lipo>
110.4141

> <Gold.Chemscore.Internal_Hbond>
0.0000

> <Gold.Chemscore.DEClash>
0.0469

> <Gold.Chemscore.DEInternal>
1.8381

> <Gold.Chemscore.Rot>
2.5723

> <Gold.Chemscore.Internal.Correction>
   9.000000E+99

> <Gold.Chemscore.Hbonds>
donor molecule, donor type, donor heavy atom, donor atom, acceptor molecule, acceptor atom, score
      L1  H    11    32       P1  8028  0.15
      L1  H    13    37       P1  8028  0.97
      P1  H  7997  8010       L1     2  0.78

> <Gold.Chemscore.Hbond.Weighted>
-6.6747

> <Gold.Chemscore.Metal.Weighted>
-0.0000

> <Gold.Chemscore.Lipo.Weighted>
-12.9185

> <Gold.Chemscore.Internal_Hbond.Weighted>
0.0000

> <Gold.Chemscore.DEClash.Weighted>
0.0469

> <Gold.Chemscore.DEInternal.Weighted>
1.8381

> <Gold.Chemscore.Rot.Weighted>
6.5850

> <Gold.Chemscore.Internal.Correction.Weighted>
   9.000000E+99

> <Gold.Protein.RotatedTorsions>
[ 6907 6896 6895 6894 ] final  149.74 input  -60.11 | X-H torsion
[ 7974 7965 7964 7962 ] final  145.51 input  175.53 | X-H torsion
[ 8008 7997 7996 7995 ] final   79.88 input   59.86 | X-H torsion
[ 10167 10162 10161 10158 ] final  -89.01 input  -65.29 | X-H torsion
[ 10718 10713 10712 10709 ] final  122.73 input   66.30 | X-H torsion
[ 10763 10752 10751 10750 ] final  -66.99 input  -60.55 | X-H torsion
[ 11005 11000 10999 10996 ] final  160.26 input  -57.11 | X-H torsion

> <Gold.Protein.ActiveResidues>
 VAL166  LYS551  ARG553  GLY616  TRP617  ASP618  TYR619  PRO620  LYS621  CYS622 
 ASP623  PHE694  ASN695  SER759  ASP760  ASP761  ALA762  ILE779  LEU786  VAL792 
 PHE793  MET794  SER795  GLU796  ALA797  LYS798  CYS799  TRP800  GLU811  SER814 

> <Gold.Protein.RotatedAtoms>
  152.1239  133.4369  159.4688 H   0  0  0  0  0  0  0  0  0  0  0  0  # atno 6907 bound_to 6896
  150.6873  134.2502  159.4517 H   0  0  0  0  0  0  0  0  0  0  0  0  # atno 6908 bound_to 6896
  152.0381  134.9727  160.0624 H   0  0  0  0  0  0  0  0  0  0  0  0  # atno 6909 bound_to 6896
  144.8746  139.5792  143.5871 H   0  0  0  0  0  0  0  0  0  0  0  0  # atno 7974 bound_to 7965
  155.8758  140.3446  155.5853 H   0  0  0  0  0  0  0  0  0  0  0  0  # atno 8008 bound_to 7997
  155.7775  140.0854  157.2095 H   0  0  0  0  0  0  0  0  0  0  0  0  # atno 8009 bound_to 7997
  154.4020  140.1507  156.3001 H   0  0  0  0  0  0  0  0  0  0  0  0  # atno 8010 bound_to 7997
  140.3690  143.2804  151.9523 H   0  0  0  0  0  0  0  0  0  0  0  0  # atno 10167 bound_to 10162
  157.5720  131.1082  150.8350 H   0  0  0  0  0  0  0  0  0  0  0  0  # atno 10718 bound_to 10713
  154.3680  135.6101  153.5725 H   0  0  0  0  0  0  0  0  0  0  0  0  # atno 10763 bound_to 10752
  152.9791  135.5831  154.4555 H   0  0  0  0  0  0  0  0  0  0  0  0  # atno 10764 bound_to 10752
  154.4304  135.2847  155.1893 H   0  0  0  0  0  0  0  0  0  0  0  0  # atno 10765 bound_to 10752
  140.2042  134.8315  157.3051 H   0  0  0  0  0  0  0  0  0  0  0  0  # atno 11005 bound_to 11000
  146.2954  139.7262  142.9130 LP  0  0  0  0  0  0  0  0  0  0  0  0  # atno 17320 bound_to 7965
  145.4066  141.0391  143.3041 LP  0  0  0  0  0  0  0  0  0  0  0  0  # atno 17321 bound_to 7965
  139.4806  144.5924  151.7749 LP  0  0  0  0  0  0  0  0  0  0  0  0  # atno 17342 bound_to 10162
  140.5052  144.1109  150.5981 LP  0  0  0  0  0  0  0  0  0  0  0  0  # atno 17343 bound_to 10162
  156.8819  130.5182  149.5290 LP  0  0  0  0  0  0  0  0  0  0  0  0  # atno 17370 bound_to 10713
  156.0765  130.5786  150.9483 LP  0  0  0  0  0  0  0  0  0  0  0  0  # atno 17371 bound_to 10713
  140.2021  134.4242  155.7657 LP  0  0  0  0  0  0  0  0  0  0  0  0  # atno 17394 bound_to 11000
  141.2227  133.7077  156.8200 LP  0  0  0  0  0  0  0  0  0  0  0  0  # atno 17395 bound_to 11000

$$$$
