AV-unprocessed.smi:3234|AV-procd|sdf|12359|dock2
  -GOLD-   2272018223D 1   1.00000     0.00000
 Structure written by MMmdl.
 37 39  0  0  0  0  0  0  0  0  4 V2000
  151.7845  140.4210  156.5338 O   0  0  0  0  0  0  0  0  0  0  0  0
  150.9625  141.2558  156.1390 C   0  0  0  0  0  0  0  0  0  0  0  0
  150.8214  142.4266  156.7858 N   0  0  0  0  0  0  0  0  0  0  0  0
  151.4901  142.8808  157.9537 C   0  0  0  0  0  0  0  0  0  0  0  0
  151.5590  144.2738  158.1759 C   0  0  0  0  0  0  0  0  0  0  0  0
  152.1962  144.7607  159.3352 C   0  0  0  0  0  0  0  0  0  0  0  0
  152.7216  143.8946  160.2283 N   0  3  0  0  0  0  0  0  0  0  0  0
  152.6626  142.5549  160.0682 C   0  0  0  0  0  0  0  0  0  0  0  0
  152.0384  142.0093  158.9282 C   0  0  0  0  0  0  0  0  0  0  0  0
  150.1365  141.1602  155.0618 N   0  5  0  0  0  0  0  0  0  0  0  0
  148.8417  140.4710  155.0596 C   0  0  1  0  0  0  0  0  0  0  0  0
  148.4199  140.0870  156.4942 C   0  0  0  0  0  0  0  0  0  0  0  0
  147.0435  140.7228  156.7012 C   0  0  0  0  0  0  0  0  0  0  0  0
  147.0105  141.8617  155.7683 N   0  3  2  0  0  0  0  0  0  0  0  0
  145.6572  142.3945  155.5044 C   0  0  0  0  0  0  0  0  0  0  0  0
  144.9091  142.7856  156.7561 C   0  0  0  0  0  0  0  0  0  0  0  0
  144.5495  141.5102  156.0247 C   0  0  0  0  0  0  0  0  0  0  0  0
  147.7373  141.4201  154.5640 C   0  0  0  0  0  0  0  0  0  0  0  0
  150.2141  143.0981  156.3393 H   0  0  0  0  0  0  0  0  0  0  0  0
  151.1358  144.9645  157.4610 H   0  0  0  0  0  0  0  0  0  0  0  0
  152.2981  145.8092  159.5740 H   0  0  0  0  0  0  0  0  0  0  0  0
  153.1068  141.9624  160.8545 H   0  0  0  0  0  0  0  0  0  0  0  0
  151.9789  140.9361  158.8236 H   0  0  0  0  0  0  0  0  0  0  0  0
  148.8501  139.5851  154.4231 H   0  0  0  0  0  0  0  0  0  0  0  0
  148.3873  139.0061  156.6340 H   0  0  0  0  0  0  0  0  0  0  0  0
  149.1148  140.4839  157.2366 H   0  0  0  0  0  0  0  0  0  0  0  0
  146.2548  140.0115  156.4449 H   0  0  0  0  0  0  0  0  0  0  0  0
  146.8827  141.0426  157.7313 H   0  0  0  0  0  0  0  0  0  0  0  0
  145.5283  142.9629  154.5850 H   0  0  0  0  0  0  0  0  0  0  0  0
  145.4212  142.6908  157.7122 H   0  0  0  0  0  0  0  0  0  0  0  0
  144.2100  143.6160  156.6838 H   0  0  0  0  0  0  0  0  0  0  0  0
  143.6130  141.5004  155.4711 H   0  0  0  0  0  0  0  0  0  0  0  0
  144.8216  140.5674  156.4958 H   0  0  0  0  0  0  0  0  0  0  0  0
  148.1110  142.2703  153.9908 H   0  0  0  0  0  0  0  0  0  0  0  0
  147.0528  140.8682  153.9176 H   0  0  0  0  0  0  0  0  0  0  0  0
  147.5670  142.5951  156.1838 H   0  0  0  0  0  0  0  0  0  0  0  0
  153.1773  144.2672  161.0616 H   0  0  0  0  0  0  0  0  0  0  0  0
  1  2  2  0  0  0  0
  2  3  1  0  0  0  0
  2 10  1  0  0  0  0
  3  4  1  0  0  0  0
  3 19  1  0  0  0  0
  4  9  1  0  0  0  0
  4  5  2  0  0  0  0
  5  6  1  0  0  0  0
  5 20  1  0  0  0  0
  6  7  2  0  0  0  0
  6 21  1  0  0  0  0
  7  8  1  0  0  0  0
  7 37  1  0  0  0  0
  8  9  2  0  0  0  0
  8 22  1  0  0  0  0
  9 23  1  0  0  0  0
 10 11  1  0  0  0  0
 11 18  1  0  0  0  0
 11 12  1  0  0  0  0
 11 24  1  0  0  0  0
 12 13  1  0  0  0  0
 12 25  1  0  0  0  0
 12 26  1  0  0  0  0
 13 14  1  0  0  0  0
 13 27  1  0  0  0  0
 13 28  1  0  0  0  0
 14 15  1  0  0  0  0
 14 18  1  0  0  0  0
 14 36  1  0  0  0  0
 15 17  1  0  0  0  0
 15 16  1  0  0  0  0
 15 29  1  0  0  0  0
 16 17  1  0  0  0  0
 16 30  1  0  0  0  0
 16 31  1  0  0  0  0
 17 32  1  0  0  0  0
 17 33  1  0  0  0  0
 18 34  1  0  0  0  0
 18 35  1  0  0  0  0
M  CHG  1   7   1
M  CHG  1  10  -1
M  CHG  1  14   1
M  END
> <s_m_source_file>
AV-unprocessed.smi

> <i_m_source_file_index>
3234

> <i_lp_mmshare_version>
43012

> <i_f3d_flags>
0

> <s_epik_input>
W2NIXTFbY0hdbltjSF1bY0hdYzFbTkhdQyg9TylbTkhdW0NAQEhdMltDSDJdW0NIMl1OKFtDSDJdMilbQ0hdM1tDSDJdW0NIMl0z

> <s_epik_cmdline>
J2VwaWtfcHl0aG9uJywgJy1waCcsICc3LjAnLCAnLXRuJywgJzgnLCAnLW1hJywgJzIwMCcsICctbWV0YWxfYmluZGluZycsICctaW1hZScsICc8aW5maWxlLm1hZT4nLCAnLW9tYWUnLCAnPG91dGZpbGUubWFlPic=

> <r_epik_Ionization_Penalty>
8.3234

> <r_epik_Ionization_Penalty_Charging>
8.3234

> <r_epik_Ionization_Penalty_Neutral>
3.58513e-06

> <r_epik_State_Penalty>
7.99376

> <r_epik_Charging_Adjusted_Penalty>
16.3172

> <i_epik_Tot_Q>
1

> <i_epik_Tot_abs_Q>
3

> <r_epik_Metal_State_Penalty>
3.98956

> <b_epik_Metal_Only>
1

> <s_lp_Force_Field>
OPLS_2005

> <r_lp_Energy>
40.8025

> <b_lp_Chiralities_Consistent>
1

> <s_lp_Variant>
AV-unprocessed.smi:3234-12

> <Gold.Version>
5.8.1

> <Gold.Id.Protein>
6NUR|6NUR_protein|mol2

> <Gold.PLP.Fitness>
45.0342

> <Gold.PLP.PLP>
-38.2225

> <Gold.PLP.part.hbond>
-3.0000

> <Gold.PLP.part.metal>
0.0000

> <Gold.PLP.part.buried>
-5.8426

> <Gold.PLP.part.nonpolar>
-29.7332

> <Gold.PLP.part.repulsive>
0.3365

> <Gold.PLP.ligand.clash>
1.7521

> <Gold.PLP.ligand.torsion>
1.6361

> <Gold.PLP.Chemscore.Hbond>
3.5137

> <Gold.PLP.Chemscore.CHOScore>
0.0000

> <Gold.PLP.Chemscore.Metal>
0.0000

> <Gold.Chemscore.Hbonds>
donor molecule, donor type, donor heavy atom, donor atom, acceptor molecule, acceptor atom, score
      L1  H     3    19       P1  8028  0.57
      P1  H  7989  7998       L1    10  0.39

> <Gold.PLP.Chemscore.Internal.Correction>
1.2948

> <Gold.Rescore>
     Score         DG    S(hbond)    S(metal)    S(lipo)     H(rot)  DE(clash)    DE(int)     intcor
     16.11     -19.62       1.97        0.00      91.09       1.21       0.49       3.02       ----

> <Gold.Chemscore.Fitness>
16.1109

> <Gold.Chemscore.DG>
-19.6235

> <Gold.Chemscore.ZeroCoef>
-5.4800

> <Gold.Chemscore.Hbond>
1.9717

> <Gold.Chemscore.Metal>
0.0000

> <Gold.Chemscore.Lipo>
91.0917

> <Gold.Chemscore.Internal_Hbond>
0.0000

> <Gold.Chemscore.DEClash>
0.4879

> <Gold.Chemscore.DEInternal>
3.0246

> <Gold.Chemscore.Rot>
1.2108

> <Gold.Chemscore.Internal.Correction>
   9.000000E+99

> <Gold.Chemscore.Hbonds>
donor molecule, donor type, donor heavy atom, donor atom, acceptor molecule, acceptor atom, score
      L1  H     3    19       P1  8028  0.58
      P1  H  7989  7998       L1    10  0.09

> <Gold.Chemscore.Hbond.Weighted>
-6.5853

> <Gold.Chemscore.Metal.Weighted>
-0.0000

> <Gold.Chemscore.Lipo.Weighted>
-10.6577

> <Gold.Chemscore.Internal_Hbond.Weighted>
0.0000

> <Gold.Chemscore.DEClash.Weighted>
0.4879

> <Gold.Chemscore.DEInternal.Weighted>
3.0246

> <Gold.Chemscore.Rot.Weighted>
3.0996

> <Gold.Chemscore.Internal.Correction.Weighted>
   9.000000E+99

> <Gold.Protein.RotatedTorsions>
[ 6907 6896 6895 6894 ] final  -51.27 input  -60.11 | X-H torsion
[ 7974 7965 7964 7962 ] final  107.53 input  175.53 | X-H torsion
[ 8008 7997 7996 7995 ] final  -73.05 input   59.86 | X-H torsion
[ 10167 10162 10161 10158 ] final -116.08 input  -65.29 | X-H torsion
[ 10718 10713 10712 10709 ] final   72.16 input   66.30 | X-H torsion
[ 10763 10752 10751 10750 ] final  129.68 input  -60.55 | X-H torsion
[ 11005 11000 10999 10996 ] final -132.27 input  -57.11 | X-H torsion

> <Gold.Protein.ActiveResidues>
 VAL166  LYS551  ARG553  GLY616  TRP617  ASP618  TYR619  PRO620  LYS621  CYS622 
 ASP623  PHE694  ASN695  SER759  ASP760  ASP761  ALA762  ILE779  LEU786  VAL792 
 PHE793  MET794  SER795  GLU796  ALA797  LYS798  CYS799  TRP800  GLU811  SER814 

> <Gold.Protein.RotatedAtoms>
  150.8627  134.7983  159.7095 H   0  0  0  0  0  0  0  0  0  0  0  0  # atno 6907 bound_to 6896
  152.4659  134.5073  159.9753 H   0  0  0  0  0  0  0  0  0  0  0  0  # atno 6908 bound_to 6896
  151.5174  133.3435  159.2931 H   0  0  0  0  0  0  0  0  0  0  0  0  # atno 6909 bound_to 6896
  145.2924  139.2596  143.3857 H   0  0  0  0  0  0  0  0  0  0  0  0  # atno 7974 bound_to 7965
  154.5216  140.0786  156.8182 H   0  0  0  0  0  0  0  0  0  0  0  0  # atno 8008 bound_to 7997
  155.3565  140.3415  155.4222 H   0  0  0  0  0  0  0  0  0  0  0  0  # atno 8009 bound_to 7997
  156.1687  140.1612  156.8473 H   0  0  0  0  0  0  0  0  0  0  0  0  # atno 8010 bound_to 7997
  140.0831  143.4769  152.1914 H   0  0  0  0  0  0  0  0  0  0  0  0  # atno 10167 bound_to 10162
  157.6487  130.9565  150.0890 H   0  0  0  0  0  0  0  0  0  0  0  0  # atno 10718 bound_to 10713
  153.7456  135.3217  155.3312 H   0  0  0  0  0  0  0  0  0  0  0  0  # atno 10763 bound_to 10752
  154.8280  135.4555  154.0982 H   0  0  0  0  0  0  0  0  0  0  0  0  # atno 10764 bound_to 10752
  153.2170  135.6943  153.8127 H   0  0  0  0  0  0  0  0  0  0  0  0  # atno 10765 bound_to 10752
  140.9185  134.1475  157.4333 H   0  0  0  0  0  0  0  0  0  0  0  0  # atno 11005 bound_to 11000
  146.3180  140.3418  142.8648 LP  0  0  0  0  0  0  0  0  0  0  0  0  # atno 17320 bound_to 7965
  144.9161  140.7814  143.5777 LP  0  0  0  0  0  0  0  0  0  0  0  0  # atno 17321 bound_to 7965
  139.5768  144.7491  151.3745 LP  0  0  0  0  0  0  0  0  0  0  0  0  # atno 17342 bound_to 10162
  140.7067  143.7495  150.7495 LP  0  0  0  0  0  0  0  0  0  0  0  0  # atno 17343 bound_to 10162
  156.1844  130.3651  149.8992 LP  0  0  0  0  0  0  0  0  0  0  0  0  # atno 17370 bound_to 10713
  156.6936  130.8905  151.3591 LP  0  0  0  0  0  0  0  0  0  0  0  0  # atno 17371 bound_to 10713
  139.8771  134.9962  156.5785 LP  0  0  0  0  0  0  0  0  0  0  0  0  # atno 17394 bound_to 11000
  140.8018  133.8499  155.8733 LP  0  0  0  0  0  0  0  0  0  0  0  0  # atno 17395 bound_to 11000

$$$$
