AV-unprocessed.smi:54|AV-procd|sdf|554|dock1
  -GOLD-   2262016453D 1   1.00000     0.00000
 Structure written by MMmdl.
 43 45  0  0  0  0  0  0  0  0  2 V2000
  152.0939  145.5982  159.5189 C   0  0  0  0  0  0  0  0  0  0  0  0
  151.6443  144.2487  160.1026 C   0  0  0  0  0  0  0  0  0  0  0  0
  152.0723  144.1063  161.5727 C   0  0  0  0  0  0  0  0  0  0  0  0
  152.1878  143.0857  159.2601 C   0  0  0  0  0  0  0  0  0  0  0  0
  153.3917  142.8237  159.3061 O   0  0  0  0  0  0  0  0  0  0  0  0
  151.2688  142.4399  158.5083 N   0  0  0  0  0  0  0  0  0  0  0  0
  151.4405  141.3618  157.6321 C   0  0  0  0  0  0  0  0  0  0  0  0
  150.5942  141.3753  156.6306 N   0  0  0  0  0  0  0  0  0  0  0  0
  150.7545  140.2950  155.7836 C   0  0  0  0  0  0  0  0  0  0  0  0
  151.6625  139.2778  155.8876 C   0  0  0  0  0  0  0  0  0  0  0  0
  151.5403  138.3794  154.8352 N   0  0  0  0  0  0  0  0  0  0  0  0
  150.5408  138.9090  154.1317 C   0  0  0  0  0  0  0  0  0  0  0  0
  150.0021  140.0372  154.6419 N   0  0  0  0  0  0  0  0  0  0  0  0
  148.8963  140.8842  154.0786 C   0  0  1  0  0  0  0  0  0  0  0  0
  148.3886  140.2714  152.9339 O   0  0  0  0  0  0  0  0  0  0  0  0
  147.3531  139.3702  153.3046 C   0  0  2  0  0  0  0  0  0  0  0  0
  146.4607  139.0680  152.0910 C   0  0  0  0  0  0  0  0  0  0  0  0
  147.0421  138.0517  151.3027 O   0  0  0  0  0  0  0  0  0  0  0  0
  146.6303  140.1344  154.4203 C   0  0  1  0  0  0  0  0  0  0  0  0
  146.0867  139.2217  155.3529 O   0  0  0  0  0  0  0  0  0  0  0  0
  147.7252  140.9809  155.0735 C   0  0  2  0  0  0  0  0  0  0  0  0
  147.2961  142.3181  155.2288 O   0  0  0  0  0  0  0  0  0  0  0  0
  152.5848  139.3191  157.0466 C   0  0  0  0  0  0  0  0  0  0  0  0
  153.4167  138.4239  157.1821 O   0  0  0  0  0  0  0  0  0  0  0  0
  152.4213  140.3826  157.8890 N   0  5  0  0  0  0  0  0  0  0  0  0
  149.3831  141.8332  153.8504 H   0  0  0  0  0  0  0  0  0  0  0  0
  147.7887  138.4523  153.7044 H   0  0  0  0  0  0  0  0  0  0  0  0
  145.8417  140.7636  154.0038 H   0  0  0  0  0  0  0  0  0  0  0  0
  148.0193  140.5880  156.0481 H   0  0  0  0  0  0  0  0  0  0  0  0
  151.7923  145.6985  158.4754 H   0  0  0  0  0  0  0  0  0  0  0  0
  153.1774  145.7151  159.5651 H   0  0  0  0  0  0  0  0  0  0  0  0
  151.6490  146.4277  160.0689 H   0  0  0  0  0  0  0  0  0  0  0  0
  150.5539  144.2175  160.0700 H   0  0  0  0  0  0  0  0  0  0  0  0
  151.7663  143.1432  161.9834 H   0  0  0  0  0  0  0  0  0  0  0  0
  151.6165  144.8829  162.1876 H   0  0  0  0  0  0  0  0  0  0  0  0
  153.1541  144.1886  161.6863 H   0  0  0  0  0  0  0  0  0  0  0  0
  150.3402  142.8331  158.5485 H   0  0  0  0  0  0  0  0  0  0  0  0
  150.1943  138.4575  153.2140 H   0  0  0  0  0  0  0  0  0  0  0  0
  145.4870  138.7065  152.4229 H   0  0  0  0  0  0  0  0  0  0  0  0
  146.2874  139.9624  151.4920 H   0  0  0  0  0  0  0  0  0  0  0  0
  147.4858  137.4444  151.8750 H   0  0  0  0  0  0  0  0  0  0  0  0
  146.7811  138.6584  155.6594 H   0  0  0  0  0  0  0  0  0  0  0  0
  148.0443  142.8474  155.4581 H   0  0  0  0  0  0  0  0  0  0  0  0
  1  2  1  0  0  0  0
  1 30  1  0  0  0  0
  1 31  1  0  0  0  0
  1 32  1  0  0  0  0
  2  3  1  0  0  0  0
  2  4  1  0  0  0  0
  2 33  1  0  0  0  0
  3 34  1  0  0  0  0
  3 35  1  0  0  0  0
  3 36  1  0  0  0  0
  4  5  2  0  0  0  0
  4  6  1  0  0  0  0
  6 37  1  0  0  0  0
  6  7  1  0  0  0  0
  7 25  1  0  0  0  0
  7  8  2  0  0  0  0
  8  9  1  0  0  0  0
  9 13  1  0  0  0  0
  9 10  2  0  0  0  0
 10 11  1  0  0  0  0
 10 23  1  0  0  0  0
 11 12  2  0  0  0  0
 12 13  1  0  0  0  0
 12 38  1  0  0  0  0
 13 14  1  0  0  0  0
 14 26  1  0  0  0  0
 14 21  1  0  0  0  0
 14 15  1  0  0  0  0
 15 16  1  0  0  0  0
 16 27  1  0  0  0  0
 16 17  1  0  0  0  0
 16 19  1  0  0  0  0
 17 18  1  0  0  0  0
 17 39  1  0  0  0  0
 17 40  1  0  0  0  0
 18 41  1  0  0  0  0
 19 28  1  0  0  0  0
 19 20  1  0  0  0  0
 19 21  1  0  0  0  0
 20 42  1  0  0  0  0
 21 29  1  0  0  0  0
 21 22  1  0  0  0  0
 22 43  1  0  0  0  0
 23 24  2  0  0  0  0
 23 25  1  0  0  0  0
M  CHG  1  25  -1
M  END
> <s_m_source_file>
AV-unprocessed.smi

> <i_m_source_file_index>
54

> <i_lp_mmshare_version>
43012

> <i_f3d_flags>
0

> <s_epik_input>
W0NIM11bQ0hdKFtDSDNdKUMoPU8pW05IXWMobjEpW25IXWMoPU8pYyhjMTIpbltjSF1uMltDQEBIXTNPW0NASF0oW0NIMl1bT0hdKVtDQEBIXShbT0hdKVtDQEhdM1tPSF0=

> <s_epik_cmdline>
J2VwaWtfcHl0aG9uJywgJy1waCcsICc3LjAnLCAnLXRuJywgJzgnLCAnLW1hJywgJzIwMCcsICctbWV0YWxfYmluZGluZycsICctaW1hZScsICc8aW5maWxlLm1hZT4nLCAnLW9tYWUnLCAnPG91dGZpbGUubWFlPic=

> <r_lp_tautomer_probability>
0.85571

> <r_epik_Ionization_Penalty>
1.75936

> <r_epik_Ionization_Penalty_Charging>
4.55893e-11

> <r_epik_Ionization_Penalty_Neutral>
1.75936

> <r_epik_State_Penalty>
1.72072

> <r_epik_Charging_Adjusted_Penalty>
1.72072

> <i_epik_Tot_Q>
-1

> <i_epik_Tot_abs_Q>
1

> <r_epik_Metal_State_Penalty>
0.400338

> <b_epik_Metal_Only>
1

> <s_epik_Chemistry_Notes>
This compound contains an acetal/aminal-like group ( X-CH(R)-Y where X, Y are N, S, or O) that may be acid/base labile, releasing an aldehyde.

> <s_lp_Force_Field>
OPLS_2005

> <r_lp_Energy>
54.6298

> <b_lp_Chiralities_Consistent>
1

> <s_lp_Variant>
AV-unprocessed.smi:54-26

> <Gold.Version>
5.8.1

> <Gold.Id.Protein>
6NUR|6NUR_protein|mol2

> <Gold.PLP.Fitness>
49.0433

> <Gold.PLP.PLP>
-39.5594

> <Gold.PLP.part.hbond>
-5.0600

> <Gold.PLP.part.metal>
0.0000

> <Gold.PLP.part.buried>
-1.8919

> <Gold.PLP.part.nonpolar>
-38.2127

> <Gold.PLP.part.repulsive>
6.6991

> <Gold.PLP.ligand.clash>
0.0000

> <Gold.PLP.ligand.torsion>
0.6102

> <Gold.PLP.Chemscore.Hbond>
2.7012

> <Gold.PLP.Chemscore.CHOScore>
0.8309

> <Gold.PLP.Chemscore.Metal>
0.0000

> <Gold.Chemscore.Hbonds>
donor molecule, donor type, donor heavy atom, donor atom, acceptor molecule, acceptor atom, score
      L1  H    18    41       P1  7948  0.77
      L1  H    22    43       P1  8028  0.92
      P1  H  7954  7966       L1    18  0.85
      P1  H  7997  8010       L1    24  0.11
      L1  C    12    38       P1  7948  0.24
      L1  C    12    38       P1  7957  0.57

> <Gold.PLP.Chemscore.Internal.Correction>
0.1081

> <Gold.Rescore>
     Score         DG    S(hbond)    S(metal)    S(lipo)     H(rot)  DE(clash)    DE(int)     intcor
      5.87      -9.85       2.01        0.00      67.89       4.02       2.39       1.59       ----

> <Gold.Chemscore.Fitness>
5.8694

> <Gold.Chemscore.DG>
-9.8524

> <Gold.Chemscore.ZeroCoef>
-5.4800

> <Gold.Chemscore.Hbond>
2.0116

> <Gold.Chemscore.Metal>
0.0000

> <Gold.Chemscore.Lipo>
67.8892

> <Gold.Chemscore.Internal_Hbond>
0.0000

> <Gold.Chemscore.DEClash>
2.3883

> <Gold.Chemscore.DEInternal>
1.5947

> <Gold.Chemscore.Rot>
4.0192

> <Gold.Chemscore.Internal.Correction>
   9.000000E+99

> <Gold.Chemscore.Hbonds>
donor molecule, donor type, donor heavy atom, donor atom, acceptor molecule, acceptor atom, score
      L1  H    18    41       P1  7948  0.76
      L1  H    22    43       P1  8028  0.75
      P1  H  7954  7966       L1    18  0.15

> <Gold.Chemscore.Hbond.Weighted>
-6.7186

> <Gold.Chemscore.Metal.Weighted>
-0.0000

> <Gold.Chemscore.Lipo.Weighted>
-7.9430

> <Gold.Chemscore.Internal_Hbond.Weighted>
0.0000

> <Gold.Chemscore.DEClash.Weighted>
2.3883

> <Gold.Chemscore.DEInternal.Weighted>
1.5947

> <Gold.Chemscore.Rot.Weighted>
10.2893

> <Gold.Chemscore.Internal.Correction.Weighted>
   9.000000E+99

> <Gold.Protein.RotatedTorsions>
[ 6907 6896 6895 6894 ] final   76.27 input  -60.11 | X-H torsion
[ 7974 7965 7964 7962 ] final  -69.22 input  175.53 | X-H torsion
[ 8008 7997 7996 7995 ] final    9.18 input   59.86 | X-H torsion
[ 10167 10162 10161 10158 ] final -175.69 input  -65.29 | X-H torsion
[ 10718 10713 10712 10709 ] final  154.43 input   66.30 | X-H torsion
[ 10763 10752 10751 10750 ] final -142.30 input  -60.55 | X-H torsion
[ 11005 11000 10999 10996 ] final  -40.67 input  -57.11 | X-H torsion

> <Gold.Protein.ActiveResidues>
 VAL166  LYS551  ARG553  GLY616  TRP617  ASP618  TYR619  PRO620  LYS621  CYS622 
 ASP623  PHE694  ASN695  SER759  ASP760  ASP761  ALA762  ILE779  LEU786  VAL792 
 PHE793  MET794  SER795  GLU796  ALA797  LYS798  CYS799  TRP800  GLU811  SER814 

> <Gold.Protein.RotatedAtoms>
  152.5065  134.3994  159.9411 H   0  0  0  0  0  0  0  0  0  0  0  0  # atno 6907 bound_to 6896
  151.3958  133.3767  159.2734 H   0  0  0  0  0  0  0  0  0  0  0  0  # atno 6908 bound_to 6896
  150.9399  134.8829  159.7664 H   0  0  0  0  0  0  0  0  0  0  0  0  # atno 6909 bound_to 6896
  145.7066  140.9095  143.0703 H   0  0  0  0  0  0  0  0  0  0  0  0  # atno 7974 bound_to 7965
  154.7767  140.2811  155.6096 H   0  0  0  0  0  0  0  0  0  0  0  0  # atno 8008 bound_to 7997
  156.2943  140.2631  156.2510 H   0  0  0  0  0  0  0  0  0  0  0  0  # atno 8009 bound_to 7997
  154.9834  140.0374  157.2277 H   0  0  0  0  0  0  0  0  0  0  0  0  # atno 8010 bound_to 7997
  139.5568  144.1970  152.1172 H   0  0  0  0  0  0  0  0  0  0  0  0  # atno 10167 bound_to 10162
  157.2316  131.0740  151.1849 H   0  0  0  0  0  0  0  0  0  0  0  0  # atno 10718 bound_to 10713
  154.8514  135.3500  154.6005 H   0  0  0  0  0  0  0  0  0  0  0  0  # atno 10763 bound_to 10752
  153.6614  135.6989  153.5181 H   0  0  0  0  0  0  0  0  0  0  0  0  # atno 10764 bound_to 10752
  153.2814  135.4262  155.1040 H   0  0  0  0  0  0  0  0  0  0  0  0  # atno 10765 bound_to 10752
  141.0192  133.6871  156.2354 H   0  0  0  0  0  0  0  0  0  0  0  0  # atno 11005 bound_to 11000
  144.6953  139.9018  143.7459 LP  0  0  0  0  0  0  0  0  0  0  0  0  # atno 17320 bound_to 7965
  146.0750  139.3738  143.0499 LP  0  0  0  0  0  0  0  0  0  0  0  0  # atno 17321 bound_to 7965
  140.1475  144.5145  150.6707 LP  0  0  0  0  0  0  0  0  0  0  0  0  # atno 17342 bound_to 10162
  140.6842  143.2341  151.5305 LP  0  0  0  0  0  0  0  0  0  0  0  0  # atno 17343 bound_to 10162
  157.3472  130.7063  149.6418 LP  0  0  0  0  0  0  0  0  0  0  0  0  # atno 17370 bound_to 10713
  155.9675  130.4263  150.4692 LP  0  0  0  0  0  0  0  0  0  0  0  0  # atno 17371 bound_to 10713
  140.6603  134.4975  157.5583 LP  0  0  0  0  0  0  0  0  0  0  0  0  # atno 17394 bound_to 11000
  139.9135  134.8294  156.1445 LP  0  0  0  0  0  0  0  0  0  0  0  0  # atno 17395 bound_to 11000

$$$$
