AV-unprocessed.smi:266|AV-procd|sdf|2035|dock6
  -GOLD-   2262021243D 1   1.00000     0.00000
 Structure written by MMmdl.
 52 55  0  0  0  0  0  0  0  0  1 V2000
  145.8019  130.7602  151.1745 C   0  0  0  0  0  0  0  0  0  0  0  0
  144.8886  131.6839  151.9957 C   0  0  2  0  0  0  0  0  0  0  0  0
  143.7911  132.0582  151.1672 O   0  0  0  0  0  0  0  0  0  0  0  0
  143.3430  133.3439  151.5575 C   0  0  0  0  0  0  0  0  0  0  0  0
  144.6490  134.0779  151.8194 C   0  0  0  0  0  0  0  0  0  0  0  0
  145.5099  133.0172  152.5012 C   0  0  1  0  0  0  0  0  0  0  0  0
  145.2724  133.0979  153.8972 O   0  0  0  0  0  0  0  0  0  0  0  0
  147.0316  133.2038  152.2625 C   0  0  0  0  0  0  0  0  0  0  0  0
  147.8611  132.4326  153.1764 N   0  0  0  0  0  0  0  0  0  0  0  0
  147.8058  131.0745  153.3921 C   0  0  0  0  0  0  0  0  0  0  0  0
  148.6576  130.6156  154.2671 N   0  0  0  0  0  0  0  0  0  0  0  0
  149.3642  131.7393  154.6804 C   0  0  0  0  0  0  0  0  0  0  0  0
  150.4268  131.9704  155.6025 C   0  0  0  0  0  0  0  0  0  0  0  0
  151.0427  131.0205  156.3464 N   0  0  0  0  0  0  0  0  0  0  0  0
  150.2469  130.6216  157.4991 C   0  0  0  0  0  0  0  0  0  0  0  0
  151.7974  129.9691  155.6646 C   0  0  0  0  0  0  0  0  0  0  0  0
  153.1452  130.4443  155.0799 C   0  0  1  0  0  0  0  0  0  0  0  0
  154.1748  130.8205  156.1650 C   0  0  0  0  0  0  0  0  0  0  0  0
  155.5452  130.9861  155.5014 C   0  0  0  0  0  0  0  0  0  0  0  0
  155.5826  129.7645  154.1378 S   0  0  0  0  0  0  0  0  0  0  0  0
  155.9114  130.4578  152.8832 O   0  0  0  0  0  0  0  0  0  0  0  0
  156.3339  128.5743  154.5649 O   0  0  0  0  0  0  0  0  0  0  0  0
  153.7900  129.3824  154.1768 C   0  0  0  0  0  0  0  0  0  0  0  0
  150.8554  133.2477  155.7635 N   0  0  0  0  0  0  0  0  0  0  0  0
  150.3023  134.2369  155.0561 C   0  0  0  0  0  0  0  0  0  0  0  0
  149.3205  134.1703  154.1553 N   0  0  0  0  0  0  0  0  0  0  0  0
  148.8726  132.8913  154.0026 C   0  0  0  0  0  0  0  0  0  0  0  0
  146.6632  130.4309  151.7559 H   0  0  0  0  0  0  0  0  0  0  0  0
  146.1647  131.2543  150.2730 H   0  0  0  0  0  0  0  0  0  0  0  0
  145.2608  129.8673  150.8610 H   0  0  0  0  0  0  0  0  0  0  0  0
  144.4861  131.1111  152.8334 H   0  0  0  0  0  0  0  0  0  0  0  0
  142.7414  133.8146  150.7797 H   0  0  0  0  0  0  0  0  0  0  0  0
  142.7430  133.2683  152.4656 H   0  0  0  0  0  0  0  0  0  0  0  0
  145.0865  134.3574  150.8605 H   0  0  0  0  0  0  0  0  0  0  0  0
  144.5220  134.9895  152.4050 H   0  0  0  0  0  0  0  0  0  0  0  0
  144.5664  132.5090  154.1154 H   0  0  0  0  0  0  0  0  0  0  0  0
  147.2954  132.9170  151.2436 H   0  0  0  0  0  0  0  0  0  0  0  0
  147.3094  134.2525  152.3693 H   0  0  0  0  0  0  0  0  0  0  0  0
  147.1042  130.4312  152.8812 H   0  0  0  0  0  0  0  0  0  0  0  0
  150.0772  131.4670  158.1667 H   0  0  0  0  0  0  0  0  0  0  0  0
  150.7551  129.8445  158.0706 H   0  0  0  0  0  0  0  0  0  0  0  0
  149.2784  130.2316  157.1832 H   0  0  0  0  0  0  0  0  0  0  0  0
  151.9868  129.1665  156.3783 H   0  0  0  0  0  0  0  0  0  0  0  0
  151.1793  129.5275  154.8834 H   0  0  0  0  0  0  0  0  0  0  0  0
  152.9905  131.3262  154.4578 H   0  0  0  0  0  0  0  0  0  0  0  0
  153.8858  131.7235  156.7038 H   0  0  0  0  0  0  0  0  0  0  0  0
  154.2326  130.0165  156.8998 H   0  0  0  0  0  0  0  0  0  0  0  0
  155.6463  131.9809  155.0668 H   0  0  0  0  0  0  0  0  0  0  0  0
  156.3761  130.8166  156.1861 H   0  0  0  0  0  0  0  0  0  0  0  0
  153.6727  128.3834  154.5973 H   0  0  0  0  0  0  0  0  0  0  0  0
  153.3831  129.3826  153.1654 H   0  0  0  0  0  0  0  0  0  0  0  0
  150.7043  135.2228  155.2372 H   0  0  0  0  0  0  0  0  0  0  0  0
  1  2  1  0  0  0  0
  1 28  1  0  0  0  0
  1 29  1  0  0  0  0
  1 30  1  0  0  0  0
  2  6  1  0  0  0  0
  2  3  1  0  0  0  0
  2 31  1  0  0  0  0
  3  4  1  0  0  0  0
  4  5  1  0  0  0  0
  4 32  1  0  0  0  0
  4 33  1  0  0  0  0
  5  6  1  0  0  0  0
  5 34  1  0  0  0  0
  5 35  1  0  0  0  0
  6  7  1  0  0  0  0
  6  8  1  0  0  0  0
  7 36  1  0  0  0  0
  8  9  1  0  0  0  0
  8 37  1  0  0  0  0
  8 38  1  0  0  0  0
  9 27  1  0  0  0  0
  9 10  1  0  0  0  0
 10 11  2  0  0  0  0
 10 39  1  0  0  0  0
 11 12  1  0  0  0  0
 12 27  2  0  0  0  0
 12 13  1  0  0  0  0
 13 14  1  0  0  0  0
 13 24  2  0  0  0  0
 14 15  1  0  0  0  0
 14 16  1  0  0  0  0
 15 40  1  0  0  0  0
 15 41  1  0  0  0  0
 15 42  1  0  0  0  0
 16 17  1  0  0  0  0
 16 43  1  0  0  0  0
 16 44  1  0  0  0  0
 17 23  1  0  0  0  0
 17 18  1  0  0  0  0
 17 45  1  0  0  0  0
 18 19  1  0  0  0  0
 18 46  1  0  0  0  0
 18 47  1  0  0  0  0
 19 20  1  0  0  0  0
 19 48  1  0  0  0  0
 19 49  1  0  0  0  0
 20 21  2  0  0  0  0
 20 22  2  0  0  0  0
 20 23  1  0  0  0  0
 23 50  1  0  0  0  0
 23 51  1  0  0  0  0
 24 25  1  0  0  0  0
 25 26  2  0  0  0  0
 25 52  1  0  0  0  0
 26 27  1  0  0  0  0
M  END
> <s_m_source_file>
AV-unprocessed.smi

> <i_m_source_file_index>
266

> <i_lp_mmshare_version>
43012

> <i_f3d_flags>
0

> <s_epik_input>
W0NIMl0xW0NIMl1PW0NAQEhdKFtDSDNdKVtDQEBdMShbT0hdKVtDSDJdbihbY0hdbjIpYyhjMjMpbltjSF1uYzNOKFtDSDNdKVtDSDJdW0NAQEhdKFtDSDJdNClbQ0gyXVtDSDJdUzQoPU8pPU8=

> <s_epik_cmdline>
J2VwaWtfcHl0aG9uJywgJy1waCcsICc3LjAnLCAnLXRuJywgJzgnLCAnLW1hJywgJzIwMCcsICctbWV0YWxfYmluZGluZycsICctaW1hZScsICc8aW5maWxlLm1hZT4nLCAnLW9tYWUnLCAnPG91dGZpbGUubWFlPic=

> <r_lp_tautomer_probability>
1

> <r_epik_Ionization_Penalty>
0.00155497

> <r_epik_Ionization_Penalty_Charging>
0

> <r_epik_Ionization_Penalty_Neutral>
0.00155497

> <r_epik_State_Penalty>
-0

> <r_epik_Charging_Adjusted_Penalty>
0

> <i_epik_Tot_Q>
0

> <i_epik_Tot_abs_Q>
0

> <r_epik_Metal_State_Penalty>
-0

> <b_epik_Metal_Only>
0

> <s_lp_Force_Field>
OPLS_2005

> <r_lp_Energy>
31.7586

> <b_lp_Chiralities_Consistent>
1

> <s_lp_Variant>
AV-unprocessed.smi:266-5

> <Gold.Version>
5.8.1

> <Gold.Id.Protein>
6NUR|6NUR_protein|mol2

> <Gold.PLP.Fitness>
44.1529

> <Gold.PLP.PLP>
-39.4630

> <Gold.PLP.part.hbond>
-2.0000

> <Gold.PLP.part.metal>
0.0000

> <Gold.PLP.part.buried>
-6.2049

> <Gold.PLP.part.nonpolar>
-32.6634

> <Gold.PLP.part.repulsive>
0.4098

> <Gold.PLP.ligand.clash>
0.0000

> <Gold.PLP.ligand.torsion>
0.7699

> <Gold.PLP.Chemscore.Hbond>
1.8775

> <Gold.PLP.Chemscore.CHOScore>
0.0000

> <Gold.PLP.Chemscore.Metal>
0.0000

> <Gold.Chemscore.Hbonds>
donor molecule, donor type, donor heavy atom, donor atom, acceptor molecule, acceptor atom, score
      L1  H     7    36       P1 10957  0.75
      P1  H 10713 10718       L1    21  1.00

> <Gold.PLP.Chemscore.Internal.Correction>
0.5972

> <Gold.Rescore>
     Score         DG    S(hbond)    S(metal)    S(lipo)     H(rot)  DE(clash)    DE(int)     intcor
     10.23     -11.55       1.40        0.00      72.40       2.76       0.45       0.88       ----

> <Gold.Chemscore.Fitness>
10.2266

> <Gold.Chemscore.DG>
-11.5496

> <Gold.Chemscore.ZeroCoef>
-5.4800

> <Gold.Chemscore.Hbond>
1.3992

> <Gold.Chemscore.Metal>
0.0000

> <Gold.Chemscore.Lipo>
72.4036

> <Gold.Chemscore.Internal_Hbond>
0.0000

> <Gold.Chemscore.DEClash>
0.4458

> <Gold.Chemscore.DEInternal>
0.8773

> <Gold.Chemscore.Rot>
2.7637

> <Gold.Chemscore.Internal.Correction>
   9.000000E+99

> <Gold.Chemscore.Hbonds>
donor molecule, donor type, donor heavy atom, donor atom, acceptor molecule, acceptor atom, score
      L1  H     7    36       P1 10957  0.45
      P1  H 10713 10718       L1    21  1.00

> <Gold.Chemscore.Hbond.Weighted>
-4.6735

> <Gold.Chemscore.Metal.Weighted>
-0.0000

> <Gold.Chemscore.Lipo.Weighted>
-8.4712

> <Gold.Chemscore.Internal_Hbond.Weighted>
0.0000

> <Gold.Chemscore.DEClash.Weighted>
0.4458

> <Gold.Chemscore.DEInternal.Weighted>
0.8773

> <Gold.Chemscore.Rot.Weighted>
7.0750

> <Gold.Chemscore.Internal.Correction.Weighted>
   9.000000E+99

> <Gold.Protein.RotatedTorsions>
[ 6907 6896 6895 6894 ] final  -58.75 input  -60.11 | X-H torsion
[ 7974 7965 7964 7962 ] final  -64.17 input  175.53 | X-H torsion
[ 8008 7997 7996 7995 ] final  156.78 input   59.86 | X-H torsion
[ 10167 10162 10161 10158 ] final  -64.61 input  -65.29 | X-H torsion
[ 10718 10713 10712 10709 ] final -142.03 input   66.30 | X-H torsion
[ 10763 10752 10751 10750 ] final   -5.72 input  -60.55 | X-H torsion
[ 11005 11000 10999 10996 ] final  145.40 input  -57.11 | X-H torsion

> <Gold.Protein.ActiveResidues>
 VAL166  LYS551  ARG553  GLY616  TRP617  ASP618  TYR619  PRO620  LYS621  CYS622 
 ASP623  PHE694  ASN695  SER759  ASP760  ASP761  ALA762  ILE779  LEU786  VAL792 
 PHE793  MET794  SER795  GLU796  ALA797  LYS798  CYS799  TRP800  GLU811  SER814 

> <Gold.Protein.RotatedAtoms>
  150.7983  134.7058  159.6575 H   0  0  0  0  0  0  0  0  0  0  0  0  # atno 6907 bound_to 6896
  152.4097  134.6142  160.0043 H   0  0  0  0  0  0  0  0  0  0  0  0  # atno 6908 bound_to 6896
  151.6389  133.3290  159.3162 H   0  0  0  0  0  0  0  0  0  0  0  0  # atno 6909 bound_to 6896
  145.7700  140.8818  143.0385 H   0  0  0  0  0  0  0  0  0  0  0  0  # atno 7974 bound_to 7965
  156.2402  140.1903  156.7008 H   0  0  0  0  0  0  0  0  0  0  0  0  # atno 8008 bound_to 7997
  154.6183  140.0612  156.9609 H   0  0  0  0  0  0  0  0  0  0  0  0  # atno 8009 bound_to 7997
  155.1903  140.3284  155.4362 H   0  0  0  0  0  0  0  0  0  0  0  0  # atno 8010 bound_to 7997
  140.5788  143.2325  151.6385 H   0  0  0  0  0  0  0  0  0  0  0  0  # atno 10167 bound_to 10162
  156.3410  130.7637  151.1774 H   0  0  0  0  0  0  0  0  0  0  0  0  # atno 10718 bound_to 10713
  153.4024  135.7005  153.6417 H   0  0  0  0  0  0  0  0  0  0  0  0  # atno 10763 bound_to 10752
  153.4944  135.3665  155.2509 H   0  0  0  0  0  0  0  0  0  0  0  0  # atno 10764 bound_to 10752
  154.8711  135.4097  154.3361 H   0  0  0  0  0  0  0  0  0  0  0  0  # atno 10765 bound_to 10752
  140.0709  134.9152  157.1344 H   0  0  0  0  0  0  0  0  0  0  0  0  # atno 11005 bound_to 11000
  144.6814  139.9842  143.7484 LP  0  0  0  0  0  0  0  0  0  0  0  0  # atno 17320 bound_to 7965
  146.0179  139.3226  143.0830 LP  0  0  0  0  0  0  0  0  0  0  0  0  # atno 17321 bound_to 7965
  139.5158  144.3367  152.0777 LP  0  0  0  0  0  0  0  0  0  0  0  0  # atno 17342 bound_to 10162
  140.2514  144.4164  150.6220 LP  0  0  0  0  0  0  0  0  0  0  0  0  # atno 17343 bound_to 10162
  157.7447  131.0454  150.4843 LP  0  0  0  0  0  0  0  0  0  0  0  0  # atno 17370 bound_to 10713
  156.5023  130.4120  149.6346 LP  0  0  0  0  0  0  0  0  0  0  0  0  # atno 17371 bound_to 10713
  140.3628  134.2475  155.7185 LP  0  0  0  0  0  0  0  0  0  0  0  0  # atno 17394 bound_to 11000
  141.2011  133.7970  157.0455 LP  0  0  0  0  0  0  0  0  0  0  0  0  # atno 17395 bound_to 11000

$$$$
