AV-unprocessed.smi:2200|AV-procd|sdf|8926|dock2
  -GOLD-   2272012143D 1   1.00000     0.00000
 Structure written by MMmdl.
 30 30  0  0  0  0  0  0  0  0  2 V2000
  151.5185  145.5222  160.1193 C   0  0  0  0  0  0  0  0  0  0  0  0
  151.7123  144.3018  159.2076 C   0  0  0  0  0  0  0  0  0  0  0  0
  152.6119  144.6553  158.0103 C   0  0  0  0  0  0  0  0  0  0  0  0
  150.3484  143.7235  158.7720 C   0  0  0  0  0  0  0  0  0  0  0  0
  150.3831  143.1402  157.4348 N   0  0  0  0  0  0  0  0  0  0  0  0
  150.7578  141.8849  157.1464 C   0  0  0  0  0  0  0  0  0  0  0  0
  151.1267  141.0775  158.0007 O   0  0  0  0  0  0  0  0  0  0  0  0
  150.7369  141.5070  155.6589 C   0  0  0  0  0  0  0  0  0  0  0  0
  150.8670  140.0604  155.4196 N   0  0  0  0  0  0  0  0  0  0  0  0
  149.8610  139.4298  154.6665 C   0  0  0  0  0  0  0  0  0  0  0  0
  149.8916  138.1091  154.4051 C   0  0  0  0  0  0  0  0  0  0  0  0
  151.0068  137.3280  154.9256 C   0  0  0  0  0  0  0  0  0  0  0  0
  151.0463  136.1192  154.7043 O   0  0  0  0  0  0  0  0  0  0  0  0
  151.9628  137.9873  155.6433 N   0  5  0  0  0  0  0  0  0  0  0  0
  151.9196  139.3316  155.9000 C   0  0  0  0  0  0  0  0  0  0  0  0
  152.7932  139.9067  156.5502 O   0  0  0  0  0  0  0  0  0  0  0  0
  151.0028  146.3293  159.5980 H   0  0  0  0  0  0  0  0  0  0  0  0
  152.4765  145.9090  160.4677 H   0  0  0  0  0  0  0  0  0  0  0  0
  150.9296  145.2648  161.0003 H   0  0  0  0  0  0  0  0  0  0  0  0
  152.2309  143.5424  159.7943 H   0  0  0  0  0  0  0  0  0  0  0  0
  152.1385  145.3957  157.3650 H   0  0  0  0  0  0  0  0  0  0  0  0
  152.8363  143.7780  157.4034 H   0  0  0  0  0  0  0  0  0  0  0  0
  153.5646  145.0669  158.3447 H   0  0  0  0  0  0  0  0  0  0  0  0
  150.0074  142.9728  159.4871 H   0  0  0  0  0  0  0  0  0  0  0  0
  149.5939  144.5107  158.7741 H   0  0  0  0  0  0  0  0  0  0  0  0
  150.0986  143.7352  156.6703 H   0  0  0  0  0  0  0  0  0  0  0  0
  149.8186  141.8791  155.2006 H   0  0  0  0  0  0  0  0  0  0  0  0
  151.5432  142.0483  155.1621 H   0  0  0  0  0  0  0  0  0  0  0  0
  149.0742  140.0801  154.3138 H   0  0  0  0  0  0  0  0  0  0  0  0
  149.1121  137.6399  153.8230 H   0  0  0  0  0  0  0  0  0  0  0  0
  1  2  1  0  0  0  0
  1 17  1  0  0  0  0
  1 18  1  0  0  0  0
  1 19  1  0  0  0  0
  2  3  1  0  0  0  0
  2  4  1  0  0  0  0
  2 20  1  0  0  0  0
  3 21  1  0  0  0  0
  3 22  1  0  0  0  0
  3 23  1  0  0  0  0
  4  5  1  0  0  0  0
  4 24  1  0  0  0  0
  4 25  1  0  0  0  0
  5  6  1  0  0  0  0
  5 26  1  0  0  0  0
  6  7  2  0  0  0  0
  6  8  1  0  0  0  0
  8  9  1  0  0  0  0
  8 27  1  0  0  0  0
  8 28  1  0  0  0  0
  9 15  1  0  0  0  0
  9 10  1  0  0  0  0
 10 11  2  0  0  0  0
 10 29  1  0  0  0  0
 11 12  1  0  0  0  0
 11 30  1  0  0  0  0
 12 13  2  0  0  0  0
 12 14  1  0  0  0  0
 14 15  1  0  0  0  0
 15 16  2  0  0  0  0
M  CHG  1  14  -1
M  END
> <s_m_source_file>
AV-unprocessed.smi

> <i_m_source_file_index>
2200

> <i_lp_mmshare_version>
43012

> <i_f3d_flags>
0

> <s_epik_input>
W0NIM11bQ0hdKFtDSDNdKVtDSDJdW05IXUMoPU8pW0NIMl1uMVtjSF1bY0hdYyg9TylbbkhdYzE9Tw==

> <s_epik_cmdline>
J2VwaWtfcHl0aG9uJywgJy1waCcsICc3LjAnLCAnLXRuJywgJzgnLCAnLW1hJywgJzIwMCcsICctbWV0YWxfYmluZGluZycsICctaW1hZScsICc8aW5maWxlLm1hZT4nLCAnLW9tYWUnLCAnPG91dGZpbGUubWFlPic=

> <r_lp_tautomer_probability>
0.999537

> <r_epik_Ionization_Penalty>
3.07884

> <r_epik_Ionization_Penalty_Charging>
2.64713e-08

> <r_epik_Ionization_Penalty_Neutral>
3.07884

> <r_epik_State_Penalty>
3.07787

> <r_epik_Charging_Adjusted_Penalty>
3.07787

> <i_epik_Tot_Q>
-1

> <i_epik_Tot_abs_Q>
1

> <r_epik_Metal_State_Penalty>
0.459857

> <b_epik_Metal_Only>
1

> <s_lp_Force_Field>
OPLS_2005

> <r_lp_Energy>
13.0642

> <b_lp_Chiralities_Consistent>
1

> <s_lp_Variant>
AV-unprocessed.smi:2200-2

> <Gold.Version>
5.8.1

> <Gold.Id.Protein>
6NUR|6NUR_protein|mol2

> <Gold.PLP.Fitness>
42.5168

> <Gold.PLP.PLP>
-35.1237

> <Gold.PLP.part.hbond>
-3.0000

> <Gold.PLP.part.metal>
0.0000

> <Gold.PLP.part.buried>
-1.5686

> <Gold.PLP.part.nonpolar>
-29.6699

> <Gold.PLP.part.repulsive>
0.2025

> <Gold.PLP.ligand.clash>
0.0000

> <Gold.PLP.ligand.torsion>
0.8118

> <Gold.PLP.Chemscore.Hbond>
3.0000

> <Gold.PLP.Chemscore.CHOScore>
0.0000

> <Gold.PLP.Chemscore.Metal>
0.0000

> <Gold.Chemscore.Hbonds>
donor molecule, donor type, donor heavy atom, donor atom, acceptor molecule, acceptor atom, score
      L1  H     5    26       P1  8028  1.00
      P1  H  7997  8009       L1    16  1.00
      P1  H 10752 10763       L1    13  1.00

> <Gold.PLP.Chemscore.Internal.Correction>
0.0167

> <Gold.Rescore>
     Score         DG    S(hbond)    S(metal)    S(lipo)     H(rot)  DE(clash)    DE(int)     intcor
     12.27     -17.37       2.78        0.00      65.35       1.97       0.03       5.07       ----

> <Gold.Chemscore.Fitness>
12.2723

> <Gold.Chemscore.DG>
-17.3692

> <Gold.Chemscore.ZeroCoef>
-5.4800

> <Gold.Chemscore.Hbond>
2.7799

> <Gold.Chemscore.Metal>
0.0000

> <Gold.Chemscore.Lipo>
65.3503

> <Gold.Chemscore.Internal_Hbond>
0.0000

> <Gold.Chemscore.DEClash>
0.0272

> <Gold.Chemscore.DEInternal>
5.0698

> <Gold.Chemscore.Rot>
1.9694

> <Gold.Chemscore.Internal.Correction>
   9.000000E+99

> <Gold.Chemscore.Hbonds>
donor molecule, donor type, donor heavy atom, donor atom, acceptor molecule, acceptor atom, score
      L1  H     5    26       P1  8028  0.98
      P1  H  7997  8009       L1    16  0.96
      P1  H 10752 10763       L1    13  0.60

> <Gold.Chemscore.Hbond.Weighted>
-9.2849

> <Gold.Chemscore.Metal.Weighted>
-0.0000

> <Gold.Chemscore.Lipo.Weighted>
-7.6460

> <Gold.Chemscore.Internal_Hbond.Weighted>
0.0000

> <Gold.Chemscore.DEClash.Weighted>
0.0272

> <Gold.Chemscore.DEInternal.Weighted>
5.0698

> <Gold.Chemscore.Rot.Weighted>
5.0417

> <Gold.Chemscore.Internal.Correction.Weighted>
   9.000000E+99

> <Gold.Protein.RotatedTorsions>
[ 6907 6896 6895 6894 ] final   96.12 input  -60.11 | X-H torsion
[ 7974 7965 7964 7962 ] final  155.83 input  175.53 | X-H torsion
[ 8008 7997 7996 7995 ] final -169.24 input   59.86 | X-H torsion
[ 10167 10162 10161 10158 ] final  -23.68 input  -65.29 | X-H torsion
[ 10718 10713 10712 10709 ] final  136.91 input   66.30 | X-H torsion
[ 10763 10752 10751 10750 ] final   72.08 input  -60.55 | X-H torsion
[ 11005 11000 10999 10996 ] final   55.81 input  -57.11 | X-H torsion

> <Gold.Protein.ActiveResidues>
 VAL166  LYS551  ARG553  GLY616  TRP617  ASP618  TYR619  PRO620  LYS621  CYS622 
 ASP623  PHE694  ASN695  SER759  ASP760  ASP761  ALA762  ILE779  LEU786  VAL792 
 PHE793  MET794  SER795  GLU796  ALA797  LYS798  CYS799  TRP800  GLU811  SER814 

> <Gold.Protein.RotatedAtoms>
  152.5438  134.0935  159.8286 H   0  0  0  0  0  0  0  0  0  0  0  0  # atno 6907 bound_to 6896
  151.1022  133.5228  159.2617 H   0  0  0  0  0  0  0  0  0  0  0  0  # atno 6908 bound_to 6896
  151.1978  135.0439  159.8914 H   0  0  0  0  0  0  0  0  0  0  0  0  # atno 6909 bound_to 6896
  144.8000  139.7121  143.6186 H   0  0  0  0  0  0  0  0  0  0  0  0  # atno 7974 bound_to 7965
  155.9023  140.1043  157.1340 H   0  0  0  0  0  0  0  0  0  0  0  0  # atno 8008 bound_to 7997
  154.4028  140.1290  156.4516 H   0  0  0  0  0  0  0  0  0  0  0  0  # atno 8009 bound_to 7997
  155.7408  140.3467  155.5105 H   0  0  0  0  0  0  0  0  0  0  0  0  # atno 8010 bound_to 7997
  140.7288  143.4421  151.0641 H   0  0  0  0  0  0  0  0  0  0  0  0  # atno 10167 bound_to 10162
  157.4417  131.1058  151.0136 H   0  0  0  0  0  0  0  0  0  0  0  0  # atno 10718 bound_to 10713
  153.0437  135.5113  154.7690 H   0  0  0  0  0  0  0  0  0  0  0  0  # atno 10763 bound_to 10752
  154.6607  135.2938  154.9872 H   0  0  0  0  0  0  0  0  0  0  0  0  # atno 10764 bound_to 10752
  154.0724  135.6675  153.4879 H   0  0  0  0  0  0  0  0  0  0  0  0  # atno 10765 bound_to 10752
  140.0578  134.5646  155.9188 H   0  0  0  0  0  0  0  0  0  0  0  0  # atno 11005 bound_to 11000
  146.2279  139.5758  142.9575 LP  0  0  0  0  0  0  0  0  0  0  0  0  # atno 17320 bound_to 7965
  145.5576  141.0407  143.2244 LP  0  0  0  0  0  0  0  0  0  0  0  0  # atno 17321 bound_to 7965
  139.8089  143.7979  152.3169 LP  0  0  0  0  0  0  0  0  0  0  0  0  # atno 17342 bound_to 10162
  139.8021  144.7370  150.9810 LP  0  0  0  0  0  0  0  0  0  0  0  0  # atno 17343 bound_to 10162
  157.0997  130.5976  149.5457 LP  0  0  0  0  0  0  0  0  0  0  0  0  # atno 17370 bound_to 10713
  155.9951  130.5017  150.7446 LP  0  0  0  0  0  0  0  0  0  0  0  0  # atno 17371 bound_to 10713
  141.1959  133.6589  156.5668 LP  0  0  0  0  0  0  0  0  0  0  0  0  # atno 17394 bound_to 11000
  140.3817  134.7517  157.4665 LP  0  0  0  0  0  0  0  0  0  0  0  0  # atno 17395 bound_to 11000

$$$$
