AV-unprocessed.smi:2325|AV-procd|sdf|9296|dock5
  -GOLD-   2272012513D 1   1.00000     0.00000
 Structure written by MMmdl.
 40 41  0  0  0  0  0  0  0  0  1 V2000
  149.0804  139.6006  153.7348 C   0  0  0  0  0  0  0  0  0  0  0  0
  150.2601  139.2075  154.4809 N   0  0  0  0  0  0  0  0  0  0  0  0
  151.1045  140.1353  154.9898 N   0  0  0  0  0  0  0  0  0  0  0  0
  152.0362  139.3896  155.5844 C   0  0  0  0  0  0  0  0  0  0  0  0
  151.8632  138.0373  155.5022 N   0  0  0  0  0  0  0  0  0  0  0  0
  150.7353  138.0000  154.7994 C   0  0  0  0  0  0  0  0  0  0  0  0
  150.0443  136.8298  154.3858 N   0  0  0  0  0  0  0  0  0  0  0  0
  149.6010  135.8210  155.1543 C   0  0  0  0  0  0  0  0  0  0  0  0
  149.7103  135.7601  156.3790 O   0  0  0  0  0  0  0  0  0  0  0  0
  149.0173  134.8691  154.4132 N   0  0  0  0  0  0  0  0  0  0  0  0
  148.4557  133.6237  154.9325 C   0  0  1  0  0  0  0  0  0  0  0  0
  148.2906  132.5899  153.8364 C   0  0  0  0  0  0  0  0  0  0  0  0
  148.2921  131.2636  154.6053 C   0  0  0  0  0  0  0  0  0  0  0  0
  146.8767  130.8497  155.0433 C   0  0  0  0  0  0  0  0  0  0  0  0
  148.9761  130.1355  153.8181 C   0  0  0  0  0  0  0  0  0  0  0  0
  149.0486  131.5126  155.7890 O   0  0  0  0  0  0  0  0  0  0  0  0
  149.3704  132.8945  155.9417 C   0  0  0  0  0  0  0  0  0  0  0  0
  150.8787  133.0271  155.6439 C   0  0  0  0  0  0  0  0  0  0  0  0
  149.0671  133.2874  157.3963 C   0  0  0  0  0  0  0  0  0  0  0  0
  148.1937  139.1588  154.1902 H   0  0  0  0  0  0  0  0  0  0  0  0
  149.1650  139.2503  152.7061 H   0  0  0  0  0  0  0  0  0  0  0  0
  148.9714  140.6860  153.7321 H   0  0  0  0  0  0  0  0  0  0  0  0
  152.8739  139.8381  156.0978 H   0  0  0  0  0  0  0  0  0  0  0  0
  149.8786  136.7496  153.3936 H   0  0  0  0  0  0  0  0  0  0  0  0
  148.9715  135.0039  153.4139 H   0  0  0  0  0  0  0  0  0  0  0  0
  147.4747  133.8059  155.3762 H   0  0  0  0  0  0  0  0  0  0  0  0
  147.3882  132.7411  153.2428 H   0  0  0  0  0  0  0  0  0  0  0  0
  149.1412  132.6317  153.1540 H   0  0  0  0  0  0  0  0  0  0  0  0
  146.2366  130.6594  154.1813 H   0  0  0  0  0  0  0  0  0  0  0  0
  146.4008  131.6246  155.6448 H   0  0  0  0  0  0  0  0  0  0  0  0
  146.9017  129.9403  155.6442 H   0  0  0  0  0  0  0  0  0  0  0  0
  148.4471  129.9272  152.8877 H   0  0  0  0  0  0  0  0  0  0  0  0
  149.0061  129.2127  154.3981 H   0  0  0  0  0  0  0  0  0  0  0  0
  150.0044  130.3967  153.5663 H   0  0  0  0  0  0  0  0  0  0  0  0
  151.2275  134.0508  155.7823 H   0  0  0  0  0  0  0  0  0  0  0  0
  151.1150  132.7287  154.6225 H   0  0  0  0  0  0  0  0  0  0  0  0
  151.4635  132.3931  156.3108 H   0  0  0  0  0  0  0  0  0  0  0  0
  149.2985  134.3365  157.5801 H   0  0  0  0  0  0  0  0  0  0  0  0
  149.6554  132.6925  158.0954 H   0  0  0  0  0  0  0  0  0  0  0  0
  148.0154  133.1312  157.6374 H   0  0  0  0  0  0  0  0  0  0  0  0
  1  2  1  0  0  0  0
  1 20  1  0  0  0  0
  1 21  1  0  0  0  0
  1 22  1  0  0  0  0
  2  6  1  0  0  0  0
  2  3  1  0  0  0  0
  3  4  2  0  0  0  0
  4  5  1  0  0  0  0
  4 23  1  0  0  0  0
  5  6  2  0  0  0  0
  6  7  1  0  0  0  0
  7  8  1  0  0  0  0
  7 24  1  0  0  0  0
  8  9  2  0  0  0  0
  8 10  1  0  0  0  0
 10 11  1  0  0  0  0
 10 25  1  0  0  0  0
 11 17  1  0  0  0  0
 11 12  1  0  0  0  0
 11 26  1  0  0  0  0
 12 13  1  0  0  0  0
 12 27  1  0  0  0  0
 12 28  1  0  0  0  0
 13 14  1  0  0  0  0
 13 15  1  0  0  0  0
 13 16  1  0  0  0  0
 14 29  1  0  0  0  0
 14 30  1  0  0  0  0
 14 31  1  0  0  0  0
 15 32  1  0  0  0  0
 15 33  1  0  0  0  0
 15 34  1  0  0  0  0
 16 17  1  0  0  0  0
 17 18  1  0  0  0  0
 17 19  1  0  0  0  0
 18 35  1  0  0  0  0
 18 36  1  0  0  0  0
 18 37  1  0  0  0  0
 19 38  1  0  0  0  0
 19 39  1  0  0  0  0
 19 40  1  0  0  0  0
M  END
> <s_m_source_file>
AV-unprocessed.smi

> <i_m_source_file_index>
2325

> <i_lp_mmshare_version>
43012

> <i_f3d_flags>
0

> <s_epik_input>
W0NIM11uMW5bY0hdbmMxW05IXUMoPU8pW05IXVtDQEBIXShDKE8yKShbQ0gzXSlbQ0gzXSlbQ0gyXUMyKFtDSDNdKVtDSDNd

> <s_epik_cmdline>
J2VwaWtfcHl0aG9uJywgJy1waCcsICc3LjAnLCAnLXRuJywgJzgnLCAnLW1hJywgJzIwMCcsICctbWV0YWxfYmluZGluZycsICctaW1hZScsICc8aW5maWxlLm1hZT4nLCAnLW9tYWUnLCAnPG91dGZpbGUubWFlPic=

> <r_lp_tautomer_probability>
1

> <r_epik_Ionization_Penalty>
1.97832e-05

> <r_epik_Ionization_Penalty_Charging>
0

> <r_epik_Ionization_Penalty_Neutral>
1.97832e-05

> <r_epik_State_Penalty>
-0

> <r_epik_Charging_Adjusted_Penalty>
0

> <i_epik_Tot_Q>
0

> <i_epik_Tot_abs_Q>
0

> <r_epik_Metal_State_Penalty>
-0

> <b_epik_Metal_Only>
0

> <s_lp_Force_Field>
OPLS_2005

> <r_lp_Energy>
17.1515

> <b_lp_Chiralities_Consistent>
1

> <s_lp_Variant>
AV-unprocessed.smi:2325-2

> <Gold.Version>
5.8.1

> <Gold.Id.Protein>
6NUR|6NUR_protein|mol2

> <Gold.PLP.Fitness>
33.1438

> <Gold.PLP.PLP>
-25.5739

> <Gold.PLP.part.hbond>
-3.4504

> <Gold.PLP.part.metal>
0.0000

> <Gold.PLP.part.buried>
-2.0580

> <Gold.PLP.part.nonpolar>
-20.5302

> <Gold.PLP.part.repulsive>
0.1457

> <Gold.PLP.ligand.clash>
0.0000

> <Gold.PLP.ligand.torsion>
0.7207

> <Gold.PLP.Chemscore.Hbond>
3.0000

> <Gold.PLP.Chemscore.CHOScore>
0.0000

> <Gold.PLP.Chemscore.Metal>
0.0000

> <Gold.Chemscore.Hbonds>
donor molecule, donor type, donor heavy atom, donor atom, acceptor molecule, acceptor atom, score
      L1  H     7    24       P1  7948  1.00
      L1  H    10    25       P1  7948  1.00
      P1  H  7989  7998       L1     3  0.95

> <Gold.PLP.Chemscore.Internal.Correction>
0.0112

> <Gold.Rescore>
     Score         DG    S(hbond)    S(metal)    S(lipo)     H(rot)  DE(clash)    DE(int)     intcor
     11.42     -13.88       1.92        0.00      38.81       1.00       0.00       2.46       ----

> <Gold.Chemscore.Fitness>
11.4172

> <Gold.Chemscore.DG>
-13.8772

> <Gold.Chemscore.ZeroCoef>
-5.4800

> <Gold.Chemscore.Hbond>
1.9210

> <Gold.Chemscore.Metal>
0.0000

> <Gold.Chemscore.Lipo>
38.8114

> <Gold.Chemscore.Internal_Hbond>
0.0000

> <Gold.Chemscore.DEClash>
0.0048

> <Gold.Chemscore.DEInternal>
2.4552

> <Gold.Chemscore.Rot>
1.0000

> <Gold.Chemscore.Internal.Correction>
   9.000000E+99

> <Gold.Chemscore.Hbonds>
donor molecule, donor type, donor heavy atom, donor atom, acceptor molecule, acceptor atom, score
      L1  H     7    24       P1  7948  0.25
      L1  H    10    25       P1  7948  0.33
      P1  H  7989  7998       L1     3  0.19

> <Gold.Chemscore.Hbond.Weighted>
-6.4163

> <Gold.Chemscore.Metal.Weighted>
-0.0000

> <Gold.Chemscore.Lipo.Weighted>
-4.5409

> <Gold.Chemscore.Internal_Hbond.Weighted>
0.0000

> <Gold.Chemscore.DEClash.Weighted>
0.0048

> <Gold.Chemscore.DEInternal.Weighted>
2.4552

> <Gold.Chemscore.Rot.Weighted>
2.5600

> <Gold.Chemscore.Internal.Correction.Weighted>
   9.000000E+99

> <Gold.Protein.RotatedTorsions>
[ 6907 6896 6895 6894 ] final    9.54 input  -60.11 | X-H torsion
[ 7974 7965 7964 7962 ] final   46.61 input  175.53 | X-H torsion
[ 8008 7997 7996 7995 ] final  -26.51 input   59.86 | X-H torsion
[ 10167 10162 10161 10158 ] final  132.10 input  -65.29 | X-H torsion
[ 10718 10713 10712 10709 ] final -153.79 input   66.30 | X-H torsion
[ 10763 10752 10751 10750 ] final  -67.91 input  -60.55 | X-H torsion
[ 11005 11000 10999 10996 ] final   10.79 input  -57.11 | X-H torsion

> <Gold.Protein.ActiveResidues>
 VAL166  LYS551  ARG553  GLY616  TRP617  ASP618  TYR619  PRO620  LYS621  CYS622 
 ASP623  PHE694  ASN695  SER759  ASP760  ASP761  ALA762  ILE779  LEU786  VAL792 
 PHE793  MET794  SER795  GLU796  ALA797  LYS798  CYS799  TRP800  GLU811  SER814 

> <Gold.Protein.RotatedAtoms>
  151.7239  135.0889  160.0288 H   0  0  0  0  0  0  0  0  0  0  0  0  # atno 6907 bound_to 6896
  152.3584  133.6262  159.6005 H   0  0  0  0  0  0  0  0  0  0  0  0  # atno 6908 bound_to 6896
  150.7587  133.9379  159.3488 H   0  0  0  0  0  0  0  0  0  0  0  0  # atno 6909 bound_to 6896
  146.0374  139.4838  142.9799 H   0  0  0  0  0  0  0  0  0  0  0  0  # atno 7974 bound_to 7965
  154.4421  140.1897  156.0787 H   0  0  0  0  0  0  0  0  0  0  0  0  # atno 8008 bound_to 7997
  156.0455  140.3315  155.7265 H   0  0  0  0  0  0  0  0  0  0  0  0  # atno 8009 bound_to 7997
  155.5635  140.0606  157.2814 H   0  0  0  0  0  0  0  0  0  0  0  0  # atno 8010 bound_to 7997
  139.5354  144.6677  151.4803 H   0  0  0  0  0  0  0  0  0  0  0  0  # atno 10167 bound_to 10162
  156.4905  130.8345  151.2568 H   0  0  0  0  0  0  0  0  0  0  0  0  # atno 10718 bound_to 10713
  154.3813  135.6073  153.5792 H   0  0  0  0  0  0  0  0  0  0  0  0  # atno 10763 bound_to 10752
  152.9788  135.5861  154.4406 H   0  0  0  0  0  0  0  0  0  0  0  0  # atno 10764 bound_to 10752
  154.4176  135.2845  155.1974 H   0  0  0  0  0  0  0  0  0  0  0  0  # atno 10765 bound_to 10752
  140.5105  134.0656  155.7817 H   0  0  0  0  0  0  0  0  0  0  0  0  # atno 11005 bound_to 11000
  145.6941  141.0155  143.1540 LP  0  0  0  0  0  0  0  0  0  0  0  0  # atno 17320 bound_to 7965
  144.7058  139.8567  143.7430 LP  0  0  0  0  0  0  0  0  0  0  0  0  # atno 17321 bound_to 7965
  140.6558  143.8603  150.6833 LP  0  0  0  0  0  0  0  0  0  0  0  0  # atno 17342 bound_to 10162
  140.1982  143.3981  152.1812 LP  0  0  0  0  0  0  0  0  0  0  0  0  # atno 17343 bound_to 10162
  157.7474  131.0015  150.2965 LP  0  0  0  0  0  0  0  0  0  0  0  0  # atno 17370 bound_to 10713
  156.3431  130.3818  149.7392 LP  0  0  0  0  0  0  0  0  0  0  0  0  # atno 17371 bound_to 10713
  141.1388  133.9175  157.2374 LP  0  0  0  0  0  0  0  0  0  0  0  0  # atno 17394 bound_to 11000
  139.9661  135.0141  156.9391 LP  0  0  0  0  0  0  0  0  0  0  0  0  # atno 17395 bound_to 11000

$$$$
