AV-unprocessed.smi:1720|AV-procd|sdf|6932|dock3
  -GOLD-   22720 8143D 1   1.00000     0.00000
 Structure written by MMmdl.
 32 33  0  0  0  0  0  0  0  0  1 V2000
  150.9998  144.3956  158.3447 C   0  0  0  0  0  0  0  0  0  0  0  0
  151.2963  142.9106  158.6001 C   0  0  1  0  0  0  0  0  0  0  0  0
  151.4049  142.2250  157.3133 N   0  0  0  0  0  0  0  0  0  0  0  0
  151.1560  140.9261  157.0911 C   0  0  0  0  0  0  0  0  0  0  0  0
  150.8058  140.1362  157.9680 O   0  0  0  0  0  0  0  0  0  0  0  0
  151.3445  140.6099  155.7996 N   0  0  0  0  0  0  0  0  0  0  0  0
  151.1820  139.3392  155.1918 C   0  0  0  0  0  0  0  0  0  0  0  0
  151.9241  138.1768  155.5356 C   0  0  0  0  0  0  0  0  0  0  0  0
  151.5582  137.1349  154.8028 N   0  0  0  0  0  0  0  0  0  0  0  0
  150.5907  137.6217  153.9929 N   0  0  0  0  0  0  0  0  0  0  0  0
  150.3292  138.9590  154.1937 C   0  0  0  0  0  0  0  0  0  0  0  0
  152.5839  142.7152  159.4274 C   0  0  2  0  0  0  0  0  0  0  0  0
  152.9190  141.2612  159.7707 C   0  0  0  0  0  0  0  0  0  0  0  0
  153.7701  141.4266  161.0079 C   0  0  0  0  0  0  0  0  0  0  0  0
  153.0569  142.5717  161.7191 C   0  0  0  0  0  0  0  0  0  0  0  0
  152.4691  143.3658  160.6918 O   0  0  0  0  0  0  0  0  0  0  0  0
  150.1230  137.0351  153.3165 H   0  0  0  0  0  0  0  0  0  0  0  0
  150.8622  144.9363  159.2816 H   0  0  0  0  0  0  0  0  0  0  0  0
  150.0874  144.5188  157.7603 H   0  0  0  0  0  0  0  0  0  0  0  0
  151.8129  144.8765  157.7996 H   0  0  0  0  0  0  0  0  0  0  0  0
  150.4580  142.5036  159.1686 H   0  0  0  0  0  0  0  0  0  0  0  0
  151.6896  142.7906  156.5270 H   0  0  0  0  0  0  0  0  0  0  0  0
  151.6392  141.3558  155.1866 H   0  0  0  0  0  0  0  0  0  0  0  0
  152.6996  138.0564  156.2779 H   0  0  0  0  0  0  0  0  0  0  0  0
  149.5843  139.4943  153.6237 H   0  0  0  0  0  0  0  0  0  0  0  0
  153.4347  143.1581  158.9066 H   0  0  0  0  0  0  0  0  0  0  0  0
  152.0136  140.7037  160.0152 H   0  0  0  0  0  0  0  0  0  0  0  0
  153.4346  140.7400  158.9638 H   0  0  0  0  0  0  0  0  0  0  0  0
  153.8335  140.5215  161.6128 H   0  0  0  0  0  0  0  0  0  0  0  0
  154.7815  141.7262  160.7295 H   0  0  0  0  0  0  0  0  0  0  0  0
  152.2592  142.1866  162.3553 H   0  0  0  0  0  0  0  0  0  0  0  0
  153.7316  143.1596  162.3416 H   0  0  0  0  0  0  0  0  0  0  0  0
  1  2  1  0  0  0  0
  1 18  1  0  0  0  0
  1 19  1  0  0  0  0
  1 20  1  0  0  0  0
  2  3  1  0  0  0  0
  2 12  1  0  0  0  0
  2 21  1  0  0  0  0
  3  4  1  0  0  0  0
  3 22  1  0  0  0  0
  4  5  2  0  0  0  0
  4  6  1  0  0  0  0
  6  7  1  0  0  0  0
  6 23  1  0  0  0  0
  7 11  2  0  0  0  0
  7  8  1  0  0  0  0
  8  9  2  0  0  0  0
  8 24  1  0  0  0  0
  9 10  1  0  0  0  0
 10 17  1  0  0  0  0
 10 11  1  0  0  0  0
 11 25  1  0  0  0  0
 12 16  1  0  0  0  0
 12 13  1  0  0  0  0
 12 26  1  0  0  0  0
 13 14  1  0  0  0  0
 13 27  1  0  0  0  0
 13 28  1  0  0  0  0
 14 15  1  0  0  0  0
 14 29  1  0  0  0  0
 14 30  1  0  0  0  0
 15 16  1  0  0  0  0
 15 31  1  0  0  0  0
 15 32  1  0  0  0  0
M  END
> <s_m_source_file>
AV-unprocessed.smi

> <i_m_source_file_index>
1720

> <i_lp_mmshare_version>
43012

> <i_f3d_flags>
0

> <s_epik_input>
TzFbQ0gyXVtDSDJdW0NIMl1bQ0BIXTFbQ0BIXShbQ0gzXSlbTkhdQyg9TylbTkhdYzJbY0hdbltuSF1bY0hdMg==

> <s_epik_cmdline>
J2VwaWtfcHl0aG9uJywgJy1waCcsICc3LjAnLCAnLXRuJywgJzgnLCAnLW1hJywgJzIwMCcsICctbWV0YWxfYmluZGluZycsICctaW1hZScsICc8aW5maWxlLm1hZT4nLCAnLW9tYWUnLCAnPG91dGZpbGUubWFlPic=

> <r_lp_tautomer_probability>
1

> <r_epik_Ionization_Penalty>
4.95841e-05

> <r_epik_Ionization_Penalty_Charging>
0

> <r_epik_Ionization_Penalty_Neutral>
4.95841e-05

> <r_epik_State_Penalty>
-0

> <r_epik_Charging_Adjusted_Penalty>
0

> <i_epik_Tot_Q>
0

> <i_epik_Tot_abs_Q>
0

> <r_epik_Metal_State_Penalty>
-0

> <b_epik_Metal_Only>
0

> <s_lp_Force_Field>
OPLS_2005

> <r_lp_Energy>
20.0519

> <b_lp_Chiralities_Consistent>
1

> <s_lp_Variant>
AV-unprocessed.smi:1720-2

> <Gold.Version>
5.8.1

> <Gold.Id.Protein>
6NUR|6NUR_protein|mol2

> <Gold.PLP.Fitness>
40.3147

> <Gold.PLP.PLP>
-34.0646

> <Gold.PLP.part.hbond>
-3.0000

> <Gold.PLP.part.metal>
0.0000

> <Gold.PLP.part.buried>
-5.8580

> <Gold.PLP.part.nonpolar>
-27.0535

> <Gold.PLP.part.repulsive>
0.4912

> <Gold.PLP.ligand.clash>
0.0000

> <Gold.PLP.ligand.torsion>
0.9288

> <Gold.PLP.Chemscore.Hbond>
1.7000

> <Gold.PLP.Chemscore.CHOScore>
0.9996

> <Gold.PLP.Chemscore.Metal>
0.0000

> <Gold.Chemscore.Hbonds>
donor molecule, donor type, donor heavy atom, donor atom, acceptor molecule, acceptor atom, score
      L1  H    10    17       P1  7948  0.80
      P1  H 10752 10763       L1     9  0.89
      L1  C    11    25       P1  7957  0.95

> <Gold.PLP.Chemscore.Internal.Correction>
0.0089

> <Gold.Rescore>
     Score         DG    S(hbond)    S(metal)    S(lipo)     H(rot)  DE(clash)    DE(int)     intcor
     14.87     -15.93       1.16        0.00      84.85       1.31       0.07       1.00       ----

> <Gold.Chemscore.Fitness>
14.8698

> <Gold.Chemscore.DG>
-15.9319

> <Gold.Chemscore.ZeroCoef>
-5.4800

> <Gold.Chemscore.Hbond>
1.1595

> <Gold.Chemscore.Metal>
0.0000

> <Gold.Chemscore.Lipo>
84.8517

> <Gold.Chemscore.Internal_Hbond>
0.0000

> <Gold.Chemscore.DEClash>
0.0653

> <Gold.Chemscore.DEInternal>
0.9968

> <Gold.Chemscore.Rot>
1.3079

> <Gold.Chemscore.Internal.Correction>
   9.000000E+99

> <Gold.Chemscore.Hbonds>
donor molecule, donor type, donor heavy atom, donor atom, acceptor molecule, acceptor atom, score
      L1  H    10    17       P1  7948  0.11
      P1  H 10752 10763       L1     9  0.83

> <Gold.Chemscore.Hbond.Weighted>
-3.8726

> <Gold.Chemscore.Metal.Weighted>
-0.0000

> <Gold.Chemscore.Lipo.Weighted>
-9.9276

> <Gold.Chemscore.Internal_Hbond.Weighted>
0.0000

> <Gold.Chemscore.DEClash.Weighted>
0.0653

> <Gold.Chemscore.DEInternal.Weighted>
0.9968

> <Gold.Chemscore.Rot.Weighted>
3.3483

> <Gold.Chemscore.Internal.Correction.Weighted>
   9.000000E+99

> <Gold.Protein.RotatedTorsions>
[ 6907 6896 6895 6894 ] final   -1.92 input  -60.11 | X-H torsion
[ 7974 7965 7964 7962 ] final -155.67 input  175.53 | X-H torsion
[ 8008 7997 7996 7995 ] final -137.32 input   59.86 | X-H torsion
[ 10167 10162 10161 10158 ] final -141.79 input  -65.29 | X-H torsion
[ 10718 10713 10712 10709 ] final -137.06 input   66.30 | X-H torsion
[ 10763 10752 10751 10750 ] final   45.29 input  -60.55 | X-H torsion
[ 11005 11000 10999 10996 ] final   42.77 input  -57.11 | X-H torsion

> <Gold.Protein.ActiveResidues>
 VAL166  LYS551  ARG553  GLY616  TRP617  ASP618  TYR619  PRO620  LYS621  CYS622 
 ASP623  PHE694  ASN695  SER759  ASP760  ASP761  ALA762  ILE779  LEU786  VAL792 
 PHE793  MET794  SER795  GLU796  ALA797  LYS798  CYS799  TRP800  GLU811  SER814 

> <Gold.Protein.RotatedAtoms>
  151.5383  135.1068  159.9919 H   0  0  0  0  0  0  0  0  0  0  0  0  # atno 6907 bound_to 6896
  152.4547  133.7695  159.6801 H   0  0  0  0  0  0  0  0  0  0  0  0  # atno 6908 bound_to 6896
  150.8486  133.7756  159.3058 H   0  0  0  0  0  0  0  0  0  0  0  0  # atno 6909 bound_to 6896
  144.7629  140.4217  143.5963 H   0  0  0  0  0  0  0  0  0  0  0  0  # atno 7974 bound_to 7965
  155.4099  140.0511  157.3032 H   0  0  0  0  0  0  0  0  0  0  0  0  # atno 8008 bound_to 7997
  154.4951  140.2135  155.9424 H   0  0  0  0  0  0  0  0  0  0  0  0  # atno 8009 bound_to 7997
  156.1395  140.3157  155.8478 H   0  0  0  0  0  0  0  0  0  0  0  0  # atno 8010 bound_to 7997
  139.8150  143.7651  152.2665 H   0  0  0  0  0  0  0  0  0  0  0  0  # atno 10167 bound_to 10162
  156.2839  130.7336  151.1342 H   0  0  0  0  0  0  0  0  0  0  0  0  # atno 10718 bound_to 10713
  152.9827  135.6044  154.3413 H   0  0  0  0  0  0  0  0  0  0  0  0  # atno 10763 bound_to 10752
  154.3110  135.2771  155.2568 H   0  0  0  0  0  0  0  0  0  0  0  0  # atno 10764 bound_to 10752
  154.4777  135.5925  153.6423 H   0  0  0  0  0  0  0  0  0  0  0  0  # atno 10765 bound_to 10752
  140.1707  134.4225  155.8259 H   0  0  0  0  0  0  0  0  0  0  0  0  # atno 11005 bound_to 11000
  145.6562  139.1573  143.2834 LP  0  0  0  0  0  0  0  0  0  0  0  0  # atno 17320 bound_to 7965
  146.1709  140.6646  142.9233 LP  0  0  0  0  0  0  0  0  0  0  0  0  # atno 17321 bound_to 7965
  139.7811  144.7444  151.0087 LP  0  0  0  0  0  0  0  0  0  0  0  0  # atno 17342 bound_to 10162
  140.7816  143.4541  151.0371 LP  0  0  0  0  0  0  0  0  0  0  0  0  # atno 17343 bound_to 10162
  157.7323  131.0601  150.5636 LP  0  0  0  0  0  0  0  0  0  0  0  0  # atno 17370 bound_to 10713
  156.5745  130.4288  149.6004 LP  0  0  0  0  0  0  0  0  0  0  0  0  # atno 17371 bound_to 10713
  141.2217  133.6955  156.7759 LP  0  0  0  0  0  0  0  0  0  0  0  0  # atno 17394 bound_to 11000
  140.2380  134.8635  157.3545 LP  0  0  0  0  0  0  0  0  0  0  0  0  # atno 17395 bound_to 11000

$$$$
