AV-unprocessed.smi:2025|AV-procd|sdf|8198|dock6
  -GOLD-   2272010453D 1   1.00000     0.00000
 Structure written by MMmdl.
 39 40  0  0  0  0  0  0  0  0  1 V2000
  147.3387  134.9003  154.7523 C   0  0  0  0  0  0  0  0  0  0  0  0
  146.4289  135.7205  153.8262 C   0  0  1  0  0  0  0  0  0  0  0  0
  147.0874  136.9907  153.5254 N   0  0  0  0  0  0  0  0  0  0  0  0
  146.7076  138.2003  153.9653 C   0  0  0  0  0  0  0  0  0  0  0  0
  145.7192  138.3849  154.6766 O   0  0  0  0  0  0  0  0  0  0  0  0
  147.5675  139.3834  153.5012 C   0  0  0  0  0  0  0  0  0  0  0  0
  148.8264  139.5033  154.2477 N   0  0  0  0  0  0  0  0  0  0  0  0
  149.7803  138.5069  154.1484 C   0  0  0  0  0  0  0  0  0  0  0  0
  150.9704  138.5494  154.7861 C   0  0  0  0  0  0  0  0  0  0  0  0
  151.3223  139.6768  155.6407 C   0  0  0  0  0  0  0  0  0  0  0  0
  152.4037  139.7652  156.2232 O   0  0  0  0  0  0  0  0  0  0  0  0
  150.3224  140.6740  155.7376 N   0  0  0  0  0  0  0  0  0  0  0  0
  150.5888  141.8425  156.5509 C   0  0  0  0  0  0  0  0  0  0  0  0
  149.0872  140.6326  155.0532 C   0  0  0  0  0  0  0  0  0  0  0  0
  148.2614  141.5447  155.1414 O   0  0  0  0  0  0  0  0  0  0  0  0
  146.1000  134.9631  152.5234 C   0  0  2  0  0  0  0  0  0  0  0  0
  145.3405  135.7798  151.4762 C   0  0  0  0  0  0  0  0  0  0  0  0
  144.6893  134.6917  150.6545 C   0  0  0  0  0  0  0  0  0  0  0  0
  144.3157  133.6708  151.7254 C   0  0  0  0  0  0  0  0  0  0  0  0
  145.2461  133.8530  152.7903 O   0  0  0  0  0  0  0  0  0  0  0  0
  146.8668  133.9592  155.0359 H   0  0  0  0  0  0  0  0  0  0  0  0
  147.5562  135.4460  155.6711 H   0  0  0  0  0  0  0  0  0  0  0  0
  148.2886  134.6643  154.2717 H   0  0  0  0  0  0  0  0  0  0  0  0
  145.4957  135.9026  154.3616 H   0  0  0  0  0  0  0  0  0  0  0  0
  147.9077  136.9432  152.9386 H   0  0  0  0  0  0  0  0  0  0  0  0
  147.7729  139.2986  152.4326 H   0  0  0  0  0  0  0  0  0  0  0  0
  146.9792  140.2946  153.6157 H   0  0  0  0  0  0  0  0  0  0  0  0
  149.5688  137.6520  153.5229 H   0  0  0  0  0  0  0  0  0  0  0  0
  151.6737  137.7394  154.6598 H   0  0  0  0  0  0  0  0  0  0  0  0
  149.6741  142.1168  157.0789 H   0  0  0  0  0  0  0  0  0  0  0  0
  150.9117  142.6333  155.8725 H   0  0  0  0  0  0  0  0  0  0  0  0
  151.3551  141.6221  157.2944 H   0  0  0  0  0  0  0  0  0  0  0  0
  147.0157  134.5758  152.0733 H   0  0  0  0  0  0  0  0  0  0  0  0
  144.5760  136.3976  151.9498 H   0  0  0  0  0  0  0  0  0  0  0  0
  145.9892  136.4287  150.8870 H   0  0  0  0  0  0  0  0  0  0  0  0
  143.8313  135.0409  150.0797 H   0  0  0  0  0  0  0  0  0  0  0  0
  145.4146  134.2630  149.9618 H   0  0  0  0  0  0  0  0  0  0  0  0
  143.3129  133.8660  152.1069 H   0  0  0  0  0  0  0  0  0  0  0  0
  144.3408  132.6490  151.3470 H   0  0  0  0  0  0  0  0  0  0  0  0
  1  2  1  0  0  0  0
  1 21  1  0  0  0  0
  1 22  1  0  0  0  0
  1 23  1  0  0  0  0
  2  3  1  0  0  0  0
  2 16  1  0  0  0  0
  2 24  1  0  0  0  0
  3  4  1  0  0  0  0
  3 25  1  0  0  0  0
  4  5  2  0  0  0  0
  4  6  1  0  0  0  0
  6  7  1  0  0  0  0
  6 26  1  0  0  0  0
  6 27  1  0  0  0  0
  7 14  1  0  0  0  0
  7  8  1  0  0  0  0
  8  9  2  0  0  0  0
  8 28  1  0  0  0  0
  9 10  1  0  0  0  0
  9 29  1  0  0  0  0
 10 11  2  0  0  0  0
 10 12  1  0  0  0  0
 12 13  1  0  0  0  0
 12 14  1  0  0  0  0
 13 30  1  0  0  0  0
 13 31  1  0  0  0  0
 13 32  1  0  0  0  0
 14 15  2  0  0  0  0
 16 20  1  0  0  0  0
 16 17  1  0  0  0  0
 16 33  1  0  0  0  0
 17 18  1  0  0  0  0
 17 34  1  0  0  0  0
 17 35  1  0  0  0  0
 18 19  1  0  0  0  0
 18 36  1  0  0  0  0
 18 37  1  0  0  0  0
 19 20  1  0  0  0  0
 19 38  1  0  0  0  0
 19 39  1  0  0  0  0
M  END
> <s_m_source_file>
AV-unprocessed.smi

> <i_m_source_file_index>
2025

> <i_lp_mmshare_version>
43012

> <i_f3d_flags>
0

> <s_epik_input>
TzFbQ0gyXVtDSDJdW0NIMl1bQ0BIXTFbQ0BIXShbQ0gzXSlbTkhdQyg9TylbQ0gyXW4yW2NIXVtjSF1jKD1PKW4oW0NIM10pYzI9Tw==

> <s_epik_cmdline>
J2VwaWtfcHl0aG9uJywgJy1waCcsICc3LjAnLCAnLXRuJywgJzgnLCAnLW1hJywgJzIwMCcsICctbWV0YWxfYmluZGluZycsICctaW1hZScsICc8aW5maWxlLm1hZT4nLCAnLW9tYWUnLCAnPG91dGZpbGUubWFlPic=

> <r_lp_tautomer_probability>
1

> <r_epik_Ionization_Penalty>
3.54787e-08

> <r_epik_Ionization_Penalty_Charging>
1.24654e-08

> <r_epik_Ionization_Penalty_Neutral>
2.30132e-08

> <r_epik_State_Penalty>
-0

> <r_epik_Charging_Adjusted_Penalty>
1.24654e-08

> <i_epik_Tot_Q>
0

> <i_epik_Tot_abs_Q>
0

> <r_epik_Metal_State_Penalty>
-0

> <b_epik_Metal_Only>
0

> <s_lp_Force_Field>
OPLS_2005

> <r_lp_Energy>
25.7305

> <b_lp_Chiralities_Consistent>
1

> <s_lp_Variant>
AV-unprocessed.smi:2025-2

> <Gold.Version>
5.8.1

> <Gold.Id.Protein>
6NUR|6NUR_protein|mol2

> <Gold.PLP.Fitness>
40.1698

> <Gold.PLP.PLP>
-31.9560

> <Gold.PLP.part.hbond>
-2.0000

> <Gold.PLP.part.metal>
0.0000

> <Gold.PLP.part.buried>
-1.1018

> <Gold.PLP.part.nonpolar>
-29.8182

> <Gold.PLP.part.repulsive>
0.5186

> <Gold.PLP.ligand.clash>
0.0000

> <Gold.PLP.ligand.torsion>
0.4024

> <Gold.PLP.Chemscore.Hbond>
2.0000

> <Gold.PLP.Chemscore.CHOScore>
1.0000

> <Gold.PLP.Chemscore.Metal>
0.0000

> <Gold.Chemscore.Hbonds>
donor molecule, donor type, donor heavy atom, donor atom, acceptor molecule, acceptor atom, score
      L1  H     3    25       P1  7948  1.00
      P1  H  7997  8010       L1    11  1.00
      L1  C     8    28       P1  7948  1.00

> <Gold.PLP.Chemscore.Internal.Correction>
0.0185

> <Gold.Rescore>
     Score         DG    S(hbond)    S(metal)    S(lipo)     H(rot)  DE(clash)    DE(int)     intcor
     12.88     -13.26       2.00        0.00      49.45       1.82       0.08       0.31       ----

> <Gold.Chemscore.Fitness>
12.8812

> <Gold.Chemscore.DG>
-13.2648

> <Gold.Chemscore.ZeroCoef>
-5.4800

> <Gold.Chemscore.Hbond>
1.9956

> <Gold.Chemscore.Metal>
0.0000

> <Gold.Chemscore.Lipo>
49.4534

> <Gold.Chemscore.Internal_Hbond>
0.0000

> <Gold.Chemscore.DEClash>
0.0785

> <Gold.Chemscore.DEInternal>
0.3051

> <Gold.Chemscore.Rot>
1.8228

> <Gold.Chemscore.Internal.Correction>
   9.000000E+99

> <Gold.Chemscore.Hbonds>
donor molecule, donor type, donor heavy atom, donor atom, acceptor molecule, acceptor atom, score
      L1  H     3    25       P1  7948  0.98
      P1  H  7997  8010       L1    11  0.98

> <Gold.Chemscore.Hbond.Weighted>
-6.6653

> <Gold.Chemscore.Metal.Weighted>
-0.0000

> <Gold.Chemscore.Lipo.Weighted>
-5.7861

> <Gold.Chemscore.Internal_Hbond.Weighted>
0.0000

> <Gold.Chemscore.DEClash.Weighted>
0.0785

> <Gold.Chemscore.DEInternal.Weighted>
0.3051

> <Gold.Chemscore.Rot.Weighted>
4.6665

> <Gold.Chemscore.Internal.Correction.Weighted>
   9.000000E+99

> <Gold.Protein.RotatedTorsions>
[ 6907 6896 6895 6894 ] final  154.11 input  -60.11 | X-H torsion
[ 7974 7965 7964 7962 ] final   41.54 input  175.53 | X-H torsion
[ 8008 7997 7996 7995 ] final   79.52 input   59.86 | X-H torsion
[ 10167 10162 10161 10158 ] final    3.46 input  -65.29 | X-H torsion
[ 10718 10713 10712 10709 ] final -176.19 input   66.30 | X-H torsion
[ 10763 10752 10751 10750 ] final  -37.46 input  -60.55 | X-H torsion
[ 11005 11000 10999 10996 ] final  101.39 input  -57.11 | X-H torsion

> <Gold.Protein.ActiveResidues>
 VAL166  LYS551  ARG553  GLY616  TRP617  ASP618  TYR619  PRO620  LYS621  CYS622 
 ASP623  PHE694  ASN695  SER759  ASP760  ASP761  ALA762  ILE779  LEU786  VAL792 
 PHE793  MET794  SER795  GLU796  ALA797  LYS798  CYS799  TRP800  GLU811  SER814 

> <Gold.Protein.RotatedAtoms>
  152.0631  133.4071  159.4426 H   0  0  0  0  0  0  0  0  0  0  0  0  # atno 6907 bound_to 6896
  150.6865  134.3177  159.4782 H   0  0  0  0  0  0  0  0  0  0  0  0  # atno 6908 bound_to 6896
  152.1000  134.9347  160.0620 H   0  0  0  0  0  0  0  0  0  0  0  0  # atno 6909 bound_to 6896
  146.0815  139.5404  142.9534 H   0  0  0  0  0  0  0  0  0  0  0  0  # atno 7974 bound_to 7965
  155.8708  140.3449  155.5819 H   0  0  0  0  0  0  0  0  0  0  0  0  # atno 8008 bound_to 7997
  155.7830  140.0861  157.2068 H   0  0  0  0  0  0  0  0  0  0  0  0  # atno 8009 bound_to 7997
  154.4017  140.1497  156.3061 H   0  0  0  0  0  0  0  0  0  0  0  0  # atno 8010 bound_to 7997
  140.6585  143.7366  150.7695 H   0  0  0  0  0  0  0  0  0  0  0  0  # atno 10167 bound_to 10162
  156.8110  130.9586  151.3116 H   0  0  0  0  0  0  0  0  0  0  0  0  # atno 10718 bound_to 10713
  153.8967  135.6806  153.4757 H   0  0  0  0  0  0  0  0  0  0  0  0  # atno 10763 bound_to 10752
  153.1151  135.4765  154.9099 H   0  0  0  0  0  0  0  0  0  0  0  0  # atno 10764 bound_to 10752
  154.7595  135.3207  154.8359 H   0  0  0  0  0  0  0  0  0  0  0  0  # atno 10765 bound_to 10752
  139.8773  134.9181  156.4900 H   0  0  0  0  0  0  0  0  0  0  0  0  # atno 11005 bound_to 11000
  145.6209  141.0323  143.1915 LP  0  0  0  0  0  0  0  0  0  0  0  0  # atno 17320 bound_to 7965
  144.7296  139.7766  143.7352 LP  0  0  0  0  0  0  0  0  0  0  0  0  # atno 17321 bound_to 7965
  140.1030  143.4770  152.2414 LP  0  0  0  0  0  0  0  0  0  0  0  0  # atno 17342 bound_to 10162
  139.5813  144.7511  151.3634 LP  0  0  0  0  0  0  0  0  0  0  0  0  # atno 17343 bound_to 10162
  157.6506  130.8881  149.9625 LP  0  0  0  0  0  0  0  0  0  0  0  0  # atno 17370 bound_to 10713
  156.1045  130.3653  150.0159 LP  0  0  0  0  0  0  0  0  0  0  0  0  # atno 17371 bound_to 10713
  140.8665  133.8020  155.9319 LP  0  0  0  0  0  0  0  0  0  0  0  0  # atno 17394 bound_to 11000
  140.8996  134.2395  157.5049 LP  0  0  0  0  0  0  0  0  0  0  0  0  # atno 17395 bound_to 11000

$$$$
