AV-unprocessed.smi:337|AV-procd|sdf|2373|dock3
  -GOLD-   2262022293D 1   1.00000     0.00000
 Structure written by MMmdl.
 43 44  0  0  0  0  0  0  0  0  1 V2000
  146.4968  138.2886  151.6863 C   0  0  0  0  0  0  0  0  0  0  0  0
  147.4840  139.2842  152.3178 C   0  0  1  0  0  0  0  0  0  0  0  0
  146.7200  140.4057  152.8633 N   0  0  0  0  0  0  0  0  0  0  0  0
  147.2493  141.4521  153.5154 C   0  0  0  0  0  0  0  0  0  0  0  0
  146.3206  142.3109  153.9366 N   0  0  0  0  0  0  0  0  0  0  0  0
  148.4520  141.6134  153.7154 O   0  0  0  0  0  0  0  0  0  0  0  0
  148.2510  138.5726  153.4426 C   0  0  0  0  0  0  0  0  0  0  0  0
  147.6442  138.0276  154.3661 O   0  0  0  0  0  0  0  0  0  0  0  0
  149.5896  138.5991  153.3563 N   0  0  0  0  0  0  0  0  0  0  0  0
  150.4982  138.0773  154.3716 C   0  0  0  0  0  0  0  0  0  0  0  0
  150.8912  139.1043  155.4248 C   0  0  0  0  0  0  0  0  0  0  0  0
  149.9329  139.7182  156.2585 C   0  0  0  0  0  0  0  0  0  0  0  0
  150.3614  140.6488  157.2232 C   0  0  0  0  0  0  0  0  0  0  0  0
  151.7403  140.9476  157.3297 C   0  0  0  0  0  0  0  0  0  0  0  0
  152.1911  141.8673  158.3011 N   0  0  0  0  0  0  0  0  0  0  0  0
  152.3153  141.4007  159.6806 C   0  0  0  0  0  0  0  0  0  0  0  0
  153.0731  142.4357  160.5292 C   0  0  0  0  0  0  0  0  0  0  0  0
  152.4243  143.6996  160.4356 O   0  0  0  0  0  0  0  0  0  0  0  0
  152.4090  144.1882  159.0983 C   0  0  0  0  0  0  0  0  0  0  0  0
  151.6342  143.2137  158.1944 C   0  0  0  0  0  0  0  0  0  0  0  0
  152.6564  140.3705  156.5128 N   0  0  0  0  0  0  0  0  0  0  0  0
  152.2400  139.4763  155.5912 C   0  0  0  0  0  0  0  0  0  0  0  0
  147.0187  137.4288  151.2646 H   0  0  0  0  0  0  0  0  0  0  0  0
  145.9380  138.7571  150.8757 H   0  0  0  0  0  0  0  0  0  0  0  0
  145.7726  137.9154  152.4124 H   0  0  0  0  0  0  0  0  0  0  0  0
  148.1755  139.6453  151.5537 H   0  0  0  0  0  0  0  0  0  0  0  0
  145.7168  140.3648  152.7589 H   0  0  0  0  0  0  0  0  0  0  0  0
  146.5889  143.1454  154.4368 H   0  0  0  0  0  0  0  0  0  0  0  0
  145.3468  142.1232  153.7461 H   0  0  0  0  0  0  0  0  0  0  0  0
  150.0064  139.0628  152.5619 H   0  0  0  0  0  0  0  0  0  0  0  0
  150.0535  137.2023  154.8490 H   0  0  0  0  0  0  0  0  0  0  0  0
  151.4048  137.7324  153.8740 H   0  0  0  0  0  0  0  0  0  0  0  0
  148.8826  139.4831  156.1678 H   0  0  0  0  0  0  0  0  0  0  0  0
  149.6310  141.1268  157.8585 H   0  0  0  0  0  0  0  0  0  0  0  0
  151.3210  141.2336  160.0972 H   0  0  0  0  0  0  0  0  0  0  0  0
  152.8471  140.4489  159.7107 H   0  0  0  0  0  0  0  0  0  0  0  0
  153.0926  142.1227  161.5731 H   0  0  0  0  0  0  0  0  0  0  0  0
  154.1110  142.5222  160.2030 H   0  0  0  0  0  0  0  0  0  0  0  0
  151.9341  145.1693  159.0850 H   0  0  0  0  0  0  0  0  0  0  0  0
  153.4301  144.3246  158.7378 H   0  0  0  0  0  0  0  0  0  0  0  0
  151.6627  143.5827  157.1701 H   0  0  0  0  0  0  0  0  0  0  0  0
  150.5849  143.1835  158.4912 H   0  0  0  0  0  0  0  0  0  0  0  0
  153.0110  139.0402  154.9729 H   0  0  0  0  0  0  0  0  0  0  0  0
  1  2  1  0  0  0  0
  1 23  1  0  0  0  0
  1 24  1  0  0  0  0
  1 25  1  0  0  0  0
  2  3  1  0  0  0  0
  2  7  1  0  0  0  0
  2 26  1  0  0  0  0
  3  4  1  0  0  0  0
  3 27  1  0  0  0  0
  4  5  1  0  0  0  0
  4  6  2  0  0  0  0
  5 28  1  0  0  0  0
  5 29  1  0  0  0  0
  7  8  2  0  0  0  0
  7  9  1  0  0  0  0
  9 10  1  0  0  0  0
  9 30  1  0  0  0  0
 10 11  1  0  0  0  0
 10 31  1  0  0  0  0
 10 32  1  0  0  0  0
 11 22  1  0  0  0  0
 11 12  2  0  0  0  0
 12 13  1  0  0  0  0
 12 33  1  0  0  0  0
 13 14  2  0  0  0  0
 13 34  1  0  0  0  0
 14 15  1  0  0  0  0
 14 21  1  0  0  0  0
 15 20  1  0  0  0  0
 15 16  1  0  0  0  0
 16 17  1  0  0  0  0
 16 35  1  0  0  0  0
 16 36  1  0  0  0  0
 17 18  1  0  0  0  0
 17 37  1  0  0  0  0
 17 38  1  0  0  0  0
 18 19  1  0  0  0  0
 19 20  1  0  0  0  0
 19 39  1  0  0  0  0
 19 40  1  0  0  0  0
 20 41  1  0  0  0  0
 20 42  1  0  0  0  0
 21 22  2  0  0  0  0
 22 43  1  0  0  0  0
M  END
> <s_m_source_file>
AV-unprocessed.smi

> <i_m_source_file_index>
337

> <i_lp_mmshare_version>
43012

> <i_f3d_flags>
0

> <s_epik_input>
W05IMl1DKD1PKVtOSF1bQ0BASF0oW0NIM10pQyg9TylbTkhdW0NIMl1jMVtjSF1bY0hdYyhuW2NIXTEpTjJbQ0gyXVtDSDJdT1tDSDJdW0NIMl0y

> <s_epik_cmdline>
J2VwaWtfcHl0aG9uJywgJy1waCcsICc3LjAnLCAnLXRuJywgJzgnLCAnLW1hJywgJzIwMCcsICctbWV0YWxfYmluZGluZycsICctaW1hZScsICc8aW5maWxlLm1hZT4nLCAnLW9tYWUnLCAnPG91dGZpbGUubWFlPic=

> <r_lp_tautomer_probability>
1

> <r_epik_Ionization_Penalty>
0.0048357

> <r_epik_Ionization_Penalty_Charging>
0

> <r_epik_Ionization_Penalty_Neutral>
0.0048357

> <r_epik_State_Penalty>
0.0034696

> <r_epik_Charging_Adjusted_Penalty>
0.0034696

> <i_epik_Tot_Q>
0

> <i_epik_Tot_abs_Q>
0

> <r_epik_Metal_State_Penalty>
-0

> <b_epik_Metal_Only>
0

> <s_lp_Force_Field>
OPLS_2005

> <r_lp_Energy>
9.87941

> <b_lp_Chiralities_Consistent>
1

> <s_lp_Variant>
AV-unprocessed.smi:337-2

> <Gold.Version>
5.8.1

> <Gold.Id.Protein>
6NUR|6NUR_protein|mol2

> <Gold.PLP.Fitness>
47.0322

> <Gold.PLP.PLP>
-37.3803

> <Gold.PLP.part.hbond>
-5.0000

> <Gold.PLP.part.metal>
0.0000

> <Gold.PLP.part.buried>
0.0157

> <Gold.PLP.part.nonpolar>
-32.2911

> <Gold.PLP.part.repulsive>
0.5097

> <Gold.PLP.ligand.clash>
0.0000

> <Gold.PLP.ligand.torsion>
0.4792

> <Gold.PLP.Chemscore.Hbond>
3.4089

> <Gold.PLP.Chemscore.CHOScore>
0.0000

> <Gold.PLP.Chemscore.Metal>
0.0000

> <Gold.Chemscore.Hbonds>
donor molecule, donor type, donor heavy atom, donor atom, acceptor molecule, acceptor atom, score
      L1  H     3    27       P1 10175  0.94
      L1  H     9    30       P1  7957  0.86
      P1  H  7997  8010       L1    21  0.96
      P1  H  8011  8017       L1     6  0.56

> <Gold.PLP.Chemscore.Internal.Correction>
0.3835

> <Gold.Rescore>
     Score         DG    S(hbond)    S(metal)    S(lipo)     H(rot)  DE(clash)    DE(int)     intcor
     17.13     -18.29       2.81        0.00      87.39       2.66       0.70       0.45       ----

> <Gold.Chemscore.Fitness>
17.1318

> <Gold.Chemscore.DG>
-18.2854

> <Gold.Chemscore.ZeroCoef>
-5.4800

> <Gold.Chemscore.Hbond>
2.8093

> <Gold.Chemscore.Metal>
0.0000

> <Gold.Chemscore.Lipo>
87.3932

> <Gold.Chemscore.Internal_Hbond>
0.0000

> <Gold.Chemscore.DEClash>
0.7020

> <Gold.Chemscore.DEInternal>
0.4517

> <Gold.Chemscore.Rot>
2.6573

> <Gold.Chemscore.Internal.Correction>
   9.000000E+99

> <Gold.Chemscore.Hbonds>
donor molecule, donor type, donor heavy atom, donor atom, acceptor molecule, acceptor atom, score
      L1  H     3    27       P1 10175  0.74
      L1  H     9    30       P1  7957  0.55
      P1  H  7997  8010       L1    21  0.32
      P1  H  8011  8017       L1     6  0.55

> <Gold.Chemscore.Hbond.Weighted>
-9.3832

> <Gold.Chemscore.Metal.Weighted>
-0.0000

> <Gold.Chemscore.Lipo.Weighted>
-10.2250

> <Gold.Chemscore.Internal_Hbond.Weighted>
0.0000

> <Gold.Chemscore.DEClash.Weighted>
0.7020

> <Gold.Chemscore.DEInternal.Weighted>
0.4517

> <Gold.Chemscore.Rot.Weighted>
6.8027

> <Gold.Chemscore.Internal.Correction.Weighted>
   9.000000E+99

> <Gold.Protein.RotatedTorsions>
[ 6907 6896 6895 6894 ] final  -40.47 input  -60.11 | X-H torsion
[ 7974 7965 7964 7962 ] final  152.52 input  175.53 | X-H torsion
[ 8008 7997 7996 7995 ] final   68.59 input   59.86 | X-H torsion
[ 10167 10162 10161 10158 ] final   47.62 input  -65.29 | X-H torsion
[ 10718 10713 10712 10709 ] final -151.35 input   66.30 | X-H torsion
[ 10763 10752 10751 10750 ] final  -24.33 input  -60.55 | X-H torsion
[ 11005 11000 10999 10996 ] final   96.10 input  -57.11 | X-H torsion

> <Gold.Protein.ActiveResidues>
 VAL166  LYS551  ARG553  GLY616  TRP617  ASP618  TYR619  PRO620  LYS621  CYS622 
 ASP623  PHE694  ASN695  SER759  ASP760  ASP761  ALA762  ILE779  LEU786  VAL792 
 PHE793  MET794  SER795  GLU796  ALA797  LYS798  CYS799  TRP800  GLU811  SER814 

> <Gold.Protein.RotatedAtoms>
  150.9781  134.9142  159.7827 H   0  0  0  0  0  0  0  0  0  0  0  0  # atno 6907 bound_to 6896
  152.5213  134.3448  159.9240 H   0  0  0  0  0  0  0  0  0  0  0  0  # atno 6908 bound_to 6896
  151.3455  133.3904  159.2710 H   0  0  0  0  0  0  0  0  0  0  0  0  # atno 6909 bound_to 6896
  144.8217  139.6679  143.6097 H   0  0  0  0  0  0  0  0  0  0  0  0  # atno 7974 bound_to 7965
  155.7107  140.3494  155.4972 H   0  0  0  0  0  0  0  0  0  0  0  0  # atno 8008 bound_to 7997
  155.9358  140.1092  157.1117 H   0  0  0  0  0  0  0  0  0  0  0  0  # atno 8009 bound_to 7997
  154.4093  140.1222  156.4849 H   0  0  0  0  0  0  0  0  0  0  0  0  # atno 8010 bound_to 7997
  140.3017  144.2926  150.6217 H   0  0  0  0  0  0  0  0  0  0  0  0  # atno 10167 bound_to 10162
  156.4581  130.8200  151.2431 H   0  0  0  0  0  0  0  0  0  0  0  0  # atno 10718 bound_to 10713
  153.6820  135.6966  153.5115 H   0  0  0  0  0  0  0  0  0  0  0  0  # atno 10763 bound_to 10752
  153.2478  135.4285  155.0765 H   0  0  0  0  0  0  0  0  0  0  0  0  # atno 10764 bound_to 10752
  154.8397  135.3524  154.6363 H   0  0  0  0  0  0  0  0  0  0  0  0  # atno 10765 bound_to 10752
  139.8784  134.8933  156.4109 H   0  0  0  0  0  0  0  0  0  0  0  0  # atno 11005 bound_to 11000
  146.2522  139.6225  142.9419 LP  0  0  0  0  0  0  0  0  0  0  0  0  # atno 17320 bound_to 7965
  145.5090  141.0436  143.2498 LP  0  0  0  0  0  0  0  0  0  0  0  0  # atno 17321 bound_to 7965
  140.5645  143.2188  151.7707 LP  0  0  0  0  0  0  0  0  0  0  0  0  # atno 17342 bound_to 10162
  139.4913  144.4303  151.9880 LP  0  0  0  0  0  0  0  0  0  0  0  0  # atno 17343 bound_to 10162
  157.7499  131.0116  150.3352 LP  0  0  0  0  0  0  0  0  0  0  0  0  # atno 17370 bound_to 10713
  156.3745  130.3869  149.7149 LP  0  0  0  0  0  0  0  0  0  0  0  0  # atno 17371 bound_to 10713
  140.9201  133.7651  155.9896 LP  0  0  0  0  0  0  0  0  0  0  0  0  # atno 17394 bound_to 11000
  140.8449  134.3023  157.5299 LP  0  0  0  0  0  0  0  0  0  0  0  0  # atno 17395 bound_to 11000

$$$$
