AV-unprocessed.smi:34|AV-procd|sdf|241|dock1
  -GOLD-   2262015593D 1   1.00000     0.00000
 Structure written by MMmdl.
 54 58  0  0  0  0  0  0  0  0  2 V2000
  153.2754  139.7245  158.1958 O   0  0  0  0  0  0  0  0  0  0  0  0
  152.3673  140.5096  157.9146 C   0  0  0  0  0  0  0  0  0  0  0  0
  151.3915  140.3534  156.9841 N   0  5  0  0  0  0  0  0  0  0  0  0
  151.4153  139.2934  156.1619 C   0  0  0  0  0  0  0  0  0  0  0  0
  151.9134  139.4140  154.9046 N   0  0  0  0  0  0  0  0  0  0  0  0
  151.9369  138.3587  154.0818 C   0  0  0  0  0  0  0  0  0  0  0  0
  151.5185  137.1085  154.3052 N   0  0  0  0  0  0  0  0  0  0  0  0
  151.0072  136.9794  155.5638 C   0  0  0  0  0  0  0  0  0  0  0  0
  150.9175  138.0151  156.5373 C   0  0  0  0  0  0  0  0  0  0  0  0
  150.3412  137.5396  157.7060 N   0  0  0  0  0  0  0  0  0  0  0  0
  150.1177  136.2635  157.3972 C   0  0  0  0  0  0  0  0  0  0  0  0
  150.4880  135.8484  156.1677 N   0  0  0  0  0  0  0  0  0  0  0  0
  150.3569  134.4948  155.5390 C   0  0  2  0  0  0  0  0  0  0  0  0
  149.0422  134.0417  155.7030 O   0  0  0  0  0  0  0  0  0  0  0  0
  148.9974  132.9028  156.5586 C   0  0  2  0  0  0  0  0  0  0  0  0
  148.6793  133.3433  157.9970 C   0  0  0  0  0  0  0  0  0  0  0  0
  148.9841  132.2859  158.8918 O   0  0  0  0  0  0  0  0  0  0  0  0
  148.1221  131.2630  159.0480 C   0  0  0  0  0  0  0  0  0  0  0  0
  147.2566  130.9677  158.2215 O   0  0  0  0  0  0  0  0  0  0  0  0
  148.3240  130.5262  160.3291 C   0  0  0  0  0  0  0  0  0  0  0  0
  147.4593  129.4557  160.6571 C   0  0  0  0  0  0  0  0  0  0  0  0
  147.6230  128.7446  161.8618 C   0  0  0  0  0  0  0  0  0  0  0  0
  148.6535  129.0950  162.7535 C   0  0  0  0  0  0  0  0  0  0  0  0
  149.5204  130.1577  162.4388 C   0  0  0  0  0  0  0  0  0  0  0  0
  149.3583  130.8702  161.2345 C   0  0  0  0  0  0  0  0  0  0  0  0
  150.3774  132.2632  156.3947 C   0  0  1  0  0  0  0  0  0  0  0  0
  150.3778  131.4885  155.3086 F   0  0  0  0  0  0  0  0  0  0  0  0
  151.3015  133.4472  156.1712 C   0  0  2  0  0  0  0  0  0  0  0  0
  151.9026  133.8447  157.3916 O   0  0  0  0  0  0  0  0  0  0  0  0
  152.3223  141.8450  158.6093 C   0  0  0  0  0  0  0  0  0  0  0  0
  152.8401  141.9704  159.9188 C   0  0  0  0  0  0  0  0  0  0  0  0
  152.7827  143.2031  160.5976 C   0  0  0  0  0  0  0  0  0  0  0  0
  152.1993  144.3232  159.9771 C   0  0  0  0  0  0  0  0  0  0  0  0
  151.6690  144.2082  158.6787 C   0  0  0  0  0  0  0  0  0  0  0  0
  151.7247  142.9755  157.9997 C   0  0  0  0  0  0  0  0  0  0  0  0
  152.3534  138.5423  153.1025 H   0  0  0  0  0  0  0  0  0  0  0  0
  149.6570  135.5966  158.1103 H   0  0  0  0  0  0  0  0  0  0  0  0
  150.5541  134.6683  154.4804 H   0  0  0  0  0  0  0  0  0  0  0  0
  148.2114  132.2287  156.2159 H   0  0  0  0  0  0  0  0  0  0  0  0
  149.2448  134.2358  158.2660 H   0  0  0  0  0  0  0  0  0  0  0  0
  147.6204  133.5907  158.0818 H   0  0  0  0  0  0  0  0  0  0  0  0
  146.6603  129.1692  159.9884 H   0  0  0  0  0  0  0  0  0  0  0  0
  146.9561  127.9295  162.1016 H   0  0  0  0  0  0  0  0  0  0  0  0
  148.7783  128.5499  163.6773 H   0  0  0  0  0  0  0  0  0  0  0  0
  150.3117  130.4282  163.1224 H   0  0  0  0  0  0  0  0  0  0  0  0
  150.0402  131.6813  161.0248 H   0  0  0  0  0  0  0  0  0  0  0  0
  150.6702  131.6271  157.2312 H   0  0  0  0  0  0  0  0  0  0  0  0
  152.0995  133.2081  155.4674 H   0  0  0  0  0  0  0  0  0  0  0  0
  152.8033  134.0760  157.2204 H   0  0  0  0  0  0  0  0  0  0  0  0
  153.2894  141.1198  160.4107 H   0  0  0  0  0  0  0  0  0  0  0  0
  153.1852  143.2875  161.5960 H   0  0  0  0  0  0  0  0  0  0  0  0
  152.1546  145.2682  160.4977 H   0  0  0  0  0  0  0  0  0  0  0  0
  151.2146  145.0649  158.2032 H   0  0  0  0  0  0  0  0  0  0  0  0
  151.3007  142.9068  157.0083 H   0  0  0  0  0  0  0  0  0  0  0  0
  1  2  2  0  0  0  0
  2  3  1  0  0  0  0
  2 30  1  0  0  0  0
  3  4  1  0  0  0  0
  4  9  1  0  0  0  0
  4  5  2  0  0  0  0
  5  6  1  0  0  0  0
  6  7  2  0  0  0  0
  6 36  1  0  0  0  0
  7  8  1  0  0  0  0
  8 12  1  0  0  0  0
  8  9  2  0  0  0  0
  9 10  1  0  0  0  0
 10 11  2  0  0  0  0
 11 12  1  0  0  0  0
 11 37  1  0  0  0  0
 12 13  1  0  0  0  0
 13 28  1  0  0  0  0
 13 14  1  0  0  0  0
 13 38  1  0  0  0  0
 14 15  1  0  0  0  0
 15 16  1  0  0  0  0
 15 26  1  0  0  0  0
 15 39  1  0  0  0  0
 16 17  1  0  0  0  0
 16 40  1  0  0  0  0
 16 41  1  0  0  0  0
 17 18  1  0  0  0  0
 18 19  2  0  0  0  0
 18 20  1  0  0  0  0
 20 25  1  0  0  0  0
 20 21  2  0  0  0  0
 21 22  1  0  0  0  0
 21 42  1  0  0  0  0
 22 23  2  0  0  0  0
 22 43  1  0  0  0  0
 23 24  1  0  0  0  0
 23 44  1  0  0  0  0
 24 25  2  0  0  0  0
 24 45  1  0  0  0  0
 25 46  1  0  0  0  0
 26 27  1  0  0  0  0
 26 28  1  0  0  0  0
 26 47  1  0  0  0  0
 28 29  1  0  0  0  0
 28 48  1  0  0  0  0
 29 49  1  0  0  0  0
 30 35  1  0  0  0  0
 30 31  2  0  0  0  0
 31 32  1  0  0  0  0
 31 50  1  0  0  0  0
 32 33  2  0  0  0  0
 32 51  1  0  0  0  0
 33 34  1  0  0  0  0
 33 52  1  0  0  0  0
 34 35  2  0  0  0  0
 34 53  1  0  0  0  0
 35 54  1  0  0  0  0
M  CHG  1   3  -1
M  END
> <s_m_source_file>
AV-unprocessed.smi

> <i_m_source_file_index>
34

> <i_lp_mmshare_version>
43012

> <i_f3d_flags>
0

> <s_epik_input>
W2NIXTFbY0hdW2NIXVtjSF1bY0hdYzFDKD1PKVtOSF1jKG5bY0hdbjIpYyhjMjMpbltjSF1uM1tDQEBIXTRPW0NASF0oW0NAQEhdKEYpW0NASF00W09IXSlbQ0gyXU9DKD1PKWM1W2NIXVtjSF1bY0hdW2NIXVtjSF01

> <s_epik_cmdline>
J2VwaWtfcHl0aG9uJywgJy1waCcsICc3LjAnLCAnLXRuJywgJzgnLCAnLW1hJywgJzIwMCcsICctbWV0YWxfYmluZGluZycsICctaW1hZScsICc8aW5maWxlLm1hZT4nLCAnLW9tYWUnLCAnPG91dGZpbGUubWFlPic=

> <r_lp_tautomer_probability>
1

> <r_epik_Ionization_Penalty>
4.33227

> <r_epik_Ionization_Penalty_Charging>
3.41027

> <r_epik_Ionization_Penalty_Neutral>
0.922001

> <r_epik_State_Penalty>
3.41358

> <r_epik_Charging_Adjusted_Penalty>
6.82385

> <i_epik_Tot_Q>
-1

> <i_epik_Tot_abs_Q>
1

> <r_epik_Metal_State_Penalty>
0.496292

> <b_epik_Metal_Only>
1

> <s_epik_Chemistry_Notes>
This compound has an ester and may undergo hydrolysis at high or low pH. This compound contains an acetal/aminal-like group ( X-CH(R)-Y where X, Y are N, S, or O) that may be acid/base labile, releasing an aldehyde.

> <s_lp_Force_Field>
OPLS_2005

> <r_lp_Energy>
50.7645

> <b_lp_Chiralities_Consistent>
1

> <s_lp_Variant>
AV-unprocessed.smi:34-27

> <Gold.Version>
5.8.1

> <Gold.Id.Protein>
6NUR|6NUR_protein|mol2

> <Gold.PLP.Fitness>
55.1137

> <Gold.PLP.PLP>
-47.9208

> <Gold.PLP.part.hbond>
-4.2460

> <Gold.PLP.part.metal>
0.0000

> <Gold.PLP.part.buried>
-8.1704

> <Gold.PLP.part.nonpolar>
-35.5699

> <Gold.PLP.part.repulsive>
0.6711

> <Gold.PLP.ligand.clash>
0.0000

> <Gold.PLP.ligand.torsion>
1.7035

> <Gold.PLP.Chemscore.Hbond>
3.1920

> <Gold.PLP.Chemscore.CHOScore>
0.0000

> <Gold.PLP.Chemscore.Metal>
0.0000

> <Gold.Chemscore.Hbonds>
donor molecule, donor type, donor heavy atom, donor atom, acceptor molecule, acceptor atom, score
      P1  H  6896  6907       L1    29  0.34
      P1  H  7989  7998       L1     5  0.88
      P1  H  7997  8008       L1     1  1.00
      P1  H 10752 10763       L1     7  0.99

> <Gold.PLP.Chemscore.Internal.Correction>
1.0241

> <Gold.Rescore>
     Score         DG    S(hbond)    S(metal)    S(lipo)     H(rot)  DE(clash)    DE(int)     intcor
     16.08     -19.32       2.24        0.00     113.34       2.69       0.49       2.74       ----

> <Gold.Chemscore.Fitness>
16.0808

> <Gold.Chemscore.DG>
-19.3199

> <Gold.Chemscore.ZeroCoef>
-5.4800

> <Gold.Chemscore.Hbond>
2.2385

> <Gold.Chemscore.Metal>
0.0000

> <Gold.Chemscore.Lipo>
113.3403

> <Gold.Chemscore.Internal_Hbond>
0.0000

> <Gold.Chemscore.DEClash>
0.4949

> <Gold.Chemscore.DEInternal>
2.7442

> <Gold.Chemscore.Rot>
2.6944

> <Gold.Chemscore.Internal.Correction>
   9.000000E+99

> <Gold.Chemscore.Hbonds>
donor molecule, donor type, donor heavy atom, donor atom, acceptor molecule, acceptor atom, score
      P1  H  6896  6907       L1    29  0.31
      P1  H  7989  7998       L1     5  0.16
      P1  H  7997  8008       L1     1  0.77
      P1  H 10752 10763       L1     7  0.42

> <Gold.Chemscore.Hbond.Weighted>
-7.4766

> <Gold.Chemscore.Metal.Weighted>
-0.0000

> <Gold.Chemscore.Lipo.Weighted>
-13.2608

> <Gold.Chemscore.Internal_Hbond.Weighted>
0.0000

> <Gold.Chemscore.DEClash.Weighted>
0.4949

> <Gold.Chemscore.DEInternal.Weighted>
2.7442

> <Gold.Chemscore.Rot.Weighted>
6.8975

> <Gold.Chemscore.Internal.Correction.Weighted>
   9.000000E+99

> <Gold.Protein.RotatedTorsions>
[ 6907 6896 6895 6894 ] final -170.41 input  -60.11 | X-H torsion
[ 7974 7965 7964 7962 ] final  -79.76 input  175.53 | X-H torsion
[ 8008 7997 7996 7995 ] final  -97.74 input   59.86 | X-H torsion
[ 10167 10162 10161 10158 ] final  167.88 input  -65.29 | X-H torsion
[ 10718 10713 10712 10709 ] final  116.63 input   66.30 | X-H torsion
[ 10763 10752 10751 10750 ] final   34.25 input  -60.55 | X-H torsion
[ 11005 11000 10999 10996 ] final  -12.31 input  -57.11 | X-H torsion

> <Gold.Protein.ActiveResidues>
 VAL166  LYS551  ARG553  GLY616  TRP617  ASP618  TYR619  PRO620  LYS621  CYS622 
 ASP623  PHE694  ASN695  SER759  ASP760  ASP761  ALA762  ILE779  LEU786  VAL792 
 PHE793  MET794  SER795  GLU796  ALA797  LYS798  CYS799  TRP800  GLU811  SER814 

> <Gold.Protein.RotatedAtoms>
  151.5073  133.3492  159.2878 H   0  0  0  0  0  0  0  0  0  0  0  0  # atno 6907 bound_to 6896
  150.8734  134.8115  159.7183 H   0  0  0  0  0  0  0  0  0  0  0  0  # atno 6908 bound_to 6896
  152.4714  134.4960  159.9762 H   0  0  0  0  0  0  0  0  0  0  0  0  # atno 6909 bound_to 6896
  145.5689  140.9469  143.1406 H   0  0  0  0  0  0  0  0  0  0  0  0  # atno 7974 bound_to 7965
  154.7919  140.0460  157.1207 H   0  0  0  0  0  0  0  0  0  0  0  0  # atno 8008 bound_to 7997
  154.9581  140.3074  155.5024 H   0  0  0  0  0  0  0  0  0  0  0  0  # atno 8009 bound_to 7997
  156.2951  140.2275  156.4664 H   0  0  0  0  0  0  0  0  0  0  0  0  # atno 8010 bound_to 7997
  139.4955  144.3874  151.9555 H   0  0  0  0  0  0  0  0  0  0  0  0  # atno 10167 bound_to 10162
  157.6148  131.1027  150.7500 H   0  0  0  0  0  0  0  0  0  0  0  0  # atno 10718 bound_to 10713
  153.0173  135.6365  154.1640 H   0  0  0  0  0  0  0  0  0  0  0  0  # atno 10763 bound_to 10752
  154.1378  135.2836  155.3170 H   0  0  0  0  0  0  0  0  0  0  0  0  # atno 10764 bound_to 10752
  154.6147  135.5545  153.7572 H   0  0  0  0  0  0  0  0  0  0  0  0  # atno 10765 bound_to 10752
  140.7644  133.8489  155.9152 H   0  0  0  0  0  0  0  0  0  0  0  0  # atno 11005 bound_to 11000
  144.7447  139.7352  143.7297 LP  0  0  0  0  0  0  0  0  0  0  0  0  # atno 17320 bound_to 7965
  146.1798  139.4985  142.9874 LP  0  0  0  0  0  0  0  0  0  0  0  0  # atno 17321 bound_to 7965
  140.3311  144.3315  150.5987 LP  0  0  0  0  0  0  0  0  0  0  0  0  # atno 17342 bound_to 10162
  140.5644  143.2188  151.7709 LP  0  0  0  0  0  0  0  0  0  0  0  0  # atno 17343 bound_to 10162
  156.7869  130.4877  149.5391 LP  0  0  0  0  0  0  0  0  0  0  0  0  # atno 17370 bound_to 10713
  156.1266  130.6148  151.0272 LP  0  0  0  0  0  0  0  0  0  0  0  0  # atno 17371 bound_to 10713
  140.9633  134.1627  157.4636 LP  0  0  0  0  0  0  0  0  0  0  0  0  # atno 17394 bound_to 11000
  139.8765  134.9952  156.5734 LP  0  0  0  0  0  0  0  0  0  0  0  0  # atno 17395 bound_to 11000

$$$$
