AV-unprocessed.smi:1208|AV-procd|sdf|5061|dock5
  -GOLD-   22720 4103D 1   1.00000     0.00000
 Structure written by MMmdl.
 35 36  0  0  0  0  0  0  0  0  2 V2000
  151.9227  144.8897  158.5956 C   0  0  0  0  0  0  0  0  0  0  0  0
  152.4496  143.4477  158.5309 C   0  0  2  0  0  0  0  0  0  0  0  0
  151.3083  142.5386  158.4499 N   0  0  0  0  0  0  0  0  0  0  0  0
  151.3221  141.2933  157.9490 C   0  0  0  0  0  0  0  0  0  0  0  0
  152.3325  140.7625  157.4840 O   0  0  0  0  0  0  0  0  0  0  0  0
  149.9754  140.5529  157.9900 C   0  0  0  0  0  0  0  0  0  0  0  0
  148.9425  141.1211  157.1110 N   0  0  0  0  0  0  0  0  0  0  0  0
  149.3353  141.1862  155.7056 N   0  5  0  0  0  0  0  0  0  0  0  0
  148.4569  141.6832  154.7948 C   0  0  0  0  0  0  0  0  0  0  0  0
  148.7117  141.7579  153.5948 O   0  0  0  0  0  0  0  0  0  0  0  0
  147.1649  142.1473  155.2725 C   0  0  0  0  0  0  0  0  0  0  0  0
  146.8373  142.0949  156.5785 C   0  0  0  0  0  0  0  0  0  0  0  0
  147.7469  141.5696  157.5896 C   0  0  0  0  0  0  0  0  0  0  0  0
  147.4590  141.5299  158.7861 O   0  0  0  0  0  0  0  0  0  0  0  0
  153.3167  143.0828  159.7530 C   0  0  2  0  0  0  0  0  0  0  0  0
  153.6563  141.5949  159.8713 C   0  0  0  0  0  0  0  0  0  0  0  0
  153.9037  141.4508  161.3547 C   0  0  0  0  0  0  0  0  0  0  0  0
  152.8281  142.3639  161.9319 C   0  0  0  0  0  0  0  0  0  0  0  0
  152.6328  143.3937  160.9667 O   0  0  0  0  0  0  0  0  0  0  0  0
  152.7386  145.6123  158.6112 H   0  0  0  0  0  0  0  0  0  0  0  0
  151.3171  145.0519  159.4879 H   0  0  0  0  0  0  0  0  0  0  0  0
  151.3042  145.1192  157.7272 H   0  0  0  0  0  0  0  0  0  0  0  0
  153.0648  143.3598  157.6338 H   0  0  0  0  0  0  0  0  0  0  0  0
  150.4308  142.8835  158.8106 H   0  0  0  0  0  0  0  0  0  0  0  0
  150.1432  139.5063  157.7305 H   0  0  0  0  0  0  0  0  0  0  0  0
  149.6236  140.5432  159.0235 H   0  0  0  0  0  0  0  0  0  0  0  0
  146.4528  142.5447  154.5643 H   0  0  0  0  0  0  0  0  0  0  0  0
  145.8666  142.4520  156.8890 H   0  0  0  0  0  0  0  0  0  0  0  0
  154.2438  143.6584  159.7433 H   0  0  0  0  0  0  0  0  0  0  0  0
  152.8052  140.9796  159.5755 H   0  0  0  0  0  0  0  0  0  0  0  0
  154.5157  141.3042  159.2667 H   0  0  0  0  0  0  0  0  0  0  0  0
  153.8257  140.4221  161.7071 H   0  0  0  0  0  0  0  0  0  0  0  0
  154.8955  141.8279  161.6079 H   0  0  0  0  0  0  0  0  0  0  0  0
  151.8903  141.8197  162.0497 H   0  0  0  0  0  0  0  0  0  0  0  0
  153.1065  142.7740  162.9028 H   0  0  0  0  0  0  0  0  0  0  0  0
  1  2  1  0  0  0  0
  1 20  1  0  0  0  0
  1 21  1  0  0  0  0
  1 22  1  0  0  0  0
  2  3  1  0  0  0  0
  2 15  1  0  0  0  0
  2 23  1  0  0  0  0
  3  4  1  0  0  0  0
  3 24  1  0  0  0  0
  4  5  2  0  0  0  0
  4  6  1  0  0  0  0
  6 25  1  0  0  0  0
  6 26  1  0  0  0  0
  6  7  1  0  0  0  0
  7  8  1  0  0  0  0
  7 13  1  0  0  0  0
  8  9  1  0  0  0  0
  9 10  2  0  0  0  0
  9 11  1  0  0  0  0
 11 27  1  0  0  0  0
 11 12  2  0  0  0  0
 12 28  1  0  0  0  0
 12 13  1  0  0  0  0
 13 14  2  0  0  0  0
 15 19  1  0  0  0  0
 15 16  1  0  0  0  0
 15 29  1  0  0  0  0
 16 17  1  0  0  0  0
 16 30  1  0  0  0  0
 16 31  1  0  0  0  0
 17 18  1  0  0  0  0
 17 32  1  0  0  0  0
 17 33  1  0  0  0  0
 18 19  1  0  0  0  0
 18 34  1  0  0  0  0
 18 35  1  0  0  0  0
M  CHG  1   8  -1
M  END
> <s_m_source_file>
AV-unprocessed.smi

> <i_m_source_file_index>
1208

> <i_lp_mmshare_version>
43012

> <i_f3d_flags>
0

> <s_epik_input>
TzFbQ0gyXVtDSDJdW0NIMl1bQ0BIXTFbQ0BIXShbQ0gzXSlbTkhdQyg9TylbQ0gyXW4yW25IXWMoPU8pW2NIXVtjSF1jMj1P

> <s_epik_cmdline>
J2VwaWtfcHl0aG9uJywgJy1waCcsICc3LjAnLCAnLXRuJywgJzgnLCAnLW1hJywgJzIwMCcsICctbWV0YWxfYmluZGluZycsICctaW1hZScsICc8aW5maWxlLm1hZT4nLCAnLW9tYWUnLCAnPG91dGZpbGUubWFlPic=

> <r_lp_tautomer_probability>
1

> <r_epik_Ionization_Penalty>
0.0975494

> <r_epik_Ionization_Penalty_Charging>
0.0975494

> <r_epik_Ionization_Penalty_Neutral>
2.30132e-08

> <r_epik_State_Penalty>
0.034345

> <r_epik_Charging_Adjusted_Penalty>
0.131894

> <i_epik_Tot_Q>
-1

> <i_epik_Tot_abs_Q>
1

> <r_epik_Metal_State_Penalty>
0.034345

> <b_epik_Metal_Only>
0

> <s_lp_Force_Field>
OPLS_2005

> <r_lp_Energy>
34.668

> <b_lp_Chiralities_Consistent>
1

> <s_lp_Variant>
AV-unprocessed.smi:1208-1

> <Gold.Version>
5.8.1

> <Gold.Id.Protein>
6NUR|6NUR_protein|mol2

> <Gold.PLP.Fitness>
41.7847

> <Gold.PLP.PLP>
-38.5591

> <Gold.PLP.part.hbond>
-3.8837

> <Gold.PLP.part.metal>
0.0000

> <Gold.PLP.part.buried>
-4.1210

> <Gold.PLP.part.nonpolar>
-32.5469

> <Gold.PLP.part.repulsive>
2.9412

> <Gold.PLP.ligand.clash>
0.0000

> <Gold.PLP.ligand.torsion>
0.4659

> <Gold.PLP.Chemscore.Hbond>
1.3821

> <Gold.PLP.Chemscore.CHOScore>
0.0000

> <Gold.PLP.Chemscore.Metal>
0.0000

> <Gold.Chemscore.Hbonds>
donor molecule, donor type, donor heavy atom, donor atom, acceptor molecule, acceptor atom, score
      P1  H  6934  6946       L1    14  0.25
      P1  H  7997  8009       L1     5  0.24
      P1  H  8011  8017       L1    10  0.61

> <Gold.PLP.Chemscore.Internal.Correction>
0.0112

> <Gold.Rescore>
     Score         DG    S(hbond)    S(metal)    S(lipo)     H(rot)  DE(clash)    DE(int)     intcor
     13.83     -16.01       1.77        0.00      83.25       1.99       1.63       0.56       ----

> <Gold.Chemscore.Fitness>
13.8297

> <Gold.Chemscore.DG>
-16.0119

> <Gold.Chemscore.ZeroCoef>
-5.4800

> <Gold.Chemscore.Hbond>
1.7653

> <Gold.Chemscore.Metal>
0.0000

> <Gold.Chemscore.Lipo>
83.2516

> <Gold.Chemscore.Internal_Hbond>
0.0000

> <Gold.Chemscore.DEClash>
1.6272

> <Gold.Chemscore.DEInternal>
0.5550

> <Gold.Chemscore.Rot>
1.9940

> <Gold.Chemscore.Internal.Correction>
   9.000000E+99

> <Gold.Chemscore.Hbonds>
donor molecule, donor type, donor heavy atom, donor atom, acceptor molecule, acceptor atom, score
      P1  H  6934  6946       L1    14  0.24
      P1  H  7997  8009       L1     5  0.25
      P1  H  8011  8017       L1    10  0.62

> <Gold.Chemscore.Hbond.Weighted>
-5.8962

> <Gold.Chemscore.Metal.Weighted>
-0.0000

> <Gold.Chemscore.Lipo.Weighted>
-9.7404

> <Gold.Chemscore.Internal_Hbond.Weighted>
0.0000

> <Gold.Chemscore.DEClash.Weighted>
1.6272

> <Gold.Chemscore.DEInternal.Weighted>
0.5550

> <Gold.Chemscore.Rot.Weighted>
5.1047

> <Gold.Chemscore.Internal.Correction.Weighted>
   9.000000E+99

> <Gold.Protein.RotatedTorsions>
[ 6907 6896 6895 6894 ] final  148.95 input  -60.11 | X-H torsion
[ 7974 7965 7964 7962 ] final  -64.81 input  175.53 | X-H torsion
[ 8008 7997 7996 7995 ] final  172.45 input   59.86 | X-H torsion
[ 10167 10162 10161 10158 ] final  -33.50 input  -65.29 | X-H torsion
[ 10718 10713 10712 10709 ] final -106.29 input   66.30 | X-H torsion
[ 10763 10752 10751 10750 ] final   53.24 input  -60.55 | X-H torsion
[ 11005 11000 10999 10996 ] final -172.30 input  -57.11 | X-H torsion

> <Gold.Protein.ActiveResidues>
 VAL166  LYS551  ARG553  GLY616  TRP617  ASP618  TYR619  PRO620  LYS621  CYS622 
 ASP623  PHE694  ASN695  SER759  ASP760  ASP761  ALA762  ILE779  LEU786  VAL792 
 PHE793  MET794  SER795  GLU796  ALA797  LYS798  CYS799  TRP800  GLU811  SER814 

> <Gold.Protein.RotatedAtoms>
  152.1346  133.4428  159.4737 H   0  0  0  0  0  0  0  0  0  0  0  0  # atno 6907 bound_to 6896
  150.6881  134.2379  159.4470 H   0  0  0  0  0  0  0  0  0  0  0  0  # atno 6908 bound_to 6896
  152.0265  134.9792  160.0622 H   0  0  0  0  0  0  0  0  0  0  0  0  # atno 6909 bound_to 6896
  145.7621  140.8856  143.0424 H   0  0  0  0  0  0  0  0  0  0  0  0  # atno 7974 bound_to 7965
  156.1173  140.1485  156.9255 H   0  0  0  0  0  0  0  0  0  0  0  0  # atno 8008 bound_to 7997
  154.4809  140.0879  156.7418 H   0  0  0  0  0  0  0  0  0  0  0  0  # atno 8009 bound_to 7997
  155.4491  140.3434  155.4301 H   0  0  0  0  0  0  0  0  0  0  0  0  # atno 8010 bound_to 7997
  140.7203  143.3616  151.1953 H   0  0  0  0  0  0  0  0  0  0  0  0  # atno 10167 bound_to 10162
  156.0384  130.5606  150.7661 H   0  0  0  0  0  0  0  0  0  0  0  0  # atno 10718 bound_to 10713
  152.9794  135.5785  154.4709 H   0  0  0  0  0  0  0  0  0  0  0  0  # atno 10763 bound_to 10752
  154.4272  135.2773  155.1939 H   0  0  0  0  0  0  0  0  0  0  0  0  # atno 10764 bound_to 10752
  154.3662  135.6178  153.5770 H   0  0  0  0  0  0  0  0  0  0  0  0  # atno 10765 bound_to 10752
  140.4985  134.5916  157.4979 H   0  0  0  0  0  0  0  0  0  0  0  0  # atno 11005 bound_to 11000
  144.6828  139.9737  143.7482 LP  0  0  0  0  0  0  0  0  0  0  0  0  # atno 17320 bound_to 7965
  146.0254  139.3288  143.0787 LP  0  0  0  0  0  0  0  0  0  0  0  0  # atno 17321 bound_to 7965
  139.7168  143.9287  152.2970 LP  0  0  0  0  0  0  0  0  0  0  0  0  # atno 17342 bound_to 10162
  139.9030  144.6900  150.8644 LP  0  0  0  0  0  0  0  0  0  0  0  0  # atno 17343 bound_to 10162
  157.5167  131.0929  151.0130 LP  0  0  0  0  0  0  0  0  0  0  0  0  # atno 17370 bound_to 10713
  157.0471  130.5772  149.5365 LP  0  0  0  0  0  0  0  0  0  0  0  0  # atno 17371 bound_to 10713
  139.9727  134.7266  156.0010 LP  0  0  0  0  0  0  0  0  0  0  0  0  # atno 17394 bound_to 11000
  141.1447  133.6558  156.3834 LP  0  0  0  0  0  0  0  0  0  0  0  0  # atno 17395 bound_to 11000

$$$$
