AV-unprocessed.smi:2188|AV-procd|sdf|8883|dock5
  -GOLD-   2272012 83D 1   1.00000     0.00000
 Structure written by MMmdl.
 39 41  0  0  0  0  0  0  0  0  3 V2000
  155.0064  139.7114  159.0790 O   0  0  0  0  0  0  0  0  0  0  0  0
  154.6573  140.3839  160.0584 C   0  0  0  0  0  0  0  0  0  0  0  0
  155.1932  140.2753  161.3140 N   0  5  0  0  0  0  0  0  0  0  0  0
  155.5117  139.0234  161.9988 C   0  0  0  0  0  0  0  0  0  0  0  0
  154.2498  138.1411  162.0712 C   0  0  0  0  0  0  0  0  0  0  0  0
  154.4665  136.8247  162.8045 C   0  0  0  0  0  0  0  0  0  0  0  0
  155.0113  135.7052  162.1330 C   0  0  0  0  0  0  0  0  0  0  0  0
  155.1935  134.4958  162.8352 C   0  0  0  0  0  0  0  0  0  0  0  0
  154.8226  134.4285  164.1934 C   0  0  0  0  0  0  0  0  0  0  0  0
  154.2989  135.5150  164.8022 N   0  3  0  0  0  0  0  0  0  0  0  0
  154.1087  136.6913  164.1654 C   0  0  0  0  0  0  0  0  0  0  0  0
  153.5647  141.3661  159.9004 C   0  0  0  0  0  0  0  0  0  0  0  0
  153.4446  142.3582  160.8226 C   0  0  0  0  0  0  0  0  0  0  0  0
  152.4164  143.3644  160.7317 C   0  0  0  0  0  0  0  0  0  0  0  0
  151.5454  143.2823  159.7209 C   0  0  0  0  0  0  0  0  0  0  0  0
  151.5862  142.2757  158.7579 N   0  0  0  0  0  0  0  0  0  0  0  0
  150.5079  142.2590  157.7755 C   0  0  0  0  0  0  0  0  0  0  0  0
  151.0532  141.9347  156.3969 C   0  0  0  0  0  0  0  0  0  0  0  0
  151.7283  140.2400  156.5160 S   0  0  0  0  0  0  0  0  0  0  0  0
  150.6314  139.3385  156.9020 O   0  0  0  0  0  0  0  0  0  0  0  0
  152.4897  139.9647  155.2882 O   0  0  0  0  0  0  0  0  0  0  0  0
  152.7761  140.4213  157.8100 N   0  0  0  0  0  0  0  0  0  0  0  0
  152.6241  141.3007  158.7601 C   0  0  0  0  0  0  0  0  0  0  0  0
  156.2973  138.4605  161.4927 H   0  0  0  0  0  0  0  0  0  0  0  0
  155.8782  139.2044  163.0097 H   0  0  0  0  0  0  0  0  0  0  0  0
  153.4437  138.6868  162.5642 H   0  0  0  0  0  0  0  0  0  0  0  0
  153.8935  137.9200  161.0637 H   0  0  0  0  0  0  0  0  0  0  0  0
  155.2912  135.7749  161.0917 H   0  0  0  0  0  0  0  0  0  0  0  0
  155.6128  133.6335  162.3377 H   0  0  0  0  0  0  0  0  0  0  0  0
  154.9273  133.5452  164.8061 H   0  0  0  0  0  0  0  0  0  0  0  0
  153.6829  137.4871  164.7593 H   0  0  0  0  0  0  0  0  0  0  0  0
  154.1162  142.4191  161.6671 H   0  0  0  0  0  0  0  0  0  0  0  0
  152.3526  144.1604  161.4586 H   0  0  0  0  0  0  0  0  0  0  0  0
  150.7522  144.0057  159.6003 H   0  0  0  0  0  0  0  0  0  0  0  0
  149.7554  141.5305  158.0789 H   0  0  0  0  0  0  0  0  0  0  0  0
  150.0067  143.2265  157.7356 H   0  0  0  0  0  0  0  0  0  0  0  0
  150.2721  141.9485  155.6373 H   0  0  0  0  0  0  0  0  0  0  0  0
  151.8455  142.6209  156.0957 H   0  0  0  0  0  0  0  0  0  0  0  0
  154.0361  135.4449  165.7855 H   0  0  0  0  0  0  0  0  0  0  0  0
  1  2  2  0  0  0  0
  2  3  1  0  0  0  0
  2 12  1  0  0  0  0
  3  4  1  0  0  0  0
  4  5  1  0  0  0  0
  4 24  1  0  0  0  0
  4 25  1  0  0  0  0
  5  6  1  0  0  0  0
  5 26  1  0  0  0  0
  5 27  1  0  0  0  0
  6 11  1  0  0  0  0
  6  7  2  0  0  0  0
  7  8  1  0  0  0  0
  7 28  1  0  0  0  0
  8  9  2  0  0  0  0
  8 29  1  0  0  0  0
  9 10  1  0  0  0  0
  9 30  1  0  0  0  0
 10 11  2  0  0  0  0
 10 39  1  0  0  0  0
 11 31  1  0  0  0  0
 12 23  1  0  0  0  0
 12 13  2  0  0  0  0
 13 14  1  0  0  0  0
 13 32  1  0  0  0  0
 14 15  2  0  0  0  0
 14 33  1  0  0  0  0
 15 16  1  0  0  0  0
 15 34  1  0  0  0  0
 16 23  1  0  0  0  0
 16 17  1  0  0  0  0
 17 18  1  0  0  0  0
 17 35  1  0  0  0  0
 17 36  1  0  0  0  0
 18 19  1  0  0  0  0
 18 37  1  0  0  0  0
 18 38  1  0  0  0  0
 19 20  2  0  0  0  0
 19 21  2  0  0  0  0
 19 22  1  0  0  0  0
 22 23  2  0  0  0  0
M  CHG  1   3  -1
M  CHG  1  10   1
M  END
> <s_m_source_file>
AV-unprocessed.smi

> <i_m_source_file_index>
2188

> <i_lp_mmshare_version>
43012

> <i_f3d_flags>
0

> <s_epik_input>
W0NIMl0xW0NIMl1TKD1PKSg9TylOPUMoTjEyKUMoPVtDSF1bQ0hdPVtDSF0yKUMoPU8pW05IXVtDSDJdW0NIMl1jM1tjSF1bY0hdW2NIXW5bY0hdMw==

> <s_epik_cmdline>
J2VwaWtfcHl0aG9uJywgJy1waCcsICc3LjAnLCAnLXRuJywgJzgnLCAnLW1hJywgJzIwMCcsICctbWV0YWxfYmluZGluZycsICctaW1hZScsICc8aW5maWxlLm1hZT4nLCAnLW9tYWUnLCAnPG91dGZpbGUubWFlPic=

> <r_epik_Ionization_Penalty>
7.27179

> <r_epik_Ionization_Penalty_Charging>
7.27179

> <r_epik_Ionization_Penalty_Neutral>
0

> <r_epik_State_Penalty>
7.89047

> <r_epik_Charging_Adjusted_Penalty>
15.1623

> <i_epik_Tot_Q>
0

> <i_epik_Tot_abs_Q>
2

> <r_epik_Metal_State_Penalty>
3.9241

> <b_epik_Metal_Only>
1

> <s_lp_Force_Field>
OPLS_2005

> <r_lp_Energy>
37.465

> <b_lp_Chiralities_Consistent>
1

> <s_lp_Variant>
AV-unprocessed.smi:2188-4

> <Gold.Version>
5.8.1

> <Gold.Id.Protein>
6NUR|6NUR_protein|mol2

> <Gold.PLP.Fitness>
54.6008

> <Gold.PLP.PLP>
-48.9973

> <Gold.PLP.part.hbond>
-5.0000

> <Gold.PLP.part.metal>
0.0000

> <Gold.PLP.part.buried>
-4.9185

> <Gold.PLP.part.nonpolar>
-37.9341

> <Gold.PLP.part.repulsive>
0.1150

> <Gold.PLP.ligand.clash>
0.0000

> <Gold.PLP.ligand.torsion>
0.8542

> <Gold.PLP.Chemscore.Hbond>
2.3346

> <Gold.PLP.Chemscore.CHOScore>
0.0000

> <Gold.PLP.Chemscore.Metal>
0.0000

> <Gold.Chemscore.Hbonds>
donor molecule, donor type, donor heavy atom, donor atom, acceptor molecule, acceptor atom, score
      P1  H  7989  7998       L1    21  0.41
      P1  H  7997  8008       L1    21  0.96
      P1  H  7997  8010       L1     1  1.00

> <Gold.PLP.Chemscore.Internal.Correction>
0.3079

> <Gold.Rescore>
     Score         DG    S(hbond)    S(metal)    S(lipo)     H(rot)  DE(clash)    DE(int)     intcor
     17.24     -19.51       1.68        0.00     104.97       1.51       0.06       2.21       ----

> <Gold.Chemscore.Fitness>
17.2376

> <Gold.Chemscore.DG>
-19.5068

> <Gold.Chemscore.ZeroCoef>
-5.4800

> <Gold.Chemscore.Hbond>
1.6805

> <Gold.Chemscore.Metal>
0.0000

> <Gold.Chemscore.Lipo>
104.9735

> <Gold.Chemscore.Internal_Hbond>
0.0000

> <Gold.Chemscore.DEClash>
0.0579

> <Gold.Chemscore.DEInternal>
2.2113

> <Gold.Chemscore.Rot>
1.5109

> <Gold.Chemscore.Internal.Correction>
   9.000000E+99

> <Gold.Chemscore.Hbonds>
donor molecule, donor type, donor heavy atom, donor atom, acceptor molecule, acceptor atom, score
      P1  H  7989  7998       L1    21  0.39
      P1  H  7997  8008       L1    21  0.27
      P1  H  7997  8010       L1     1  0.96

> <Gold.Chemscore.Hbond.Weighted>
-5.6129

> <Gold.Chemscore.Metal.Weighted>
-0.0000

> <Gold.Chemscore.Lipo.Weighted>
-12.2819

> <Gold.Chemscore.Internal_Hbond.Weighted>
0.0000

> <Gold.Chemscore.DEClash.Weighted>
0.0579

> <Gold.Chemscore.DEInternal.Weighted>
2.2113

> <Gold.Chemscore.Rot.Weighted>
3.8680

> <Gold.Chemscore.Internal.Correction.Weighted>
   9.000000E+99

> <Gold.Protein.RotatedTorsions>
[ 6907 6896 6895 6894 ] final  109.51 input  -60.11 | X-H torsion
[ 7974 7965 7964 7962 ] final -109.96 input  175.53 | X-H torsion
[ 8008 7997 7996 7995 ] final  -20.90 input   59.86 | X-H torsion
[ 10167 10162 10161 10158 ] final  108.10 input  -65.29 | X-H torsion
[ 10718 10713 10712 10709 ] final -110.67 input   66.30 | X-H torsion
[ 10763 10752 10751 10750 ] final  129.97 input  -60.55 | X-H torsion
[ 11005 11000 10999 10996 ] final  -98.25 input  -57.11 | X-H torsion

> <Gold.Protein.ActiveResidues>
 VAL166  LYS551  ARG553  GLY616  TRP617  ASP618  TYR619  PRO620  LYS621  CYS622 
 ASP623  PHE694  ASN695  SER759  ASP760  ASP761  ALA762  ILE779  LEU786  VAL792 
 PHE793  MET794  SER795  GLU796  ALA797  LYS798  CYS799  TRP800  GLU811  SER814 

> <Gold.Protein.RotatedAtoms>
  152.5064  133.8934  159.7404 H   0  0  0  0  0  0  0  0  0  0  0  0  # atno 6907 bound_to 6896
  150.9367  133.6695  159.2806 H   0  0  0  0  0  0  0  0  0  0  0  0  # atno 6908 bound_to 6896
  151.4021  135.0977  159.9611 H   0  0  0  0  0  0  0  0  0  0  0  0  # atno 6909 bound_to 6896
  145.1741  140.8940  143.3518 H   0  0  0  0  0  0  0  0  0  0  0  0  # atno 7974 bound_to 7965
  154.4740  140.2049  155.9924 H   0  0  0  0  0  0  0  0  0  0  0  0  # atno 8008 bound_to 7997
  156.1058  140.3237  155.7975 H   0  0  0  0  0  0  0  0  0  0  0  0  # atno 8009 bound_to 7997
  155.4719  140.0532  157.2969 H   0  0  0  0  0  0  0  0  0  0  0  0  # atno 8010 bound_to 7997
  139.6873  144.7112  151.1410 H   0  0  0  0  0  0  0  0  0  0  0  0  # atno 10167 bound_to 10162
  156.0604  130.5827  150.8269 H   0  0  0  0  0  0  0  0  0  0  0  0  # atno 10718 bound_to 10713
  153.7504  135.3211  155.3320 H   0  0  0  0  0  0  0  0  0  0  0  0  # atno 10763 bound_to 10752
  154.8265  135.4566  154.0937 H   0  0  0  0  0  0  0  0  0  0  0  0  # atno 10764 bound_to 10752
  153.2138  135.6939  153.8164 H   0  0  0  0  0  0  0  0  0  0  0  0  # atno 10765 bound_to 10752
  141.1351  133.8231  157.0814 H   0  0  0  0  0  0  0  0  0  0  0  0  # atno 11005 bound_to 11000
  145.0203  139.3430  143.6076 LP  0  0  0  0  0  0  0  0  0  0  0  0  # atno 17320 bound_to 7965
  146.3464  139.9501  142.8730 LP  0  0  0  0  0  0  0  0  0  0  0  0  # atno 17321 bound_to 7965
  140.7672  143.5611  150.9098 LP  0  0  0  0  0  0  0  0  0  0  0  0  # atno 17342 bound_to 10162
  139.9286  143.6520  152.3081 LP  0  0  0  0  0  0  0  0  0  0  0  0  # atno 17343 bound_to 10162
  157.5607  131.0946  150.9563 LP  0  0  0  0  0  0  0  0  0  0  0  0  # atno 17370 bound_to 10713
  156.9801  130.5523  149.5296 LP  0  0  0  0  0  0  0  0  0  0  0  0  # atno 17371 bound_to 10713
  140.0449  134.9835  157.1030 LP  0  0  0  0  0  0  0  0  0  0  0  0  # atno 17394 bound_to 11000
  140.4078  134.2013  155.7163 LP  0  0  0  0  0  0  0  0  0  0  0  0  # atno 17395 bound_to 11000

$$$$
