AV-unprocessed.smi:530|AV-procd|sdf|2845|dock2
  -GOLD-   2262023333D 1   1.00000     0.00000
 Structure written by MMmdl.
 36 38  0  0  0  0  0  0  0  0  2 V2000
  151.8504  137.8469  154.3922 C   0  0  0  0  0  0  0  0  0  0  0  0
  150.6679  138.7538  154.3237 C   0  0  0  0  0  0  0  0  0  0  0  0
  149.5257  138.5313  153.6148 N   0  3  0  0  0  0  0  0  0  0  0  0
  148.6425  139.5967  153.7961 C   0  0  0  0  0  0  0  0  0  0  0  0
  147.3680  139.8201  153.2841 C   0  0  0  0  0  0  0  0  0  0  0  0
  146.7326  141.0190  153.6687 C   0  0  0  0  0  0  0  0  0  0  0  0
  147.3644  141.9416  154.5275 C   0  0  0  0  0  0  0  0  0  0  0  0
  148.6571  141.7048  155.0392 C   0  0  0  0  0  0  0  0  0  0  0  0
  149.2778  140.5154  154.6571 C   0  0  0  0  0  0  0  0  0  0  0  0
  150.5249  139.9530  154.9563 N   0  0  0  0  0  0  0  0  0  0  0  0
  151.4546  140.6663  155.8468 C   0  0  0  0  0  0  0  0  0  0  0  0
  150.9480  140.7565  157.3003 C   0  0  1  0  0  0  0  0  0  0  0  0
  151.2372  139.5581  157.9943 O   0  0  0  0  0  0  0  0  0  0  0  0
  151.5145  141.9799  158.0037 C   0  0  0  0  0  0  0  0  0  0  0  0
  151.3419  143.2700  157.4546 C   0  0  0  0  0  0  0  0  0  0  0  0
  151.8606  144.3992  158.1177 C   0  0  0  0  0  0  0  0  0  0  0  0
  152.5524  144.2459  159.3344 C   0  0  0  0  0  0  0  0  0  0  0  0
  152.7241  142.9629  159.8885 C   0  0  0  0  0  0  0  0  0  0  0  0
  152.2060  141.8332  159.2255 C   0  0  0  0  0  0  0  0  0  0  0  0
  151.6927  136.9633  153.7732 H   0  0  0  0  0  0  0  0  0  0  0  0
  152.0176  137.5247  155.4202 H   0  0  0  0  0  0  0  0  0  0  0  0
  152.7427  138.3637  154.0389 H   0  0  0  0  0  0  0  0  0  0  0  0
  146.8828  139.1157  152.6247 H   0  0  0  0  0  0  0  0  0  0  0  0
  145.7417  141.2357  153.2965 H   0  0  0  0  0  0  0  0  0  0  0  0
  146.8476  142.8509  154.7991 H   0  0  0  0  0  0  0  0  0  0  0  0
  149.1332  142.4225  155.6909 H   0  0  0  0  0  0  0  0  0  0  0  0
  152.4360  140.1943  155.7972 H   0  0  0  0  0  0  0  0  0  0  0  0
  151.5833  141.6694  155.4386 H   0  0  0  0  0  0  0  0  0  0  0  0
  149.8612  140.8475  157.2851 H   0  0  0  0  0  0  0  0  0  0  0  0
  150.4349  139.2314  158.3725 H   0  0  0  0  0  0  0  0  0  0  0  0
  150.8087  143.3991  156.5239 H   0  0  0  0  0  0  0  0  0  0  0  0
  151.7262  145.3834  157.6939 H   0  0  0  0  0  0  0  0  0  0  0  0
  152.9493  145.1120  159.8434 H   0  0  0  0  0  0  0  0  0  0  0  0
  153.2523  142.8451  160.8233 H   0  0  0  0  0  0  0  0  0  0  0  0
  152.3406  140.8539  159.6611 H   0  0  0  0  0  0  0  0  0  0  0  0
  149.3642  137.7084  153.0483 H   0  0  0  0  0  0  0  0  0  0  0  0
  1  2  1  0  0  0  0
  1 20  1  0  0  0  0
  1 21  1  0  0  0  0
  1 22  1  0  0  0  0
  2 10  1  0  0  0  0
  2  3  2  0  0  0  0
  3  4  1  0  0  0  0
  3 36  1  0  0  0  0
  4  9  2  0  0  0  0
  4  5  1  0  0  0  0
  5  6  2  0  0  0  0
  5 23  1  0  0  0  0
  6  7  1  0  0  0  0
  6 24  1  0  0  0  0
  7  8  2  0  0  0  0
  7 25  1  0  0  0  0
  8  9  1  0  0  0  0
  8 26  1  0  0  0  0
  9 10  1  0  0  0  0
 10 11  1  0  0  0  0
 11 12  1  0  0  0  0
 11 27  1  0  0  0  0
 11 28  1  0  0  0  0
 12 13  1  0  0  0  0
 12 14  1  0  0  0  0
 12 29  1  0  0  0  0
 13 30  1  0  0  0  0
 14 19  1  0  0  0  0
 14 15  2  0  0  0  0
 15 16  1  0  0  0  0
 15 31  1  0  0  0  0
 16 17  2  0  0  0  0
 16 32  1  0  0  0  0
 17 18  1  0  0  0  0
 17 33  1  0  0  0  0
 18 19  2  0  0  0  0
 18 34  1  0  0  0  0
 19 35  1  0  0  0  0
M  CHG  1   3   1
M  END
> <s_m_source_file>
AV-unprocessed.smi

> <i_m_source_file_index>
530

> <i_lp_mmshare_version>
43012

> <i_f3d_flags>
0

> <s_epik_input>
W2NIXTFbY0hdW2NIXVtjSF1jKGMxMiluKGMobjIpW0NIM10pW0NIMl1bQ0BIXShbT0hdKWMzW2NIXVtjSF1bY0hdW2NIXVtjSF0z

> <s_epik_cmdline>
J2VwaWtfcHl0aG9uJywgJy1waCcsICc3LjAnLCAnLXRuJywgJzgnLCAnLW1hJywgJzIwMCcsICctbWV0YWxfYmluZGluZycsICctaW1hZScsICc8aW5maWxlLm1hZT4nLCAnLW9tYWUnLCAnPG91dGZpbGUubWFlPic=

> <r_epik_Ionization_Penalty>
0.963869

> <r_epik_Ionization_Penalty_Charging>
0.963868

> <r_epik_Ionization_Penalty_Neutral>
1.34362e-06

> <r_epik_State_Penalty>
1.00924

> <r_epik_Charging_Adjusted_Penalty>
1.9731

> <i_epik_Tot_Q>
1

> <i_epik_Tot_abs_Q>
1

> <r_epik_Metal_State_Penalty>
4.98304

> <b_epik_Metal_Only>
0

> <s_lp_Force_Field>
OPLS_2005

> <r_lp_Energy>
15.219

> <b_lp_Chiralities_Consistent>
1

> <s_lp_Variant>
AV-unprocessed.smi:530-4

> <Gold.Version>
5.8.1

> <Gold.Id.Protein>
6NUR|6NUR_protein|mol2

> <Gold.PLP.Fitness>
53.0243

> <Gold.PLP.PLP>
-47.6961

> <Gold.PLP.part.hbond>
-2.0000

> <Gold.PLP.part.metal>
0.0000

> <Gold.PLP.part.buried>
1.7240

> <Gold.PLP.part.nonpolar>
-47.6601

> <Gold.PLP.part.repulsive>
0.0681

> <Gold.PLP.ligand.clash>
0.0000

> <Gold.PLP.ligand.torsion>
0.3500

> <Gold.PLP.Chemscore.Hbond>
2.0000

> <Gold.PLP.Chemscore.CHOScore>
0.0000

> <Gold.PLP.Chemscore.Metal>
0.0000

> <Gold.Chemscore.Hbonds>
donor molecule, donor type, donor heavy atom, donor atom, acceptor molecule, acceptor atom, score
      L1  H     3    36       P1  7948  2.00

> <Gold.PLP.Chemscore.Internal.Correction>
0.0282

> <Gold.Rescore>
     Score         DG    S(hbond)    S(metal)    S(lipo)     H(rot)  DE(clash)    DE(int)     intcor
     18.85     -19.26       0.99        0.00     127.96       1.76       0.18       0.23       ----

> <Gold.Chemscore.Fitness>
18.8520

> <Gold.Chemscore.DG>
-19.2636

> <Gold.Chemscore.ZeroCoef>
-5.4800

> <Gold.Chemscore.Hbond>
0.9899

> <Gold.Chemscore.Metal>
0.0000

> <Gold.Chemscore.Lipo>
127.9631

> <Gold.Chemscore.Internal_Hbond>
0.0000

> <Gold.Chemscore.DEClash>
0.1781

> <Gold.Chemscore.DEInternal>
0.2336

> <Gold.Chemscore.Rot>
1.7555

> <Gold.Chemscore.Internal.Correction>
   9.000000E+99

> <Gold.Chemscore.Hbonds>
donor molecule, donor type, donor heavy atom, donor atom, acceptor molecule, acceptor atom, score
      L1  H     3    36       P1  7948  0.94

> <Gold.Chemscore.Hbond.Weighted>
-3.3062

> <Gold.Chemscore.Metal.Weighted>
-0.0000

> <Gold.Chemscore.Lipo.Weighted>
-14.9717

> <Gold.Chemscore.Internal_Hbond.Weighted>
0.0000

> <Gold.Chemscore.DEClash.Weighted>
0.1781

> <Gold.Chemscore.DEInternal.Weighted>
0.2336

> <Gold.Chemscore.Rot.Weighted>
4.4942

> <Gold.Chemscore.Internal.Correction.Weighted>
   9.000000E+99

> <Gold.Protein.RotatedTorsions>
[ 6907 6896 6895 6894 ] final   90.15 input  -60.11 | X-H torsion
[ 7974 7965 7964 7962 ] final   -0.32 input  175.53 | X-H torsion
[ 8008 7997 7996 7995 ] final   80.44 input   59.86 | X-H torsion
[ 10167 10162 10161 10158 ] final  131.33 input  -65.29 | X-H torsion
[ 10718 10713 10712 10709 ] final  -82.35 input   66.30 | X-H torsion
[ 10763 10752 10751 10750 ] final -117.59 input  -60.55 | X-H torsion
[ 11005 11000 10999 10996 ] final -128.53 input  -57.11 | X-H torsion

> <Gold.Protein.ActiveResidues>
 VAL166  LYS551  ARG553  GLY616  TRP617  ASP618  TYR619  PRO620  LYS621  CYS622 
 ASP623  PHE694  ASN695  SER759  ASP760  ASP761  ALA762  ILE779  LEU786  VAL792 
 PHE793  MET794  SER795  GLU796  ALA797  LYS798  CYS799  TRP800  GLU811  SER814 

> <Gold.Protein.RotatedAtoms>
  152.5442  134.1856  159.8652 H   0  0  0  0  0  0  0  0  0  0  0  0  # atno 6907 bound_to 6896
  151.1855  133.4692  159.2602 H   0  0  0  0  0  0  0  0  0  0  0  0  # atno 6908 bound_to 6896
  151.1135  135.0052  159.8560 H   0  0  0  0  0  0  0  0  0  0  0  0  # atno 6909 bound_to 6896
  146.2428  140.1252  142.8339 H   0  0  0  0  0  0  0  0  0  0  0  0  # atno 7974 bound_to 7965
  155.8835  140.3443  155.5905 H   0  0  0  0  0  0  0  0  0  0  0  0  # atno 8008 bound_to 7997
  155.7692  140.0843  157.2135 H   0  0  0  0  0  0  0  0  0  0  0  0  # atno 8009 bound_to 7997
  154.4026  140.1521  156.2910 H   0  0  0  0  0  0  0  0  0  0  0  0  # atno 8010 bound_to 7997
  139.5389  144.6711  151.4691 H   0  0  0  0  0  0  0  0  0  0  0  0  # atno 10167 bound_to 10162
  156.0034  130.4631  150.4091 H   0  0  0  0  0  0  0  0  0  0  0  0  # atno 10718 bound_to 10713
  154.8560  135.4304  154.2003 H   0  0  0  0  0  0  0  0  0  0  0  0  # atno 10763 bound_to 10752
  153.3051  135.6972  153.7173 H   0  0  0  0  0  0  0  0  0  0  0  0  # atno 10764 bound_to 10752
  153.6287  135.3489  155.3009 H   0  0  0  0  0  0  0  0  0  0  0  0  # atno 10765 bound_to 10752
  140.9508  134.1068  157.4063 H   0  0  0  0  0  0  0  0  0  0  0  0  # atno 11005 bound_to 11000
  145.0372  140.8917  143.5074 LP  0  0  0  0  0  0  0  0  0  0  0  0  # atno 17320 bound_to 7965
  145.1327  139.2622  143.5531 LP  0  0  0  0  0  0  0  0  0  0  0  0  # atno 17321 bound_to 7965
  140.6609  143.8499  150.6887 LP  0  0  0  0  0  0  0  0  0  0  0  0  # atno 17342 bound_to 10162
  140.1894  143.4049  152.1874 LP  0  0  0  0  0  0  0  0  0  0  0  0  # atno 17343 bound_to 10162
  157.2155  131.0470  151.2576 LP  0  0  0  0  0  0  0  0  0  0  0  0  # atno 17370 bound_to 10713
  157.3849  130.7251  149.6656 LP  0  0  0  0  0  0  0  0  0  0  0  0  # atno 17371 bound_to 10713
  139.8847  135.0065  156.6386 LP  0  0  0  0  0  0  0  0  0  0  0  0  # atno 17394 bound_to 11000
  140.7605  133.8821  155.8414 LP  0  0  0  0  0  0  0  0  0  0  0  0  # atno 17395 bound_to 11000

$$$$
