AV-unprocessed.smi:101|AV-procd|sdf|927|dock1
  -GOLD-   2262017433D 1   1.00000     0.00000
 Structure written by MMmdl.
 44 46  0  0  0  0  0  0  0  0  1 V2000
  144.9294  136.7786  155.6269 C   0  0  0  0  0  0  0  0  0  0  0  0
  145.4709  137.3376  154.3218 C   0  0  0  0  0  0  0  0  0  0  0  0
  146.3657  138.3576  154.2830 C   0  0  0  0  0  0  0  0  0  0  0  0
  146.8739  138.8930  153.1080 N   0  0  0  0  0  0  0  0  0  0  0  0
  147.8691  140.0328  153.1444 C   0  0  2  0  0  0  0  0  0  0  0  0
  148.9770  139.6232  153.8856 O   0  0  0  0  0  0  0  0  0  0  0  0
  149.4489  140.7173  154.6608 C   0  0  2  0  0  0  0  0  0  0  0  0
  150.3238  140.2308  155.8246 C   0  0  0  0  0  0  0  0  0  0  0  0
  150.6516  141.3370  156.6488 O   0  0  0  0  0  0  0  0  0  0  0  0
  151.6573  141.2401  157.5392 C   0  0  0  0  0  0  0  0  0  0  0  0
  152.4206  140.2741  157.6030 O   0  0  0  0  0  0  0  0  0  0  0  0
  151.7500  142.4242  158.4414 C   0  0  0  0  0  0  0  0  0  0  0  0
  151.3184  143.6872  157.9734 C   0  0  0  0  0  0  0  0  0  0  0  0
  151.3932  144.8233  158.8024 C   0  0  0  0  0  0  0  0  0  0  0  0
  151.9001  144.7102  160.1101 C   0  0  0  0  0  0  0  0  0  0  0  0
  152.3314  143.4591  160.5882 C   0  0  0  0  0  0  0  0  0  0  0  0
  152.2577  142.3219  159.7605 C   0  0  0  0  0  0  0  0  0  0  0  0
  148.1666  141.4626  155.0545 C   0  0  2  0  0  0  0  0  0  0  0  0
  147.5707  140.8800  156.2021 O   0  0  0  0  0  0  0  0  0  0  0  0
  147.3079  141.3149  153.7995 C   0  0  2  0  0  0  0  0  0  0  0  0
  145.9141  141.3167  154.0621 O   0  0  0  0  0  0  0  0  0  0  0  0
  146.4452  138.3735  151.8687 C   0  0  0  0  0  0  0  0  0  0  0  0
  146.8333  138.8097  150.7856 O   0  0  0  0  0  0  0  0  0  0  0  0
  145.5308  137.3222  151.9080 N   0  0  0  0  0  0  0  0  0  0  0  0
  144.9994  136.7482  153.0657 C   0  0  0  0  0  0  0  0  0  0  0  0
  144.1980  135.8201  152.9705 O   0  0  0  0  0  0  0  0  0  0  0  0
  145.2218  136.9462  151.0236 H   0  0  0  0  0  0  0  0  0  0  0  0
  145.3426  137.2987  156.4917 H   0  0  0  0  0  0  0  0  0  0  0  0
  145.1786  135.7212  155.7216 H   0  0  0  0  0  0  0  0  0  0  0  0
  143.8441  136.8803  155.6635 H   0  0  0  0  0  0  0  0  0  0  0  0
  146.6969  138.7782  155.2208 H   0  0  0  0  0  0  0  0  0  0  0  0
  148.2073  140.2043  152.1214 H   0  0  0  0  0  0  0  0  0  0  0  0
  150.0356  141.3660  154.0072 H   0  0  0  0  0  0  0  0  0  0  0  0
  149.7772  139.4966  156.4180 H   0  0  0  0  0  0  0  0  0  0  0  0
  151.2295  139.7498  155.4518 H   0  0  0  0  0  0  0  0  0  0  0  0
  150.9250  143.7991  156.9732 H   0  0  0  0  0  0  0  0  0  0  0  0
  151.0610  145.7825  158.4337 H   0  0  0  0  0  0  0  0  0  0  0  0
  151.9577  145.5817  160.7455 H   0  0  0  0  0  0  0  0  0  0  0  0
  152.7197  143.3707  161.5922 H   0  0  0  0  0  0  0  0  0  0  0  0
  152.5963  141.3768  160.1593 H   0  0  0  0  0  0  0  0  0  0  0  0
  148.3673  142.5108  155.2792 H   0  0  0  0  0  0  0  0  0  0  0  0
  147.4322  141.5558  156.8480 H   0  0  0  0  0  0  0  0  0  0  0  0
  147.5269  142.1414  153.1221 H   0  0  0  0  0  0  0  0  0  0  0  0
  145.4625  141.0151  153.2892 H   0  0  0  0  0  0  0  0  0  0  0  0
  1  2  1  0  0  0  0
  1 28  1  0  0  0  0
  1 29  1  0  0  0  0
  1 30  1  0  0  0  0
  2 25  1  0  0  0  0
  2  3  2  0  0  0  0
  3  4  1  0  0  0  0
  3 31  1  0  0  0  0
  4  5  1  0  0  0  0
  4 22  1  0  0  0  0
  5 20  1  0  0  0  0
  5  6  1  0  0  0  0
  5 32  1  0  0  0  0
  6  7  1  0  0  0  0
  7  8  1  0  0  0  0
  7 18  1  0  0  0  0
  7 33  1  0  0  0  0
  8  9  1  0  0  0  0
  8 34  1  0  0  0  0
  8 35  1  0  0  0  0
  9 10  1  0  0  0  0
 10 11  2  0  0  0  0
 10 12  1  0  0  0  0
 12 17  1  0  0  0  0
 12 13  2  0  0  0  0
 13 14  1  0  0  0  0
 13 36  1  0  0  0  0
 14 15  2  0  0  0  0
 14 37  1  0  0  0  0
 15 16  1  0  0  0  0
 15 38  1  0  0  0  0
 16 17  2  0  0  0  0
 16 39  1  0  0  0  0
 17 40  1  0  0  0  0
 18 19  1  0  0  0  0
 18 20  1  0  0  0  0
 18 41  1  0  0  0  0
 19 42  1  0  0  0  0
 20 21  1  0  0  0  0
 20 43  1  0  0  0  0
 21 44  1  0  0  0  0
 22 23  2  0  0  0  0
 22 24  1  0  0  0  0
 24 27  1  0  0  0  0
 24 25  1  0  0  0  0
 25 26  2  0  0  0  0
M  END
> <s_m_source_file>
AV-unprocessed.smi

> <i_m_source_file_index>
101

> <i_lp_mmshare_version>
43012

> <i_f3d_flags>
0

> <s_epik_input>
Tz1jMVtuSF1jKD1PKW4oW2NIXWMxW0NIM10pW0NAQEhdMk9bQ0BIXShbQ0BASF0oW09IXSlbQ0BIXTJbT0hdKVtDSDJdT0MoPU8pYzNbY0hdW2NIXVtjSF1bY0hdW2NIXTM=

> <s_epik_cmdline>
J2VwaWtfcHl0aG9uJywgJy1waCcsICc3LjAnLCAnLXRuJywgJzgnLCAnLW1hJywgJzIwMCcsICctbWV0YWxfYmluZGluZycsICctaW1hZScsICc8aW5maWxlLm1hZT4nLCAnLW9tYWUnLCAnPG91dGZpbGUubWFlPic=

> <r_lp_tautomer_probability>
0.999537

> <r_epik_Ionization_Penalty>
0.00263537

> <r_epik_Ionization_Penalty_Charging>
0.00263428

> <r_epik_Ionization_Penalty_Neutral>
1.09111e-06

> <r_epik_State_Penalty>
0.00183335

> <r_epik_Charging_Adjusted_Penalty>
0.00446763

> <i_epik_Tot_Q>
0

> <i_epik_Tot_abs_Q>
0

> <r_epik_Metal_State_Penalty>
1.00528

> <b_epik_Metal_Only>
0

> <s_epik_Chemistry_Notes>
This compound has an ester and may undergo hydrolysis at high or low pH. This compound contains an acetal/aminal-like group ( X-CH(R)-Y where X, Y are N, S, or O) that may be acid/base labile, releasing an aldehyde.

> <s_lp_Force_Field>
OPLS_2005

> <r_lp_Energy>
42.5315

> <b_lp_Chiralities_Consistent>
1

> <s_lp_Variant>
AV-unprocessed.smi:101-15

> <Gold.Version>
5.8.1

> <Gold.Id.Protein>
6NUR|6NUR_protein|mol2

> <Gold.PLP.Fitness>
50.8737

> <Gold.PLP.PLP>
-43.7175

> <Gold.PLP.part.hbond>
-3.9186

> <Gold.PLP.part.metal>
0.0000

> <Gold.PLP.part.buried>
-3.8690

> <Gold.PLP.part.nonpolar>
-39.0914

> <Gold.PLP.part.repulsive>
2.9970

> <Gold.PLP.ligand.clash>
0.0000

> <Gold.PLP.ligand.torsion>
0.4964

> <Gold.PLP.Chemscore.Hbond>
2.6485

> <Gold.PLP.Chemscore.CHOScore>
0.0000

> <Gold.PLP.Chemscore.Metal>
0.0000

> <Gold.Chemscore.Hbonds>
donor molecule, donor type, donor heavy atom, donor atom, acceptor molecule, acceptor atom, score
      L1  H    21    44       P1 10175  0.93
      P1  H  7954  7966       L1    23  0.82
      P1  H  7997  8008       L1    11  0.64

> <Gold.PLP.Chemscore.Internal.Correction>
0.2034

> <Gold.Rescore>
     Score         DG    S(hbond)    S(metal)    S(lipo)     H(rot)  DE(clash)    DE(int)     intcor
     14.19     -17.08       2.65        0.00      96.01       3.32       1.58       1.31       ----

> <Gold.Chemscore.Fitness>
14.1907

> <Gold.Chemscore.DG>
-17.0805

> <Gold.Chemscore.ZeroCoef>
-5.4800

> <Gold.Chemscore.Hbond>
2.6525

> <Gold.Chemscore.Metal>
0.0000

> <Gold.Chemscore.Lipo>
96.0093

> <Gold.Chemscore.Internal_Hbond>
0.0000

> <Gold.Chemscore.DEClash>
1.5768

> <Gold.Chemscore.DEInternal>
1.3129

> <Gold.Chemscore.Rot>
3.3172

> <Gold.Chemscore.Internal.Correction>
   9.000000E+99

> <Gold.Chemscore.Hbonds>
donor molecule, donor type, donor heavy atom, donor atom, acceptor molecule, acceptor atom, score
      L1  H    21    44       P1 10175  0.42
      L1  H    24    27       P1 10171  0.01
      P1  H  7954  7966       L1    23  0.79
      P1  H  7997  8008       L1    11  0.61

> <Gold.Chemscore.Hbond.Weighted>
-8.8594

> <Gold.Chemscore.Metal.Weighted>
-0.0000

> <Gold.Chemscore.Lipo.Weighted>
-11.2331

> <Gold.Chemscore.Internal_Hbond.Weighted>
0.0000

> <Gold.Chemscore.DEClash.Weighted>
1.5768

> <Gold.Chemscore.DEInternal.Weighted>
1.3129

> <Gold.Chemscore.Rot.Weighted>
8.4920

> <Gold.Chemscore.Internal.Correction.Weighted>
   9.000000E+99

> <Gold.Protein.RotatedTorsions>
[ 6907 6896 6895 6894 ] final   60.47 input  -60.11 | X-H torsion
[ 7974 7965 7964 7962 ] final  104.05 input  175.53 | X-H torsion
[ 8008 7997 7996 7995 ] final  -66.80 input   59.86 | X-H torsion
[ 10167 10162 10161 10158 ] final -107.15 input  -65.29 | X-H torsion
[ 10718 10713 10712 10709 ] final   99.87 input   66.30 | X-H torsion
[ 10763 10752 10751 10750 ] final   93.96 input  -60.55 | X-H torsion
[ 11005 11000 10999 10996 ] final   45.86 input  -57.11 | X-H torsion

> <Gold.Protein.ActiveResidues>
 VAL166  LYS551  ARG553  GLY616  TRP617  ASP618  TYR619  PRO620  LYS621  CYS622 
 ASP623  PHE694  ASN695  SER759  ASP760  ASP761  ALA762  ILE779  LEU786  VAL792 
 PHE793  MET794  SER795  GLU796  ALA797  LYS798  CYS799  TRP800  GLU811  SER814 

> <Gold.Protein.RotatedAtoms>
  152.4005  134.6293  160.0071 H   0  0  0  0  0  0  0  0  0  0  0  0  # atno 6907 bound_to 6896
  151.6500  133.3316  159.3157 H   0  0  0  0  0  0  0  0  0  0  0  0  # atno 6908 bound_to 6896
  150.7906  134.6970  159.6573 H   0  0  0  0  0  0  0  0  0  0  0  0  # atno 6909 bound_to 6896
  145.3379  139.2470  143.3625 H   0  0  0  0  0  0  0  0  0  0  0  0  # atno 7974 bound_to 7965
  154.4758  140.0905  156.7258 H   0  0  0  0  0  0  0  0  0  0  0  0  # atno 8008 bound_to 7997
  155.4601  140.3460  155.4293 H   0  0  0  0  0  0  0  0  0  0  0  0  # atno 8009 bound_to 7997
  156.1114  140.1449  156.9322 H   0  0  0  0  0  0  0  0  0  0  0  0  # atno 8010 bound_to 7997
  140.1801  143.3974  152.1288 H   0  0  0  0  0  0  0  0  0  0  0  0  # atno 10167 bound_to 10162
  157.6867  131.0682  150.5014 H   0  0  0  0  0  0  0  0  0  0  0  0  # atno 10718 bound_to 10713
  153.2363  135.4306  155.0649 H   0  0  0  0  0  0  0  0  0  0  0  0  # atno 10763 bound_to 10752
  154.8320  135.3391  154.6715 H   0  0  0  0  0  0  0  0  0  0  0  0  # atno 10764 bound_to 10752
  153.7140  135.7021  153.5086 H   0  0  0  0  0  0  0  0  0  0  0  0  # atno 10765 bound_to 10752
  140.1421  134.4570  155.8442 H   0  0  0  0  0  0  0  0  0  0  0  0  # atno 11005 bound_to 11000
  146.3019  140.3970  142.8701 LP  0  0  0  0  0  0  0  0  0  0  0  0  # atno 17320 bound_to 7965
  144.8813  140.7404  143.5985 LP  0  0  0  0  0  0  0  0  0  0  0  0  # atno 17321 bound_to 7965
  139.5300  144.7148  151.5090 LP  0  0  0  0  0  0  0  0  0  0  0  0  # atno 17342 bound_to 10162
  140.6525  143.8666  150.6801 LP  0  0  0  0  0  0  0  0  0  0  0  0  # atno 17343 bound_to 10162
  156.5335  130.4190  149.6189 LP  0  0  0  0  0  0  0  0  0  0  0  0  # atno 17370 bound_to 10713
  156.3048  130.7197  151.2076 LP  0  0  0  0  0  0  0  0  0  0  0  0  # atno 17371 bound_to 10713
  141.2187  133.6837  156.7266 LP  0  0  0  0  0  0  0  0  0  0  0  0  # atno 17394 bound_to 11000
  140.2709  134.8392  157.3846 LP  0  0  0  0  0  0  0  0  0  0  0  0  # atno 17395 bound_to 11000

$$$$
