AV-unprocessed.smi:693|AV-procd|sdf|3374|dock8
  -GOLD-   22720 0353D 1   1.00000     0.00000
 Structure written by MMmdl.
 47 48  0  0  0  0  0  0  0  0  2 V2000
  154.2177  141.0875  163.1448 C   0  0  0  0  0  0  0  0  0  0  0  0
  153.4526  142.0827  162.2985 C   0  0  0  0  0  0  0  0  0  0  0  0
  152.8795  143.2516  162.8436 C   0  0  0  0  0  0  0  0  0  0  0  0
  152.1771  144.1338  161.9965 C   0  0  0  0  0  0  0  0  0  0  0  0
  152.0607  143.8290  160.6224 C   0  0  0  0  0  0  0  0  0  0  0  0
  151.3134  144.7561  159.6843 C   0  0  0  0  0  0  0  0  0  0  0  0
  149.8356  144.3594  159.5325 C   0  0  0  0  0  0  0  0  0  0  0  0
  149.6947  143.0253  158.9619 N   0  0  0  0  0  0  0  0  0  0  0  0
  148.5350  142.4569  158.5892 C   0  0  0  0  0  0  0  0  0  0  0  0
  147.4543  143.0341  158.7204 O   0  0  0  0  0  0  0  0  0  0  0  0
  148.6533  141.2024  158.0844 N   0  0  0  0  0  0  0  0  0  0  0  0
  149.8734  140.3792  158.0796 C   0  0  0  0  0  0  0  0  0  0  0  0
  150.4562  140.3874  156.6572 C   0  0  0  0  0  0  0  0  0  0  0  0
  149.4198  139.8844  155.6343 C   0  0  0  0  0  0  0  0  0  0  0  0
  148.0529  140.6032  155.7728 C   0  0  1  0  0  0  0  0  0  0  0  0
  146.9503  140.0020  154.8708 C   0  0  0  0  0  0  0  0  0  0  0  0
  146.8139  138.4798  154.9847 C   0  0  0  0  0  0  0  0  0  0  0  0
  145.8064  137.9092  154.3196 N   0  0  0  0  0  0  0  0  0  0  0  0
  147.5902  137.8283  155.6800 O   0  0  0  0  0  0  0  0  0  0  0  0
  147.6056  140.5964  157.2527 C   0  0  0  0  0  0  0  0  0  0  0  0
  152.6549  142.6460  160.1336 C   0  0  0  0  0  0  0  0  0  0  0  0
  153.3199  141.8269  160.9776 N   0  3  0  0  0  0  0  0  0  0  0  0
  154.4349  141.4985  164.1313 H   0  0  0  0  0  0  0  0  0  0  0  0
  155.1644  140.8272  162.6704 H   0  0  0  0  0  0  0  0  0  0  0  0
  153.6345  140.1759  163.2754 H   0  0  0  0  0  0  0  0  0  0  0  0
  152.9747  143.4717  163.8972 H   0  0  0  0  0  0  0  0  0  0  0  0
  151.7340  145.0330  162.3992 H   0  0  0  0  0  0  0  0  0  0  0  0
  151.3954  145.7748  160.0654 H   0  0  0  0  0  0  0  0  0  0  0  0
  151.8039  144.7532  158.7098 H   0  0  0  0  0  0  0  0  0  0  0  0
  149.3478  144.3611  160.5076 H   0  0  0  0  0  0  0  0  0  0  0  0
  149.3026  145.0857  158.9164 H   0  0  0  0  0  0  0  0  0  0  0  0
  150.5416  142.4902  158.8363 H   0  0  0  0  0  0  0  0  0  0  0  0
  150.6310  140.7015  158.7937 H   0  0  0  0  0  0  0  0  0  0  0  0
  149.6202  139.3589  158.3715 H   0  0  0  0  0  0  0  0  0  0  0  0
  150.7667  141.4000  156.3964 H   0  0  0  0  0  0  0  0  0  0  0  0
  151.3521  139.7677  156.6144 H   0  0  0  0  0  0  0  0  0  0  0  0
  149.8253  140.0104  154.6308 H   0  0  0  0  0  0  0  0  0  0  0  0
  149.2769  138.8122  155.7756 H   0  0  0  0  0  0  0  0  0  0  0  0
  148.1924  141.6459  155.4812 H   0  0  0  0  0  0  0  0  0  0  0  0
  145.9872  140.4554  155.1085 H   0  0  0  0  0  0  0  0  0  0  0  0
  147.1507  140.2559  153.8288 H   0  0  0  0  0  0  0  0  0  0  0  0
  145.6746  136.9091  154.3642 H   0  0  0  0  0  0  0  0  0  0  0  0
  145.1785  138.4815  153.7741 H   0  0  0  0  0  0  0  0  0  0  0  0
  147.4255  139.5736  157.5871 H   0  0  0  0  0  0  0  0  0  0  0  0
  146.6485  141.1091  157.3605 H   0  0  0  0  0  0  0  0  0  0  0  0
  152.6196  142.3328  159.1000 H   0  0  0  0  0  0  0  0  0  0  0  0
  153.7405  140.9769  160.6009 H   0  0  0  0  0  0  0  0  0  0  0  0
  1  2  1  0  0  0  0
  1 23  1  0  0  0  0
  1 24  1  0  0  0  0
  1 25  1  0  0  0  0
  2 22  1  0  0  0  0
  2  3  2  0  0  0  0
  3  4  1  0  0  0  0
  3 26  1  0  0  0  0
  4  5  2  0  0  0  0
  4 27  1  0  0  0  0
  5  6  1  0  0  0  0
  5 21  1  0  0  0  0
  6  7  1  0  0  0  0
  6 28  1  0  0  0  0
  6 29  1  0  0  0  0
  7  8  1  0  0  0  0
  7 30  1  0  0  0  0
  7 31  1  0  0  0  0
  8  9  1  0  0  0  0
  8 32  1  0  0  0  0
  9 10  2  0  0  0  0
  9 11  1  0  0  0  0
 11 20  1  0  0  0  0
 11 12  1  0  0  0  0
 12 13  1  0  0  0  0
 12 33  1  0  0  0  0
 12 34  1  0  0  0  0
 13 14  1  0  0  0  0
 13 35  1  0  0  0  0
 13 36  1  0  0  0  0
 14 15  1  0  0  0  0
 14 37  1  0  0  0  0
 14 38  1  0  0  0  0
 15 16  1  0  0  0  0
 15 20  1  0  0  0  0
 15 39  1  0  0  0  0
 16 17  1  0  0  0  0
 16 40  1  0  0  0  0
 16 41  1  0  0  0  0
 17 18  1  0  0  0  0
 17 19  2  0  0  0  0
 18 42  1  0  0  0  0
 18 43  1  0  0  0  0
 20 44  1  0  0  0  0
 20 45  1  0  0  0  0
 21 22  2  0  0  0  0
 21 46  1  0  0  0  0
 22 47  1  0  0  0  0
M  CHG  1  22   1
M  END
> <s_m_source_file>
AV-unprocessed.smi

> <i_m_source_file_index>
693

> <i_lp_mmshare_version>
43012

> <i_f3d_flags>
0

> <s_epik_input>
W0NIM11jMVtjSF1bY0hdYyhbY0hdbjEpW0NIMl1bQ0gyXVtOSF1DKD1PKU4yW0NIMl1bQ0gyXVtDSDJdW0NASF0oW0NIMl0yKVtDSDJdQyg9TylbTkgyXQ==

> <s_epik_cmdline>
J2VwaWtfcHl0aG9uJywgJy1waCcsICc3LjAnLCAnLXRuJywgJzgnLCAnLW1hJywgJzIwMCcsICctbWV0YWxfYmluZGluZycsICctaW1hZScsICc8aW5maWxlLm1hZT4nLCAnLW9tYWUnLCAnPG91dGZpbGUubWFlPic=

> <r_epik_Ionization_Penalty>
1.41666

> <r_epik_Ionization_Penalty_Charging>
1.4166

> <r_epik_Ionization_Penalty_Neutral>
5.77403e-05

> <r_epik_State_Penalty>
1.50002

> <r_epik_Charging_Adjusted_Penalty>
2.91662

> <i_epik_Tot_Q>
1

> <i_epik_Tot_abs_Q>
1

> <r_epik_Metal_State_Penalty>
1.55252

> <b_epik_Metal_Only>
0

> <s_lp_Force_Field>
OPLS_2005

> <r_lp_Energy>
32.8943

> <b_lp_Chiralities_Consistent>
1

> <s_lp_Variant>
AV-unprocessed.smi:693-3

> <Gold.Version>
5.8.1

> <Gold.Id.Protein>
6NUR|6NUR_protein|mol2

> <Gold.PLP.Fitness>
48.4717

> <Gold.PLP.PLP>
-46.5954

> <Gold.PLP.part.hbond>
-1.0000

> <Gold.PLP.part.metal>
0.0000

> <Gold.PLP.part.buried>
-4.8990

> <Gold.PLP.part.nonpolar>
-40.4071

> <Gold.PLP.part.repulsive>
0.8046

> <Gold.PLP.ligand.clash>
0.0000

> <Gold.PLP.ligand.torsion>
0.5948

> <Gold.PLP.Chemscore.Hbond>
1.0000

> <Gold.PLP.Chemscore.CHOScore>
0.0000

> <Gold.PLP.Chemscore.Metal>
0.0000

> <Gold.PLP.Chemscore.Internal.Correction>
0.0659

> <Gold.Rescore>
     Score         DG    S(hbond)    S(metal)    S(lipo)     H(rot)  DE(clash)    DE(int)     intcor
     14.67     -16.72       1.00        0.00     118.64       2.34       0.08       1.97       ----

> <Gold.Chemscore.Fitness>
14.6697

> <Gold.Chemscore.DG>
-16.7215

> <Gold.Chemscore.ZeroCoef>
-5.4800

> <Gold.Chemscore.Hbond>
0.9997

> <Gold.Chemscore.Metal>
0.0000

> <Gold.Chemscore.Lipo>
118.6420

> <Gold.Chemscore.Internal_Hbond>
0.0000

> <Gold.Chemscore.DEClash>
0.0781

> <Gold.Chemscore.DEInternal>
1.9737

> <Gold.Chemscore.Rot>
2.3354

> <Gold.Chemscore.Internal.Correction>
   9.000000E+99

> <Gold.Chemscore.Hbond.Weighted>
-3.3389

> <Gold.Chemscore.Metal.Weighted>
-0.0000

> <Gold.Chemscore.Lipo.Weighted>
-13.8811

> <Gold.Chemscore.Internal_Hbond.Weighted>
0.0000

> <Gold.Chemscore.DEClash.Weighted>
0.0781

> <Gold.Chemscore.DEInternal.Weighted>
1.9737

> <Gold.Chemscore.Rot.Weighted>
5.9785

> <Gold.Chemscore.Internal.Correction.Weighted>
   9.000000E+99

> <Gold.Protein.RotatedTorsions>
[ 6907 6896 6895 6894 ] final  -51.81 input  -60.11 | X-H torsion
[ 7974 7965 7964 7962 ] final   33.70 input  175.53 | X-H torsion
[ 8008 7997 7996 7995 ] final  -59.62 input   59.86 | X-H torsion
[ 10167 10162 10161 10158 ] final  175.91 input  -65.29 | X-H torsion
[ 10718 10713 10712 10709 ] final -154.16 input   66.30 | X-H torsion
[ 10763 10752 10751 10750 ] final   32.22 input  -60.55 | X-H torsion
[ 11005 11000 10999 10996 ] final  -36.15 input  -57.11 | X-H torsion

> <Gold.Protein.ActiveResidues>
 VAL166  LYS551  ARG553  GLY616  TRP617  ASP618  TYR619  PRO620  LYS621  CYS622 
 ASP623  PHE694  ASN695  SER759  ASP760  ASP761  ALA762  ILE779  LEU786  VAL792 
 PHE793  MET794  SER795  GLU796  ALA797  LYS798  CYS799  TRP800  GLU811  SER814 

> <Gold.Protein.RotatedAtoms>
  150.8576  134.7919  159.7057 H   0  0  0  0  0  0  0  0  0  0  0  0  # atno 6907 bound_to 6896
  152.4623  134.5153  159.9776 H   0  0  0  0  0  0  0  0  0  0  0  0  # atno 6908 bound_to 6896
  151.5262  133.3419  159.2946 H   0  0  0  0  0  0  0  0  0  0  0  0  # atno 6909 bound_to 6896
  146.1403  139.6363  142.9167 H   0  0  0  0  0  0  0  0  0  0  0  0  # atno 7974 bound_to 7965
  154.4360  140.1058  156.6144 H   0  0  0  0  0  0  0  0  0  0  0  0  # atno 8008 bound_to 7997
  155.5775  140.3490  155.4513 H   0  0  0  0  0  0  0  0  0  0  0  0  # atno 8009 bound_to 7997
  156.0343  140.1267  157.0213 H   0  0  0  0  0  0  0  0  0  0  0  0  # atno 8010 bound_to 7997
  139.5194  144.2977  152.0407 H   0  0  0  0  0  0  0  0  0  0  0  0  # atno 10167 bound_to 10162
  156.4956  130.8367  151.2588 H   0  0  0  0  0  0  0  0  0  0  0  0  # atno 10718 bound_to 10713
  153.0274  135.6419  154.1320 H   0  0  0  0  0  0  0  0  0  0  0  0  # atno 10763 bound_to 10752
  154.1047  135.2857  155.3245 H   0  0  0  0  0  0  0  0  0  0  0  0  # atno 10764 bound_to 10752
  154.6374  135.5472  153.7812 H   0  0  0  0  0  0  0  0  0  0  0  0  # atno 10765 bound_to 10752
  140.9852  133.7034  156.1753 H   0  0  0  0  0  0  0  0  0  0  0  0  # atno 11005 bound_to 11000
  145.5062  141.0436  143.2513 LP  0  0  0  0  0  0  0  0  0  0  0  0  # atno 17320 bound_to 7965
  144.7785  139.6578  143.7164 LP  0  0  0  0  0  0  0  0  0  0  0  0  # atno 17321 bound_to 7965
  140.2425  144.4254  150.6254 LP  0  0  0  0  0  0  0  0  0  0  0  0  # atno 17342 bound_to 10162
  140.6280  143.2184  151.6555 LP  0  0  0  0  0  0  0  0  0  0  0  0  # atno 17343 bound_to 10162
  157.7469  130.9999  150.2905 LP  0  0  0  0  0  0  0  0  0  0  0  0  # atno 17370 bound_to 10713
  156.3383  130.3811  149.7431 LP  0  0  0  0  0  0  0  0  0  0  0  0  # atno 17371 bound_to 10713
  140.7125  134.4446  157.5580 LP  0  0  0  0  0  0  0  0  0  0  0  0  # atno 17394 bound_to 11000
  139.8967  134.8652  156.2074 LP  0  0  0  0  0  0  0  0  0  0  0  0  # atno 17395 bound_to 11000

$$$$
