AV-unprocessed.smi:2328|AV-procd|sdf|9300|dock10
  -GOLD-   2272012523D 1   1.00000     0.00000
 Structure written by MMmdl.
 40 40  0  0  0  0  0  0  0  0  1 V2000
  147.6620  141.4012  153.4417 C   0  0  0  0  0  0  0  0  0  0  0  0
  148.7728  141.2864  154.5017 C   0  0  0  0  0  0  0  0  0  0  0  0
  148.3143  140.8780  155.9435 C   0  0  1  0  0  0  0  0  0  0  0  0
  149.4608  140.9507  156.8769 N   0  0  0  0  0  0  0  0  0  0  0  0
  150.7764  140.6739  156.7526 C   0  0  0  0  0  0  0  0  0  0  0  0
  151.2112  140.2734  155.6740 O   0  0  0  0  0  0  0  0  0  0  0  0
  151.7471  140.8535  157.9340 C   0  0  0  0  0  0  0  0  0  0  0  0
  151.9754  142.3222  158.2496 C   0  0  0  0  0  0  0  0  0  0  0  0
  152.7709  142.7160  159.3456 C   0  0  0  0  0  0  0  0  0  0  0  0
  152.9464  144.0904  159.5966 C   0  0  0  0  0  0  0  0  0  0  0  0
  152.3183  145.0146  158.7381 C   0  0  0  0  0  0  0  0  0  0  0  0
  151.5563  144.6494  157.6846 N   0  0  0  0  0  0  0  0  0  0  0  0
  151.3926  143.3297  157.4512 C   0  0  0  0  0  0  0  0  0  0  0  0
  147.1463  141.8025  156.4010 C   0  0  0  0  0  0  0  0  0  0  0  0
  147.3541  143.1237  156.4543 N   0  0  0  0  0  0  0  0  0  0  0  0
  146.0528  141.3270  156.7021 O   0  0  0  0  0  0  0  0  0  0  0  0
  147.8305  139.3782  155.9608 C   0  0  0  0  0  0  0  0  0  0  0  0
  147.3688  138.8459  157.3362 C   0  0  0  0  0  0  0  0  0  0  0  0
  148.8407  138.3757  155.3538 C   0  0  0  0  0  0  0  0  0  0  0  0
  148.0899  141.6536  152.4713 H   0  0  0  0  0  0  0  0  0  0  0  0
  146.9457  142.1840  153.6876 H   0  0  0  0  0  0  0  0  0  0  0  0
  147.1146  140.4670  153.3194 H   0  0  0  0  0  0  0  0  0  0  0  0
  149.5159  140.5856  154.1261 H   0  0  0  0  0  0  0  0  0  0  0  0
  149.3108  142.2332  154.5269 H   0  0  0  0  0  0  0  0  0  0  0  0
  149.1963  141.2553  157.8022 H   0  0  0  0  0  0  0  0  0  0  0  0
  151.3363  140.3504  158.8097 H   0  0  0  0  0  0  0  0  0  0  0  0
  152.7194  140.4086  157.7371 H   0  0  0  0  0  0  0  0  0  0  0  0
  153.2356  141.9802  159.9853 H   0  0  0  0  0  0  0  0  0  0  0  0
  153.5469  144.4284  160.4283 H   0  0  0  0  0  0  0  0  0  0  0  0
  152.4317  146.0761  158.9018 H   0  0  0  0  0  0  0  0  0  0  0  0
  150.7761  143.0695  156.6033 H   0  0  0  0  0  0  0  0  0  0  0  0
  146.6080  143.7381  156.7470 H   0  0  0  0  0  0  0  0  0  0  0  0
  148.2554  143.5012  156.2001 H   0  0  0  0  0  0  0  0  0  0  0  0
  146.9577  139.3179  155.3107 H   0  0  0  0  0  0  0  0  0  0  0  0
  148.1676  138.8705  158.0772 H   0  0  0  0  0  0  0  0  0  0  0  0
  147.0399  137.8094  157.2566 H   0  0  0  0  0  0  0  0  0  0  0  0
  146.5219  139.4039  157.7327 H   0  0  0  0  0  0  0  0  0  0  0  0
  149.7383  138.2827  155.9651 H   0  0  0  0  0  0  0  0  0  0  0  0
  149.1494  138.6547  154.3466 H   0  0  0  0  0  0  0  0  0  0  0  0
  148.4002  137.3810  155.2809 H   0  0  0  0  0  0  0  0  0  0  0  0
  1  2  1  0  0  0  0
  1 20  1  0  0  0  0
  1 21  1  0  0  0  0
  1 22  1  0  0  0  0
  2  3  1  0  0  0  0
  2 23  1  0  0  0  0
  2 24  1  0  0  0  0
  3  4  1  0  0  0  0
  3 14  1  0  0  0  0
  3 17  1  0  0  0  0
  4  5  1  0  0  0  0
  4 25  1  0  0  0  0
  5  6  2  0  0  0  0
  5  7  1  0  0  0  0
  7  8  1  0  0  0  0
  7 26  1  0  0  0  0
  7 27  1  0  0  0  0
  8 13  1  0  0  0  0
  8  9  2  0  0  0  0
  9 10  1  0  0  0  0
  9 28  1  0  0  0  0
 10 11  2  0  0  0  0
 10 29  1  0  0  0  0
 11 12  1  0  0  0  0
 11 30  1  0  0  0  0
 12 13  2  0  0  0  0
 13 31  1  0  0  0  0
 14 15  1  0  0  0  0
 14 16  2  0  0  0  0
 15 32  1  0  0  0  0
 15 33  1  0  0  0  0
 17 18  1  0  0  0  0
 17 19  1  0  0  0  0
 17 34  1  0  0  0  0
 18 35  1  0  0  0  0
 18 36  1  0  0  0  0
 18 37  1  0  0  0  0
 19 38  1  0  0  0  0
 19 39  1  0  0  0  0
 19 40  1  0  0  0  0
M  END
> <s_m_source_file>
AV-unprocessed.smi

> <i_m_source_file_index>
2328

> <i_lp_mmshare_version>
43012

> <i_f3d_flags>
0

> <s_epik_input>
W0NIM11bQ0gyXVtDQEBdKEMoPU8pW05IMl0pKFtDSF0oW0NIM10pW0NIM10pW05IXUMoPU8pW0NIMl1jMVtjSF1bY0hdW2NIXW5bY0hdMQ==

> <s_epik_cmdline>
J2VwaWtfcHl0aG9uJywgJy1waCcsICc3LjAnLCAnLXRuJywgJzgnLCAnLW1hJywgJzIwMCcsICctbWV0YWxfYmluZGluZycsICctaW1hZScsICc8aW5maWxlLm1hZT4nLCAnLW9tYWUnLCAnPG91dGZpbGUubWFlPic=

> <r_epik_Ionization_Penalty>
0.00378489

> <r_epik_Ionization_Penalty_Charging>
0

> <r_epik_Ionization_Penalty_Neutral>
0.00378489

> <r_epik_State_Penalty>
0.00269972

> <r_epik_Charging_Adjusted_Penalty>
0.00269972

> <i_epik_Tot_Q>
0

> <i_epik_Tot_abs_Q>
0

> <r_epik_Metal_State_Penalty>
-0

> <b_epik_Metal_Only>
0

> <s_lp_Force_Field>
OPLS_2005

> <r_lp_Energy>
14.3821

> <b_lp_Chiralities_Consistent>
1

> <s_lp_Variant>
AV-unprocessed.smi:2328-1

> <Gold.Version>
5.8.1

> <Gold.Id.Protein>
6NUR|6NUR_protein|mol2

> <Gold.PLP.Fitness>
38.0975

> <Gold.PLP.PLP>
-31.6830

> <Gold.PLP.part.hbond>
-2.0000

> <Gold.PLP.part.metal>
0.0000

> <Gold.PLP.part.buried>
-4.9942

> <Gold.PLP.part.nonpolar>
-25.1090

> <Gold.PLP.part.repulsive>
0.2117

> <Gold.PLP.ligand.clash>
0.0000

> <Gold.PLP.ligand.torsion>
0.7132

> <Gold.PLP.Chemscore.Hbond>
1.8640

> <Gold.PLP.Chemscore.CHOScore>
0.6959

> <Gold.PLP.Chemscore.Metal>
0.0000

> <Gold.Chemscore.Hbonds>
donor molecule, donor type, donor heavy atom, donor atom, acceptor molecule, acceptor atom, score
      L1  H    15    33       P1  8028  0.65
      P1  H  7989  7998       L1     6  0.34
      L1  C    13    31       P1  8028  0.53

> <Gold.PLP.Chemscore.Internal.Correction>
0.1611

> <Gold.Rescore>
     Score         DG    S(hbond)    S(metal)    S(lipo)     H(rot)  DE(clash)    DE(int)     intcor
     10.97     -14.61       1.34        0.00      89.82       2.29       0.18       3.46       ----

> <Gold.Chemscore.Fitness>
10.9747

> <Gold.Chemscore.DG>
-14.6084

> <Gold.Chemscore.ZeroCoef>
-5.4800

> <Gold.Chemscore.Hbond>
1.3433

> <Gold.Chemscore.Metal>
0.0000

> <Gold.Chemscore.Lipo>
89.8237

> <Gold.Chemscore.Internal_Hbond>
0.0000

> <Gold.Chemscore.DEClash>
0.1760

> <Gold.Chemscore.DEInternal>
3.4577

> <Gold.Chemscore.Rot>
2.2921

> <Gold.Chemscore.Internal.Correction>
   9.000000E+99

> <Gold.Chemscore.Hbonds>
donor molecule, donor type, donor heavy atom, donor atom, acceptor molecule, acceptor atom, score
      L1  H    15    33       P1  8028  0.25
      P1  H  7989  7998       L1     6  0.32

> <Gold.Chemscore.Hbond.Weighted>
-4.4868

> <Gold.Chemscore.Metal.Weighted>
-0.0000

> <Gold.Chemscore.Lipo.Weighted>
-10.5094

> <Gold.Chemscore.Internal_Hbond.Weighted>
0.0000

> <Gold.Chemscore.DEClash.Weighted>
0.1760

> <Gold.Chemscore.DEInternal.Weighted>
3.4577

> <Gold.Chemscore.Rot.Weighted>
5.8677

> <Gold.Chemscore.Internal.Correction.Weighted>
   9.000000E+99

> <Gold.Protein.RotatedTorsions>
[ 6907 6896 6895 6894 ] final   41.68 input  -60.11 | X-H torsion
[ 7974 7965 7964 7962 ] final -179.19 input  175.53 | X-H torsion
[ 8008 7997 7996 7995 ] final   26.80 input   59.86 | X-H torsion
[ 10167 10162 10161 10158 ] final  147.15 input  -65.29 | X-H torsion
[ 10718 10713 10712 10709 ] final  -54.24 input   66.30 | X-H torsion
[ 10763 10752 10751 10750 ] final  138.75 input  -60.55 | X-H torsion
[ 11005 11000 10999 10996 ] final  -66.64 input  -57.11 | X-H torsion

> <Gold.Protein.ActiveResidues>
 VAL166  LYS551  ARG553  GLY616  TRP617  ASP618  TYR619  PRO620  LYS621  CYS622 
 ASP623  PHE694  ASN695  SER759  ASP760  ASP761  ALA762  ILE779  LEU786  VAL792 
 PHE793  MET794  SER795  GLU796  ALA797  LYS798  CYS799  TRP800  GLU811  SER814 

> <Gold.Protein.RotatedAtoms>
  152.1983  134.8611  160.0510 H   0  0  0  0  0  0  0  0  0  0  0  0  # atno 6907 bound_to 6896
  151.9474  133.3650  159.3995 H   0  0  0  0  0  0  0  0  0  0  0  0  # atno 6908 bound_to 6896
  150.6949  134.4300  159.5288 H   0  0  0  0  0  0  0  0  0  0  0  0  # atno 6909 bound_to 6896
  144.7135  140.0754  143.6428 H   0  0  0  0  0  0  0  0  0  0  0  0  # atno 7974 bound_to 7965
  155.0329  140.3160  155.4752 H   0  0  0  0  0  0  0  0  0  0  0  0  # atno 8008 bound_to 7997
  156.2870  140.2177  156.5394 H   0  0  0  0  0  0  0  0  0  0  0  0  # atno 8009 bound_to 7997
  154.7355  140.0478  157.0752 H   0  0  0  0  0  0  0  0  0  0  0  0  # atno 8010 bound_to 7997
  139.4895  144.5777  151.6933 H   0  0  0  0  0  0  0  0  0  0  0  0  # atno 10167 bound_to 10162
  156.1467  130.4152  150.0012 H   0  0  0  0  0  0  0  0  0  0  0  0  # atno 10718 bound_to 10713
  153.8947  135.3029  155.3448 H   0  0  0  0  0  0  0  0  0  0  0  0  # atno 10763 bound_to 10752
  154.7699  135.4891  153.9632 H   0  0  0  0  0  0  0  0  0  0  0  0  # atno 10764 bound_to 10752
  153.1278  135.6797  153.9327 H   0  0  0  0  0  0  0  0  0  0  0  0  # atno 10765 bound_to 10752
  141.1487  133.6703  156.6171 H   0  0  0  0  0  0  0  0  0  0  0  0  # atno 11005 bound_to 11000
  145.9747  139.2896  143.1077 LP  0  0  0  0  0  0  0  0  0  0  0  0  # atno 17320 bound_to 7965
  145.9077  140.9201  143.0470 LP  0  0  0  0  0  0  0  0  0  0  0  0  # atno 17321 bound_to 7965
  140.5376  144.0630  150.6076 LP  0  0  0  0  0  0  0  0  0  0  0  0  # atno 17342 bound_to 10162
  140.3642  143.2891  152.0350 LP  0  0  0  0  0  0  0  0  0  0  0  0  # atno 17343 bound_to 10162
  156.7882  130.9246  151.3646 LP  0  0  0  0  0  0  0  0  0  0  0  0  # atno 17370 bound_to 10713
  157.6623  130.8976  149.9855 LP  0  0  0  0  0  0  0  0  0  0  0  0  # atno 17371 bound_to 10713
  140.3569  134.7721  157.4507 LP  0  0  0  0  0  0  0  0  0  0  0  0  # atno 17394 bound_to 11000
  140.0816  134.5724  155.8535 LP  0  0  0  0  0  0  0  0  0  0  0  0  # atno 17395 bound_to 11000

$$$$
