AV-unprocessed.smi:1012|AV-procd|sdf|4425|dock4
  -GOLD-   22720 2383D 1   1.00000     0.00000
 Structure written by MMmdl.
 44 46  0  0  0  0  0  0  0  0  2 V2000
  152.4873  139.1825  159.6022 C   0  0  0  0  0  0  0  0  0  0  0  0
  152.3226  140.1572  158.5826 O   0  0  0  0  0  0  0  0  0  0  0  0
  152.1255  141.4707  158.9587 C   0  0  0  0  0  0  0  0  0  0  0  0
  152.3892  141.9617  160.2633 C   0  0  0  0  0  0  0  0  0  0  0  0
  152.1658  143.3155  160.5785 C   0  0  0  0  0  0  0  0  0  0  0  0
  151.6775  144.1968  159.5979 C   0  0  0  0  0  0  0  0  0  0  0  0
  151.4121  143.7226  158.3007 C   0  0  0  0  0  0  0  0  0  0  0  0
  151.6328  142.3665  157.9794 C   0  0  0  0  0  0  0  0  0  0  0  0
  151.3438  141.8757  156.5727 C   0  0  0  0  0  0  0  0  0  0  0  0
  150.6809  140.6223  156.5879 O   0  0  0  0  0  0  0  0  0  0  0  0
  149.3525  140.6975  156.0996 C   0  0  0  0  0  0  0  0  0  0  0  0
  149.3884  140.9550  154.5822 C   0  0  1  0  0  0  0  0  0  0  0  0
  150.2633  140.0178  153.9900 O   0  0  0  0  0  0  0  0  0  0  0  0
  148.0199  140.8016  153.8882 C   0  0  0  0  0  0  0  0  0  0  0  0
  147.0055  141.7278  154.4116 N   0  0  0  0  0  0  0  0  0  0  0  0
  146.4342  141.7713  155.6459 C   0  0  0  0  0  0  0  0  0  0  0  0
  145.5534  142.8095  155.6562 N   0  3  0  0  0  0  0  0  0  0  0  0
  145.5614  143.4399  154.4102 C   0  0  0  0  0  0  0  0  0  0  0  0
  144.8406  144.5323  153.9390 C   0  0  0  0  0  0  0  0  0  0  0  0
  145.0801  144.9243  152.6056 C   0  0  0  0  0  0  0  0  0  0  0  0
  144.4030  145.9798  152.0953 F   0  0  0  0  0  0  0  0  0  0  0  0
  146.0084  144.2376  151.7947 C   0  0  0  0  0  0  0  0  0  0  0  0
  146.2061  144.6442  150.5185 F   0  0  0  0  0  0  0  0  0  0  0  0
  146.7359  143.1331  152.2851 C   0  0  0  0  0  0  0  0  0  0  0  0
  146.4930  142.7515  153.6045 C   0  0  0  0  0  0  0  0  0  0  0  0
  152.6252  138.2033  159.1439 H   0  0  0  0  0  0  0  0  0  0  0  0
  151.6078  139.1241  160.2449 H   0  0  0  0  0  0  0  0  0  0  0  0
  153.3685  139.3878  160.2115 H   0  0  0  0  0  0  0  0  0  0  0  0
  152.7655  141.3186  161.0441 H   0  0  0  0  0  0  0  0  0  0  0  0
  152.3705  143.6779  161.5750 H   0  0  0  0  0  0  0  0  0  0  0  0
  151.5068  145.2355  159.8402 H   0  0  0  0  0  0  0  0  0  0  0  0
  151.0364  144.4054  157.5530 H   0  0  0  0  0  0  0  0  0  0  0  0
  150.7332  142.6076  156.0417 H   0  0  0  0  0  0  0  0  0  0  0  0
  152.2877  141.7969  156.0309 H   0  0  0  0  0  0  0  0  0  0  0  0
  148.7877  139.7926  156.3314 H   0  0  0  0  0  0  0  0  0  0  0  0
  148.8624  141.5238  156.6137 H   0  0  0  0  0  0  0  0  0  0  0  0
  149.7720  141.9576  154.3880 H   0  0  0  0  0  0  0  0  0  0  0  0
  149.9859  139.8646  153.0999 H   0  0  0  0  0  0  0  0  0  0  0  0
  148.1201  141.0194  152.8239 H   0  0  0  0  0  0  0  0  0  0  0  0
  147.6535  139.7773  153.9546 H   0  0  0  0  0  0  0  0  0  0  0  0
  146.6423  141.1021  156.4688 H   0  0  0  0  0  0  0  0  0  0  0  0
  144.1281  145.0597  154.5560 H   0  0  0  0  0  0  0  0  0  0  0  0
  147.4389  142.6154  151.6501 H   0  0  0  0  0  0  0  0  0  0  0  0
  144.9896  143.0657  156.4568 H   0  0  0  0  0  0  0  0  0  0  0  0
  1  2  1  0  0  0  0
  1 26  1  0  0  0  0
  1 27  1  0  0  0  0
  1 28  1  0  0  0  0
  2  3  1  0  0  0  0
  3  8  1  0  0  0  0
  3  4  2  0  0  0  0
  4  5  1  0  0  0  0
  4 29  1  0  0  0  0
  5  6  2  0  0  0  0
  5 30  1  0  0  0  0
  6  7  1  0  0  0  0
  6 31  1  0  0  0  0
  7  8  2  0  0  0  0
  7 32  1  0  0  0  0
  8  9  1  0  0  0  0
  9 10  1  0  0  0  0
  9 33  1  0  0  0  0
  9 34  1  0  0  0  0
 10 11  1  0  0  0  0
 11 12  1  0  0  0  0
 11 35  1  0  0  0  0
 11 36  1  0  0  0  0
 12 13  1  0  0  0  0
 12 14  1  0  0  0  0
 12 37  1  0  0  0  0
 13 38  1  0  0  0  0
 14 15  1  0  0  0  0
 14 39  1  0  0  0  0
 14 40  1  0  0  0  0
 15 25  1  0  0  0  0
 15 16  1  0  0  0  0
 16 17  2  0  0  0  0
 16 41  1  0  0  0  0
 17 18  1  0  0  0  0
 17 44  1  0  0  0  0
 18 25  2  0  0  0  0
 18 19  1  0  0  0  0
 19 20  2  0  0  0  0
 19 42  1  0  0  0  0
 20 21  1  0  0  0  0
 20 22  1  0  0  0  0
 22 23  1  0  0  0  0
 22 24  2  0  0  0  0
 24 25  1  0  0  0  0
 24 43  1  0  0  0  0
M  CHG  1  17   1
M  END
> <s_m_source_file>
AV-unprocessed.smi

> <i_m_source_file_index>
1012

> <i_lp_mmshare_version>
43012

> <i_f3d_flags>
0

> <s_epik_input>
W0NIM11PYzFbY0hdW2NIXVtjSF1bY0hdYzFbQ0gyXU9bQ0gyXVtDQEhdKFtPSF0pW0NIMl1uKFtjSF1uMiljKGMyMylbY0hdYyhGKWMoRilbY0hdMw==

> <s_epik_cmdline>
J2VwaWtfcHl0aG9uJywgJy1waCcsICc3LjAnLCAnLXRuJywgJzgnLCAnLW1hJywgJzIwMCcsICctbWV0YWxfYmluZGluZycsICctaW1hZScsICc8aW5maWxlLm1hZT4nLCAnLW9tYWUnLCAnPG91dGZpbGUubWFlPic=

> <r_lp_tautomer_probability>
1

> <r_epik_Ionization_Penalty>
2.14697

> <r_epik_Ionization_Penalty_Charging>
2.14697

> <r_epik_Ionization_Penalty_Neutral>
1.07667e-06

> <r_epik_State_Penalty>
2.28651

> <r_epik_Charging_Adjusted_Penalty>
4.43348

> <i_epik_Tot_Q>
1

> <i_epik_Tot_abs_Q>
1

> <r_epik_Metal_State_Penalty>
6.36664

> <b_epik_Metal_Only>
0

> <s_lp_Force_Field>
OPLS_2005

> <r_lp_Energy>
25.548

> <b_lp_Chiralities_Consistent>
1

> <s_lp_Variant>
AV-unprocessed.smi:1012-4

> <Gold.Version>
5.8.1

> <Gold.Id.Protein>
6NUR|6NUR_protein|mol2

> <Gold.PLP.Fitness>
58.3891

> <Gold.PLP.PLP>
-52.4897

> <Gold.PLP.part.hbond>
-2.8922

> <Gold.PLP.part.metal>
0.0000

> <Gold.PLP.part.buried>
-6.6601

> <Gold.PLP.part.nonpolar>
-42.4801

> <Gold.PLP.part.repulsive>
0.0207

> <Gold.PLP.ligand.clash>
0.0000

> <Gold.PLP.ligand.torsion>
0.9125

> <Gold.PLP.Chemscore.Hbond>
2.5152

> <Gold.PLP.Chemscore.CHOScore>
0.0000

> <Gold.PLP.Chemscore.Metal>
0.0000

> <Gold.Chemscore.Hbonds>
donor molecule, donor type, donor heavy atom, donor atom, acceptor molecule, acceptor atom, score
      L1  H    13    38       P1  7957  1.00
      P1  H  7989  7998       L1    13  0.55

> <Gold.PLP.Chemscore.Internal.Correction>
0.1789

> <Gold.Rescore>
     Score         DG    S(hbond)    S(metal)    S(lipo)     H(rot)  DE(clash)    DE(int)     intcor
     11.61     -16.77       1.02        0.00     133.57       3.03       2.52       2.64       ----

> <Gold.Chemscore.Fitness>
11.6079

> <Gold.Chemscore.DG>
-16.7687

> <Gold.Chemscore.ZeroCoef>
-5.4800

> <Gold.Chemscore.Hbond>
1.0216

> <Gold.Chemscore.Metal>
0.0000

> <Gold.Chemscore.Lipo>
133.5690

> <Gold.Chemscore.Internal_Hbond>
0.0000

> <Gold.Chemscore.DEClash>
2.5219

> <Gold.Chemscore.DEInternal>
2.6388

> <Gold.Chemscore.Rot>
3.0278

> <Gold.Chemscore.Internal.Correction>
   9.000000E+99

> <Gold.Chemscore.Hbonds>
donor molecule, donor type, donor heavy atom, donor atom, acceptor molecule, acceptor atom, score
      L1  H    13    38       P1  7957  0.98
      P1  H  7989  7998       L1    13  0.02

> <Gold.Chemscore.Hbond.Weighted>
-3.4123

> <Gold.Chemscore.Metal.Weighted>
-0.0000

> <Gold.Chemscore.Lipo.Weighted>
-15.6276

> <Gold.Chemscore.Internal_Hbond.Weighted>
0.0000

> <Gold.Chemscore.DEClash.Weighted>
2.5219

> <Gold.Chemscore.DEInternal.Weighted>
2.6388

> <Gold.Chemscore.Rot.Weighted>
7.7512

> <Gold.Chemscore.Internal.Correction.Weighted>
   9.000000E+99

> <Gold.Protein.RotatedTorsions>
[ 6907 6896 6895 6894 ] final  171.55 input  -60.11 | X-H torsion
[ 7974 7965 7964 7962 ] final  144.54 input  175.53 | X-H torsion
[ 8008 7997 7996 7995 ] final  -59.96 input   59.86 | X-H torsion
[ 10167 10162 10161 10158 ] final  -12.71 input  -65.29 | X-H torsion
[ 10718 10713 10712 10709 ] final  -42.33 input   66.30 | X-H torsion
[ 10763 10752 10751 10750 ] final -162.52 input  -60.55 | X-H torsion
[ 11005 11000 10999 10996 ] final  174.12 input  -57.11 | X-H torsion

> <Gold.Protein.ActiveResidues>
 VAL166  LYS551  ARG553  GLY616  TRP617  ASP618  TYR619  PRO620  LYS621  CYS622 
 ASP623  PHE694  ASN695  SER759  ASP760  ASP761  ALA762  ILE779  LEU786  VAL792 
 PHE793  MET794  SER795  GLU796  ALA797  LYS798  CYS799  TRP800  GLU811  SER814 

> <Gold.Protein.RotatedAtoms>
  151.7985  133.3367  159.3519 H   0  0  0  0  0  0  0  0  0  0  0  0  # atno 6907 bound_to 6896
  150.7367  134.5776  159.5931 H   0  0  0  0  0  0  0  0  0  0  0  0  # atno 6908 bound_to 6896
  152.3160  134.7440  160.0376 H   0  0  0  0  0  0  0  0  0  0  0  0  # atno 6909 bound_to 6896
  144.8827  139.5675  143.5835 H   0  0  0  0  0  0  0  0  0  0  0  0  # atno 7974 bound_to 7965
  154.4376  140.1050  156.6197 H   0  0  0  0  0  0  0  0  0  0  0  0  # atno 8008 bound_to 7997
  155.5720  140.3489  155.4499 H   0  0  0  0  0  0  0  0  0  0  0  0  # atno 8009 bound_to 7997
  156.0382  140.1276  157.0174 H   0  0  0  0  0  0  0  0  0  0  0  0  # atno 8010 bound_to 7997
  140.7167  143.5503  150.9308 H   0  0  0  0  0  0  0  0  0  0  0  0  # atno 10167 bound_to 10162
  156.2607  130.4197  149.8545 H   0  0  0  0  0  0  0  0  0  0  0  0  # atno 10718 bound_to 10713
  154.7207  135.3025  154.9052 H   0  0  0  0  0  0  0  0  0  0  0  0  # atno 10763 bound_to 10752
  153.9925  135.6717  153.4759 H   0  0  0  0  0  0  0  0  0  0  0  0  # atno 10764 bound_to 10752
  153.0831  135.4998  154.8461 H   0  0  0  0  0  0  0  0  0  0  0  0  # atno 10765 bound_to 10752
  140.3479  134.7220  157.4247 H   0  0  0  0  0  0  0  0  0  0  0  0  # atno 11005 bound_to 11000
  146.3005  139.7411  142.9095 LP  0  0  0  0  0  0  0  0  0  0  0  0  # atno 17320 bound_to 7965
  145.3925  141.0374  143.3116 LP  0  0  0  0  0  0  0  0  0  0  0  0  # atno 17321 bound_to 7965
  139.9227  143.6586  152.3093 LP  0  0  0  0  0  0  0  0  0  0  0  0  # atno 17342 bound_to 10162
  139.7009  144.7635  151.1275 LP  0  0  0  0  0  0  0  0  0  0  0  0  # atno 17343 bound_to 10162
  156.6062  130.8567  151.3443 LP  0  0  0  0  0  0  0  0  0  0  0  0  # atno 17370 bound_to 10713
  157.7249  130.9609  150.1594 LP  0  0  0  0  0  0  0  0  0  0  0  0  # atno 17371 bound_to 10713
  140.0727  134.5840  155.8624 LP  0  0  0  0  0  0  0  0  0  0  0  0  # atno 17394 bound_to 11000
  141.2020  133.6622  156.5984 LP  0  0  0  0  0  0  0  0  0  0  0  0  # atno 17395 bound_to 11000

$$$$
