AV-unprocessed.smi:3107|AV-procd|sdf|11825|dock1
  -GOLD-   2272017193D 1   1.00000     0.00000
 Structure written by MMmdl.
 37 38  0  0  0  0  0  0  0  0  2 V2000
  150.1274  137.8014  155.0871 C   0  0  0  0  0  0  0  0  0  0  0  0
  149.9047  138.5321  153.8865 C   0  0  0  0  0  0  0  0  0  0  0  0
  150.1584  139.8240  154.0214 N   0  0  0  0  0  0  0  0  0  0  0  0
  150.5484  139.9600  155.3069 N   0  0  0  0  0  0  0  0  0  0  0  0
  150.9095  141.2701  155.8120 C   0  0  0  0  0  0  0  0  0  0  0  0
  150.1246  141.6244  157.0831 C   0  0  0  0  0  0  0  0  0  0  0  0
  150.3665  143.0240  157.4821 N   0  3  0  0  0  0  0  0  0  0  0  0
  151.7675  143.4623  157.3202 C   0  0  0  0  0  0  0  0  0  0  0  0
  152.5005  143.5339  158.6728 C   0  0  0  0  0  0  0  0  0  0  0  0
  152.7964  142.1199  159.2145 C   0  0  0  0  0  0  0  0  0  0  0  0
  153.5230  142.1661  160.5687 C   0  0  0  0  0  0  0  0  0  0  0  0
  152.7302  142.9832  161.5996 C   0  0  0  0  0  0  0  0  0  0  0  0
  152.4332  144.3952  161.0733 C   0  0  0  0  0  0  0  0  0  0  0  0
  151.7044  144.3430  159.7205 C   0  0  0  0  0  0  0  0  0  0  0  0
  150.5377  138.7538  155.9754 C   0  0  0  0  0  0  0  0  0  0  0  0
  150.0034  136.7438  155.2672 H   0  0  0  0  0  0  0  0  0  0  0  0
  149.5689  138.1650  152.9278 H   0  0  0  0  0  0  0  0  0  0  0  0
  151.9831  141.2818  156.0077 H   0  0  0  0  0  0  0  0  0  0  0  0
  150.7216  142.0074  155.0303 H   0  0  0  0  0  0  0  0  0  0  0  0
  149.0567  141.4776  156.9145 H   0  0  0  0  0  0  0  0  0  0  0  0
  150.4159  140.9653  157.9022 H   0  0  0  0  0  0  0  0  0  0  0  0
  149.7771  143.6239  156.9227 H   0  0  0  0  0  0  0  0  0  0  0  0
  152.2890  142.7848  156.6424 H   0  0  0  0  0  0  0  0  0  0  0  0
  151.7656  144.4457  156.8481 H   0  0  0  0  0  0  0  0  0  0  0  0
  153.4587  144.0308  158.5112 H   0  0  0  0  0  0  0  0  0  0  0  0
  151.8642  141.5635  159.3229 H   0  0  0  0  0  0  0  0  0  0  0  0
  153.4039  141.5648  158.4984 H   0  0  0  0  0  0  0  0  0  0  0  0
  153.6798  141.1531  160.9406 H   0  0  0  0  0  0  0  0  0  0  0  0
  154.5137  142.6036  160.4385 H   0  0  0  0  0  0  0  0  0  0  0  0
  151.7934  142.4734  161.8288 H   0  0  0  0  0  0  0  0  0  0  0  0
  153.2871  143.0439  162.5351 H   0  0  0  0  0  0  0  0  0  0  0  0
  151.8306  144.9422  161.7989 H   0  0  0  0  0  0  0  0  0  0  0  0
  153.3663  144.9498  160.9661 H   0  0  0  0  0  0  0  0  0  0  0  0
  151.5356  145.3607  159.3674 H   0  0  0  0  0  0  0  0  0  0  0  0
  150.7179  143.8981  159.8586 H   0  0  0  0  0  0  0  0  0  0  0  0
  150.8201  138.6731  157.0148 H   0  0  0  0  0  0  0  0  0  0  0  0
  150.1087  143.1307  158.4528 H   0  0  0  0  0  0  0  0  0  0  0  0
  1 15  2  0  0  0  0
  1  2  1  0  0  0  0
  1 16  1  0  0  0  0
  2  3  2  0  0  0  0
  2 17  1  0  0  0  0
  3  4  1  0  0  0  0
  4  5  1  0  0  0  0
  4 15  1  0  0  0  0
  5  6  1  0  0  0  0
  5 18  1  0  0  0  0
  5 19  1  0  0  0  0
  6  7  1  0  0  0  0
  6 20  1  0  0  0  0
  6 21  1  0  0  0  0
  7  8  1  0  0  0  0
  7 22  1  0  0  0  0
  7 37  1  0  0  0  0
  8  9  1  0  0  0  0
  8 23  1  0  0  0  0
  8 24  1  0  0  0  0
  9 14  1  0  0  0  0
  9 10  1  0  0  0  0
  9 25  1  0  0  0  0
 10 11  1  0  0  0  0
 10 26  1  0  0  0  0
 10 27  1  0  0  0  0
 11 12  1  0  0  0  0
 11 28  1  0  0  0  0
 11 29  1  0  0  0  0
 12 13  1  0  0  0  0
 12 30  1  0  0  0  0
 12 31  1  0  0  0  0
 13 14  1  0  0  0  0
 13 32  1  0  0  0  0
 13 33  1  0  0  0  0
 14 34  1  0  0  0  0
 14 35  1  0  0  0  0
 15 36  1  0  0  0  0
M  CHG  1   7   1
M  END
> <s_m_source_file>
AV-unprocessed.smi

> <i_m_source_file_index>
3107

> <i_lp_mmshare_version>
43012

> <i_f3d_flags>
0

> <s_epik_input>
W2NIXTFbY0hdW2NIXW5uMVtDSDJdW0NIMl1bTkhdW0NIMl1bQ0hdMltDSDJdW0NIMl1bQ0gyXVtDSDJdW0NIMl0y

> <s_epik_cmdline>
J2VwaWtfcHl0aG9uJywgJy1waCcsICc3LjAnLCAnLXRuJywgJzgnLCAnLW1hJywgJzIwMCcsICctbWV0YWxfYmluZGluZycsICctaW1hZScsICc8aW5maWxlLm1hZT4nLCAnLW9tYWUnLCAnPG91dGZpbGUubWFlPic=

> <r_lp_tautomer_probability>
1

> <r_epik_Ionization_Penalty>
0.00174339

> <r_epik_Ionization_Penalty_Charging>
0.00174052

> <r_epik_Ionization_Penalty_Neutral>
2.86298e-06

> <r_epik_State_Penalty>
-0

> <r_epik_Charging_Adjusted_Penalty>
0.00174052

> <i_epik_Tot_Q>
1

> <i_epik_Tot_abs_Q>
1

> <r_epik_Metal_State_Penalty>
-0

> <b_epik_Metal_Only>
0

> <s_lp_Force_Field>
OPLS_2005

> <r_lp_Energy>
13.3768

> <b_lp_Chiralities_Consistent>
1

> <s_lp_Variant>
AV-unprocessed.smi:3107-1

> <Gold.Version>
5.8.1

> <Gold.Id.Protein>
6NUR|6NUR_protein|mol2

> <Gold.PLP.Fitness>
53.4763

> <Gold.PLP.PLP>
-40.0852

> <Gold.PLP.part.hbond>
-2.0000

> <Gold.PLP.part.metal>
0.0000

> <Gold.PLP.part.buried>
-3.8929

> <Gold.PLP.part.nonpolar>
-34.3271

> <Gold.PLP.part.repulsive>
0.3704

> <Gold.PLP.ligand.clash>
0.0000

> <Gold.PLP.ligand.torsion>
0.5294

> <Gold.PLP.Chemscore.Hbond>
3.0000

> <Gold.PLP.Chemscore.CHOScore>
1.7738

> <Gold.PLP.Chemscore.Metal>
0.0000

> <Gold.Chemscore.Hbonds>
donor molecule, donor type, donor heavy atom, donor atom, acceptor molecule, acceptor atom, score
      L1  H     7    22       P1  8028  2.00
      P1  H  7989  7998       L1     3  0.50
      L1  C     2    17       P1  7948  1.00
      L1  C     2    17       P1  7957  0.60

> <Gold.PLP.Chemscore.Internal.Correction>
0.1284

> <Gold.Rescore>
     Score         DG    S(hbond)    S(metal)    S(lipo)     H(rot)  DE(clash)    DE(int)     intcor
     20.16     -20.90       1.87        0.00     113.13       1.59       0.03       0.71       ----

> <Gold.Chemscore.Fitness>
20.1613

> <Gold.Chemscore.DG>
-20.9043

> <Gold.Chemscore.ZeroCoef>
-5.4800

> <Gold.Chemscore.Hbond>
1.8718

> <Gold.Chemscore.Metal>
0.0000

> <Gold.Chemscore.Lipo>
113.1271

> <Gold.Chemscore.Internal_Hbond>
0.0000

> <Gold.Chemscore.DEClash>
0.0333

> <Gold.Chemscore.DEInternal>
0.7097

> <Gold.Chemscore.Rot>
1.5872

> <Gold.Chemscore.Internal.Correction>
   9.000000E+99

> <Gold.Chemscore.Hbonds>
donor molecule, donor type, donor heavy atom, donor atom, acceptor molecule, acceptor atom, score
      L1  H     7    22       P1  8028  0.98
      P1  H  7989  7998       L1     3  0.02

> <Gold.Chemscore.Hbond.Weighted>
-6.2517

> <Gold.Chemscore.Metal.Weighted>
-0.0000

> <Gold.Chemscore.Lipo.Weighted>
-13.2359

> <Gold.Chemscore.Internal_Hbond.Weighted>
0.0000

> <Gold.Chemscore.DEClash.Weighted>
0.0333

> <Gold.Chemscore.DEInternal.Weighted>
0.7097

> <Gold.Chemscore.Rot.Weighted>
4.0633

> <Gold.Chemscore.Internal.Correction.Weighted>
   9.000000E+99

> <Gold.Protein.RotatedTorsions>
[ 6907 6896 6895 6894 ] final  -45.93 input  -60.11 | X-H torsion
[ 7974 7965 7964 7962 ] final  127.80 input  175.53 | X-H torsion
[ 8008 7997 7996 7995 ] final  -41.10 input   59.86 | X-H torsion
[ 10167 10162 10161 10158 ] final  165.32 input  -65.29 | X-H torsion
[ 10718 10713 10712 10709 ] final  -50.47 input   66.30 | X-H torsion
[ 10763 10752 10751 10750 ] final -120.08 input  -60.55 | X-H torsion
[ 11005 11000 10999 10996 ] final  179.35 input  -57.11 | X-H torsion

> <Gold.Protein.ActiveResidues>
 VAL166  LYS551  ARG553  GLY616  TRP617  ASP618  TYR619  PRO620  LYS621  CYS622 
 ASP623  PHE694  ASN695  SER759  ASP760  ASP761  ALA762  ILE779  LEU786  VAL792 
 PHE793  MET794  SER795  GLU796  ALA797  LYS798  CYS799  TRP800  GLU811  SER814 

> <Gold.Protein.RotatedAtoms>
  150.9167  134.8584  159.7461 H   0  0  0  0  0  0  0  0  0  0  0  0  # atno 6907 bound_to 6896
  152.4972  134.4279  159.9512 H   0  0  0  0  0  0  0  0  0  0  0  0  # atno 6908 bound_to 6896
  151.4316  133.3629  159.2804 H   0  0  0  0  0  0  0  0  0  0  0  0  # atno 6909 bound_to 6896
  145.0466  139.3918  143.5075 H   0  0  0  0  0  0  0  0  0  0  0  0  # atno 7974 bound_to 7965
  154.4006  140.1508  156.3136 H   0  0  0  0  0  0  0  0  0  0  0  0  # atno 8008 bound_to 7997
  155.8593  140.3454  155.5724 H   0  0  0  0  0  0  0  0  0  0  0  0  # atno 8009 bound_to 7997
  155.7897  140.0855  157.2006 H   0  0  0  0  0  0  0  0  0  0  0  0  # atno 8010 bound_to 7997
  139.4904  144.4144  151.9261 H   0  0  0  0  0  0  0  0  0  0  0  0  # atno 10167 bound_to 10162
  156.1798  130.4150  149.9524 H   0  0  0  0  0  0  0  0  0  0  0  0  # atno 10718 bound_to 10713
  154.8635  135.4215  154.2403 H   0  0  0  0  0  0  0  0  0  0  0  0  # atno 10763 bound_to 10752
  153.3369  135.6991  153.6905 H   0  0  0  0  0  0  0  0  0  0  0  0  # atno 10764 bound_to 10752
  153.5899  135.3557  155.2880 H   0  0  0  0  0  0  0  0  0  0  0  0  # atno 10765 bound_to 10752
  140.4052  134.6742  157.4584 H   0  0  0  0  0  0  0  0  0  0  0  0  # atno 11005 bound_to 11000
  146.3514  140.0095  142.8668 LP  0  0  0  0  0  0  0  0  0  0  0  0  # atno 17320 bound_to 7965
  145.1580  140.9658  143.4394 LP  0  0  0  0  0  0  0  0  0  0  0  0  # atno 17321 bound_to 7965
  140.3587  144.3000  150.5937 LP  0  0  0  0  0  0  0  0  0  0  0  0  # atno 17342 bound_to 10162
  140.5422  143.2221  151.8066 LP  0  0  0  0  0  0  0  0  0  0  0  0  # atno 17343 bound_to 10162
  156.7298  130.9039  151.3625 LP  0  0  0  0  0  0  0  0  0  0  0  0  # atno 17370 bound_to 10713
  157.6860  130.9186  150.0388 LP  0  0  0  0  0  0  0  0  0  0  0  0  # atno 17371 bound_to 10713
  140.0307  134.6410  155.9110 LP  0  0  0  0  0  0  0  0  0  0  0  0  # atno 17394 bound_to 11000
  141.1842  133.6552  156.5147 LP  0  0  0  0  0  0  0  0  0  0  0  0  # atno 17395 bound_to 11000

$$$$
