AV-unprocessed.smi:1071|AV-procd|sdf|4679|dock10
  -GOLD-   22720 3193D 1   1.00000     0.00000
 Structure written by MMmdl.
 47 48  0  0  0  0  0  0  0  0  2 V2000
  137.7839  136.4369  158.0759 C   0  0  0  0  0  0  0  0  0  0  0  0
  138.5161  136.5000  156.8619 O   0  0  0  0  0  0  0  0  0  0  0  0
  137.7774  137.0284  155.7693 C   0  0  0  0  0  0  0  0  0  0  0  0
  138.5216  136.8547  154.4373 C   0  0  0  0  0  0  0  0  0  0  0  0
  139.8388  137.3767  154.5818 O   0  0  0  0  0  0  0  0  0  0  0  0
  140.9038  136.6006  154.1722 C   0  0  0  0  0  0  0  0  0  0  0  0
  142.2099  137.0911  154.3701 C   0  0  0  0  0  0  0  0  0  0  0  0
  143.3028  136.3054  153.9568 C   0  0  0  0  0  0  0  0  0  0  0  0
  143.0531  135.0449  153.3640 C   0  0  0  0  0  0  0  0  0  0  0  0
  144.0667  134.1705  152.8873 N   0  0  0  0  0  0  0  0  0  0  0  0
  144.0694  133.4104  151.7741 C   0  0  0  0  0  0  0  0  0  0  0  0
  143.1739  133.4624  150.9307 O   0  0  0  0  0  0  0  0  0  0  0  0
  145.1877  132.6502  151.6139 N   0  0  0  0  0  0  0  0  0  0  0  0
  146.4598  132.8516  152.3414 C   0  0  0  0  0  0  0  0  0  0  0  0
  146.9227  131.5615  153.0346 C   0  0  0  0  0  0  0  0  0  0  0  0
  147.0173  130.4456  152.0690 N   0  3  1  0  0  0  0  0  0  0  0  0
  147.5550  129.2112  152.6800 C   0  0  0  0  0  0  0  0  0  0  0  0
  145.7375  130.2170  151.3617 C   0  0  0  0  0  0  0  0  0  0  0  0
  145.2032  131.4978  150.6856 C   0  0  2  0  0  0  0  0  0  0  0  0
  145.9409  131.8529  149.3826 C   0  0  0  0  0  0  0  0  0  0  0  0
  141.7089  134.6534  153.1961 C   0  0  0  0  0  0  0  0  0  0  0  0
  140.6572  135.4009  153.5904 N   0  0  0  0  0  0  0  0  0  0  0  0
  138.4296  136.0602  158.8691 H   0  0  0  0  0  0  0  0  0  0  0  0
  136.9284  135.7660  158.0007 H   0  0  0  0  0  0  0  0  0  0  0  0
  137.4297  137.4242  158.3749 H   0  0  0  0  0  0  0  0  0  0  0  0
  136.7771  136.5950  155.7232 H   0  0  0  0  0  0  0  0  0  0  0  0
  137.6440  138.0936  155.9601 H   0  0  0  0  0  0  0  0  0  0  0  0
  138.5678  135.7947  154.1820 H   0  0  0  0  0  0  0  0  0  0  0  0
  137.9955  137.3749  153.6362 H   0  0  0  0  0  0  0  0  0  0  0  0
  142.3710  138.0562  154.8271 H   0  0  0  0  0  0  0  0  0  0  0  0
  144.3025  136.6894  154.0889 H   0  0  0  0  0  0  0  0  0  0  0  0
  144.9124  134.1500  153.4383 H   0  0  0  0  0  0  0  0  0  0  0  0
  147.2178  133.1831  151.6310 H   0  0  0  0  0  0  0  0  0  0  0  0
  146.4166  133.6294  153.1037 H   0  0  0  0  0  0  0  0  0  0  0  0
  147.8952  131.7256  153.5000 H   0  0  0  0  0  0  0  0  0  0  0  0
  146.2276  131.2963  153.8330 H   0  0  0  0  0  0  0  0  0  0  0  0
  146.8873  128.8354  153.4565 H   0  0  0  0  0  0  0  0  0  0  0  0
  148.5314  129.3969  153.1289 H   0  0  0  0  0  0  0  0  0  0  0  0
  147.6782  128.4308  151.9283 H   0  0  0  0  0  0  0  0  0  0  0  0
  145.8593  129.4250  150.6212 H   0  0  0  0  0  0  0  0  0  0  0  0
  145.0016  129.8569  152.0827 H   0  0  0  0  0  0  0  0  0  0  0  0
  144.1887  131.2417  150.3774 H   0  0  0  0  0  0  0  0  0  0  0  0
  145.8764  131.0362  148.6635 H   0  0  0  0  0  0  0  0  0  0  0  0
  146.9980  132.0546  149.5553 H   0  0  0  0  0  0  0  0  0  0  0  0
  145.5055  132.7359  148.9135 H   0  0  0  0  0  0  0  0  0  0  0  0
  141.4673  133.7070  152.7346 H   0  0  0  0  0  0  0  0  0  0  0  0
  147.6834  130.7326  151.3659 H   0  0  0  0  0  0  0  0  0  0  0  0
  1  2  1  0  0  0  0
  1 23  1  0  0  0  0
  1 24  1  0  0  0  0
  1 25  1  0  0  0  0
  2  3  1  0  0  0  0
  3  4  1  0  0  0  0
  3 26  1  0  0  0  0
  3 27  1  0  0  0  0
  4  5  1  0  0  0  0
  4 28  1  0  0  0  0
  4 29  1  0  0  0  0
  5  6  1  0  0  0  0
  6 22  1  0  0  0  0
  6  7  2  0  0  0  0
  7  8  1  0  0  0  0
  7 30  1  0  0  0  0
  8  9  2  0  0  0  0
  8 31  1  0  0  0  0
  9 10  1  0  0  0  0
  9 21  1  0  0  0  0
 10 11  1  0  0  0  0
 10 32  1  0  0  0  0
 11 12  2  0  0  0  0
 11 13  1  0  0  0  0
 13 19  1  0  0  0  0
 13 14  1  0  0  0  0
 14 15  1  0  0  0  0
 14 33  1  0  0  0  0
 14 34  1  0  0  0  0
 15 16  1  0  0  0  0
 15 35  1  0  0  0  0
 15 36  1  0  0  0  0
 16 17  1  0  0  0  0
 16 18  1  0  0  0  0
 16 47  1  0  0  0  0
 17 37  1  0  0  0  0
 17 38  1  0  0  0  0
 17 39  1  0  0  0  0
 18 19  1  0  0  0  0
 18 40  1  0  0  0  0
 18 41  1  0  0  0  0
 19 20  1  0  0  0  0
 19 42  1  0  0  0  0
 20 43  1  0  0  0  0
 20 44  1  0  0  0  0
 20 45  1  0  0  0  0
 21 22  2  0  0  0  0
 21 46  1  0  0  0  0
M  CHG  1  16   1
M  END
> <s_m_source_file>
AV-unprocessed.smi

> <i_m_source_file_index>
1071

> <i_lp_mmshare_version>
43012

> <i_f3d_flags>
0

> <s_epik_input>
W0NIM11PW0NIMl1bQ0gyXU9jMVtjSF1bY0hdYyhbY0hdbjEpW05IXUMoPU8pTjJbQ0gyXVtDSDJdTihbQ0gzXSlbQ0gyXVtDQEhdMltDSDNd

> <s_epik_cmdline>
J2VwaWtfcHl0aG9uJywgJy1waCcsICc3LjAnLCAnLXRuJywgJzgnLCAnLW1hJywgJzIwMCcsICctbWV0YWxfYmluZGluZycsICctaW1hZScsICc8aW5maWxlLm1hZT4nLCAnLW9tYWUnLCAnPG91dGZpbGUubWFlPic=

> <r_lp_tautomer_probability>
1

> <r_epik_Ionization_Penalty>
0.25455

> <r_epik_Ionization_Penalty_Charging>
0.254506

> <r_epik_Ionization_Penalty_Neutral>
4.43365e-05

> <r_epik_State_Penalty>
0.245983

> <r_epik_Charging_Adjusted_Penalty>
0.500488

> <i_epik_Tot_Q>
1

> <i_epik_Tot_abs_Q>
1

> <r_epik_Metal_State_Penalty>
0.245987

> <b_epik_Metal_Only>
0

> <s_lp_Force_Field>
OPLS_2005

> <r_lp_Energy>
58.5188

> <b_lp_Chiralities_Consistent>
1

> <s_lp_Variant>
AV-unprocessed.smi:1071-3

> <Gold.Version>
5.8.1

> <Gold.Id.Protein>
6NUR|6NUR_protein|mol2

> <Gold.PLP.Fitness>
41.0066

> <Gold.PLP.PLP>
-36.6858

> <Gold.PLP.part.hbond>
-2.0059

> <Gold.PLP.part.metal>
0.0000

> <Gold.PLP.part.buried>
-8.5349

> <Gold.PLP.part.nonpolar>
-28.5414

> <Gold.PLP.part.repulsive>
2.9146

> <Gold.PLP.ligand.clash>
0.0000

> <Gold.PLP.ligand.torsion>
0.8495

> <Gold.PLP.Chemscore.Hbond>
1.9913

> <Gold.PLP.Chemscore.CHOScore>
0.0000

> <Gold.PLP.Chemscore.Metal>
0.0000

> <Gold.Chemscore.Hbonds>
donor molecule, donor type, donor heavy atom, donor atom, acceptor molecule, acceptor atom, score
      L1  H    16    47       P1 10747  1.00
      P1  H 11000 11005       L1     2  1.00

> <Gold.PLP.Chemscore.Internal.Correction>
0.0460

> <Gold.Rescore>
     Score         DG    S(hbond)    S(metal)    S(lipo)     H(rot)  DE(clash)    DE(int)     intcor
     14.88     -16.95       1.95        0.00      77.65       1.60       0.15       1.92       ----

> <Gold.Chemscore.Fitness>
14.8756

> <Gold.Chemscore.DG>
-16.9538

> <Gold.Chemscore.ZeroCoef>
-5.4800

> <Gold.Chemscore.Hbond>
1.9450

> <Gold.Chemscore.Metal>
0.0000

> <Gold.Chemscore.Lipo>
77.6493

> <Gold.Chemscore.Internal_Hbond>
0.0000

> <Gold.Chemscore.DEClash>
0.1537

> <Gold.Chemscore.DEInternal>
1.9246

> <Gold.Chemscore.Rot>
1.6045

> <Gold.Chemscore.Internal.Correction>
   9.000000E+99

> <Gold.Chemscore.Hbonds>
donor molecule, donor type, donor heavy atom, donor atom, acceptor molecule, acceptor atom, score
      L1  H    16    47       P1 10747  1.00
      P1  H 11000 11005       L1     2  0.78

> <Gold.Chemscore.Hbond.Weighted>
-6.4964

> <Gold.Chemscore.Metal.Weighted>
-0.0000

> <Gold.Chemscore.Lipo.Weighted>
-9.0850

> <Gold.Chemscore.Internal_Hbond.Weighted>
0.0000

> <Gold.Chemscore.DEClash.Weighted>
0.1537

> <Gold.Chemscore.DEInternal.Weighted>
1.9246

> <Gold.Chemscore.Rot.Weighted>
4.1075

> <Gold.Chemscore.Internal.Correction.Weighted>
   9.000000E+99

> <Gold.Protein.RotatedTorsions>
[ 6907 6896 6895 6894 ] final  -93.46 input  -60.11 | X-H torsion
[ 7974 7965 7964 7962 ] final  107.26 input  175.53 | X-H torsion
[ 8008 7997 7996 7995 ] final  162.66 input   59.86 | X-H torsion
[ 10167 10162 10161 10158 ] final  104.20 input  -65.29 | X-H torsion
[ 10718 10713 10712 10709 ] final -120.82 input   66.30 | X-H torsion
[ 10763 10752 10751 10750 ] final  -65.05 input  -60.55 | X-H torsion
[ 11005 11000 10999 10996 ] final  115.21 input  -57.11 | X-H torsion

> <Gold.Protein.ActiveResidues>
 VAL166  LYS551  ARG553  GLY616  TRP617  ASP618  TYR619  PRO620  LYS621  CYS622 
 ASP623  PHE694  ASN695  SER759  ASP760  ASP761  ALA762  ILE779  LEU786  VAL792 
 PHE793  MET794  SER795  GLU796  ALA797  LYS798  CYS799  TRP800  GLU811  SER814 

> <Gold.Protein.RotatedAtoms>
  150.6923  134.1963  159.4304 H   0  0  0  0  0  0  0  0  0  0  0  0  # atno 6907 bound_to 6896
  151.9931  134.9966  160.0571 H   0  0  0  0  0  0  0  0  0  0  0  0  # atno 6908 bound_to 6896
  152.1648  133.4570  159.4916 H   0  0  0  0  0  0  0  0  0  0  0  0  # atno 6909 bound_to 6896
  145.2959  139.2585  143.3839 H   0  0  0  0  0  0  0  0  0  0  0  0  # atno 7974 bound_to 7965
  156.2015  140.1744  156.7889 H   0  0  0  0  0  0  0  0  0  0  0  0  # atno 8008 bound_to 7997
  154.5598  140.0702  156.8832 H   0  0  0  0  0  0  0  0  0  0  0  0  # atno 8009 bound_to 7997
  155.2870  140.3353  155.4257 H   0  0  0  0  0  0  0  0  0  0  0  0  # atno 8010 bound_to 7997
  139.7197  144.7061  151.0892 H   0  0  0  0  0  0  0  0  0  0  0  0  # atno 10167 bound_to 10162
  156.1288  130.6380  150.9587 H   0  0  0  0  0  0  0  0  0  0  0  0  # atno 10718 bound_to 10713
  154.3393  135.6160  153.5588 H   0  0  0  0  0  0  0  0  0  0  0  0  # atno 10763 bound_to 10752
  152.9805  135.5765  154.4871 H   0  0  0  0  0  0  0  0  0  0  0  0  # atno 10764 bound_to 10752
  154.4572  135.2854  155.1716 H   0  0  0  0  0  0  0  0  0  0  0  0  # atno 10765 bound_to 10752
  139.9003  134.9580  156.7011 H   0  0  0  0  0  0  0  0  0  0  0  0  # atno 11005 bound_to 11000
  146.3169  140.3462  142.8652 LP  0  0  0  0  0  0  0  0  0  0  0  0  # atno 17320 bound_to 7965
  144.9133  140.7783  143.5793 LP  0  0  0  0  0  0  0  0  0  0  0  0  # atno 17321 bound_to 7965
  140.7751  143.5182  150.9568 LP  0  0  0  0  0  0  0  0  0  0  0  0  # atno 17342 bound_to 10162
  139.8869  143.7002  152.3150 LP  0  0  0  0  0  0  0  0  0  0  0  0  # atno 17343 bound_to 10162
  157.6468  131.0903  150.8136 LP  0  0  0  0  0  0  0  0  0  0  0  0  # atno 17370 bound_to 10713
  156.8224  130.4988  149.5341 LP  0  0  0  0  0  0  0  0  0  0  0  0  # atno 17371 bound_to 10713
  140.7150  133.9190  155.8109 LP  0  0  0  0  0  0  0  0  0  0  0  0  # atno 17394 bound_to 11000
  141.0271  134.0807  157.4056 LP  0  0  0  0  0  0  0  0  0  0  0  0  # atno 17395 bound_to 11000

$$$$
