AV-unprocessed.smi:2355|AV-procd|sdf|9392|dock10
  -GOLD-   2272013 23D 1   1.00000     0.00000
 Structure written by MMmdl.
 49 50  0  0  0  0  0  0  0  0  2 V2000
  153.6639  141.8844  162.0679 C   0  0  0  0  0  0  0  0  0  0  0  0
  153.0211  142.0040  160.7023 C   0  0  0  0  0  0  0  0  0  0  0  0
  152.6238  143.2577  160.1997 C   0  0  0  0  0  0  0  0  0  0  0  0
  152.0272  143.3042  158.9246 C   0  0  0  0  0  0  0  0  0  0  0  0
  151.5768  144.6184  158.3223 C   0  0  0  0  0  0  0  0  0  0  0  0
  151.8173  142.2049  158.1692 N   0  0  0  0  0  0  0  0  0  0  0  0
  152.1980  140.9921  158.6424 C   0  0  0  0  0  0  0  0  0  0  0  0
  152.0196  139.7779  157.9274 N   0  0  0  0  0  0  0  0  0  0  0  0
  151.0628  139.4794  157.0316 C   0  0  0  0  0  0  0  0  0  0  0  0
  150.1865  140.2522  156.6418 O   0  0  0  0  0  0  0  0  0  0  0  0
  151.1620  138.2078  156.6140 N   0  0  0  0  0  0  0  0  0  0  0  0
  150.2699  137.5490  155.6566 C   0  0  1  0  0  0  0  0  0  0  0  0
  150.2069  138.3820  154.3656 C   0  0  0  0  0  0  0  0  0  0  0  0
  150.6664  136.0602  155.4175 C   0  0  1  0  0  0  0  0  0  0  0  0
  151.0673  135.3594  156.7398 C   0  0  0  0  0  0  0  0  0  0  0  0
  149.5849  135.3495  154.6582 N   0  3  0  0  0  0  0  0  0  0  0  0
  149.9402  133.9447  154.3275 C   0  0  0  0  0  0  0  0  0  0  0  0
  148.8843  133.3240  153.3991 C   0  0  0  0  0  0  0  0  0  0  0  0
  147.6121  133.3797  154.0290 O   0  0  0  0  0  0  0  0  0  0  0  0
  147.2098  134.7189  154.2811 C   0  0  0  0  0  0  0  0  0  0  0  0
  148.2126  135.3988  155.2297 C   0  0  0  0  0  0  0  0  0  0  0  0
  152.8040  140.8577  159.9113 C   0  0  0  0  0  0  0  0  0  0  0  0
  154.0287  142.8508  162.4162 H   0  0  0  0  0  0  0  0  0  0  0  0
  154.5082  141.1953  162.0345 H   0  0  0  0  0  0  0  0  0  0  0  0
  152.9410  141.5084  162.7919 H   0  0  0  0  0  0  0  0  0  0  0  0
  152.7721  144.1594  160.7761 H   0  0  0  0  0  0  0  0  0  0  0  0
  151.9104  145.4638  158.9243 H   0  0  0  0  0  0  0  0  0  0  0  0
  150.4890  144.6519  158.2595 H   0  0  0  0  0  0  0  0  0  0  0  0
  151.9837  144.7367  157.3175 H   0  0  0  0  0  0  0  0  0  0  0  0
  152.6832  139.0478  158.1405 H   0  0  0  0  0  0  0  0  0  0  0  0
  151.9140  137.6466  156.9876 H   0  0  0  0  0  0  0  0  0  0  0  0
  149.2579  137.5810  156.0607 H   0  0  0  0  0  0  0  0  0  0  0  0
  149.5709  137.9040  153.6201 H   0  0  0  0  0  0  0  0  0  0  0  0
  151.1911  138.5317  153.9217 H   0  0  0  0  0  0  0  0  0  0  0  0
  149.7899  139.3704  154.5630 H   0  0  0  0  0  0  0  0  0  0  0  0
  151.5588  136.0457  154.7892 H   0  0  0  0  0  0  0  0  0  0  0  0
  151.8677  135.8934  157.2498 H   0  0  0  0  0  0  0  0  0  0  0  0
  151.4514  134.3544  156.5655 H   0  0  0  0  0  0  0  0  0  0  0  0
  150.2295  135.2866  157.4338 H   0  0  0  0  0  0  0  0  0  0  0  0
  150.9126  133.8944  153.8398 H   0  0  0  0  0  0  0  0  0  0  0  0
  150.0165  133.3606  155.2458 H   0  0  0  0  0  0  0  0  0  0  0  0
  148.8553  133.8407  152.4383 H   0  0  0  0  0  0  0  0  0  0  0  0
  149.1306  132.2821  153.1940 H   0  0  0  0  0  0  0  0  0  0  0  0
  147.1296  135.2697  153.3424 H   0  0  0  0  0  0  0  0  0  0  0  0
  146.2164  134.7102  154.7292 H   0  0  0  0  0  0  0  0  0  0  0  0
  148.1998  134.9101  156.2052 H   0  0  0  0  0  0  0  0  0  0  0  0
  147.8855  136.4285  155.3702 H   0  0  0  0  0  0  0  0  0  0  0  0
  153.1001  139.8855  160.2783 H   0  0  0  0  0  0  0  0  0  0  0  0
  149.5192  135.8365  153.7750 H   0  0  0  0  0  0  0  0  0  0  0  0
  1  2  1  0  0  0  0
  1 23  1  0  0  0  0
  1 24  1  0  0  0  0
  1 25  1  0  0  0  0
  2 22  1  0  0  0  0
  2  3  2  0  0  0  0
  3  4  1  0  0  0  0
  3 26  1  0  0  0  0
  4  5  1  0  0  0  0
  4  6  2  0  0  0  0
  5 27  1  0  0  0  0
  5 28  1  0  0  0  0
  5 29  1  0  0  0  0
  6  7  1  0  0  0  0
  7  8  1  0  0  0  0
  7 22  2  0  0  0  0
  8  9  1  0  0  0  0
  8 30  1  0  0  0  0
  9 10  2  0  0  0  0
  9 11  1  0  0  0  0
 11 12  1  0  0  0  0
 11 31  1  0  0  0  0
 12 13  1  0  0  0  0
 12 14  1  0  0  0  0
 12 32  1  0  0  0  0
 13 33  1  0  0  0  0
 13 34  1  0  0  0  0
 13 35  1  0  0  0  0
 14 15  1  0  0  0  0
 14 16  1  0  0  0  0
 14 36  1  0  0  0  0
 15 37  1  0  0  0  0
 15 38  1  0  0  0  0
 15 39  1  0  0  0  0
 16 21  1  0  0  0  0
 16 17  1  0  0  0  0
 16 49  1  0  0  0  0
 17 18  1  0  0  0  0
 17 40  1  0  0  0  0
 17 41  1  0  0  0  0
 18 19  1  0  0  0  0
 18 42  1  0  0  0  0
 18 43  1  0  0  0  0
 19 20  1  0  0  0  0
 20 21  1  0  0  0  0
 20 44  1  0  0  0  0
 20 45  1  0  0  0  0
 21 46  1  0  0  0  0
 21 47  1  0  0  0  0
 22 48  1  0  0  0  0
M  CHG  1  16   1
M  END
> <s_m_source_file>
AV-unprocessed.smi

> <i_m_source_file_index>
2355

> <i_lp_mmshare_version>
43012

> <i_f3d_flags>
0

> <s_epik_input>
W0NIM11jMVtjSF1jKFtDSDNdKW5jKFtjSF0xKVtOSF1DKD1PKVtOSF1bQ0BIXShbQ0gzXSlbQ0BIXShbQ0gzXSlOMltDSDJdW0NIMl1PW0NIMl1bQ0gyXTI=

> <s_epik_cmdline>
J2VwaWtfcHl0aG9uJywgJy1waCcsICc3LjAnLCAnLXRuJywgJzgnLCAnLW1hJywgJzIwMCcsICctbWV0YWxfYmluZGluZycsICctaW1hZScsICc8aW5maWxlLm1hZT4nLCAnLW9tYWUnLCAnPG91dGZpbGUubWFlPic=

> <r_epik_Ionization_Penalty>
0.602711

> <r_epik_Ionization_Penalty_Charging>
0.602531

> <r_epik_Ionization_Penalty_Neutral>
0.000180055

> <r_epik_State_Penalty>
0.617039

> <r_epik_Charging_Adjusted_Penalty>
1.21957

> <i_epik_Tot_Q>
1

> <i_epik_Tot_abs_Q>
1

> <r_epik_Metal_State_Penalty>
0.617075

> <b_epik_Metal_Only>
0

> <s_lp_Force_Field>
OPLS_2005

> <r_lp_Energy>
30.3549

> <b_lp_Chiralities_Consistent>
1

> <s_lp_Variant>
AV-unprocessed.smi:2355-8

> <Gold.Version>
5.8.1

> <Gold.Id.Protein>
6NUR|6NUR_protein|mol2

> <Gold.PLP.Fitness>
45.0309

> <Gold.PLP.PLP>
-39.7369

> <Gold.PLP.part.hbond>
-1.0000

> <Gold.PLP.part.metal>
0.0000

> <Gold.PLP.part.buried>
-3.6517

> <Gold.PLP.part.nonpolar>
-34.0759

> <Gold.PLP.part.repulsive>
0.2469

> <Gold.PLP.ligand.clash>
0.0000

> <Gold.PLP.ligand.torsion>
0.4214

> <Gold.PLP.Chemscore.Hbond>
2.0000

> <Gold.PLP.Chemscore.CHOScore>
0.0000

> <Gold.PLP.Chemscore.Metal>
0.0000

> <Gold.Chemscore.Hbonds>
donor molecule, donor type, donor heavy atom, donor atom, acceptor molecule, acceptor atom, score
      L1  H    16    49       P1  7948  2.00

> <Gold.PLP.Chemscore.Internal.Correction>
0.1367

> <Gold.Rescore>
     Score         DG    S(hbond)    S(metal)    S(lipo)     H(rot)  DE(clash)    DE(int)     intcor
     14.15     -16.85       0.92        0.00     102.55       1.45       0.00       2.70       ----

> <Gold.Chemscore.Fitness>
14.1513

> <Gold.Chemscore.DG>
-16.8520

> <Gold.Chemscore.ZeroCoef>
-5.4800

> <Gold.Chemscore.Hbond>
0.9210

> <Gold.Chemscore.Metal>
0.0000

> <Gold.Chemscore.Lipo>
102.5493

> <Gold.Chemscore.Internal_Hbond>
0.0000

> <Gold.Chemscore.DEClash>
0.0036

> <Gold.Chemscore.DEInternal>
2.6972

> <Gold.Chemscore.Rot>
1.4462

> <Gold.Chemscore.Internal.Correction>
   9.000000E+99

> <Gold.Chemscore.Hbonds>
donor molecule, donor type, donor heavy atom, donor atom, acceptor molecule, acceptor atom, score
      L1  H    16    49       P1  7948  0.38

> <Gold.Chemscore.Hbond.Weighted>
-3.0760

> <Gold.Chemscore.Metal.Weighted>
-0.0000

> <Gold.Chemscore.Lipo.Weighted>
-11.9983

> <Gold.Chemscore.Internal_Hbond.Weighted>
0.0000

> <Gold.Chemscore.DEClash.Weighted>
0.0036

> <Gold.Chemscore.DEInternal.Weighted>
2.6972

> <Gold.Chemscore.Rot.Weighted>
3.7023

> <Gold.Chemscore.Internal.Correction.Weighted>
   9.000000E+99

> <Gold.Protein.RotatedTorsions>
[ 6907 6896 6895 6894 ] final  169.08 input  -60.11 | X-H torsion
[ 7974 7965 7964 7962 ] final  111.76 input  175.53 | X-H torsion
[ 8008 7997 7996 7995 ] final  -82.37 input   59.86 | X-H torsion
[ 10167 10162 10161 10158 ] final  -40.31 input  -65.29 | X-H torsion
[ 10718 10713 10712 10709 ] final   36.32 input   66.30 | X-H torsion
[ 10763 10752 10751 10750 ] final  142.15 input  -60.55 | X-H torsion
[ 11005 11000 10999 10996 ] final    4.26 input  -57.11 | X-H torsion

> <Gold.Protein.ActiveResidues>
 VAL166  LYS551  ARG553  GLY616  TRP617  ASP618  TYR619  PRO620  LYS621  CYS622 
 ASP623  PHE694  ASN695  SER759  ASP760  ASP761  ALA762  ILE779  LEU786  VAL792 
 PHE793  MET794  SER795  GLU796  ALA797  LYS798  CYS799  TRP800  GLU811  SER814 

> <Gold.Protein.RotatedAtoms>
  151.8375  133.3418  159.3632 H   0  0  0  0  0  0  0  0  0  0  0  0  # atno 6907 bound_to 6896
  150.7245  134.5424  159.5763 H   0  0  0  0  0  0  0  0  0  0  0  0  # atno 6908 bound_to 6896
  152.2890  134.7744  160.0433 H   0  0  0  0  0  0  0  0  0  0  0  0  # atno 6909 bound_to 6896
  145.2381  139.2790  143.4132 H   0  0  0  0  0  0  0  0  0  0  0  0  # atno 7974 bound_to 7965
  154.6079  140.0634  156.9455 H   0  0  0  0  0  0  0  0  0  0  0  0  # atno 8008 bound_to 7997
  155.2022  140.3316  155.4323 H   0  0  0  0  0  0  0  0  0  0  0  0  # atno 8009 bound_to 7997
  156.2359  140.1862  156.7104 H   0  0  0  0  0  0  0  0  0  0  0  0  # atno 8010 bound_to 7997
  140.7038  143.3161  151.2906 H   0  0  0  0  0  0  0  0  0  0  0  0  # atno 10167 bound_to 10162
  157.3334  130.7510  149.6863 H   0  0  0  0  0  0  0  0  0  0  0  0  # atno 10718 bound_to 10713
  153.9511  135.2970  155.3438 H   0  0  0  0  0  0  0  0  0  0  0  0  # atno 10763 bound_to 10752
  154.7426  135.5018  153.9151 H   0  0  0  0  0  0  0  0  0  0  0  0  # atno 10764 bound_to 10752
  153.0993  135.6730  153.9811 H   0  0  0  0  0  0  0  0  0  0  0  0  # atno 10765 bound_to 10752
  140.5840  133.9987  155.8059 H   0  0  0  0  0  0  0  0  0  0  0  0  # atno 11005 bound_to 11000
  146.3336  140.2736  142.8607 LP  0  0  0  0  0  0  0  0  0  0  0  0  # atno 17320 bound_to 7965
  144.9614  140.8279  143.5511 LP  0  0  0  0  0  0  0  0  0  0  0  0  # atno 17321 bound_to 7965
  139.6600  144.0206  152.2686 LP  0  0  0  0  0  0  0  0  0  0  0  0  # atno 17342 bound_to 10162
  139.9770  144.6454  150.7936 LP  0  0  0  0  0  0  0  0  0  0  0  0  # atno 17343 bound_to 10162
  155.9698  130.4188  150.4347 LP  0  0  0  0  0  0  0  0  0  0  0  0  # atno 17370 bound_to 10713
  157.2383  131.0519  151.2452 LP  0  0  0  0  0  0  0  0  0  0  0  0  # atno 17371 bound_to 10713
  141.0978  133.9816  157.3130 LP  0  0  0  0  0  0  0  0  0  0  0  0  # atno 17394 bound_to 11000
  139.9304  135.0200  156.8381 LP  0  0  0  0  0  0  0  0  0  0  0  0  # atno 17395 bound_to 11000

$$$$
