AV-unprocessed.smi:693|AV-procd|sdf|3373|dock6
  -GOLD-   22720 0353D 1   1.00000     0.00000
 Structure written by MMmdl.
 46 47  0  0  0  0  0  0  0  0  1 V2000
  151.6976  144.5780  157.7741 C   0  0  0  0  0  0  0  0  0  0  0  0
  152.1405  144.1120  159.1453 C   0  0  0  0  0  0  0  0  0  0  0  0
  152.4010  145.0481  160.1675 C   0  0  0  0  0  0  0  0  0  0  0  0
  152.8117  144.5698  161.4269 C   0  0  0  0  0  0  0  0  0  0  0  0
  152.9463  143.1789  161.6142 C   0  0  0  0  0  0  0  0  0  0  0  0
  153.3796  142.6088  162.9502 C   0  0  0  0  0  0  0  0  0  0  0  0
  154.7409  143.1634  163.3994 C   0  0  0  0  0  0  0  0  0  0  0  0
  155.1735  142.5680  164.6583 N   0  0  0  0  0  0  0  0  0  0  0  0
  156.2217  142.9831  165.3902 C   0  0  0  0  0  0  0  0  0  0  0  0
  156.9142  143.9446  165.0522 O   0  0  0  0  0  0  0  0  0  0  0  0
  156.4300  142.2842  166.5351 N   0  0  0  0  0  0  0  0  0  0  0  0
  155.7416  141.0469  166.9370 C   0  0  0  0  0  0  0  0  0  0  0  0
  156.7031  139.8653  166.7277 C   0  0  0  0  0  0  0  0  0  0  0  0
  158.0181  140.0766  167.5025 C   0  0  0  0  0  0  0  0  0  0  0  0
  158.6437  141.4690  167.2334 C   0  0  2  0  0  0  0  0  0  0  0  0
  159.8813  141.7687  168.1099 C   0  0  0  0  0  0  0  0  0  0  0  0
  160.5942  143.0763  167.7496 C   0  0  0  0  0  0  0  0  0  0  0  0
  160.0189  144.2129  168.1499 N   0  0  0  0  0  0  0  0  0  0  0  0
  161.6608  143.0627  167.1390 O   0  0  0  0  0  0  0  0  0  0  0  0
  157.5698  142.5648  167.4176 C   0  0  0  0  0  0  0  0  0  0  0  0
  152.6608  142.3273  160.5263 C   0  0  0  0  0  0  0  0  0  0  0  0
  152.2665  142.7772  159.3157 N   0  0  0  0  0  0  0  0  0  0  0  0
  150.8396  145.2451  157.8599 H   0  0  0  0  0  0  0  0  0  0  0  0
  151.4120  143.7385  157.1386 H   0  0  0  0  0  0  0  0  0  0  0  0
  152.5058  145.1188  157.2818 H   0  0  0  0  0  0  0  0  0  0  0  0
  152.2882  146.1079  159.9914 H   0  0  0  0  0  0  0  0  0  0  0  0
  153.0169  145.2588  162.2331 H   0  0  0  0  0  0  0  0  0  0  0  0
  152.6130  142.8365  163.6919 H   0  0  0  0  0  0  0  0  0  0  0  0
  153.4236  141.5214  162.8774 H   0  0  0  0  0  0  0  0  0  0  0  0
  155.4973  142.9492  162.6441 H   0  0  0  0  0  0  0  0  0  0  0  0
  154.6987  144.2496  163.4967 H   0  0  0  0  0  0  0  0  0  0  0  0
  154.6412  141.7805  164.9989 H   0  0  0  0  0  0  0  0  0  0  0  0
  155.4622  141.1168  167.9893 H   0  0  0  0  0  0  0  0  0  0  0  0
  154.8087  140.8639  166.4038 H   0  0  0  0  0  0  0  0  0  0  0  0
  156.2302  138.9356  167.0446 H   0  0  0  0  0  0  0  0  0  0  0  0
  156.9195  139.7562  165.6641 H   0  0  0  0  0  0  0  0  0  0  0  0
  157.8201  139.9721  168.5701 H   0  0  0  0  0  0  0  0  0  0  0  0
  158.7144  139.2805  167.2395 H   0  0  0  0  0  0  0  0  0  0  0  0
  158.9609  141.4963  166.1891 H   0  0  0  0  0  0  0  0  0  0  0  0
  159.5852  141.8120  169.1593 H   0  0  0  0  0  0  0  0  0  0  0  0
  160.5978  140.9498  168.0348 H   0  0  0  0  0  0  0  0  0  0  0  0
  160.4520  145.1002  167.9391 H   0  0  0  0  0  0  0  0  0  0  0  0
  159.1516  144.1802  168.6660 H   0  0  0  0  0  0  0  0  0  0  0  0
  157.9988  143.5508  167.2333 H   0  0  0  0  0  0  0  0  0  0  0  0
  157.2279  142.5870  168.4536 H   0  0  0  0  0  0  0  0  0  0  0  0
  152.7473  141.2556  160.6302 H   0  0  0  0  0  0  0  0  0  0  0  0
  1  2  1  0  0  0  0
  1 23  1  0  0  0  0
  1 24  1  0  0  0  0
  1 25  1  0  0  0  0
  2 22  1  0  0  0  0
  2  3  2  0  0  0  0
  3  4  1  0  0  0  0
  3 26  1  0  0  0  0
  4  5  2  0  0  0  0
  4 27  1  0  0  0  0
  5  6  1  0  0  0  0
  5 21  1  0  0  0  0
  6  7  1  0  0  0  0
  6 28  1  0  0  0  0
  6 29  1  0  0  0  0
  7  8  1  0  0  0  0
  7 30  1  0  0  0  0
  7 31  1  0  0  0  0
  8  9  1  0  0  0  0
  8 32  1  0  0  0  0
  9 10  2  0  0  0  0
  9 11  1  0  0  0  0
 11 20  1  0  0  0  0
 11 12  1  0  0  0  0
 12 13  1  0  0  0  0
 12 33  1  0  0  0  0
 12 34  1  0  0  0  0
 13 14  1  0  0  0  0
 13 35  1  0  0  0  0
 13 36  1  0  0  0  0
 14 15  1  0  0  0  0
 14 37  1  0  0  0  0
 14 38  1  0  0  0  0
 15 16  1  0  0  0  0
 15 20  1  0  0  0  0
 15 39  1  0  0  0  0
 16 17  1  0  0  0  0
 16 40  1  0  0  0  0
 16 41  1  0  0  0  0
 17 18  1  0  0  0  0
 17 19  2  0  0  0  0
 18 42  1  0  0  0  0
 18 43  1  0  0  0  0
 20 44  1  0  0  0  0
 20 45  1  0  0  0  0
 21 22  2  0  0  0  0
 21 46  1  0  0  0  0
M  END
> <s_m_source_file>
AV-unprocessed.smi

> <i_m_source_file_index>
693

> <i_lp_mmshare_version>
43012

> <i_f3d_flags>
0

> <s_epik_input>
W0NIM11jMVtjSF1bY0hdYyhbY0hdbjEpW0NIMl1bQ0gyXVtOSF1DKD1PKU4yW0NIMl1bQ0gyXVtDSDJdW0NASF0oW0NIMl0yKVtDSDJdQyg9TylbTkgyXQ==

> <s_epik_cmdline>
J2VwaWtfcHl0aG9uJywgJy1waCcsICc3LjAnLCAnLXRuJywgJzgnLCAnLW1hJywgJzIwMCcsICctbWV0YWxfYmluZGluZycsICctaW1hZScsICc8aW5maWxlLm1hZT4nLCAnLW9tYWUnLCAnPG91dGZpbGUubWFlPic=

> <r_epik_Ionization_Penalty>
0.056948

> <r_epik_Ionization_Penalty_Charging>
0

> <r_epik_Ionization_Penalty_Neutral>
0.056948

> <r_epik_State_Penalty>
0.0490937

> <r_epik_Charging_Adjusted_Penalty>
0.0490937

> <i_epik_Tot_Q>
0

> <i_epik_Tot_abs_Q>
0

> <r_epik_Metal_State_Penalty>
0.0447689

> <b_epik_Metal_Only>
0

> <s_lp_Force_Field>
OPLS_2005

> <r_lp_Energy>
26.3335

> <b_lp_Chiralities_Consistent>
1

> <s_lp_Variant>
AV-unprocessed.smi:693-2

> <Gold.Version>
5.8.1

> <Gold.Id.Protein>
6NUR|6NUR_protein|mol2

> <Gold.PLP.Fitness>
50.6783

> <Gold.PLP.PLP>
-51.1596

> <Gold.PLP.part.hbond>
-4.0812

> <Gold.PLP.part.metal>
0.0000

> <Gold.PLP.part.buried>
-9.0307

> <Gold.PLP.part.nonpolar>
-38.2442

> <Gold.PLP.part.repulsive>
0.4738

> <Gold.PLP.ligand.clash>
0.0000

> <Gold.PLP.ligand.torsion>
0.2796

> <Gold.PLP.Chemscore.Hbond>
0.0000

> <Gold.PLP.Chemscore.CHOScore>
0.0000

> <Gold.PLP.Chemscore.Metal>
0.0000

> <Gold.PLP.Chemscore.Internal.Correction>
0.0780

> <Gold.Rescore>
     Score         DG    S(hbond)    S(metal)    S(lipo)     H(rot)  DE(clash)    DE(int)     intcor
     11.66     -12.32       0.00        0.00     107.70       2.25       0.17       0.49       ----

> <Gold.Chemscore.Fitness>
11.6599

> <Gold.Chemscore.DG>
-12.3175

> <Gold.Chemscore.ZeroCoef>
-5.4800

> <Gold.Chemscore.Hbond>
0.0000

> <Gold.Chemscore.Metal>
0.0000

> <Gold.Chemscore.Lipo>
107.6977

> <Gold.Chemscore.Internal_Hbond>
0.0000

> <Gold.Chemscore.DEClash>
0.1712

> <Gold.Chemscore.DEInternal>
0.4865

> <Gold.Chemscore.Rot>
2.2512

> <Gold.Chemscore.Internal.Correction>
   9.000000E+99

> <Gold.Chemscore.Hbond.Weighted>
-0.0000

> <Gold.Chemscore.Metal.Weighted>
-0.0000

> <Gold.Chemscore.Lipo.Weighted>
-12.6006

> <Gold.Chemscore.Internal_Hbond.Weighted>
0.0000

> <Gold.Chemscore.DEClash.Weighted>
0.1712

> <Gold.Chemscore.DEInternal.Weighted>
0.4865

> <Gold.Chemscore.Rot.Weighted>
5.7631

> <Gold.Chemscore.Internal.Correction.Weighted>
   9.000000E+99

> <Gold.Protein.RotatedTorsions>
[ 6907 6896 6895 6894 ] final   15.54 input  -60.11 | X-H torsion
[ 7974 7965 7964 7962 ] final -179.40 input  175.53 | X-H torsion
[ 8008 7997 7996 7995 ] final -115.83 input   59.86 | X-H torsion
[ 10167 10162 10161 10158 ] final  178.21 input  -65.29 | X-H torsion
[ 10718 10713 10712 10709 ] final  -57.50 input   66.30 | X-H torsion
[ 10763 10752 10751 10750 ] final   41.58 input  -60.55 | X-H torsion
[ 11005 11000 10999 10996 ] final -171.16 input  -57.11 | X-H torsion

> <Gold.Protein.ActiveResidues>
 VAL166  LYS551  ARG553  GLY616  TRP617  ASP618  TYR619  PRO620  LYS621  CYS622 
 ASP623  PHE694  ASN695  SER759  ASP760  ASP761  ALA762  ILE779  LEU786  VAL792 
 PHE793  MET794  SER795  GLU796  ALA797  LYS798  CYS799  TRP800  GLU811  SER814 

> <Gold.Protein.RotatedAtoms>
  151.8197  135.0655  160.0423 H   0  0  0  0  0  0  0  0  0  0  0  0  # atno 6907 bound_to 6896
  152.2960  133.5603  159.5596 H   0  0  0  0  0  0  0  0  0  0  0  0  # atno 6908 bound_to 6896
  150.7251  134.0277  159.3765 H   0  0  0  0  0  0  0  0  0  0  0  0  # atno 6909 bound_to 6896
  144.7136  140.0723  143.6429 H   0  0  0  0  0  0  0  0  0  0  0  0  # atno 7974 bound_to 7965
  155.0583  140.0393  157.2568 H   0  0  0  0  0  0  0  0  0  0  0  0  # atno 8008 bound_to 7997
  154.7081  140.2687  155.6631 H   0  0  0  0  0  0  0  0  0  0  0  0  # atno 8009 bound_to 7997
  156.2781  140.2727  156.1713 H   0  0  0  0  0  0  0  0  0  0  0  0  # atno 8010 bound_to 7997
  139.5284  144.2707  152.0630 H   0  0  0  0  0  0  0  0  0  0  0  0  # atno 10167 bound_to 10162
  156.1206  130.4166  150.0449 H   0  0  0  0  0  0  0  0  0  0  0  0  # atno 10718 bound_to 10713
  152.9904  135.6157  154.2811 H   0  0  0  0  0  0  0  0  0  0  0  0  # atno 10763 bound_to 10752
  154.2540  135.2784  155.2807 H   0  0  0  0  0  0  0  0  0  0  0  0  # atno 10764 bound_to 10752
  154.5263  135.5800  153.6779 H   0  0  0  0  0  0  0  0  0  0  0  0  # atno 10765 bound_to 10752
  140.5113  134.5798  157.5020 H   0  0  0  0  0  0  0  0  0  0  0  0  # atno 11005 bound_to 11000
  145.9773  139.2914  143.1063 LP  0  0  0  0  0  0  0  0  0  0  0  0  # atno 17320 bound_to 7965
  145.9050  140.9218  143.0483 LP  0  0  0  0  0  0  0  0  0  0  0  0  # atno 17321 bound_to 7965
  140.2167  144.4508  150.6361 LP  0  0  0  0  0  0  0  0  0  0  0  0  # atno 17342 bound_to 10162
  140.6445  143.2210  151.6216 LP  0  0  0  0  0  0  0  0  0  0  0  0  # atno 17343 bound_to 10162
  156.8388  130.9418  151.3633 LP  0  0  0  0  0  0  0  0  0  0  0  0  # atno 17370 bound_to 10713
  157.6389  130.8790  149.9412 LP  0  0  0  0  0  0  0  0  0  0  0  0  # atno 17371 bound_to 10713
  139.9657  134.7377  156.0143 LP  0  0  0  0  0  0  0  0  0  0  0  0  # atno 17394 bound_to 11000
  141.1384  133.6570  156.3658 LP  0  0  0  0  0  0  0  0  0  0  0  0  # atno 17395 bound_to 11000

$$$$
