AV-unprocessed.smi:2748|AV-procd|sdf|10582|dock3
  -GOLD-   2272015 33D 1   1.00000     0.00000
 Structure written by MMmdl.
 30 32  0  0  0  0  0  0  0  0  1 V2000
  146.7452  139.3692  152.4838 O   0  0  0  0  0  0  0  0  0  0  0  0
  147.6699  139.7208  153.2138 C   0  0  0  0  0  0  0  0  0  0  0  0
  148.7566  138.8657  153.4207 N   0  0  0  0  0  0  0  0  0  0  0  0
  149.8665  139.1416  154.2197 C   0  0  0  0  0  0  0  0  0  0  0  0
  150.7622  138.3051  154.3367 O   0  0  0  0  0  0  0  0  0  0  0  0
  149.8892  140.3992  154.8650 N   0  0  0  0  0  0  0  0  0  0  0  0
  151.0153  140.7035  155.7131 C   0  0  0  0  0  0  0  0  0  0  0  0
  150.6122  140.9639  157.1775 C   0  0  1  0  0  0  0  0  0  0  0  0
  151.7878  140.7445  158.1668 C   0  0  0  0  0  0  0  0  0  0  0  0
  151.9137  142.0884  158.7941 C   0  0  0  0  0  0  0  0  0  0  0  0
  152.8218  142.5098  159.7803 C   0  0  0  0  0  0  0  0  0  0  0  0
  152.7469  143.8516  160.2152 C   0  0  0  0  0  0  0  0  0  0  0  0
  151.7827  144.7306  159.6654 C   0  0  0  0  0  0  0  0  0  0  0  0
  150.8819  144.2794  158.6743 C   0  0  0  0  0  0  0  0  0  0  0  0
  150.9689  142.9412  158.2517 C   0  0  0  0  0  0  0  0  0  0  0  0
  150.1843  142.3335  157.3133 O   0  0  0  0  0  0  0  0  0  0  0  0
  148.8280  141.2752  154.6971 C   0  0  0  0  0  0  0  0  0  0  0  0
  147.7522  140.9979  153.9216 C   0  0  0  0  0  0  0  0  0  0  0  0
  146.4669  142.1410  153.7628 Cl  0  0  0  0  0  0  0  0  0  0  0  0
  148.7340  137.9701  152.9552 H   0  0  0  0  0  0  0  0  0  0  0  0
  151.7295  139.8830  155.6157 H   0  0  0  0  0  0  0  0  0  0  0  0
  151.4995  141.5800  155.2789 H   0  0  0  0  0  0  0  0  0  0  0  0
  149.7802  140.3195  157.4641 H   0  0  0  0  0  0  0  0  0  0  0  0
  151.5526  139.9907  158.9188 H   0  0  0  0  0  0  0  0  0  0  0  0
  152.7174  140.4700  157.6673 H   0  0  0  0  0  0  0  0  0  0  0  0
  153.5536  141.8304  160.1918 H   0  0  0  0  0  0  0  0  0  0  0  0
  153.4298  144.2094  160.9716 H   0  0  0  0  0  0  0  0  0  0  0  0
  151.7348  145.7543  160.0069 H   0  0  0  0  0  0  0  0  0  0  0  0
  150.1444  144.9459  158.2523 H   0  0  0  0  0  0  0  0  0  0  0  0
  148.8542  142.2256  155.2113 H   0  0  0  0  0  0  0  0  0  0  0  0
  1  2  2  0  0  0  0
  2 18  1  0  0  0  0
  2  3  1  0  0  0  0
  3 20  1  0  0  0  0
  3  4  1  0  0  0  0
  4  5  2  0  0  0  0
  4  6  1  0  0  0  0
  6  7  1  0  0  0  0
  6 17  1  0  0  0  0
  7  8  1  0  0  0  0
  7 21  1  0  0  0  0
  7 22  1  0  0  0  0
  8 16  1  0  0  0  0
  8  9  1  0  0  0  0
  8 23  1  0  0  0  0
  9 10  1  0  0  0  0
  9 24  1  0  0  0  0
  9 25  1  0  0  0  0
 10 15  2  0  0  0  0
 10 11  1  0  0  0  0
 11 12  2  0  0  0  0
 11 26  1  0  0  0  0
 12 13  1  0  0  0  0
 12 27  1  0  0  0  0
 13 14  2  0  0  0  0
 13 28  1  0  0  0  0
 14 15  1  0  0  0  0
 14 29  1  0  0  0  0
 15 16  1  0  0  0  0
 17 18  2  0  0  0  0
 17 30  1  0  0  0  0
 18 19  1  0  0  0  0
M  END
> <s_m_source_file>
AV-unprocessed.smi

> <i_m_source_file_index>
2748

> <i_lp_mmshare_version>
43012

> <i_f3d_flags>
0

> <s_epik_input>
Tz1jMVtuSF1jKD1PKW4oW2NIXWMxQ2wpW0NIMl1bQ0BIXShbQ0gyXTIpT2MoYzIzKVtjSF1bY0hdW2NIXVtjSF0z

> <s_epik_cmdline>
J2VwaWtfcHl0aG9uJywgJy1waCcsICc3LjAnLCAnLXRuJywgJzgnLCAnLW1hJywgJzIwMCcsICctbWV0YWxfYmluZGluZycsICctaW1hZScsICc8aW5maWxlLm1hZT4nLCAnLW9tYWUnLCAnPG91dGZpbGUubWFlPic=

> <r_lp_tautomer_probability>
0.999537

> <r_epik_Ionization_Penalty>
0.0203523

> <r_epik_Ionization_Penalty_Charging>
0.0203523

> <r_epik_Ionization_Penalty_Neutral>
0

> <r_epik_State_Penalty>
0.0163078

> <r_epik_Charging_Adjusted_Penalty>
0.0366602

> <i_epik_Tot_Q>
0

> <i_epik_Tot_abs_Q>
0

> <r_epik_Metal_State_Penalty>
1.99317

> <b_epik_Metal_Only>
0

> <s_lp_Force_Field>
OPLS_2005

> <r_lp_Energy>
20.6728

> <b_lp_Chiralities_Consistent>
1

> <s_lp_Variant>
AV-unprocessed.smi:2748-2

> <Gold.Version>
5.8.1

> <Gold.Id.Protein>
6NUR|6NUR_protein|mol2

> <Gold.PLP.Fitness>
47.8327

> <Gold.PLP.PLP>
-42.4289

> <Gold.PLP.part.hbond>
-1.9562

> <Gold.PLP.part.metal>
0.0000

> <Gold.PLP.part.buried>
-3.4321

> <Gold.PLP.part.nonpolar>
-37.5637

> <Gold.PLP.part.repulsive>
0.6999

> <Gold.PLP.ligand.clash>
0.0000

> <Gold.PLP.ligand.torsion>
0.2373

> <Gold.PLP.Chemscore.Hbond>
0.9588

> <Gold.PLP.Chemscore.CHOScore>
1.0000

> <Gold.PLP.Chemscore.Metal>
0.0000

> <Gold.Chemscore.Hbonds>
donor molecule, donor type, donor heavy atom, donor atom, acceptor molecule, acceptor atom, score
      L1  H     3    20       P1  7948  0.98
      L1  C    17    30       P1  8028  1.00

> <Gold.PLP.Chemscore.Internal.Correction>
0.0021

> <Gold.Rescore>
     Score         DG    S(hbond)    S(metal)    S(lipo)     H(rot)  DE(clash)    DE(int)     intcor
     16.83     -17.77       0.97        0.00     106.04       1.31       0.70       0.24       ----

> <Gold.Chemscore.Fitness>
16.8320

> <Gold.Chemscore.DG>
-17.7694

> <Gold.Chemscore.ZeroCoef>
-5.4800

> <Gold.Chemscore.Hbond>
0.9712

> <Gold.Chemscore.Metal>
0.0000

> <Gold.Chemscore.Lipo>
106.0385

> <Gold.Chemscore.Internal_Hbond>
0.0000

> <Gold.Chemscore.DEClash>
0.6998

> <Gold.Chemscore.DEInternal>
0.2376

> <Gold.Chemscore.Rot>
1.3129

> <Gold.Chemscore.Internal.Correction>
   9.000000E+99

> <Gold.Chemscore.Hbonds>
donor molecule, donor type, donor heavy atom, donor atom, acceptor molecule, acceptor atom, score
      L1  H     3    20       P1  7948  0.91

> <Gold.Chemscore.Hbond.Weighted>
-3.2439

> <Gold.Chemscore.Metal.Weighted>
-0.0000

> <Gold.Chemscore.Lipo.Weighted>
-12.4065

> <Gold.Chemscore.Internal_Hbond.Weighted>
0.0000

> <Gold.Chemscore.DEClash.Weighted>
0.6998

> <Gold.Chemscore.DEInternal.Weighted>
0.2376

> <Gold.Chemscore.Rot.Weighted>
3.3610

> <Gold.Chemscore.Internal.Correction.Weighted>
   9.000000E+99

> <Gold.Protein.RotatedTorsions>
[ 6907 6896 6895 6894 ] final  120.90 input  -60.11 | X-H torsion
[ 7974 7965 7964 7962 ] final  -26.01 input  175.53 | X-H torsion
[ 8008 7997 7996 7995 ] final   40.39 input   59.86 | X-H torsion
[ 10167 10162 10161 10158 ] final  -54.21 input  -65.29 | X-H torsion
[ 10718 10713 10712 10709 ] final  118.16 input   66.30 | X-H torsion
[ 10763 10752 10751 10750 ] final  -19.55 input  -60.55 | X-H torsion
[ 11005 11000 10999 10996 ] final  -72.52 input  -57.11 | X-H torsion

> <Gold.Protein.ActiveResidues>
 VAL166  LYS551  ARG553  GLY616  TRP617  ASP618  TYR619  PRO620  LYS621  CYS622 
 ASP623  PHE694  ASN695  SER759  ASP760  ASP761  ALA762  ILE779  LEU786  VAL792 
 PHE793  MET794  SER795  GLU796  ALA797  LYS798  CYS799  TRP800  GLU811  SER814 

> <Gold.Protein.RotatedAtoms>
  152.4363  133.7366  159.6617 H   0  0  0  0  0  0  0  0  0  0  0  0  # atno 6907 bound_to 6896
  150.8247  133.8182  159.3130 H   0  0  0  0  0  0  0  0  0  0  0  0  # atno 6908 bound_to 6896
  151.5853  135.1058  160.0078 H   0  0  0  0  0  0  0  0  0  0  0  0  # atno 6909 bound_to 6896
  146.1453  140.4963  142.8634 H   0  0  0  0  0  0  0  0  0  0  0  0  # atno 7974 bound_to 7965
  155.2523  140.3353  155.4281 H   0  0  0  0  0  0  0  0  0  0  0  0  # atno 8008 bound_to 7997
  156.2210  140.1809  156.7519 H   0  0  0  0  0  0  0  0  0  0  0  0  # atno 8009 bound_to 7997
  154.5826  140.0651  156.9110 H   0  0  0  0  0  0  0  0  0  0  0  0  # atno 8010 bound_to 7997
  140.6443  143.2526  151.4904 H   0  0  0  0  0  0  0  0  0  0  0  0  # atno 10167 bound_to 10162
  157.6049  131.1045  150.7717 H   0  0  0  0  0  0  0  0  0  0  0  0  # atno 10718 bound_to 10713
  153.6065  135.6997  153.5363 H   0  0  0  0  0  0  0  0  0  0  0  0  # atno 10763 bound_to 10752
  153.3053  135.4117  155.1288 H   0  0  0  0  0  0  0  0  0  0  0  0  # atno 10764 bound_to 10752
  154.8572  135.3659  154.5602 H   0  0  0  0  0  0  0  0  0  0  0  0  # atno 10765 bound_to 10752
  141.1609  133.6849  156.7071 H   0  0  0  0  0  0  0  0  0  0  0  0  # atno 11005 bound_to 11000
  144.7839  140.5897  143.6586 LP  0  0  0  0  0  0  0  0  0  0  0  0  # atno 17320 bound_to 7965
  145.4951  139.1486  143.3688 LP  0  0  0  0  0  0  0  0  0  0  0  0  # atno 17321 bound_to 7965
  139.5653  144.2058  152.1755 LP  0  0  0  0  0  0  0  0  0  0  0  0  # atno 17342 bound_to 10162
  140.1338  144.5264  150.6786 LP  0  0  0  0  0  0  0  0  0  0  0  0  # atno 17343 bound_to 10162
  156.8108  130.4951  149.5356 LP  0  0  0  0  0  0  0  0  0  0  0  0  # atno 17370 bound_to 10713
  156.1132  130.6055  151.0080 LP  0  0  0  0  0  0  0  0  0  0  0  0  # atno 17371 bound_to 10713
  140.2915  134.8237  157.4020 LP  0  0  0  0  0  0  0  0  0  0  0  0  # atno 17394 bound_to 11000
  140.1343  134.5055  155.8081 LP  0  0  0  0  0  0  0  0  0  0  0  0  # atno 17395 bound_to 11000

$$$$
