AV-unprocessed.smi:2032|AV-procd|sdf|8257|dock6
  -GOLD-   2272010533D 1   1.00000     0.00000
 Structure written by MMmdl.
 42 43  0  0  0  0  0  0  0  0  3 V2000
  146.3574  132.0411  151.7435 C   0  0  0  0  0  0  0  0  0  0  0  0
  146.7838  133.4437  152.1913 C   0  0  2  0  0  0  0  0  0  0  0  0
  147.6747  133.4057  153.4464 C   0  0  0  0  0  0  0  0  0  0  0  0
  148.0219  134.7758  153.9182 N   0  3  2  0  0  0  0  0  0  0  0  0
  148.9094  134.7823  155.1300 C   0  0  1  0  0  0  0  0  0  0  0  0
  149.0689  136.2103  155.7095 C   0  0  0  0  0  0  0  0  0  0  0  0
  148.4105  133.8109  156.2323 C   0  0  0  0  0  0  0  0  0  0  0  0
  147.5422  134.4722  157.1996 N   0  0  0  0  0  0  0  0  0  0  0  0
  147.9346  134.9632  158.3817 C   0  0  0  0  0  0  0  0  0  0  0  0
  149.1162  134.8722  158.7222 O   0  0  0  0  0  0  0  0  0  0  0  0
  146.9334  135.5296  159.0918 N   0  5  0  0  0  0  0  0  0  0  0  0
  146.9917  135.5561  160.4332 C   0  0  0  0  0  0  0  0  0  0  0  0
  147.1043  136.6895  161.1351 N   0  0  0  0  0  0  0  0  0  0  0  0
  147.1566  136.4849  162.5151 C   0  0  0  0  0  0  0  0  0  0  0  0
  147.0909  135.1643  162.8719 C   0  0  0  0  0  0  0  0  0  0  0  0
  146.9608  134.1317  161.4768 S   0  0  0  0  0  0  0  0  0  0  0  0
  146.7760  135.5787  154.0733 C   0  0  0  0  0  0  0  0  0  0  0  0
  145.9088  135.5397  152.8008 C   0  0  2  0  0  0  0  0  0  0  0  0
  144.5830  136.2875  152.9826 C   0  0  0  0  0  0  0  0  0  0  0  0
  145.6106  134.1902  152.4767 O   0  0  0  0  0  0  0  0  0  0  0  0
  147.2236  131.4254  151.5002 H   0  0  0  0  0  0  0  0  0  0  0  0
  145.7266  132.0905  150.8557 H   0  0  0  0  0  0  0  0  0  0  0  0
  145.7927  131.5310  152.5244 H   0  0  0  0  0  0  0  0  0  0  0  0
  147.3246  133.9177  151.3699 H   0  0  0  0  0  0  0  0  0  0  0  0
  147.1722  132.8632  154.2492 H   0  0  0  0  0  0  0  0  0  0  0  0
  148.5702  132.8442  153.1878 H   0  0  0  0  0  0  0  0  0  0  0  0
  149.8962  134.4396  154.8139 H   0  0  0  0  0  0  0  0  0  0  0  0
  149.6446  136.2195  156.6345 H   0  0  0  0  0  0  0  0  0  0  0  0
  148.0990  136.6586  155.9266 H   0  0  0  0  0  0  0  0  0  0  0  0
  149.6086  136.8741  155.0360 H   0  0  0  0  0  0  0  0  0  0  0  0
  147.8830  132.9696  155.7796 H   0  0  0  0  0  0  0  0  0  0  0  0
  149.2386  133.4057  156.8124 H   0  0  0  0  0  0  0  0  0  0  0  0
  146.5667  134.5665  156.9576 H   0  0  0  0  0  0  0  0  0  0  0  0
  147.2434  137.3386  163.1707 H   0  0  0  0  0  0  0  0  0  0  0  0
  147.1125  134.7371  163.8630 H   0  0  0  0  0  0  0  0  0  0  0  0
  146.2101  135.2082  154.9297 H   0  0  0  0  0  0  0  0  0  0  0  0
  147.0090  136.6247  154.2630 H   0  0  0  0  0  0  0  0  0  0  0  0
  146.4520  135.9986  151.9725 H   0  0  0  0  0  0  0  0  0  0  0  0
  144.7530  137.3377  153.2215 H   0  0  0  0  0  0  0  0  0  0  0  0
  143.9910  135.8527  153.7884 H   0  0  0  0  0  0  0  0  0  0  0  0
  143.9848  136.2474  152.0719 H   0  0  0  0  0  0  0  0  0  0  0  0
  148.5498  135.2116  153.1755 H   0  0  0  0  0  0  0  0  0  0  0  0
  1  2  1  0  0  0  0
  1 21  1  0  0  0  0
  1 22  1  0  0  0  0
  1 23  1  0  0  0  0
  2 20  1  0  0  0  0
  2  3  1  0  0  0  0
  2 24  1  0  0  0  0
  3  4  1  0  0  0  0
  3 25  1  0  0  0  0
  3 26  1  0  0  0  0
  4  5  1  0  0  0  0
  4 17  1  0  0  0  0
  4 42  1  0  0  0  0
  5  6  1  0  0  0  0
  5  7  1  0  0  0  0
  5 27  1  0  0  0  0
  6 28  1  0  0  0  0
  6 29  1  0  0  0  0
  6 30  1  0  0  0  0
  7  8  1  0  0  0  0
  7 31  1  0  0  0  0
  7 32  1  0  0  0  0
  8  9  1  0  0  0  0
  8 33  1  0  0  0  0
  9 10  2  0  0  0  0
  9 11  1  0  0  0  0
 11 12  1  0  0  0  0
 12 16  1  0  0  0  0
 12 13  2  0  0  0  0
 13 14  1  0  0  0  0
 14 15  2  0  0  0  0
 14 34  1  0  0  0  0
 15 16  1  0  0  0  0
 15 35  1  0  0  0  0
 17 18  1  0  0  0  0
 17 36  1  0  0  0  0
 17 37  1  0  0  0  0
 18 19  1  0  0  0  0
 18 20  1  0  0  0  0
 18 38  1  0  0  0  0
 19 39  1  0  0  0  0
 19 40  1  0  0  0  0
 19 41  1  0  0  0  0
M  CHG  1   4   1
M  CHG  1  11  -1
M  END
> <s_m_source_file>
AV-unprocessed.smi

> <i_m_source_file_index>
2032

> <i_lp_mmshare_version>
43012

> <i_f3d_flags>
0

> <s_epik_input>
W0NIM11bQ0BASF0xW0NIMl1OKFtDSDJdW0NASF0oTzEpW0NIM10pW0NASF0oW0NIM10pW0NIMl1bTkhdQyg9TylbTkhdYzJuW2NIXVtjSF1zMg==

> <s_epik_cmdline>
J2VwaWtfcHl0aG9uJywgJy1waCcsICc3LjAnLCAnLXRuJywgJzgnLCAnLW1hJywgJzIwMCcsICctbWV0YWxfYmluZGluZycsICctaW1hZScsICc8aW5maWxlLm1hZT4nLCAnLW9tYWUnLCAnPG91dGZpbGUubWFlPic=

> <r_lp_tautomer_probability>
0.999

> <r_epik_Ionization_Penalty>
6.71699

> <r_epik_Ionization_Penalty_Charging>
5.88592

> <r_epik_Ionization_Penalty_Neutral>
0.831074

> <r_epik_State_Penalty>
6.08365

> <r_epik_Charging_Adjusted_Penalty>
11.9696

> <i_epik_Tot_Q>
0

> <i_epik_Tot_abs_Q>
2

> <r_epik_Metal_State_Penalty>
2.0947

> <b_epik_Metal_Only>
1

> <s_lp_Force_Field>
OPLS_2005

> <r_lp_Energy>
10.3148

> <b_lp_Chiralities_Consistent>
1

> <s_lp_Variant>
AV-unprocessed.smi:2032-27

> <Gold.Version>
5.8.1

> <Gold.Id.Protein>
6NUR|6NUR_protein|mol2

> <Gold.PLP.Fitness>
36.1063

> <Gold.PLP.PLP>
-27.0790

> <Gold.PLP.part.hbond>
-3.7588

> <Gold.PLP.part.metal>
0.0000

> <Gold.PLP.part.buried>
-1.7688

> <Gold.PLP.part.nonpolar>
-21.2577

> <Gold.PLP.part.repulsive>
0.1030

> <Gold.PLP.ligand.clash>
0.0000

> <Gold.PLP.ligand.torsion>
1.5318

> <Gold.PLP.Chemscore.Hbond>
4.0000

> <Gold.PLP.Chemscore.CHOScore>
0.0000

> <Gold.PLP.Chemscore.Metal>
0.0000

> <Gold.Chemscore.Hbonds>
donor molecule, donor type, donor heavy atom, donor atom, acceptor molecule, acceptor atom, score
      L1  H     4    42       P1  7948  2.00
      P1  H  6896  6908       L1    10  1.00
      P1  H  6934  6947       L1    13  0.23

> <Gold.PLP.Chemscore.Internal.Correction>
0.0909

> <Gold.Rescore>
     Score         DG    S(hbond)    S(metal)    S(lipo)     H(rot)  DE(clash)    DE(int)     intcor
     16.30     -17.83       2.83        0.00      59.44       1.58       0.03       1.49       ----

> <Gold.Chemscore.Fitness>
16.3028

> <Gold.Chemscore.DG>
-17.8316

> <Gold.Chemscore.ZeroCoef>
-5.4800

> <Gold.Chemscore.Hbond>
2.8262

> <Gold.Chemscore.Metal>
0.0000

> <Gold.Chemscore.Lipo>
59.4423

> <Gold.Chemscore.Internal_Hbond>
0.0000

> <Gold.Chemscore.DEClash>
0.0339

> <Gold.Chemscore.DEInternal>
1.4948

> <Gold.Chemscore.Rot>
1.5791

> <Gold.Chemscore.Internal.Correction>
   9.000000E+99

> <Gold.Chemscore.Hbonds>
donor molecule, donor type, donor heavy atom, donor atom, acceptor molecule, acceptor atom, score
      L1  H     4    42       P1  7948  0.85
      P1  H  6896  6908       L1    10  1.00
      P1  H  6934  6947       L1    13  0.09

> <Gold.Chemscore.Hbond.Weighted>
-9.4393

> <Gold.Chemscore.Metal.Weighted>
-0.0000

> <Gold.Chemscore.Lipo.Weighted>
-6.9547

> <Gold.Chemscore.Internal_Hbond.Weighted>
0.0000

> <Gold.Chemscore.DEClash.Weighted>
0.0339

> <Gold.Chemscore.DEInternal.Weighted>
1.4948

> <Gold.Chemscore.Rot.Weighted>
4.0425

> <Gold.Chemscore.Internal.Correction.Weighted>
   9.000000E+99

> <Gold.Protein.RotatedTorsions>
[ 6907 6896 6895 6894 ] final  170.86 input  -60.11 | X-H torsion
[ 7974 7965 7964 7962 ] final   56.88 input  175.53 | X-H torsion
[ 8008 7997 7996 7995 ] final   81.32 input   59.86 | X-H torsion
[ 10167 10162 10161 10158 ] final  -48.52 input  -65.29 | X-H torsion
[ 10718 10713 10712 10709 ] final  -72.02 input   66.30 | X-H torsion
[ 10763 10752 10751 10750 ] final   61.03 input  -60.55 | X-H torsion
[ 11005 11000 10999 10996 ] final -106.15 input  -57.11 | X-H torsion

> <Gold.Protein.ActiveResidues>
 VAL166  LYS551  ARG553  GLY616  TRP617  ASP618  TYR619  PRO620  LYS621  CYS622 
 ASP623  PHE694  ASN695  SER759  ASP760  ASP761  ALA762  ILE779  LEU786  VAL792 
 PHE793  MET794  SER795  GLU796  ALA797  LYS798  CYS799  TRP800  GLU811  SER814 

> <Gold.Protein.RotatedAtoms>
  151.8094  133.3380  159.3550 H   0  0  0  0  0  0  0  0  0  0  0  0  # atno 6907 bound_to 6896
  150.7331  134.5678  159.5884 H   0  0  0  0  0  0  0  0  0  0  0  0  # atno 6908 bound_to 6896
  152.3086  134.7526  160.0393 H   0  0  0  0  0  0  0  0  0  0  0  0  # atno 6909 bound_to 6896
  145.9350  139.3840  143.0398 H   0  0  0  0  0  0  0  0  0  0  0  0  # atno 7974 bound_to 7965
  155.8956  140.3436  155.5988 H   0  0  0  0  0  0  0  0  0  0  0  0  # atno 8008 bound_to 7997
  155.7560  140.0826  157.2197 H   0  0  0  0  0  0  0  0  0  0  0  0  # atno 8009 bound_to 7997
  154.4038  140.1544  156.2766 H   0  0  0  0  0  0  0  0  0  0  0  0  # atno 8010 bound_to 7997
  140.6727  143.2736  151.4082 H   0  0  0  0  0  0  0  0  0  0  0  0  # atno 10167 bound_to 10162
  156.0338  130.4363  150.2530 H   0  0  0  0  0  0  0  0  0  0  0  0  # atno 10718 bound_to 10713
  152.9938  135.5515  154.5968 H   0  0  0  0  0  0  0  0  0  0  0  0  # atno 10763 bound_to 10752
  154.5318  135.2814  155.1176 H   0  0  0  0  0  0  0  0  0  0  0  0  # atno 10764 bound_to 10752
  154.2488  135.6402  153.5285 H   0  0  0  0  0  0  0  0  0  0  0  0  # atno 10765 bound_to 10752
  141.1019  133.8869  157.1821 H   0  0  0  0  0  0  0  0  0  0  0  0  # atno 11005 bound_to 11000
  145.8375  140.9598  143.0816 LP  0  0  0  0  0  0  0  0  0  0  0  0  # atno 17320 bound_to 7965
  144.6770  140.0242  143.7483 LP  0  0  0  0  0  0  0  0  0  0  0  0  # atno 17321 bound_to 7965
  139.6003  144.1309  152.2191 LP  0  0  0  0  0  0  0  0  0  0  0  0  # atno 17342 bound_to 10162
  140.0691  144.5794  150.7205 LP  0  0  0  0  0  0  0  0  0  0  0  0  # atno 17343 bound_to 10162
  157.0631  131.0095  151.3216 LP  0  0  0  0  0  0  0  0  0  0  0  0  # atno 17370 bound_to 10713
  157.5055  130.7906  149.7650 LP  0  0  0  0  0  0  0  0  0  0  0  0  # atno 17371 bound_to 10713
  139.9873  135.0077  156.9893 LP  0  0  0  0  0  0  0  0  0  0  0  0  # atno 17394 bound_to 11000
  140.5001  134.1106  155.7249 LP  0  0  0  0  0  0  0  0  0  0  0  0  # atno 17395 bound_to 11000

$$$$
