AV-unprocessed.smi:148|AV-procd|sdf|1226|dock4
  -GOLD-   2262018423D 1   1.00000     0.00000
 Structure written by MMmdl.
 63 67  0  0  0  0  0  0  0  0  1 V2000
  150.2302  135.4344  157.8524 O   0  0  0  0  0  0  0  0  0  0  0  0
  149.1279  136.1576  157.3443 C   0  0  0  0  0  0  0  0  0  0  0  0
  149.3988  136.6652  155.9066 C   0  0  2  0  0  0  0  0  0  0  0  0
  150.2464  135.6730  155.0721 C   0  0  0  0  0  0  0  0  0  0  0  0
  149.4928  134.5190  154.6125 N   0  0  0  0  0  0  0  0  0  0  0  0
  149.9860  133.4438  153.9078 C   0  0  0  0  0  0  0  0  0  0  0  0
  149.1095  132.5235  153.6091 N   0  0  0  0  0  0  0  0  0  0  0  0
  147.9258  132.9995  154.1574 C   0  0  0  0  0  0  0  0  0  0  0  0
  146.5977  132.5028  154.2185 C   0  0  0  0  0  0  0  0  0  0  0  0
  146.2502  131.3228  153.6604 N   0  0  0  0  0  0  0  0  0  0  0  0
  147.0966  130.2521  154.1926 C   0  0  0  0  0  0  0  0  0  0  0  0
  146.5566  128.8699  153.8138 C   0  0  0  0  0  0  0  0  0  0  0  0
  146.4126  128.7701  152.2947 C   0  0  0  0  0  0  0  0  0  0  0  0
  145.5215  129.9077  151.7799 C   0  0  0  0  0  0  0  0  0  0  0  0
  146.0358  131.3125  152.1979 C   0  0  1  0  0  0  0  0  0  0  0  0
  145.0510  132.4264  151.6941 C   0  0  2  0  0  0  0  0  0  0  0  0
  144.6528  132.3253  150.2093 C   0  0  0  0  0  0  0  0  0  0  0  0
  144.0714  133.6889  149.8215 C   0  0  0  0  0  0  0  0  0  0  0  0
  144.5549  134.6775  150.8882 C   0  0  0  0  0  0  0  0  0  0  0  0
  145.5188  133.8977  151.7897 C   0  0  2  0  0  0  0  0  0  0  0  0
  146.8352  134.0529  151.2933 O   0  0  0  0  0  0  0  0  0  0  0  0
  145.6625  133.2542  154.8582 N   0  0  0  0  0  0  0  0  0  0  0  0
  146.0115  134.4194  155.4126 C   0  0  0  0  0  0  0  0  0  0  0  0
  147.2114  135.0042  155.4413 N   0  0  0  0  0  0  0  0  0  0  0  0
  148.1476  134.2514  154.7947 C   0  0  0  0  0  0  0  0  0  0  0  0
  150.0102  138.0890  155.8953 C   0  0  1  0  0  0  0  0  0  0  0  0
  151.4688  138.1631  156.3110 C   0  0  0  0  0  0  0  0  0  0  0  0
  151.8845  139.5252  155.7683 C   0  0  0  0  0  0  0  0  0  0  0  0
  151.1393  139.6979  154.5689 O   0  0  0  0  0  0  0  0  0  0  0  0
  150.0796  138.7472  154.5126 C   0  0  0  0  0  0  0  0  0  0  0  0
  150.5953  134.9112  157.1552 H   0  0  0  0  0  0  0  0  0  0  0  0
  148.2458  135.5180  157.3751 H   0  0  0  0  0  0  0  0  0  0  0  0
  148.9169  136.9893  158.0164 H   0  0  0  0  0  0  0  0  0  0  0  0
  148.4252  136.7321  155.4190 H   0  0  0  0  0  0  0  0  0  0  0  0
  150.6579  136.1658  154.1912 H   0  0  0  0  0  0  0  0  0  0  0  0
  151.1000  135.3244  155.6548 H   0  0  0  0  0  0  0  0  0  0  0  0
  151.0240  133.3652  153.6183 H   0  0  0  0  0  0  0  0  0  0  0  0
  148.1116  130.3630  153.8074 H   0  0  0  0  0  0  0  0  0  0  0  0
  147.1589  130.3304  155.2794 H   0  0  0  0  0  0  0  0  0  0  0  0
  147.2259  128.0920  154.1816 H   0  0  0  0  0  0  0  0  0  0  0  0
  145.5898  128.7058  154.2915 H   0  0  0  0  0  0  0  0  0  0  0  0
  147.3948  128.8275  151.8236 H   0  0  0  0  0  0  0  0  0  0  0  0
  145.9880  127.8045  152.0191 H   0  0  0  0  0  0  0  0  0  0  0  0
  145.4686  129.8200  150.6953 H   0  0  0  0  0  0  0  0  0  0  0  0
  144.5060  129.7645  152.1526 H   0  0  0  0  0  0  0  0  0  0  0  0
  147.0058  131.4534  151.7200 H   0  0  0  0  0  0  0  0  0  0  0  0
  144.1268  132.3360  152.2683 H   0  0  0  0  0  0  0  0  0  0  0  0
  145.5380  132.1315  149.6012 H   0  0  0  0  0  0  0  0  0  0  0  0
  143.9409  131.5211  150.0202 H   0  0  0  0  0  0  0  0  0  0  0  0
  144.3996  133.9813  148.8235 H   0  0  0  0  0  0  0  0  0  0  0  0
  142.9812  133.6540  149.8103 H   0  0  0  0  0  0  0  0  0  0  0  0
  145.0086  135.5706  150.4562 H   0  0  0  0  0  0  0  0  0  0  0  0
  143.6995  135.0089  151.4784 H   0  0  0  0  0  0  0  0  0  0  0  0
  145.4785  134.2984  152.8003 H   0  0  0  0  0  0  0  0  0  0  0  0
  147.1874  134.8632  151.6297 H   0  0  0  0  0  0  0  0  0  0  0  0
  145.2166  134.9587  155.9062 H   0  0  0  0  0  0  0  0  0  0  0  0
  149.4358  138.7379  156.5588 H   0  0  0  0  0  0  0  0  0  0  0  0
  151.6154  138.0835  157.3885 H   0  0  0  0  0  0  0  0  0  0  0  0
  152.0467  137.3746  155.8264 H   0  0  0  0  0  0  0  0  0  0  0  0
  151.6048  140.3140  156.4679 H   0  0  0  0  0  0  0  0  0  0  0  0
  152.9575  139.5954  155.5883 H   0  0  0  0  0  0  0  0  0  0  0  0
  150.3242  138.0123  153.7444 H   0  0  0  0  0  0  0  0  0  0  0  0
  149.1405  139.2256  154.2333 H   0  0  0  0  0  0  0  0  0  0  0  0
  1  2  1  0  0  0  0
  1 31  1  0  0  0  0
  2  3  1  0  0  0  0
  2 32  1  0  0  0  0
  2 33  1  0  0  0  0
  3  4  1  0  0  0  0
  3 26  1  0  0  0  0
  3 34  1  0  0  0  0
  4  5  1  0  0  0  0
  4 35  1  0  0  0  0
  4 36  1  0  0  0  0
  5 25  1  0  0  0  0
  5  6  1  0  0  0  0
  6  7  2  0  0  0  0
  6 37  1  0  0  0  0
  7  8  1  0  0  0  0
  8 25  2  0  0  0  0
  8  9  1  0  0  0  0
  9 10  1  0  0  0  0
  9 22  2  0  0  0  0
 10 15  1  0  0  0  0
 10 11  1  0  0  0  0
 11 12  1  0  0  0  0
 11 38  1  0  0  0  0
 11 39  1  0  0  0  0
 12 13  1  0  0  0  0
 12 40  1  0  0  0  0
 12 41  1  0  0  0  0
 13 14  1  0  0  0  0
 13 42  1  0  0  0  0
 13 43  1  0  0  0  0
 14 15  1  0  0  0  0
 14 44  1  0  0  0  0
 14 45  1  0  0  0  0
 15 16  1  0  0  0  0
 15 46  1  0  0  0  0
 16 20  1  0  0  0  0
 16 17  1  0  0  0  0
 16 47  1  0  0  0  0
 17 18  1  0  0  0  0
 17 48  1  0  0  0  0
 17 49  1  0  0  0  0
 18 19  1  0  0  0  0
 18 50  1  0  0  0  0
 18 51  1  0  0  0  0
 19 20  1  0  0  0  0
 19 52  1  0  0  0  0
 19 53  1  0  0  0  0
 20 21  1  0  0  0  0
 20 54  1  0  0  0  0
 21 55  1  0  0  0  0
 22 23  1  0  0  0  0
 23 24  2  0  0  0  0
 23 56  1  0  0  0  0
 24 25  1  0  0  0  0
 26 30  1  0  0  0  0
 26 27  1  0  0  0  0
 26 57  1  0  0  0  0
 27 28  1  0  0  0  0
 27 58  1  0  0  0  0
 27 59  1  0  0  0  0
 28 29  1  0  0  0  0
 28 60  1  0  0  0  0
 28 61  1  0  0  0  0
 29 30  1  0  0  0  0
 30 62  1  0  0  0  0
 30 63  1  0  0  0  0
M  END
> <s_m_source_file>
AV-unprocessed.smi

> <i_m_source_file_index>
148

> <i_lp_mmshare_version>
43012

> <i_f3d_flags>
0

> <s_epik_input>
W0NIMl0xT1tDSDJdW0NIMl1bQ0BIXTFbQ0BIXShbQ0gyXVtPSF0pW0NIMl1uKFtjSF1uMiljKGMyMyluW2NIXW5jM040W0NIMl1bQ0gyXVtDSDJdW0NIMl1bQ0BIXTRbQ0BASF01W0NIMl1bQ0gyXVtDSDJdW0NASF01W09IXQ==

> <s_epik_cmdline>
J2VwaWtfcHl0aG9uJywgJy1waCcsICc3LjAnLCAnLXRuJywgJzgnLCAnLW1hJywgJzIwMCcsICctbWV0YWxfYmluZGluZycsICctaW1hZScsICc8aW5maWxlLm1hZT4nLCAnLW9tYWUnLCAnPG91dGZpbGUubWFlPic=

> <r_lp_tautomer_probability>
1

> <r_epik_Ionization_Penalty>
0.00556303

> <r_epik_Ionization_Penalty_Charging>
0

> <r_epik_Ionization_Penalty_Neutral>
0.00556303

> <r_epik_State_Penalty>
0.00401767

> <r_epik_Charging_Adjusted_Penalty>
0.00401767

> <i_epik_Tot_Q>
0

> <i_epik_Tot_abs_Q>
0

> <r_epik_Metal_State_Penalty>
-0

> <b_epik_Metal_Only>
0

> <s_lp_Force_Field>
OPLS_2005

> <r_lp_Energy>
70.5735

> <b_lp_Chiralities_Consistent>
1

> <s_lp_Variant>
AV-unprocessed.smi:148-25

> <Gold.Version>
5.8.1

> <Gold.Id.Protein>
6NUR|6NUR_protein|mol2

> <Gold.PLP.Fitness>
45.4243

> <Gold.PLP.PLP>
-38.5843

> <Gold.PLP.part.hbond>
-3.0000

> <Gold.PLP.part.metal>
0.0000

> <Gold.PLP.part.buried>
-4.5221

> <Gold.PLP.part.nonpolar>
-30.2957

> <Gold.PLP.part.repulsive>
0.5336

> <Gold.PLP.ligand.clash>
0.0000

> <Gold.PLP.ligand.torsion>
0.9938

> <Gold.PLP.Chemscore.Hbond>
2.7255

> <Gold.PLP.Chemscore.CHOScore>
0.0000

> <Gold.PLP.Chemscore.Metal>
0.0000

> <Gold.Chemscore.Hbonds>
donor molecule, donor type, donor heavy atom, donor atom, acceptor molecule, acceptor atom, score
      L1  H    21    55       P1  7948  0.55
      P1  H  6896  6909       L1     1  0.72
      P1  H  7989  7998       L1    29  1.00

> <Gold.PLP.Chemscore.Internal.Correction>
0.6512

> <Gold.Rescore>
     Score         DG    S(hbond)    S(metal)    S(lipo)     H(rot)  DE(clash)    DE(int)     intcor
     10.60     -16.84       2.21        0.00     106.65       3.32       1.91       4.33       ----

> <Gold.Chemscore.Fitness>
10.6032

> <Gold.Chemscore.DG>
-16.8369

> <Gold.Chemscore.ZeroCoef>
-5.4800

> <Gold.Chemscore.Hbond>
2.2093

> <Gold.Chemscore.Metal>
0.0000

> <Gold.Chemscore.Lipo>
106.6491

> <Gold.Chemscore.Internal_Hbond>
0.0000

> <Gold.Chemscore.DEClash>
1.9051

> <Gold.Chemscore.DEInternal>
4.3286

> <Gold.Chemscore.Rot>
3.3203

> <Gold.Chemscore.Internal.Correction>
   9.000000E+99

> <Gold.Chemscore.Hbonds>
donor molecule, donor type, donor heavy atom, donor atom, acceptor molecule, acceptor atom, score
      L1  H    21    55       P1  7948  0.42
      P1  H  6896  6909       L1     1  0.47
      P1  H  7989  7998       L1    29  0.96

> <Gold.Chemscore.Hbond.Weighted>
-7.3790

> <Gold.Chemscore.Metal.Weighted>
-0.0000

> <Gold.Chemscore.Lipo.Weighted>
-12.4779

> <Gold.Chemscore.Internal_Hbond.Weighted>
0.0000

> <Gold.Chemscore.DEClash.Weighted>
1.9051

> <Gold.Chemscore.DEInternal.Weighted>
4.3286

> <Gold.Chemscore.Rot.Weighted>
8.5000

> <Gold.Chemscore.Internal.Correction.Weighted>
   9.000000E+99

> <Gold.Protein.RotatedTorsions>
[ 6907 6896 6895 6894 ] final   51.06 input  -60.11 | X-H torsion
[ 7974 7965 7964 7962 ] final  161.77 input  175.53 | X-H torsion
[ 8008 7997 7996 7995 ] final   41.79 input   59.86 | X-H torsion
[ 10167 10162 10161 10158 ] final -120.58 input  -65.29 | X-H torsion
[ 10718 10713 10712 10709 ] final  -47.72 input   66.30 | X-H torsion
[ 10763 10752 10751 10750 ] final  -74.83 input  -60.55 | X-H torsion
[ 11005 11000 10999 10996 ] final   18.32 input  -57.11 | X-H torsion

> <Gold.Protein.ActiveResidues>
 VAL166  LYS551  ARG553  GLY616  TRP617  ASP618  TYR619  PRO620  LYS621  CYS622 
 ASP623  PHE694  ASN695  SER759  ASP760  ASP761  ALA762  ILE779  LEU786  VAL792 
 PHE793  MET794  SER795  GLU796  ALA797  LYS798  CYS799  TRP800  GLU811  SER814 

> <Gold.Protein.RotatedAtoms>
  152.3086  134.7525  160.0341 H   0  0  0  0  0  0  0  0  0  0  0  0  # atno 6907 bound_to 6896
  151.8013  133.3365  159.3536 H   0  0  0  0  0  0  0  0  0  0  0  0  # atno 6908 bound_to 6896
  150.7309  134.5680  159.5920 H   0  0  0  0  0  0  0  0  0  0  0  0  # atno 6909 bound_to 6896
  144.7669  139.7945  143.6311 H   0  0  0  0  0  0  0  0  0  0  0  0  # atno 7974 bound_to 7965
  155.2755  140.3369  155.4262 H   0  0  0  0  0  0  0  0  0  0  0  0  # atno 8008 bound_to 7997
  156.2113  140.1771  156.7729 H   0  0  0  0  0  0  0  0  0  0  0  0  # atno 8009 bound_to 7997
  154.5691  140.0673  156.8921 H   0  0  0  0  0  0  0  0  0  0  0  0  # atno 8010 bound_to 7997
  140.0343  143.5217  152.2161 H   0  0  0  0  0  0  0  0  0  0  0  0  # atno 10167 bound_to 10162
  156.2057  130.4158  149.9181 H   0  0  0  0  0  0  0  0  0  0  0  0  # atno 10718 bound_to 10713
  154.4784  135.5851  153.6372 H   0  0  0  0  0  0  0  0  0  0  0  0  # atno 10763 bound_to 10752
  152.9844  135.6084  154.3278 H   0  0  0  0  0  0  0  0  0  0  0  0  # atno 10764 bound_to 10752
  154.3166  135.2844  155.2519 H   0  0  0  0  0  0  0  0  0  0  0  0  # atno 10765 bound_to 10752
  140.4262  134.1468  155.7676 H   0  0  0  0  0  0  0  0  0  0  0  0  # atno 11005 bound_to 11000
  146.1784  139.4966  142.9882 LP  0  0  0  0  0  0  0  0  0  0  0  0  # atno 17320 bound_to 7965
  145.6442  141.0278  143.1795 LP  0  0  0  0  0  0  0  0  0  0  0  0  # atno 17321 bound_to 7965
  139.6055  144.7595  151.3071 LP  0  0  0  0  0  0  0  0  0  0  0  0  # atno 17342 bound_to 10162
  140.7288  143.6925  150.7910 LP  0  0  0  0  0  0  0  0  0  0  0  0  # atno 17343 bound_to 10162
  156.6876  130.8883  151.3584 LP  0  0  0  0  0  0  0  0  0  0  0  0  # atno 17370 bound_to 10713
  157.7011  130.9334  150.0787 LP  0  0  0  0  0  0  0  0  0  0  0  0  # atno 17371 bound_to 10713
  141.1764  133.8505  157.1406 LP  0  0  0  0  0  0  0  0  0  0  0  0  # atno 17394 bound_to 11000
  140.0166  134.9965  157.0506 LP  0  0  0  0  0  0  0  0  0  0  0  0  # atno 17395 bound_to 11000

$$$$
