AV-unprocessed.smi:283|AV-procd|sdf|2153|dock7
  -GOLD-   2262021493D 1   1.00000     0.00000
 Structure written by MMmdl.
 48 51  0  0  0  0  0  0  0  0  1 V2000
  149.4935  142.2614  157.1999 C   0  0  0  0  0  0  0  0  0  0  0  0
  150.8471  141.7314  156.7085 C   0  0  2  0  0  0  0  0  0  0  0  0
  150.6408  140.5862  155.8229 N   0  0  0  0  0  0  0  0  0  0  0  0
  149.5168  140.4674  155.0808 C   0  0  0  0  0  0  0  0  0  0  0  0
  149.0025  141.5285  154.4056 N   0  0  0  0  0  0  0  0  0  0  0  0
  147.8920  141.3830  153.6780 C   0  0  0  0  0  0  0  0  0  0  0  0
  147.1503  140.2881  153.4997 N   0  0  0  0  0  0  0  0  0  0  0  0
  147.6562  139.2196  154.1812 C   0  0  0  0  0  0  0  0  0  0  0  0
  148.8278  139.2304  154.9891 C   0  0  0  0  0  0  0  0  0  0  0  0
  149.0391  137.9691  155.5295 N   0  0  0  0  0  0  0  0  0  0  0  0
  148.0458  137.2579  155.0684 C   0  0  0  0  0  0  0  0  0  0  0  0
  147.1634  137.9303  154.2518 N   0  0  0  0  0  0  0  0  0  0  0  0
  145.9399  137.3717  153.5882 C   0  0  2  0  0  0  0  0  0  0  0  0
  145.8436  136.0053  153.8669 O   0  0  0  0  0  0  0  0  0  0  0  0
  145.8321  135.2471  152.6586 C   0  0  1  0  0  0  0  0  0  0  0  0
  144.9768  133.9873  152.8655 C   0  0  0  0  0  0  0  0  0  0  0  0
  143.8050  134.2923  153.5912 O   0  0  0  0  0  0  0  0  0  0  0  0
  145.2936  136.2355  151.6205 C   0  0  2  0  0  0  0  0  0  0  0  0
  145.6091  135.8887  150.2855 O   0  0  0  0  0  0  0  0  0  0  0  0
  145.9408  137.5428  152.0564 C   0  0  2  0  0  0  0  0  0  0  0  0
  147.2364  137.7232  151.5040 O   0  0  0  0  0  0  0  0  0  0  0  0
  151.7779  141.4583  157.8926 C   0  0  0  0  0  0  0  0  0  0  0  0
  152.1074  140.1260  158.2340 C   0  0  0  0  0  0  0  0  0  0  0  0
  152.9647  139.8531  159.3164 C   0  0  0  0  0  0  0  0  0  0  0  0
  153.4967  140.9110  160.0754 C   0  0  0  0  0  0  0  0  0  0  0  0
  153.1665  142.2400  159.7523 C   0  0  0  0  0  0  0  0  0  0  0  0
  152.3094  142.5192  158.6688 C   0  0  0  0  0  0  0  0  0  0  0  0
  151.9302  144.1709  158.3250 Cl  0  0  0  0  0  0  0  0  0  0  0  0
  145.1062  137.8859  154.0682 H   0  0  0  0  0  0  0  0  0  0  0  0
  146.8612  134.9736  152.4214 H   0  0  0  0  0  0  0  0  0  0  0  0
  144.2104  136.3191  151.7198 H   0  0  0  0  0  0  0  0  0  0  0  0
  145.3315  138.4056  151.7853 H   0  0  0  0  0  0  0  0  0  0  0  0
  149.6197  143.1683  157.7924 H   0  0  0  0  0  0  0  0  0  0  0  0
  148.9803  141.5265  157.8211 H   0  0  0  0  0  0  0  0  0  0  0  0
  148.8394  142.5057  156.3623 H   0  0  0  0  0  0  0  0  0  0  0  0
  151.2889  142.5096  156.0870 H   0  0  0  0  0  0  0  0  0  0  0  0
  151.4233  139.9540  155.7347 H   0  0  0  0  0  0  0  0  0  0  0  0
  147.5486  142.2698  153.1662 H   0  0  0  0  0  0  0  0  0  0  0  0
  147.9270  136.2131  155.3160 H   0  0  0  0  0  0  0  0  0  0  0  0
  144.6776  133.5791  151.8998 H   0  0  0  0  0  0  0  0  0  0  0  0
  145.5397  133.2100  153.3828 H   0  0  0  0  0  0  0  0  0  0  0  0
  143.4763  133.4958  153.9796 H   0  0  0  0  0  0  0  0  0  0  0  0
  144.8801  136.1353  149.7366 H   0  0  0  0  0  0  0  0  0  0  0  0
  147.8592  137.2616  152.0445 H   0  0  0  0  0  0  0  0  0  0  0  0
  151.7046  139.3021  157.6635 H   0  0  0  0  0  0  0  0  0  0  0  0
  153.2137  138.8318  159.5639 H   0  0  0  0  0  0  0  0  0  0  0  0
  154.1549  140.7036  160.9062 H   0  0  0  0  0  0  0  0  0  0  0  0
  153.5729  143.0497  160.3403 H   0  0  0  0  0  0  0  0  0  0  0  0
  1  2  1  0  0  0  0
  1 33  1  0  0  0  0
  1 34  1  0  0  0  0
  1 35  1  0  0  0  0
  2  3  1  0  0  0  0
  2 22  1  0  0  0  0
  2 36  1  0  0  0  0
  3  4  1  0  0  0  0
  3 37  1  0  0  0  0
  4  9  1  0  0  0  0
  4  5  2  0  0  0  0
  5  6  1  0  0  0  0
  6  7  2  0  0  0  0
  6 38  1  0  0  0  0
  7  8  1  0  0  0  0
  8 12  1  0  0  0  0
  8  9  2  0  0  0  0
  9 10  1  0  0  0  0
 10 11  2  0  0  0  0
 11 12  1  0  0  0  0
 11 39  1  0  0  0  0
 12 13  1  0  0  0  0
 13 29  1  0  0  0  0
 13 20  1  0  0  0  0
 13 14  1  0  0  0  0
 14 15  1  0  0  0  0
 15 30  1  0  0  0  0
 15 16  1  0  0  0  0
 15 18  1  0  0  0  0
 16 17  1  0  0  0  0
 16 40  1  0  0  0  0
 16 41  1  0  0  0  0
 17 42  1  0  0  0  0
 18 31  1  0  0  0  0
 18 19  1  0  0  0  0
 18 20  1  0  0  0  0
 19 43  1  0  0  0  0
 20 32  1  0  0  0  0
 20 21  1  0  0  0  0
 21 44  1  0  0  0  0
 22 27  1  0  0  0  0
 22 23  2  0  0  0  0
 23 24  1  0  0  0  0
 23 45  1  0  0  0  0
 24 25  2  0  0  0  0
 24 46  1  0  0  0  0
 25 26  1  0  0  0  0
 25 47  1  0  0  0  0
 26 27  2  0  0  0  0
 26 48  1  0  0  0  0
 27 28  1  0  0  0  0
M  END
> <s_m_source_file>
AV-unprocessed.smi

> <i_m_source_file_index>
283

> <i_lp_mmshare_version>
43012

> <i_f3d_flags>
0

> <s_epik_input>
Q2xjMVtjSF1bY0hdW2NIXVtjSF1jMVtDQEhdKFtDSDNdKVtOSF1jKG5bY0hdbjIpYyhjMjMpbltjSF1uM1tDQEBIXTRPW0NASF0oW0NIMl1bT0hdKVtDQEBIXShbT0hdKVtDQEhdNFtPSF0=

> <s_epik_cmdline>
J2VwaWtfcHl0aG9uJywgJy1waCcsICc3LjAnLCAnLXRuJywgJzgnLCAnLW1hJywgJzIwMCcsICctbWV0YWxfYmluZGluZycsICctaW1hZScsICc8aW5maWxlLm1hZT4nLCAnLW9tYWUnLCAnPG91dGZpbGUubWFlPic=

> <r_lp_tautomer_probability>
1

> <r_epik_Ionization_Penalty>
0.000266407

> <r_epik_Ionization_Penalty_Charging>
0

> <r_epik_Ionization_Penalty_Neutral>
0.000266407

> <r_epik_State_Penalty>
-0

> <r_epik_Charging_Adjusted_Penalty>
0

> <i_epik_Tot_Q>
0

> <i_epik_Tot_abs_Q>
0

> <r_epik_Metal_State_Penalty>
-0

> <b_epik_Metal_Only>
0

> <s_epik_Chemistry_Notes>
This compound contains an acetal/aminal-like group ( X-CH(R)-Y where X, Y are N, S, or O) that may be acid/base labile, releasing an aldehyde.

> <s_lp_Force_Field>
OPLS_2005

> <r_lp_Energy>
51.2739

> <b_lp_Chiralities_Consistent>
1

> <s_lp_Variant>
AV-unprocessed.smi:283-29

> <Gold.Version>
5.8.1

> <Gold.Id.Protein>
6NUR|6NUR_protein|mol2

> <Gold.PLP.Fitness>
49.0122

> <Gold.PLP.PLP>
-43.6793

> <Gold.PLP.part.hbond>
-4.8991

> <Gold.PLP.part.metal>
0.0000

> <Gold.PLP.part.buried>
-6.3648

> <Gold.PLP.part.nonpolar>
-34.5570

> <Gold.PLP.part.repulsive>
0.5797

> <Gold.PLP.ligand.clash>
0.0000

> <Gold.PLP.ligand.torsion>
1.1400

> <Gold.PLP.Chemscore.Hbond>
2.5098

> <Gold.PLP.Chemscore.CHOScore>
0.0000

> <Gold.PLP.Chemscore.Metal>
0.0000

> <Gold.Chemscore.Hbonds>
donor molecule, donor type, donor heavy atom, donor atom, acceptor molecule, acceptor atom, score
      L1  H    17    42       P1 10957  0.89
      L1  H    21    44       P1  7948  0.66
      P1  H  7954  7966       L1    21  1.00

> <Gold.PLP.Chemscore.Internal.Correction>
0.0836

> <Gold.Rescore>
     Score         DG    S(hbond)    S(metal)    S(lipo)     H(rot)  DE(clash)    DE(int)     intcor
     11.63     -12.97       1.90        0.00      99.54       4.10       0.03       1.31       ----

> <Gold.Chemscore.Fitness>
11.6258

> <Gold.Chemscore.DG>
-12.9742

> <Gold.Chemscore.ZeroCoef>
-5.4800

> <Gold.Chemscore.Hbond>
1.8968

> <Gold.Chemscore.Metal>
0.0000

> <Gold.Chemscore.Lipo>
99.5445

> <Gold.Chemscore.Internal_Hbond>
0.0000

> <Gold.Chemscore.DEClash>
0.0348

> <Gold.Chemscore.DEInternal>
1.3136

> <Gold.Chemscore.Rot>
4.0968

> <Gold.Chemscore.Internal.Correction>
   9.000000E+99

> <Gold.Chemscore.Hbonds>
donor molecule, donor type, donor heavy atom, donor atom, acceptor molecule, acceptor atom, score
      L1  H    17    42       P1 10957  0.86
      L1  H    21    44       P1  7948  0.63
      P1  H  7954  7966       L1    21  0.30

> <Gold.Chemscore.Hbond.Weighted>
-6.3355

> <Gold.Chemscore.Metal.Weighted>
-0.0000

> <Gold.Chemscore.Lipo.Weighted>
-11.6467

> <Gold.Chemscore.Internal_Hbond.Weighted>
0.0000

> <Gold.Chemscore.DEClash.Weighted>
0.0348

> <Gold.Chemscore.DEInternal.Weighted>
1.3136

> <Gold.Chemscore.Rot.Weighted>
10.4879

> <Gold.Chemscore.Internal.Correction.Weighted>
   9.000000E+99

> <Gold.Protein.RotatedTorsions>
[ 6907 6896 6895 6894 ] final   34.84 input  -60.11 | X-H torsion
[ 7974 7965 7964 7962 ] final  -27.89 input  175.53 | X-H torsion
[ 8008 7997 7996 7995 ] final    0.98 input   59.86 | X-H torsion
[ 10167 10162 10161 10158 ] final   59.61 input  -65.29 | X-H torsion
[ 10718 10713 10712 10709 ] final  143.87 input   66.30 | X-H torsion
[ 10763 10752 10751 10750 ] final  -95.89 input  -60.55 | X-H torsion
[ 11005 11000 10999 10996 ] final  -52.95 input  -57.11 | X-H torsion

> <Gold.Protein.ActiveResidues>
 VAL166  LYS551  ARG553  GLY616  TRP617  ASP618  TYR619  PRO620  LYS621  CYS622 
 ASP623  PHE694  ASN695  SER759  ASP760  ASP761  ALA762  ILE779  LEU786  VAL792 
 PHE793  MET794  SER795  GLU796  ALA797  LYS798  CYS799  TRP800  GLU811  SER814 

> <Gold.Protein.RotatedAtoms>
  152.1080  134.9295  160.0567 H   0  0  0  0  0  0  0  0  0  0  0  0  # atno 6907 bound_to 6896
  152.0484  133.4003  159.4374 H   0  0  0  0  0  0  0  0  0  0  0  0  # atno 6908 bound_to 6896
  150.6842  134.3257  159.4849 H   0  0  0  0  0  0  0  0  0  0  0  0  # atno 6909 bound_to 6896
  146.1326  140.5211  142.8686 H   0  0  0  0  0  0  0  0  0  0  0  0  # atno 7974 bound_to 7965
  154.6744  140.2619  155.6974 H   0  0  0  0  0  0  0  0  0  0  0  0  # atno 8008 bound_to 7997
  156.2672  140.2823  156.1187 H   0  0  0  0  0  0  0  0  0  0  0  0  # atno 8009 bound_to 7997
  155.1122  140.0376  157.2717 H   0  0  0  0  0  0  0  0  0  0  0  0  # atno 8010 bound_to 7997
  140.1746  144.4243  150.6645 H   0  0  0  0  0  0  0  0  0  0  0  0  # atno 10167 bound_to 10162
  157.3639  131.0969  151.0890 H   0  0  0  0  0  0  0  0  0  0  0  0  # atno 10718 bound_to 10713
  154.7189  135.5104  153.8781 H   0  0  0  0  0  0  0  0  0  0  0  0  # atno 10763 bound_to 10752
  153.0845  135.6641  153.9986 H   0  0  0  0  0  0  0  0  0  0  0  0  # atno 10764 bound_to 10752
  153.9813  135.3029  155.3399 H   0  0  0  0  0  0  0  0  0  0  0  0  # atno 10765 bound_to 10752
  141.0951  133.6626  156.4099 H   0  0  0  0  0  0  0  0  0  0  0  0  # atno 11005 bound_to 11000
  144.7707  140.5630  143.6672 LP  0  0  0  0  0  0  0  0  0  0  0  0  # atno 17320 bound_to 7965
  145.5226  139.1476  143.3544 LP  0  0  0  0  0  0  0  0  0  0  0  0  # atno 17321 bound_to 7965
  140.6560  143.2238  151.5968 LP  0  0  0  0  0  0  0  0  0  0  0  0  # atno 17342 bound_to 10162
  139.5323  144.2881  152.1174 LP  0  0  0  0  0  0  0  0  0  0  0  0  # atno 17343 bound_to 10162
  157.2019  130.6399  149.5742 LP  0  0  0  0  0  0  0  0  0  0  0  0  # atno 17370 bound_to 10713
  155.9742  130.4688  150.6372 LP  0  0  0  0  0  0  0  0  0  0  0  0  # atno 17371 bound_to 10713
  140.5160  134.6350  157.5301 LP  0  0  0  0  0  0  0  0  0  0  0  0  # atno 17394 bound_to 11000
  139.9785  134.7175  155.9903 LP  0  0  0  0  0  0  0  0  0  0  0  0  # atno 17395 bound_to 11000

$$$$
