AV-unprocessed.smi:1006|AV-procd|sdf|4394|dock4
  -GOLD-   22720 2323D 1   1.00000     0.00000
 Structure written by MMmdl.
 46 48  0  0  0  0  0  0  0  0  2 V2000
  147.4183  135.9293  162.6818 C   0  0  0  0  0  0  0  0  0  0  0  0
  148.0757  135.5604  161.3690 C   0  0  0  0  0  0  0  0  0  0  0  0
  147.9205  134.2773  160.7996 C   0  0  0  0  0  0  0  0  0  0  0  0
  148.5793  134.0552  159.5720 C   0  0  0  0  0  0  0  0  0  0  0  0
  148.4899  132.8240  158.9279 N   0  0  0  0  0  0  0  0  0  0  0  0
  149.3141  135.0174  158.9739 N   0  0  0  0  0  0  0  0  0  0  0  0
  149.3880  136.1875  159.6129 C   0  0  0  0  0  0  0  0  0  0  0  0
  150.3233  137.4618  158.8090 S   0  0  0  0  0  0  0  0  0  0  0  0
  149.4810  137.4452  157.2036 C   0  0  0  0  0  0  0  0  0  0  0  0
  150.3734  137.9519  156.0554 C   0  0  2  0  0  0  0  0  0  0  0  0
  150.9550  136.8500  155.3890 O   0  0  0  0  0  0  0  0  0  0  0  0
  151.5145  138.8812  156.5172 C   0  0  0  0  0  0  0  0  0  0  0  0
  151.0739  140.2666  156.7337 N   0  0  0  0  0  0  0  0  0  0  0  0
  150.1931  141.0155  156.0163 C   0  0  0  0  0  0  0  0  0  0  0  0
  150.1055  142.2344  156.6166 N   0  3  0  0  0  0  0  0  0  0  0  0
  150.9417  142.2651  157.7345 C   0  0  0  0  0  0  0  0  0  0  0  0
  151.1867  143.2729  158.6597 C   0  0  0  0  0  0  0  0  0  0  0  0
  152.0956  142.9841  159.7025 C   0  0  0  0  0  0  0  0  0  0  0  0
  152.3812  144.0616  160.7349 C   0  0  0  0  0  0  0  0  0  0  0  0
  152.7274  141.7166  159.7899 C   0  0  0  0  0  0  0  0  0  0  0  0
  153.6945  141.4122  160.9213 C   0  0  0  0  0  0  0  0  0  0  0  0
  152.4715  140.7082  158.8338 C   0  0  0  0  0  0  0  0  0  0  0  0
  151.5698  141.0069  157.8144 C   0  0  0  0  0  0  0  0  0  0  0  0
  148.8135  136.5214  160.7701 N   0  0  0  0  0  0  0  0  0  0  0  0
  146.8395  135.0957  163.0801 H   0  0  0  0  0  0  0  0  0  0  0  0
  146.7454  136.7761  162.5440 H   0  0  0  0  0  0  0  0  0  0  0  0
  148.1723  136.2043  163.4197 H   0  0  0  0  0  0  0  0  0  0  0  0
  147.3314  133.5085  161.2784 H   0  0  0  0  0  0  0  0  0  0  0  0
  147.9549  132.0621  159.3190 H   0  0  0  0  0  0  0  0  0  0  0  0
  149.0383  132.6233  158.1043 H   0  0  0  0  0  0  0  0  0  0  0  0
  149.1716  136.4173  157.0170 H   0  0  0  0  0  0  0  0  0  0  0  0
  148.5724  138.0440  157.2763 H   0  0  0  0  0  0  0  0  0  0  0  0
  149.7540  138.4869  155.3342 H   0  0  0  0  0  0  0  0  0  0  0  0
  151.8170  137.0967  155.0902 H   0  0  0  0  0  0  0  0  0  0  0  0
  151.9869  138.5077  157.4260 H   0  0  0  0  0  0  0  0  0  0  0  0
  152.2977  138.9116  155.7585 H   0  0  0  0  0  0  0  0  0  0  0  0
  149.6570  140.6980  155.1334 H   0  0  0  0  0  0  0  0  0  0  0  0
  150.6991  144.2340  158.5885 H   0  0  0  0  0  0  0  0  0  0  0  0
  153.4473  144.2876  160.7697 H   0  0  0  0  0  0  0  0  0  0  0  0
  152.0627  143.7352  161.7255 H   0  0  0  0  0  0  0  0  0  0  0  0
  151.8534  144.9871  160.5021 H   0  0  0  0  0  0  0  0  0  0  0  0
  154.0666  140.3888  160.8637 H   0  0  0  0  0  0  0  0  0  0  0  0
  153.2043  141.5324  161.8876 H   0  0  0  0  0  0  0  0  0  0  0  0
  154.5534  142.0823  160.8814 H   0  0  0  0  0  0  0  0  0  0  0  0
  152.9522  139.7439  158.9052 H   0  0  0  0  0  0  0  0  0  0  0  0
  149.5139  142.9868  156.2879 H   0  0  0  0  0  0  0  0  0  0  0  0
  1  2  1  0  0  0  0
  1 25  1  0  0  0  0
  1 26  1  0  0  0  0
  1 27  1  0  0  0  0
  2 24  1  0  0  0  0
  2  3  2  0  0  0  0
  3  4  1  0  0  0  0
  3 28  1  0  0  0  0
  4  5  1  0  0  0  0
  4  6  2  0  0  0  0
  5 29  1  0  0  0  0
  5 30  1  0  0  0  0
  6  7  1  0  0  0  0
  7  8  1  0  0  0  0
  7 24  2  0  0  0  0
  8  9  1  0  0  0  0
  9 10  1  0  0  0  0
  9 31  1  0  0  0  0
  9 32  1  0  0  0  0
 10 11  1  0  0  0  0
 10 12  1  0  0  0  0
 10 33  1  0  0  0  0
 11 34  1  0  0  0  0
 12 13  1  0  0  0  0
 12 35  1  0  0  0  0
 12 36  1  0  0  0  0
 13 23  1  0  0  0  0
 13 14  1  0  0  0  0
 14 15  2  0  0  0  0
 14 37  1  0  0  0  0
 15 16  1  0  0  0  0
 15 46  1  0  0  0  0
 16 23  2  0  0  0  0
 16 17  1  0  0  0  0
 17 18  2  0  0  0  0
 17 38  1  0  0  0  0
 18 19  1  0  0  0  0
 18 20  1  0  0  0  0
 19 39  1  0  0  0  0
 19 40  1  0  0  0  0
 19 41  1  0  0  0  0
 20 21  1  0  0  0  0
 20 22  2  0  0  0  0
 21 42  1  0  0  0  0
 21 43  1  0  0  0  0
 21 44  1  0  0  0  0
 22 23  1  0  0  0  0
 22 45  1  0  0  0  0
M  CHG  1  15   1
M  END
> <s_m_source_file>
AV-unprocessed.smi

> <i_m_source_file_index>
1006

> <i_lp_mmshare_version>
43012

> <i_f3d_flags>
0

> <s_epik_input>
W0NIM11jMVtjSF1jKFtOSDJdKW5jKG4xKVNbQ0gyXVtDQEhdKFtPSF0pW0NIMl1uKFtjSF1uMiljKGMyMylbY0hdYyhbQ0gzXSljKFtjSF0zKVtDSDNd

> <s_epik_cmdline>
J2VwaWtfcHl0aG9uJywgJy1waCcsICc3LjAnLCAnLXRuJywgJzgnLCAnLW1hJywgJzIwMCcsICctbWV0YWxfYmluZGluZycsICctaW1hZScsICc8aW5maWxlLm1hZT4nLCAnLW9tYWUnLCAnPG91dGZpbGUubWFlPic=

> <r_epik_Ionization_Penalty>
1.4378

> <r_epik_Ionization_Penalty_Charging>
1.06724

> <r_epik_Ionization_Penalty_Neutral>
0.370564

> <r_epik_State_Penalty>
1.48666

> <r_epik_Charging_Adjusted_Penalty>
2.5539

> <i_epik_Tot_Q>
1

> <i_epik_Tot_abs_Q>
1

> <r_epik_Metal_State_Penalty>
1.38026

> <b_epik_Metal_Only>
0

> <s_lp_Force_Field>
OPLS_2005

> <r_lp_Energy>
8.71661

> <b_lp_Chiralities_Consistent>
1

> <s_lp_Variant>
AV-unprocessed.smi:1006-5

> <Gold.Version>
5.8.1

> <Gold.Id.Protein>
6NUR|6NUR_protein|mol2

> <Gold.PLP.Fitness>
57.3698

> <Gold.PLP.PLP>
-47.3337

> <Gold.PLP.part.hbond>
-4.0000

> <Gold.PLP.part.metal>
0.0000

> <Gold.PLP.part.buried>
-5.6173

> <Gold.PLP.part.nonpolar>
-38.4621

> <Gold.PLP.part.repulsive>
0.2002

> <Gold.PLP.ligand.clash>
0.0000

> <Gold.PLP.ligand.torsion>
1.1917

> <Gold.PLP.Chemscore.Hbond>
4.1290

> <Gold.PLP.Chemscore.CHOScore>
0.0000

> <Gold.PLP.Chemscore.Metal>
0.0000

> <Gold.Chemscore.Hbonds>
donor molecule, donor type, donor heavy atom, donor atom, acceptor molecule, acceptor atom, score
      L1  H    15    46       P1  8028  2.00
      P1  H  6896  6908       L1     6  0.29
      P1  H  6931  6943       L1    24  0.90

> <Gold.PLP.Chemscore.Internal.Correction>
0.0325

> <Gold.Rescore>
     Score         DG    S(hbond)    S(metal)    S(lipo)     H(rot)  DE(clash)    DE(int)     intcor
     17.81     -19.01       2.29        0.00     113.43       2.89       0.07       1.12       ----

> <Gold.Chemscore.Fitness>
17.8133

> <Gold.Chemscore.DG>
-19.0071

> <Gold.Chemscore.ZeroCoef>
-5.4800

> <Gold.Chemscore.Hbond>
2.2925

> <Gold.Chemscore.Metal>
0.0000

> <Gold.Chemscore.Lipo>
113.4268

> <Gold.Chemscore.Internal_Hbond>
0.0000

> <Gold.Chemscore.DEClash>
0.0750

> <Gold.Chemscore.DEInternal>
1.1188

> <Gold.Chemscore.Rot>
2.8910

> <Gold.Chemscore.Internal.Correction>
   9.000000E+99

> <Gold.Chemscore.Hbonds>
donor molecule, donor type, donor heavy atom, donor atom, acceptor molecule, acceptor atom, score
      L1  H    15    46       P1  8028  0.99
      P1  H  6931  6943       L1    24  0.75

> <Gold.Chemscore.Hbond.Weighted>
-7.6571

> <Gold.Chemscore.Metal.Weighted>
-0.0000

> <Gold.Chemscore.Lipo.Weighted>
-13.2709

> <Gold.Chemscore.Internal_Hbond.Weighted>
0.0000

> <Gold.Chemscore.DEClash.Weighted>
0.0750

> <Gold.Chemscore.DEInternal.Weighted>
1.1188

> <Gold.Chemscore.Rot.Weighted>
7.4009

> <Gold.Chemscore.Internal.Correction.Weighted>
   9.000000E+99

> <Gold.Protein.RotatedTorsions>
[ 6907 6896 6895 6894 ] final  179.67 input  -60.11 | X-H torsion
[ 7974 7965 7964 7962 ] final  -80.85 input  175.53 | X-H torsion
[ 8008 7997 7996 7995 ] final -130.62 input   59.86 | X-H torsion
[ 10167 10162 10161 10158 ] final   93.07 input  -65.29 | X-H torsion
[ 10718 10713 10712 10709 ] final  -20.41 input   66.30 | X-H torsion
[ 10763 10752 10751 10750 ] final  -35.79 input  -60.55 | X-H torsion
[ 11005 11000 10999 10996 ] final   65.45 input  -57.11 | X-H torsion

> <Gold.Protein.ActiveResidues>
 VAL166  LYS551  ARG553  GLY616  TRP617  ASP618  TYR619  PRO620  LYS621  CYS622 
 ASP623  PHE694  ASN695  SER759  ASP760  ASP761  ALA762  ILE779  LEU786  VAL792 
 PHE793  MET794  SER795  GLU796  ALA797  LYS798  CYS799  TRP800  GLU811  SER814 

> <Gold.Protein.RotatedAtoms>
  151.6680  133.3315  159.3189 H   0  0  0  0  0  0  0  0  0  0  0  0  # atno 6907 bound_to 6896
  150.7881  134.6887  159.6494 H   0  0  0  0  0  0  0  0  0  0  0  0  # atno 6908 bound_to 6896
  152.3956  134.6375  160.0143 H   0  0  0  0  0  0  0  0  0  0  0  0  # atno 6909 bound_to 6896
  145.5544  140.9492  143.1481 H   0  0  0  0  0  0  0  0  0  0  0  0  # atno 7974 bound_to 7965
  155.2988  140.0452  157.3028 H   0  0  0  0  0  0  0  0  0  0  0  0  # atno 8008 bound_to 7997
  154.5498  140.2314  155.8470 H   0  0  0  0  0  0  0  0  0  0  0  0  # atno 8009 bound_to 7997
  156.1957  140.3039  155.9429 H   0  0  0  0  0  0  0  0  0  0  0  0  # atno 8010 bound_to 7997
  139.8215  144.6729  150.9513 H   0  0  0  0  0  0  0  0  0  0  0  0  # atno 10167 bound_to 10162
  156.5323  130.4658  149.6541 H   0  0  0  0  0  0  0  0  0  0  0  0  # atno 10718 bound_to 10713
  153.8690  135.6833  153.4776 H   0  0  0  0  0  0  0  0  0  0  0  0  # atno 10763 bound_to 10752
  153.1298  135.4703  154.9328 H   0  0  0  0  0  0  0  0  0  0  0  0  # atno 10764 bound_to 10752
  154.7723  135.3242  154.8114 H   0  0  0  0  0  0  0  0  0  0  0  0  # atno 10765 bound_to 10752
  139.9893  134.6616  156.0119 H   0  0  0  0  0  0  0  0  0  0  0  0  # atno 11005 bound_to 11000
  144.7513  139.7186  143.7272 LP  0  0  0  0  0  0  0  0  0  0  0  0  # atno 17320 bound_to 7965
  146.1894  139.5127  142.9815 LP  0  0  0  0  0  0  0  0  0  0  0  0  # atno 17321 bound_to 7965
  140.7813  143.4087  151.1028 LP  0  0  0  0  0  0  0  0  0  0  0  0  # atno 17342 bound_to 10162
  139.7747  143.8442  152.3127 LP  0  0  0  0  0  0  0  0  0  0  0  0  # atno 17343 bound_to 10162
  156.3048  130.7197  151.2076 LP  0  0  0  0  0  0  0  0  0  0  0  0  # atno 17370 bound_to 10713
  157.7419  131.0497  150.5059 LP  0  0  0  0  0  0  0  0  0  0  0  0  # atno 17371 bound_to 10713
  141.1552  133.6543  156.4140 LP  0  0  0  0  0  0  0  0  0  0  0  0  # atno 17394 bound_to 11000
  140.4939  134.6549  157.5222 LP  0  0  0  0  0  0  0  0  0  0  0  0  # atno 17395 bound_to 11000

$$$$
