AV-unprocessed.smi:1518|AV-procd|sdf|6127|dock4
  -GOLD-   22720 6263D 1   1.00000     0.00000
 Structure written by MMmdl.
 46 48  0  0  0  0  0  0  0  0  2 V2000
  147.4155  135.0610  162.6366 C   0  0  0  0  0  0  0  0  0  0  0  0
  147.5488  135.9830  161.4255 C   0  0  0  0  0  0  0  0  0  0  0  0
  147.4647  137.1984  161.5988 O   0  0  0  0  0  0  0  0  0  0  0  0
  147.7747  135.3562  160.0909 C   0  0  0  0  0  0  0  0  0  0  0  0
  148.0189  133.9663  160.0145 C   0  0  0  0  0  0  0  0  0  0  0  0
  148.2340  133.3473  158.7700 C   0  0  0  0  0  0  0  0  0  0  0  0
  148.2071  134.1111  157.5898 C   0  0  0  0  0  0  0  0  0  0  0  0
  147.9654  135.4980  157.6366 C   0  0  0  0  0  0  0  0  0  0  0  0
  147.9545  136.1664  156.4311 O   0  0  0  0  0  0  0  0  0  0  0  0
  147.9974  135.4039  155.2312 C   0  0  0  0  0  0  0  0  0  0  0  0
  146.6512  135.5065  154.4956 C   0  0  1  0  0  0  0  0  0  0  0  0
  146.8318  136.2105  153.2832 O   0  0  0  0  0  0  0  0  0  0  0  0
  145.9683  134.1425  154.2678 C   0  0  0  0  0  0  0  0  0  0  0  0
  146.4038  133.4888  153.0229 N   0  0  0  0  0  0  0  0  0  0  0  0
  147.6433  133.0671  152.6379 C   0  0  0  0  0  0  0  0  0  0  0  0
  148.9116  133.1649  153.4202 C   0  0  0  0  0  0  0  0  0  0  0  0
  148.8633  132.4196  154.6166 O   0  0  0  0  0  0  0  0  0  0  0  0
  147.5162  132.5207  151.3960 N   0  3  0  0  0  0  0  0  0  0  0  0
  146.1861  132.5927  150.9812 C   0  0  0  0  0  0  0  0  0  0  0  0
  145.5760  132.1713  149.8037 C   0  0  0  0  0  0  0  0  0  0  0  0
  144.1869  132.3905  149.6970 C   0  0  0  0  0  0  0  0  0  0  0  0
  143.4592  133.0054  150.7363 C   0  0  0  0  0  0  0  0  0  0  0  0
  144.0893  133.4292  151.9248 C   0  0  0  0  0  0  0  0  0  0  0  0
  145.4638  133.2114  152.0222 C   0  0  0  0  0  0  0  0  0  0  0  0
  147.7501  136.1153  158.8955 C   0  0  0  0  0  0  0  0  0  0  0  0
  148.3270  134.4800  162.7768 H   0  0  0  0  0  0  0  0  0  0  0  0
  146.5780  134.3757  162.5057 H   0  0  0  0  0  0  0  0  0  0  0  0
  147.2408  135.6431  163.5417 H   0  0  0  0  0  0  0  0  0  0  0  0
  148.0442  133.3601  160.9089 H   0  0  0  0  0  0  0  0  0  0  0  0
  148.4199  132.2846  158.7209 H   0  0  0  0  0  0  0  0  0  0  0  0
  148.3735  133.6278  156.6381 H   0  0  0  0  0  0  0  0  0  0  0  0
  148.7781  135.8049  154.5828 H   0  0  0  0  0  0  0  0  0  0  0  0
  148.2403  134.3599  155.4376 H   0  0  0  0  0  0  0  0  0  0  0  0
  145.9916  136.1249  155.1050 H   0  0  0  0  0  0  0  0  0  0  0  0
  147.6615  135.9554  152.9089 H   0  0  0  0  0  0  0  0  0  0  0  0
  146.1379  133.4656  155.1049 H   0  0  0  0  0  0  0  0  0  0  0  0
  144.8881  134.2750  154.2063 H   0  0  0  0  0  0  0  0  0  0  0  0
  149.7409  132.8035  152.8116 H   0  0  0  0  0  0  0  0  0  0  0  0
  149.1205  134.2084  153.6554 H   0  0  0  0  0  0  0  0  0  0  0  0
  147.9700  132.4024  154.9248 H   0  0  0  0  0  0  0  0  0  0  0  0
  146.1311  131.6977  149.0071 H   0  0  0  0  0  0  0  0  0  0  0  0
  143.6691  132.0788  148.8015 H   0  0  0  0  0  0  0  0  0  0  0  0
  142.3953  133.1543  150.6212 H   0  0  0  0  0  0  0  0  0  0  0  0
  143.5196  133.8930  152.7165 H   0  0  0  0  0  0  0  0  0  0  0  0
  147.5643  137.1762  158.9472 H   0  0  0  0  0  0  0  0  0  0  0  0
  148.2864  132.1226  150.8744 H   0  0  0  0  0  0  0  0  0  0  0  0
  1  2  1  0  0  0  0
  1 26  1  0  0  0  0
  1 27  1  0  0  0  0
  1 28  1  0  0  0  0
  2  3  2  0  0  0  0
  2  4  1  0  0  0  0
  4 25  1  0  0  0  0
  4  5  2  0  0  0  0
  5  6  1  0  0  0  0
  5 29  1  0  0  0  0
  6  7  2  0  0  0  0
  6 30  1  0  0  0  0
  7  8  1  0  0  0  0
  7 31  1  0  0  0  0
  8  9  1  0  0  0  0
  8 25  2  0  0  0  0
  9 10  1  0  0  0  0
 10 11  1  0  0  0  0
 10 32  1  0  0  0  0
 10 33  1  0  0  0  0
 11 12  1  0  0  0  0
 11 13  1  0  0  0  0
 11 34  1  0  0  0  0
 12 35  1  0  0  0  0
 13 14  1  0  0  0  0
 13 36  1  0  0  0  0
 13 37  1  0  0  0  0
 14 24  1  0  0  0  0
 14 15  1  0  0  0  0
 15 16  1  0  0  0  0
 15 18  2  0  0  0  0
 16 17  1  0  0  0  0
 16 38  1  0  0  0  0
 16 39  1  0  0  0  0
 17 40  1  0  0  0  0
 18 19  1  0  0  0  0
 18 46  1  0  0  0  0
 19 24  2  0  0  0  0
 19 20  1  0  0  0  0
 20 21  2  0  0  0  0
 20 41  1  0  0  0  0
 21 22  1  0  0  0  0
 21 42  1  0  0  0  0
 22 23  2  0  0  0  0
 22 43  1  0  0  0  0
 23 24  1  0  0  0  0
 23 44  1  0  0  0  0
 25 45  1  0  0  0  0
M  CHG  1  18   1
M  END
> <s_m_source_file>
AV-unprocessed.smi

> <i_m_source_file_index>
1518

> <i_lp_mmshare_version>
43012

> <i_f3d_flags>
0

> <s_epik_input>
W0NIM11DKD1PKWMxW2NIXVtjSF1bY0hdYyhbY0hdMSlPW0NIMl1bQ0BIXShbT0hdKVtDSDJdbihjKG4yKVtDSDJdW09IXSljKGMyMylbY0hdW2NIXVtjSF1bY0hdMw==

> <s_epik_cmdline>
J2VwaWtfcHl0aG9uJywgJy1waCcsICc3LjAnLCAnLXRuJywgJzgnLCAnLW1hJywgJzIwMCcsICctbWV0YWxfYmluZGluZycsICctaW1hZScsICc8aW5maWxlLm1hZT4nLCAnLW9tYWUnLCAnPG91dGZpbGUubWFlPic=

> <r_lp_tautomer_probability>
0.99995

> <r_epik_Ionization_Penalty>
1.40416

> <r_epik_Ionization_Penalty_Charging>
1.4033

> <r_epik_Ionization_Penalty_Neutral>
0.000858184

> <r_epik_State_Penalty>
1.48564

> <r_epik_Charging_Adjusted_Penalty>
2.88894

> <i_epik_Tot_Q>
1

> <i_epik_Tot_abs_Q>
1

> <r_epik_Metal_State_Penalty>
5.52809

> <b_epik_Metal_Only>
0

> <s_lp_Force_Field>
OPLS_2005

> <r_lp_Energy>
25.8835

> <b_lp_Chiralities_Consistent>
1

> <s_lp_Variant>
AV-unprocessed.smi:1518-4

> <Gold.Version>
5.8.1

> <Gold.Id.Protein>
6NUR|6NUR_protein|mol2

> <Gold.PLP.Fitness>
48.9274

> <Gold.PLP.PLP>
-42.3208

> <Gold.PLP.part.hbond>
-3.7591

> <Gold.PLP.part.metal>
0.0000

> <Gold.PLP.part.buried>
-6.1246

> <Gold.PLP.part.nonpolar>
-32.9480

> <Gold.PLP.part.repulsive>
0.0749

> <Gold.PLP.ligand.clash>
1.8788

> <Gold.PLP.ligand.torsion>
1.4865

> <Gold.PLP.Chemscore.Hbond>
3.7680

> <Gold.PLP.Chemscore.CHOScore>
0.0000

> <Gold.PLP.Chemscore.Metal>
0.0000

> <Gold.Chemscore.Hbonds>
donor molecule, donor type, donor heavy atom, donor atom, acceptor molecule, acceptor atom, score
      L1  H    12    35       P1  7948  1.00
      L1  H    18    46       P1 10747  0.99
      P1  H  6931  6943       L1     3  0.93
      P1  H  6934  6947       L1     3  0.83

> <Gold.PLP.Chemscore.Internal.Correction>
0.1543

> <Gold.Rescore>
     Score         DG    S(hbond)    S(metal)    S(lipo)     H(rot)  DE(clash)    DE(int)     intcor
     17.53     -19.09       3.56        0.00      87.64       3.34       0.01       1.55       ----

> <Gold.Chemscore.Fitness>
17.5307

> <Gold.Chemscore.DG>
-19.0896

> <Gold.Chemscore.ZeroCoef>
-5.4800

> <Gold.Chemscore.Hbond>
3.5638

> <Gold.Chemscore.Metal>
0.0000

> <Gold.Chemscore.Lipo>
87.6381

> <Gold.Chemscore.Internal_Hbond>
0.0000

> <Gold.Chemscore.DEClash>
0.0102

> <Gold.Chemscore.DEInternal>
1.5486

> <Gold.Chemscore.Rot>
3.3387

> <Gold.Chemscore.Internal.Correction>
   9.000000E+99

> <Gold.Chemscore.Hbonds>
donor molecule, donor type, donor heavy atom, donor atom, acceptor molecule, acceptor atom, score
      L1  H    12    35       P1  7948  0.95
      L1  H    18    46       P1 10747  0.90
      P1  H  6931  6943       L1     3  0.89
      P1  H  6934  6947       L1     3  0.82

> <Gold.Chemscore.Hbond.Weighted>
-11.9030

> <Gold.Chemscore.Metal.Weighted>
-0.0000

> <Gold.Chemscore.Lipo.Weighted>
-10.2537

> <Gold.Chemscore.Internal_Hbond.Weighted>
0.0000

> <Gold.Chemscore.DEClash.Weighted>
0.0102

> <Gold.Chemscore.DEInternal.Weighted>
1.5486

> <Gold.Chemscore.Rot.Weighted>
8.5471

> <Gold.Chemscore.Internal.Correction.Weighted>
   9.000000E+99

> <Gold.Protein.RotatedTorsions>
[ 6907 6896 6895 6894 ] final   89.66 input  -60.11 | X-H torsion
[ 7974 7965 7964 7962 ] final -112.37 input  175.53 | X-H torsion
[ 8008 7997 7996 7995 ] final  138.26 input   59.86 | X-H torsion
[ 10167 10162 10161 10158 ] final  169.81 input  -65.29 | X-H torsion
[ 10718 10713 10712 10709 ] final -163.35 input   66.30 | X-H torsion
[ 10763 10752 10751 10750 ] final   40.83 input  -60.55 | X-H torsion
[ 11005 11000 10999 10996 ] final   29.01 input  -57.11 | X-H torsion

> <Gold.Protein.ActiveResidues>
 VAL166  LYS551  ARG553  GLY616  TRP617  ASP618  TYR619  PRO620  LYS621  CYS622 
 ASP623  PHE694  ASN695  SER759  ASP760  ASP761  ALA762  ILE779  LEU786  VAL792 
 PHE793  MET794  SER795  GLU796  ALA797  LYS798  CYS799  TRP800  GLU811  SER814 

> <Gold.Protein.RotatedAtoms>
  152.5438  134.1932  159.8682 H   0  0  0  0  0  0  0  0  0  0  0  0  # atno 6907 bound_to 6896
  151.1926  133.4651  159.2602 H   0  0  0  0  0  0  0  0  0  0  0  0  # atno 6908 bound_to 6896
  151.1068  135.0016  159.8530 H   0  0  0  0  0  0  0  0  0  0  0  0  # atno 6909 bound_to 6896
  145.1448  140.8797  143.3681 H   0  0  0  0  0  0  0  0  0  0  0  0  # atno 7974 bound_to 7965
  156.2998  140.2398  156.4044 H   0  0  0  0  0  0  0  0  0  0  0  0  # atno 8008 bound_to 7997
  154.8498  140.0424  157.1617 H   0  0  0  0  0  0  0  0  0  0  0  0  # atno 8009 bound_to 7997
  154.9011  140.2977  155.5321 H   0  0  0  0  0  0  0  0  0  0  0  0  # atno 8010 bound_to 7997
  139.5002  144.3665  151.9770 H   0  0  0  0  0  0  0  0  0  0  0  0  # atno 10167 bound_to 10162
  156.6234  130.8900  151.2962 H   0  0  0  0  0  0  0  0  0  0  0  0  # atno 10718 bound_to 10713
  152.9925  135.6180  154.2689 H   0  0  0  0  0  0  0  0  0  0  0  0  # atno 10763 bound_to 10752
  154.2423  135.2788  155.2851 H   0  0  0  0  0  0  0  0  0  0  0  0  # atno 10764 bound_to 10752
  154.5359  135.5775  153.6855 H   0  0  0  0  0  0  0  0  0  0  0  0  # atno 10765 bound_to 10752
  140.3095  134.2665  155.7737 H   0  0  0  0  0  0  0  0  0  0  0  0  # atno 11005 bound_to 11000
  145.0494  139.3194  143.5936 LP  0  0  0  0  0  0  0  0  0  0  0  0  # atno 17320 bound_to 7965
  146.3501  139.9896  142.8687 LP  0  0  0  0  0  0  0  0  0  0  0  0  # atno 17321 bound_to 7965
  140.3101  144.3548  150.6036 LP  0  0  0  0  0  0  0  0  0  0  0  0  # atno 17342 bound_to 10162
  140.5805  143.2173  151.7436 LP  0  0  0  0  0  0  0  0  0  0  0  0  # atno 17343 bound_to 10162
  157.7221  130.9572  150.1481 LP  0  0  0  0  0  0  0  0  0  0  0  0  # atno 17370 bound_to 10713
  156.2293  130.3680  149.8464 LP  0  0  0  0  0  0  0  0  0  0  0  0  # atno 17371 bound_to 10713
  141.2111  133.7699  156.9887 LP  0  0  0  0  0  0  0  0  0  0  0  0  # atno 17394 bound_to 11000
  140.1037  134.9519  157.1962 LP  0  0  0  0  0  0  0  0  0  0  0  0  # atno 17395 bound_to 11000

$$$$
