AV-unprocessed.smi:81|AV-procd|sdf|787|dock2
  -GOLD-   2262017153D 1   1.00000     0.00000
 Structure written by MMmdl.
 64 67  0  0  0  0  0  0  0  0  2 V2000
  144.8241  134.8819  151.1574 C   0  0  0  0  0  0  0  0  0  0  0  0
  145.8445  135.0236  152.2990 C   0  0  0  0  0  0  0  0  0  0  0  0
  145.8469  133.7654  153.1784 C   0  0  0  0  0  0  0  0  0  0  0  0
  145.5735  136.2801  153.1567 C   0  0  0  0  0  0  0  0  0  0  0  0
  146.7420  136.7533  153.9045 N   0  0  0  0  0  0  0  0  0  0  0  0
  147.0538  136.0104  154.9957 C   0  0  0  0  0  0  0  0  0  0  0  0
  148.1855  135.2578  155.0063 N   0  0  0  0  0  0  0  0  0  0  0  0
  148.4977  134.5347  156.0860 C   0  0  0  0  0  0  0  0  0  0  0  0
  147.8334  134.4265  157.2385 N   0  0  0  0  0  0  0  0  0  0  0  0
  146.7009  135.1867  157.2319 C   0  0  0  0  0  0  0  0  0  0  0  0
  146.2423  136.0032  156.1613 C   0  0  0  0  0  0  0  0  0  0  0  0
  145.0588  136.6369  156.5169 N   0  0  0  0  0  0  0  0  0  0  0  0
  144.8287  136.2170  157.7312 C   0  0  0  0  0  0  0  0  0  0  0  0
  145.7601  135.3369  158.2352 N   0  0  0  0  0  0  0  0  0  0  0  0
  145.7503  134.7142  159.5493 C   0  0  0  0  0  0  0  0  0  0  0  0
  146.9514  135.1242  160.4336 C   0  0  2  0  0  0  0  0  0  0  0  0
  148.0187  134.2181  160.2017 O   0  0  0  0  0  0  0  0  0  0  0  0
  146.6476  135.1378  161.9246 C   0  0  0  0  0  0  0  0  0  0  0  0
  147.6916  136.1070  162.4655 C   0  0  0  0  0  0  0  0  0  0  0  0
  147.8231  137.0992  161.4560 O   0  0  0  0  0  0  0  0  0  0  0  0
  147.4056  136.5811  160.1935 C   0  0  1  0  0  0  0  0  0  0  0  0
  148.4901  136.7966  159.1255 C   0  0  0  0  0  0  0  0  0  0  0  0
  146.8829  138.2096  154.0477 C   0  0  2  0  0  0  0  0  0  0  0  0
  145.8344  138.8486  154.9834 C   0  0  0  0  0  0  0  0  0  0  0  0
  146.0908  140.3549  155.1504 C   0  0  0  0  0  0  0  0  0  0  0  0
  146.1052  141.0414  153.8347 N   0  3  1  0  0  0  0  0  0  0  0  0
  146.2248  142.5092  153.9679 C   0  0  0  0  0  0  0  0  0  0  0  0
  147.1267  140.4713  152.9213 C   0  0  0  0  0  0  0  0  0  0  0  0
  146.8947  138.9673  152.7023 C   0  0  0  0  0  0  0  0  0  0  0  0
  143.8081  134.7939  151.5430 H   0  0  0  0  0  0  0  0  0  0  0  0
  145.0296  133.9960  150.5561 H   0  0  0  0  0  0  0  0  0  0  0  0
  144.8520  135.7412  150.4872 H   0  0  0  0  0  0  0  0  0  0  0  0
  146.8378  135.0990  151.8552 H   0  0  0  0  0  0  0  0  0  0  0  0
  144.8806  133.6164  153.6612 H   0  0  0  0  0  0  0  0  0  0  0  0
  146.6031  133.8353  153.9607 H   0  0  0  0  0  0  0  0  0  0  0  0
  146.0663  132.8741  152.5899 H   0  0  0  0  0  0  0  0  0  0  0  0
  145.2177  137.0832  152.5102 H   0  0  0  0  0  0  0  0  0  0  0  0
  144.7606  136.0772  153.8551 H   0  0  0  0  0  0  0  0  0  0  0  0
  149.4103  133.9612  156.0174 H   0  0  0  0  0  0  0  0  0  0  0  0
  143.9647  136.5370  158.2954 H   0  0  0  0  0  0  0  0  0  0  0  0
  144.8125  134.9670  160.0457 H   0  0  0  0  0  0  0  0  0  0  0  0
  145.7375  133.6329  159.4071 H   0  0  0  0  0  0  0  0  0  0  0  0
  147.6848  133.3373  160.2775 H   0  0  0  0  0  0  0  0  0  0  0  0
  145.6523  135.5482  162.1016 H   0  0  0  0  0  0  0  0  0  0  0  0
  146.6924  134.1537  162.3930 H   0  0  0  0  0  0  0  0  0  0  0  0
  147.4046  136.5444  163.4219 H   0  0  0  0  0  0  0  0  0  0  0  0
  148.6510  135.6048  162.5948 H   0  0  0  0  0  0  0  0  0  0  0  0
  146.5338  137.1743  159.9145 H   0  0  0  0  0  0  0  0  0  0  0  0
  148.1783  136.3901  158.1632 H   0  0  0  0  0  0  0  0  0  0  0  0
  149.4310  136.3218  159.4042 H   0  0  0  0  0  0  0  0  0  0  0  0
  148.6892  137.8595  158.9877 H   0  0  0  0  0  0  0  0  0  0  0  0
  147.8561  138.3650  154.5157 H   0  0  0  0  0  0  0  0  0  0  0  0
  144.8273  138.7059  154.5894 H   0  0  0  0  0  0  0  0  0  0  0  0
  145.8610  138.3648  155.9603 H   0  0  0  0  0  0  0  0  0  0  0  0
  145.3120  140.7876  155.7797 H   0  0  0  0  0  0  0  0  0  0  0  0
  147.0406  140.5212  155.6612 H   0  0  0  0  0  0  0  0  0  0  0  0
  147.1767  142.7847  154.4238 H   0  0  0  0  0  0  0  0  0  0  0  0
  145.4203  142.9063  154.5877 H   0  0  0  0  0  0  0  0  0  0  0  0
  146.1600  142.9910  152.9918 H   0  0  0  0  0  0  0  0  0  0  0  0
  147.0873  140.9876  151.9612 H   0  0  0  0  0  0  0  0  0  0  0  0
  148.1230  140.6417  153.3328 H   0  0  0  0  0  0  0  0  0  0  0  0
  147.6744  138.5754  152.0487 H   0  0  0  0  0  0  0  0  0  0  0  0
  145.9494  138.8282  152.1770 H   0  0  0  0  0  0  0  0  0  0  0  0
  145.2070  140.8653  153.4073 H   0  0  0  0  0  0  0  0  0  0  0  0
  1  2  1  0  0  0  0
  1 30  1  0  0  0  0
  1 31  1  0  0  0  0
  1 32  1  0  0  0  0
  2  3  1  0  0  0  0
  2  4  1  0  0  0  0
  2 33  1  0  0  0  0
  3 34  1  0  0  0  0
  3 35  1  0  0  0  0
  3 36  1  0  0  0  0
  4  5  1  0  0  0  0
  4 37  1  0  0  0  0
  4 38  1  0  0  0  0
  5  6  1  0  0  0  0
  5 23  1  0  0  0  0
  6 11  1  0  0  0  0
  6  7  2  0  0  0  0
  7  8  1  0  0  0  0
  8  9  2  0  0  0  0
  8 39  1  0  0  0  0
  9 10  1  0  0  0  0
 10 14  1  0  0  0  0
 10 11  2  0  0  0  0
 11 12  1  0  0  0  0
 12 13  2  0  0  0  0
 13 14  1  0  0  0  0
 13 40  1  0  0  0  0
 14 15  1  0  0  0  0
 15 16  1  0  0  0  0
 15 41  1  0  0  0  0
 15 42  1  0  0  0  0
 16 21  1  0  0  0  0
 16 17  1  0  0  0  0
 16 18  1  0  0  0  0
 17 43  1  0  0  0  0
 18 19  1  0  0  0  0
 18 44  1  0  0  0  0
 18 45  1  0  0  0  0
 19 20  1  0  0  0  0
 19 46  1  0  0  0  0
 19 47  1  0  0  0  0
 20 21  1  0  0  0  0
 21 22  1  0  0  0  0
 21 48  1  0  0  0  0
 22 49  1  0  0  0  0
 22 50  1  0  0  0  0
 22 51  1  0  0  0  0
 23 29  1  0  0  0  0
 23 24  1  0  0  0  0
 23 52  1  0  0  0  0
 24 25  1  0  0  0  0
 24 53  1  0  0  0  0
 24 54  1  0  0  0  0
 25 26  1  0  0  0  0
 25 55  1  0  0  0  0
 25 56  1  0  0  0  0
 26 27  1  0  0  0  0
 26 28  1  0  0  0  0
 26 64  1  0  0  0  0
 27 57  1  0  0  0  0
 27 58  1  0  0  0  0
 27 59  1  0  0  0  0
 28 29  1  0  0  0  0
 28 60  1  0  0  0  0
 28 61  1  0  0  0  0
 29 62  1  0  0  0  0
 29 63  1  0  0  0  0
M  CHG  1  26   1
M  END
> <s_m_source_file>
AV-unprocessed.smi

> <i_m_source_file_index>
81

> <i_lp_mmshare_version>
43012

> <i_f3d_flags>
0

> <s_epik_input>
W0NIMl0xW0NIMl1OKFtDSDNdKVtDSDJdW0NIMl1bQ0hdMU4oW0NIMl1bQ0hdKFtDSDNdKVtDSDNdKWMobltjSF1uMiljKGMyMyluW2NIXW4zW0NIMl1bQ0BAXTQoW09IXSlbQ0gyXVtDSDJdT1tDQEhdNFtDSDNd

> <s_epik_cmdline>
J2VwaWtfcHl0aG9uJywgJy1waCcsICc3LjAnLCAnLXRuJywgJzgnLCAnLW1hJywgJzIwMCcsICctbWV0YWxfYmluZGluZycsICctaW1hZScsICc8aW5maWxlLm1hZT4nLCAnLW9tYWUnLCAnPG91dGZpbGUubWFlPic=

> <r_lp_tautomer_probability>
1

> <r_epik_Ionization_Penalty>
0.00272708

> <r_epik_Ionization_Penalty_Charging>
0.00158983

> <r_epik_Ionization_Penalty_Neutral>
0.00113725

> <r_epik_State_Penalty>
-0

> <r_epik_Charging_Adjusted_Penalty>
0.00158983

> <i_epik_Tot_Q>
1

> <i_epik_Tot_abs_Q>
1

> <r_epik_Metal_State_Penalty>
-0

> <b_epik_Metal_Only>
0

> <s_lp_Force_Field>
OPLS_2005

> <r_lp_Energy>
45.4509

> <b_lp_Chiralities_Consistent>
1

> <s_lp_Variant>
AV-unprocessed.smi:81-2

> <Gold.Version>
5.8.1

> <Gold.Id.Protein>
6NUR|6NUR_protein|mol2

> <Gold.PLP.Fitness>
39.9506

> <Gold.PLP.PLP>
-31.2060

> <Gold.PLP.part.hbond>
-3.0000

> <Gold.PLP.part.metal>
0.0000

> <Gold.PLP.part.buried>
-3.4540

> <Gold.PLP.part.nonpolar>
-24.9105

> <Gold.PLP.part.repulsive>
0.8585

> <Gold.PLP.ligand.clash>
0.0000

> <Gold.PLP.ligand.torsion>
1.3483

> <Gold.PLP.Chemscore.Hbond>
3.4803

> <Gold.PLP.Chemscore.CHOScore>
0.0000

> <Gold.PLP.Chemscore.Metal>
0.0000

> <Gold.Chemscore.Hbonds>
donor molecule, donor type, donor heavy atom, donor atom, acceptor molecule, acceptor atom, score
      L1  H    26    64       P1 10175  2.00
      P1  H  6931  6943       L1    20  1.00
      P1  H  6934  6947       L1    20  0.39

> <Gold.PLP.Chemscore.Internal.Correction>
1.0003

> <Gold.Rescore>
     Score         DG    S(hbond)    S(metal)    S(lipo)     H(rot)  DE(clash)    DE(int)     intcor
     10.78     -14.37       2.12        0.00      71.77       2.58       0.21       3.37       ----

> <Gold.Chemscore.Fitness>
10.7840

> <Gold.Chemscore.DG>
-14.3702

> <Gold.Chemscore.ZeroCoef>
-5.4800

> <Gold.Chemscore.Hbond>
2.1232

> <Gold.Chemscore.Metal>
0.0000

> <Gold.Chemscore.Lipo>
71.7682

> <Gold.Chemscore.Internal_Hbond>
0.0000

> <Gold.Chemscore.DEClash>
0.2124

> <Gold.Chemscore.DEInternal>
3.3738

> <Gold.Chemscore.Rot>
2.5774

> <Gold.Chemscore.Internal.Correction>
   9.000000E+99

> <Gold.Chemscore.Hbonds>
donor molecule, donor type, donor heavy atom, donor atom, acceptor molecule, acceptor atom, score
      L1  H    26    64       P1 10175  0.74
      P1  H  6931  6943       L1    20  0.73
      P1  H  6934  6947       L1    20  0.03

> <Gold.Chemscore.Hbond.Weighted>
-7.0916

> <Gold.Chemscore.Metal.Weighted>
-0.0000

> <Gold.Chemscore.Lipo.Weighted>
-8.3969

> <Gold.Chemscore.Internal_Hbond.Weighted>
0.0000

> <Gold.Chemscore.DEClash.Weighted>
0.2124

> <Gold.Chemscore.DEInternal.Weighted>
3.3738

> <Gold.Chemscore.Rot.Weighted>
6.5982

> <Gold.Chemscore.Internal.Correction.Weighted>
   9.000000E+99

> <Gold.Protein.RotatedTorsions>
[ 6907 6896 6895 6894 ] final   28.93 input  -60.11 | X-H torsion
[ 7974 7965 7964 7962 ] final  157.50 input  175.53 | X-H torsion
[ 8008 7997 7996 7995 ] final  -99.06 input   59.86 | X-H torsion
[ 10167 10162 10161 10158 ] final  145.59 input  -65.29 | X-H torsion
[ 10718 10713 10712 10709 ] final -178.78 input   66.30 | X-H torsion
[ 10763 10752 10751 10750 ] final -170.54 input  -60.55 | X-H torsion
[ 11005 11000 10999 10996 ] final -118.25 input  -57.11 | X-H torsion

> <Gold.Protein.ActiveResidues>
 VAL166  LYS551  ARG553  GLY616  TRP617  ASP618  TYR619  PRO620  LYS621  CYS622 
 ASP623  PHE694  ASN695  SER759  ASP760  ASP761  ALA762  ILE779  LEU786  VAL792 
 PHE793  MET794  SER795  GLU796  ALA797  LYS798  CYS799  TRP800  GLU811  SER814 

> <Gold.Protein.RotatedAtoms>
  152.0242  134.9805  160.0571 H   0  0  0  0  0  0  0  0  0  0  0  0  # atno 6907 bound_to 6896
  152.1308  133.4402  159.4728 H   0  0  0  0  0  0  0  0  0  0  0  0  # atno 6908 bound_to 6896
  150.6856  134.2342  159.4489 H   0  0  0  0  0  0  0  0  0  0  0  0  # atno 6909 bound_to 6896
  144.7900  139.7349  143.6225 H   0  0  0  0  0  0  0  0  0  0  0  0  # atno 7974 bound_to 7965
  154.8097  140.0450  157.1333 H   0  0  0  0  0  0  0  0  0  0  0  0  # atno 8008 bound_to 7997
  154.9383  140.3049  155.5113 H   0  0  0  0  0  0  0  0  0  0  0  0  # atno 8009 bound_to 7997
  156.2970  140.2310  156.4449 H   0  0  0  0  0  0  0  0  0  0  0  0  # atno 8010 bound_to 7997
  139.4923  144.5891  151.6718 H   0  0  0  0  0  0  0  0  0  0  0  0  # atno 10167 bound_to 10162
  156.8494  130.9714  151.3093 H   0  0  0  0  0  0  0  0  0  0  0  0  # atno 10718 bound_to 10713
  154.6404  135.2898  155.0110 H   0  0  0  0  0  0  0  0  0  0  0  0  # atno 10763 bound_to 10752
  154.1239  135.6544  153.4912 H   0  0  0  0  0  0  0  0  0  0  0  0  # atno 10764 bound_to 10752
  153.0323  135.5294  154.7268 H   0  0  0  0  0  0  0  0  0  0  0  0  # atno 10765 bound_to 10752
  141.0299  133.9997  157.3159 H   0  0  0  0  0  0  0  0  0  0  0  0  # atno 11005 bound_to 11000
  146.2148  139.5529  142.9657 LP  0  0  0  0  0  0  0  0  0  0  0  0  # atno 17320 bound_to 7965
  145.5820  141.0381  143.2117 LP  0  0  0  0  0  0  0  0  0  0  0  0  # atno 17321 bound_to 7965
  140.5514  144.0419  150.6128 LP  0  0  0  0  0  0  0  0  0  0  0  0  # atno 17342 bound_to 10162
  140.3475  143.2983  152.0523 LP  0  0  0  0  0  0  0  0  0  0  0  0  # atno 17343 bound_to 10162
  157.6312  130.8730  149.9277 LP  0  0  0  0  0  0  0  0  0  0  0  0  # atno 17370 bound_to 10713
  156.0836  130.3670  150.0531 LP  0  0  0  0  0  0  0  0  0  0  0  0  # atno 17371 bound_to 10713
  139.9201  135.0200  156.8030 LP  0  0  0  0  0  0  0  0  0  0  0  0  # atno 17394 bound_to 11000
  140.6425  133.9805  155.7715 LP  0  0  0  0  0  0  0  0  0  0  0  0  # atno 17395 bound_to 11000

$$$$
