AV-unprocessed.smi:1203|AV-procd|sdf|5033|dock2
  -GOLD-   22720 4 53D 1   1.00000     0.00000
 Structure written by MMmdl.
 39 40  0  0  0  0  0  0  0  0  1 V2000
  156.0608  139.9244  165.8376 C   0  0  0  0  0  0  0  0  0  0  0  0
  156.6650  139.3484  164.1994 S   0  0  0  0  0  0  0  0  0  0  0  0
  156.8703  140.5274  163.3445 O   0  0  0  0  0  0  0  0  0  0  0  0
  157.7607  138.3874  164.3982 O   0  0  0  0  0  0  0  0  0  0  0  0
  155.3052  138.4797  163.5732 N   0  0  0  0  0  0  0  0  0  0  0  0
  154.6674  137.4643  164.4258 C   0  0  0  0  0  0  0  0  0  0  0  0
  154.0795  136.4253  163.4727 C   0  0  0  0  0  0  0  0  0  0  0  0
  155.0019  136.5085  162.2647 C   0  0  0  0  0  0  0  0  0  0  0  0
  155.3586  138.0030  162.1805 C   0  0  1  0  0  0  0  0  0  0  0  0
  154.4455  138.8134  161.2461 C   0  0  0  0  0  0  0  0  0  0  0  0
  153.5282  138.2754  160.6246 O   0  0  0  0  0  0  0  0  0  0  0  0
  154.7098  140.1247  161.1627 N   0  0  0  0  0  0  0  0  0  0  0  0
  153.9660  141.0720  160.3420 C   0  0  0  0  0  0  0  0  0  0  0  0
  153.4123  142.2335  161.1842 C   0  0  0  0  0  0  0  0  0  0  0  0
  152.6915  143.2858  160.3592 C   0  0  0  0  0  0  0  0  0  0  0  0
  152.7368  143.2532  158.9502 C   0  0  0  0  0  0  0  0  0  0  0  0
  152.0638  144.2558  158.2261 C   0  0  0  0  0  0  0  0  0  0  0  0
  151.3703  145.2504  158.9442 C   0  0  0  0  0  0  0  0  0  0  0  0
  151.3160  145.2894  160.2928 N   0  0  0  0  0  0  0  0  0  0  0  0
  151.9638  144.3240  160.9796 C   0  0  0  0  0  0  0  0  0  0  0  0
  156.8350  140.5219  166.3182 H   0  0  0  0  0  0  0  0  0  0  0  0
  155.8266  139.0658  166.4661 H   0  0  0  0  0  0  0  0  0  0  0  0
  155.1660  140.5317  165.7023 H   0  0  0  0  0  0  0  0  0  0  0  0
  155.4188  136.9995  165.0651 H   0  0  0  0  0  0  0  0  0  0  0  0
  153.9097  137.9164  165.0662 H   0  0  0  0  0  0  0  0  0  0  0  0
  154.0407  135.4266  163.9080 H   0  0  0  0  0  0  0  0  0  0  0  0
  153.0654  136.7095  163.1893 H   0  0  0  0  0  0  0  0  0  0  0  0
  155.9067  135.9283  162.4518 H   0  0  0  0  0  0  0  0  0  0  0  0
  154.5445  136.1046  161.3605 H   0  0  0  0  0  0  0  0  0  0  0  0
  156.3780  138.0927  161.8017 H   0  0  0  0  0  0  0  0  0  0  0  0
  155.4787  140.4913  161.7058 H   0  0  0  0  0  0  0  0  0  0  0  0
  154.6313  141.4584  159.5685 H   0  0  0  0  0  0  0  0  0  0  0  0
  153.1462  140.5635  159.8320 H   0  0  0  0  0  0  0  0  0  0  0  0
  152.7250  141.8468  161.9373 H   0  0  0  0  0  0  0  0  0  0  0  0
  154.2280  142.7068  161.7324 H   0  0  0  0  0  0  0  0  0  0  0  0
  153.2809  142.4764  158.4331 H   0  0  0  0  0  0  0  0  0  0  0  0
  152.0794  144.2636  157.1463 H   0  0  0  0  0  0  0  0  0  0  0  0
  150.8442  146.0351  158.4209 H   0  0  0  0  0  0  0  0  0  0  0  0
  151.9032  144.3865  162.0563 H   0  0  0  0  0  0  0  0  0  0  0  0
  1  2  1  0  0  0  0
  1 21  1  0  0  0  0
  1 22  1  0  0  0  0
  1 23  1  0  0  0  0
  2  3  2  0  0  0  0
  2  4  2  0  0  0  0
  2  5  1  0  0  0  0
  5  9  1  0  0  0  0
  5  6  1  0  0  0  0
  6  7  1  0  0  0  0
  6 24  1  0  0  0  0
  6 25  1  0  0  0  0
  7  8  1  0  0  0  0
  7 26  1  0  0  0  0
  7 27  1  0  0  0  0
  8  9  1  0  0  0  0
  8 28  1  0  0  0  0
  8 29  1  0  0  0  0
  9 10  1  0  0  0  0
  9 30  1  0  0  0  0
 10 11  2  0  0  0  0
 10 12  1  0  0  0  0
 12 13  1  0  0  0  0
 12 31  1  0  0  0  0
 13 14  1  0  0  0  0
 13 32  1  0  0  0  0
 13 33  1  0  0  0  0
 14 15  1  0  0  0  0
 14 34  1  0  0  0  0
 14 35  1  0  0  0  0
 15 20  1  0  0  0  0
 15 16  2  0  0  0  0
 16 17  1  0  0  0  0
 16 36  1  0  0  0  0
 17 18  2  0  0  0  0
 17 37  1  0  0  0  0
 18 19  1  0  0  0  0
 18 38  1  0  0  0  0
 19 20  2  0  0  0  0
 20 39  1  0  0  0  0
M  END
> <s_m_source_file>
AV-unprocessed.smi

> <i_m_source_file_index>
1203

> <i_lp_mmshare_version>
43012

> <i_f3d_flags>
0

> <s_epik_input>
W0NIM11TKD1PKSg9TylOMVtDSDJdW0NIMl1bQ0gyXVtDQEhdMUMoPU8pW05IXVtDSDJdW0NIMl1jMltjSF1bY0hdW2NIXW5bY0hdMg==

> <s_epik_cmdline>
J2VwaWtfcHl0aG9uJywgJy1waCcsICc3LjAnLCAnLXRuJywgJzgnLCAnLW1hJywgJzIwMCcsICctbWV0YWxfYmluZGluZycsICctaW1hZScsICc8aW5maWxlLm1hZT4nLCAnLW9tYWUnLCAnPG91dGZpbGUubWFlPic=

> <r_epik_Ionization_Penalty>
0.0126915

> <r_epik_Ionization_Penalty_Charging>
0

> <r_epik_Ionization_Penalty_Neutral>
0.0126915

> <r_epik_State_Penalty>
0.0098379

> <r_epik_Charging_Adjusted_Penalty>
0.0098379

> <i_epik_Tot_Q>
0

> <i_epik_Tot_abs_Q>
0

> <r_epik_Metal_State_Penalty>
0.00962905

> <b_epik_Metal_Only>
0

> <s_lp_Force_Field>
OPLS_2005

> <r_lp_Energy>
6.50252

> <b_lp_Chiralities_Consistent>
1

> <s_lp_Variant>
AV-unprocessed.smi:1203-1

> <Gold.Version>
5.8.1

> <Gold.Id.Protein>
6NUR|6NUR_protein|mol2

> <Gold.PLP.Fitness>
45.0391

> <Gold.PLP.PLP>
-45.1889

> <Gold.PLP.part.hbond>
-1.0000

> <Gold.PLP.part.metal>
0.0000

> <Gold.PLP.part.buried>
-6.1939

> <Gold.PLP.part.nonpolar>
-37.9029

> <Gold.PLP.part.repulsive>
0.2052

> <Gold.PLP.ligand.clash>
0.0000

> <Gold.PLP.ligand.torsion>
0.3399

> <Gold.PLP.Chemscore.Hbond>
0.0000

> <Gold.PLP.Chemscore.CHOScore>
0.0000

> <Gold.PLP.Chemscore.Metal>
0.0000

> <Gold.PLP.Chemscore.Internal.Correction>
0.5302

> <Gold.Rescore>
     Score         DG    S(hbond)    S(metal)    S(lipo)     H(rot)  DE(clash)    DE(int)     intcor
     14.41     -14.89       0.00        0.00     122.02       1.90       0.18       0.31       ----

> <Gold.Chemscore.Fitness>
14.4132

> <Gold.Chemscore.DG>
-14.8946

> <Gold.Chemscore.ZeroCoef>
-5.4800

> <Gold.Chemscore.Hbond>
0.0000

> <Gold.Chemscore.Metal>
0.0000

> <Gold.Chemscore.Lipo>
122.0165

> <Gold.Chemscore.Internal_Hbond>
0.0000

> <Gold.Chemscore.DEClash>
0.1757

> <Gold.Chemscore.DEInternal>
0.3057

> <Gold.Chemscore.Rot>
1.8990

> <Gold.Chemscore.Internal.Correction>
   9.000000E+99

> <Gold.Chemscore.Hbond.Weighted>
-0.0000

> <Gold.Chemscore.Metal.Weighted>
-0.0000

> <Gold.Chemscore.Lipo.Weighted>
-14.2759

> <Gold.Chemscore.Internal_Hbond.Weighted>
0.0000

> <Gold.Chemscore.DEClash.Weighted>
0.1757

> <Gold.Chemscore.DEInternal.Weighted>
0.3057

> <Gold.Chemscore.Rot.Weighted>
4.8613

> <Gold.Chemscore.Internal.Correction.Weighted>
   9.000000E+99

> <Gold.Protein.RotatedTorsions>
[ 6907 6896 6895 6894 ] final -101.48 input  -60.11 | X-H torsion
[ 7974 7965 7964 7962 ] final -163.08 input  175.53 | X-H torsion
[ 8008 7997 7996 7995 ] final   97.82 input   59.86 | X-H torsion
[ 10167 10162 10161 10158 ] final -161.89 input  -65.29 | X-H torsion
[ 10718 10713 10712 10709 ] final  -24.83 input   66.30 | X-H torsion
[ 10763 10752 10751 10750 ] final  169.10 input  -60.55 | X-H torsion
[ 11005 11000 10999 10996 ] final -174.89 input  -57.11 | X-H torsion

> <Gold.Protein.ActiveResidues>
 VAL166  LYS551  ARG553  GLY616  TRP617  ASP618  TYR619  PRO620  LYS621  CYS622 
 ASP623  PHE694  ASN695  SER759  ASP760  ASP761  ALA762  ILE779  LEU786  VAL792 
 PHE793  MET794  SER795  GLU796  ALA797  LYS798  CYS799  TRP800  GLU811  SER814 

> <Gold.Protein.RotatedAtoms>
  150.7156  134.0728  159.3870 H   0  0  0  0  0  0  0  0  0  0  0  0  # atno 6907 bound_to 6896
  151.8710  135.0487  160.0488 H   0  0  0  0  0  0  0  0  0  0  0  0  # atno 6908 bound_to 6896
  152.2643  133.5289  159.5437 H   0  0  0  0  0  0  0  0  0  0  0  0  # atno 6909 bound_to 6896
  144.7337  140.3159  143.6179 H   0  0  0  0  0  0  0  0  0  0  0  0  # atno 7974 bound_to 7965
  156.0940  140.3253  155.7854 H   0  0  0  0  0  0  0  0  0  0  0  0  # atno 8008 bound_to 7997
  155.4948  140.0564  157.2965 H   0  0  0  0  0  0  0  0  0  0  0  0  # atno 8009 bound_to 7997
  154.4655  140.1987  156.0145 H   0  0  0  0  0  0  0  0  0  0  0  0  # atno 8010 bound_to 7997
  139.6432  144.0221  152.2107 H   0  0  0  0  0  0  0  0  0  0  0  0  # atno 10167 bound_to 10162
  156.4724  130.4527  149.6861 H   0  0  0  0  0  0  0  0  0  0  0  0  # atno 10718 bound_to 10713
  154.3782  135.2753  155.2227 H   0  0  0  0  0  0  0  0  0  0  0  0  # atno 10763 bound_to 10752
  154.4345  135.5969  153.6093 H   0  0  0  0  0  0  0  0  0  0  0  0  # atno 10764 bound_to 10752
  152.9835  135.6003  154.4021 H   0  0  0  0  0  0  0  0  0  0  0  0  # atno 10765 bound_to 10752
  140.4694  134.6179  157.4876 H   0  0  0  0  0  0  0  0  0  0  0  0  # atno 11005 bound_to 11000
  145.7618  139.1827  143.2263 LP  0  0  0  0  0  0  0  0  0  0  0  0  # atno 17320 bound_to 7965
  146.0980  140.7577  142.9563 LP  0  0  0  0  0  0  0  0  0  0  0  0  # atno 17321 bound_to 7965
  139.9916  144.6357  150.7809 LP  0  0  0  0  0  0  0  0  0  0  0  0  # atno 17342 bound_to 10162
  140.7501  143.2950  151.3229 LP  0  0  0  0  0  0  0  0  0  0  0  0  # atno 17343 bound_to 10162
  156.3604  130.7478  151.2450 LP  0  0  0  0  0  0  0  0  0  0  0  0  # atno 17370 bound_to 10713
  157.7490  131.0352  150.4351 LP  0  0  0  0  0  0  0  0  0  0  0  0  # atno 17371 bound_to 10713
  139.9894  134.7009  155.9715 LP  0  0  0  0  0  0  0  0  0  0  0  0  # atno 17394 bound_to 11000
  141.1584  133.6541  156.4237 LP  0  0  0  0  0  0  0  0  0  0  0  0  # atno 17395 bound_to 11000

$$$$
