AV-unprocessed.smi:512|AV-procd|sdf|2768|dock10
  -GOLD-   2262023233D 1   1.00000     0.00000
 Structure written by MMmdl.
 49 51  0  0  0  0  0  0  0  0  2 V2000
  150.0255  129.8561  154.0127 C   0  0  0  0  0  0  0  0  0  0  0  0
  149.4531  131.2740  153.9511 C   0  0  0  0  0  0  0  0  0  0  0  0
  150.3077  132.1358  154.6804 O   0  0  0  0  0  0  0  0  0  0  0  0
  150.0258  133.5099  154.4697 C   0  0  0  0  0  0  0  0  0  0  0  0
  148.8886  133.9376  155.4076 C   0  0  0  0  0  0  0  0  0  0  0  0
  148.3975  135.2749  155.0817 N   0  0  0  0  0  0  0  0  0  0  0  0
  147.1320  135.6642  154.7704 C   0  0  0  0  0  0  0  0  0  0  0  0
  146.0650  134.7670  154.7691 N   0  0  0  0  0  0  0  0  0  0  0  0
  144.6567  135.1370  154.8867 C   0  0  0  0  0  0  0  0  0  0  0  0
  143.9337  135.0311  153.5310 C   0  0  0  0  0  0  0  0  0  0  0  0
  144.0770  133.6723  152.9557 N   0  3  0  0  0  0  0  0  0  0  0  0
  143.3851  133.5271  151.6575 C   0  0  0  0  0  0  0  0  0  0  0  0
  145.4951  133.2459  152.8976 C   0  0  0  0  0  0  0  0  0  0  0  0
  146.1621  133.3972  154.2752 C   0  0  0  0  0  0  0  0  0  0  0  0
  147.0087  136.9511  154.4347 N   0  0  0  0  0  0  0  0  0  0  0  0
  148.3035  137.4314  154.5634 C   0  0  0  0  0  0  0  0  0  0  0  0
  149.1503  136.4415  154.9449 C   0  0  0  0  0  0  0  0  0  0  0  0
  150.5912  136.6625  155.1241 C   0  0  0  0  0  0  0  0  0  0  0  0
  151.3779  135.7751  155.4467 O   0  0  0  0  0  0  0  0  0  0  0  0
  150.9645  137.9448  154.8941 N   0  0  0  0  0  0  0  0  0  0  0  0
  150.1645  138.9895  154.5194 C   0  0  0  0  0  0  0  0  0  0  0  0
  150.6508  140.1080  154.3540 O   0  0  0  0  0  0  0  0  0  0  0  0
  148.8280  138.7368  154.3416 N   0  0  0  0  0  0  0  0  0  0  0  0
  147.9260  139.8157  153.9349 C   0  0  0  0  0  0  0  0  0  0  0  0
  151.9455  138.1528  155.0107 H   0  0  0  0  0  0  0  0  0  0  0  0
  149.3954  129.1565  153.4631 H   0  0  0  0  0  0  0  0  0  0  0  0
  150.0941  129.5071  155.0432 H   0  0  0  0  0  0  0  0  0  0  0  0
  151.0250  129.8190  153.5792 H   0  0  0  0  0  0  0  0  0  0  0  0
  149.3799  131.6043  152.9140 H   0  0  0  0  0  0  0  0  0  0  0  0
  148.4489  131.2896  154.3771 H   0  0  0  0  0  0  0  0  0  0  0  0
  150.9160  134.1092  154.6651 H   0  0  0  0  0  0  0  0  0  0  0  0
  149.7378  133.6792  153.4311 H   0  0  0  0  0  0  0  0  0  0  0  0
  148.0794  133.2145  155.3458 H   0  0  0  0  0  0  0  0  0  0  0  0
  149.2164  133.9162  156.4459 H   0  0  0  0  0  0  0  0  0  0  0  0
  144.1761  134.4982  155.6289 H   0  0  0  0  0  0  0  0  0  0  0  0
  144.5710  136.1615  155.2481 H   0  0  0  0  0  0  0  0  0  0  0  0
  142.8763  135.2680  153.6550 H   0  0  0  0  0  0  0  0  0  0  0  0
  144.3455  135.7644  152.8353 H   0  0  0  0  0  0  0  0  0  0  0  0
  143.8256  134.1808  150.9035 H   0  0  0  0  0  0  0  0  0  0  0  0
  142.3287  133.7795  151.7552 H   0  0  0  0  0  0  0  0  0  0  0  0
  143.4504  132.4990  151.2997 H   0  0  0  0  0  0  0  0  0  0  0  0
  145.5532  132.2075  152.5697 H   0  0  0  0  0  0  0  0  0  0  0  0
  146.0281  133.8459  152.1579 H   0  0  0  0  0  0  0  0  0  0  0  0
  147.2114  133.1056  154.2154 H   0  0  0  0  0  0  0  0  0  0  0  0
  145.6975  132.7250  154.9979 H   0  0  0  0  0  0  0  0  0  0  0  0
  147.8370  140.5547  154.7320 H   0  0  0  0  0  0  0  0  0  0  0  0
  146.9228  139.4580  153.7035 H   0  0  0  0  0  0  0  0  0  0  0  0
  148.3005  140.3197  153.0428 H   0  0  0  0  0  0  0  0  0  0  0  0
  143.6193  133.0426  153.5994 H   0  0  0  0  0  0  0  0  0  0  0  0
  1  2  1  0  0  0  0
  1 26  1  0  0  0  0
  1 27  1  0  0  0  0
  1 28  1  0  0  0  0
  2  3  1  0  0  0  0
  2 29  1  0  0  0  0
  2 30  1  0  0  0  0
  3  4  1  0  0  0  0
  4  5  1  0  0  0  0
  4 31  1  0  0  0  0
  4 32  1  0  0  0  0
  5  6  1  0  0  0  0
  5 33  1  0  0  0  0
  5 34  1  0  0  0  0
  6 17  1  0  0  0  0
  6  7  1  0  0  0  0
  7  8  1  0  0  0  0
  7 15  2  0  0  0  0
  8 14  1  0  0  0  0
  8  9  1  0  0  0  0
  9 10  1  0  0  0  0
  9 35  1  0  0  0  0
  9 36  1  0  0  0  0
 10 11  1  0  0  0  0
 10 37  1  0  0  0  0
 10 38  1  0  0  0  0
 11 12  1  0  0  0  0
 11 13  1  0  0  0  0
 11 49  1  0  0  0  0
 12 39  1  0  0  0  0
 12 40  1  0  0  0  0
 12 41  1  0  0  0  0
 13 14  1  0  0  0  0
 13 42  1  0  0  0  0
 13 43  1  0  0  0  0
 14 44  1  0  0  0  0
 14 45  1  0  0  0  0
 15 16  1  0  0  0  0
 16 23  1  0  0  0  0
 16 17  2  0  0  0  0
 17 18  1  0  0  0  0
 18 19  2  0  0  0  0
 18 20  1  0  0  0  0
 20 25  1  0  0  0  0
 20 21  1  0  0  0  0
 21 22  2  0  0  0  0
 21 23  1  0  0  0  0
 23 24  1  0  0  0  0
 24 46  1  0  0  0  0
 24 47  1  0  0  0  0
 24 48  1  0  0  0  0
M  CHG  1  11   1
M  END
> <s_m_source_file>
AV-unprocessed.smi

> <i_m_source_file_index>
512

> <i_lp_mmshare_version>
43012

> <i_f3d_flags>
0

> <s_epik_input>
W0NIM11uMWMoPU8pW25IXWMoPU8pYyhjMTIpbihbQ0gyXVtDSDJdT1tDSDJdW0NIM10pYyhuMilOM1tDSDJdW0NIMl1OKFtDSDNdKVtDSDJdW0NIMl0z

> <s_epik_cmdline>
J2VwaWtfcHl0aG9uJywgJy1waCcsICc3LjAnLCAnLXRuJywgJzgnLCAnLW1hJywgJzIwMCcsICctbWV0YWxfYmluZGluZycsICctaW1hZScsICc8aW5maWxlLm1hZT4nLCAnLW9tYWUnLCAnPG91dGZpbGUubWFlPic=

> <r_epik_Ionization_Penalty>
0.06478

> <r_epik_Ionization_Penalty_Charging>
0.0647782

> <r_epik_Ionization_Penalty_Neutral>
1.82007e-06

> <r_epik_State_Penalty>
0.0564218

> <r_epik_Charging_Adjusted_Penalty>
0.1212

> <i_epik_Tot_Q>
1

> <i_epik_Tot_abs_Q>
1

> <r_epik_Metal_State_Penalty>
0.0827594

> <b_epik_Metal_Only>
0

> <s_lp_Force_Field>
OPLS_2005

> <r_lp_Energy>
46.3907

> <b_lp_Chiralities_Consistent>
1

> <s_lp_Variant>
AV-unprocessed.smi:512-1

> <Gold.Version>
5.8.1

> <Gold.Id.Protein>
6NUR|6NUR_protein|mol2

> <Gold.PLP.Fitness>
37.7549

> <Gold.PLP.PLP>
-26.4094

> <Gold.PLP.part.hbond>
-2.9887

> <Gold.PLP.part.metal>
0.0000

> <Gold.PLP.part.buried>
-3.5857

> <Gold.PLP.part.nonpolar>
-19.7525

> <Gold.PLP.part.repulsive>
0.3437

> <Gold.PLP.ligand.clash>
0.0000

> <Gold.PLP.ligand.torsion>
0.6460

> <Gold.PLP.Chemscore.Hbond>
4.0000

> <Gold.PLP.Chemscore.CHOScore>
0.0000

> <Gold.PLP.Chemscore.Metal>
0.0000

> <Gold.Chemscore.Hbonds>
donor molecule, donor type, donor heavy atom, donor atom, acceptor molecule, acceptor atom, score
      L1  H    11    49       P1 10957  2.00
      P1  H  7989  7998       L1    22  0.94
      P1  H 10752 10763       L1    19  1.00

> <Gold.PLP.Chemscore.Internal.Correction>
0.6375

> <Gold.Rescore>
     Score         DG    S(hbond)    S(metal)    S(lipo)     H(rot)  DE(clash)    DE(int)     intcor
     15.45     -16.41       2.96        0.00      45.04       1.66       0.01       0.95       ----

> <Gold.Chemscore.Fitness>
15.4513

> <Gold.Chemscore.DG>
-16.4083

> <Gold.Chemscore.ZeroCoef>
-5.4800

> <Gold.Chemscore.Hbond>
2.9649

> <Gold.Chemscore.Metal>
0.0000

> <Gold.Chemscore.Lipo>
45.0406

> <Gold.Chemscore.Internal_Hbond>
0.0000

> <Gold.Chemscore.DEClash>
0.0089

> <Gold.Chemscore.DEInternal>
0.9481

> <Gold.Chemscore.Rot>
1.6579

> <Gold.Chemscore.Internal.Correction>
   9.000000E+99

> <Gold.Chemscore.Hbonds>
donor molecule, donor type, donor heavy atom, donor atom, acceptor molecule, acceptor atom, score
      L1  H    11    49       P1 10957  0.90
      P1  H  7989  7998       L1    22  0.90
      P1  H 10752 10763       L1    19  1.00

> <Gold.Chemscore.Hbond.Weighted>
-9.9027

> <Gold.Chemscore.Metal.Weighted>
-0.0000

> <Gold.Chemscore.Lipo.Weighted>
-5.2697

> <Gold.Chemscore.Internal_Hbond.Weighted>
0.0000

> <Gold.Chemscore.DEClash.Weighted>
0.0089

> <Gold.Chemscore.DEInternal.Weighted>
0.9481

> <Gold.Chemscore.Rot.Weighted>
4.2442

> <Gold.Chemscore.Internal.Correction.Weighted>
   9.000000E+99

> <Gold.Protein.RotatedTorsions>
[ 6907 6896 6895 6894 ] final  -80.32 input  -60.11 | X-H torsion
[ 7974 7965 7964 7962 ] final -163.79 input  175.53 | X-H torsion
[ 8008 7997 7996 7995 ] final  124.37 input   59.86 | X-H torsion
[ 10167 10162 10161 10158 ] final  170.57 input  -65.29 | X-H torsion
[ 10718 10713 10712 10709 ] final  -47.85 input   66.30 | X-H torsion
[ 10763 10752 10751 10750 ] final   68.64 input  -60.55 | X-H torsion
[ 11005 11000 10999 10996 ] final -163.54 input  -57.11 | X-H torsion

> <Gold.Protein.ActiveResidues>
 VAL166  LYS551  ARG553  GLY616  TRP617  ASP618  TYR619  PRO620  LYS621  CYS622 
 ASP623  PHE694  ASN695  SER759  ASP760  ASP761  ALA762  ILE779  LEU786  VAL792 
 PHE793  MET794  SER795  GLU796  ALA797  LYS798  CYS799  TRP800  GLU811  SER814 

> <Gold.Protein.RotatedAtoms>
  150.6932  134.3987  159.5108 H   0  0  0  0  0  0  0  0  0  0  0  0  # atno 6907 bound_to 6896
  152.1764  134.8788  160.0539 H   0  0  0  0  0  0  0  0  0  0  0  0  # atno 6908 bound_to 6896
  151.9795  133.3718  159.4139 H   0  0  0  0  0  0  0  0  0  0  0  0  # atno 6909 bound_to 6896
  144.7315  140.3056  143.6197 H   0  0  0  0  0  0  0  0  0  0  0  0  # atno 7974 bound_to 7965
  156.2799  140.2741  156.1778 H   0  0  0  0  0  0  0  0  0  0  0  0  # atno 8008 bound_to 7997
  155.0588  140.0386  157.2587 H   0  0  0  0  0  0  0  0  0  0  0  0  # atno 8009 bound_to 7997
  154.7134  140.2673  155.6613 H   0  0  0  0  0  0  0  0  0  0  0  0  # atno 8010 bound_to 7997
  139.5022  144.3581  151.9853 H   0  0  0  0  0  0  0  0  0  0  0  0  # atno 10167 bound_to 10162
  156.2044  130.4157  149.9197 H   0  0  0  0  0  0  0  0  0  0  0  0  # atno 10718 bound_to 10713
  153.0245  135.5240  154.7165 H   0  0  0  0  0  0  0  0  0  0  0  0  # atno 10763 bound_to 10752
  154.6232  135.2891  155.0304 H   0  0  0  0  0  0  0  0  0  0  0  0  # atno 10764 bound_to 10752
  154.1283  135.6597  153.4969 H   0  0  0  0  0  0  0  0  0  0  0  0  # atno 10765 bound_to 10752
  140.5969  134.4987  157.5200 H   0  0  0  0  0  0  0  0  0  0  0  0  # atno 11005 bound_to 11000
  145.7716  139.1859  143.2209 LP  0  0  0  0  0  0  0  0  0  0  0  0  # atno 17320 bound_to 7965
  146.0906  140.7660  142.9597 LP  0  0  0  0  0  0  0  0  0  0  0  0  # atno 17321 bound_to 7965
  140.3018  144.3638  150.6058 LP  0  0  0  0  0  0  0  0  0  0  0  0  # atno 17342 bound_to 10162
  140.5867  143.2169  151.7328 LP  0  0  0  0  0  0  0  0  0  0  0  0  # atno 17343 bound_to 10162
  156.6896  130.8890  151.3586 LP  0  0  0  0  0  0  0  0  0  0  0  0  # atno 17370 bound_to 10713
  157.7004  130.9327  150.0768 LP  0  0  0  0  0  0  0  0  0  0  0  0  # atno 17371 bound_to 10713
  139.9249  134.8075  156.1098 LP  0  0  0  0  0  0  0  0  0  0  0  0  # atno 17394 bound_to 11000
  141.0898  133.6719  156.2515 LP  0  0  0  0  0  0  0  0  0  0  0  0  # atno 17395 bound_to 11000

$$$$
