AV-unprocessed.smi:77|AV-procd|sdf|773|dock1
  -GOLD-   2262017123D 1   1.00000     0.00000
 Structure written by MMmdl.
 57 61  0  0  0  0  0  0  0  0  1 V2000
  152.7222  140.1463  157.9693 O   0  0  0  0  0  0  0  0  0  0  0  0
  151.7038  140.8161  158.1499 C   0  0  0  0  0  0  0  0  0  0  0  0
  150.3711  140.4215  157.4996 C   0  0  0  0  0  0  0  0  0  0  0  0
  150.4670  139.2102  156.6747 N   0  0  0  0  0  0  0  0  0  0  0  0
  149.5800  138.2032  156.9191 C   0  0  0  0  0  0  0  0  0  0  0  0
  148.8206  137.7291  155.8937 N   0  0  0  0  0  0  0  0  0  0  0  0
  147.9385  136.7463  156.0915 C   0  0  0  0  0  0  0  0  0  0  0  0
  147.6545  136.0972  157.2203 N   0  0  0  0  0  0  0  0  0  0  0  0
  148.4112  136.5580  158.2562 C   0  0  0  0  0  0  0  0  0  0  0  0
  149.3872  137.5952  158.1968 C   0  0  0  0  0  0  0  0  0  0  0  0
  149.9536  137.7681  159.4557 N   0  0  0  0  0  0  0  0  0  0  0  0
  149.3493  136.8926  160.2104 C   0  0  0  0  0  0  0  0  0  0  0  0
  148.4100  136.1203  159.5691 N   0  0  0  0  0  0  0  0  0  0  0  0
  147.5944  135.0759  160.1649 C   0  0  0  0  0  0  0  0  0  0  0  0
  146.6330  135.5939  161.2648 C   0  0  2  0  0  0  0  0  0  0  0  0
  147.3998  135.9207  162.5728 C   0  0  0  0  0  0  0  0  0  0  0  0
  147.6861  137.2989  162.6849 O   0  0  0  0  0  0  0  0  0  0  0  0
  145.4849  134.5714  161.4916 C   0  0  1  0  0  0  0  0  0  0  0  0
  144.4528  134.9513  162.5399 C   0  0  0  0  0  0  0  0  0  0  0  0
  143.2879  134.0319  162.1951 C   0  0  0  0  0  0  0  0  0  0  0  0
  143.3184  133.9001  160.7799 O   0  0  0  0  0  0  0  0  0  0  0  0
  144.5711  134.3552  160.2775 C   0  0  0  0  0  0  0  0  0  0  0  0
  150.9637  139.3786  155.3089 C   0  0  0  0  0  0  0  0  0  0  0  0
  151.1697  138.1556  154.4418 C   0  0  0  0  0  0  0  0  0  0  0  0
  152.3625  138.9141  154.9718 C   0  0  0  0  0  0  0  0  0  0  0  0
  151.6727  141.9163  158.9155 N   0  0  0  0  0  0  0  0  0  0  0  0
  152.7838  142.4657  159.6226 C   0  0  0  0  0  0  0  0  0  0  0  0
  152.7538  142.4017  161.1342 C   0  0  0  0  0  0  0  0  0  0  0  0
  152.5496  143.7187  160.4380 C   0  0  0  0  0  0  0  0  0  0  0  0
  149.6081  140.3190  158.2728 H   0  0  0  0  0  0  0  0  0  0  0  0
  150.0407  141.2514  156.8728 H   0  0  0  0  0  0  0  0  0  0  0  0
  147.3821  136.4356  155.2196 H   0  0  0  0  0  0  0  0  0  0  0  0
  149.5765  136.7826  161.2609 H   0  0  0  0  0  0  0  0  0  0  0  0
  147.0380  134.6057  159.3542 H   0  0  0  0  0  0  0  0  0  0  0  0
  148.2513  134.3063  160.5722 H   0  0  0  0  0  0  0  0  0  0  0  0
  146.1953  136.5226  160.8945 H   0  0  0  0  0  0  0  0  0  0  0  0
  146.8371  135.5893  163.4459 H   0  0  0  0  0  0  0  0  0  0  0  0
  148.3629  135.4145  162.6116 H   0  0  0  0  0  0  0  0  0  0  0  0
  147.0880  137.6796  163.3097 H   0  0  0  0  0  0  0  0  0  0  0  0
  145.9144  133.6081  161.7725 H   0  0  0  0  0  0  0  0  0  0  0  0
  144.8010  134.8052  163.5626 H   0  0  0  0  0  0  0  0  0  0  0  0
  144.1541  135.9942  162.4229 H   0  0  0  0  0  0  0  0  0  0  0  0
  143.4373  133.0470  162.6396 H   0  0  0  0  0  0  0  0  0  0  0  0
  142.3299  134.4197  162.5423 H   0  0  0  0  0  0  0  0  0  0  0  0
  144.4024  135.2936  159.7475 H   0  0  0  0  0  0  0  0  0  0  0  0
  144.9852  133.6383  159.5681 H   0  0  0  0  0  0  0  0  0  0  0  0
  150.6263  140.2769  154.7948 H   0  0  0  0  0  0  0  0  0  0  0  0
  150.9616  137.1810  154.8794 H   0  0  0  0  0  0  0  0  0  0  0  0
  150.9419  138.2492  153.3821 H   0  0  0  0  0  0  0  0  0  0  0  0
  152.9318  139.5143  154.2654 H   0  0  0  0  0  0  0  0  0  0  0  0
  152.9492  138.4341  155.7520 H   0  0  0  0  0  0  0  0  0  0  0  0
  150.7919  142.4015  159.0070 H   0  0  0  0  0  0  0  0  0  0  0  0
  153.7666  142.3695  159.1630 H   0  0  0  0  0  0  0  0  0  0  0  0
  151.8869  141.9446  161.6079 H   0  0  0  0  0  0  0  0  0  0  0  0
  153.7003  142.2469  161.6482 H   0  0  0  0  0  0  0  0  0  0  0  0
  153.3597  144.4437  160.4857 H   0  0  0  0  0  0  0  0  0  0  0  0
  151.5465  144.1414  160.4459 H   0  0  0  0  0  0  0  0  0  0  0  0
  1  2  2  0  0  0  0
  2  3  1  0  0  0  0
  2 26  1  0  0  0  0
  3  4  1  0  0  0  0
  3 30  1  0  0  0  0
  3 31  1  0  0  0  0
  4  5  1  0  0  0  0
  4 23  1  0  0  0  0
  5 10  1  0  0  0  0
  5  6  2  0  0  0  0
  6  7  1  0  0  0  0
  7  8  2  0  0  0  0
  7 32  1  0  0  0  0
  8  9  1  0  0  0  0
  9 13  1  0  0  0  0
  9 10  2  0  0  0  0
 10 11  1  0  0  0  0
 11 12  2  0  0  0  0
 12 13  1  0  0  0  0
 12 33  1  0  0  0  0
 13 14  1  0  0  0  0
 14 15  1  0  0  0  0
 14 34  1  0  0  0  0
 14 35  1  0  0  0  0
 15 16  1  0  0  0  0
 15 18  1  0  0  0  0
 15 36  1  0  0  0  0
 16 17  1  0  0  0  0
 16 37  1  0  0  0  0
 16 38  1  0  0  0  0
 17 39  1  0  0  0  0
 18 22  1  0  0  0  0
 18 19  1  0  0  0  0
 18 40  1  0  0  0  0
 19 20  1  0  0  0  0
 19 41  1  0  0  0  0
 19 42  1  0  0  0  0
 20 21  1  0  0  0  0
 20 43  1  0  0  0  0
 20 44  1  0  0  0  0
 21 22  1  0  0  0  0
 22 45  1  0  0  0  0
 22 46  1  0  0  0  0
 23 25  1  0  0  0  0
 23 24  1  0  0  0  0
 23 47  1  0  0  0  0
 24 25  1  0  0  0  0
 24 48  1  0  0  0  0
 24 49  1  0  0  0  0
 25 50  1  0  0  0  0
 25 51  1  0  0  0  0
 26 27  1  0  0  0  0
 26 52  1  0  0  0  0
 27 29  1  0  0  0  0
 27 28  1  0  0  0  0
 27 53  1  0  0  0  0
 28 29  1  0  0  0  0
 28 54  1  0  0  0  0
 28 55  1  0  0  0  0
 29 56  1  0  0  0  0
 29 57  1  0  0  0  0
M  END
> <s_m_source_file>
AV-unprocessed.smi

> <i_m_source_file_index>
77

> <i_lp_mmshare_version>
43012

> <i_f3d_flags>
0

> <s_epik_input>
W0NIMl0xW0NIMl1bQ0hdMVtOSF1DKD1PKVtDSDJdTihbQ0hdMltDSDJdW0NIMl0yKWMobltjSF1uMyljKGMzNCluW2NIXW40W0NIMl1bQ0BIXShbQ0gyXVtPSF0pW0NAQEhdNVtDSDJdW0NIMl1PW0NIMl01

> <s_epik_cmdline>
J2VwaWtfcHl0aG9uJywgJy1waCcsICc3LjAnLCAnLXRuJywgJzgnLCAnLW1hJywgJzIwMCcsICctbWV0YWxfYmluZGluZycsICctaW1hZScsICc8aW5maWxlLm1hZT4nLCAnLW9tYWUnLCAnPG91dGZpbGUubWFlPic=

> <r_lp_tautomer_probability>
1

> <r_epik_Ionization_Penalty>
0.000703847

> <r_epik_Ionization_Penalty_Charging>
0

> <r_epik_Ionization_Penalty_Neutral>
0.000703847

> <r_epik_State_Penalty>
0.00034025

> <r_epik_Charging_Adjusted_Penalty>
0.00034025

> <i_epik_Tot_Q>
0

> <i_epik_Tot_abs_Q>
0

> <r_epik_Metal_State_Penalty>
-0

> <b_epik_Metal_Only>
0

> <s_lp_Force_Field>
OPLS_2005

> <r_lp_Energy>
53.8068

> <b_lp_Chiralities_Consistent>
1

> <s_lp_Variant>
AV-unprocessed.smi:77-3

> <Gold.Version>
5.8.1

> <Gold.Id.Protein>
6NUR|6NUR_protein|mol2

> <Gold.PLP.Fitness>
50.8001

> <Gold.PLP.PLP>
-47.5326

> <Gold.PLP.part.hbond>
-3.3162

> <Gold.PLP.part.metal>
0.0000

> <Gold.PLP.part.buried>
-4.0055

> <Gold.PLP.part.nonpolar>
-40.0385

> <Gold.PLP.part.repulsive>
0.1663

> <Gold.PLP.ligand.clash>
0.0000

> <Gold.PLP.ligand.torsion>
1.9567

> <Gold.PLP.Chemscore.Hbond>
1.7440

> <Gold.PLP.Chemscore.CHOScore>
0.0000

> <Gold.PLP.Chemscore.Metal>
0.0000

> <Gold.Chemscore.Hbonds>
donor molecule, donor type, donor heavy atom, donor atom, acceptor molecule, acceptor atom, score
      P1  H  6931  6943       L1    17  0.74
      P1  H  7997  8009       L1     1  0.91

> <Gold.PLP.Chemscore.Internal.Correction>
1.9488

> <Gold.Rescore>
     Score         DG    S(hbond)    S(metal)    S(lipo)     H(rot)  DE(clash)    DE(int)     intcor
     11.06     -15.04       1.78        0.00     106.91       3.47       0.29       3.69       ----

> <Gold.Chemscore.Fitness>
11.0630

> <Gold.Chemscore.DG>
-15.0382

> <Gold.Chemscore.ZeroCoef>
-5.4800

> <Gold.Chemscore.Hbond>
1.7760

> <Gold.Chemscore.Metal>
0.0000

> <Gold.Chemscore.Lipo>
106.9084

> <Gold.Chemscore.Internal_Hbond>
0.0000

> <Gold.Chemscore.DEClash>
0.2894

> <Gold.Chemscore.DEInternal>
3.6858

> <Gold.Chemscore.Rot>
3.4695

> <Gold.Chemscore.Internal.Correction>
   9.000000E+99

> <Gold.Chemscore.Hbonds>
donor molecule, donor type, donor heavy atom, donor atom, acceptor molecule, acceptor atom, score
      P1  H  6931  6943       L1    17  0.73
      P1  H  7997  8009       L1     1  0.83

> <Gold.Chemscore.Hbond.Weighted>
-5.9319

> <Gold.Chemscore.Metal.Weighted>
-0.0000

> <Gold.Chemscore.Lipo.Weighted>
-12.5083

> <Gold.Chemscore.Internal_Hbond.Weighted>
0.0000

> <Gold.Chemscore.DEClash.Weighted>
0.2894

> <Gold.Chemscore.DEInternal.Weighted>
3.6858

> <Gold.Chemscore.Rot.Weighted>
8.8820

> <Gold.Chemscore.Internal.Correction.Weighted>
   9.000000E+99

> <Gold.Protein.RotatedTorsions>
[ 6907 6896 6895 6894 ] final   94.48 input  -60.11 | X-H torsion
[ 7974 7965 7964 7962 ] final -136.32 input  175.53 | X-H torsion
[ 8008 7997 7996 7995 ] final  169.41 input   59.86 | X-H torsion
[ 10167 10162 10161 10158 ] final   26.64 input  -65.29 | X-H torsion
[ 10718 10713 10712 10709 ] final  120.31 input   66.30 | X-H torsion
[ 10763 10752 10751 10750 ] final  121.12 input  -60.55 | X-H torsion
[ 11005 11000 10999 10996 ] final  -74.73 input  -57.11 | X-H torsion

> <Gold.Protein.ActiveResidues>
 VAL166  LYS551  ARG553  GLY616  TRP617  ASP618  TYR619  PRO620  LYS621  CYS622 
 ASP623  PHE694  ASN695  SER759  ASP760  ASP761  ALA762  ILE779  LEU786  VAL792 
 PHE793  MET794  SER795  GLU796  ALA797  LYS798  CYS799  TRP800  GLU811  SER814 

> <Gold.Protein.RotatedAtoms>
  152.5449  134.1187  159.8389 H   0  0  0  0  0  0  0  0  0  0  0  0  # atno 6907 bound_to 6896
  151.1245  133.5073  159.2608 H   0  0  0  0  0  0  0  0  0  0  0  0  # atno 6908 bound_to 6896
  151.1742  135.0341  159.8819 H   0  0  0  0  0  0  0  0  0  0  0  0  # atno 6909 bound_to 6896
  144.8937  140.6677  143.5129 H   0  0  0  0  0  0  0  0  0  0  0  0  # atno 7974 bound_to 7965
  156.1460  140.1565  156.8846 H   0  0  0  0  0  0  0  0  0  0  0  0  # atno 8008 bound_to 7997
  154.5028  140.0821  156.7871 H   0  0  0  0  0  0  0  0  0  0  0  0  # atno 8009 bound_to 7997
  155.3988  140.3413  155.4258 H   0  0  0  0  0  0  0  0  0  0  0  0  # atno 8010 bound_to 7997
  140.5005  144.0322  150.6331 H   0  0  0  0  0  0  0  0  0  0  0  0  # atno 10167 bound_to 10162
  157.5900  131.1065  150.8017 H   0  0  0  0  0  0  0  0  0  0  0  0  # atno 10718 bound_to 10713
  153.6092  135.3433  155.2972 H   0  0  0  0  0  0  0  0  0  0  0  0  # atno 10763 bound_to 10752
  154.8622  135.4246  154.2328 H   0  0  0  0  0  0  0  0  0  0  0  0  # atno 10764 bound_to 10752
  153.3175  135.7036  153.7132 H   0  0  0  0  0  0  0  0  0  0  0  0  # atno 10765 bound_to 10752
  141.1638  133.6921  156.7409 H   0  0  0  0  0  0  0  0  0  0  0  0  # atno 11005 bound_to 11000
  145.3738  139.1652  143.4318 LP  0  0  0  0  0  0  0  0  0  0  0  0  # atno 17320 bound_to 7965
  146.3069  140.3812  142.8684 LP  0  0  0  0  0  0  0  0  0  0  0  0  # atno 17321 bound_to 7965
  140.3616  143.2904  152.0377 LP  0  0  0  0  0  0  0  0  0  0  0  0  # atno 17342 bound_to 10162
  139.4871  144.6298  151.7092 LP  0  0  0  0  0  0  0  0  0  0  0  0  # atno 17343 bound_to 10162
  156.8442  130.5058  149.5318 LP  0  0  0  0  0  0  0  0  0  0  0  0  # atno 17370 bound_to 10713
  156.0953  130.5928  150.9803 LP  0  0  0  0  0  0  0  0  0  0  0  0  # atno 17371 bound_to 10713
  140.2675  134.8418  157.3817 LP  0  0  0  0  0  0  0  0  0  0  0  0  # atno 17394 bound_to 11000
  140.1552  134.4798  155.7933 LP  0  0  0  0  0  0  0  0  0  0  0  0  # atno 17395 bound_to 11000

$$$$
