AV-unprocessed.smi:2046|AV-procd|sdf|8314|dock10
  -GOLD-   2272010583D 1   1.00000     0.00000
 Structure written by MMmdl.
 29 30  0  0  0  0  0  0  0  0  2 V2000
  150.9579  140.3839  155.6893 O   0  0  0  0  0  0  0  0  0  0  0  0
  150.4024  141.4583  155.4476 C   0  0  0  0  0  0  0  0  0  0  0  0
  149.5509  141.7082  154.4269 N   0  5  0  0  0  0  0  0  0  0  0  0
  148.5893  140.8208  154.1234 C   0  0  0  0  0  0  0  0  0  0  0  0
  148.7276  139.5046  154.3503 N   0  0  0  0  0  0  0  0  0  0  0  0
  147.6196  138.7641  153.9603 N   0  0  0  0  0  0  0  0  0  0  0  0
  146.6729  139.5442  153.4393 C   0  0  0  0  0  0  0  0  0  0  0  0
  147.0502  141.2528  153.3730 S   0  0  0  0  0  0  0  0  0  0  0  0
  150.6203  142.5181  156.2417 N   0  0  0  0  0  0  0  0  0  0  0  0
  151.4767  142.5488  157.4309 C   0  0  1  0  0  0  0  0  0  0  0  0
  151.3014  143.9326  158.0981 C   0  0  0  0  0  0  0  0  0  0  0  0
  152.4781  144.3416  159.0017 C   0  0  0  0  0  0  0  0  0  0  0  0
  152.6854  143.4568  160.2406 C   0  0  0  0  0  0  0  0  0  0  0  0
  153.0225  141.9935  159.9065 C   0  0  0  0  0  0  0  0  0  0  0  0
  151.8413  141.2361  159.5152 N   0  0  0  0  0  0  0  0  0  0  0  0
  151.0721  141.4440  158.4357 C   0  0  0  0  0  0  0  0  0  0  0  0
  150.0590  140.7681  158.2575 O   0  0  0  0  0  0  0  0  0  0  0  0
  145.7486  139.1107  153.0879 H   0  0  0  0  0  0  0  0  0  0  0  0
  150.1398  143.3744  156.0079 H   0  0  0  0  0  0  0  0  0  0  0  0
  152.5141  142.4120  157.1204 H   0  0  0  0  0  0  0  0  0  0  0  0
  151.2177  144.6935  157.3205 H   0  0  0  0  0  0  0  0  0  0  0  0
  150.3633  143.9818  158.6543 H   0  0  0  0  0  0  0  0  0  0  0  0
  153.3960  144.3603  158.4127 H   0  0  0  0  0  0  0  0  0  0  0  0
  152.3185  145.3682  159.3331 H   0  0  0  0  0  0  0  0  0  0  0  0
  153.5077  143.8758  160.8214 H   0  0  0  0  0  0  0  0  0  0  0  0
  151.8088  143.5027  160.8880 H   0  0  0  0  0  0  0  0  0  0  0  0
  153.7924  141.9296  159.1363 H   0  0  0  0  0  0  0  0  0  0  0  0
  153.4339  141.5093  160.7923 H   0  0  0  0  0  0  0  0  0  0  0  0
  151.5563  140.4984  160.1428 H   0  0  0  0  0  0  0  0  0  0  0  0
  1  2  2  0  0  0  0
  2  3  1  0  0  0  0
  2  9  1  0  0  0  0
  3  4  1  0  0  0  0
  4  8  1  0  0  0  0
  4  5  2  0  0  0  0
  5  6  1  0  0  0  0
  6  7  2  0  0  0  0
  7  8  1  0  0  0  0
  7 18  1  0  0  0  0
  9 10  1  0  0  0  0
  9 19  1  0  0  0  0
 10 16  1  0  0  0  0
 10 11  1  0  0  0  0
 10 20  1  0  0  0  0
 11 12  1  0  0  0  0
 11 21  1  0  0  0  0
 11 22  1  0  0  0  0
 12 13  1  0  0  0  0
 12 23  1  0  0  0  0
 12 24  1  0  0  0  0
 13 14  1  0  0  0  0
 13 25  1  0  0  0  0
 13 26  1  0  0  0  0
 14 15  1  0  0  0  0
 14 27  1  0  0  0  0
 14 28  1  0  0  0  0
 15 16  1  0  0  0  0
 15 29  1  0  0  0  0
 16 17  2  0  0  0  0
M  CHG  1   3  -1
M  END
> <s_m_source_file>
AV-unprocessed.smi

> <i_m_source_file_index>
2046

> <i_lp_mmshare_version>
43012

> <i_f3d_flags>
0

> <s_epik_input>
czFbY0hdbm5jMVtOSF1DKD1PKVtOSF1bQ0BASF0yW0NIMl1bQ0gyXVtDSDJdW0NIMl1bTkhdQzI9Tw==

> <s_epik_cmdline>
J2VwaWtfcHl0aG9uJywgJy1waCcsICc3LjAnLCAnLXRuJywgJzgnLCAnLW1hJywgJzIwMCcsICctbWV0YWxfYmluZGluZycsICctaW1hZScsICc8aW5maWxlLm1hZT4nLCAnLW9tYWUnLCAnPG91dGZpbGUubWFlPic=

> <r_lp_tautomer_probability>
1

> <r_epik_Ionization_Penalty>
4.05949

> <r_epik_Ionization_Penalty_Charging>
4.01916

> <r_epik_Ionization_Penalty_Neutral>
0.0403285

> <r_epik_State_Penalty>
4.01849

> <r_epik_Charging_Adjusted_Penalty>
8.03765

> <i_epik_Tot_Q>
-1

> <i_epik_Tot_abs_Q>
1

> <r_epik_Metal_State_Penalty>
0.626741

> <b_epik_Metal_Only>
1

> <s_lp_Force_Field>
OPLS_2005

> <r_lp_Energy>
8.7811

> <b_lp_Chiralities_Consistent>
1

> <s_lp_Variant>
AV-unprocessed.smi:2046-4

> <Gold.Version>
5.8.1

> <Gold.Id.Protein>
6NUR|6NUR_protein|mol2

> <Gold.PLP.Fitness>
36.8736

> <Gold.PLP.PLP>
-31.7223

> <Gold.PLP.part.hbond>
-3.2182

> <Gold.PLP.part.metal>
0.0000

> <Gold.PLP.part.buried>
-2.8257

> <Gold.PLP.part.nonpolar>
-24.8547

> <Gold.PLP.part.repulsive>
0.7768

> <Gold.PLP.ligand.clash>
0.0000

> <Gold.PLP.ligand.torsion>
0.5590

> <Gold.PLP.Chemscore.Hbond>
1.1997

> <Gold.PLP.Chemscore.CHOScore>
0.8895

> <Gold.PLP.Chemscore.Metal>
0.0000

> <Gold.Chemscore.Hbonds>
donor molecule, donor type, donor heavy atom, donor atom, acceptor molecule, acceptor atom, score
      L1  H     9    19       P1  8028  1.00
      P1  H  8011  8017       L1     3  0.19
      L1  C     7    18       P1 10175  0.84

> <Gold.PLP.Chemscore.Internal.Correction>
0.0017

> <Gold.Rescore>
     Score         DG    S(hbond)    S(metal)    S(lipo)     H(rot)  DE(clash)    DE(int)     intcor
     13.26     -15.32       1.16        0.00      72.92       1.00       0.10       1.96       ----

> <Gold.Chemscore.Fitness>
13.2591

> <Gold.Chemscore.DG>
-15.3200

> <Gold.Chemscore.ZeroCoef>
-5.4800

> <Gold.Chemscore.Hbond>
1.1583

> <Gold.Chemscore.Metal>
0.0000

> <Gold.Chemscore.Lipo>
72.9171

> <Gold.Chemscore.Internal_Hbond>
0.0000

> <Gold.Chemscore.DEClash>
0.1006

> <Gold.Chemscore.DEInternal>
1.9603

> <Gold.Chemscore.Rot>
1.0000

> <Gold.Chemscore.Internal.Correction>
   9.000000E+99

> <Gold.Chemscore.Hbonds>
donor molecule, donor type, donor heavy atom, donor atom, acceptor molecule, acceptor atom, score
      L1  H     9    19       P1  8028  1.00
      P1  H  8011  8017       L1     3  0.02

> <Gold.Chemscore.Hbond.Weighted>
-3.8687

> <Gold.Chemscore.Metal.Weighted>
-0.0000

> <Gold.Chemscore.Lipo.Weighted>
-8.5313

> <Gold.Chemscore.Internal_Hbond.Weighted>
0.0000

> <Gold.Chemscore.DEClash.Weighted>
0.1006

> <Gold.Chemscore.DEInternal.Weighted>
1.9603

> <Gold.Chemscore.Rot.Weighted>
2.5600

> <Gold.Chemscore.Internal.Correction.Weighted>
   9.000000E+99

> <Gold.Protein.RotatedTorsions>
[ 6907 6896 6895 6894 ] final  114.04 input  -60.11 | X-H torsion
[ 7974 7965 7964 7962 ] final   71.15 input  175.53 | X-H torsion
[ 8008 7997 7996 7995 ] final -138.72 input   59.86 | X-H torsion
[ 10167 10162 10161 10158 ] final  157.18 input  -65.29 | X-H torsion
[ 10718 10713 10712 10709 ] final -102.83 input   66.30 | X-H torsion
[ 10763 10752 10751 10750 ] final  -32.06 input  -60.55 | X-H torsion
[ 11005 11000 10999 10996 ] final  167.89 input  -57.11 | X-H torsion

> <Gold.Protein.ActiveResidues>
 VAL166  LYS551  ARG553  GLY616  TRP617  ASP618  TYR619  PRO620  LYS621  CYS622 
 ASP623  PHE694  ASN695  SER759  ASP760  ASP761  ALA762  ILE779  LEU786  VAL792 
 PHE793  MET794  SER795  GLU796  ALA797  LYS798  CYS799  TRP800  GLU811  SER814 

> <Gold.Protein.RotatedAtoms>
  152.4826  133.8291  159.7093 H   0  0  0  0  0  0  0  0  0  0  0  0  # atno 6907 bound_to 6896
  150.8886  133.7264  159.2917 H   0  0  0  0  0  0  0  0  0  0  0  0  # atno 6908 bound_to 6896
  151.4744  135.1052  159.9812 H   0  0  0  0  0  0  0  0  0  0  0  0  # atno 6909 bound_to 6896
  145.7693  139.2836  143.1330 H   0  0  0  0  0  0  0  0  0  0  0  0  # atno 7974 bound_to 7965
  155.4330  140.0526  157.3017 H   0  0  0  0  0  0  0  0  0  0  0  0  # atno 8008 bound_to 7997
  154.4851  140.2097  155.9631 H   0  0  0  0  0  0  0  0  0  0  0  0  # atno 8009 bound_to 7997
  156.1263  140.3179  155.8288 H   0  0  0  0  0  0  0  0  0  0  0  0  # atno 8010 bound_to 7997
  139.4822  144.4941  151.8266 H   0  0  0  0  0  0  0  0  0  0  0  0  # atno 10167 bound_to 10162
  156.0243  130.5438  150.7165 H   0  0  0  0  0  0  0  0  0  0  0  0  # atno 10718 bound_to 10713
  153.8076  135.6885  153.4846 H   0  0  0  0  0  0  0  0  0  0  0  0  # atno 10763 bound_to 10752
  153.1648  135.4565  154.9821 H   0  0  0  0  0  0  0  0  0  0  0  0  # atno 10764 bound_to 10752
  154.7981  135.3327  154.7560 H   0  0  0  0  0  0  0  0  0  0  0  0  # atno 10765 bound_to 10752
  140.2815  134.7746  157.3762 H   0  0  0  0  0  0  0  0  0  0  0  0  # atno 11005 bound_to 11000
  146.0186  140.8369  142.9935 LP  0  0  0  0  0  0  0  0  0  0  0  0  # atno 17320 bound_to 7965
  144.6815  140.2595  143.7321 LP  0  0  0  0  0  0  0  0  0  0  0  0  # atno 17321 bound_to 7965
  140.4428  144.1963  150.5892 LP  0  0  0  0  0  0  0  0  0  0  0  0  # atno 17342 bound_to 10162
  140.4666  143.2428  151.9147 LP  0  0  0  0  0  0  0  0  0  0  0  0  # atno 17343 bound_to 10162
  157.4791  131.0900  151.0557 LP  0  0  0  0  0  0  0  0  0  0  0  0  # atno 17370 bound_to 10713
  157.0995  130.5976  149.5457 LP  0  0  0  0  0  0  0  0  0  0  0  0  # atno 17371 bound_to 10713
  140.1279  134.5134  155.8130 LP  0  0  0  0  0  0  0  0  0  0  0  0  # atno 17394 bound_to 11000
  141.2162  133.6779  156.6985 LP  0  0  0  0  0  0  0  0  0  0  0  0  # atno 17395 bound_to 11000

$$$$
