AV-unprocessed.smi:741|AV-procd|sdf|3555|dock4
  -GOLD-   22720 0553D 1   1.00000     0.00000
 Structure written by MMmdl.
 42 43  0  0  0  0  0  0  0  0  2 V2000
  147.9684  137.3684  155.3722 C   0  0  0  0  0  0  0  0  0  0  0  0
  146.4881  137.7074  155.1431 C   0  0  0  0  0  0  0  0  0  0  0  0
  146.1502  138.0616  153.6821 C   0  0  1  0  0  0  0  0  0  0  0  0
  146.8906  139.3416  153.2342 C   0  0  0  0  0  0  0  0  0  0  0  0
  146.1340  140.5818  153.5337 N   0  3  0  0  0  0  0  0  0  0  0  0
  145.8579  140.8179  154.9657 C   0  0  0  0  0  0  0  0  0  0  0  0
  145.5574  142.3094  155.0582 C   0  0  0  0  0  0  0  0  0  0  0  0
  146.5250  142.9184  154.0471 C   0  0  0  0  0  0  0  0  0  0  0  0
  146.7408  141.8211  152.9948 C   0  0  0  0  0  0  0  0  0  0  0  0
  146.4879  136.9335  152.8105 N   0  0  0  0  0  0  0  0  0  0  0  0
  145.6191  136.0826  152.2447 C   0  0  0  0  0  0  0  0  0  0  0  0
  144.3989  136.1828  152.3646 O   0  0  0  0  0  0  0  0  0  0  0  0
  146.2575  135.1466  151.5214 N   0  0  0  0  0  0  0  0  0  0  0  0
  145.7051  134.0735  150.7707 C   0  0  0  0  0  0  0  0  0  0  0  0
  146.5218  132.9476  150.5377 C   0  0  0  0  0  0  0  0  0  0  0  0
  145.9928  131.8632  149.8095 C   0  0  0  0  0  0  0  0  0  0  0  0
  144.7332  131.8393  149.3255 N   0  0  0  0  0  0  0  0  0  0  0  0
  143.9476  132.9113  149.5619 C   0  0  0  0  0  0  0  0  0  0  0  0
  144.3781  134.0468  150.2774 C   0  0  0  0  0  0  0  0  0  0  0  0
  148.1418  137.0791  156.4087 H   0  0  0  0  0  0  0  0  0  0  0  0
  148.6145  138.2198  155.1571 H   0  0  0  0  0  0  0  0  0  0  0  0
  148.2847  136.5387  154.7394 H   0  0  0  0  0  0  0  0  0  0  0  0
  145.8877  136.8509  155.4520 H   0  0  0  0  0  0  0  0  0  0  0  0
  146.2012  138.5296  155.8001 H   0  0  0  0  0  0  0  0  0  0  0  0
  145.0753  138.2457  153.6391 H   0  0  0  0  0  0  0  0  0  0  0  0
  147.8778  139.3999  153.6951 H   0  0  0  0  0  0  0  0  0  0  0  0
  147.0596  139.2852  152.1576 H   0  0  0  0  0  0  0  0  0  0  0  0
  145.0353  140.2054  155.3344 H   0  0  0  0  0  0  0  0  0  0  0  0
  146.7438  140.5855  155.5591 H   0  0  0  0  0  0  0  0  0  0  0  0
  144.5284  142.4995  154.7497 H   0  0  0  0  0  0  0  0  0  0  0  0
  145.6871  142.7080  156.0649 H   0  0  0  0  0  0  0  0  0  0  0  0
  146.1449  143.8449  153.6154 H   0  0  0  0  0  0  0  0  0  0  0  0
  147.4721  143.1467  154.5379 H   0  0  0  0  0  0  0  0  0  0  0  0
  147.8068  141.6951  152.7992 H   0  0  0  0  0  0  0  0  0  0  0  0
  146.2574  142.0725  152.0504 H   0  0  0  0  0  0  0  0  0  0  0  0
  147.4719  136.7716  152.6503 H   0  0  0  0  0  0  0  0  0  0  0  0
  147.2604  135.2432  151.4571 H   0  0  0  0  0  0  0  0  0  0  0  0
  147.5377  132.9114  150.9037 H   0  0  0  0  0  0  0  0  0  0  0  0
  146.5982  130.9907  149.6121 H   0  0  0  0  0  0  0  0  0  0  0  0
  142.9412  132.8617  149.1733 H   0  0  0  0  0  0  0  0  0  0  0  0
  143.6838  134.8560  150.4414 H   0  0  0  0  0  0  0  0  0  0  0  0
  145.2339  140.4990  153.0824 H   0  0  0  0  0  0  0  0  0  0  0  0
  1  2  1  0  0  0  0
  1 20  1  0  0  0  0
  1 21  1  0  0  0  0
  1 22  1  0  0  0  0
  2  3  1  0  0  0  0
  2 23  1  0  0  0  0
  2 24  1  0  0  0  0
  3  4  1  0  0  0  0
  3 10  1  0  0  0  0
  3 25  1  0  0  0  0
  4  5  1  0  0  0  0
  4 26  1  0  0  0  0
  4 27  1  0  0  0  0
  5  9  1  0  0  0  0
  5  6  1  0  0  0  0
  5 42  1  0  0  0  0
  6  7  1  0  0  0  0
  6 28  1  0  0  0  0
  6 29  1  0  0  0  0
  7  8  1  0  0  0  0
  7 30  1  0  0  0  0
  7 31  1  0  0  0  0
  8  9  1  0  0  0  0
  8 32  1  0  0  0  0
  8 33  1  0  0  0  0
  9 34  1  0  0  0  0
  9 35  1  0  0  0  0
 10 11  1  0  0  0  0
 10 36  1  0  0  0  0
 11 12  2  0  0  0  0
 11 13  1  0  0  0  0
 13 14  1  0  0  0  0
 13 37  1  0  0  0  0
 14 19  1  0  0  0  0
 14 15  2  0  0  0  0
 15 16  1  0  0  0  0
 15 38  1  0  0  0  0
 16 17  2  0  0  0  0
 16 39  1  0  0  0  0
 17 18  1  0  0  0  0
 18 19  2  0  0  0  0
 18 40  1  0  0  0  0
 19 41  1  0  0  0  0
M  CHG  1   5   1
M  END
> <s_m_source_file>
AV-unprocessed.smi

> <i_m_source_file_index>
741

> <i_lp_mmshare_version>
43012

> <i_f3d_flags>
0

> <s_epik_input>
W0NIMl0xW0NIMl1bQ0gyXVtDSDJdTjFbQ0gyXVtDQEBIXShbQ0gyXVtDSDNdKVtOSF1DKD1PKVtOSF1jMltjSF1bY0hdbltjSF1bY0hdMg==

> <s_epik_cmdline>
J2VwaWtfcHl0aG9uJywgJy1waCcsICc3LjAnLCAnLXRuJywgJzgnLCAnLW1hJywgJzIwMCcsICctbWV0YWxfYmluZGluZycsICctaW1hZScsICc8aW5maWxlLm1hZT4nLCAnLW9tYWUnLCAnPG91dGZpbGUubWFlPic=

> <r_epik_Ionization_Penalty>
0.101421

> <r_epik_Ionization_Penalty_Charging>
0.00180027

> <r_epik_Ionization_Penalty_Neutral>
0.0996204

> <r_epik_State_Penalty>
0.0910414

> <r_epik_Charging_Adjusted_Penalty>
0.0928416

> <i_epik_Tot_Q>
1

> <i_epik_Tot_abs_Q>
1

> <r_epik_Metal_State_Penalty>
0.076772

> <b_epik_Metal_Only>
0

> <s_lp_Force_Field>
OPLS_2005

> <r_lp_Energy>
40.7955

> <b_lp_Chiralities_Consistent>
1

> <s_lp_Variant>
AV-unprocessed.smi:741-2

> <Gold.Version>
5.8.1

> <Gold.Id.Protein>
6NUR|6NUR_protein|mol2

> <Gold.PLP.Fitness>
46.3499

> <Gold.PLP.PLP>
-29.8711

> <Gold.PLP.part.hbond>
-4.0000

> <Gold.PLP.part.metal>
0.0000

> <Gold.PLP.part.buried>
-3.6132

> <Gold.PLP.part.nonpolar>
-22.9515

> <Gold.PLP.part.repulsive>
0.4150

> <Gold.PLP.ligand.clash>
0.0000

> <Gold.PLP.ligand.torsion>
0.6494

> <Gold.PLP.Chemscore.Hbond>
4.0585

> <Gold.PLP.Chemscore.CHOScore>
1.8556

> <Gold.PLP.Chemscore.Metal>
0.0000

> <Gold.Chemscore.Hbonds>
donor molecule, donor type, donor heavy atom, donor atom, acceptor molecule, acceptor atom, score
      L1  H     5    42       P1 10175  2.00
      L1  H    10    36       P1  7948  1.00
      L1  H    13    37       P1  7948  1.00
      P1  H 10785 10796       L1    17  0.08
      L1  C    16    39       P1 10747  0.86
      L1  C    18    40       P1 10186  1.00

> <Gold.PLP.Chemscore.Internal.Correction>
0.0353

> <Gold.Rescore>
     Score         DG    S(hbond)    S(metal)    S(lipo)     H(rot)  DE(clash)    DE(int)     intcor
     17.32     -20.34       2.87        0.00      79.82       1.59       1.43       1.59       ----

> <Gold.Chemscore.Fitness>
17.3229

> <Gold.Chemscore.DG>
-20.3386

> <Gold.Chemscore.ZeroCoef>
-5.4800

> <Gold.Chemscore.Hbond>
2.8681

> <Gold.Chemscore.Metal>
0.0000

> <Gold.Chemscore.Lipo>
79.8185

> <Gold.Chemscore.Internal_Hbond>
0.0000

> <Gold.Chemscore.DEClash>
1.4301

> <Gold.Chemscore.DEInternal>
1.5856

> <Gold.Chemscore.Rot>
1.5858

> <Gold.Chemscore.Internal.Correction>
   9.000000E+99

> <Gold.Chemscore.Hbonds>
donor molecule, donor type, donor heavy atom, donor atom, acceptor molecule, acceptor atom, score
      L1  H     5    42       P1 10175  0.93
      L1  H    10    36       P1  7948  0.99
      L1  H    13    37       P1  7948  0.85
      P1  H 10785 10796       L1    17  0.04

> <Gold.Chemscore.Hbond.Weighted>
-9.5795

> <Gold.Chemscore.Metal.Weighted>
-0.0000

> <Gold.Chemscore.Lipo.Weighted>
-9.3388

> <Gold.Chemscore.Internal_Hbond.Weighted>
0.0000

> <Gold.Chemscore.DEClash.Weighted>
1.4301

> <Gold.Chemscore.DEInternal.Weighted>
1.5856

> <Gold.Chemscore.Rot.Weighted>
4.0596

> <Gold.Chemscore.Internal.Correction.Weighted>
   9.000000E+99

> <Gold.Protein.RotatedTorsions>
[ 6907 6896 6895 6894 ] final   24.96 input  -60.11 | X-H torsion
[ 7974 7965 7964 7962 ] final   -8.43 input  175.53 | X-H torsion
[ 8008 7997 7996 7995 ] final    5.32 input   59.86 | X-H torsion
[ 10167 10162 10161 10158 ] final  138.83 input  -65.29 | X-H torsion
[ 10718 10713 10712 10709 ] final  160.02 input   66.30 | X-H torsion
[ 10763 10752 10751 10750 ] final  168.35 input  -60.55 | X-H torsion
[ 11005 11000 10999 10996 ] final  102.69 input  -57.11 | X-H torsion

> <Gold.Protein.ActiveResidues>
 VAL166  LYS551  ARG553  GLY616  TRP617  ASP618  TYR619  PRO620  LYS621  CYS622 
 ASP623  PHE694  ASN695  SER759  ASP760  ASP761  ALA762  ILE779  LEU786  VAL792 
 PHE793  MET794  SER795  GLU796  ALA797  LYS798  CYS799  TRP800  GLU811  SER814 

> <Gold.Protein.RotatedAtoms>
  151.9653  135.0103  160.0549 H   0  0  0  0  0  0  0  0  0  0  0  0  # atno 6907 bound_to 6896
  152.1832  133.4717  159.4977 H   0  0  0  0  0  0  0  0  0  0  0  0  # atno 6908 bound_to 6896
  150.6921  134.1724  159.4260 H   0  0  0  0  0  0  0  0  0  0  0  0  # atno 6909 bound_to 6896
  146.2280  140.2468  142.8345 H   0  0  0  0  0  0  0  0  0  0  0  0  # atno 7974 bound_to 7965
  154.7270  140.2723  155.6490 H   0  0  0  0  0  0  0  0  0  0  0  0  # atno 8008 bound_to 7997
  156.2839  140.2723  156.1883 H   0  0  0  0  0  0  0  0  0  0  0  0  # atno 8009 bound_to 7997
  155.0432  140.0371  157.2507 H   0  0  0  0  0  0  0  0  0  0  0  0  # atno 8010 bound_to 7997
  139.5098  144.6331  151.5768 H   0  0  0  0  0  0  0  0  0  0  0  0  # atno 10167 bound_to 10162
  157.1562  131.0576  151.2255 H   0  0  0  0  0  0  0  0  0  0  0  0  # atno 10718 bound_to 10713
  154.3673  135.2753  155.2286 H   0  0  0  0  0  0  0  0  0  0  0  0  # atno 10763 bound_to 10752
  154.4449  135.5945  153.6157 H   0  0  0  0  0  0  0  0  0  0  0  0  # atno 10764 bound_to 10752
  152.9840  135.6027  154.3900 H   0  0  0  0  0  0  0  0  0  0  0  0  # atno 10765 bound_to 10752
  139.8779  134.9234  156.5095 H   0  0  0  0  0  0  0  0  0  0  0  0  # atno 11005 bound_to 11000
  144.9442  140.8111  143.5611 LP  0  0  0  0  0  0  0  0  0  0  0  0  # atno 17320 bound_to 7965
  145.2422  139.2067  143.4986 LP  0  0  0  0  0  0  0  0  0  0  0  0  # atno 17321 bound_to 7965
  140.6070  143.9506  150.6426 LP  0  0  0  0  0  0  0  0  0  0  0  0  # atno 17342 bound_to 10162
  140.2736  143.3438  152.1215 LP  0  0  0  0  0  0  0  0  0  0  0  0  # atno 17343 bound_to 10162
  157.4175  130.7419  149.6887 LP  0  0  0  0  0  0  0  0  0  0  0  0  # atno 17370 bound_to 10713
  155.9762  130.4079  150.3798 LP  0  0  0  0  0  0  0  0  0  0  0  0  # atno 17371 bound_to 10713
  140.8530  133.8117  155.9188 LP  0  0  0  0  0  0  0  0  0  0  0  0  # atno 17394 bound_to 11000
  140.9125  134.2242  157.4977 LP  0  0  0  0  0  0  0  0  0  0  0  0  # atno 17395 bound_to 11000

$$$$
