AV-unprocessed.smi:1817|AV-procd|sdf|7376|dock2
  -GOLD-   22720 9 43D 1   1.00000     0.00000
 Structure written by MMmdl.
 42 43  0  0  0  0  0  0  0  0  3 V2000
  150.4140  141.4175  156.0421 C   0  0  0  0  0  0  0  0  0  0  0  0
  151.0951  140.0573  155.8345 C   0  0  0  0  0  0  0  0  0  0  0  0
  150.8942  139.5479  154.4760 N   0  0  0  0  0  0  0  0  0  0  0  0
  151.7608  138.4105  154.1698 C   0  0  0  0  0  0  0  0  0  0  0  0
  151.3511  137.1384  154.9411 C   0  0  0  0  0  0  0  0  0  0  0  0
  149.9419  136.7577  154.6481 N   0  3  0  0  0  0  0  0  0  0  0  0
  149.4911  135.4980  155.3256 C   0  0  2  0  0  0  0  0  0  0  0  0
  150.3486  134.2749  154.9321 C   0  0  0  0  0  0  0  0  0  0  0  0
  148.0031  135.1748  155.0466 C   0  0  0  0  0  0  0  0  0  0  0  0
  147.7914  134.7773  153.6568 N   0  0  0  0  0  0  0  0  0  0  0  0
  146.7364  134.1098  153.1736 C   0  0  0  0  0  0  0  0  0  0  0  0
  145.8165  133.7769  153.9236 O   0  0  0  0  0  0  0  0  0  0  0  0
  146.8189  133.8699  151.8459 N   0  5  0  0  0  0  0  0  0  0  0  0
  145.8835  133.1199  151.2399 C   0  0  0  0  0  0  0  0  0  0  0  0
  146.1648  132.3312  150.1904 N   0  0  0  0  0  0  0  0  0  0  0  0
  145.0584  131.6396  149.7157 N   0  0  0  0  0  0  0  0  0  0  0  0
  143.9678  131.9183  150.4295 C   0  0  0  0  0  0  0  0  0  0  0  0
  144.1937  133.0489  151.7476 S   0  0  0  0  0  0  0  0  0  0  0  0
  149.0500  137.9198  154.9154 C   0  0  0  0  0  0  0  0  0  0  0  0
  149.5160  139.1747  154.1485 C   0  0  0  0  0  0  0  0  0  0  0  0
  150.6775  141.8301  157.0160 H   0  0  0  0  0  0  0  0  0  0  0  0
  149.3276  141.3412  156.0095 H   0  0  0  0  0  0  0  0  0  0  0  0
  150.7272  142.1367  155.2845 H   0  0  0  0  0  0  0  0  0  0  0  0
  152.1654  140.1902  155.9969 H   0  0  0  0  0  0  0  0  0  0  0  0
  150.7558  139.3472  156.5876 H   0  0  0  0  0  0  0  0  0  0  0  0
  151.7167  138.2166  153.0970 H   0  0  0  0  0  0  0  0  0  0  0  0
  152.7971  138.6695  154.3898 H   0  0  0  0  0  0  0  0  0  0  0  0
  152.0320  136.3489  154.6272 H   0  0  0  0  0  0  0  0  0  0  0  0
  151.4897  137.2657  156.0155 H   0  0  0  0  0  0  0  0  0  0  0  0
  149.6035  135.6390  156.4018 H   0  0  0  0  0  0  0  0  0  0  0  0
  149.9320  133.3556  155.3447 H   0  0  0  0  0  0  0  0  0  0  0  0
  151.3658  134.3428  155.3168 H   0  0  0  0  0  0  0  0  0  0  0  0
  150.3990  134.1528  153.8495 H   0  0  0  0  0  0  0  0  0  0  0  0
  147.6631  134.3989  155.7347 H   0  0  0  0  0  0  0  0  0  0  0  0
  147.3715  136.0375  155.2577 H   0  0  0  0  0  0  0  0  0  0  0  0
  148.5079  135.0314  152.9936 H   0  0  0  0  0  0  0  0  0  0  0  0
  143.0257  131.4529  150.1811 H   0  0  0  0  0  0  0  0  0  0  0  0
  148.0350  137.7028  154.5868 H   0  0  0  0  0  0  0  0  0  0  0  0
  148.9929  138.1104  155.9875 H   0  0  0  0  0  0  0  0  0  0  0  0
  148.8399  140.0073  154.3390 H   0  0  0  0  0  0  0  0  0  0  0  0
  149.4565  138.9841  153.0759 H   0  0  0  0  0  0  0  0  0  0  0  0
  149.8957  136.5803  153.6547 H   0  0  0  0  0  0  0  0  0  0  0  0
  1  2  1  0  0  0  0
  1 21  1  0  0  0  0
  1 22  1  0  0  0  0
  1 23  1  0  0  0  0
  2  3  1  0  0  0  0
  2 24  1  0  0  0  0
  2 25  1  0  0  0  0
  3 20  1  0  0  0  0
  3  4  1  0  0  0  0
  4  5  1  0  0  0  0
  4 26  1  0  0  0  0
  4 27  1  0  0  0  0
  5  6  1  0  0  0  0
  5 28  1  0  0  0  0
  5 29  1  0  0  0  0
  6  7  1  0  0  0  0
  6 19  1  0  0  0  0
  6 42  1  0  0  0  0
  7  8  1  0  0  0  0
  7  9  1  0  0  0  0
  7 30  1  0  0  0  0
  8 31  1  0  0  0  0
  8 32  1  0  0  0  0
  8 33  1  0  0  0  0
  9 10  1  0  0  0  0
  9 34  1  0  0  0  0
  9 35  1  0  0  0  0
 10 11  1  0  0  0  0
 10 36  1  0  0  0  0
 11 12  2  0  0  0  0
 11 13  1  0  0  0  0
 13 14  1  0  0  0  0
 14 18  1  0  0  0  0
 14 15  2  0  0  0  0
 15 16  1  0  0  0  0
 16 17  2  0  0  0  0
 17 18  1  0  0  0  0
 17 37  1  0  0  0  0
 19 20  1  0  0  0  0
 19 38  1  0  0  0  0
 19 39  1  0  0  0  0
 20 40  1  0  0  0  0
 20 41  1  0  0  0  0
M  CHG  1   6   1
M  CHG  1  13  -1
M  END
> <s_m_source_file>
AV-unprocessed.smi

> <i_m_source_file_index>
1817

> <i_lp_mmshare_version>
43012

> <i_f3d_flags>
0

> <s_epik_input>
W0NIM11bQ0gyXU4xW0NIMl1bQ0gyXU4oW0NIMl1bQ0gyXTEpW0NASF0oW0NIM10pW0NIMl1bTkhdQyg9TylbTkhdYzJubltjSF1zMg==

> <s_epik_cmdline>
J2VwaWtfcHl0aG9uJywgJy1waCcsICc3LjAnLCAnLXRuJywgJzgnLCAnLW1hJywgJzIwMCcsICctbWV0YWxfYmluZGluZycsICctaW1hZScsICc8aW5maWxlLm1hZT4nLCAnLW9tYWUnLCAnPG91dGZpbGUubWFlPic=

> <r_epik_Ionization_Penalty>
3.16835

> <r_epik_Ionization_Penalty_Charging>
3.13468

> <r_epik_Ionization_Penalty_Neutral>
0.0336711

> <r_epik_State_Penalty>
3.95884

> <r_epik_Charging_Adjusted_Penalty>
7.09351

> <i_epik_Tot_Q>
0

> <i_epik_Tot_abs_Q>
2

> <r_epik_Metal_State_Penalty>
1.39003

> <b_epik_Metal_Only>
1

> <s_lp_Force_Field>
OPLS_2005

> <r_lp_Energy>
20.7646

> <b_lp_Chiralities_Consistent>
1

> <s_lp_Variant>
AV-unprocessed.smi:1817-9

> <Gold.Version>
5.8.1

> <Gold.Id.Protein>
6NUR|6NUR_protein|mol2

> <Gold.PLP.Fitness>
46.1403

> <Gold.PLP.PLP>
-31.5128

> <Gold.PLP.part.hbond>
-3.1345

> <Gold.PLP.part.metal>
0.0000

> <Gold.PLP.part.buried>
-4.9643

> <Gold.PLP.part.nonpolar>
-23.9017

> <Gold.PLP.part.repulsive>
0.8178

> <Gold.PLP.ligand.clash>
0.0000

> <Gold.PLP.ligand.torsion>
0.4544

> <Gold.PLP.Chemscore.Hbond>
3.9920

> <Gold.PLP.Chemscore.CHOScore>
1.1528

> <Gold.PLP.Chemscore.Metal>
0.0000

> <Gold.Chemscore.Hbonds>
donor molecule, donor type, donor heavy atom, donor atom, acceptor molecule, acceptor atom, score
      L1  H     6    42       P1  7948  2.00
      L1  H    10    36       P1  7948  0.90
      P1  H  7989  7998       L1     3  1.00
      L1  C    17    37       P1 10952  0.97

> <Gold.PLP.Chemscore.Internal.Correction>
0.1020

> <Gold.Rescore>
     Score         DG    S(hbond)    S(metal)    S(lipo)     H(rot)  DE(clash)    DE(int)     intcor
     12.15     -14.04       1.70        0.00      65.91       1.88       0.06       1.83       ----

> <Gold.Chemscore.Fitness>
12.1467

> <Gold.Chemscore.DG>
-14.0383

> <Gold.Chemscore.ZeroCoef>
-5.4800

> <Gold.Chemscore.Hbond>
1.6963

> <Gold.Chemscore.Metal>
0.0000

> <Gold.Chemscore.Lipo>
65.9116

> <Gold.Chemscore.Internal_Hbond>
0.0000

> <Gold.Chemscore.DEClash>
0.0582

> <Gold.Chemscore.DEInternal>
1.8334

> <Gold.Chemscore.Rot>
1.8825

> <Gold.Chemscore.Internal.Correction>
   9.000000E+99

> <Gold.Chemscore.Hbonds>
donor molecule, donor type, donor heavy atom, donor atom, acceptor molecule, acceptor atom, score
      L1  H     6    42       P1  7948  0.28
      L1  H    10    36       P1  7948  0.62
      P1  H  7989  7998       L1     3  0.11

> <Gold.Chemscore.Hbond.Weighted>
-5.6658

> <Gold.Chemscore.Metal.Weighted>
-0.0000

> <Gold.Chemscore.Lipo.Weighted>
-7.7117

> <Gold.Chemscore.Internal_Hbond.Weighted>
0.0000

> <Gold.Chemscore.DEClash.Weighted>
0.0582

> <Gold.Chemscore.DEInternal.Weighted>
1.8334

> <Gold.Chemscore.Rot.Weighted>
4.8191

> <Gold.Chemscore.Internal.Correction.Weighted>
   9.000000E+99

> <Gold.Protein.RotatedTorsions>
[ 6907 6896 6895 6894 ] final    4.75 input  -60.11 | X-H torsion
[ 7974 7965 7964 7962 ] final  -68.24 input  175.53 | X-H torsion
[ 8008 7997 7996 7995 ] final   -6.56 input   59.86 | X-H torsion
[ 10167 10162 10161 10158 ] final  -21.11 input  -65.29 | X-H torsion
[ 10718 10713 10712 10709 ] final   -4.01 input   66.30 | X-H torsion
[ 10763 10752 10751 10750 ] final -112.67 input  -60.55 | X-H torsion
[ 11005 11000 10999 10996 ] final  152.62 input  -57.11 | X-H torsion

> <Gold.Protein.ActiveResidues>
 VAL166  LYS551  ARG553  GLY616  TRP617  ASP618  TYR619  PRO620  LYS621  CYS622 
 ASP623  PHE694  ASN695  SER759  ASP760  ASP761  ALA762  ILE779  LEU786  VAL792 
 PHE793  MET794  SER795  GLU796  ALA797  LYS798  CYS799  TRP800  GLU811  SER814 

> <Gold.Protein.RotatedAtoms>
  151.6464  135.1007  160.0151 H   0  0  0  0  0  0  0  0  0  0  0  0  # atno 6907 bound_to 6896
  152.4025  133.6835  159.6337 H   0  0  0  0  0  0  0  0  0  0  0  0  # atno 6908 bound_to 6896
  150.7923  133.8683  159.3292 H   0  0  0  0  0  0  0  0  0  0  0  0  # atno 6909 bound_to 6896
  145.7191  140.9046  143.0640 H   0  0  0  0  0  0  0  0  0  0  0  0  # atno 7974 bound_to 7965
  154.5925  140.2429  155.7901 H   0  0  0  0  0  0  0  0  0  0  0  0  # atno 8008 bound_to 7997
  156.2257  140.2983  156.0015 H   0  0  0  0  0  0  0  0  0  0  0  0  # atno 8009 bound_to 7997
  155.2349  140.0405  157.2957 H   0  0  0  0  0  0  0  0  0  0  0  0  # atno 8010 bound_to 7997
  140.7280  143.4659  151.0314 H   0  0  0  0  0  0  0  0  0  0  0  0  # atno 10167 bound_to 10162
  156.7676  130.5289  149.5773 H   0  0  0  0  0  0  0  0  0  0  0  0  # atno 10718 bound_to 10713
  154.8360  135.4482  154.1229 H   0  0  0  0  0  0  0  0  0  0  0  0  # atno 10763 bound_to 10752
  153.2460  135.6921  153.7736 H   0  0  0  0  0  0  0  0  0  0  0  0  # atno 10764 bound_to 10752
  153.7066  135.3363  155.3213 H   0  0  0  0  0  0  0  0  0  0  0  0  # atno 10765 bound_to 10752
  140.1324  134.8793  157.2222 H   0  0  0  0  0  0  0  0  0  0  0  0  # atno 11005 bound_to 11000
  144.6921  139.9177  143.7466 LP  0  0  0  0  0  0  0  0  0  0  0  0  # atno 17320 bound_to 7965
  146.0642  139.3634  143.0562 LP  0  0  0  0  0  0  0  0  0  0  0  0  # atno 17321 bound_to 7965
  139.8347  143.7643  152.3180 LP  0  0  0  0  0  0  0  0  0  0  0  0  # atno 17342 bound_to 10162
  139.7771  144.7457  151.0140 LP  0  0  0  0  0  0  0  0  0  0  0  0  # atno 17343 bound_to 10162
  156.1299  130.6170  151.0317 LP  0  0  0  0  0  0  0  0  0  0  0  0  # atno 17370 bound_to 10713
  157.6706  131.0862  150.7622 LP  0  0  0  0  0  0  0  0  0  0  0  0  # atno 17371 bound_to 10713
  140.2825  134.3334  155.7339 LP  0  0  0  0  0  0  0  0  0  0  0  0  # atno 17394 bound_to 11000
  141.2172  133.7486  156.9384 LP  0  0  0  0  0  0  0  0  0  0  0  0  # atno 17395 bound_to 11000

$$$$
