AV-unprocessed.smi:3187|AV-procd|sdf|12182|dock6
  -GOLD-   2272018 23D 1   1.00000     0.00000
 Structure written by MMmdl.
 42 43  0  0  0  0  0  0  0  0  3 V2000
  150.0368  145.1108  159.9013 C   0  0  0  0  0  0  0  0  0  0  0  0
  151.1354  144.0767  160.0790 C   0  0  0  0  0  0  0  0  0  0  0  0
  152.0017  144.1470  161.1088 C   0  0  0  0  0  0  0  0  0  0  0  0
  153.0988  143.1356  161.3853 C   0  0  0  0  0  0  0  0  0  0  0  0
  153.2748  142.1168  160.2483 C   0  0  0  0  0  0  0  0  0  0  0  0
  151.9202  141.7086  159.6419 C   0  0  2  0  0  0  0  0  0  0  0  0
  152.0600  140.5087  158.6901 C   0  0  0  0  0  0  0  0  0  0  0  0
  151.1677  142.9411  159.0529 C   0  0  2  0  0  0  0  0  0  0  0  0
  151.7318  143.4615  157.7055 C   0  0  0  0  0  0  0  0  0  0  0  0
  150.8527  143.1387  156.5633 N   0  3  0  0  0  0  0  0  0  0  0  0
  150.3261  141.7600  156.5776 C   0  0  0  0  0  0  0  0  0  0  0  0
  149.6081  141.4298  155.2613 C   0  0  0  0  0  0  0  0  0  0  0  0
  149.9732  140.1038  154.7568 N   0  0  0  0  0  0  0  0  0  0  0  0
  150.9624  139.2793  155.2295 C   0  0  0  0  0  0  0  0  0  0  0  0
  150.9350  138.1502  154.4517 C   0  0  0  0  0  0  0  0  0  0  0  0
  149.9317  138.3331  153.5377 N   0  3  0  0  0  0  0  0  0  0  0  0
  149.3481  139.5218  153.7245 C   0  0  0  0  0  0  0  0  0  0  0  0
  149.0591  144.6286  159.9107 H   0  0  0  0  0  0  0  0  0  0  0  0
  150.1449  145.6492  158.9608 H   0  0  0  0  0  0  0  0  0  0  0  0
  150.0529  145.8467  160.7061 H   0  0  0  0  0  0  0  0  0  0  0  0
  151.9203  144.9548  161.8216 H   0  0  0  0  0  0  0  0  0  0  0  0
  154.0377  143.6582  161.5704 H   0  0  0  0  0  0  0  0  0  0  0  0
  152.8402  142.6163  162.3086 H   0  0  0  0  0  0  0  0  0  0  0  0
  153.9167  142.5381  159.4747 H   0  0  0  0  0  0  0  0  0  0  0  0
  153.8017  141.2416  160.6307 H   0  0  0  0  0  0  0  0  0  0  0  0
  151.3091  141.3471  160.4711 H   0  0  0  0  0  0  0  0  0  0  0  0
  152.7626  140.7109  157.8818 H   0  0  0  0  0  0  0  0  0  0  0  0
  151.0994  140.2360  158.2526 H   0  0  0  0  0  0  0  0  0  0  0  0
  152.4321  139.6345  159.2253 H   0  0  0  0  0  0  0  0  0  0  0  0
  150.1299  142.6432  158.8939 H   0  0  0  0  0  0  0  0  0  0  0  0
  151.8363  144.5458  157.7242 H   0  0  0  0  0  0  0  0  0  0  0  0
  152.7307  143.0636  157.5281 H   0  0  0  0  0  0  0  0  0  0  0  0
  150.0716  143.7791  156.5785 H   0  0  0  0  0  0  0  0  0  0  0  0
  151.1476  141.0615  156.7432 H   0  0  0  0  0  0  0  0  0  0  0  0
  149.6356  141.6515  157.4152 H   0  0  0  0  0  0  0  0  0  0  0  0
  148.5258  141.4461  155.3985 H   0  0  0  0  0  0  0  0  0  0  0  0
  149.8460  142.1663  154.4921 H   0  0  0  0  0  0  0  0  0  0  0  0
  151.5958  139.5477  156.0631 H   0  0  0  0  0  0  0  0  0  0  0  0
  151.5379  137.2539  154.4801 H   0  0  0  0  0  0  0  0  0  0  0  0
  148.5323  139.9286  153.1530 H   0  0  0  0  0  0  0  0  0  0  0  0
  151.3717  143.2841  155.7088 H   0  0  0  0  0  0  0  0  0  0  0  0
  149.6665  137.6649  152.8243 H   0  0  0  0  0  0  0  0  0  0  0  0
  1  2  1  0  0  0  0
  1 18  1  0  0  0  0
  1 19  1  0  0  0  0
  1 20  1  0  0  0  0
  2  8  1  0  0  0  0
  2  3  2  0  0  0  0
  3  4  1  0  0  0  0
  3 21  1  0  0  0  0
  4  5  1  0  0  0  0
  4 22  1  0  0  0  0
  4 23  1  0  0  0  0
  5  6  1  0  0  0  0
  5 24  1  0  0  0  0
  5 25  1  0  0  0  0
  6  7  1  0  0  0  0
  6  8  1  0  0  0  0
  6 26  1  0  0  0  0
  7 27  1  0  0  0  0
  7 28  1  0  0  0  0
  7 29  1  0  0  0  0
  8  9  1  0  0  0  0
  8 30  1  0  0  0  0
  9 10  1  0  0  0  0
  9 31  1  0  0  0  0
  9 32  1  0  0  0  0
 10 11  1  0  0  0  0
 10 33  1  0  0  0  0
 10 41  1  0  0  0  0
 11 12  1  0  0  0  0
 11 34  1  0  0  0  0
 11 35  1  0  0  0  0
 12 13  1  0  0  0  0
 12 36  1  0  0  0  0
 12 37  1  0  0  0  0
 13 17  1  0  0  0  0
 13 14  1  0  0  0  0
 14 15  2  0  0  0  0
 14 38  1  0  0  0  0
 15 16  1  0  0  0  0
 15 39  1  0  0  0  0
 16 17  2  0  0  0  0
 16 42  1  0  0  0  0
 17 40  1  0  0  0  0
M  CHG  1  10   1
M  CHG  1  16   1
M  END
> <s_m_source_file>
AV-unprocessed.smi

> <i_m_source_file_index>
3187

> <i_lp_mmshare_version>
43012

> <i_f3d_flags>
0

> <s_epik_input>
W0NIM11DMT1bQ0hdW0NIMl1bQ0gyXVtDQEBIXShbQ0gzXSlbQ0BIXTFbQ0gyXVtOSF1bQ0gyXVtDSDJdbjJbY0hdW2NIXW5bY0hdMg==

> <s_epik_cmdline>
J2VwaWtfcHl0aG9uJywgJy1waCcsICc3LjAnLCAnLXRuJywgJzgnLCAnLW1hJywgJzIwMCcsICctbWV0YWxfYmluZGluZycsICctaW1hZScsICc8aW5maWxlLm1hZT4nLCAnLW9tYWUnLCAnPG91dGZpbGUubWFlPic=

> <r_lp_tautomer_probability>
1

> <r_epik_Ionization_Penalty>
1.51066

> <r_epik_Ionization_Penalty_Charging>
0.0026721

> <r_epik_Ionization_Penalty_Neutral>
1.50798

> <r_epik_State_Penalty>
1.12593

> <r_epik_Charging_Adjusted_Penalty>
1.12861

> <i_epik_Tot_Q>
2

> <i_epik_Tot_abs_Q>
2

> <r_epik_Metal_State_Penalty>
5.12155

> <b_epik_Metal_Only>
0

> <s_lp_Force_Field>
OPLS_2005

> <r_lp_Energy>
26.0631

> <b_lp_Chiralities_Consistent>
1

> <s_lp_Variant>
AV-unprocessed.smi:3187-8

> <Gold.Version>
5.8.1

> <Gold.Id.Protein>
6NUR|6NUR_protein|mol2

> <Gold.PLP.Fitness>
51.9543

> <Gold.PLP.PLP>
-40.9402

> <Gold.PLP.part.hbond>
-3.2668

> <Gold.PLP.part.metal>
0.0000

> <Gold.PLP.part.buried>
-1.1213

> <Gold.PLP.part.nonpolar>
-36.6139

> <Gold.PLP.part.repulsive>
0.1484

> <Gold.PLP.ligand.clash>
0.0000

> <Gold.PLP.ligand.torsion>
1.1700

> <Gold.PLP.Chemscore.Hbond>
4.0000

> <Gold.PLP.Chemscore.CHOScore>
0.4222

> <Gold.PLP.Chemscore.Metal>
0.0000

> <Gold.Chemscore.Hbonds>
donor molecule, donor type, donor heavy atom, donor atom, acceptor molecule, acceptor atom, score
      L1  H    10    33       P1  8028  1.92
      L1  H    16    42       P1  7948  2.00
      L1  C    17    40       P1  7957  0.35

> <Gold.PLP.Chemscore.Internal.Correction>
0.0877

> <Gold.Rescore>
     Score         DG    S(hbond)    S(metal)    S(lipo)     H(rot)  DE(clash)    DE(int)     intcor
     18.81     -20.21       1.97        0.00     112.84       1.97       0.08       1.32       ----

> <Gold.Chemscore.Fitness>
18.8132

> <Gold.Chemscore.DG>
-20.2149

> <Gold.Chemscore.ZeroCoef>
-5.4800

> <Gold.Chemscore.Hbond>
1.9714

> <Gold.Chemscore.Metal>
0.0000

> <Gold.Chemscore.Lipo>
112.8362

> <Gold.Chemscore.Internal_Hbond>
0.0000

> <Gold.Chemscore.DEClash>
0.0830

> <Gold.Chemscore.DEInternal>
1.3188

> <Gold.Chemscore.Rot>
1.9732

> <Gold.Chemscore.Internal.Correction>
   9.000000E+99

> <Gold.Chemscore.Hbonds>
donor molecule, donor type, donor heavy atom, donor atom, acceptor molecule, acceptor atom, score
      L1  H    10    33       P1  8028  0.92
      L1  H    16    42       P1  7948  0.55

> <Gold.Chemscore.Hbond.Weighted>
-6.5844

> <Gold.Chemscore.Metal.Weighted>
-0.0000

> <Gold.Chemscore.Lipo.Weighted>
-13.2018

> <Gold.Chemscore.Internal_Hbond.Weighted>
0.0000

> <Gold.Chemscore.DEClash.Weighted>
0.0830

> <Gold.Chemscore.DEInternal.Weighted>
1.3188

> <Gold.Chemscore.Rot.Weighted>
5.0514

> <Gold.Chemscore.Internal.Correction.Weighted>
   9.000000E+99

> <Gold.Protein.RotatedTorsions>
[ 6907 6896 6895 6894 ] final   52.13 input  -60.11 | X-H torsion
[ 7974 7965 7964 7962 ] final  -57.69 input  175.53 | X-H torsion
[ 8008 7997 7996 7995 ] final  -67.50 input   59.86 | X-H torsion
[ 10167 10162 10161 10158 ] final   -6.10 input  -65.29 | X-H torsion
[ 10718 10713 10712 10709 ] final  -72.39 input   66.30 | X-H torsion
[ 10763 10752 10751 10750 ] final -179.71 input  -60.55 | X-H torsion
[ 11005 11000 10999 10996 ] final -142.21 input  -57.11 | X-H torsion

> <Gold.Protein.ActiveResidues>
 VAL166  LYS551  ARG553  GLY616  TRP617  ASP618  TYR619  PRO620  LYS621  CYS622 
 ASP623  PHE694  ASN695  SER759  ASP760  ASP761  ALA762  ILE779  LEU786  VAL792 
 PHE793  MET794  SER795  GLU796  ALA797  LYS798  CYS799  TRP800  GLU811  SER814 

> <Gold.Protein.RotatedAtoms>
  152.3200  134.7392  160.0315 H   0  0  0  0  0  0  0  0  0  0  0  0  # atno 6907 bound_to 6896
  151.7844  133.3347  159.3489 H   0  0  0  0  0  0  0  0  0  0  0  0  # atno 6908 bound_to 6896
  150.7365  134.5832  159.5994 H   0  0  0  0  0  0  0  0  0  0  0  0  # atno 6909 bound_to 6896
  145.8480  140.8371  143.0000 H   0  0  0  0  0  0  0  0  0  0  0  0  # atno 7974 bound_to 7965
  154.4804  140.0891  156.7363 H   0  0  0  0  0  0  0  0  0  0  0  0  # atno 8008 bound_to 7997
  155.4485  140.3456  155.4280 H   0  0  0  0  0  0  0  0  0  0  0  0  # atno 8009 bound_to 7997
  156.1182  140.1467  156.9230 H   0  0  0  0  0  0  0  0  0  0  0  0  # atno 8010 bound_to 7997
  140.6985  143.6233  150.8592 H   0  0  0  0  0  0  0  0  0  0  0  0  # atno 10167 bound_to 10162
  156.0322  130.4371  150.2585 H   0  0  0  0  0  0  0  0  0  0  0  0  # atno 10718 bound_to 10713
  154.5316  135.2800  155.1175 H   0  0  0  0  0  0  0  0  0  0  0  0  # atno 10763 bound_to 10752
  154.2692  135.6307  153.5307 H   0  0  0  0  0  0  0  0  0  0  0  0  # atno 10764 bound_to 10752
  152.9958  135.5624  154.5831 H   0  0  0  0  0  0  0  0  0  0  0  0  # atno 10765 bound_to 10752
  140.8248  134.2588  157.4884 H   0  0  0  0  0  0  0  0  0  0  0  0  # atno 11005 bound_to 11000
  144.6730  140.0911  143.7465 LP  0  0  0  0  0  0  0  0  0  0  0  0  # atno 17320 bound_to 7965
  145.9389  139.2656  143.1280 LP  0  0  0  0  0  0  0  0  0  0  0  0  # atno 17321 bound_to 7965
  139.9953  143.5802  152.2895 LP  0  0  0  0  0  0  0  0  0  0  0  0  # atno 17342 bound_to 10162
  139.6472  144.7659  151.2219 LP  0  0  0  0  0  0  0  0  0  0  0  0  # atno 17343 bound_to 10162
  157.0686  131.0110  151.3198 LP  0  0  0  0  0  0  0  0  0  0  0  0  # atno 17370 bound_to 10713
  157.5016  130.7883  149.7611 LP  0  0  0  0  0  0  0  0  0  0  0  0  # atno 17371 bound_to 10713
  139.8707  134.9555  156.4207 LP  0  0  0  0  0  0  0  0  0  0  0  0  # atno 17394 bound_to 11000
  140.9061  133.7745  155.9736 LP  0  0  0  0  0  0  0  0  0  0  0  0  # atno 17395 bound_to 11000

$$$$
