AV-unprocessed.smi:287|AV-procd|sdf|2185|dock7
  -GOLD-   2262021563D 1   1.00000     0.00000
 Structure written by MMmdl.
 55 58  0  0  0  0  0  0  0  0  1 V2000
  152.1213  144.1835  159.0675 C   0  0  0  0  0  0  0  0  0  0  0  0
  151.7435  142.9694  158.2901 C   0  0  0  0  0  0  0  0  0  0  0  0
  151.0317  142.7643  157.1441 C   0  0  0  0  0  0  0  0  0  0  0  0
  151.0046  141.3574  156.9047 C   0  0  0  0  0  0  0  0  0  0  0  0
  150.3318  140.6497  155.7357 C   0  0  1  0  0  0  0  0  0  0  0  0
  149.5913  141.6778  154.8653 C   0  0  0  0  0  0  0  0  0  0  0  0
  151.2614  140.0232  154.8727 O   0  0  0  0  0  0  0  0  0  0  0  0
  149.3576  139.5346  156.1826 C   0  0  0  0  0  0  0  0  0  0  0  0
  148.4205  139.1422  155.1352 N   0  0  0  0  0  0  0  0  0  0  0  0
  147.9767  137.8700  155.0634 C   0  0  0  0  0  0  0  0  0  0  0  0
  148.5107  136.8961  155.8461 N   0  0  0  0  0  0  0  0  0  0  0  0
  148.0484  135.6450  155.7621 C   0  0  0  0  0  0  0  0  0  0  0  0
  147.0806  135.1642  154.9785 N   0  0  0  0  0  0  0  0  0  0  0  0
  146.5445  136.1382  154.1872 C   0  0  0  0  0  0  0  0  0  0  0  0
  146.9358  137.5058  154.1713 C   0  0  0  0  0  0  0  0  0  0  0  0
  146.1735  138.2036  153.2439 N   0  0  0  0  0  0  0  0  0  0  0  0
  145.3764  137.2972  152.7451 C   0  0  0  0  0  0  0  0  0  0  0  0
  145.5334  136.0272  153.2548 N   0  0  0  0  0  0  0  0  0  0  0  0
  144.7702  134.7975  152.8874 C   0  0  2  0  0  0  0  0  0  0  0  0
  145.6661  133.8779  152.3491 O   0  0  0  0  0  0  0  0  0  0  0  0
  144.9941  133.1271  151.3502 C   0  0  2  0  0  0  0  0  0  0  0  0
  145.9946  132.3781  150.4518 C   0  0  0  0  0  0  0  0  0  0  0  0
  146.9360  131.6825  151.2411 O   0  0  0  0  0  0  0  0  0  0  0  0
  144.0793  134.1607  150.6747 C   0  0  2  0  0  0  0  0  0  0  0  0
  144.7563  134.8708  149.6551 O   0  0  0  0  0  0  0  0  0  0  0  0
  143.7019  135.1003  151.8195 C   0  0  1  0  0  0  0  0  0  0  0  0
  142.4098  134.7724  152.2900 O   0  0  0  0  0  0  0  0  0  0  0  0
  151.7354  140.8141  157.9337 C   0  0  0  0  0  0  0  0  0  0  0  0
  152.1361  139.4223  158.2964 C   0  0  0  0  0  0  0  0  0  0  0  0
  152.1799  141.7830  158.7818 O   0  0  0  0  0  0  0  0  0  0  0  0
  144.3597  134.4244  153.8273 H   0  0  0  0  0  0  0  0  0  0  0  0
  144.3706  132.3984  151.8720 H   0  0  0  0  0  0  0  0  0  0  0  0
  143.2111  133.6826  150.2187 H   0  0  0  0  0  0  0  0  0  0  0  0
  143.7198  136.1504  151.5222 H   0  0  0  0  0  0  0  0  0  0  0  0
  151.7245  145.0848  158.6000 H   0  0  0  0  0  0  0  0  0  0  0  0
  153.2053  144.2825  159.1270 H   0  0  0  0  0  0  0  0  0  0  0  0
  151.7297  144.1294  160.0834 H   0  0  0  0  0  0  0  0  0  0  0  0
  150.5741  143.5381  156.5455 H   0  0  0  0  0  0  0  0  0  0  0  0
  148.8221  142.1975  155.4379 H   0  0  0  0  0  0  0  0  0  0  0  0
  149.1008  141.2034  154.0143 H   0  0  0  0  0  0  0  0  0  0  0  0
  150.2746  142.4327  154.4742 H   0  0  0  0  0  0  0  0  0  0  0  0
  150.9158  139.1806  154.6212 H   0  0  0  0  0  0  0  0  0  0  0  0
  149.9353  138.6459  156.4409 H   0  0  0  0  0  0  0  0  0  0  0  0
  148.8212  139.8304  157.0858 H   0  0  0  0  0  0  0  0  0  0  0  0
  148.1803  139.8576  154.4636 H   0  0  0  0  0  0  0  0  0  0  0  0
  148.5191  134.9274  156.4180 H   0  0  0  0  0  0  0  0  0  0  0  0
  144.6464  137.5332  151.9847 H   0  0  0  0  0  0  0  0  0  0  0  0
  145.4918  131.6855  149.7765 H   0  0  0  0  0  0  0  0  0  0  0  0
  146.5346  133.0899  149.8271 H   0  0  0  0  0  0  0  0  0  0  0  0
  147.5080  131.1959  150.6673 H   0  0  0  0  0  0  0  0  0  0  0  0
  145.2010  134.2460  149.1013 H   0  0  0  0  0  0  0  0  0  0  0  0
  142.0040  134.1879  151.6682 H   0  0  0  0  0  0  0  0  0  0  0  0
  152.5740  138.9106  157.4393 H   0  0  0  0  0  0  0  0  0  0  0  0
  151.2733  138.8465  158.6310 H   0  0  0  0  0  0  0  0  0  0  0  0
  152.8738  139.4206  159.0992 H   0  0  0  0  0  0  0  0  0  0  0  0
  1  2  1  0  0  0  0
  1 35  1  0  0  0  0
  1 36  1  0  0  0  0
  1 37  1  0  0  0  0
  2 30  1  0  0  0  0
  2  3  2  0  0  0  0
  3  4  1  0  0  0  0
  3 38  1  0  0  0  0
  4  5  1  0  0  0  0
  4 28  2  0  0  0  0
  5  6  1  0  0  0  0
  5  7  1  0  0  0  0
  5  8  1  0  0  0  0
  6 39  1  0  0  0  0
  6 40  1  0  0  0  0
  6 41  1  0  0  0  0
  7 42  1  0  0  0  0
  8  9  1  0  0  0  0
  8 43  1  0  0  0  0
  8 44  1  0  0  0  0
  9 10  1  0  0  0  0
  9 45  1  0  0  0  0
 10 15  1  0  0  0  0
 10 11  2  0  0  0  0
 11 12  1  0  0  0  0
 12 13  2  0  0  0  0
 12 46  1  0  0  0  0
 13 14  1  0  0  0  0
 14 18  1  0  0  0  0
 14 15  2  0  0  0  0
 15 16  1  0  0  0  0
 16 17  2  0  0  0  0
 17 18  1  0  0  0  0
 17 47  1  0  0  0  0
 18 19  1  0  0  0  0
 19 31  1  0  0  0  0
 19 26  1  0  0  0  0
 19 20  1  0  0  0  0
 20 21  1  0  0  0  0
 21 32  1  0  0  0  0
 21 22  1  0  0  0  0
 21 24  1  0  0  0  0
 22 23  1  0  0  0  0
 22 48  1  0  0  0  0
 22 49  1  0  0  0  0
 23 50  1  0  0  0  0
 24 33  1  0  0  0  0
 24 25  1  0  0  0  0
 24 26  1  0  0  0  0
 25 51  1  0  0  0  0
 26 34  1  0  0  0  0
 26 27  1  0  0  0  0
 27 52  1  0  0  0  0
 28 29  1  0  0  0  0
 28 30  1  0  0  0  0
 29 53  1  0  0  0  0
 29 54  1  0  0  0  0
 29 55  1  0  0  0  0
M  END
> <s_m_source_file>
AV-unprocessed.smi

> <i_m_source_file_index>
287

> <i_lp_mmshare_version>
43012

> <i_f3d_flags>
0

> <s_epik_input>
W0NIM11jMVtjSF1jKGMobzEpW0NIM10pW0NAQF0oW0NIM10pKFtPSF0pW0NIMl1bTkhdYyhuW2NIXW4yKWMoYzIzKW5bY0hdbjNbQ0BASF00T1tDQEhdKFtDSDJdW09IXSlbQ0BASF0oW09IXSlbQ0BIXTRbT0hd

> <s_epik_cmdline>
J2VwaWtfcHl0aG9uJywgJy1waCcsICc3LjAnLCAnLXRuJywgJzgnLCAnLW1hJywgJzIwMCcsICctbWV0YWxfYmluZGluZycsICctaW1hZScsICc8aW5maWxlLm1hZT4nLCAnLW9tYWUnLCAnPG91dGZpbGUubWFlPic=

> <r_lp_tautomer_probability>
1

> <r_epik_Ionization_Penalty>
0.000992612

> <r_epik_Ionization_Penalty_Charging>
0

> <r_epik_Ionization_Penalty_Neutral>
0.000992612

> <r_epik_State_Penalty>
-0

> <r_epik_Charging_Adjusted_Penalty>
0

> <i_epik_Tot_Q>
0

> <i_epik_Tot_abs_Q>
0

> <r_epik_Metal_State_Penalty>
-0

> <b_epik_Metal_Only>
0

> <s_epik_Chemistry_Notes>
This compound contains an acetal/aminal-like group ( X-CH(R)-Y where X, Y are N, S, or O) that may be acid/base labile, releasing an aldehyde.

> <s_lp_Force_Field>
OPLS_2005

> <r_lp_Energy>
37.4731

> <b_lp_Chiralities_Consistent>
1

> <s_lp_Variant>
AV-unprocessed.smi:287-9

> <Gold.Version>
5.8.1

> <Gold.Id.Protein>
6NUR|6NUR_protein|mol2

> <Gold.PLP.Fitness>
46.5521

> <Gold.PLP.PLP>
-37.3322

> <Gold.PLP.part.hbond>
-3.2181

> <Gold.PLP.part.metal>
0.0000

> <Gold.PLP.part.buried>
-4.6691

> <Gold.PLP.part.nonpolar>
-29.9844

> <Gold.PLP.part.repulsive>
0.4310

> <Gold.PLP.ligand.clash>
0.0000

> <Gold.PLP.ligand.torsion>
0.5720

> <Gold.PLP.Chemscore.Hbond>
2.4230

> <Gold.PLP.Chemscore.CHOScore>
1.0000

> <Gold.PLP.Chemscore.Metal>
0.0000

> <Gold.Chemscore.Hbonds>
donor molecule, donor type, donor heavy atom, donor atom, acceptor molecule, acceptor atom, score
      L1  H    23    50       P1 10747  0.94
      L1  H    25    51       P1  7921  0.42
      L1  H    27    52       P1 10186  0.05
      P1  H  7989  7998       L1     7  1.00
      L1  C    17    47       P1 10171  0.99

> <Gold.PLP.Chemscore.Internal.Correction>
0.0950

> <Gold.Rescore>
     Score         DG    S(hbond)    S(metal)    S(lipo)     H(rot)  DE(clash)    DE(int)     intcor
     10.48     -11.29       2.39        0.00      96.76       5.27       0.09       0.72       ----

> <Gold.Chemscore.Fitness>
10.4802

> <Gold.Chemscore.DG>
-11.2937

> <Gold.Chemscore.ZeroCoef>
-5.4800

> <Gold.Chemscore.Hbond>
2.3881

> <Gold.Chemscore.Metal>
0.0000

> <Gold.Chemscore.Lipo>
96.7641

> <Gold.Chemscore.Internal_Hbond>
0.0000

> <Gold.Chemscore.DEClash>
0.0901

> <Gold.Chemscore.DEInternal>
0.7234

> <Gold.Chemscore.Rot>
5.2672

> <Gold.Chemscore.Internal.Correction>
   9.000000E+99

> <Gold.Chemscore.Hbonds>
donor molecule, donor type, donor heavy atom, donor atom, acceptor molecule, acceptor atom, score
      L1  H    23    50       P1 10747  0.87
      L1  H    25    51       P1  7921  0.42
      P1  H  7989  7998       L1     7  0.65

> <Gold.Chemscore.Hbond.Weighted>
-7.9763

> <Gold.Chemscore.Metal.Weighted>
-0.0000

> <Gold.Chemscore.Lipo.Weighted>
-11.3214

> <Gold.Chemscore.Internal_Hbond.Weighted>
0.0000

> <Gold.Chemscore.DEClash.Weighted>
0.0901

> <Gold.Chemscore.DEInternal.Weighted>
0.7234

> <Gold.Chemscore.Rot.Weighted>
13.4839

> <Gold.Chemscore.Internal.Correction.Weighted>
   9.000000E+99

> <Gold.Protein.RotatedTorsions>
[ 6907 6896 6895 6894 ] final   -7.80 input  -60.11 | X-H torsion
[ 7974 7965 7964 7962 ] final -114.42 input  175.53 | X-H torsion
[ 8008 7997 7996 7995 ] final -155.04 input   59.86 | X-H torsion
[ 10167 10162 10161 10158 ] final    8.55 input  -65.29 | X-H torsion
[ 10718 10713 10712 10709 ] final   40.06 input   66.30 | X-H torsion
[ 10763 10752 10751 10750 ] final  104.59 input  -60.55 | X-H torsion
[ 11005 11000 10999 10996 ] final  122.01 input  -57.11 | X-H torsion

> <Gold.Protein.ActiveResidues>
 VAL166  LYS551  ARG553  GLY616  TRP617  ASP618  TYR619  PRO620  LYS621  CYS622 
 ASP623  PHE694  ASN695  SER759  ASP760  ASP761  ALA762  ILE779  LEU786  VAL792 
 PHE793  MET794  SER795  GLU796  ALA797  LYS798  CYS799  TRP800  GLU811  SER814 

> <Gold.Protein.RotatedAtoms>
  151.4438  135.1023  159.9677 H   0  0  0  0  0  0  0  0  0  0  0  0  # atno 6907 bound_to 6896
  152.4913  133.8504  159.7209 H   0  0  0  0  0  0  0  0  0  0  0  0  # atno 6908 bound_to 6896
  150.9070  133.6987  159.2892 H   0  0  0  0  0  0  0  0  0  0  0  0  # atno 6909 bound_to 6896
  145.1203  140.8665  143.3817 H   0  0  0  0  0  0  0  0  0  0  0  0  # atno 7974 bound_to 7965
  155.6956  140.0760  157.2430 H   0  0  0  0  0  0  0  0  0  0  0  0  # atno 8008 bound_to 7997
  154.4081  140.1656  156.2187 H   0  0  0  0  0  0  0  0  0  0  0  0  # atno 8009 bound_to 7997
  155.9413  140.3384  155.6332 H   0  0  0  0  0  0  0  0  0  0  0  0  # atno 8010 bound_to 7997
  140.6307  143.7999  150.7292 H   0  0  0  0  0  0  0  0  0  0  0  0  # atno 10167 bound_to 10162
  157.3778  130.7736  149.7169 H   0  0  0  0  0  0  0  0  0  0  0  0  # atno 10718 bound_to 10713
  153.3679  135.3938  155.1767 H   0  0  0  0  0  0  0  0  0  0  0  0  # atno 10763 bound_to 10752
  154.8690  135.3695  154.5015 H   0  0  0  0  0  0  0  0  0  0  0  0  # atno 10764 bound_to 10752
  153.5480  135.7083  153.5665 H   0  0  0  0  0  0  0  0  0  0  0  0  # atno 10765 bound_to 10752
  139.9250  134.9640  156.8044 H   0  0  0  0  0  0  0  0  0  0  0  0  # atno 11005 bound_to 11000
  145.0747  139.3004  143.5814 LP  0  0  0  0  0  0  0  0  0  0  0  0  # atno 17320 bound_to 7965
  146.3521  140.0234  142.8656 LP  0  0  0  0  0  0  0  0  0  0  0  0  # atno 17321 bound_to 7965
  140.1610  143.4275  152.2067 LP  0  0  0  0  0  0  0  0  0  0  0  0  # atno 17342 bound_to 10162
  139.5522  144.7346  151.4401 LP  0  0  0  0  0  0  0  0  0  0  0  0  # atno 17343 bound_to 10162
  155.9769  130.4070  150.3748 LP  0  0  0  0  0  0  0  0  0  0  0  0  # atno 17370 bound_to 10713
  157.1848  131.0401  151.2730 LP  0  0  0  0  0  0  0  0  0  0  0  0  # atno 17371 bound_to 10713
  140.6363  133.9859  155.7686 LP  0  0  0  0  0  0  0  0  0  0  0  0  # atno 17394 bound_to 11000
  141.0800  134.0076  157.3400 LP  0  0  0  0  0  0  0  0  0  0  0  0  # atno 17395 bound_to 11000

$$$$
