AV-unprocessed.smi:1326|AV-procd|sdf|5474|dock9
  -GOLD-   22720 5 43D 1   1.00000     0.00000
 Structure written by MMmdl.
 39 39  0  0  0  0  0  0  0  0  1 V2000
  146.4993  138.4286  151.9500 C   0  0  0  0  0  0  0  0  0  0  0  0
  146.7999  139.2329  153.1972 C   0  0  0  0  0  0  0  0  0  0  0  0
  146.0109  139.3022  154.2185 N   0  0  0  0  0  0  0  0  0  0  0  0
  146.3961  140.0826  155.3176 C   0  0  0  0  0  0  0  0  0  0  0  0
  145.4143  140.1043  156.4771 C   0  0  0  0  0  0  0  0  0  0  0  0
  147.5791  140.7654  155.3302 C   0  0  0  0  0  0  0  0  0  0  0  0
  148.0352  141.6378  156.5000 C   0  0  0  0  0  0  0  0  0  0  0  0
  149.5289  141.5922  156.8368 C   0  0  0  0  0  0  0  0  0  0  0  0
  150.0869  140.5073  156.9980 O   0  0  0  0  0  0  0  0  0  0  0  0
  150.1649  142.7673  156.9513 N   0  0  0  0  0  0  0  0  0  0  0  0
  151.5771  142.9175  157.2697 C   0  0  0  0  0  0  0  0  0  0  0  0
  151.8226  144.2494  157.9970 C   0  0  0  0  0  0  0  0  0  0  0  0
  151.6145  144.1818  159.5239 C   0  0  0  0  0  0  0  0  0  0  0  0
  151.8643  145.5340  160.2132 C   0  0  0  0  0  0  0  0  0  0  0  0
  152.5035  143.0937  160.1453 C   0  0  0  0  0  0  0  0  0  0  0  0
  148.4723  140.6780  154.1587 C   0  0  0  0  0  0  0  0  0  0  0  0
  149.5549  141.2540  154.0647 O   0  0  0  0  0  0  0  0  0  0  0  0
  148.0205  139.9034  153.1473 N   0  0  0  0  0  0  0  0  0  0  0  0
  148.5967  139.8122  152.3233 H   0  0  0  0  0  0  0  0  0  0  0  0
  147.2978  138.5157  151.2118 H   0  0  0  0  0  0  0  0  0  0  0  0
  145.5729  138.7774  151.4928 H   0  0  0  0  0  0  0  0  0  0  0  0
  146.3819  137.3746  152.2030 H   0  0  0  0  0  0  0  0  0  0  0  0
  145.8570  139.6396  157.3583 H   0  0  0  0  0  0  0  0  0  0  0  0
  144.5026  139.5568  156.2344 H   0  0  0  0  0  0  0  0  0  0  0  0
  145.1293  141.1250  156.7296 H   0  0  0  0  0  0  0  0  0  0  0  0
  147.7760  142.6783  156.3075 H   0  0  0  0  0  0  0  0  0  0  0  0
  147.4630  141.3736  157.3908 H   0  0  0  0  0  0  0  0  0  0  0  0
  149.6336  143.6138  156.8065 H   0  0  0  0  0  0  0  0  0  0  0  0
  151.8924  142.0776  157.8897 H   0  0  0  0  0  0  0  0  0  0  0  0
  152.1582  142.8779  156.3473 H   0  0  0  0  0  0  0  0  0  0  0  0
  152.8474  144.5651  157.7955 H   0  0  0  0  0  0  0  0  0  0  0  0
  151.1810  145.0236  157.5733 H   0  0  0  0  0  0  0  0  0  0  0  0
  150.5782  143.8968  159.7109 H   0  0  0  0  0  0  0  0  0  0  0  0
  152.8746  145.8968  160.0209 H   0  0  0  0  0  0  0  0  0  0  0  0
  151.7433  145.4501  161.2936 H   0  0  0  0  0  0  0  0  0  0  0  0
  151.1643  146.2963  159.8723 H   0  0  0  0  0  0  0  0  0  0  0  0
  153.5612  143.3111  159.9920 H   0  0  0  0  0  0  0  0  0  0  0  0
  152.2975  142.1169  159.7066 H   0  0  0  0  0  0  0  0  0  0  0  0
  152.3332  143.0111  161.2192 H   0  0  0  0  0  0  0  0  0  0  0  0
  1  2  1  0  0  0  0
  1 20  1  0  0  0  0
  1 21  1  0  0  0  0
  1 22  1  0  0  0  0
  2 18  1  0  0  0  0
  2  3  2  0  0  0  0
  3  4  1  0  0  0  0
  4  5  1  0  0  0  0
  4  6  2  0  0  0  0
  5 23  1  0  0  0  0
  5 24  1  0  0  0  0
  5 25  1  0  0  0  0
  6  7  1  0  0  0  0
  6 16  1  0  0  0  0
  7  8  1  0  0  0  0
  7 26  1  0  0  0  0
  7 27  1  0  0  0  0
  8  9  2  0  0  0  0
  8 10  1  0  0  0  0
 10 11  1  0  0  0  0
 10 28  1  0  0  0  0
 11 12  1  0  0  0  0
 11 29  1  0  0  0  0
 11 30  1  0  0  0  0
 12 13  1  0  0  0  0
 12 31  1  0  0  0  0
 12 32  1  0  0  0  0
 13 14  1  0  0  0  0
 13 15  1  0  0  0  0
 13 33  1  0  0  0  0
 14 34  1  0  0  0  0
 14 35  1  0  0  0  0
 14 36  1  0  0  0  0
 15 37  1  0  0  0  0
 15 38  1  0  0  0  0
 15 39  1  0  0  0  0
 16 17  2  0  0  0  0
 16 18  1  0  0  0  0
 18 19  1  0  0  0  0
M  END
> <s_m_source_file>
AV-unprocessed.smi

> <i_m_source_file_index>
1326

> <i_lp_mmshare_version>
43012

> <i_f3d_flags>
0

> <s_epik_input>
W0NIM11jMW5jKFtDSDNdKWMoYyg9TylbbkhdMSlbQ0gyXUMoPU8pW05IXVtDSDJdW0NIMl1bQ0hdKFtDSDNdKVtDSDNd

> <s_epik_cmdline>
J2VwaWtfcHl0aG9uJywgJy1waCcsICc3LjAnLCAnLXRuJywgJzgnLCAnLW1hJywgJzIwMCcsICctbWV0YWxfYmluZGluZycsICctaW1hZScsICc8aW5maWxlLm1hZT4nLCAnLW9tYWUnLCAnPG91dGZpbGUubWFlPic=

> <r_lp_tautomer_probability>
0.839158

> <r_epik_Ionization_Penalty>
0.000369141

> <r_epik_Ionization_Penalty_Charging>
0.00033405

> <r_epik_Ionization_Penalty_Neutral>
3.5091e-05

> <r_epik_State_Penalty>
0.09125

> <r_epik_Charging_Adjusted_Penalty>
0.0915841

> <i_epik_Tot_Q>
0

> <i_epik_Tot_abs_Q>
0

> <r_epik_Metal_State_Penalty>
0.250923

> <b_epik_Metal_Only>
0

> <s_lp_Force_Field>
OPLS_2005

> <r_lp_Energy>
6.99246

> <b_lp_Chiralities_Consistent>
1

> <s_lp_Variant>
AV-unprocessed.smi:1326-1

> <Gold.Version>
5.8.1

> <Gold.Id.Protein>
6NUR|6NUR_protein|mol2

> <Gold.PLP.Fitness>
43.1827

> <Gold.PLP.PLP>
-35.6761

> <Gold.PLP.part.hbond>
-3.9676

> <Gold.PLP.part.metal>
0.0000

> <Gold.PLP.part.buried>
-4.4719

> <Gold.PLP.part.nonpolar>
-28.2115

> <Gold.PLP.part.repulsive>
0.5921

> <Gold.PLP.ligand.clash>
0.0000

> <Gold.PLP.ligand.torsion>
0.7207

> <Gold.PLP.Chemscore.Hbond>
2.9784

> <Gold.PLP.Chemscore.CHOScore>
0.0000

> <Gold.PLP.Chemscore.Metal>
0.0000

> <Gold.Chemscore.Hbonds>
donor molecule, donor type, donor heavy atom, donor atom, acceptor molecule, acceptor atom, score
      L1  H    10    28       P1  8028  0.98
      L1  H    18    19       P1  7957  1.00
      P1  H  7989  7998       L1    17  0.24
      P1  H  8011  8017       L1    17  0.64

> <Gold.PLP.Chemscore.Internal.Correction>
0.0128

> <Gold.Rescore>
     Score         DG    S(hbond)    S(metal)    S(lipo)     H(rot)  DE(clash)    DE(int)     intcor
     16.33     -19.61       2.89        0.00      79.65       1.89       1.32       1.96       ----

> <Gold.Chemscore.Fitness>
16.3265

> <Gold.Chemscore.DG>
-19.6126

> <Gold.Chemscore.ZeroCoef>
-5.4800

> <Gold.Chemscore.Hbond>
2.8911

> <Gold.Chemscore.Metal>
0.0000

> <Gold.Chemscore.Lipo>
79.6468

> <Gold.Chemscore.Internal_Hbond>
0.0000

> <Gold.Chemscore.DEClash>
1.3220

> <Gold.Chemscore.DEInternal>
1.9641

> <Gold.Chemscore.Rot>
1.8916

> <Gold.Chemscore.Internal.Correction>
   9.000000E+99

> <Gold.Chemscore.Hbonds>
donor molecule, donor type, donor heavy atom, donor atom, acceptor molecule, acceptor atom, score
      L1  H    10    28       P1  8028  0.92
      L1  H    18    19       P1  7957  0.95
      P1  H  7989  7998       L1    17  0.23
      P1  H  8011  8017       L1    17  0.56

> <Gold.Chemscore.Hbond.Weighted>
-9.6563

> <Gold.Chemscore.Metal.Weighted>
-0.0000

> <Gold.Chemscore.Lipo.Weighted>
-9.3187

> <Gold.Chemscore.Internal_Hbond.Weighted>
0.0000

> <Gold.Chemscore.DEClash.Weighted>
1.3220

> <Gold.Chemscore.DEInternal.Weighted>
1.9641

> <Gold.Chemscore.Rot.Weighted>
4.8424

> <Gold.Chemscore.Internal.Correction.Weighted>
   9.000000E+99

> <Gold.Protein.RotatedTorsions>
[ 6907 6896 6895 6894 ] final   17.07 input  -60.11 | X-H torsion
[ 7974 7965 7964 7962 ] final  114.69 input  175.53 | X-H torsion
[ 8008 7997 7996 7995 ] final  -66.57 input   59.86 | X-H torsion
[ 10167 10162 10161 10158 ] final  -66.59 input  -65.29 | X-H torsion
[ 10718 10713 10712 10709 ] final  158.86 input   66.30 | X-H torsion
[ 10763 10752 10751 10750 ] final   34.49 input  -60.55 | X-H torsion
[ 11005 11000 10999 10996 ] final  -18.18 input  -57.11 | X-H torsion

> <Gold.Protein.ActiveResidues>
 VAL166  LYS551  ARG553  GLY616  TRP617  ASP618  TYR619  PRO620  LYS621  CYS622 
 ASP623  PHE694  ASN695  SER759  ASP760  ASP761  ALA762  ILE779  LEU786  VAL792 
 PHE793  MET794  SER795  GLU796  ALA797  LYS798  CYS799  TRP800  GLU811  SER814 

> <Gold.Protein.RotatedAtoms>
  151.8438  135.0581  160.0450 H   0  0  0  0  0  0  0  0  0  0  0  0  # atno 6907 bound_to 6896
  152.2788  133.5446  159.5493 H   0  0  0  0  0  0  0  0  0  0  0  0  # atno 6908 bound_to 6896
  150.7181  134.0509  159.3840 H   0  0  0  0  0  0  0  0  0  0  0  0  # atno 6909 bound_to 6896
  145.2013  139.2951  143.4317 H   0  0  0  0  0  0  0  0  0  0  0  0  # atno 7974 bound_to 7965
  154.4743  140.0910  156.7223 H   0  0  0  0  0  0  0  0  0  0  0  0  # atno 8008 bound_to 7997
  155.4639  140.3462  155.4298 H   0  0  0  0  0  0  0  0  0  0  0  0  # atno 8009 bound_to 7997
  156.1090  140.1443  156.9352 H   0  0  0  0  0  0  0  0  0  0  0  0  # atno 8010 bound_to 7997
  140.5646  143.2314  151.6661 H   0  0  0  0  0  0  0  0  0  0  0  0  # atno 10167 bound_to 10162
  157.1721  131.0612  151.2177 H   0  0  0  0  0  0  0  0  0  0  0  0  # atno 10718 bound_to 10713
  153.0161  135.6359  154.1678 H   0  0  0  0  0  0  0  0  0  0  0  0  # atno 10763 bound_to 10752
  154.1416  135.2834  155.3161 H   0  0  0  0  0  0  0  0  0  0  0  0  # atno 10764 bound_to 10752
  154.6120  135.5553  153.7544 H   0  0  0  0  0  0  0  0  0  0  0  0  # atno 10765 bound_to 10752
  140.8243  133.8045  155.9691 H   0  0  0  0  0  0  0  0  0  0  0  0  # atno 11005 bound_to 11000
  146.3417  140.2259  142.8592 LP  0  0  0  0  0  0  0  0  0  0  0  0  # atno 17320 bound_to 7965
  144.9945  140.8576  143.5319 LP  0  0  0  0  0  0  0  0  0  0  0  0  # atno 17321 bound_to 7965
  139.5086  144.3604  152.0567 LP  0  0  0  0  0  0  0  0  0  0  0  0  # atno 17342 bound_to 10162
  140.2735  144.3938  150.6143 LP  0  0  0  0  0  0  0  0  0  0  0  0  # atno 17343 bound_to 10162
  157.4034  130.7345  149.6784 LP  0  0  0  0  0  0  0  0  0  0  0  0  # atno 17370 bound_to 10713
  155.9737  130.4115  150.3983 LP  0  0  0  0  0  0  0  0  0  0  0  0  # atno 17371 bound_to 10713
  140.9066  134.2312  157.5010 LP  0  0  0  0  0  0  0  0  0  0  0  0  # atno 17394 bound_to 11000
  139.8707  134.9731  156.4797 LP  0  0  0  0  0  0  0  0  0  0  0  0  # atno 17395 bound_to 11000

$$$$
