AV-unprocessed.smi:3226|AV-procd|sdf|12316|dock1
  -GOLD-   2272018163D 1   1.00000     0.00000
 Structure written by MMmdl.
 41 43  0  0  0  0  0  0  0  0  2 V2000
  153.0234  138.9868  159.2320 C   0  0  0  0  0  0  0  0  0  0  0  0
  151.8785  139.3219  158.2696 C   0  0  0  0  0  0  0  0  0  0  0  0
  152.2548  139.1152  156.8349 C   0  0  0  0  0  0  0  0  0  0  0  0
  153.4492  138.6512  156.4483 N   0  0  0  0  0  0  0  0  0  0  0  0
  153.3929  138.5759  155.0711 N   0  0  0  0  0  0  0  0  0  0  0  0
  152.1660  138.9919  154.7633 C   0  0  0  0  0  0  0  0  0  0  0  0
  151.4058  139.3468  155.8109 N   0  0  0  0  0  0  0  0  0  0  0  0
  150.0381  139.8378  155.8057 C   0  0  0  0  0  0  0  0  0  0  0  0
  149.9299  141.2642  155.2425 C   0  0  0  0  0  0  0  0  0  0  0  0
  149.8514  142.2725  156.3189 N   0  3  0  0  0  0  0  0  0  0  0  0
  151.1568  142.8414  156.7062 C   0  0  0  0  0  0  0  0  0  0  0  0
  151.0725  143.5524  158.0696 C   0  0  1  0  0  0  0  0  0  0  0  0
  151.0941  142.5816  159.2931 C   0  0  0  0  0  0  0  0  0  0  0  0
  152.2723  143.1107  160.1432 C   0  0  2  0  0  0  0  0  0  0  0  0
  151.9173  144.4993  160.6321 C   0  0  0  0  0  0  0  0  0  0  0  0
  151.9365  145.3097  159.5723 C   0  0  0  0  0  0  0  0  0  0  0  0
  152.2916  144.4651  158.3658 C   0  0  1  0  0  0  0  0  0  0  0  0
  153.2535  143.4665  159.0234 C   0  0  0  0  0  0  0  0  0  0  0  0
  152.7221  139.1504  160.2669 H   0  0  0  0  0  0  0  0  0  0  0  0
  153.8967  139.6101  159.0367 H   0  0  0  0  0  0  0  0  0  0  0  0
  153.3275  137.9443  159.1348 H   0  0  0  0  0  0  0  0  0  0  0  0
  150.9995  138.7249  158.5109 H   0  0  0  0  0  0  0  0  0  0  0  0
  151.5835  140.3633  158.4039 H   0  0  0  0  0  0  0  0  0  0  0  0
  151.8131  139.0433  153.7436 H   0  0  0  0  0  0  0  0  0  0  0  0
  149.4214  139.1505  155.2248 H   0  0  0  0  0  0  0  0  0  0  0  0
  149.6536  139.8072  156.8255 H   0  0  0  0  0  0  0  0  0  0  0  0
  150.8049  141.4748  154.6262 H   0  0  0  0  0  0  0  0  0  0  0  0
  149.0564  141.3540  154.5954 H   0  0  0  0  0  0  0  0  0  0  0  0
  149.2511  143.0250  156.0122 H   0  0  0  0  0  0  0  0  0  0  0  0
  151.9052  142.0487  156.7252 H   0  0  0  0  0  0  0  0  0  0  0  0
  151.4664  143.5544  155.9409 H   0  0  0  0  0  0  0  0  0  0  0  0
  150.1628  144.1560  158.0848 H   0  0  0  0  0  0  0  0  0  0  0  0
  150.1535  142.5945  159.8452 H   0  0  0  0  0  0  0  0  0  0  0  0
  151.2820  141.5520  158.9853 H   0  0  0  0  0  0  0  0  0  0  0  0
  152.6585  142.4381  160.9093 H   0  0  0  0  0  0  0  0  0  0  0  0
  151.6713  144.7505  161.6534 H   0  0  0  0  0  0  0  0  0  0  0  0
  151.7070  146.3646  159.5417 H   0  0  0  0  0  0  0  0  0  0  0  0
  152.6980  145.0268  157.5243 H   0  0  0  0  0  0  0  0  0  0  0  0
  154.1675  143.9363  159.3926 H   0  0  0  0  0  0  0  0  0  0  0  0
  153.5287  142.6208  158.3912 H   0  0  0  0  0  0  0  0  0  0  0  0
  149.4384  141.8418  157.1338 H   0  0  0  0  0  0  0  0  0  0  0  0
  1  2  1  0  0  0  0
  1 19  1  0  0  0  0
  1 20  1  0  0  0  0
  1 21  1  0  0  0  0
  2  3  1  0  0  0  0
  2 22  1  0  0  0  0
  2 23  1  0  0  0  0
  3  7  1  0  0  0  0
  3  4  2  0  0  0  0
  4  5  1  0  0  0  0
  5  6  2  0  0  0  0
  6  7  1  0  0  0  0
  6 24  1  0  0  0  0
  7  8  1  0  0  0  0
  8  9  1  0  0  0  0
  8 25  1  0  0  0  0
  8 26  1  0  0  0  0
  9 10  1  0  0  0  0
  9 27  1  0  0  0  0
  9 28  1  0  0  0  0
 10 11  1  0  0  0  0
 10 29  1  0  0  0  0
 10 41  1  0  0  0  0
 11 12  1  0  0  0  0
 11 30  1  0  0  0  0
 11 31  1  0  0  0  0
 12 17  1  0  0  0  0
 12 13  1  0  0  0  0
 12 32  1  0  0  0  0
 13 14  1  0  0  0  0
 13 33  1  0  0  0  0
 13 34  1  0  0  0  0
 14 18  1  0  0  0  0
 14 15  1  0  0  0  0
 14 35  1  0  0  0  0
 15 16  2  0  0  0  0
 15 36  1  0  0  0  0
 16 17  1  0  0  0  0
 16 37  1  0  0  0  0
 17 18  1  0  0  0  0
 17 38  1  0  0  0  0
 18 39  1  0  0  0  0
 18 40  1  0  0  0  0
M  CHG  1  10   1
M  END
> <s_m_source_file>
AV-unprocessed.smi

> <i_m_source_file_index>
3226

> <i_lp_mmshare_version>
43012

> <i_f3d_flags>
0

> <s_epik_input>
W0NIM11bQ0gyXWMxbm5bY0hdbjFbQ0gyXVtDSDJdW05IXVtDSDJdW0NASF0oW0NIMl1bQ0BASF0yMylbQ0BASF0oW0NIMl0zKVtDSF09W0NIXTI=

> <s_epik_cmdline>
J2VwaWtfcHl0aG9uJywgJy1waCcsICc3LjAnLCAnLXRuJywgJzgnLCAnLW1hJywgJzIwMCcsICctbWV0YWxfYmluZGluZycsICctaW1hZScsICc8aW5maWxlLm1hZT4nLCAnLW9tYWUnLCAnPG91dGZpbGUubWFlPic=

> <r_lp_tautomer_probability>
1

> <r_epik_Ionization_Penalty>
0.00175008

> <r_epik_Ionization_Penalty_Charging>
0.00173932

> <r_epik_Ionization_Penalty_Neutral>
1.07546e-05

> <r_epik_State_Penalty>
-0

> <r_epik_Charging_Adjusted_Penalty>
0.00173932

> <i_epik_Tot_Q>
1

> <i_epik_Tot_abs_Q>
1

> <r_epik_Metal_State_Penalty>
-0

> <b_epik_Metal_Only>
0

> <s_lp_Force_Field>
OPLS_2005

> <r_lp_Energy>
64.6894

> <b_lp_Chiralities_Consistent>
1

> <s_lp_Variant>
AV-unprocessed.smi:3226-4

> <Gold.Version>
5.8.1

> <Gold.Id.Protein>
6NUR|6NUR_protein|mol2

> <Gold.PLP.Fitness>
50.5219

> <Gold.PLP.PLP>
-43.1674

> <Gold.PLP.part.hbond>
-2.8462

> <Gold.PLP.part.metal>
0.0000

> <Gold.PLP.part.buried>
-3.4362

> <Gold.PLP.part.nonpolar>
-37.8807

> <Gold.PLP.part.repulsive>
0.0765

> <Gold.PLP.ligand.clash>
0.0000

> <Gold.PLP.ligand.torsion>
0.8011

> <Gold.PLP.Chemscore.Hbond>
2.9120

> <Gold.PLP.Chemscore.CHOScore>
0.0000

> <Gold.PLP.Chemscore.Metal>
0.0000

> <Gold.Chemscore.Hbonds>
donor molecule, donor type, donor heavy atom, donor atom, acceptor molecule, acceptor atom, score
      L1  H    10    29       P1  8028  2.00
      P1  H  7997  8010       L1     4  0.86

> <Gold.PLP.Chemscore.Internal.Correction>
0.2207

> <Gold.Rescore>
     Score         DG    S(hbond)    S(metal)    S(lipo)     H(rot)  DE(clash)    DE(int)     intcor
     17.01     -18.27       1.27        0.00     118.10       2.06       0.32       0.93       ----

> <Gold.Chemscore.Fitness>
17.0130

> <Gold.Chemscore.DG>
-18.2665

> <Gold.Chemscore.ZeroCoef>
-5.4800

> <Gold.Chemscore.Hbond>
1.2718

> <Gold.Chemscore.Metal>
0.0000

> <Gold.Chemscore.Lipo>
118.1041

> <Gold.Chemscore.Internal_Hbond>
0.0000

> <Gold.Chemscore.DEClash>
0.3248

> <Gold.Chemscore.DEInternal>
0.9286

> <Gold.Chemscore.Rot>
2.0623

> <Gold.Chemscore.Internal.Correction>
   9.000000E+99

> <Gold.Chemscore.Hbonds>
donor molecule, donor type, donor heavy atom, donor atom, acceptor molecule, acceptor atom, score
      L1  H    10    29       P1  8028  0.98
      P1  H  7997  8010       L1     4  0.09

> <Gold.Chemscore.Hbond.Weighted>
-4.2479

> <Gold.Chemscore.Metal.Weighted>
-0.0000

> <Gold.Chemscore.Lipo.Weighted>
-13.8182

> <Gold.Chemscore.Internal_Hbond.Weighted>
0.0000

> <Gold.Chemscore.DEClash.Weighted>
0.3248

> <Gold.Chemscore.DEInternal.Weighted>
0.9286

> <Gold.Chemscore.Rot.Weighted>
5.2796

> <Gold.Chemscore.Internal.Correction.Weighted>
   9.000000E+99

> <Gold.Protein.RotatedTorsions>
[ 6907 6896 6895 6894 ] final  -92.70 input  -60.11 | X-H torsion
[ 7974 7965 7964 7962 ] final  -79.73 input  175.53 | X-H torsion
[ 8008 7997 7996 7995 ] final   54.85 input   59.86 | X-H torsion
[ 10167 10162 10161 10158 ] final -149.73 input  -65.29 | X-H torsion
[ 10718 10713 10712 10709 ] final  110.40 input   66.30 | X-H torsion
[ 10763 10752 10751 10750 ] final -167.45 input  -60.55 | X-H torsion
[ 11005 11000 10999 10996 ] final  -19.39 input  -57.11 | X-H torsion

> <Gold.Protein.ActiveResidues>
 VAL166  LYS551  ARG553  GLY616  TRP617  ASP618  TYR619  PRO620  LYS621  CYS622 
 ASP623  PHE694  ASN695  SER759  ASP760  ASP761  ALA762  ILE779  LEU786  VAL792 
 PHE793  MET794  SER795  GLU796  ALA797  LYS798  CYS799  TRP800  GLU811  SER814 

> <Gold.Protein.RotatedAtoms>
  150.6910  134.2081  159.4348 H   0  0  0  0  0  0  0  0  0  0  0  0  # atno 6907 bound_to 6896
  152.0044  134.9908  160.0575 H   0  0  0  0  0  0  0  0  0  0  0  0  # atno 6908 bound_to 6896
  152.1548  133.4510  159.4868 H   0  0  0  0  0  0  0  0  0  0  0  0  # atno 6909 bound_to 6896
  145.5694  140.9468  143.1404 H   0  0  0  0  0  0  0  0  0  0  0  0  # atno 7974 bound_to 7965
  155.4914  140.3471  155.4355 H   0  0  0  0  0  0  0  0  0  0  0  0  # atno 8008 bound_to 7997
  156.0974  140.1426  156.9541 H   0  0  0  0  0  0  0  0  0  0  0  0  # atno 8009 bound_to 7997
  154.4672  140.0913  156.7029 H   0  0  0  0  0  0  0  0  0  0  0  0  # atno 8010 bound_to 7997
  139.7416  143.8653  152.2564 H   0  0  0  0  0  0  0  0  0  0  0  0  # atno 10167 bound_to 10162
  157.6496  131.0932  150.6596 H   0  0  0  0  0  0  0  0  0  0  0  0  # atno 10718 bound_to 10713
  154.6731  135.2942  154.9715 H   0  0  0  0  0  0  0  0  0  0  0  0  # atno 10763 bound_to 10752
  154.0736  135.6614  153.4831 H   0  0  0  0  0  0  0  0  0  0  0  0  # atno 10764 bound_to 10752
  153.0499  135.5180  154.7736 H   0  0  0  0  0  0  0  0  0  0  0  0  # atno 10765 bound_to 10752
  140.8362  133.7960  155.9811 H   0  0  0  0  0  0  0  0  0  0  0  0  # atno 11005 bound_to 11000
  144.7445  139.7358  143.7298 LP  0  0  0  0  0  0  0  0  0  0  0  0  # atno 17320 bound_to 7965
  146.1795  139.4981  142.9875 LP  0  0  0  0  0  0  0  0  0  0  0  0  # atno 17321 bound_to 7965
  139.8605  144.7119  150.9105 LP  0  0  0  0  0  0  0  0  0  0  0  0  # atno 17342 bound_to 10162
  140.7786  143.3822  151.1457 LP  0  0  0  0  0  0  0  0  0  0  0  0  # atno 17343 bound_to 10162
  156.6909  130.4595  149.5600 LP  0  0  0  0  0  0  0  0  0  0  0  0  # atno 17370 bound_to 10713
  156.1862  130.6531  151.1009 LP  0  0  0  0  0  0  0  0  0  0  0  0  # atno 17371 bound_to 10713
  140.8945  134.2455  157.5076 LP  0  0  0  0  0  0  0  0  0  0  0  0  # atno 17394 bound_to 11000
  139.8704  134.9677  156.4606 LP  0  0  0  0  0  0  0  0  0  0  0  0  # atno 17395 bound_to 11000

$$$$
