AV-unprocessed.smi:823|AV-procd|sdf|3845|dock3
  -GOLD-   22720 1293D 1   1.00000     0.00000
 Structure written by MMmdl.
 46 47  0  0  0  0  0  0  0  0  1 V2000
  151.9509  145.1388  159.3601 C   0  0  0  0  0  0  0  0  0  0  0  0
  151.9489  143.6215  159.5749 C   0  0  1  0  0  0  0  0  0  0  0  0
  151.9943  142.8487  158.2428 C   0  0  0  0  0  0  0  0  0  0  0  0
  152.1051  141.4114  158.4861 N   0  0  0  0  0  0  0  0  0  0  0  0
  151.9073  140.5383  157.3942 C   0  0  0  0  0  0  0  0  0  0  0  0
  150.7007  140.5837  156.6556 C   0  0  0  0  0  0  0  0  0  0  0  0
  150.5215  139.6980  155.5764 C   0  0  0  0  0  0  0  0  0  0  0  0
  151.5504  138.7870  155.2598 C   0  0  0  0  0  0  0  0  0  0  0  0
  151.4221  137.8027  154.1067 C   0  0  0  0  0  0  0  0  0  0  0  0
  150.3819  136.7989  154.3036 N   0  0  0  0  0  0  0  0  0  0  0  0
  150.4445  135.7943  155.1906 C   0  0  0  0  0  0  0  0  0  0  0  0
  151.4111  135.6083  155.9319 O   0  0  0  0  0  0  0  0  0  0  0  0
  149.2124  134.8790  155.2661 C   0  0  2  0  0  0  0  0  0  0  0  0
  149.6964  133.4231  155.1575 C   0  0  0  0  0  0  0  0  0  0  0  0
  148.3076  135.1412  154.1481 N   0  0  0  0  0  0  0  0  0  0  0  0
  146.9700  135.1841  154.2355 C   0  0  0  0  0  0  0  0  0  0  0  0
  146.3937  135.4613  153.0655 N   0  0  0  0  0  0  0  0  0  0  0  0
  146.3322  134.9926  155.2690 O   0  0  0  0  0  0  0  0  0  0  0  0
  152.7227  138.8227  156.0407 C   0  0  0  0  0  0  0  0  0  0  0  0
  152.9000  139.6704  157.0759 N   0  0  0  0  0  0  0  0  0  0  0  0
  153.2031  141.0612  159.3835 C   0  0  0  0  0  0  0  0  0  0  0  0
  153.1247  141.8917  160.6752 C   0  0  0  0  0  0  0  0  0  0  0  0
  153.0908  143.2786  160.3551 O   0  0  0  0  0  0  0  0  0  0  0  0
  151.0854  145.4533  158.7763 H   0  0  0  0  0  0  0  0  0  0  0  0
  152.8475  145.4612  158.8298 H   0  0  0  0  0  0  0  0  0  0  0  0
  151.9186  145.6675  160.3130 H   0  0  0  0  0  0  0  0  0  0  0  0
  151.0459  143.3508  160.1254 H   0  0  0  0  0  0  0  0  0  0  0  0
  151.0905  143.0631  157.6707 H   0  0  0  0  0  0  0  0  0  0  0  0
  152.8453  143.1780  157.6447 H   0  0  0  0  0  0  0  0  0  0  0  0
  149.9209  141.2918  156.8928 H   0  0  0  0  0  0  0  0  0  0  0  0
  149.6067  139.7250  155.0027 H   0  0  0  0  0  0  0  0  0  0  0  0
  151.1867  138.3640  153.2023 H   0  0  0  0  0  0  0  0  0  0  0  0
  152.3798  137.3117  153.9249 H   0  0  0  0  0  0  0  0  0  0  0  0
  149.5527  136.8792  153.7329 H   0  0  0  0  0  0  0  0  0  0  0  0
  148.6886  135.0222  156.2134 H   0  0  0  0  0  0  0  0  0  0  0  0
  150.3792  133.1705  155.9700 H   0  0  0  0  0  0  0  0  0  0  0  0
  150.2166  133.2359  154.2166 H   0  0  0  0  0  0  0  0  0  0  0  0
  148.8572  132.7290  155.2131 H   0  0  0  0  0  0  0  0  0  0  0  0
  148.7343  135.3210  153.2514 H   0  0  0  0  0  0  0  0  0  0  0  0
  145.3887  135.5202  152.9940 H   0  0  0  0  0  0  0  0  0  0  0  0
  146.9708  135.6094  152.2502 H   0  0  0  0  0  0  0  0  0  0  0  0
  153.5427  138.1510  155.8332 H   0  0  0  0  0  0  0  0  0  0  0  0
  153.1942  140.0037  159.6433 H   0  0  0  0  0  0  0  0  0  0  0  0
  154.1477  141.2546  158.8736 H   0  0  0  0  0  0  0  0  0  0  0  0
  152.2445  141.6195  161.2600 H   0  0  0  0  0  0  0  0  0  0  0  0
  153.9951  141.6937  161.3009 H   0  0  0  0  0  0  0  0  0  0  0  0
  1  2  1  0  0  0  0
  1 24  1  0  0  0  0
  1 25  1  0  0  0  0
  1 26  1  0  0  0  0
  2 23  1  0  0  0  0
  2  3  1  0  0  0  0
  2 27  1  0  0  0  0
  3  4  1  0  0  0  0
  3 28  1  0  0  0  0
  3 29  1  0  0  0  0
  4  5  1  0  0  0  0
  4 21  1  0  0  0  0
  5 20  1  0  0  0  0
  5  6  2  0  0  0  0
  6  7  1  0  0  0  0
  6 30  1  0  0  0  0
  7  8  2  0  0  0  0
  7 31  1  0  0  0  0
  8  9  1  0  0  0  0
  8 19  1  0  0  0  0
  9 10  1  0  0  0  0
  9 32  1  0  0  0  0
  9 33  1  0  0  0  0
 10 11  1  0  0  0  0
 10 34  1  0  0  0  0
 11 12  2  0  0  0  0
 11 13  1  0  0  0  0
 13 14  1  0  0  0  0
 13 15  1  0  0  0  0
 13 35  1  0  0  0  0
 14 36  1  0  0  0  0
 14 37  1  0  0  0  0
 14 38  1  0  0  0  0
 15 16  1  0  0  0  0
 15 39  1  0  0  0  0
 16 17  1  0  0  0  0
 16 18  2  0  0  0  0
 17 40  1  0  0  0  0
 17 41  1  0  0  0  0
 19 20  2  0  0  0  0
 19 42  1  0  0  0  0
 21 22  1  0  0  0  0
 21 43  1  0  0  0  0
 21 44  1  0  0  0  0
 22 23  1  0  0  0  0
 22 45  1  0  0  0  0
 22 46  1  0  0  0  0
M  END
> <s_m_source_file>
AV-unprocessed.smi

> <i_m_source_file_index>
823

> <i_lp_mmshare_version>
43012

> <i_f3d_flags>
0

> <s_epik_input>
W0NIM11bQ0BASF0xW0NIMl1OKFtDSDJdW0NIMl1PMSljMltjSF1bY0hdYyhbY0hdbjIpW0NIMl1bTkhdQyg9TylbQ0BIXShbQ0gzXSlbTkhdQyg9TylbTkgyXQ==

> <s_epik_cmdline>
J2VwaWtfcHl0aG9uJywgJy1waCcsICc3LjAnLCAnLXRuJywgJzgnLCAnLW1hJywgJzIwMCcsICctbWV0YWxfYmluZGluZycsICctaW1hZScsICc8aW5maWxlLm1hZT4nLCAnLW9tYWUnLCAnPG91dGZpbGUubWFlPic=

> <r_lp_tautomer_probability>
1

> <r_epik_Ionization_Penalty>
0.00555043

> <r_epik_Ionization_Penalty_Charging>
0

> <r_epik_Ionization_Penalty_Neutral>
0.00555043

> <r_epik_State_Penalty>
0.00402575

> <r_epik_Charging_Adjusted_Penalty>
0.00402575

> <i_epik_Tot_Q>
0

> <i_epik_Tot_abs_Q>
0

> <r_epik_Metal_State_Penalty>
-0

> <b_epik_Metal_Only>
0

> <s_lp_Force_Field>
OPLS_2005

> <r_lp_Energy>
8.16045

> <b_lp_Chiralities_Consistent>
1

> <s_lp_Variant>
AV-unprocessed.smi:823-2

> <Gold.Version>
5.8.1

> <Gold.Id.Protein>
6NUR|6NUR_protein|mol2

> <Gold.PLP.Fitness>
53.2196

> <Gold.PLP.PLP>
-41.4262

> <Gold.PLP.part.hbond>
-6.0000

> <Gold.PLP.part.metal>
0.0000

> <Gold.PLP.part.buried>
-2.6813

> <Gold.PLP.part.nonpolar>
-33.2480

> <Gold.PLP.part.repulsive>
0.1335

> <Gold.PLP.ligand.clash>
0.0000

> <Gold.PLP.ligand.torsion>
0.7156

> <Gold.PLP.Chemscore.Hbond>
4.2780

> <Gold.PLP.Chemscore.CHOScore>
0.0000

> <Gold.PLP.Chemscore.Metal>
0.0000

> <Gold.Chemscore.Hbonds>
donor molecule, donor type, donor heavy atom, donor atom, acceptor molecule, acceptor atom, score
      L1  H    10    34       P1  7948  0.69
      L1  H    15    39       P1  7948  1.00
      L1  H    17    41       P1  7948  0.64
      P1  H  7997  8010       L1    20  0.70
      P1  H 10752 10765       L1    12  1.00

> <Gold.PLP.Chemscore.Internal.Correction>
0.3907

> <Gold.Rescore>
     Score         DG    S(hbond)    S(metal)    S(lipo)     H(rot)  DE(clash)    DE(int)     intcor
     19.26     -20.49       3.02        0.00      99.32       2.62       0.40       0.82       ----

> <Gold.Chemscore.Fitness>
19.2611

> <Gold.Chemscore.DG>
-20.4882

> <Gold.Chemscore.ZeroCoef>
-5.4800

> <Gold.Chemscore.Hbond>
3.0198

> <Gold.Chemscore.Metal>
0.0000

> <Gold.Chemscore.Lipo>
99.3163

> <Gold.Chemscore.Internal_Hbond>
0.0000

> <Gold.Chemscore.DEClash>
0.4024

> <Gold.Chemscore.DEInternal>
0.8247

> <Gold.Chemscore.Rot>
2.6163

> <Gold.Chemscore.Internal.Correction>
   9.000000E+99

> <Gold.Chemscore.Hbonds>
donor molecule, donor type, donor heavy atom, donor atom, acceptor molecule, acceptor atom, score
      L1  H    10    34       P1  7948  0.54
      L1  H    15    39       P1  7948  0.77
      L1  H    17    41       P1  7948  0.64
      P1  H  7997  8010       L1    20  0.07
      P1  H 10752 10765       L1    12  0.74

> <Gold.Chemscore.Hbond.Weighted>
-10.0860

> <Gold.Chemscore.Metal.Weighted>
-0.0000

> <Gold.Chemscore.Lipo.Weighted>
-11.6200

> <Gold.Chemscore.Internal_Hbond.Weighted>
0.0000

> <Gold.Chemscore.DEClash.Weighted>
0.4024

> <Gold.Chemscore.DEInternal.Weighted>
0.8247

> <Gold.Chemscore.Rot.Weighted>
6.6978

> <Gold.Chemscore.Internal.Correction.Weighted>
   9.000000E+99

> <Gold.Protein.RotatedTorsions>
[ 6907 6896 6895 6894 ] final -144.52 input  -60.11 | X-H torsion
[ 7974 7965 7964 7962 ] final  109.62 input  175.53 | X-H torsion
[ 8008 7997 7996 7995 ] final   60.38 input   59.86 | X-H torsion
[ 10167 10162 10161 10158 ] final  -87.67 input  -65.29 | X-H torsion
[ 10718 10713 10712 10709 ] final   33.60 input   66.30 | X-H torsion
[ 10763 10752 10751 10750 ] final -161.18 input  -60.55 | X-H torsion
[ 11005 11000 10999 10996 ] final   46.26 input  -57.11 | X-H torsion

> <Gold.Protein.ActiveResidues>
 VAL166  LYS551  ARG553  GLY616  TRP617  ASP618  TYR619  PRO620  LYS621  CYS622 
 ASP623  PHE694  ASN695  SER759  ASP760  ASP761  ALA762  ILE779  LEU786  VAL792 
 PHE793  MET794  SER795  GLU796  ALA797  LYS798  CYS799  TRP800  GLU811  SER814 

> <Gold.Protein.RotatedAtoms>
  151.1152  133.5144  159.2603 H   0  0  0  0  0  0  0  0  0  0  0  0  # atno 6907 bound_to 6896
  151.1923  135.0407  159.8847 H   0  0  0  0  0  0  0  0  0  0  0  0  # atno 6908 bound_to 6896
  152.5452  134.0991  159.8363 H   0  0  0  0  0  0  0  0  0  0  0  0  # atno 6909 bound_to 6896
  145.2655  139.2686  143.3994 H   0  0  0  0  0  0  0  0  0  0  0  0  # atno 7974 bound_to 7965
  155.5815  140.3491  155.4541 H   0  0  0  0  0  0  0  0  0  0  0  0  # atno 8008 bound_to 7997
  156.0370  140.1287  157.0222 H   0  0  0  0  0  0  0  0  0  0  0  0  # atno 8009 bound_to 7997
  154.4376  140.1032  156.6167 H   0  0  0  0  0  0  0  0  0  0  0  0  # atno 8010 bound_to 7997
  140.3822  143.2743  151.9370 H   0  0  0  0  0  0  0  0  0  0  0  0  # atno 10167 bound_to 10162
  157.2998  130.7345  149.6660 H   0  0  0  0  0  0  0  0  0  0  0  0  # atno 10718 bound_to 10713
  154.7326  135.3050  154.8866 H   0  0  0  0  0  0  0  0  0  0  0  0  # atno 10763 bound_to 10752
  153.9705  135.6742  153.4751 H   0  0  0  0  0  0  0  0  0  0  0  0  # atno 10764 bound_to 10752
  153.0932  135.4949  154.8651 H   0  0  0  0  0  0  0  0  0  0  0  0  # atno 10765 bound_to 10752
  140.1384  134.4614  155.8468 H   0  0  0  0  0  0  0  0  0  0  0  0  # atno 11005 bound_to 11000
  146.3262  140.3084  142.8625 LP  0  0  0  0  0  0  0  0  0  0  0  0  # atno 17320 bound_to 7965
  144.9381  140.8048  143.5648 LP  0  0  0  0  0  0  0  0  0  0  0  0  # atno 17321 bound_to 7965
  139.4794  144.5808  151.7936 LP  0  0  0  0  0  0  0  0  0  0  0  0  # atno 17342 bound_to 10162
  140.4926  144.1288  150.5953 LP  0  0  0  0  0  0  0  0  0  0  0  0  # atno 17343 bound_to 10162
  155.9671  130.4283  150.4783 LP  0  0  0  0  0  0  0  0  0  0  0  0  # atno 17370 bound_to 10713
  157.2762  131.0597  151.2228 LP  0  0  0  0  0  0  0  0  0  0  0  0  # atno 17371 bound_to 10713
  141.2182  133.6823  156.7201 LP  0  0  0  0  0  0  0  0  0  0  0  0  # atno 17394 bound_to 11000
  140.2753  134.8360  157.3884 LP  0  0  0  0  0  0  0  0  0  0  0  0  # atno 17395 bound_to 11000

$$$$
