AV-unprocessed.smi:2923|AV-procd|sdf|11213|dock2
  -GOLD-   2272016103D 1   1.00000     0.00000
 Structure written by MMmdl.
 46 48  0  0  0  0  0  0  0  0  1 V2000
  143.6713  133.0007  149.6162 C   0  0  0  0  0  0  0  0  0  0  0  0
  144.2213  133.1538  150.9540 N   0  0  0  0  0  0  0  0  0  0  0  0
  145.3572  132.3064  151.2832 C   0  0  0  0  0  0  0  0  0  0  0  0
  144.4135  134.4950  151.3108 C   0  0  0  0  0  0  0  0  0  0  0  0
  143.5970  135.1224  152.2790 C   0  0  0  0  0  0  0  0  0  0  0  0
  143.8391  136.4718  152.5993 C   0  0  0  0  0  0  0  0  0  0  0  0
  144.8956  137.1504  151.9462 C   0  0  0  0  0  0  0  0  0  0  0  0
  145.2309  138.5134  152.1667 N   0  0  0  0  0  0  0  0  0  0  0  0
  146.4395  139.0988  152.1149 C   0  0  0  0  0  0  0  0  0  0  0  0
  147.4982  138.5280  151.8545 O   0  0  0  0  0  0  0  0  0  0  0  0
  146.3479  140.4102  152.3697 N   0  0  0  0  0  0  0  0  0  0  0  0
  147.4706  141.3501  152.3904 C   0  0  1  0  0  0  0  0  0  0  0  0
  147.0942  142.7235  152.9907 C   0  0  1  0  0  0  0  0  0  0  0  0
  145.6685  143.1374  153.2634 C   0  0  0  0  0  0  0  0  0  0  0  0
  145.5035  142.8223  154.7531 C   0  0  0  0  0  0  0  0  0  0  0  0
  146.5244  141.8685  155.0394 O   0  0  0  0  0  0  0  0  0  0  0  0
  147.6881  142.2424  154.3048 C   0  0  1  0  0  0  0  0  0  0  0  0
  148.4383  141.1060  153.5782 C   0  0  0  0  0  0  0  0  0  0  0  0
  148.4322  139.7343  154.2668 C   0  0  0  0  0  0  0  0  0  0  0  0
  149.9039  141.4238  153.2671 C   0  0  0  0  0  0  0  0  0  0  0  0
  145.6407  136.4345  150.9863 C   0  0  0  0  0  0  0  0  0  0  0  0
  145.4155  135.1403  150.6761 N   0  0  0  0  0  0  0  0  0  0  0  0
  142.8226  133.6693  149.4658 H   0  0  0  0  0  0  0  0  0  0  0  0
  143.3240  131.9781  149.4672 H   0  0  0  0  0  0  0  0  0  0  0  0
  144.4232  133.2206  148.8575 H   0  0  0  0  0  0  0  0  0  0  0  0
  145.6872  132.4823  152.3079 H   0  0  0  0  0  0  0  0  0  0  0  0
  146.1960  132.4953  150.6123 H   0  0  0  0  0  0  0  0  0  0  0  0
  145.0797  131.2558  151.1952 H   0  0  0  0  0  0  0  0  0  0  0  0
  142.7977  134.5844  152.7673 H   0  0  0  0  0  0  0  0  0  0  0  0
  143.2045  136.9567  153.3242 H   0  0  0  0  0  0  0  0  0  0  0  0
  144.4472  139.1301  152.3242 H   0  0  0  0  0  0  0  0  0  0  0  0
  145.4357  140.7941  152.5697 H   0  0  0  0  0  0  0  0  0  0  0  0
  147.9914  141.4488  151.4362 H   0  0  0  0  0  0  0  0  0  0  0  0
  147.7039  143.5164  152.5544 H   0  0  0  0  0  0  0  0  0  0  0  0
  145.5020  144.1967  153.0657 H   0  0  0  0  0  0  0  0  0  0  0  0
  144.9548  142.5789  152.6578 H   0  0  0  0  0  0  0  0  0  0  0  0
  145.6758  143.7161  155.3544 H   0  0  0  0  0  0  0  0  0  0  0  0
  144.5138  142.4344  154.9943 H   0  0  0  0  0  0  0  0  0  0  0  0
  148.3071  142.9834  154.8127 H   0  0  0  0  0  0  0  0  0  0  0  0
  149.0866  139.7221  155.1388 H   0  0  0  0  0  0  0  0  0  0  0  0
  148.7699  138.9481  153.5909 H   0  0  0  0  0  0  0  0  0  0  0  0
  147.4395  139.4526  154.6185 H   0  0  0  0  0  0  0  0  0  0  0  0
  150.5041  141.4772  154.1759 H   0  0  0  0  0  0  0  0  0  0  0  0
  150.0093  142.3818  152.7571 H   0  0  0  0  0  0  0  0  0  0  0  0
  150.3489  140.6657  152.6217 H   0  0  0  0  0  0  0  0  0  0  0  0
  146.4485  136.9125  150.4516 H   0  0  0  0  0  0  0  0  0  0  0  0
  1  2  1  0  0  0  0
  1 23  1  0  0  0  0
  1 24  1  0  0  0  0
  1 25  1  0  0  0  0
  2  3  1  0  0  0  0
  2  4  1  0  0  0  0
  3 26  1  0  0  0  0
  3 27  1  0  0  0  0
  3 28  1  0  0  0  0
  4 22  1  0  0  0  0
  4  5  2  0  0  0  0
  5  6  1  0  0  0  0
  5 29  1  0  0  0  0
  6  7  2  0  0  0  0
  6 30  1  0  0  0  0
  7  8  1  0  0  0  0
  7 21  1  0  0  0  0
  8  9  1  0  0  0  0
  8 31  1  0  0  0  0
  9 10  2  0  0  0  0
  9 11  1  0  0  0  0
 11 12  1  0  0  0  0
 11 32  1  0  0  0  0
 12 18  1  0  0  0  0
 12 13  1  0  0  0  0
 12 33  1  0  0  0  0
 13 17  1  0  0  0  0
 13 14  1  0  0  0  0
 13 34  1  0  0  0  0
 14 15  1  0  0  0  0
 14 35  1  0  0  0  0
 14 36  1  0  0  0  0
 15 16  1  0  0  0  0
 15 37  1  0  0  0  0
 15 38  1  0  0  0  0
 16 17  1  0  0  0  0
 17 18  1  0  0  0  0
 17 39  1  0  0  0  0
 18 19  1  0  0  0  0
 18 20  1  0  0  0  0
 19 40  1  0  0  0  0
 19 41  1  0  0  0  0
 19 42  1  0  0  0  0
 20 43  1  0  0  0  0
 20 44  1  0  0  0  0
 20 45  1  0  0  0  0
 21 22  2  0  0  0  0
 21 46  1  0  0  0  0
M  END
> <s_m_source_file>
AV-unprocessed.smi

> <i_m_source_file_index>
2923

> <i_lp_mmshare_version>
43012

> <i_f3d_flags>
0

> <s_epik_input>
W0NIM11OKFtDSDNdKWMxW2NIXVtjSF1jKFtjSF1uMSlbTkhdQyg9TylbTkhdW0NASF0yQyhbQ0gzXSkoW0NIM10pW0NAQEhdKFtDQEhdMjMpT1tDSDJdW0NIMl0z

> <s_epik_cmdline>
J2VwaWtfcHl0aG9uJywgJy1waCcsICc3LjAnLCAnLXRuJywgJzgnLCAnLW1hJywgJzIwMCcsICctbWV0YWxfYmluZGluZycsICctaW1hZScsICc8aW5maWxlLm1hZT4nLCAnLW9tYWUnLCAnPG91dGZpbGUubWFlPic=

> <r_lp_tautomer_probability>
1

> <r_epik_Ionization_Penalty>
0.628785

> <r_epik_Ionization_Penalty_Charging>
0

> <r_epik_Ionization_Penalty_Neutral>
0.628785

> <r_epik_State_Penalty>
0.644286

> <r_epik_Charging_Adjusted_Penalty>
0.644286

> <i_epik_Tot_Q>
0

> <i_epik_Tot_abs_Q>
0

> <r_epik_Metal_State_Penalty>
0.308404

> <b_epik_Metal_Only>
0

> <s_lp_Force_Field>
OPLS_2005

> <r_lp_Energy>
44.9089

> <b_lp_Chiralities_Consistent>
1

> <s_lp_Variant>
AV-unprocessed.smi:2923-12

> <Gold.Version>
5.8.1

> <Gold.Id.Protein>
6NUR|6NUR_protein|mol2

> <Gold.PLP.Fitness>
42.6530

> <Gold.PLP.PLP>
-34.4517

> <Gold.PLP.part.hbond>
-2.6199

> <Gold.PLP.part.metal>
0.0000

> <Gold.PLP.part.buried>
-4.5195

> <Gold.PLP.part.nonpolar>
-31.3840

> <Gold.PLP.part.repulsive>
3.3295

> <Gold.PLP.ligand.clash>
0.0000

> <Gold.PLP.ligand.torsion>
0.4417

> <Gold.PLP.Chemscore.Hbond>
1.8960

> <Gold.PLP.Chemscore.CHOScore>
1.0000

> <Gold.PLP.Chemscore.Metal>
0.0000

> <Gold.Chemscore.Hbonds>
donor molecule, donor type, donor heavy atom, donor atom, acceptor molecule, acceptor atom, score
      L1  H     8    31       P1 10175  1.00
      L1  H    11    32       P1 10175  0.85
      P1  H  7954  7966       L1    10  0.67
      L1  C    21    46       P1  7948  0.04

> <Gold.PLP.Chemscore.Internal.Correction>
0.3967

> <Gold.Rescore>
     Score         DG    S(hbond)    S(metal)    S(lipo)     H(rot)  DE(clash)    DE(int)     intcor
     13.53     -17.69       1.73        0.00      81.19       1.19       2.29       1.87       ----

> <Gold.Chemscore.Fitness>
13.5302

> <Gold.Chemscore.DG>
-17.6859

> <Gold.Chemscore.ZeroCoef>
-5.4800

> <Gold.Chemscore.Hbond>
1.7252

> <Gold.Chemscore.Metal>
0.0000

> <Gold.Chemscore.Lipo>
81.1933

> <Gold.Chemscore.Internal_Hbond>
0.0000

> <Gold.Chemscore.DEClash>
2.2864

> <Gold.Chemscore.DEInternal>
1.8692

> <Gold.Chemscore.Rot>
1.1937

> <Gold.Chemscore.Internal.Correction>
   9.000000E+99

> <Gold.Chemscore.Hbonds>
donor molecule, donor type, donor heavy atom, donor atom, acceptor molecule, acceptor atom, score
      L1  H     8    31       P1 10175  0.93
      L1  H    11    32       P1 10175  0.19
      P1  H  7954  7966       L1    10  0.64

> <Gold.Chemscore.Hbond.Weighted>
-5.7621

> <Gold.Chemscore.Metal.Weighted>
-0.0000

> <Gold.Chemscore.Lipo.Weighted>
-9.4996

> <Gold.Chemscore.Internal_Hbond.Weighted>
0.0000

> <Gold.Chemscore.DEClash.Weighted>
2.2864

> <Gold.Chemscore.DEInternal.Weighted>
1.8692

> <Gold.Chemscore.Rot.Weighted>
3.0559

> <Gold.Chemscore.Internal.Correction.Weighted>
   9.000000E+99

> <Gold.Protein.RotatedTorsions>
[ 6907 6896 6895 6894 ] final  -44.10 input  -60.11 | X-H torsion
[ 7974 7965 7964 7962 ] final  155.33 input  175.53 | X-H torsion
[ 8008 7997 7996 7995 ] final  -31.69 input   59.86 | X-H torsion
[ 10167 10162 10161 10158 ] final  114.63 input  -65.29 | X-H torsion
[ 10718 10713 10712 10709 ] final  109.43 input   66.30 | X-H torsion
[ 10763 10752 10751 10750 ] final  -89.07 input  -60.55 | X-H torsion
[ 11005 11000 10999 10996 ] final   83.34 input  -57.11 | X-H torsion

> <Gold.Protein.ActiveResidues>
 VAL166  LYS551  ARG553  GLY616  TRP617  ASP618  TYR619  PRO620  LYS621  CYS622 
 ASP623  PHE694  ASN695  SER759  ASP760  ASP761  ALA762  ILE779  LEU786  VAL792 
 PHE793  MET794  SER795  GLU796  ALA797  LYS798  CYS799  TRP800  GLU811  SER814 

> <Gold.Protein.RotatedAtoms>
  150.9365  134.8777  159.7584 H   0  0  0  0  0  0  0  0  0  0  0  0  # atno 6907 bound_to 6896
  152.5061  134.4003  159.9424 H   0  0  0  0  0  0  0  0  0  0  0  0  # atno 6908 bound_to 6896
  151.4026  133.3712  159.2769 H   0  0  0  0  0  0  0  0  0  0  0  0  # atno 6909 bound_to 6896
  144.8032  139.7054  143.6173 H   0  0  0  0  0  0  0  0  0  0  0  0  # atno 7974 bound_to 7965
  154.4205  140.1757  156.1606 H   0  0  0  0  0  0  0  0  0  0  0  0  # atno 8008 bound_to 7997
  155.9841  140.3375  155.6666 H   0  0  0  0  0  0  0  0  0  0  0  0  # atno 8009 bound_to 7997
  155.6461  140.0685  157.2593 H   0  0  0  0  0  0  0  0  0  0  0  0  # atno 8010 bound_to 7997
  139.6375  144.7121  151.2305 H   0  0  0  0  0  0  0  0  0  0  0  0  # atno 10167 bound_to 10162
  157.6541  131.0913  150.6453 H   0  0  0  0  0  0  0  0  0  0  0  0  # atno 10718 bound_to 10713
  154.6513  135.5354  153.7906 H   0  0  0  0  0  0  0  0  0  0  0  0  # atno 10763 bound_to 10752
  153.0388  135.6483  154.1012 H   0  0  0  0  0  0  0  0  0  0  0  0  # atno 10764 bound_to 10752
  154.0928  135.2939  155.3248 H   0  0  0  0  0  0  0  0  0  0  0  0  # atno 10765 bound_to 10752
  139.9034  134.8137  156.2296 H   0  0  0  0  0  0  0  0  0  0  0  0  # atno 11005 bound_to 11000
  146.2317  139.5827  142.9550 LP  0  0  0  0  0  0  0  0  0  0  0  0  # atno 17320 bound_to 7965
  145.5503  141.0414  143.2282 LP  0  0  0  0  0  0  0  0  0  0  0  0  # atno 17321 bound_to 7965
  140.7473  143.6371  150.8369 LP  0  0  0  0  0  0  0  0  0  0  0  0  # atno 17342 bound_to 10162
  140.0004  143.5750  152.2878 LP  0  0  0  0  0  0  0  0  0  0  0  0  # atno 17343 bound_to 10162
  156.6761  130.4553  149.5642 LP  0  0  0  0  0  0  0  0  0  0  0  0  # atno 17370 bound_to 10713
  156.1962  130.6591  151.1117 LP  0  0  0  0  0  0  0  0  0  0  0  0  # atno 17371 bound_to 10713
  141.0354  133.6966  156.1503 LP  0  0  0  0  0  0  0  0  0  0  0  0  # atno 17394 bound_to 11000
  140.7035  134.4539  157.5585 LP  0  0  0  0  0  0  0  0  0  0  0  0  # atno 17395 bound_to 11000

$$$$
