AV-unprocessed.smi:114|AV-procd|sdf|1117|dock1
  -GOLD-   2262018233D 1   1.00000     0.00000
 Structure written by MMmdl.
 32 34  0  0  0  0  0  0  0  0  1 V2000
  153.0327  142.8882  162.2640 N   0  0  0  0  0  0  0  0  0  0  0  0
  153.2256  142.1834  161.1400 C   0  0  0  0  0  0  0  0  0  0  0  0
  154.3003  141.3643  161.0709 N   0  0  0  0  0  0  0  0  0  0  0  0
  154.5287  140.6416  159.9680 C   0  0  0  0  0  0  0  0  0  0  0  0
  155.6270  139.8504  159.9835 F   0  0  0  0  0  0  0  0  0  0  0  0
  153.7947  140.6148  158.8507 N   0  0  0  0  0  0  0  0  0  0  0  0
  152.7091  141.4387  158.9131 C   0  0  0  0  0  0  0  0  0  0  0  0
  152.3578  142.2547  160.0226 C   0  0  0  0  0  0  0  0  0  0  0  0
  151.1967  142.9610  159.7431 N   0  0  0  0  0  0  0  0  0  0  0  0
  150.8801  142.5765  158.5359 C   0  0  0  0  0  0  0  0  0  0  0  0
  151.7382  141.6672  157.9561 N   0  0  0  0  0  0  0  0  0  0  0  0
  151.6056  141.0452  156.5996 C   0  0  2  0  0  0  0  0  0  0  0  0
  150.6842  141.7955  155.8643 O   0  0  0  0  0  0  0  0  0  0  0  0
  149.5409  141.0091  155.5314 C   0  0  1  0  0  0  0  0  0  0  0  0
  148.9013  141.4908  154.2169 C   0  0  0  0  0  0  0  0  0  0  0  0
  148.4787  142.8316  154.3459 O   0  0  0  0  0  0  0  0  0  0  0  0
  150.0846  139.5746  155.5198 C   0  0  1  0  0  0  0  0  0  0  0  0
  150.7034  139.2860  154.2752 O   0  0  0  0  0  0  0  0  0  0  0  0
  151.0814  139.6030  156.6743 C   0  0  1  0  0  0  0  0  0  0  0  0
  152.0927  138.6250  156.5177 O   0  0  0  0  0  0  0  0  0  0  0  0
  152.5925  141.1308  156.1427 H   0  0  0  0  0  0  0  0  0  0  0  0
  148.8111  141.0817  156.3375 H   0  0  0  0  0  0  0  0  0  0  0  0
  149.2955  138.8405  155.6869 H   0  0  0  0  0  0  0  0  0  0  0  0
  150.5570  139.4405  157.6160 H   0  0  0  0  0  0  0  0  0  0  0  0
  152.2375  143.5060  162.3404 H   0  0  0  0  0  0  0  0  0  0  0  0
  153.6787  142.7947  163.0345 H   0  0  0  0  0  0  0  0  0  0  0  0
  150.0010  142.9497  158.0306 H   0  0  0  0  0  0  0  0  0  0  0  0
  149.5907  141.3914  153.3779 H   0  0  0  0  0  0  0  0  0  0  0  0
  148.0187  140.8930  153.9874 H   0  0  0  0  0  0  0  0  0  0  0  0
  148.8578  143.1918  155.1329 H   0  0  0  0  0  0  0  0  0  0  0  0
  150.0358  138.9909  153.6744 H   0  0  0  0  0  0  0  0  0  0  0  0
  151.6901  137.7706  156.5553 H   0  0  0  0  0  0  0  0  0  0  0  0
  1  2  1  0  0  0  0
  1 25  1  0  0  0  0
  1 26  1  0  0  0  0
  2  8  1  0  0  0  0
  2  3  2  0  0  0  0
  3  4  1  0  0  0  0
  4  5  1  0  0  0  0
  4  6  2  0  0  0  0
  6  7  1  0  0  0  0
  7 11  1  0  0  0  0
  7  8  2  0  0  0  0
  8  9  1  0  0  0  0
  9 10  2  0  0  0  0
 10 11  1  0  0  0  0
 10 27  1  0  0  0  0
 11 12  1  0  0  0  0
 12 21  1  0  0  0  0
 12 19  1  0  0  0  0
 12 13  1  0  0  0  0
 13 14  1  0  0  0  0
 14 22  1  0  0  0  0
 14 15  1  0  0  0  0
 14 17  1  0  0  0  0
 15 16  1  0  0  0  0
 15 28  1  0  0  0  0
 15 29  1  0  0  0  0
 16 30  1  0  0  0  0
 17 23  1  0  0  0  0
 17 18  1  0  0  0  0
 17 19  1  0  0  0  0
 18 31  1  0  0  0  0
 19 24  1  0  0  0  0
 19 20  1  0  0  0  0
 20 32  1  0  0  0  0
M  END
> <s_m_source_file>
AV-unprocessed.smi

> <i_m_source_file_index>
114

> <i_lp_mmshare_version>
43012

> <i_f3d_flags>
0

> <s_epik_input>
RmMobjEpbmMoW05IMl0pYyhjMTIpbltjSF1uMltDQEBIXTNPW0NASF0oW0NIMl1bT0hdKVtDQEBIXShbT0hdKVtDQEBIXTNbT0hd

> <s_epik_cmdline>
J2VwaWtfcHl0aG9uJywgJy1waCcsICc3LjAnLCAnLXRuJywgJzgnLCAnLW1hJywgJzIwMCcsICctbWV0YWxfYmluZGluZycsICctaW1hZScsICc8aW5maWxlLm1hZT4nLCAnLW9tYWUnLCAnPG91dGZpbGUubWFlPic=

> <r_lp_tautomer_probability>
1

> <r_epik_Ionization_Penalty>
1.13199e-05

> <r_epik_Ionization_Penalty_Charging>
0

> <r_epik_Ionization_Penalty_Neutral>
1.13199e-05

> <r_epik_State_Penalty>
-0

> <r_epik_Charging_Adjusted_Penalty>
0

> <i_epik_Tot_Q>
0

> <i_epik_Tot_abs_Q>
0

> <r_epik_Metal_State_Penalty>
-0

> <b_epik_Metal_Only>
0

> <s_epik_Chemistry_Notes>
This compound contains an acetal/aminal-like group ( X-CH(R)-Y where X, Y are N, S, or O) that may be acid/base labile, releasing an aldehyde.

> <s_lp_Force_Field>
OPLS_2005

> <r_lp_Energy>
42.9568

> <b_lp_Chiralities_Consistent>
1

> <s_lp_Variant>
AV-unprocessed.smi:114-11

> <Gold.Version>
5.8.1

> <Gold.Id.Protein>
6NUR|6NUR_protein|mol2

> <Gold.PLP.Fitness>
39.7738

> <Gold.PLP.PLP>
-32.6343

> <Gold.PLP.part.hbond>
-5.0724

> <Gold.PLP.part.metal>
0.0000

> <Gold.PLP.part.buried>
-2.6989

> <Gold.PLP.part.nonpolar>
-23.5727

> <Gold.PLP.part.repulsive>
0.1827

> <Gold.PLP.ligand.clash>
0.0000

> <Gold.PLP.ligand.torsion>
0.4061

> <Gold.PLP.Chemscore.Hbond>
2.6478

> <Gold.PLP.Chemscore.CHOScore>
0.0000

> <Gold.PLP.Chemscore.Metal>
0.0000

> <Gold.Chemscore.Hbonds>
donor molecule, donor type, donor heavy atom, donor atom, acceptor molecule, acceptor atom, score
      L1  H    16    30       P1  8028  0.56
      P1  H  7989  7998       L1    18  1.00
      P1  H  7997  8008       L1     6  0.70
      P1  H  8022  8030       L1    16  0.23

> <Gold.PLP.Chemscore.Internal.Correction>
0.0083

> <Gold.Rescore>
     Score         DG    S(hbond)    S(metal)    S(lipo)     H(rot)  DE(clash)    DE(int)     intcor
      3.77      -4.56       1.60        0.00      34.56       4.03       0.30       0.49       ----

> <Gold.Chemscore.Fitness>
3.7728

> <Gold.Chemscore.DG>
-4.5616

> <Gold.Chemscore.ZeroCoef>
-5.4800

> <Gold.Chemscore.Hbond>
1.6016

> <Gold.Chemscore.Metal>
0.0000

> <Gold.Chemscore.Lipo>
34.5579

> <Gold.Chemscore.Internal_Hbond>
0.0000

> <Gold.Chemscore.DEClash>
0.3026

> <Gold.Chemscore.DEInternal>
0.4862

> <Gold.Chemscore.Rot>
4.0277

> <Gold.Chemscore.Internal.Correction>
   9.000000E+99

> <Gold.Chemscore.Hbonds>
donor molecule, donor type, donor heavy atom, donor atom, acceptor molecule, acceptor atom, score
      L1  H    16    30       P1  8028  0.55
      P1  H  7989  7998       L1    18  0.58
      P1  H  7997  8008       L1     6  0.57

> <Gold.Chemscore.Hbond.Weighted>
-5.3493

> <Gold.Chemscore.Metal.Weighted>
-0.0000

> <Gold.Chemscore.Lipo.Weighted>
-4.0433

> <Gold.Chemscore.Internal_Hbond.Weighted>
0.0000

> <Gold.Chemscore.DEClash.Weighted>
0.3026

> <Gold.Chemscore.DEInternal.Weighted>
0.4862

> <Gold.Chemscore.Rot.Weighted>
10.3110

> <Gold.Chemscore.Internal.Correction.Weighted>
   9.000000E+99

> <Gold.Protein.RotatedTorsions>
[ 6907 6896 6895 6894 ] final  -78.10 input  -60.11 | X-H torsion
[ 7974 7965 7964 7962 ] final -172.14 input  175.53 | X-H torsion
[ 8008 7997 7996 7995 ] final -103.41 input   59.86 | X-H torsion
[ 10167 10162 10161 10158 ] final -174.12 input  -65.29 | X-H torsion
[ 10718 10713 10712 10709 ] final   57.34 input   66.30 | X-H torsion
[ 10763 10752 10751 10750 ] final  174.02 input  -60.55 | X-H torsion
[ 11005 11000 10999 10996 ] final   89.97 input  -57.11 | X-H torsion

> <Gold.Protein.ActiveResidues>
 VAL166  LYS551  ARG553  GLY616  TRP617  ASP618  TYR619  PRO620  LYS621  CYS622 
 ASP623  PHE694  ASN695  SER759  ASP760  ASP761  ALA762  ILE779  LEU786  VAL792 
 PHE793  MET794  SER795  GLU796  ALA797  LYS798  CYS799  TRP800  GLU811  SER814 

> <Gold.Protein.RotatedAtoms>
  150.6981  134.4323  159.5253 H   0  0  0  0  0  0  0  0  0  0  0  0  # atno 6907 bound_to 6896
  152.2047  134.8553  160.0513 H   0  0  0  0  0  0  0  0  0  0  0  0  # atno 6908 bound_to 6896
  151.9460  133.3617  159.4019 H   0  0  0  0  0  0  0  0  0  0  0  0  # atno 6909 bound_to 6896
  144.7149  140.1816  143.6357 H   0  0  0  0  0  0  0  0  0  0  0  0  # atno 7974 bound_to 7965
  154.8705  140.0423  157.1721 H   0  0  0  0  0  0  0  0  0  0  0  0  # atno 8008 bound_to 7997
  154.8744  140.2963  155.5441 H   0  0  0  0  0  0  0  0  0  0  0  0  # atno 8009 bound_to 7997
  156.2999  140.2423  156.3737 H   0  0  0  0  0  0  0  0  0  0  0  0  # atno 8010 bound_to 7997
  139.5651  144.1775  152.1300 H   0  0  0  0  0  0  0  0  0  0  0  0  # atno 10167 bound_to 10162
  157.5507  130.8763  149.8958 H   0  0  0  0  0  0  0  0  0  0  0  0  # atno 10718 bound_to 10713
  154.4482  135.2764  155.1800 H   0  0  0  0  0  0  0  0  0  0  0  0  # atno 10763 bound_to 10752
  154.3638  135.6123  153.5708 H   0  0  0  0  0  0  0  0  0  0  0  0  # atno 10764 bound_to 10752
  152.9845  135.5841  154.4822 H   0  0  0  0  0  0  0  0  0  0  0  0  # atno 10765 bound_to 10752
  139.8865  134.8584  156.3217 H   0  0  0  0  0  0  0  0  0  0  0  0  # atno 11005 bound_to 11000
  145.8851  139.2344  143.1582 LP  0  0  0  0  0  0  0  0  0  0  0  0  # atno 17320 bound_to 7965
  145.9958  140.8564  143.0043 LP  0  0  0  0  0  0  0  0  0  0  0  0  # atno 17321 bound_to 7965
  140.1296  144.5300  150.6811 LP  0  0  0  0  0  0  0  0  0  0  0  0  # atno 17342 bound_to 10162
  140.6934  143.2389  151.5068 LP  0  0  0  0  0  0  0  0  0  0  0  0  # atno 17343 bound_to 10162
  156.0574  130.3706  150.1060 LP  0  0  0  0  0  0  0  0  0  0  0  0  # atno 17370 bound_to 10713
  156.9233  130.9690  151.3545 LP  0  0  0  0  0  0  0  0  0  0  0  0  # atno 17371 bound_to 10713
  140.9782  133.7284  156.0633 LP  0  0  0  0  0  0  0  0  0  0  0  0  # atno 17394 bound_to 11000
  140.7784  134.3754  157.5493 LP  0  0  0  0  0  0  0  0  0  0  0  0  # atno 17395 bound_to 11000

$$$$
