AV-unprocessed.smi:1710|AV-procd|sdf|6899|dock2
  -GOLD-   22720 8103D 1   1.00000     0.00000
 Structure written by MMmdl.
 36 37  0  0  0  0  0  0  0  0  1 V2000
  150.9135  139.9880  157.6965 C   0  0  0  0  0  0  0  0  0  0  0  0
  150.7213  140.8971  156.1092 S   0  0  0  0  0  0  0  0  0  0  0  0
  150.9543  142.3262  156.3683 O   0  0  0  0  0  0  0  0  0  0  0  0
  151.5154  140.2031  155.0839 O   0  0  0  0  0  0  0  0  0  0  0  0
  149.0401  140.6964  155.7067 N   0  0  0  0  0  0  0  0  0  0  0  0
  148.5407  141.1290  154.3857 C   0  0  0  0  0  0  0  0  0  0  0  0
  148.3529  139.9388  153.4285 C   0  0  0  0  0  0  0  0  0  0  0  0
  147.4665  138.8499  154.0556 C   0  0  0  0  0  0  0  0  0  0  0  0
  147.3524  137.6980  153.1654 N   0  0  0  0  0  0  0  0  0  0  0  0
  146.1991  137.1297  152.7851 C   0  0  0  0  0  0  0  0  0  0  0  0
  145.0925  137.5217  153.1557 O   0  0  0  0  0  0  0  0  0  0  0  0
  146.4133  136.0970  151.9535 N   0  0  0  0  0  0  0  0  0  0  0  0
  145.4392  135.2539  151.3611 C   0  0  0  0  0  0  0  0  0  0  0  0
  145.6349  133.8794  151.0564 C   0  0  0  0  0  0  0  0  0  0  0  0
  144.5504  133.3452  150.5129 N   0  0  0  0  0  0  0  0  0  0  0  0
  143.6634  134.3648  150.4703 N   0  0  0  0  0  0  0  0  0  0  0  0
  144.1603  135.5454  150.9769 C   0  0  0  0  0  0  0  0  0  0  0  0
  148.0703  138.4175  155.3993 C   0  0  0  0  0  0  0  0  0  0  0  0
  148.2533  139.6202  156.3419 C   0  0  0  0  0  0  0  0  0  0  0  0
  142.7323  134.2406  150.0986 H   0  0  0  0  0  0  0  0  0  0  0  0
  151.9522  140.0535  158.0194 H   0  0  0  0  0  0  0  0  0  0  0  0
  150.6517  138.9406  157.5588 H   0  0  0  0  0  0  0  0  0  0  0  0
  150.2784  140.4353  158.4590 H   0  0  0  0  0  0  0  0  0  0  0  0
  147.5849  141.6342  154.5286 H   0  0  0  0  0  0  0  0  0  0  0  0
  149.2138  141.8649  153.9470 H   0  0  0  0  0  0  0  0  0  0  0  0
  147.9090  140.2924  152.4972 H   0  0  0  0  0  0  0  0  0  0  0  0
  149.3226  139.5196  153.1617 H   0  0  0  0  0  0  0  0  0  0  0  0
  146.4727  139.2613  154.2435 H   0  0  0  0  0  0  0  0  0  0  0  0
  148.2141  137.3098  152.8103 H   0  0  0  0  0  0  0  0  0  0  0  0
  147.3733  135.8931  151.7169 H   0  0  0  0  0  0  0  0  0  0  0  0
  146.5097  133.2643  151.2079 H   0  0  0  0  0  0  0  0  0  0  0  0
  143.5726  136.4505  151.0153 H   0  0  0  0  0  0  0  0  0  0  0  0
  147.4255  137.6783  155.8761 H   0  0  0  0  0  0  0  0  0  0  0  0
  149.0282  137.9246  155.2354 H   0  0  0  0  0  0  0  0  0  0  0  0
  148.7224  139.3048  157.2735 H   0  0  0  0  0  0  0  0  0  0  0  0
  147.2763  140.0229  156.6114 H   0  0  0  0  0  0  0  0  0  0  0  0
  1  2  1  0  0  0  0
  1 21  1  0  0  0  0
  1 22  1  0  0  0  0
  1 23  1  0  0  0  0
  2  3  2  0  0  0  0
  2  4  2  0  0  0  0
  2  5  1  0  0  0  0
  5 19  1  0  0  0  0
  5  6  1  0  0  0  0
  6  7  1  0  0  0  0
  6 24  1  0  0  0  0
  6 25  1  0  0  0  0
  7  8  1  0  0  0  0
  7 26  1  0  0  0  0
  7 27  1  0  0  0  0
  8  9  1  0  0  0  0
  8 18  1  0  0  0  0
  8 28  1  0  0  0  0
  9 10  1  0  0  0  0
  9 29  1  0  0  0  0
 10 11  2  0  0  0  0
 10 12  1  0  0  0  0
 12 13  1  0  0  0  0
 12 30  1  0  0  0  0
 13 17  2  0  0  0  0
 13 14  1  0  0  0  0
 14 15  2  0  0  0  0
 14 31  1  0  0  0  0
 15 16  1  0  0  0  0
 16 20  1  0  0  0  0
 16 17  1  0  0  0  0
 17 32  1  0  0  0  0
 18 19  1  0  0  0  0
 18 33  1  0  0  0  0
 18 34  1  0  0  0  0
 19 35  1  0  0  0  0
 19 36  1  0  0  0  0
M  END
> <s_m_source_file>
AV-unprocessed.smi

> <i_m_source_file_index>
1710

> <i_lp_mmshare_version>
43012

> <i_f3d_flags>
0

> <s_epik_input>
W0NIM11TKD1PKSg9TylOMVtDSDJdW0NIMl1bQ0hdKFtDSDJdW0NIMl0xKVtOSF1DKD1PKVtOSF1jMltjSF1uW25IXVtjSF0y

> <s_epik_cmdline>
J2VwaWtfcHl0aG9uJywgJy1waCcsICc3LjAnLCAnLXRuJywgJzgnLCAnLW1hJywgJzIwMCcsICctbWV0YWxfYmluZGluZycsICctaW1hZScsICc8aW5maWxlLm1hZT4nLCAnLW9tYWUnLCAnPG91dGZpbGUubWFlPic=

> <r_lp_tautomer_probability>
1

> <r_epik_Ionization_Penalty>
5.00334e-05

> <r_epik_Ionization_Penalty_Charging>
0

> <r_epik_Ionization_Penalty_Neutral>
5.00334e-05

> <r_epik_State_Penalty>
-0

> <r_epik_Charging_Adjusted_Penalty>
0

> <i_epik_Tot_Q>
0

> <i_epik_Tot_abs_Q>
0

> <r_epik_Metal_State_Penalty>
-0

> <b_epik_Metal_Only>
0

> <s_lp_Force_Field>
OPLS_2005

> <r_lp_Energy>
2.71919

> <b_lp_Chiralities_Consistent>
1

> <s_lp_Variant>
AV-unprocessed.smi:1710-1

> <Gold.Version>
5.8.1

> <Gold.Id.Protein>
6NUR|6NUR_protein|mol2

> <Gold.PLP.Fitness>
36.3080

> <Gold.PLP.PLP>
-22.3008

> <Gold.PLP.part.hbond>
-3.9548

> <Gold.PLP.part.metal>
0.0000

> <Gold.PLP.part.buried>
-0.5389

> <Gold.PLP.part.nonpolar>
-18.6897

> <Gold.PLP.part.repulsive>
0.5855

> <Gold.PLP.ligand.clash>
0.0000

> <Gold.PLP.ligand.torsion>
1.5102

> <Gold.PLP.Chemscore.Hbond>
3.9920

> <Gold.PLP.Chemscore.CHOScore>
1.0000

> <Gold.PLP.Chemscore.Metal>
0.0000

> <Gold.Chemscore.Hbonds>
donor molecule, donor type, donor heavy atom, donor atom, acceptor molecule, acceptor atom, score
      L1  H     9    29       P1  7948  0.99
      L1  H    12    30       P1  7948  1.00
      L1  H    16    20       P1 10186  1.00
      P1  H  7989  7998       L1     4  1.00
      L1  C    17    32       P1 10171  1.00

> <Gold.PLP.Chemscore.Internal.Correction>
2.0517

> <Gold.Rescore>
     Score         DG    S(hbond)    S(metal)    S(lipo)     H(rot)  DE(clash)    DE(int)     intcor
     17.69     -20.80       3.87        0.00      42.42       1.00       1.57       1.53       ----

> <Gold.Chemscore.Fitness>
17.6944

> <Gold.Chemscore.DG>
-20.8000

> <Gold.Chemscore.ZeroCoef>
-5.4800

> <Gold.Chemscore.Hbond>
3.8672

> <Gold.Chemscore.Metal>
0.0000

> <Gold.Chemscore.Lipo>
42.4239

> <Gold.Chemscore.Internal_Hbond>
0.0000

> <Gold.Chemscore.DEClash>
1.5737

> <Gold.Chemscore.DEInternal>
1.5319

> <Gold.Chemscore.Rot>
1.0000

> <Gold.Chemscore.Internal.Correction>
   9.000000E+99

> <Gold.Chemscore.Hbonds>
donor molecule, donor type, donor heavy atom, donor atom, acceptor molecule, acceptor atom, score
      L1  H     9    29       P1  7948  0.92
      L1  H    12    30       P1  7948  0.94
      L1  H    16    20       P1 10186  0.94
      P1  H  7989  7998       L1     4  0.93

> <Gold.Chemscore.Hbond.Weighted>
-12.9165

> <Gold.Chemscore.Metal.Weighted>
-0.0000

> <Gold.Chemscore.Lipo.Weighted>
-4.9636

> <Gold.Chemscore.Internal_Hbond.Weighted>
0.0000

> <Gold.Chemscore.DEClash.Weighted>
1.5737

> <Gold.Chemscore.DEInternal.Weighted>
1.5319

> <Gold.Chemscore.Rot.Weighted>
2.5600

> <Gold.Chemscore.Internal.Correction.Weighted>
   9.000000E+99

> <Gold.Protein.RotatedTorsions>
[ 6907 6896 6895 6894 ] final   -6.34 input  -60.11 | X-H torsion
[ 7974 7965 7964 7962 ] final   77.88 input  175.53 | X-H torsion
[ 8008 7997 7996 7995 ] final  -24.64 input   59.86 | X-H torsion
[ 10167 10162 10161 10158 ] final  103.69 input  -65.29 | X-H torsion
[ 10718 10713 10712 10709 ] final  103.58 input   66.30 | X-H torsion
[ 10763 10752 10751 10750 ] final   27.74 input  -60.55 | X-H torsion
[ 11005 11000 10999 10996 ] final   42.88 input  -57.11 | X-H torsion

> <Gold.Protein.ActiveResidues>
 VAL166  LYS551  ARG553  GLY616  TRP617  ASP618  TYR619  PRO620  LYS621  CYS622 
 ASP623  PHE694  ASN695  SER759  ASP760  ASP761  ALA762  ILE779  LEU786  VAL792 
 PHE793  MET794  SER795  GLU796  ALA797  LYS798  CYS799  TRP800  GLU811  SER814 

> <Gold.Protein.RotatedAtoms>
  151.4671  135.1043  159.9740 H   0  0  0  0  0  0  0  0  0  0  0  0  # atno 6907 bound_to 6896
  152.4831  133.8299  159.7108 H   0  0  0  0  0  0  0  0  0  0  0  0  # atno 6908 bound_to 6896
  150.8918  133.7173  159.2929 H   0  0  0  0  0  0  0  0  0  0  0  0  # atno 6909 bound_to 6896
  145.6844  139.2533  143.1796 H   0  0  0  0  0  0  0  0  0  0  0  0  # atno 7974 bound_to 7965
  154.4518  140.1948  156.0496 H   0  0  0  0  0  0  0  0  0  0  0  0  # atno 8008 bound_to 7997
  156.0664  140.3290  155.7495 H   0  0  0  0  0  0  0  0  0  0  0  0  # atno 8009 bound_to 7997
  155.5332  140.0580  157.2875 H   0  0  0  0  0  0  0  0  0  0  0  0  # atno 8010 bound_to 7997
  139.7241  144.7051  151.0826 H   0  0  0  0  0  0  0  0  0  0  0  0  # atno 10167 bound_to 10162
  157.6768  131.0782  150.5576 H   0  0  0  0  0  0  0  0  0  0  0  0  # atno 10718 bound_to 10713
  153.0536  135.6530  154.0632 H   0  0  0  0  0  0  0  0  0  0  0  0  # atno 10763 bound_to 10752
  154.0315  135.2911  155.3369 H   0  0  0  0  0  0  0  0  0  0  0  0  # atno 10764 bound_to 10752
  154.6839  135.5309  153.8367 H   0  0  0  0  0  0  0  0  0  0  0  0  # atno 10765 bound_to 10752
  140.1697  134.4237  155.8265 H   0  0  0  0  0  0  0  0  0  0  0  0  # atno 11005 bound_to 11000
  146.0936  140.7626  142.9583 LP  0  0  0  0  0  0  0  0  0  0  0  0  # atno 17320 bound_to 7965
  144.7016  140.3676  143.7151 LP  0  0  0  0  0  0  0  0  0  0  0  0  # atno 17321 bound_to 7965
  140.7759  143.5128  150.9632 LP  0  0  0  0  0  0  0  0  0  0  0  0  # atno 17342 bound_to 10162
  139.8815  143.7066  152.3156 LP  0  0  0  0  0  0  0  0  0  0  0  0  # atno 17343 bound_to 10162
  156.5880  130.4322  149.5949 LP  0  0  0  0  0  0  0  0  0  0  0  0  # atno 17370 bound_to 10713
  156.2607  130.6960  151.1728 LP  0  0  0  0  0  0  0  0  0  0  0  0  # atno 17371 bound_to 10713
  141.2216  133.6950  156.7742 LP  0  0  0  0  0  0  0  0  0  0  0  0  # atno 17394 bound_to 11000
  140.2391  134.8627  157.3555 LP  0  0  0  0  0  0  0  0  0  0  0  0  # atno 17395 bound_to 11000

$$$$
