AV-unprocessed.smi:671|AV-procd|sdf|3273|dock2
  -GOLD-   22720 0233D 1   1.00000     0.00000
 Structure written by MMmdl.
 49 50  0  0  0  0  0  0  0  0  1 V2000
  153.0287  138.5280  154.8080 C   0  0  0  0  0  0  0  0  0  0  0  0
  152.0523  139.1037  155.7942 C   0  0  0  0  0  0  0  0  0  0  0  0
  152.5089  139.7439  156.8574 N   0  0  0  0  0  0  0  0  0  0  0  0
  151.4049  140.1187  157.5342 N   0  0  0  0  0  0  0  0  0  0  0  0
  151.5489  140.8553  158.7749 C   0  0  0  0  0  0  0  0  0  0  0  0
  150.2475  139.7178  156.8953 C   0  0  0  0  0  0  0  0  0  0  0  0
  148.8900  140.0144  157.4463 C   0  0  0  0  0  0  0  0  0  0  0  0
  150.6274  139.0534  155.7596 C   0  0  0  0  0  0  0  0  0  0  0  0
  149.7658  138.4059  154.7062 C   0  0  0  0  0  0  0  0  0  0  0  0
  148.8006  137.3552  155.2996 C   0  0  2  0  0  0  0  0  0  0  0  0
  149.5055  136.3834  156.2588 C   0  0  0  0  0  0  0  0  0  0  0  0
  148.1614  136.5824  154.2315 N   0  0  0  0  0  0  0  0  0  0  0  0
  147.1741  135.6738  154.3391 C   0  0  0  0  0  0  0  0  0  0  0  0
  146.6862  135.3710  155.4262 O   0  0  0  0  0  0  0  0  0  0  0  0
  146.7904  135.1250  153.1745 N   0  0  0  0  0  0  0  0  0  0  0  0
  145.7516  134.1130  153.0106 C   0  0  2  0  0  0  0  0  0  0  0  0
  146.1590  132.8153  153.7328 C   0  0  0  0  0  0  0  0  0  0  0  0
  146.4937  131.8079  152.6335 C   0  0  0  0  0  0  0  0  0  0  0  0
  145.5785  132.2068  151.4812 C   0  0  0  0  0  0  0  0  0  0  0  0
  145.5659  133.7389  151.5218 C   0  0  1  0  0  0  0  0  0  0  0  0
  144.3147  134.3540  150.8794 C   0  0  0  0  0  0  0  0  0  0  0  0
  152.6865  138.6710  153.7835 H   0  0  0  0  0  0  0  0  0  0  0  0
  153.1559  137.4576  154.9678 H   0  0  0  0  0  0  0  0  0  0  0  0
  154.0102  138.9955  154.8920 H   0  0  0  0  0  0  0  0  0  0  0  0
  151.2420  141.8904  158.6231 H   0  0  0  0  0  0  0  0  0  0  0  0
  152.5856  140.8385  159.1141 H   0  0  0  0  0  0  0  0  0  0  0  0
  150.9220  140.4060  159.5455 H   0  0  0  0  0  0  0  0  0  0  0  0
  148.1122  139.8249  156.7074 H   0  0  0  0  0  0  0  0  0  0  0  0
  148.8103  141.0590  157.7480 H   0  0  0  0  0  0  0  0  0  0  0  0
  148.6837  139.3928  158.3177 H   0  0  0  0  0  0  0  0  0  0  0  0
  149.1958  139.1766  154.1870 H   0  0  0  0  0  0  0  0  0  0  0  0
  150.3762  137.9406  153.9319 H   0  0  0  0  0  0  0  0  0  0  0  0
  148.0229  137.8637  155.8715 H   0  0  0  0  0  0  0  0  0  0  0  0
  149.9363  136.9078  157.1118 H   0  0  0  0  0  0  0  0  0  0  0  0
  150.3107  135.8445  155.7583 H   0  0  0  0  0  0  0  0  0  0  0  0
  148.8061  135.6455  156.6530 H   0  0  0  0  0  0  0  0  0  0  0  0
  148.5453  136.7165  153.3072 H   0  0  0  0  0  0  0  0  0  0  0  0
  147.2550  135.4352  152.3339 H   0  0  0  0  0  0  0  0  0  0  0  0
  144.8139  134.4664  153.4443 H   0  0  0  0  0  0  0  0  0  0  0  0
  146.9841  132.9477  154.4341 H   0  0  0  0  0  0  0  0  0  0  0  0
  145.3097  132.4452  154.3088 H   0  0  0  0  0  0  0  0  0  0  0  0
  147.5359  131.9207  152.3321 H   0  0  0  0  0  0  0  0  0  0  0  0
  146.3463  130.7752  152.9508 H   0  0  0  0  0  0  0  0  0  0  0  0
  145.9191  131.8157  150.5221 H   0  0  0  0  0  0  0  0  0  0  0  0
  144.5762  131.8156  151.6628 H   0  0  0  0  0  0  0  0  0  0  0  0
  146.4378  134.0791  150.9595 H   0  0  0  0  0  0  0  0  0  0  0  0
  143.4072  134.0408  151.3967 H   0  0  0  0  0  0  0  0  0  0  0  0
  144.2244  134.0546  149.8350 H   0  0  0  0  0  0  0  0  0  0  0  0
  144.3561  135.4431  150.9091 H   0  0  0  0  0  0  0  0  0  0  0  0
  1  2  1  0  0  0  0
  1 22  1  0  0  0  0
  1 23  1  0  0  0  0
  1 24  1  0  0  0  0
  2  8  1  0  0  0  0
  2  3  2  0  0  0  0
  3  4  1  0  0  0  0
  4  5  1  0  0  0  0
  4  6  1  0  0  0  0
  5 25  1  0  0  0  0
  5 26  1  0  0  0  0
  5 27  1  0  0  0  0
  6  7  1  0  0  0  0
  6  8  2  0  0  0  0
  7 28  1  0  0  0  0
  7 29  1  0  0  0  0
  7 30  1  0  0  0  0
  8  9  1  0  0  0  0
  9 10  1  0  0  0  0
  9 31  1  0  0  0  0
  9 32  1  0  0  0  0
 10 11  1  0  0  0  0
 10 12  1  0  0  0  0
 10 33  1  0  0  0  0
 11 34  1  0  0  0  0
 11 35  1  0  0  0  0
 11 36  1  0  0  0  0
 12 13  1  0  0  0  0
 12 37  1  0  0  0  0
 13 14  2  0  0  0  0
 13 15  1  0  0  0  0
 15 16  1  0  0  0  0
 15 38  1  0  0  0  0
 16 20  1  0  0  0  0
 16 17  1  0  0  0  0
 16 39  1  0  0  0  0
 17 18  1  0  0  0  0
 17 40  1  0  0  0  0
 17 41  1  0  0  0  0
 18 19  1  0  0  0  0
 18 42  1  0  0  0  0
 18 43  1  0  0  0  0
 19 20  1  0  0  0  0
 19 44  1  0  0  0  0
 19 45  1  0  0  0  0
 20 21  1  0  0  0  0
 20 46  1  0  0  0  0
 21 47  1  0  0  0  0
 21 48  1  0  0  0  0
 21 49  1  0  0  0  0
M  END
> <s_m_source_file>
AV-unprocessed.smi

> <i_m_source_file_index>
671

> <i_lp_mmshare_version>
43012

> <i_f3d_flags>
0

> <s_epik_input>
W0NIM11jMW5uKFtDSDNdKWMoW0NIM10pYzFbQ0gyXVtDQEhdKFtDSDNdKVtOSF1DKD1PKVtOSF1bQ0BASF0yW0NIMl1bQ0gyXVtDSDJdW0NASF0yW0NIM10=

> <s_epik_cmdline>
J2VwaWtfcHl0aG9uJywgJy1waCcsICc3LjAnLCAnLXRuJywgJzgnLCAnLW1hJywgJzIwMCcsICctbWV0YWxfYmluZGluZycsICctaW1hZScsICc8aW5maWxlLm1hZT4nLCAnLW9tYWUnLCAnPG91dGZpbGUubWFlPic=

> <r_lp_tautomer_probability>
1

> <r_epik_Ionization_Penalty>
0.0126855

> <r_epik_Ionization_Penalty_Charging>
0

> <r_epik_Ionization_Penalty_Neutral>
0.0126855

> <r_epik_State_Penalty>
0.00977547

> <r_epik_Charging_Adjusted_Penalty>
0.00977547

> <i_epik_Tot_Q>
0

> <i_epik_Tot_abs_Q>
0

> <r_epik_Metal_State_Penalty>
0.00957132

> <b_epik_Metal_Only>
0

> <s_lp_Force_Field>
OPLS_2005

> <r_lp_Energy>
21.9144

> <b_lp_Chiralities_Consistent>
1

> <s_lp_Variant>
AV-unprocessed.smi:671-1

> <Gold.Version>
5.8.1

> <Gold.Id.Protein>
6NUR|6NUR_protein|mol2

> <Gold.PLP.Fitness>
36.9346

> <Gold.PLP.PLP>
-28.8369

> <Gold.PLP.part.hbond>
-2.8387

> <Gold.PLP.part.metal>
0.0000

> <Gold.PLP.part.buried>
-4.2392

> <Gold.PLP.part.nonpolar>
-22.2900

> <Gold.PLP.part.repulsive>
0.0370

> <Gold.PLP.ligand.clash>
0.0000

> <Gold.PLP.ligand.torsion>
0.1139

> <Gold.PLP.Chemscore.Hbond>
2.7680

> <Gold.PLP.Chemscore.CHOScore>
0.0000

> <Gold.PLP.Chemscore.Metal>
0.0000

> <Gold.Chemscore.Hbonds>
donor molecule, donor type, donor heavy atom, donor atom, acceptor molecule, acceptor atom, score
      L1  H    12    37       P1  7948  1.00
      L1  H    15    38       P1  7948  0.77
      P1  H  7997  8008       L1     3  1.00

> <Gold.PLP.Chemscore.Internal.Correction>
0.0216

> <Gold.Rescore>
     Score         DG    S(hbond)    S(metal)    S(lipo)     H(rot)  DE(clash)    DE(int)     intcor
     19.17     -19.46       2.68        0.00      74.71       1.45       0.05       0.24       ----

> <Gold.Chemscore.Fitness>
19.1683

> <Gold.Chemscore.DG>
-19.4635

> <Gold.Chemscore.ZeroCoef>
-5.4800

> <Gold.Chemscore.Hbond>
2.6809

> <Gold.Chemscore.Metal>
0.0000

> <Gold.Chemscore.Lipo>
74.7104

> <Gold.Chemscore.Internal_Hbond>
0.0000

> <Gold.Chemscore.DEClash>
0.0530

> <Gold.Chemscore.DEInternal>
0.2422

> <Gold.Chemscore.Rot>
1.4499

> <Gold.Chemscore.Internal.Correction>
   9.000000E+99

> <Gold.Chemscore.Hbonds>
donor molecule, donor type, donor heavy atom, donor atom, acceptor molecule, acceptor atom, score
      L1  H    12    37       P1  7948  0.95
      L1  H    15    38       P1  7948  0.76
      P1  H  7997  8008       L1     3  0.34

> <Gold.Chemscore.Hbond.Weighted>
-8.9542

> <Gold.Chemscore.Metal.Weighted>
-0.0000

> <Gold.Chemscore.Lipo.Weighted>
-8.7411

> <Gold.Chemscore.Internal_Hbond.Weighted>
0.0000

> <Gold.Chemscore.DEClash.Weighted>
0.0530

> <Gold.Chemscore.DEInternal.Weighted>
0.2422

> <Gold.Chemscore.Rot.Weighted>
3.7118

> <Gold.Chemscore.Internal.Correction.Weighted>
   9.000000E+99

> <Gold.Protein.RotatedTorsions>
[ 6907 6896 6895 6894 ] final -124.99 input  -60.11 | X-H torsion
[ 7974 7965 7964 7962 ] final  -53.76 input  175.53 | X-H torsion
[ 8008 7997 7996 7995 ] final  -41.69 input   59.86 | X-H torsion
[ 10167 10162 10161 10158 ] final  149.08 input  -65.29 | X-H torsion
[ 10718 10713 10712 10709 ] final  -84.44 input   66.30 | X-H torsion
[ 10763 10752 10751 10750 ] final   34.11 input  -60.55 | X-H torsion
[ 11005 11000 10999 10996 ] final    4.81 input  -57.11 | X-H torsion

> <Gold.Protein.ActiveResidues>
 VAL166  LYS551  ARG553  GLY616  TRP617  ASP618  TYR619  PRO620  LYS621  CYS622 
 ASP623  PHE694  ASN695  SER759  ASP760  ASP761  ALA762  ILE779  LEU786  VAL792 
 PHE793  MET794  SER795  GLU796  ALA797  LYS798  CYS799  TRP800  GLU811  SER814 

> <Gold.Protein.RotatedAtoms>
  150.8823  133.7355  159.2928 H   0  0  0  0  0  0  0  0  0  0  0  0  # atno 6907 bound_to 6896
  151.4932  135.1057  159.9819 H   0  0  0  0  0  0  0  0  0  0  0  0  # atno 6908 bound_to 6896
  152.4767  133.8110  159.7059 H   0  0  0  0  0  0  0  0  0  0  0  0  # atno 6909 bound_to 6896
  145.8932  140.8054  142.9781 H   0  0  0  0  0  0  0  0  0  0  0  0  # atno 7974 bound_to 7965
  154.4002  140.1493  156.3232 H   0  0  0  0  0  0  0  0  0  0  0  0  # atno 8008 bound_to 7997
  155.8511  140.3458  155.5672 H   0  0  0  0  0  0  0  0  0  0  0  0  # atno 8009 bound_to 7997
  155.7983  140.0866  157.1961 H   0  0  0  0  0  0  0  0  0  0  0  0  # atno 8010 bound_to 7997
  139.4866  144.5630  151.7197 H   0  0  0  0  0  0  0  0  0  0  0  0  # atno 10167 bound_to 10162
  156.0006  130.4698  150.4410 H   0  0  0  0  0  0  0  0  0  0  0  0  # atno 10718 bound_to 10713
  153.0180  135.6369  154.1616 H   0  0  0  0  0  0  0  0  0  0  0  0  # atno 10763 bound_to 10752
  154.1354  135.2838  155.3176 H   0  0  0  0  0  0  0  0  0  0  0  0  # atno 10764 bound_to 10752
  154.6164  135.5539  153.7589 H   0  0  0  0  0  0  0  0  0  0  0  0  # atno 10765 bound_to 10752
  140.5777  134.0042  155.8035 H   0  0  0  0  0  0  0  0  0  0  0  0  # atno 11005 bound_to 11000
  144.6731  140.1562  143.7426 LP  0  0  0  0  0  0  0  0  0  0  0  0  # atno 17320 bound_to 7965
  145.8883  139.2361  143.1565 LP  0  0  0  0  0  0  0  0  0  0  0  0  # atno 17321 bound_to 7965
  140.5203  144.0890  150.6020 LP  0  0  0  0  0  0  0  0  0  0  0  0  # atno 17342 bound_to 10162
  140.3845  143.2785  152.0132 LP  0  0  0  0  0  0  0  0  0  0  0  0  # atno 17343 bound_to 10162
  157.2451  131.0534  151.2413 LP  0  0  0  0  0  0  0  0  0  0  0  0  # atno 17370 bound_to 10713
  157.3583  130.7118  149.6485 LP  0  0  0  0  0  0  0  0  0  0  0  0  # atno 17371 bound_to 10713
  141.1016  133.9759  157.3069 LP  0  0  0  0  0  0  0  0  0  0  0  0  # atno 17394 bound_to 11000
  139.9332  135.0198  156.8468 LP  0  0  0  0  0  0  0  0  0  0  0  0  # atno 17395 bound_to 11000

$$$$
