AV-unprocessed.smi:1952|AV-procd|sdf|7888|dock9
  -GOLD-   2272010 43D 1   1.00000     0.00000
 Structure written by MMmdl.
 38 39  0  0  0  0  0  0  0  0  2 V2000
  145.3718  135.3789  160.9320 C   0  0  0  0  0  0  0  0  0  0  0  0
  146.7691  135.8588  160.7342 C   0  0  0  0  0  0  0  0  0  0  0  0
  147.6131  135.8394  159.6602 C   0  0  0  0  0  0  0  0  0  0  0  0
  148.7872  136.4678  160.1583 C   0  0  0  0  0  0  0  0  0  0  0  0
  149.9211  136.6773  159.4720 N   0  5  0  0  0  0  0  0  0  0  0  0
  150.0468  137.7680  158.6809 C   0  0  0  0  0  0  0  0  0  0  0  0
  149.1276  138.3890  158.1418 O   0  0  0  0  0  0  0  0  0  0  0  0
  151.3165  138.1622  158.5038 N   0  0  0  0  0  0  0  0  0  0  0  0
  151.7666  139.2902  157.6894 C   0  0  1  0  0  0  0  0  0  0  0  0
  151.4909  139.0073  156.2048 C   0  0  0  0  0  0  0  0  0  0  0  0
  151.0681  140.5856  158.1518 C   0  0  0  0  0  0  0  0  0  0  0  0
  151.9549  141.6600  158.6034 N   0  0  0  0  0  0  0  0  0  0  0  0
  151.2656  142.9391  158.7568 C   0  0  0  0  0  0  0  0  0  0  0  0
  152.2143  144.0451  159.2511 C   0  0  0  0  0  0  0  0  0  0  0  0
  152.8235  143.6440  160.4740 O   0  0  0  0  0  0  0  0  0  0  0  0
  153.5470  142.4241  160.3500 C   0  0  0  0  0  0  0  0  0  0  0  0
  152.6013  141.3126  159.8638 C   0  0  0  0  0  0  0  0  0  0  0  0
  148.6720  136.8209  161.4276 N   0  0  0  0  0  0  0  0  0  0  0  0
  147.3780  136.4406  161.8026 O   0  0  0  0  0  0  0  0  0  0  0  0
  145.2934  134.3163  160.7031 H   0  0  0  0  0  0  0  0  0  0  0  0
  144.6840  135.9175  160.2801 H   0  0  0  0  0  0  0  0  0  0  0  0
  145.0466  135.5272  161.9621 H   0  0  0  0  0  0  0  0  0  0  0  0
  147.4214  135.4439  158.6741 H   0  0  0  0  0  0  0  0  0  0  0  0
  152.0347  137.6199  158.9611 H   0  0  0  0  0  0  0  0  0  0  0  0
  152.8437  139.4172  157.8031 H   0  0  0  0  0  0  0  0  0  0  0  0
  151.8279  139.8342  155.5795 H   0  0  0  0  0  0  0  0  0  0  0  0
  150.4264  138.8612  156.0194 H   0  0  0  0  0  0  0  0  0  0  0  0
  152.0134  138.1098  155.8715 H   0  0  0  0  0  0  0  0  0  0  0  0
  150.4303  140.9557  157.3476 H   0  0  0  0  0  0  0  0  0  0  0  0
  150.3934  140.3257  158.9688 H   0  0  0  0  0  0  0  0  0  0  0  0
  150.8356  143.2541  157.8066 H   0  0  0  0  0  0  0  0  0  0  0  0
  150.4367  142.8319  159.4578 H   0  0  0  0  0  0  0  0  0  0  0  0
  152.9832  144.2536  158.5056 H   0  0  0  0  0  0  0  0  0  0  0  0
  151.6648  144.9725  159.4124 H   0  0  0  0  0  0  0  0  0  0  0  0
  154.3793  142.5543  159.6565 H   0  0  0  0  0  0  0  0  0  0  0  0
  153.9741  142.1628  161.3182 H   0  0  0  0  0  0  0  0  0  0  0  0
  151.8450  141.1233  160.6272 H   0  0  0  0  0  0  0  0  0  0  0  0
  153.1654  140.3865  159.7477 H   0  0  0  0  0  0  0  0  0  0  0  0
  1  2  1  0  0  0  0
  1 20  1  0  0  0  0
  1 21  1  0  0  0  0
  1 22  1  0  0  0  0
  2 19  1  0  0  0  0
  2  3  2  0  0  0  0
  3  4  1  0  0  0  0
  3 23  1  0  0  0  0
  4  5  1  0  0  0  0
  4 18  2  0  0  0  0
  5  6  1  0  0  0  0
  6  7  2  0  0  0  0
  6  8  1  0  0  0  0
  8  9  1  0  0  0  0
  8 24  1  0  0  0  0
  9 10  1  0  0  0  0
  9 11  1  0  0  0  0
  9 25  1  0  0  0  0
 10 26  1  0  0  0  0
 10 27  1  0  0  0  0
 10 28  1  0  0  0  0
 11 12  1  0  0  0  0
 11 29  1  0  0  0  0
 11 30  1  0  0  0  0
 12 17  1  0  0  0  0
 12 13  1  0  0  0  0
 13 14  1  0  0  0  0
 13 31  1  0  0  0  0
 13 32  1  0  0  0  0
 14 15  1  0  0  0  0
 14 33  1  0  0  0  0
 14 34  1  0  0  0  0
 15 16  1  0  0  0  0
 16 17  1  0  0  0  0
 16 35  1  0  0  0  0
 16 36  1  0  0  0  0
 17 37  1  0  0  0  0
 17 38  1  0  0  0  0
 18 19  1  0  0  0  0
M  CHG  1   5  -1
M  END
> <s_m_source_file>
AV-unprocessed.smi

> <i_m_source_file_index>
1952

> <i_lp_mmshare_version>
43012

> <i_f3d_flags>
0

> <s_epik_input>
W0NIM11jMVtjSF1jKG5vMSlbTkhdQyg9TylbTkhdW0NASF0oW0NIM10pW0NIMl1OMltDSDJdW0NIMl1PW0NIMl1bQ0gyXTI=

> <s_epik_cmdline>
J2VwaWtfcHl0aG9uJywgJy1waCcsICc3LjAnLCAnLXRuJywgJzgnLCAnLW1hJywgJzIwMCcsICctbWV0YWxfYmluZGluZycsICctaW1hZScsICc8aW5maWxlLm1hZT4nLCAnLW9tYWUnLCAnPG91dGZpbGUubWFlPic=

> <r_epik_Ionization_Penalty>
6.81701

> <r_epik_Ionization_Penalty_Charging>
6.50532

> <r_epik_Ionization_Penalty_Neutral>
0.311686

> <r_epik_State_Penalty>
6.70952

> <r_epik_Charging_Adjusted_Penalty>
13.2148

> <i_epik_Tot_Q>
-1

> <i_epik_Tot_abs_Q>
1

> <r_epik_Metal_State_Penalty>
2.64135

> <b_epik_Metal_Only>
1

> <s_lp_Force_Field>
OPLS_2005

> <r_lp_Energy>
19.0911

> <b_lp_Chiralities_Consistent>
1

> <s_lp_Variant>
AV-unprocessed.smi:1952-6

> <Gold.Version>
5.8.1

> <Gold.Id.Protein>
6NUR|6NUR_protein|mol2

> <Gold.PLP.Fitness>
34.1587

> <Gold.PLP.PLP>
-28.5227

> <Gold.PLP.part.hbond>
-2.1811

> <Gold.PLP.part.metal>
0.0000

> <Gold.PLP.part.buried>
-6.2878

> <Gold.PLP.part.nonpolar>
-21.1673

> <Gold.PLP.part.repulsive>
0.1186

> <Gold.PLP.ligand.clash>
0.0000

> <Gold.PLP.ligand.torsion>
1.7220

> <Gold.PLP.Chemscore.Hbond>
3.0000

> <Gold.PLP.Chemscore.CHOScore>
0.0000

> <Gold.PLP.Chemscore.Metal>
0.0000

> <Gold.Chemscore.Hbonds>
donor molecule, donor type, donor heavy atom, donor atom, acceptor molecule, acceptor atom, score
      P1  H  6896  6909       L1     5  2.00
      P1  H  6931  6943       L1    18  1.00

> <Gold.PLP.Chemscore.Internal.Correction>
0.0800

> <Gold.Rescore>
     Score         DG    S(hbond)    S(metal)    S(lipo)     H(rot)  DE(clash)    DE(int)     intcor
     12.51     -15.47       1.90        0.00      64.69       1.53       0.00       2.96       ----

> <Gold.Chemscore.Fitness>
12.5086

> <Gold.Chemscore.DG>
-15.4733

> <Gold.Chemscore.ZeroCoef>
-5.4800

> <Gold.Chemscore.Hbond>
1.9000

> <Gold.Chemscore.Metal>
0.0000

> <Gold.Chemscore.Lipo>
64.6888

> <Gold.Chemscore.Internal_Hbond>
0.0000

> <Gold.Chemscore.DEClash>
0.0038

> <Gold.Chemscore.DEInternal>
2.9609

> <Gold.Chemscore.Rot>
1.5317

> <Gold.Chemscore.Internal.Correction>
   9.000000E+99

> <Gold.Chemscore.Hbonds>
donor molecule, donor type, donor heavy atom, donor atom, acceptor molecule, acceptor atom, score
      P1  H  6896  6909       L1     5  0.28
      P1  H  6931  6943       L1    18  0.79

> <Gold.Chemscore.Hbond.Weighted>
-6.3459

> <Gold.Chemscore.Metal.Weighted>
-0.0000

> <Gold.Chemscore.Lipo.Weighted>
-7.5686

> <Gold.Chemscore.Internal_Hbond.Weighted>
0.0000

> <Gold.Chemscore.DEClash.Weighted>
0.0038

> <Gold.Chemscore.DEInternal.Weighted>
2.9609

> <Gold.Chemscore.Rot.Weighted>
3.9211

> <Gold.Chemscore.Internal.Correction.Weighted>
   9.000000E+99

> <Gold.Protein.RotatedTorsions>
[ 6907 6896 6895 6894 ] final   71.74 input  -60.11 | X-H torsion
[ 7974 7965 7964 7962 ] final   89.93 input  175.53 | X-H torsion
[ 8008 7997 7996 7995 ] final  136.81 input   59.86 | X-H torsion
[ 10167 10162 10161 10158 ] final -168.29 input  -65.29 | X-H torsion
[ 10718 10713 10712 10709 ] final  -56.55 input   66.30 | X-H torsion
[ 10763 10752 10751 10750 ] final  124.73 input  -60.55 | X-H torsion
[ 11005 11000 10999 10996 ] final -175.96 input  -57.11 | X-H torsion

> <Gold.Protein.ActiveResidues>
 VAL166  LYS551  ARG553  GLY616  TRP617  ASP618  TYR619  PRO620  LYS621  CYS622 
 ASP623  PHE694  ASN695  SER759  ASP760  ASP761  ALA762  ILE779  LEU786  VAL792 
 PHE793  MET794  SER795  GLU796  ALA797  LYS798  CYS799  TRP800  GLU811  SER814 

> <Gold.Protein.RotatedAtoms>
  152.4828  134.4675  159.9624 H   0  0  0  0  0  0  0  0  0  0  0  0  # atno 6907 bound_to 6896
  151.4677  133.3571  159.2826 H   0  0  0  0  0  0  0  0  0  0  0  0  # atno 6908 bound_to 6896
  150.8913  134.8342  159.7356 H   0  0  0  0  0  0  0  0  0  0  0  0  # atno 6909 bound_to 6896
  145.5258  139.2281  143.2646 H   0  0  0  0  0  0  0  0  0  0  0  0  # atno 7974 bound_to 7965
  156.3003  140.2435  156.3807 H   0  0  0  0  0  0  0  0  0  0  0  0  # atno 8008 bound_to 7997
  154.8704  140.0416  157.1740 H   0  0  0  0  0  0  0  0  0  0  0  0  # atno 8009 bound_to 7997
  154.8802  140.2948  155.5433 H   0  0  0  0  0  0  0  0  0  0  0  0  # atno 8010 bound_to 7997
  139.5995  144.1041  152.1726 H   0  0  0  0  0  0  0  0  0  0  0  0  # atno 10167 bound_to 10162
  156.1280  130.4161  150.0320 H   0  0  0  0  0  0  0  0  0  0  0  0  # atno 10718 bound_to 10713
  153.6660  135.3338  155.3140 H   0  0  0  0  0  0  0  0  0  0  0  0  # atno 10763 bound_to 10752
  154.8503  135.4375  154.1754 H   0  0  0  0  0  0  0  0  0  0  0  0  # atno 10764 bound_to 10752
  153.2733  135.7002  153.7534 H   0  0  0  0  0  0  0  0  0  0  0  0  # atno 10765 bound_to 10752
  140.4574  134.6286  157.4828 H   0  0  0  0  0  0  0  0  0  0  0  0  # atno 11005 bound_to 11000
  146.2076  140.6073  142.9074 LP  0  0  0  0  0  0  0  0  0  0  0  0  # atno 17320 bound_to 7965
  144.7652  140.5513  143.6708 LP  0  0  0  0  0  0  0  0  0  0  0  0  # atno 17321 bound_to 7965
  140.0634  144.5838  150.7246 LP  0  0  0  0  0  0  0  0  0  0  0  0  # atno 17342 bound_to 10162
  140.7238  143.2615  151.4189 LP  0  0  0  0  0  0  0  0  0  0  0  0  # atno 17343 bound_to 10162
  156.8240  130.9369  151.3640 LP  0  0  0  0  0  0  0  0  0  0  0  0  # atno 17370 bound_to 10713
  157.6460  130.8845  149.9539 LP  0  0  0  0  0  0  0  0  0  0  0  0  # atno 17371 bound_to 10713
  139.9967  134.6900  155.9598 LP  0  0  0  0  0  0  0  0  0  0  0  0  # atno 17394 bound_to 11000
  141.1636  133.6537  156.4404 LP  0  0  0  0  0  0  0  0  0  0  0  0  # atno 17395 bound_to 11000

$$$$
