AV-unprocessed.smi:2695|AV-procd|sdf|10412|dock2
  -GOLD-   2272014453D 1   1.00000     0.00000
 Structure written by MMmdl.
 42 43  0  0  0  0  0  0  0  0  1 V2000
  148.8400  141.5370  154.3144 C   0  0  0  0  0  0  0  0  0  0  0  0
  149.7858  140.4206  154.7384 C   0  0  0  0  0  0  0  0  0  0  0  0
  150.8887  140.7251  155.4609 C   0  0  0  0  0  0  0  0  0  0  0  0
  151.8446  139.6776  155.8593 C   0  0  0  0  0  0  0  0  0  0  0  0
  152.8365  139.9243  156.5423 O   0  0  0  0  0  0  0  0  0  0  0  0
  151.5415  138.3200  155.3854 C   0  0  0  0  0  0  0  0  0  0  0  0
  150.4172  138.1106  154.6737 C   0  0  0  0  0  0  0  0  0  0  0  0
  150.1071  136.8928  154.2027 O   0  0  0  0  0  0  0  0  0  0  0  0
  149.4724  139.1014  154.3401 N   0  0  0  0  0  0  0  0  0  0  0  0
  148.2278  138.7737  153.6208 C   0  0  0  0  0  0  0  0  0  0  0  0
  147.2765  137.8773  154.4265 C   0  0  0  0  0  0  0  0  0  0  0  0
  146.6329  138.3269  155.3755 O   0  0  0  0  0  0  0  0  0  0  0  0
  147.2098  136.5976  154.0297 N   0  0  0  0  0  0  0  0  0  0  0  0
  146.3789  135.5519  154.6294 C   0  0  1  0  0  0  0  0  0  0  0  0
  145.3230  135.0878  153.5942 C   0  0  0  0  0  0  0  0  0  0  0  0
  145.9144  134.6413  152.2507 C   0  0  0  0  0  0  0  0  0  0  0  0
  144.7278  134.6461  151.2874 C   0  0  0  0  0  0  0  0  0  0  0  0
  143.7897  135.7499  151.7917 C   0  0  0  0  0  0  0  0  0  0  0  0
  144.3059  136.1606  153.1781 C   0  0  0  0  0  0  0  0  0  0  0  0
  147.2912  134.4156  155.1475 C   0  0  0  0  0  0  0  0  0  0  0  0
  148.0146  134.8485  156.1809 F   0  0  0  0  0  0  0  0  0  0  0  0
  146.5695  133.3765  155.5653 F   0  0  0  0  0  0  0  0  0  0  0  0
  148.1218  134.0065  154.1877 F   0  0  0  0  0  0  0  0  0  0  0  0
  149.3175  142.5117  154.4188 H   0  0  0  0  0  0  0  0  0  0  0  0
  147.9467  141.5373  154.9393 H   0  0  0  0  0  0  0  0  0  0  0  0
  148.5424  141.4438  153.2702 H   0  0  0  0  0  0  0  0  0  0  0  0
  151.1022  141.7438  155.7508 H   0  0  0  0  0  0  0  0  0  0  0  0
  152.2319  137.5200  155.6105 H   0  0  0  0  0  0  0  0  0  0  0  0
  147.6997  139.6851  153.3373 H   0  0  0  0  0  0  0  0  0  0  0  0
  148.4358  138.2932  152.6657 H   0  0  0  0  0  0  0  0  0  0  0  0
  147.7819  136.3196  153.2456 H   0  0  0  0  0  0  0  0  0  0  0  0
  145.8409  135.9622  155.4858 H   0  0  0  0  0  0  0  0  0  0  0  0
  144.7699  134.2426  154.0076 H   0  0  0  0  0  0  0  0  0  0  0  0
  146.6619  135.3615  151.9144 H   0  0  0  0  0  0  0  0  0  0  0  0
  146.3963  133.6645  152.3031 H   0  0  0  0  0  0  0  0  0  0  0  0
  145.0369  134.8019  150.2534 H   0  0  0  0  0  0  0  0  0  0  0  0
  144.2162  133.6840  151.3349 H   0  0  0  0  0  0  0  0  0  0  0  0
  143.7895  136.6061  151.1162 H   0  0  0  0  0  0  0  0  0  0  0  0
  142.7653  135.3802  151.8475 H   0  0  0  0  0  0  0  0  0  0  0  0
  143.4934  136.2599  153.8984 H   0  0  0  0  0  0  0  0  0  0  0  0
  144.7977  137.1316  153.1032 H   0  0  0  0  0  0  0  0  0  0  0  0
  149.6265  137.0130  153.3978 H   0  0  0  0  0  0  0  0  0  0  0  0
  1  2  1  0  0  0  0
  1 24  1  0  0  0  0
  1 25  1  0  0  0  0
  1 26  1  0  0  0  0
  2  9  1  0  0  0  0
  2  3  2  0  0  0  0
  3  4  1  0  0  0  0
  3 27  1  0  0  0  0
  4  5  2  0  0  0  0
  4  6  1  0  0  0  0
  6  7  2  0  0  0  0
  6 28  1  0  0  0  0
  7  8  1  0  0  0  0
  7  9  1  0  0  0  0
  8 42  1  0  0  0  0
  9 10  1  0  0  0  0
 10 11  1  0  0  0  0
 10 29  1  0  0  0  0
 10 30  1  0  0  0  0
 11 12  2  0  0  0  0
 11 13  1  0  0  0  0
 13 14  1  0  0  0  0
 13 31  1  0  0  0  0
 14 15  1  0  0  0  0
 14 20  1  0  0  0  0
 14 32  1  0  0  0  0
 15 19  1  0  0  0  0
 15 16  1  0  0  0  0
 15 33  1  0  0  0  0
 16 17  1  0  0  0  0
 16 34  1  0  0  0  0
 16 35  1  0  0  0  0
 17 18  1  0  0  0  0
 17 36  1  0  0  0  0
 17 37  1  0  0  0  0
 18 19  1  0  0  0  0
 18 38  1  0  0  0  0
 18 39  1  0  0  0  0
 19 40  1  0  0  0  0
 19 41  1  0  0  0  0
 20 21  1  0  0  0  0
 20 22  1  0  0  0  0
 20 23  1  0  0  0  0
M  END
> <s_m_source_file>
AV-unprocessed.smi

> <i_m_source_file_index>
2695

> <i_lp_mmshare_version>
43012

> <i_f3d_flags>
0

> <s_epik_input>
W0NIM11jMVtjSF1jKFtPSF0pW2NIXWMoPU8pbjFbQ0gyXUMoPU8pW05IXVtDQEBIXShDKEYpKEYpRilbQ0hdMltDSDJdW0NIMl1bQ0gyXVtDSDJdMg==

> <s_epik_cmdline>
J2VwaWtfcHl0aG9uJywgJy1waCcsICc3LjAnLCAnLXRuJywgJzgnLCAnLW1hJywgJzIwMCcsICctbWV0YWxfYmluZGluZycsICctaW1hZScsICc8aW5maWxlLm1hZT4nLCAnLW9tYWUnLCAnPG91dGZpbGUubWFlPic=

> <r_epik_Ionization_Penalty>
1.35977e-07

> <r_epik_Ionization_Penalty_Charging>
0

> <r_epik_Ionization_Penalty_Neutral>
1.35977e-07

> <r_epik_State_Penalty>
2.53185

> <r_epik_Charging_Adjusted_Penalty>
2.53185

> <i_epik_Tot_Q>
0

> <i_epik_Tot_abs_Q>
0

> <r_epik_Metal_State_Penalty>
2.53184

> <b_epik_Metal_Only>
0

> <s_lp_Force_Field>
OPLS_2005

> <r_lp_Energy>
25.7414

> <b_lp_Chiralities_Consistent>
1

> <s_lp_Variant>
AV-unprocessed.smi:2695-6

> <Gold.Version>
5.8.1

> <Gold.Id.Protein>
6NUR|6NUR_protein|mol2

> <Gold.PLP.Fitness>
40.0484

> <Gold.PLP.PLP>
-31.6183

> <Gold.PLP.part.hbond>
-4.0000

> <Gold.PLP.part.metal>
0.0000

> <Gold.PLP.part.buried>
2.5612

> <Gold.PLP.part.nonpolar>
-28.9498

> <Gold.PLP.part.repulsive>
0.0364

> <Gold.PLP.ligand.clash>
0.0000

> <Gold.PLP.ligand.torsion>
0.3628

> <Gold.PLP.Chemscore.Hbond>
2.9440

> <Gold.PLP.Chemscore.CHOScore>
0.0000

> <Gold.PLP.Chemscore.Metal>
0.0000

> <Gold.Chemscore.Hbonds>
donor molecule, donor type, donor heavy atom, donor atom, acceptor molecule, acceptor atom, score
      L1  H     8    42       P1  7948  0.93
      L1  H    13    31       P1  7948  1.00
      P1  H  7997  8008       L1     5  1.00

> <Gold.PLP.Chemscore.Internal.Correction>
0.3236

> <Gold.Rescore>
     Score         DG    S(hbond)    S(metal)    S(lipo)     H(rot)  DE(clash)    DE(int)     intcor
     12.82     -14.72       2.63        0.00      57.42       2.45       0.37       1.53       ----

> <Gold.Chemscore.Fitness>
12.8192

> <Gold.Chemscore.DG>
-14.7202

> <Gold.Chemscore.ZeroCoef>
-5.4800

> <Gold.Chemscore.Hbond>
2.6340

> <Gold.Chemscore.Metal>
0.0000

> <Gold.Chemscore.Lipo>
57.4188

> <Gold.Chemscore.Internal_Hbond>
0.0000

> <Gold.Chemscore.DEClash>
0.3726

> <Gold.Chemscore.DEInternal>
1.5284

> <Gold.Chemscore.Rot>
2.4512

> <Gold.Chemscore.Internal.Correction>
   9.000000E+99

> <Gold.Chemscore.Hbonds>
donor molecule, donor type, donor heavy atom, donor atom, acceptor molecule, acceptor atom, score
      L1  H     8    42       P1  7948  0.63
      L1  H    13    31       P1  7948  1.00
      P1  H  7997  8008       L1     5  0.93

> <Gold.Chemscore.Hbond.Weighted>
-8.7974

> <Gold.Chemscore.Metal.Weighted>
-0.0000

> <Gold.Chemscore.Lipo.Weighted>
-6.7180

> <Gold.Chemscore.Internal_Hbond.Weighted>
0.0000

> <Gold.Chemscore.DEClash.Weighted>
0.3726

> <Gold.Chemscore.DEInternal.Weighted>
1.5284

> <Gold.Chemscore.Rot.Weighted>
6.2752

> <Gold.Chemscore.Internal.Correction.Weighted>
   9.000000E+99

> <Gold.Protein.RotatedTorsions>
[ 6907 6896 6895 6894 ] final  167.46 input  -60.11 | X-H torsion
[ 7974 7965 7964 7962 ] final  -13.55 input  175.53 | X-H torsion
[ 8008 7997 7996 7995 ] final  -62.76 input   59.86 | X-H torsion
[ 10167 10162 10161 10158 ] final -108.65 input  -65.29 | X-H torsion
[ 10718 10713 10712 10709 ] final  117.44 input   66.30 | X-H torsion
[ 10763 10752 10751 10750 ] final   95.05 input  -60.55 | X-H torsion
[ 11005 11000 10999 10996 ] final -139.45 input  -57.11 | X-H torsion

> <Gold.Protein.ActiveResidues>
 VAL166  LYS551  ARG553  GLY616  TRP617  ASP618  TYR619  PRO620  LYS621  CYS622 
 ASP623  PHE694  ASN695  SER759  ASP760  ASP761  ALA762  ILE779  LEU786  VAL792 
 PHE793  MET794  SER795  GLU796  ALA797  LYS798  CYS799  TRP800  GLU811  SER814 

> <Gold.Protein.RotatedAtoms>
  151.8629  133.3460  159.3709 H   0  0  0  0  0  0  0  0  0  0  0  0  # atno 6907 bound_to 6896
  150.7174  134.5188  159.5653 H   0  0  0  0  0  0  0  0  0  0  0  0  # atno 6908 bound_to 6896
  152.2705  134.7938  160.0466 H   0  0  0  0  0  0  0  0  0  0  0  0  # atno 6909 bound_to 6896
  146.2109  140.3220  142.8391 H   0  0  0  0  0  0  0  0  0  0  0  0  # atno 7974 bound_to 7965
  154.4517  140.0989  156.6637 H   0  0  0  0  0  0  0  0  0  0  0  0  # atno 8008 bound_to 7997
  155.5265  140.3480  155.4399 H   0  0  0  0  0  0  0  0  0  0  0  0  # atno 8009 bound_to 7997
  156.0694  140.1346  156.9836 H   0  0  0  0  0  0  0  0  0  0  0  0  # atno 8010 bound_to 7997
  140.1639  143.4098  152.1405 H   0  0  0  0  0  0  0  0  0  0  0  0  # atno 10167 bound_to 10162
  157.6096  131.1037  150.7615 H   0  0  0  0  0  0  0  0  0  0  0  0  # atno 10718 bound_to 10713
  153.2487  135.4267  155.0775 H   0  0  0  0  0  0  0  0  0  0  0  0  # atno 10763 bound_to 10752
  154.8372  135.3420  154.6543 H   0  0  0  0  0  0  0  0  0  0  0  0  # atno 10764 bound_to 10752
  153.6965  135.7031  153.5132 H   0  0  0  0  0  0  0  0  0  0  0  0  # atno 10765 bound_to 10752
  140.8518  134.2276  157.4756 H   0  0  0  0  0  0  0  0  0  0  0  0  # atno 11005 bound_to 11000
  144.8913  140.7527  143.5925 LP  0  0  0  0  0  0  0  0  0  0  0  0  # atno 17320 bound_to 7965
  145.3143  139.1808  143.4622 LP  0  0  0  0  0  0  0  0  0  0  0  0  # atno 17321 bound_to 7965
  139.5368  144.7218  151.4865 LP  0  0  0  0  0  0  0  0  0  0  0  0  # atno 17342 bound_to 10162
  140.6625  143.8467  150.6904 LP  0  0  0  0  0  0  0  0  0  0  0  0  # atno 17343 bound_to 10162
  156.7995  130.4916  149.5372 LP  0  0  0  0  0  0  0  0  0  0  0  0  # atno 17370 bound_to 10713
  156.1194  130.6099  151.0171 LP  0  0  0  0  0  0  0  0  0  0  0  0  # atno 17371 bound_to 10713
  139.8704  134.9687  156.4640 LP  0  0  0  0  0  0  0  0  0  0  0  0  # atno 17394 bound_to 11000
  140.8781  133.7938  155.9437 LP  0  0  0  0  0  0  0  0  0  0  0  0  # atno 17395 bound_to 11000

$$$$
