AV-unprocessed.smi:2757|AV-procd|sdf|10621|dock5
  -GOLD-   2272015 63D 1   1.00000     0.00000
 Structure written by MMmdl.
 32 33  0  0  0  0  0  0  0  0  2 V2000
  154.0278  141.6030  161.2707 C   0  0  0  0  0  0  0  0  0  0  0  0
  153.1398  141.7049  160.1231 N   0  0  0  0  0  0  0  0  0  0  0  0
  153.1673  140.8743  159.0703 C   0  0  0  0  0  0  0  0  0  0  0  0
  153.9554  139.9341  158.9623 O   0  0  0  0  0  0  0  0  0  0  0  0
  152.1421  141.1556  158.0113 C   0  0  0  0  0  0  0  0  0  0  0  0
  151.4793  142.4167  157.9538 C   0  0  0  0  0  0  0  0  0  0  0  0
  150.6432  142.3009  156.8808 C   0  0  0  0  0  0  0  0  0  0  0  0
  150.8191  141.0386  156.3537 N   0  0  0  0  0  0  0  0  0  0  0  0
  150.1513  140.4430  155.2063 C   0  0  1  0  0  0  0  0  0  0  0  0
  149.5362  139.0716  155.5530 C   0  0  0  0  0  0  0  0  0  0  0  0
  148.8244  138.4811  154.3264 C   0  0  0  0  0  0  0  0  0  0  0  0
  147.7858  139.4676  153.7659 C   0  0  0  0  0  0  0  0  0  0  0  0
  148.4142  140.7702  153.4538 N   0  3  0  0  0  0  0  0  0  0  0  0
  149.0775  141.3868  154.6240 C   0  0  0  0  0  0  0  0  0  0  0  0
  151.7362  140.3328  157.0527 N   0  0  0  0  0  0  0  0  0  0  0  0
  153.8259  142.4140  161.9705 H   0  0  0  0  0  0  0  0  0  0  0  0
  155.0721  141.6700  160.9627 H   0  0  0  0  0  0  0  0  0  0  0  0
  153.8782  140.6570  161.7925 H   0  0  0  0  0  0  0  0  0  0  0  0
  152.4547  142.4466  160.1283 H   0  0  0  0  0  0  0  0  0  0  0  0
  151.6000  143.2754  158.5980 H   0  0  0  0  0  0  0  0  0  0  0  0
  149.9459  143.0066  156.4537 H   0  0  0  0  0  0  0  0  0  0  0  0
  150.9130  140.2856  154.4406 H   0  0  0  0  0  0  0  0  0  0  0  0
  150.3104  138.3868  155.9005 H   0  0  0  0  0  0  0  0  0  0  0  0
  148.8200  139.1727  156.3696 H   0  0  0  0  0  0  0  0  0  0  0  0
  149.5590  138.2429  153.5560 H   0  0  0  0  0  0  0  0  0  0  0  0
  148.3402  137.5413  154.5936 H   0  0  0  0  0  0  0  0  0  0  0  0
  147.3314  139.0649  152.8603 H   0  0  0  0  0  0  0  0  0  0  0  0
  146.9811  139.6214  154.4860 H   0  0  0  0  0  0  0  0  0  0  0  0
  149.1048  140.6291  152.7303 H   0  0  0  0  0  0  0  0  0  0  0  0
  148.3203  141.6242  155.3727 H   0  0  0  0  0  0  0  0  0  0  0  0
  149.5278  142.3312  154.3166 H   0  0  0  0  0  0  0  0  0  0  0  0
  147.7054  141.4016  153.1088 H   0  0  0  0  0  0  0  0  0  0  0  0
  1  2  1  0  0  0  0
  1 16  1  0  0  0  0
  1 17  1  0  0  0  0
  1 18  1  0  0  0  0
  2  3  1  0  0  0  0
  2 19  1  0  0  0  0
  3  4  2  0  0  0  0
  3  5  1  0  0  0  0
  5 15  2  0  0  0  0
  5  6  1  0  0  0  0
  6  7  2  0  0  0  0
  6 20  1  0  0  0  0
  7  8  1  0  0  0  0
  7 21  1  0  0  0  0
  8  9  1  0  0  0  0
  8 15  1  0  0  0  0
  9 14  1  0  0  0  0
  9 10  1  0  0  0  0
  9 22  1  0  0  0  0
 10 11  1  0  0  0  0
 10 23  1  0  0  0  0
 10 24  1  0  0  0  0
 11 12  1  0  0  0  0
 11 25  1  0  0  0  0
 11 26  1  0  0  0  0
 12 13  1  0  0  0  0
 12 27  1  0  0  0  0
 12 28  1  0  0  0  0
 13 14  1  0  0  0  0
 13 29  1  0  0  0  0
 13 32  1  0  0  0  0
 14 30  1  0  0  0  0
 14 31  1  0  0  0  0
M  CHG  1  13   1
M  END
> <s_m_source_file>
AV-unprocessed.smi

> <i_m_source_file_index>
2757

> <i_lp_mmshare_version>
43012

> <i_f3d_flags>
0

> <s_epik_input>
W0NIM11bTkhdQyg9TyljMVtjSF1bY0hdbihuMSlbQ0BASF0yW0NIMl1bQ0gyXVtDSDJdW05IXVtDSDJdMg==

> <s_epik_cmdline>
J2VwaWtfcHl0aG9uJywgJy1waCcsICc3LjAnLCAnLXRuJywgJzgnLCAnLW1hJywgJzIwMCcsICctbWV0YWxfYmluZGluZycsICctaW1hZScsICc8aW5maWxlLm1hZT4nLCAnLW9tYWUnLCAnPG91dGZpbGUubWFlPic=

> <r_lp_tautomer_probability>
1

> <r_epik_Ionization_Penalty>
0.000652722

> <r_epik_Ionization_Penalty_Charging>
0.000651447

> <r_epik_Ionization_Penalty_Neutral>
1.27533e-06

> <r_epik_State_Penalty>
0.000412577

> <r_epik_Charging_Adjusted_Penalty>
0.00106402

> <i_epik_Tot_Q>
1

> <i_epik_Tot_abs_Q>
1

> <r_epik_Metal_State_Penalty>
-0

> <b_epik_Metal_Only>
0

> <s_lp_Force_Field>
OPLS_2005

> <r_lp_Energy>
20.0976

> <b_lp_Chiralities_Consistent>
1

> <s_lp_Variant>
AV-unprocessed.smi:2757-2

> <Gold.Version>
5.8.1

> <Gold.Id.Protein>
6NUR|6NUR_protein|mol2

> <Gold.PLP.Fitness>
34.8323

> <Gold.PLP.PLP>
-26.2342

> <Gold.PLP.part.hbond>
-2.0000

> <Gold.PLP.part.metal>
0.0000

> <Gold.PLP.part.buried>
-3.2044

> <Gold.PLP.part.nonpolar>
-21.4051

> <Gold.PLP.part.repulsive>
0.2422

> <Gold.PLP.ligand.clash>
0.0000

> <Gold.PLP.ligand.torsion>
0.2104

> <Gold.PLP.Chemscore.Hbond>
2.0000

> <Gold.PLP.Chemscore.CHOScore>
1.0000

> <Gold.PLP.Chemscore.Metal>
0.0000

> <Gold.Chemscore.Hbonds>
donor molecule, donor type, donor heavy atom, donor atom, acceptor molecule, acceptor atom, score
      L1  H    13    29       P1  7957  1.00
      P1  H  7997  8008       L1     4  1.00
      L1  C     7    21       P1  8028  1.00

> <Gold.PLP.Chemscore.Internal.Correction>
0.0189

> <Gold.Rescore>
     Score         DG    S(hbond)    S(metal)    S(lipo)     H(rot)  DE(clash)    DE(int)     intcor
     15.14     -16.30       1.85        0.00      61.68       1.00       0.88       0.28       ----

> <Gold.Chemscore.Fitness>
15.1369

> <Gold.Chemscore.DG>
-16.3005

> <Gold.Chemscore.ZeroCoef>
-5.4800

> <Gold.Chemscore.Hbond>
1.8454

> <Gold.Chemscore.Metal>
0.0000

> <Gold.Chemscore.Lipo>
61.6835

> <Gold.Chemscore.Internal_Hbond>
0.0000

> <Gold.Chemscore.DEClash>
0.8796

> <Gold.Chemscore.DEInternal>
0.2840

> <Gold.Chemscore.Rot>
1.0000

> <Gold.Chemscore.Internal.Correction>
   9.000000E+99

> <Gold.Chemscore.Hbonds>
donor molecule, donor type, donor heavy atom, donor atom, acceptor molecule, acceptor atom, score
      L1  H    13    29       P1  7957  0.96
      P1  H  7997  8008       L1     4  0.63

> <Gold.Chemscore.Hbond.Weighted>
-6.1635

> <Gold.Chemscore.Metal.Weighted>
-0.0000

> <Gold.Chemscore.Lipo.Weighted>
-7.2170

> <Gold.Chemscore.Internal_Hbond.Weighted>
0.0000

> <Gold.Chemscore.DEClash.Weighted>
0.8796

> <Gold.Chemscore.DEInternal.Weighted>
0.2840

> <Gold.Chemscore.Rot.Weighted>
2.5600

> <Gold.Chemscore.Internal.Correction.Weighted>
   9.000000E+99

> <Gold.Protein.RotatedTorsions>
[ 6907 6896 6895 6894 ] final -161.10 input  -60.11 | X-H torsion
[ 7974 7965 7964 7962 ] final  137.47 input  175.53 | X-H torsion
[ 8008 7997 7996 7995 ] final -101.09 input   59.86 | X-H torsion
[ 10167 10162 10161 10158 ] final   21.68 input  -65.29 | X-H torsion
[ 10718 10713 10712 10709 ] final -154.83 input   66.30 | X-H torsion
[ 10763 10752 10751 10750 ] final   63.47 input  -60.55 | X-H torsion
[ 11005 11000 10999 10996 ] final -113.51 input  -57.11 | X-H torsion

> <Gold.Protein.ActiveResidues>
 VAL166  LYS551  ARG553  GLY616  TRP617  ASP618  TYR619  PRO620  LYS621  CYS622 
 ASP623  PHE694  ASN695  SER759  ASP760  ASP761  ALA762  ILE779  LEU786  VAL792 
 PHE793  MET794  SER795  GLU796  ALA797  LYS798  CYS799  TRP800  GLU811  SER814 

> <Gold.Protein.RotatedAtoms>
  151.3593  133.3895  159.2687 H   0  0  0  0  0  0  0  0  0  0  0  0  # atno 6907 bound_to 6896
  150.9738  134.9107  159.7814 H   0  0  0  0  0  0  0  0  0  0  0  0  # atno 6908 bound_to 6896
  152.5194  134.3556  159.9319 H   0  0  0  0  0  0  0  0  0  0  0  0  # atno 6909 bound_to 6896
  144.9464  139.4869  143.5547 H   0  0  0  0  0  0  0  0  0  0  0  0  # atno 7974 bound_to 7965
  154.8376  140.0436  157.1520 H   0  0  0  0  0  0  0  0  0  0  0  0  # atno 8008 bound_to 7997
  154.9082  140.3010  155.5260 H   0  0  0  0  0  0  0  0  0  0  0  0  # atno 8009 bound_to 7997
  156.2990  140.2363  156.4118 H   0  0  0  0  0  0  0  0  0  0  0  0  # atno 8010 bound_to 7997
  140.5407  143.9681  150.6518 H   0  0  0  0  0  0  0  0  0  0  0  0  # atno 10167 bound_to 10162
  156.5046  130.8407  151.2623 H   0  0  0  0  0  0  0  0  0  0  0  0  # atno 10718 bound_to 10713
  153.0019  135.5428  154.6357 H   0  0  0  0  0  0  0  0  0  0  0  0  # atno 10763 bound_to 10752
  154.5624  135.2835  155.0908 H   0  0  0  0  0  0  0  0  0  0  0  0  # atno 10764 bound_to 10752
  154.2106  135.6468  153.5166 H   0  0  0  0  0  0  0  0  0  0  0  0  # atno 10765 bound_to 10752
  141.0610  133.9536  157.2667 H   0  0  0  0  0  0  0  0  0  0  0  0  # atno 11005 bound_to 11000
  146.3305  139.8520  142.8871 LP  0  0  0  0  0  0  0  0  0  0  0  0  # atno 17320 bound_to 7965
  145.2911  141.0167  143.3662 LP  0  0  0  0  0  0  0  0  0  0  0  0  # atno 17321 bound_to 7965
  140.3081  143.3216  152.0906 LP  0  0  0  0  0  0  0  0  0  0  0  0  # atno 17342 bound_to 10162
  139.4988  144.6654  151.6369 LP  0  0  0  0  0  0  0  0  0  0  0  0  # atno 17343 bound_to 10162
  157.7458  130.9970  150.2800 LP  0  0  0  0  0  0  0  0  0  0  0  0  # atno 17370 bound_to 10713
  156.3299  130.3799  149.7500 LP  0  0  0  0  0  0  0  0  0  0  0  0  # atno 17371 bound_to 10713
  139.9432  135.0188  156.8773 LP  0  0  0  0  0  0  0  0  0  0  0  0  # atno 17394 bound_to 11000
  140.5869  134.0299  155.7485 LP  0  0  0  0  0  0  0  0  0  0  0  0  # atno 17395 bound_to 11000

$$$$
