AV-unprocessed.smi:1898|AV-procd|sdf|7703|dock7
  -GOLD-   22720 9443D 1   1.00000     0.00000
 Structure written by MMmdl.
 46 47  0  0  0  0  0  0  0  0  3 V2000
  155.1880  130.2670  155.4175 C   0  0  0  0  0  0  0  0  0  0  0  0
  153.9057  130.6910  155.9670 N   0  5  0  0  0  0  0  0  0  0  0  0
  152.7541  129.9840  155.8143 C   0  0  0  0  0  0  0  0  0  0  0  0
  152.5213  128.9494  155.1802 O   0  0  0  0  0  0  0  0  0  0  0  0
  151.6055  130.6192  156.6061 C   0  0  0  0  0  0  0  0  0  0  0  0
  151.1811  131.8839  155.9563 N   0  3  2  0  0  0  0  0  0  0  0  0
  150.7112  132.8947  156.9368 C   0  0  0  0  0  0  0  0  0  0  0  0
  150.4293  134.2422  156.2515 C   0  0  0  0  0  0  0  0  0  0  0  0
  149.4110  134.0860  155.1107 C   0  0  1  0  0  0  0  0  0  0  0  0
  149.2433  135.3609  154.4193 N   0  0  0  0  0  0  0  0  0  0  0  0
  149.0490  136.5452  155.0166 C   0  0  0  0  0  0  0  0  0  0  0  0
  149.0140  136.6886  156.2381 O   0  0  0  0  0  0  0  0  0  0  0  0
  148.9111  137.5259  154.1079 N   0  0  0  0  0  0  0  0  0  0  0  0
  148.6724  138.9156  154.3051 C   0  0  0  0  0  0  0  0  0  0  0  0
  149.2705  139.6896  155.3300 C   0  0  0  0  0  0  0  0  0  0  0  0
  148.9441  141.0543  155.4350 C   0  0  0  0  0  0  0  0  0  0  0  0
  148.0278  141.5975  154.5166 C   0  0  0  0  0  0  0  0  0  0  0  0
  147.4421  140.8724  153.5422 N   0  0  0  0  0  0  0  0  0  0  0  0
  147.7545  139.5561  153.4391 C   0  0  0  0  0  0  0  0  0  0  0  0
  147.1472  138.8138  152.4438 O   0  0  0  0  0  0  0  0  0  0  0  0
  146.7759  139.4702  151.2365 C   0  0  0  0  0  0  0  0  0  0  0  0
  149.8930  132.9982  154.1333 C   0  0  0  0  0  0  0  0  0  0  0  0
  150.1894  131.6798  154.8663 C   0  0  0  0  0  0  0  0  0  0  0  0
  155.9766  130.9901  155.6234 H   0  0  0  0  0  0  0  0  0  0  0  0
  155.1573  130.1430  154.3346 H   0  0  0  0  0  0  0  0  0  0  0  0
  155.5240  129.3171  155.8345 H   0  0  0  0  0  0  0  0  0  0  0  0
  150.7532  129.9480  156.7354 H   0  0  0  0  0  0  0  0  0  0  0  0
  151.9891  130.8234  157.6067 H   0  0  0  0  0  0  0  0  0  0  0  0
  149.8132  132.5280  157.4366 H   0  0  0  0  0  0  0  0  0  0  0  0
  151.4681  133.0398  157.7086 H   0  0  0  0  0  0  0  0  0  0  0  0
  150.0606  134.9585  156.9867 H   0  0  0  0  0  0  0  0  0  0  0  0
  151.3636  134.6508  155.8628 H   0  0  0  0  0  0  0  0  0  0  0  0
  148.4562  133.7804  155.5435 H   0  0  0  0  0  0  0  0  0  0  0  0
  149.2644  135.3379  153.4101 H   0  0  0  0  0  0  0  0  0  0  0  0
  149.0237  137.2500  153.1433 H   0  0  0  0  0  0  0  0  0  0  0  0
  149.9604  139.2714  156.0450 H   0  0  0  0  0  0  0  0  0  0  0  0
  149.3843  141.6695  156.2057 H   0  0  0  0  0  0  0  0  0  0  0  0
  147.7539  142.6410  154.5683 H   0  0  0  0  0  0  0  0  0  0  0  0
  146.3101  138.7503  150.5639 H   0  0  0  0  0  0  0  0  0  0  0  0
  147.6443  139.8870  150.7242 H   0  0  0  0  0  0  0  0  0  0  0  0
  146.0522  140.2655  151.4210 H   0  0  0  0  0  0  0  0  0  0  0  0
  149.1426  132.8258  153.3608 H   0  0  0  0  0  0  0  0  0  0  0  0
  150.7945  133.3344  153.6186 H   0  0  0  0  0  0  0  0  0  0  0  0
  150.5628  130.9522  154.1454 H   0  0  0  0  0  0  0  0  0  0  0  0
  149.2695  131.2660  155.2822 H   0  0  0  0  0  0  0  0  0  0  0  0
  152.0140  132.2645  155.5302 H   0  0  0  0  0  0  0  0  0  0  0  0
  1  2  1  0  0  0  0
  1 24  1  0  0  0  0
  1 25  1  0  0  0  0
  1 26  1  0  0  0  0
  2  3  1  0  0  0  0
  3  4  2  0  0  0  0
  3  5  1  0  0  0  0
  5  6  1  0  0  0  0
  5 27  1  0  0  0  0
  5 28  1  0  0  0  0
  6 23  1  0  0  0  0
  6  7  1  0  0  0  0
  6 46  1  0  0  0  0
  7  8  1  0  0  0  0
  7 29  1  0  0  0  0
  7 30  1  0  0  0  0
  8  9  1  0  0  0  0
  8 31  1  0  0  0  0
  8 32  1  0  0  0  0
  9 10  1  0  0  0  0
  9 22  1  0  0  0  0
  9 33  1  0  0  0  0
 10 11  1  0  0  0  0
 10 34  1  0  0  0  0
 11 12  2  0  0  0  0
 11 13  1  0  0  0  0
 13 14  1  0  0  0  0
 13 35  1  0  0  0  0
 14 19  1  0  0  0  0
 14 15  2  0  0  0  0
 15 16  1  0  0  0  0
 15 36  1  0  0  0  0
 16 17  2  0  0  0  0
 16 37  1  0  0  0  0
 17 18  1  0  0  0  0
 17 38  1  0  0  0  0
 18 19  2  0  0  0  0
 19 20  1  0  0  0  0
 20 21  1  0  0  0  0
 21 39  1  0  0  0  0
 21 40  1  0  0  0  0
 21 41  1  0  0  0  0
 22 23  1  0  0  0  0
 22 42  1  0  0  0  0
 22 43  1  0  0  0  0
 23 44  1  0  0  0  0
 23 45  1  0  0  0  0
M  CHG  1   2  -1
M  CHG  1   6   1
M  END
> <s_m_source_file>
AV-unprocessed.smi

> <i_m_source_file_index>
1898

> <i_lp_mmshare_version>
43012

> <i_f3d_flags>
0

> <s_epik_input>
W0NIM11bTkhdQyg9TylbQ0gyXU4xW0NIMl1bQ0gyXVtDSF0oW0NIMl1bQ0gyXTEpW05IXUMoPU8pW05IXWMyW2NIXVtjSF1bY0hdbmMyT1tDSDNd

> <s_epik_cmdline>
J2VwaWtfcHl0aG9uJywgJy1waCcsICc3LjAnLCAnLXRuJywgJzgnLCAnLW1hJywgJzIwMCcsICctbWV0YWxfYmluZGluZycsICctaW1hZScsICc8aW5maWxlLm1hZT4nLCAnLW9tYWUnLCAnPG91dGZpbGUubWFlPic=

> <r_lp_tautomer_probability>
1

> <r_epik_Ionization_Penalty>
6.13954

> <r_epik_Ionization_Penalty_Charging>
6.13946

> <r_epik_Ionization_Penalty_Neutral>
7.84403e-05

> <r_epik_State_Penalty>
6.9595

> <r_epik_Charging_Adjusted_Penalty>
13.099

> <i_epik_Tot_Q>
0

> <i_epik_Tot_abs_Q>
2

> <r_epik_Metal_State_Penalty>
2.89145

> <b_epik_Metal_Only>
1

> <s_lp_Force_Field>
OPLS_2005

> <r_lp_Energy>
12.3689

> <b_lp_Chiralities_Consistent>
1

> <s_lp_Variant>
AV-unprocessed.smi:1898-4

> <Gold.Version>
5.8.1

> <Gold.Id.Protein>
6NUR|6NUR_protein|mol2

> <Gold.PLP.Fitness>
40.3326

> <Gold.PLP.PLP>
-33.9719

> <Gold.PLP.part.hbond>
-2.0000

> <Gold.PLP.part.metal>
0.0000

> <Gold.PLP.part.buried>
0.6595

> <Gold.PLP.part.nonpolar>
-33.8262

> <Gold.PLP.part.repulsive>
0.9038

> <Gold.PLP.ligand.clash>
0.0000

> <Gold.PLP.ligand.torsion>
1.2952

> <Gold.PLP.Chemscore.Hbond>
1.9600

> <Gold.PLP.Chemscore.CHOScore>
1.0000

> <Gold.PLP.Chemscore.Metal>
0.0000

> <Gold.Chemscore.Hbonds>
donor molecule, donor type, donor heavy atom, donor atom, acceptor molecule, acceptor atom, score
      L1  H    10    34       P1  7948  0.93
      L1  H    13    35       P1  7948  1.00
      L1  C    17    38       P1  8028  0.90

> <Gold.PLP.Chemscore.Internal.Correction>
0.0711

> <Gold.Rescore>
     Score         DG    S(hbond)    S(metal)    S(lipo)     H(rot)  DE(clash)    DE(int)     intcor
     11.35     -13.90       1.63        0.00      67.64       1.93       0.60       1.96       ----

> <Gold.Chemscore.Fitness>
11.3498

> <Gold.Chemscore.DG>
-13.9037

> <Gold.Chemscore.ZeroCoef>
-5.4800

> <Gold.Chemscore.Hbond>
1.6306

> <Gold.Chemscore.Metal>
0.0000

> <Gold.Chemscore.Lipo>
67.6424

> <Gold.Chemscore.Internal_Hbond>
0.0000

> <Gold.Chemscore.DEClash>
0.5984

> <Gold.Chemscore.DEInternal>
1.9555

> <Gold.Chemscore.Rot>
1.9283

> <Gold.Chemscore.Internal.Correction>
   9.000000E+99

> <Gold.Chemscore.Hbonds>
donor molecule, donor type, donor heavy atom, donor atom, acceptor molecule, acceptor atom, score
      L1  H    10    34       P1  7948  0.20
      L1  H    13    35       P1  7948  0.98

> <Gold.Chemscore.Hbond.Weighted>
-5.4461

> <Gold.Chemscore.Metal.Weighted>
-0.0000

> <Gold.Chemscore.Lipo.Weighted>
-7.9142

> <Gold.Chemscore.Internal_Hbond.Weighted>
0.0000

> <Gold.Chemscore.DEClash.Weighted>
0.5984

> <Gold.Chemscore.DEInternal.Weighted>
1.9555

> <Gold.Chemscore.Rot.Weighted>
4.9365

> <Gold.Chemscore.Internal.Correction.Weighted>
   9.000000E+99

> <Gold.Protein.RotatedTorsions>
[ 6907 6896 6895 6894 ] final -169.68 input  -60.11 | X-H torsion
[ 7974 7965 7964 7962 ] final  122.24 input  175.53 | X-H torsion
[ 8008 7997 7996 7995 ] final  165.16 input   59.86 | X-H torsion
[ 10167 10162 10161 10158 ] final  -98.63 input  -65.29 | X-H torsion
[ 10718 10713 10712 10709 ] final  -85.43 input   66.30 | X-H torsion
[ 10763 10752 10751 10750 ] final  -63.95 input  -60.55 | X-H torsion
[ 11005 11000 10999 10996 ] final   28.24 input  -57.11 | X-H torsion

> <Gold.Protein.ActiveResidues>
 VAL166  LYS551  ARG553  GLY616  TRP617  ASP618  TYR619  PRO620  LYS621  CYS622 
 ASP623  PHE694  ASN695  SER759  ASP760  ASP761  ALA762  ILE779  LEU786  VAL792 
 PHE793  MET794  SER795  GLU796  ALA797  LYS798  CYS799  TRP800  GLU811  SER814 

> <Gold.Protein.RotatedAtoms>
  151.4956  133.3515  159.2860 H   0  0  0  0  0  0  0  0  0  0  0  0  # atno 6907 bound_to 6896
  150.8806  134.8199  159.7233 H   0  0  0  0  0  0  0  0  0  0  0  0  # atno 6908 bound_to 6896
  152.4760  134.4853  159.9730 H   0  0  0  0  0  0  0  0  0  0  0  0  # atno 6909 bound_to 6896
  145.1098  139.3460  143.4769 H   0  0  0  0  0  0  0  0  0  0  0  0  # atno 7974 bound_to 7965
  156.1822  140.1677  156.8252 H   0  0  0  0  0  0  0  0  0  0  0  0  # atno 8008 bound_to 7997
  154.5373  140.0744  156.8483 H   0  0  0  0  0  0  0  0  0  0  0  0  # atno 8009 bound_to 7997
  155.3285  140.3377  155.4242 H   0  0  0  0  0  0  0  0  0  0  0  0  # atno 8010 bound_to 7997
  140.2709  143.3344  152.0535 H   0  0  0  0  0  0  0  0  0  0  0  0  # atno 10167 bound_to 10162
  155.9997  130.4731  150.4561 H   0  0  0  0  0  0  0  0  0  0  0  0  # atno 10718 bound_to 10713
  154.3227  135.6193  153.5515 H   0  0  0  0  0  0  0  0  0  0  0  0  # atno 10763 bound_to 10752
  152.9818  135.5728  154.5051 H   0  0  0  0  0  0  0  0  0  0  0  0  # atno 10764 bound_to 10752
  154.4723  135.2860  155.1610 H   0  0  0  0  0  0  0  0  0  0  0  0  # atno 10765 bound_to 10752
  140.3176  134.2579  155.7722 H   0  0  0  0  0  0  0  0  0  0  0  0  # atno 11005 bound_to 11000
  146.3526  140.1012  142.8608 LP  0  0  0  0  0  0  0  0  0  0  0  0  # atno 17320 bound_to 7965
  145.0859  140.9252  143.4797 LP  0  0  0  0  0  0  0  0  0  0  0  0  # atno 17321 bound_to 7965
  139.4989  144.6656  151.6363 LP  0  0  0  0  0  0  0  0  0  0  0  0  # atno 17342 bound_to 10162
  140.5890  143.9813  150.6313 LP  0  0  0  0  0  0  0  0  0  0  0  0  # atno 17343 bound_to 10162
  157.2590  131.0563  151.2332 LP  0  0  0  0  0  0  0  0  0  0  0  0  # atno 17370 bound_to 10713
  157.3454  130.7055  149.6407 LP  0  0  0  0  0  0  0  0  0  0  0  0  # atno 17371 bound_to 10713
  141.2094  133.7750  157.0000 LP  0  0  0  0  0  0  0  0  0  0  0  0  # atno 17394 bound_to 11000
  140.0969  134.9559  157.1864 LP  0  0  0  0  0  0  0  0  0  0  0  0  # atno 17395 bound_to 11000

$$$$
