AV-unprocessed.smi:2866|AV-procd|sdf|11019|dock7
  -GOLD-   2272015483D 1   1.00000     0.00000
 Structure written by MMmdl.
 41 43  0  0  0  0  0  0  0  0  1 V2000
  152.9487  142.8676  161.7739 C   0  0  0  0  0  0  0  0  0  0  0  0
  152.4370  142.5264  160.3854 C   0  0  0  0  0  0  0  0  0  0  0  0
  152.5477  141.1966  159.9200 C   0  0  0  0  0  0  0  0  0  0  0  0
  152.0839  140.8381  158.6354 C   0  0  0  0  0  0  0  0  0  0  0  0
  152.0916  139.6158  157.9851 N   0  0  0  0  0  0  0  0  0  0  0  0
  151.5230  139.9264  156.8235 C   0  0  0  0  0  0  0  0  0  0  0  0
  151.1436  141.2067  156.6461 N   0  0  0  0  0  0  0  0  0  0  0  0
  150.5058  141.7799  155.4743 C   0  0  0  0  0  0  0  0  0  0  0  0
  149.4666  140.8316  154.8470 C   0  0  2  0  0  0  0  0  0  0  0  0
  150.1156  139.9288  153.9708 O   0  0  0  0  0  0  0  0  0  0  0  0
  148.3672  141.6016  154.0910 C   0  0  0  0  0  0  0  0  0  0  0  0
  147.2869  142.0288  154.9633 N   0  0  0  0  0  0  0  0  0  0  0  0
  147.0785  141.7049  156.2862 C   0  0  0  0  0  0  0  0  0  0  0  0
  145.9352  142.3369  156.6828 C   0  0  0  0  0  0  0  0  0  0  0  0
  145.5050  143.0388  155.5192 C   0  0  0  0  0  0  0  0  0  0  0  0
  144.2918  143.9156  155.3520 C   0  0  0  0  0  0  0  0  0  0  0  0
  143.1788  143.1959  155.4940 F   0  0  0  0  0  0  0  0  0  0  0  0
  144.2974  144.8816  156.2704 F   0  0  0  0  0  0  0  0  0  0  0  0
  144.2928  144.4685  154.1392 F   0  0  0  0  0  0  0  0  0  0  0  0
  146.3252  142.8516  154.4938 N   0  0  0  0  0  0  0  0  0  0  0  0
  151.5010  141.8544  157.8233 C   0  0  0  0  0  0  0  0  0  0  0  0
  151.3869  143.1811  158.2741 C   0  0  0  0  0  0  0  0  0  0  0  0
  151.8562  143.5224  159.5598 C   0  0  0  0  0  0  0  0  0  0  0  0
  151.7295  144.9582  160.0374 C   0  0  0  0  0  0  0  0  0  0  0  0
  153.3358  141.9850  162.2839 H   0  0  0  0  0  0  0  0  0  0  0  0
  152.1478  143.2821  162.3864 H   0  0  0  0  0  0  0  0  0  0  0  0
  153.7542  143.5999  161.7136 H   0  0  0  0  0  0  0  0  0  0  0  0
  152.9911  140.4381  160.5482 H   0  0  0  0  0  0  0  0  0  0  0  0
  151.3689  139.1792  156.0586 H   0  0  0  0  0  0  0  0  0  0  0  0
  150.0311  142.7158  155.7713 H   0  0  0  0  0  0  0  0  0  0  0  0
  151.2762  142.0371  154.7457 H   0  0  0  0  0  0  0  0  0  0  0  0
  149.0013  140.2431  155.6388 H   0  0  0  0  0  0  0  0  0  0  0  0
  149.6432  139.9138  153.1524 H   0  0  0  0  0  0  0  0  0  0  0  0
  148.7895  142.4910  153.6220 H   0  0  0  0  0  0  0  0  0  0  0  0
  147.9568  140.9903  153.2853 H   0  0  0  0  0  0  0  0  0  0  0  0
  147.7514  141.0566  156.8278 H   0  0  0  0  0  0  0  0  0  0  0  0
  145.4732  142.3024  157.6583 H   0  0  0  0  0  0  0  0  0  0  0  0
  150.9413  143.9290  157.6352 H   0  0  0  0  0  0  0  0  0  0  0  0
  151.2708  145.5913  159.2774 H   0  0  0  0  0  0  0  0  0  0  0  0
  152.7110  145.3718  160.2692 H   0  0  0  0  0  0  0  0  0  0  0  0
  151.1106  145.0096  160.9335 H   0  0  0  0  0  0  0  0  0  0  0  0
  1  2  1  0  0  0  0
  1 25  1  0  0  0  0
  1 26  1  0  0  0  0
  1 27  1  0  0  0  0
  2 23  1  0  0  0  0
  2  3  2  0  0  0  0
  3  4  1  0  0  0  0
  3 28  1  0  0  0  0
  4 21  2  0  0  0  0
  4  5  1  0  0  0  0
  5  6  2  0  0  0  0
  6  7  1  0  0  0  0
  6 29  1  0  0  0  0
  7  8  1  0  0  0  0
  7 21  1  0  0  0  0
  8  9  1  0  0  0  0
  8 30  1  0  0  0  0
  8 31  1  0  0  0  0
  9 10  1  0  0  0  0
  9 11  1  0  0  0  0
  9 32  1  0  0  0  0
 10 33  1  0  0  0  0
 11 12  1  0  0  0  0
 11 34  1  0  0  0  0
 11 35  1  0  0  0  0
 12 20  1  0  0  0  0
 12 13  1  0  0  0  0
 13 14  2  0  0  0  0
 13 36  1  0  0  0  0
 14 15  1  0  0  0  0
 14 37  1  0  0  0  0
 15 16  1  0  0  0  0
 15 20  2  0  0  0  0
 16 17  1  0  0  0  0
 16 18  1  0  0  0  0
 16 19  1  0  0  0  0
 21 22  1  0  0  0  0
 22 23  2  0  0  0  0
 22 38  1  0  0  0  0
 23 24  1  0  0  0  0
 24 39  1  0  0  0  0
 24 40  1  0  0  0  0
 24 41  1  0  0  0  0
M  END
> <s_m_source_file>
AV-unprocessed.smi

> <i_m_source_file_index>
2866

> <i_lp_mmshare_version>
43012

> <i_f3d_flags>
0

> <s_epik_input>
W0NIM11jKFtjSF0xKWMoW0NIM10pW2NIXWMoYzEyKW4oW2NIXW4yKVtDSDJdW0NASF0oW09IXSlbQ0gyXW4zW2NIXVtjSF1jKG4zKUMoRikoRilG

> <s_epik_cmdline>
J2VwaWtfcHl0aG9uJywgJy1waCcsICc3LjAnLCAnLXRuJywgJzgnLCAnLW1hJywgJzIwMCcsICctbWV0YWxfYmluZGluZycsICctaW1hZScsICc8aW5maWxlLm1hZT4nLCAnLW9tYWUnLCAnPG91dGZpbGUubWFlPic=

> <r_lp_tautomer_probability>
1

> <r_epik_Ionization_Penalty>
0.1021

> <r_epik_Ionization_Penalty_Charging>
0

> <r_epik_Ionization_Penalty_Neutral>
0.1021

> <r_epik_State_Penalty>
0.0920694

> <r_epik_Charging_Adjusted_Penalty>
0.0920694

> <i_epik_Tot_Q>
0

> <i_epik_Tot_abs_Q>
0

> <r_epik_Metal_State_Penalty>
0.0784291

> <b_epik_Metal_Only>
0

> <s_lp_Force_Field>
OPLS_2005

> <r_lp_Energy>
11.3604

> <b_lp_Chiralities_Consistent>
1

> <s_lp_Variant>
AV-unprocessed.smi:2866-1

> <Gold.Version>
5.8.1

> <Gold.Id.Protein>
6NUR|6NUR_protein|mol2

> <Gold.PLP.Fitness>
54.2531

> <Gold.PLP.PLP>
-50.3868

> <Gold.PLP.part.hbond>
-2.0000

> <Gold.PLP.part.metal>
0.0000

> <Gold.PLP.part.buried>
-5.5728

> <Gold.PLP.part.nonpolar>
-42.0302

> <Gold.PLP.part.repulsive>
0.2020

> <Gold.PLP.ligand.clash>
0.0000

> <Gold.PLP.ligand.torsion>
1.0265

> <Gold.PLP.Chemscore.Hbond>
1.9593

> <Gold.PLP.Chemscore.CHOScore>
0.0000

> <Gold.PLP.Chemscore.Metal>
0.0000

> <Gold.Chemscore.Hbonds>
donor molecule, donor type, donor heavy atom, donor atom, acceptor molecule, acceptor atom, score
      L1  H    10    33       P1  7957  1.00
      P1  H  7989  7998       L1    10  0.94

> <Gold.PLP.Chemscore.Internal.Correction>
0.0412

> <Gold.Rescore>
     Score         DG    S(hbond)    S(metal)    S(lipo)     H(rot)  DE(clash)    DE(int)     intcor
     14.23     -15.98       0.99        0.00     114.58       2.42       0.81       0.94       ----

> <Gold.Chemscore.Fitness>
14.2284

> <Gold.Chemscore.DG>
-15.9799

> <Gold.Chemscore.ZeroCoef>
-5.4800

> <Gold.Chemscore.Hbond>
0.9881

> <Gold.Chemscore.Metal>
0.0000

> <Gold.Chemscore.Lipo>
114.5807

> <Gold.Chemscore.Internal_Hbond>
0.0000

> <Gold.Chemscore.DEClash>
0.8102

> <Gold.Chemscore.DEInternal>
0.9413

> <Gold.Chemscore.Rot>
2.4243

> <Gold.Chemscore.Internal.Correction>
   9.000000E+99

> <Gold.Chemscore.Hbonds>
donor molecule, donor type, donor heavy atom, donor atom, acceptor molecule, acceptor atom, score
      L1  H    10    33       P1  7957  0.91
      P1  H  7989  7998       L1    10  0.09

> <Gold.Chemscore.Hbond.Weighted>
-3.3003

> <Gold.Chemscore.Metal.Weighted>
-0.0000

> <Gold.Chemscore.Lipo.Weighted>
-13.4059

> <Gold.Chemscore.Internal_Hbond.Weighted>
0.0000

> <Gold.Chemscore.DEClash.Weighted>
0.8102

> <Gold.Chemscore.DEInternal.Weighted>
0.9413

> <Gold.Chemscore.Rot.Weighted>
6.2063

> <Gold.Chemscore.Internal.Correction.Weighted>
   9.000000E+99

> <Gold.Protein.RotatedTorsions>
[ 6907 6896 6895 6894 ] final -128.97 input  -60.11 | X-H torsion
[ 7974 7965 7964 7962 ] final -168.93 input  175.53 | X-H torsion
[ 8008 7997 7996 7995 ] final   40.27 input   59.86 | X-H torsion
[ 10167 10162 10161 10158 ] final  171.68 input  -65.29 | X-H torsion
[ 10718 10713 10712 10709 ] final -160.82 input   66.30 | X-H torsion
[ 10763 10752 10751 10750 ] final   -6.12 input  -60.55 | X-H torsion
[ 11005 11000 10999 10996 ] final  -44.28 input  -57.11 | X-H torsion

> <Gold.Protein.ActiveResidues>
 VAL166  LYS551  ARG553  GLY616  TRP617  ASP618  TYR619  PRO620  LYS621  CYS622 
 ASP623  PHE694  ASN695  SER759  ASP760  ASP761  ALA762  ILE779  LEU786  VAL792 
 PHE793  MET794  SER795  GLU796  ALA797  LYS798  CYS799  TRP800  GLU811  SER814 

> <Gold.Protein.RotatedAtoms>
  150.9236  133.6850  159.2826 H   0  0  0  0  0  0  0  0  0  0  0  0  # atno 6907 bound_to 6896
  151.4296  135.1007  159.9648 H   0  0  0  0  0  0  0  0  0  0  0  0  # atno 6908 bound_to 6896
  152.4992  133.8669  159.7334 H   0  0  0  0  0  0  0  0  0  0  0  0  # atno 6909 bound_to 6896
  144.7194  140.2297  143.6305 H   0  0  0  0  0  0  0  0  0  0  0  0  # atno 7974 bound_to 7965
  155.2503  140.3352  155.4283 H   0  0  0  0  0  0  0  0  0  0  0  0  # atno 8008 bound_to 7997
  156.2218  140.1812  156.7501 H   0  0  0  0  0  0  0  0  0  0  0  0  # atno 8009 bound_to 7997
  154.5838  140.0649  156.9126 H   0  0  0  0  0  0  0  0  0  0  0  0  # atno 8010 bound_to 7997
  139.5054  144.3459  151.9972 H   0  0  0  0  0  0  0  0  0  0  0  0  # atno 10167 bound_to 10162
  156.5876  130.8756  151.2881 H   0  0  0  0  0  0  0  0  0  0  0  0  # atno 10718 bound_to 10713
  153.4080  135.7007  153.6379 H   0  0  0  0  0  0  0  0  0  0  0  0  # atno 10763 bound_to 10752
  153.4885  135.3678  155.2479 H   0  0  0  0  0  0  0  0  0  0  0  0  # atno 10764 bound_to 10752
  154.8715  135.4083  154.3427 H   0  0  0  0  0  0  0  0  0  0  0  0  # atno 10765 bound_to 10752
  141.0440  133.6768  156.2851 H   0  0  0  0  0  0  0  0  0  0  0  0  # atno 11005 bound_to 11000
  145.8423  139.2135  143.1820 LP  0  0  0  0  0  0  0  0  0  0  0  0  # atno 17320 bound_to 7965
  146.0336  140.8234  142.9864 LP  0  0  0  0  0  0  0  0  0  0  0  0  # atno 17321 bound_to 7965
  140.2896  144.3768  150.6093 LP  0  0  0  0  0  0  0  0  0  0  0  0  # atno 17342 bound_to 10162
  140.5956  143.2167  151.7170 LP  0  0  0  0  0  0  0  0  0  0  0  0  # atno 17343 bound_to 10162
  157.7311  130.9696  150.1866 LP  0  0  0  0  0  0  0  0  0  0  0  0  # atno 17370 bound_to 10713
  156.2578  130.3707  149.8163 LP  0  0  0  0  0  0  0  0  0  0  0  0  # atno 17371 bound_to 10713
  140.6181  134.5390  157.5543 LP  0  0  0  0  0  0  0  0  0  0  0  0  # atno 17394 bound_to 11000
  139.9297  134.7986  156.0965 LP  0  0  0  0  0  0  0  0  0  0  0  0  # atno 17395 bound_to 11000

$$$$
