AV-unprocessed.smi:2083|AV-procd|sdf|8495|dock8
  -GOLD-   2272011203D 1   1.00000     0.00000
 Structure written by MMmdl.
 45 46  0  0  0  0  0  0  0  0  2 V2000
  150.6185  141.9885  156.2132 C   0  0  0  0  0  0  0  0  0  0  0  0
  150.3818  140.7273  155.4560 C   0  0  0  0  0  0  0  0  0  0  0  0
  149.2470  140.0521  155.1035 C   0  0  0  0  0  0  0  0  0  0  0  0
  149.7504  138.9291  154.3945 C   0  0  0  0  0  0  0  0  0  0  0  0
  148.8719  137.9562  153.8525 N   0  0  0  0  0  0  0  0  0  0  0  0
  147.5405  137.8755  154.0164 C   0  0  0  0  0  0  0  0  0  0  0  0
  146.8618  138.6436  154.6987 O   0  0  0  0  0  0  0  0  0  0  0  0
  147.0261  136.8363  153.3416 N   0  0  0  0  0  0  0  0  0  0  0  0
  145.6088  136.4873  153.2806 C   0  0  0  0  0  0  0  0  0  0  0  0
  145.1197  136.2288  151.8319 C   0  0  1  0  0  0  0  0  0  0  0  0
  145.9064  137.0193  150.7682 C   0  0  0  0  0  0  0  0  0  0  0  0
  145.0831  134.7791  151.4784 N   0  3  1  0  0  0  0  0  0  0  0  0
  144.3651  134.4468  150.2175 C   0  0  0  0  0  0  0  0  0  0  0  0
  144.1645  132.9290  150.0901 C   0  0  0  0  0  0  0  0  0  0  0  0
  145.5080  132.1891  150.1708 C   0  0  0  0  0  0  0  0  0  0  0  0
  146.2898  132.5810  151.4390 C   0  0  2  0  0  0  0  0  0  0  0  0
  145.7052  131.9517  152.7157 C   0  0  0  0  0  0  0  0  0  0  0  0
  146.4134  134.1155  151.5481 C   0  0  0  0  0  0  0  0  0  0  0  0
  151.0725  138.9203  154.3192 N   0  0  0  0  0  0  0  0  0  0  0  0
  151.4838  140.0725  154.9997 O   0  0  0  0  0  0  0  0  0  0  0  0
  149.6755  142.4469  156.5118 H   0  0  0  0  0  0  0  0  0  0  0  0
  151.1665  142.7075  155.6043 H   0  0  0  0  0  0  0  0  0  0  0  0
  151.2000  141.7945  157.1144 H   0  0  0  0  0  0  0  0  0  0  0  0
  148.2239  140.3207  155.3207 H   0  0  0  0  0  0  0  0  0  0  0  0
  149.3035  137.2541  153.2699 H   0  0  0  0  0  0  0  0  0  0  0  0
  147.6593  136.2583  152.8083 H   0  0  0  0  0  0  0  0  0  0  0  0
  145.4137  135.6250  153.9194 H   0  0  0  0  0  0  0  0  0  0  0  0
  145.0591  137.3186  153.7210 H   0  0  0  0  0  0  0  0  0  0  0  0
  144.0931  136.5923  151.7638 H   0  0  0  0  0  0  0  0  0  0  0  0
  145.7517  138.0928  150.8767 H   0  0  0  0  0  0  0  0  0  0  0  0
  145.5843  136.7525  149.7612 H   0  0  0  0  0  0  0  0  0  0  0  0
  146.9790  136.8379  150.8356 H   0  0  0  0  0  0  0  0  0  0  0  0
  143.3923  134.9367  150.1901 H   0  0  0  0  0  0  0  0  0  0  0  0
  144.9296  134.8093  149.3576 H   0  0  0  0  0  0  0  0  0  0  0  0
  143.4953  132.5775  150.8760 H   0  0  0  0  0  0  0  0  0  0  0  0
  143.6721  132.6983  149.1448 H   0  0  0  0  0  0  0  0  0  0  0  0
  145.3502  131.1106  150.1353 H   0  0  0  0  0  0  0  0  0  0  0  0
  146.1034  132.4379  149.2915 H   0  0  0  0  0  0  0  0  0  0  0  0
  147.2984  132.1792  151.3347 H   0  0  0  0  0  0  0  0  0  0  0  0
  144.6985  132.3132  152.9251 H   0  0  0  0  0  0  0  0  0  0  0  0
  146.3240  132.1817  153.5833 H   0  0  0  0  0  0  0  0  0  0  0  0
  145.6561  130.8658  152.6291 H   0  0  0  0  0  0  0  0  0  0  0  0
  147.0464  134.4870  150.7414 H   0  0  0  0  0  0  0  0  0  0  0  0
  146.9159  134.3733  152.4811 H   0  0  0  0  0  0  0  0  0  0  0  0
  144.5428  134.3510  152.2167 H   0  0  0  0  0  0  0  0  0  0  0  0
  1  2  1  0  0  0  0
  1 21  1  0  0  0  0
  1 22  1  0  0  0  0
  1 23  1  0  0  0  0
  2 20  1  0  0  0  0
  2  3  2  0  0  0  0
  3  4  1  0  0  0  0
  3 24  1  0  0  0  0
  4  5  1  0  0  0  0
  4 19  2  0  0  0  0
  5  6  1  0  0  0  0
  5 25  1  0  0  0  0
  6  7  2  0  0  0  0
  6  8  1  0  0  0  0
  8  9  1  0  0  0  0
  8 26  1  0  0  0  0
  9 10  1  0  0  0  0
  9 27  1  0  0  0  0
  9 28  1  0  0  0  0
 10 11  1  0  0  0  0
 10 12  1  0  0  0  0
 10 29  1  0  0  0  0
 11 30  1  0  0  0  0
 11 31  1  0  0  0  0
 11 32  1  0  0  0  0
 12 18  1  0  0  0  0
 12 13  1  0  0  0  0
 12 45  1  0  0  0  0
 13 14  1  0  0  0  0
 13 33  1  0  0  0  0
 13 34  1  0  0  0  0
 14 15  1  0  0  0  0
 14 35  1  0  0  0  0
 14 36  1  0  0  0  0
 15 16  1  0  0  0  0
 15 37  1  0  0  0  0
 15 38  1  0  0  0  0
 16 17  1  0  0  0  0
 16 18  1  0  0  0  0
 16 39  1  0  0  0  0
 17 40  1  0  0  0  0
 17 41  1  0  0  0  0
 17 42  1  0  0  0  0
 18 43  1  0  0  0  0
 18 44  1  0  0  0  0
 19 20  1  0  0  0  0
M  CHG  1  12   1
M  END
> <s_m_source_file>
AV-unprocessed.smi

> <i_m_source_file_index>
2083

> <i_lp_mmshare_version>
43012

> <i_f3d_flags>
0

> <s_epik_input>
W0NIM11jMVtjSF1jKG5vMSlbTkhdQyg9TylbTkhdW0NIMl1bQ0BIXShbQ0gzXSlOMltDSDJdW0NIMl1bQ0gyXVtDQEBIXShbQ0gzXSlbQ0gyXTI=

> <s_epik_cmdline>
J2VwaWtfcHl0aG9uJywgJy1waCcsICc3LjAnLCAnLXRuJywgJzgnLCAnLW1hJywgJzIwMCcsICctbWV0YWxfYmluZGluZycsICctaW1hZScsICc8aW5maWxlLm1hZT4nLCAnLW9tYWUnLCAnPG91dGZpbGUubWFlPic=

> <r_epik_Ionization_Penalty>
0.00216453

> <r_epik_Ionization_Penalty_Charging>
0.00212879

> <r_epik_Ionization_Penalty_Neutral>
3.57418e-05

> <r_epik_State_Penalty>
0.00146033

> <r_epik_Charging_Adjusted_Penalty>
0.00358912

> <i_epik_Tot_Q>
1

> <i_epik_Tot_abs_Q>
1

> <r_epik_Metal_State_Penalty>
0.0215827

> <b_epik_Metal_Only>
0

> <s_lp_Force_Field>
OPLS_2005

> <r_lp_Energy>
20.2755

> <b_lp_Chiralities_Consistent>
1

> <s_lp_Variant>
AV-unprocessed.smi:2083-6

> <Gold.Version>
5.8.1

> <Gold.Id.Protein>
6NUR|6NUR_protein|mol2

> <Gold.PLP.Fitness>
37.8361

> <Gold.PLP.PLP>
-32.1304

> <Gold.PLP.part.hbond>
-3.5230

> <Gold.PLP.part.metal>
0.0000

> <Gold.PLP.part.buried>
0.2423

> <Gold.PLP.part.nonpolar>
-29.2226

> <Gold.PLP.part.repulsive>
0.3258

> <Gold.PLP.ligand.clash>
0.0000

> <Gold.PLP.ligand.torsion>
0.5842

> <Gold.PLP.Chemscore.Hbond>
2.2510

> <Gold.PLP.Chemscore.CHOScore>
0.0000

> <Gold.PLP.Chemscore.Metal>
0.0000

> <Gold.Chemscore.Hbonds>
donor molecule, donor type, donor heavy atom, donor atom, acceptor molecule, acceptor atom, score
      L1  H     5    25       P1  7948  0.85
      L1  H     8    26       P1  7948  0.93
      P1  H  7989  7998       L1    20  0.43

> <Gold.PLP.Chemscore.Internal.Correction>
0.1212

> <Gold.Rescore>
     Score         DG    S(hbond)    S(metal)    S(lipo)     H(rot)  DE(clash)    DE(int)     intcor
     13.76     -17.10       1.84        0.00      80.77       1.55       1.28       2.06       ----

> <Gold.Chemscore.Fitness>
13.7637

> <Gold.Chemscore.DG>
-17.1010

> <Gold.Chemscore.ZeroCoef>
-5.4800

> <Gold.Chemscore.Hbond>
1.8360

> <Gold.Chemscore.Metal>
0.0000

> <Gold.Chemscore.Lipo>
80.7678

> <Gold.Chemscore.Internal_Hbond>
0.0000

> <Gold.Chemscore.DEClash>
1.2820

> <Gold.Chemscore.DEInternal>
2.0552

> <Gold.Chemscore.Rot>
1.5474

> <Gold.Chemscore.Internal.Correction>
   9.000000E+99

> <Gold.Chemscore.Hbonds>
donor molecule, donor type, donor heavy atom, donor atom, acceptor molecule, acceptor atom, score
      L1  H     5    25       P1  7948  0.81
      L1  H     8    26       P1  7948  0.88

> <Gold.Chemscore.Hbond.Weighted>
-6.1324

> <Gold.Chemscore.Metal.Weighted>
-0.0000

> <Gold.Chemscore.Lipo.Weighted>
-9.4498

> <Gold.Chemscore.Internal_Hbond.Weighted>
0.0000

> <Gold.Chemscore.DEClash.Weighted>
1.2820

> <Gold.Chemscore.DEInternal.Weighted>
2.0552

> <Gold.Chemscore.Rot.Weighted>
3.9612

> <Gold.Chemscore.Internal.Correction.Weighted>
   9.000000E+99

> <Gold.Protein.RotatedTorsions>
[ 6907 6896 6895 6894 ] final  121.21 input  -60.11 | X-H torsion
[ 7974 7965 7964 7962 ] final  174.55 input  175.53 | X-H torsion
[ 8008 7997 7996 7995 ] final -152.76 input   59.86 | X-H torsion
[ 10167 10162 10161 10158 ] final   80.35 input  -65.29 | X-H torsion
[ 10718 10713 10712 10709 ] final  179.32 input   66.30 | X-H torsion
[ 10763 10752 10751 10750 ] final  101.70 input  -60.55 | X-H torsion
[ 11005 11000 10999 10996 ] final  -46.83 input  -57.11 | X-H torsion

> <Gold.Protein.ActiveResidues>
 VAL166  LYS551  ARG553  GLY616  TRP617  ASP618  TYR619  PRO620  LYS621  CYS622 
 ASP623  PHE694  ASN695  SER759  ASP760  ASP761  ALA762  ILE779  LEU786  VAL792 
 PHE793  MET794  SER795  GLU796  ALA797  LYS798  CYS799  TRP800  GLU811  SER814 

> <Gold.Protein.RotatedAtoms>
  152.4339  133.7326  159.6595 H   0  0  0  0  0  0  0  0  0  0  0  0  # atno 6907 bound_to 6896
  150.8221  133.8224  159.3140 H   0  0  0  0  0  0  0  0  0  0  0  0  # atno 6908 bound_to 6896
  151.5904  135.1056  160.0089 H   0  0  0  0  0  0  0  0  0  0  0  0  # atno 6909 bound_to 6896
  144.7219  139.9814  143.6439 H   0  0  0  0  0  0  0  0  0  0  0  0  # atno 7974 bound_to 7965
  155.6602  140.0721  157.2557 H   0  0  0  0  0  0  0  0  0  0  0  0  # atno 8008 bound_to 7997
  154.4144  140.1717  156.1819 H   0  0  0  0  0  0  0  0  0  0  0  0  # atno 8009 bound_to 7997
  155.9704  140.3362  155.6573 H   0  0  0  0  0  0  0  0  0  0  0  0  # atno 8010 bound_to 7997
  139.9507  144.6028  150.8164 H   0  0  0  0  0  0  0  0  0  0  0  0  # atno 10167 bound_to 10162
  156.8775  130.9804  151.3066 H   0  0  0  0  0  0  0  0  0  0  0  0  # atno 10718 bound_to 10713
  153.3300  135.4036  155.1487 H   0  0  0  0  0  0  0  0  0  0  0  0  # atno 10763 bound_to 10752
  154.8621  135.3608  154.5483 H   0  0  0  0  0  0  0  0  0  0  0  0  # atno 10764 bound_to 10752
  153.5921  135.7073  153.5478 H   0  0  0  0  0  0  0  0  0  0  0  0  # atno 10765 bound_to 10752
  141.0603  133.6711  156.3211 H   0  0  0  0  0  0  0  0  0  0  0  0  # atno 11005 bound_to 11000
  146.0485  139.3488  143.0654 LP  0  0  0  0  0  0  0  0  0  0  0  0  # atno 17320 bound_to 7965
  145.8245  140.9662  143.0881 LP  0  0  0  0  0  0  0  0  0  0  0  0  # atno 17321 bound_to 7965
  140.7584  143.3106  151.2855 LP  0  0  0  0  0  0  0  0  0  0  0  0  # atno 17342 bound_to 10162
  139.6631  144.0154  152.2705 LP  0  0  0  0  0  0  0  0  0  0  0  0  # atno 17343 bound_to 10162
  157.6159  130.8618  149.9028 LP  0  0  0  0  0  0  0  0  0  0  0  0  # atno 17370 bound_to 10713
  156.0694  130.3687  150.0808 LP  0  0  0  0  0  0  0  0  0  0  0  0  # atno 17371 bound_to 10713
  140.5882  134.5678  157.5494 LP  0  0  0  0  0  0  0  0  0  0  0  0  # atno 17394 bound_to 11000
  139.9427  134.7758  156.0639 LP  0  0  0  0  0  0  0  0  0  0  0  0  # atno 17395 bound_to 11000

$$$$
