AV-unprocessed.smi:696|AV-procd|sdf|3388|dock6
  -GOLD-   22720 0363D 1   1.00000     0.00000
 Structure written by MMmdl.
 37 38  0  0  0  0  0  0  0  0  2 V2000
  149.6697  141.3910  156.9002 O   0  0  0  0  0  0  0  0  0  0  0  0
  150.8957  141.3534  156.7876 C   0  0  0  0  0  0  0  0  0  0  0  0
  151.5269  140.6171  155.8598 N   0  0  0  0  0  0  0  0  0  0  0  0
  150.8704  139.7747  154.8666 C   0  0  0  0  0  0  0  0  0  0  0  0
  151.6369  138.4576  154.6475 C   0  0  0  0  0  0  0  0  0  0  0  0
  150.7336  137.2643  154.7975 C   0  0  0  0  0  0  0  0  0  0  0  0
  149.4707  137.2944  155.0084 N   0  0  0  0  0  0  0  0  0  0  0  0
  149.1435  135.9929  155.0687 N   0  0  0  0  0  0  0  0  0  0  0  0
  150.2072  135.2050  154.8943 C   0  0  0  0  0  0  0  0  0  0  0  0
  150.1532  133.9773  154.9097 O   0  0  0  0  0  0  0  0  0  0  0  0
  151.2652  136.0154  154.7127 N   0  5  0  0  0  0  0  0  0  0  0  0
  151.7835  142.1720  157.7371 C   0  0  0  0  0  0  0  0  0  0  0  0
  151.5980  141.6829  159.1926 C   0  0  0  0  0  0  0  0  0  0  0  0
  152.7358  142.1299  160.1264 C   0  0  0  0  0  0  0  0  0  0  0  0
  152.5541  143.5125  160.7780 C   0  0  0  0  0  0  0  0  0  0  0  0
  151.9237  144.6110  159.9033 C   0  0  0  0  0  0  0  0  0  0  0  0
  152.3557  144.6111  158.4281 C   0  0  0  0  0  0  0  0  0  0  0  0
  151.4998  143.6779  157.5532 C   0  0  0  0  0  0  0  0  0  0  0  0
  148.1868  135.7159  155.2315 H   0  0  0  0  0  0  0  0  0  0  0  0
  152.5359  140.6442  155.8366 H   0  0  0  0  0  0  0  0  0  0  0  0
  149.8610  139.5660  155.2236 H   0  0  0  0  0  0  0  0  0  0  0  0
  150.7602  140.3198  153.9272 H   0  0  0  0  0  0  0  0  0  0  0  0
  152.0851  138.4487  153.6531 H   0  0  0  0  0  0  0  0  0  0  0  0
  152.4653  138.3880  155.3541 H   0  0  0  0  0  0  0  0  0  0  0  0
  152.8200  141.9897  157.4479 H   0  0  0  0  0  0  0  0  0  0  0  0
  150.6298  141.9889  159.5918 H   0  0  0  0  0  0  0  0  0  0  0  0
  151.5854  140.5916  159.1948 H   0  0  0  0  0  0  0  0  0  0  0  0
  152.8438  141.3968  160.9266 H   0  0  0  0  0  0  0  0  0  0  0  0
  153.6831  142.1015  159.5868 H   0  0  0  0  0  0  0  0  0  0  0  0
  151.9445  143.4058  161.6761 H   0  0  0  0  0  0  0  0  0  0  0  0
  153.5297  143.8515  161.1285 H   0  0  0  0  0  0  0  0  0  0  0  0
  150.8365  144.5455  159.9621 H   0  0  0  0  0  0  0  0  0  0  0  0
  152.1748  145.5756  160.3461 H   0  0  0  0  0  0  0  0  0  0  0  0
  152.2325  145.6244  158.0444 H   0  0  0  0  0  0  0  0  0  0  0  0
  153.4175  144.3828  158.3286 H   0  0  0  0  0  0  0  0  0  0  0  0
  151.6809  143.9373  156.5088 H   0  0  0  0  0  0  0  0  0  0  0  0
  150.4434  143.8890  157.7268 H   0  0  0  0  0  0  0  0  0  0  0  0
  1  2  2  0  0  0  0
  2  3  1  0  0  0  0
  2 12  1  0  0  0  0
  3  4  1  0  0  0  0
  3 20  1  0  0  0  0
  4  5  1  0  0  0  0
  4 21  1  0  0  0  0
  4 22  1  0  0  0  0
  5  6  1  0  0  0  0
  5 23  1  0  0  0  0
  5 24  1  0  0  0  0
  6 11  1  0  0  0  0
  6  7  2  0  0  0  0
  7  8  1  0  0  0  0
  8 19  1  0  0  0  0
  8  9  1  0  0  0  0
  9 10  2  0  0  0  0
  9 11  1  0  0  0  0
 12 18  1  0  0  0  0
 12 13  1  0  0  0  0
 12 25  1  0  0  0  0
 13 14  1  0  0  0  0
 13 26  1  0  0  0  0
 13 27  1  0  0  0  0
 14 15  1  0  0  0  0
 14 28  1  0  0  0  0
 14 29  1  0  0  0  0
 15 16  1  0  0  0  0
 15 30  1  0  0  0  0
 15 31  1  0  0  0  0
 16 17  1  0  0  0  0
 16 32  1  0  0  0  0
 16 33  1  0  0  0  0
 17 18  1  0  0  0  0
 17 34  1  0  0  0  0
 17 35  1  0  0  0  0
 18 36  1  0  0  0  0
 18 37  1  0  0  0  0
M  CHG  1  11  -1
M  END
> <s_m_source_file>
AV-unprocessed.smi

> <i_m_source_file_index>
696

> <i_lp_mmshare_version>
43012

> <i_f3d_flags>
0

> <s_epik_input>
W0NIMl0xW0NIMl1bQ0gyXVtDSDJdW0NIMl1bQ0gyXVtDSF0xQyg9TylbTkhdW0NIMl1bQ0gyXWMybltuSF1jKD1PKVtuSF0y

> <s_epik_cmdline>
J2VwaWtfcHl0aG9uJywgJy1waCcsICc3LjAnLCAnLXRuJywgJzgnLCAnLW1hJywgJzIwMCcsICctbWV0YWxfYmluZGluZycsICctaW1hZScsICc8aW5maWxlLm1hZT4nLCAnLW9tYWUnLCAnPG91dGZpbGUubWFlPic=

> <r_lp_tautomer_probability>
1

> <r_epik_Ionization_Penalty>
13.715

> <r_epik_Ionization_Penalty_Charging>
13.715

> <r_epik_Ionization_Penalty_Neutral>
5.16152e-06

> <r_epik_State_Penalty>
4.03036

> <r_epik_Charging_Adjusted_Penalty>
17.7454

> <i_epik_Tot_Q>
-1

> <i_epik_Tot_abs_Q>
1

> <r_epik_Metal_State_Penalty>
0.449398

> <b_epik_Metal_Only>
1

> <s_lp_Force_Field>
OPLS_2005

> <r_lp_Energy>
29.0226

> <b_lp_Chiralities_Consistent>
1

> <s_lp_Variant>
AV-unprocessed.smi:696-3

> <Gold.Version>
5.8.1

> <Gold.Id.Protein>
6NUR|6NUR_protein|mol2

> <Gold.PLP.Fitness>
42.5175

> <Gold.PLP.PLP>
-37.5586

> <Gold.PLP.part.hbond>
-1.2738

> <Gold.PLP.part.metal>
0.0000

> <Gold.PLP.part.buried>
-4.3425

> <Gold.PLP.part.nonpolar>
-33.2785

> <Gold.PLP.part.repulsive>
0.6438

> <Gold.PLP.ligand.clash>
0.0000

> <Gold.PLP.ligand.torsion>
0.5396

> <Gold.PLP.Chemscore.Hbond>
2.0000

> <Gold.PLP.Chemscore.CHOScore>
0.0000

> <Gold.PLP.Chemscore.Metal>
0.0000

> <Gold.Chemscore.Hbonds>
donor molecule, donor type, donor heavy atom, donor atom, acceptor molecule, acceptor atom, score
      P1  H 10752 10764       L1    11  2.00

> <Gold.PLP.Chemscore.Internal.Correction>
0.0382

> <Gold.Rescore>
     Score         DG    S(hbond)    S(metal)    S(lipo)     H(rot)  DE(clash)    DE(int)     intcor
     13.58     -14.15       1.00        0.00      94.89       2.25       0.04       0.53       ----

> <Gold.Chemscore.Fitness>
13.5776

> <Gold.Chemscore.DG>
-14.1509

> <Gold.Chemscore.ZeroCoef>
-5.4800

> <Gold.Chemscore.Hbond>
0.9969

> <Gold.Chemscore.Metal>
0.0000

> <Gold.Chemscore.Lipo>
94.8856

> <Gold.Chemscore.Internal_Hbond>
0.0000

> <Gold.Chemscore.DEClash>
0.0446

> <Gold.Chemscore.DEInternal>
0.5287

> <Gold.Chemscore.Rot>
2.2501

> <Gold.Chemscore.Internal.Correction>
   9.000000E+99

> <Gold.Chemscore.Hbonds>
donor molecule, donor type, donor heavy atom, donor atom, acceptor molecule, acceptor atom, score
      P1  H 10752 10764       L1    11  1.00

> <Gold.Chemscore.Hbond.Weighted>
-3.3297

> <Gold.Chemscore.Metal.Weighted>
-0.0000

> <Gold.Chemscore.Lipo.Weighted>
-11.1016

> <Gold.Chemscore.Internal_Hbond.Weighted>
0.0000

> <Gold.Chemscore.DEClash.Weighted>
0.0446

> <Gold.Chemscore.DEInternal.Weighted>
0.5287

> <Gold.Chemscore.Rot.Weighted>
5.7603

> <Gold.Chemscore.Internal.Correction.Weighted>
   9.000000E+99

> <Gold.Protein.RotatedTorsions>
[ 6907 6896 6895 6894 ] final   81.40 input  -60.11 | X-H torsion
[ 7974 7965 7964 7962 ] final  129.73 input  175.53 | X-H torsion
[ 8008 7997 7996 7995 ] final -132.28 input   59.86 | X-H torsion
[ 10167 10162 10161 10158 ] final   87.54 input  -65.29 | X-H torsion
[ 10718 10713 10712 10709 ] final   81.10 input   66.30 | X-H torsion
[ 10763 10752 10751 10750 ] final  -68.37 input  -60.55 | X-H torsion
[ 11005 11000 10999 10996 ] final  -62.59 input  -57.11 | X-H torsion

> <Gold.Protein.ActiveResidues>
 VAL166  LYS551  ARG553  GLY616  TRP617  ASP618  TYR619  PRO620  LYS621  CYS622 
 ASP623  PHE694  ASN695  SER759  ASP760  ASP761  ALA762  ILE779  LEU786  VAL792 
 PHE793  MET794  SER795  GLU796  ALA797  LYS798  CYS799  TRP800  GLU811  SER814 

> <Gold.Protein.RotatedAtoms>
  152.5267  134.3210  159.9148 H   0  0  0  0  0  0  0  0  0  0  0  0  # atno 6907 bound_to 6896
  151.3159  133.4054  159.2658 H   0  0  0  0  0  0  0  0  0  0  0  0  # atno 6908 bound_to 6896
  150.9999  134.9331  159.8005 H   0  0  0  0  0  0  0  0  0  0  0  0  # atno 6909 bound_to 6896
  145.0255  139.4093  143.5176 H   0  0  0  0  0  0  0  0  0  0  0  0  # atno 7974 bound_to 7965
  155.3263  140.0464  157.3041 H   0  0  0  0  0  0  0  0  0  0  0  0  # atno 8008 bound_to 7997
  154.5352  140.2270  155.8700 H   0  0  0  0  0  0  0  0  0  0  0  0  # atno 8009 bound_to 7997
  156.1828  140.3070  155.9187 H   0  0  0  0  0  0  0  0  0  0  0  0  # atno 8010 bound_to 7997
  139.8763  144.6465  150.8892 H   0  0  0  0  0  0  0  0  0  0  0  0  # atno 10167 bound_to 10162
  157.6824  130.9989  150.2176 H   0  0  0  0  0  0  0  0  0  0  0  0  # atno 10718 bound_to 10713
  154.3881  135.6059  153.5828 H   0  0  0  0  0  0  0  0  0  0  0  0  # atno 10763 bound_to 10752
  152.9787  135.5877  154.4331 H   0  0  0  0  0  0  0  0  0  0  0  0  # atno 10764 bound_to 10752
  154.4110  135.2844  155.2014 H   0  0  0  0  0  0  0  0  0  0  0  0  # atno 10765 bound_to 10752
  141.1365  133.6642  156.5551 H   0  0  0  0  0  0  0  0  0  0  0  0  # atno 11005 bound_to 11000
  146.3491  139.9777  142.8699 LP  0  0  0  0  0  0  0  0  0  0  0  0  # atno 17320 bound_to 7965
  145.1839  140.9780  143.4250 LP  0  0  0  0  0  0  0  0  0  0  0  0  # atno 17321 bound_to 7965
  140.7752  143.3622  151.1807 LP  0  0  0  0  0  0  0  0  0  0  0  0  # atno 17342 bound_to 10162
  139.7237  143.9183  152.2995 LP  0  0  0  0  0  0  0  0  0  0  0  0  # atno 17343 bound_to 10162
  156.2834  130.3736  149.7912 LP  0  0  0  0  0  0  0  0  0  0  0  0  # atno 17370 bound_to 10713
  156.5594  130.8376  151.3324 LP  0  0  0  0  0  0  0  0  0  0  0  0  # atno 17371 bound_to 10713
  140.4032  134.7338  157.4792 LP  0  0  0  0  0  0  0  0  0  0  0  0  # atno 17394 bound_to 11000
  140.0480  134.6171  155.8896 LP  0  0  0  0  0  0  0  0  0  0  0  0  # atno 17395 bound_to 11000

$$$$
