AV-unprocessed.smi:1033|AV-procd|sdf|4506|dock2
  -GOLD-   22720 2513D 1   1.00000     0.00000
 Structure written by MMmdl.
 57 59  0  0  0  0  0  0  0  0  3 V2000
  152.5258  141.4194  158.7182 C   0  0  0  0  0  0  0  0  0  0  0  0
  151.5665  141.0819  157.5902 C   0  0  0  0  0  0  0  0  0  0  0  0
  151.9094  140.0567  156.6802 C   0  0  0  0  0  0  0  0  0  0  0  0
  151.0459  139.7133  155.6172 C   0  0  0  0  0  0  0  0  0  0  0  0
  151.1754  138.7546  154.6273 N   0  0  0  0  0  0  0  0  0  0  0  0
  150.0479  138.9204  153.9429 C   0  0  0  0  0  0  0  0  0  0  0  0
  149.1960  139.8682  154.3791 N   0  0  0  0  0  0  0  0  0  0  0  0
  147.9085  140.2138  153.8051 C   0  0  0  0  0  0  0  0  0  0  0  0
  147.3400  139.0904  152.9159 C   0  0  2  0  0  0  0  0  0  0  0  0
  146.4309  139.6776  152.0072 O   0  0  0  0  0  0  0  0  0  0  0  0
  146.6012  137.9918  153.7125 C   0  0  0  0  0  0  0  0  0  0  0  0
  146.4514  136.7279  152.9468 N   0  3  2  0  0  0  0  0  0  0  0  0
  145.4511  136.8469  151.8573 C   0  0  0  0  0  0  0  0  0  0  0  0
  145.3753  135.5555  151.0237 C   0  0  0  0  0  0  0  0  0  0  0  0
  145.0854  134.3807  151.8815 N   0  3  1  0  0  0  0  0  0  0  0  0
  144.9045  133.1329  151.0955 C   0  0  0  0  0  0  0  0  0  0  0  0
  146.1939  132.6993  150.3707 C   0  0  2  0  0  0  0  0  0  0  0  0
  145.8966  131.8162  149.1517 C   0  0  0  0  0  0  0  0  0  0  0  0
  146.9952  131.9572  151.2674 O   0  0  0  0  0  0  0  0  0  0  0  0
  146.0897  134.2572  152.9686 C   0  0  0  0  0  0  0  0  0  0  0  0
  146.1661  135.5481  153.8035 C   0  0  0  0  0  0  0  0  0  0  0  0
  149.8201  140.4295  155.4884 C   0  0  0  0  0  0  0  0  0  0  0  0
  149.4678  141.4518  156.3872 C   0  0  0  0  0  0  0  0  0  0  0  0
  150.3422  141.7822  157.4435 C   0  0  0  0  0  0  0  0  0  0  0  0
  149.9542  142.8884  158.4084 C   0  0  0  0  0  0  0  0  0  0  0  0
  153.3980  140.7652  158.7090 H   0  0  0  0  0  0  0  0  0  0  0  0
  152.0353  141.3068  159.6853 H   0  0  0  0  0  0  0  0  0  0  0  0
  152.8773  142.4472  158.6245 H   0  0  0  0  0  0  0  0  0  0  0  0
  152.8426  139.5245  156.7912 H   0  0  0  0  0  0  0  0  0  0  0  0
  149.8239  138.3128  153.0783 H   0  0  0  0  0  0  0  0  0  0  0  0
  147.2173  140.4488  154.6158 H   0  0  0  0  0  0  0  0  0  0  0  0
  148.0301  141.1306  153.2263 H   0  0  0  0  0  0  0  0  0  0  0  0
  148.1600  138.6605  152.3415 H   0  0  0  0  0  0  0  0  0  0  0  0
  145.6150  139.8392  152.4577 H   0  0  0  0  0  0  0  0  0  0  0  0
  147.1139  137.7707  154.6490 H   0  0  0  0  0  0  0  0  0  0  0  0
  145.6170  138.3736  153.9893 H   0  0  0  0  0  0  0  0  0  0  0  0
  144.4734  137.0747  152.2855 H   0  0  0  0  0  0  0  0  0  0  0  0
  145.7139  137.6807  151.2048 H   0  0  0  0  0  0  0  0  0  0  0  0
  144.5953  135.6617  150.2686 H   0  0  0  0  0  0  0  0  0  0  0  0
  146.3144  135.3957  150.4911 H   0  0  0  0  0  0  0  0  0  0  0  0
  144.5942  132.3224  151.7577 H   0  0  0  0  0  0  0  0  0  0  0  0
  144.0898  133.2688  150.3823 H   0  0  0  0  0  0  0  0  0  0  0  0
  146.7627  133.5666  150.0373 H   0  0  0  0  0  0  0  0  0  0  0  0
  145.2930  132.3522  148.4187 H   0  0  0  0  0  0  0  0  0  0  0  0
  145.3518  130.9144  149.4345 H   0  0  0  0  0  0  0  0  0  0  0  0
  146.8167  131.5069  148.6545 H   0  0  0  0  0  0  0  0  0  0  0  0
  147.7443  131.6218  150.7970 H   0  0  0  0  0  0  0  0  0  0  0  0
  145.8386  133.4247  153.6248 H   0  0  0  0  0  0  0  0  0  0  0  0
  147.0676  134.0351  152.5381 H   0  0  0  0  0  0  0  0  0  0  0  0
  146.9389  135.4333  154.5626 H   0  0  0  0  0  0  0  0  0  0  0  0
  145.2251  135.7026  154.3342 H   0  0  0  0  0  0  0  0  0  0  0  0
  148.5327  141.9779  156.2656 H   0  0  0  0  0  0  0  0  0  0  0  0
  148.9917  143.3277  158.1451 H   0  0  0  0  0  0  0  0  0  0  0  0
  150.6991  143.6845  158.3971 H   0  0  0  0  0  0  0  0  0  0  0  0
  149.8781  142.4997  159.4241 H   0  0  0  0  0  0  0  0  0  0  0  0
  144.1926  134.5642  152.3178 H   0  0  0  0  0  0  0  0  0  0  0  0
  147.3428  136.5659  152.4988 H   0  0  0  0  0  0  0  0  0  0  0  0
  1  2  1  0  0  0  0
  1 26  1  0  0  0  0
  1 27  1  0  0  0  0
  1 28  1  0  0  0  0
  2 24  1  0  0  0  0
  2  3  2  0  0  0  0
  3  4  1  0  0  0  0
  3 29  1  0  0  0  0
  4 22  2  0  0  0  0
  4  5  1  0  0  0  0
  5  6  2  0  0  0  0
  6  7  1  0  0  0  0
  6 30  1  0  0  0  0
  7  8  1  0  0  0  0
  7 22  1  0  0  0  0
  8  9  1  0  0  0  0
  8 31  1  0  0  0  0
  8 32  1  0  0  0  0
  9 10  1  0  0  0  0
  9 11  1  0  0  0  0
  9 33  1  0  0  0  0
 10 34  1  0  0  0  0
 11 12  1  0  0  0  0
 11 35  1  0  0  0  0
 11 36  1  0  0  0  0
 12 21  1  0  0  0  0
 12 13  1  0  0  0  0
 12 57  1  0  0  0  0
 13 14  1  0  0  0  0
 13 37  1  0  0  0  0
 13 38  1  0  0  0  0
 14 15  1  0  0  0  0
 14 39  1  0  0  0  0
 14 40  1  0  0  0  0
 15 16  1  0  0  0  0
 15 20  1  0  0  0  0
 15 56  1  0  0  0  0
 16 17  1  0  0  0  0
 16 41  1  0  0  0  0
 16 42  1  0  0  0  0
 17 18  1  0  0  0  0
 17 19  1  0  0  0  0
 17 43  1  0  0  0  0
 18 44  1  0  0  0  0
 18 45  1  0  0  0  0
 18 46  1  0  0  0  0
 19 47  1  0  0  0  0
 20 21  1  0  0  0  0
 20 48  1  0  0  0  0
 20 49  1  0  0  0  0
 21 50  1  0  0  0  0
 21 51  1  0  0  0  0
 22 23  1  0  0  0  0
 23 24  2  0  0  0  0
 23 52  1  0  0  0  0
 24 25  1  0  0  0  0
 25 53  1  0  0  0  0
 25 54  1  0  0  0  0
 25 55  1  0  0  0  0
M  CHG  1  12   1
M  CHG  1  15   1
M  END
> <s_m_source_file>
AV-unprocessed.smi

> <i_m_source_file_index>
1033

> <i_lp_mmshare_version>
43012

> <i_f3d_flags>
0

> <s_epik_input>
W0NIM11jKFtjSF0xKWMoW0NIM10pW2NIXWMoYzEyKW4oW2NIXW4yKVtDSDJdW0NASF0oW09IXSlbQ0gyXU4zW0NIMl1bQ0gyXU4oW0NIMl1bQ0gyXTMpW0NIMl1bQ0BIXShbQ0gzXSlbT0hd

> <s_epik_cmdline>
J2VwaWtfcHl0aG9uJywgJy1waCcsICc3LjAnLCAnLXRuJywgJzgnLCAnLW1hJywgJzIwMCcsICctbWV0YWxfYmluZGluZycsICctaW1hZScsICc8aW5maWxlLm1hZT4nLCAnLW9tYWUnLCAnPG91dGZpbGUubWFlPic=

> <r_epik_Ionization_Penalty>
3.16016

> <r_epik_Ionization_Penalty_Charging>
3.07679

> <r_epik_Ionization_Penalty_Neutral>
0.083365

> <r_epik_State_Penalty>
2.09701

> <r_epik_Charging_Adjusted_Penalty>
5.1738

> <i_epik_Tot_Q>
2

> <i_epik_Tot_abs_Q>
2

> <r_epik_Metal_State_Penalty>
2.02534

> <b_epik_Metal_Only>
0

> <s_lp_Force_Field>
OPLS_2005

> <r_lp_Energy>
27.6073

> <b_lp_Chiralities_Consistent>
1

> <s_lp_Variant>
AV-unprocessed.smi:1033-17

> <Gold.Version>
5.8.1

> <Gold.Id.Protein>
6NUR|6NUR_protein|mol2

> <Gold.PLP.Fitness>
58.3226

> <Gold.PLP.PLP>
-43.7643

> <Gold.PLP.part.hbond>
-2.9843

> <Gold.PLP.part.metal>
0.0000

> <Gold.PLP.part.buried>
-3.6122

> <Gold.PLP.part.nonpolar>
-38.4204

> <Gold.PLP.part.repulsive>
0.1433

> <Gold.PLP.ligand.clash>
0.0242

> <Gold.PLP.ligand.torsion>
1.0857

> <Gold.PLP.Chemscore.Hbond>
4.0000

> <Gold.PLP.Chemscore.CHOScore>
1.4465

> <Gold.PLP.Chemscore.Metal>
0.0000

> <Gold.Chemscore.Hbonds>
donor molecule, donor type, donor heavy atom, donor atom, acceptor molecule, acceptor atom, score
      L1  H    10    34       P1 10175  1.00
      L1  H    12    57       P1  7948  2.00
      L1  H    19    47       P1 10747  1.00
      L1  C     6    30       P1  7948  1.00
      L1  C     6    30       P1  7957  0.44

> <Gold.PLP.Chemscore.Internal.Correction>
0.4144

> <Gold.Rescore>
     Score         DG    S(hbond)    S(metal)    S(lipo)     H(rot)  DE(clash)    DE(int)     intcor
     17.70     -20.52       2.87        0.00     115.37       3.14       0.13       2.69       ----

> <Gold.Chemscore.Fitness>
17.6962

> <Gold.Chemscore.DG>
-20.5198

> <Gold.Chemscore.ZeroCoef>
-5.4800

> <Gold.Chemscore.Hbond>
2.8666

> <Gold.Chemscore.Metal>
0.0000

> <Gold.Chemscore.Lipo>
115.3714

> <Gold.Chemscore.Internal_Hbond>
0.0000

> <Gold.Chemscore.DEClash>
0.1299

> <Gold.Chemscore.DEInternal>
2.6937

> <Gold.Chemscore.Rot>
3.1380

> <Gold.Chemscore.Internal.Correction>
   9.000000E+99

> <Gold.Chemscore.Hbonds>
donor molecule, donor type, donor heavy atom, donor atom, acceptor molecule, acceptor atom, score
      L1  H    10    34       P1 10175  0.85
      L1  H    12    57       P1  7948  1.00
      L1  H    19    47       P1 10747  0.94

> <Gold.Chemscore.Hbond.Weighted>
-9.5746

> <Gold.Chemscore.Metal.Weighted>
-0.0000

> <Gold.Chemscore.Lipo.Weighted>
-13.4985

> <Gold.Chemscore.Internal_Hbond.Weighted>
0.0000

> <Gold.Chemscore.DEClash.Weighted>
0.1299

> <Gold.Chemscore.DEInternal.Weighted>
2.6937

> <Gold.Chemscore.Rot.Weighted>
8.0332

> <Gold.Chemscore.Internal.Correction.Weighted>
   9.000000E+99

> <Gold.Protein.RotatedTorsions>
[ 6907 6896 6895 6894 ] final   58.72 input  -60.11 | X-H torsion
[ 7974 7965 7964 7962 ] final  -42.74 input  175.53 | X-H torsion
[ 8008 7997 7996 7995 ] final  -84.55 input   59.86 | X-H torsion
[ 10167 10162 10161 10158 ] final  169.70 input  -65.29 | X-H torsion
[ 10718 10713 10712 10709 ] final -171.60 input   66.30 | X-H torsion
[ 10763 10752 10751 10750 ] final   15.13 input  -60.55 | X-H torsion
[ 11005 11000 10999 10996 ] final  -34.68 input  -57.11 | X-H torsion

> <Gold.Protein.ActiveResidues>
 VAL166  LYS551  ARG553  GLY616  TRP617  ASP618  TYR619  PRO620  LYS621  CYS622 
 ASP623  PHE694  ASN695  SER759  ASP760  ASP761  ALA762  ILE779  LEU786  VAL792 
 PHE793  MET794  SER795  GLU796  ALA797  LYS798  CYS799  TRP800  GLU811  SER814 

> <Gold.Protein.RotatedAtoms>
  152.3850  134.6531  160.0128 H   0  0  0  0  0  0  0  0  0  0  0  0  # atno 6907 bound_to 6896
  151.6783  133.3307  159.3221 H   0  0  0  0  0  0  0  0  0  0  0  0  # atno 6908 bound_to 6896
  150.7778  134.6739  159.6451 H   0  0  0  0  0  0  0  0  0  0  0  0  # atno 6909 bound_to 6896
  146.0086  140.6991  142.9235 H   0  0  0  0  0  0  0  0  0  0  0  0  # atno 7974 bound_to 7965
  154.6311  140.0603  156.9732 H   0  0  0  0  0  0  0  0  0  0  0  0  # atno 8008 bound_to 7997
  155.1665  140.3287  155.4382 H   0  0  0  0  0  0  0  0  0  0  0  0  # atno 8009 bound_to 7997
  156.2483  140.1921  156.6769 H   0  0  0  0  0  0  0  0  0  0  0  0  # atno 8010 bound_to 7997
  139.4999  144.3677  151.9758 H   0  0  0  0  0  0  0  0  0  0  0  0  # atno 10167 bound_to 10162
  156.7433  130.9350  151.3111 H   0  0  0  0  0  0  0  0  0  0  0  0  # atno 10718 bound_to 10713
  153.1555  135.6786  153.8819 H   0  0  0  0  0  0  0  0  0  0  0  0  # atno 10763 bound_to 10752
  153.8232  135.3127  155.3413 H   0  0  0  0  0  0  0  0  0  0  0  0  # atno 10764 bound_to 10752
  154.7894  135.4843  154.0106 H   0  0  0  0  0  0  0  0  0  0  0  0  # atno 10765 bound_to 10752
  140.9735  133.7096  156.1564 H   0  0  0  0  0  0  0  0  0  0  0  0  # atno 11005 bound_to 11000
  144.6945  140.3359  143.7208 LP  0  0  0  0  0  0  0  0  0  0  0  0  # atno 17320 bound_to 7965
  145.7377  139.1755  143.2394 LP  0  0  0  0  0  0  0  0  0  0  0  0  # atno 17321 bound_to 7965
  140.3113  144.3534  150.6033 LP  0  0  0  0  0  0  0  0  0  0  0  0  # atno 17342 bound_to 10162
  140.5796  143.2174  151.7452 LP  0  0  0  0  0  0  0  0  0  0  0  0  # atno 17343 bound_to 10162
  157.6809  130.9139  150.0265 LP  0  0  0  0  0  0  0  0  0  0  0  0  # atno 17370 bound_to 10713
  156.1450  130.3642  149.9524 LP  0  0  0  0  0  0  0  0  0  0  0  0  # atno 17371 bound_to 10713
  140.7293  134.4272  157.5567 LP  0  0  0  0  0  0  0  0  0  0  0  0  # atno 17394 bound_to 11000
  139.8921  134.8762  156.2285 LP  0  0  0  0  0  0  0  0  0  0  0  0  # atno 17395 bound_to 11000

$$$$
