AV-unprocessed.smi:2094|AV-procd|sdf|8553|dock1
  -GOLD-   2272011273D 1   1.00000     0.00000
 Structure written by MMmdl.
 35 36  0  0  0  0  0  0  0  0  3 V2000
  148.9781  134.6593  158.4765 O   0  0  0  0  0  0  0  0  0  0  0  0
  148.1736  135.5891  158.3800 C   0  0  0  0  0  0  0  0  0  0  0  0
  147.3515  135.6508  157.3244 N   0  0  0  0  0  0  0  0  0  0  0  0
  147.3202  134.6874  156.2332 C   0  0  0  0  0  0  0  0  0  0  0  0
  148.3011  135.1005  155.1252 C   0  0  0  0  0  0  0  0  0  0  0  0
  147.7557  134.8459  153.7682 N   0  3  0  0  0  0  0  0  0  0  0  0
  146.4247  135.4771  153.5692 C   0  0  0  0  0  0  0  0  0  0  0  0
  145.9451  135.3209  152.1159 C   0  0  0  0  0  0  0  0  0  0  0  0
  145.9140  133.8438  151.7021 C   0  0  0  0  0  0  0  0  0  0  0  0
  147.2861  133.2033  151.9476 C   0  0  0  0  0  0  0  0  0  0  0  0
  147.7358  133.4031  153.4050 C   0  0  0  0  0  0  0  0  0  0  0  0
  148.0116  136.6066  159.2550 N   0  5  0  0  0  0  0  0  0  0  0  0
  147.5685  136.3580  160.4983 C   0  0  0  0  0  0  0  0  0  0  0  0
  147.3504  137.3212  161.4009 N   0  0  0  0  0  0  0  0  0  0  0  0
  146.8877  136.8390  162.6266 C   0  0  0  0  0  0  0  0  0  0  0  0
  146.7415  135.4775  162.6549 C   0  0  0  0  0  0  0  0  0  0  0  0
  147.1837  134.7561  161.1339 S   0  0  0  0  0  0  0  0  0  0  0  0
  146.7072  136.4266  157.2797 H   0  0  0  0  0  0  0  0  0  0  0  0
  147.5827  133.6997  156.6159 H   0  0  0  0  0  0  0  0  0  0  0  0
  146.3001  134.6281  155.8543 H   0  0  0  0  0  0  0  0  0  0  0  0
  148.5798  136.1511  155.2228 H   0  0  0  0  0  0  0  0  0  0  0  0
  149.2185  134.5247  155.2580 H   0  0  0  0  0  0  0  0  0  0  0  0
  145.7029  135.0309  154.2552 H   0  0  0  0  0  0  0  0  0  0  0  0
  146.4794  136.5390  153.8124 H   0  0  0  0  0  0  0  0  0  0  0  0
  144.9538  135.7606  152.0006 H   0  0  0  0  0  0  0  0  0  0  0  0
  146.6085  135.8742  151.4498 H   0  0  0  0  0  0  0  0  0  0  0  0
  145.1516  133.3149  152.2759 H   0  0  0  0  0  0  0  0  0  0  0  0
  145.6358  133.7512  150.6518 H   0  0  0  0  0  0  0  0  0  0  0  0
  147.2478  132.1394  151.7116 H   0  0  0  0  0  0  0  0  0  0  0  0
  148.0226  133.6429  151.2736 H   0  0  0  0  0  0  0  0  0  0  0  0
  148.7254  132.9654  153.5291 H   0  0  0  0  0  0  0  0  0  0  0  0
  147.0671  132.8663  154.0801 H   0  0  0  0  0  0  0  0  0  0  0  0
  146.6869  137.5378  163.4249 H   0  0  0  0  0  0  0  0  0  0  0  0
  146.4028  134.8583  163.4715 H   0  0  0  0  0  0  0  0  0  0  0  0
  148.3826  135.3039  153.1221 H   0  0  0  0  0  0  0  0  0  0  0  0
  1  2  2  0  0  0  0
  2  3  1  0  0  0  0
  2 12  1  0  0  0  0
  3  4  1  0  0  0  0
  3 18  1  0  0  0  0
  4  5  1  0  0  0  0
  4 19  1  0  0  0  0
  4 20  1  0  0  0  0
  5  6  1  0  0  0  0
  5 21  1  0  0  0  0
  5 22  1  0  0  0  0
  6 11  1  0  0  0  0
  6  7  1  0  0  0  0
  6 35  1  0  0  0  0
  7  8  1  0  0  0  0
  7 23  1  0  0  0  0
  7 24  1  0  0  0  0
  8  9  1  0  0  0  0
  8 25  1  0  0  0  0
  8 26  1  0  0  0  0
  9 10  1  0  0  0  0
  9 27  1  0  0  0  0
  9 28  1  0  0  0  0
 10 11  1  0  0  0  0
 10 29  1  0  0  0  0
 10 30  1  0  0  0  0
 11 31  1  0  0  0  0
 11 32  1  0  0  0  0
 12 13  1  0  0  0  0
 13 17  1  0  0  0  0
 13 14  2  0  0  0  0
 14 15  1  0  0  0  0
 15 16  2  0  0  0  0
 15 33  1  0  0  0  0
 16 17  1  0  0  0  0
 16 34  1  0  0  0  0
M  CHG  1   6   1
M  CHG  1  12  -1
M  END
> <s_m_source_file>
AV-unprocessed.smi

> <i_m_source_file_index>
2094

> <i_lp_mmshare_version>
43012

> <i_f3d_flags>
0

> <s_epik_input>
czFbY0hdW2NIXW5jMVtOSF1DKD1PKVtOSF1bQ0gyXVtDSDJdTjJbQ0gyXVtDSDJdW0NIMl1bQ0gyXVtDSDJdMg==

> <s_epik_cmdline>
J2VwaWtfcHl0aG9uJywgJy1waCcsICc3LjAnLCAnLXRuJywgJzgnLCAnLW1hJywgJzIwMCcsICctbWV0YWxfYmluZGluZycsICctaW1hZScsICc8aW5maWxlLm1hZT4nLCAnLW9tYWUnLCAnPG91dGZpbGUubWFlPic=

> <r_lp_tautomer_probability>
0.999

> <r_epik_Ionization_Penalty>
6.21931

> <r_epik_Ionization_Penalty_Charging>
5.38824

> <r_epik_Ionization_Penalty_Neutral>
0.831074

> <r_epik_State_Penalty>
5.38819

> <r_epik_Charging_Adjusted_Penalty>
10.7764

> <i_epik_Tot_Q>
0

> <i_epik_Tot_abs_Q>
2

> <r_epik_Metal_State_Penalty>
1.41404

> <b_epik_Metal_Only>
1

> <s_lp_Force_Field>
OPLS_2005

> <r_lp_Energy>
7.37815

> <b_lp_Chiralities_Consistent>
1

> <s_lp_Variant>
AV-unprocessed.smi:2094-2

> <Gold.Version>
5.8.1

> <Gold.Id.Protein>
6NUR|6NUR_protein|mol2

> <Gold.PLP.Fitness>
40.7250

> <Gold.PLP.PLP>
-28.5829

> <Gold.PLP.part.hbond>
-4.0000

> <Gold.PLP.part.metal>
0.0000

> <Gold.PLP.part.buried>
-2.4620

> <Gold.PLP.part.nonpolar>
-21.5429

> <Gold.PLP.part.repulsive>
0.0040

> <Gold.PLP.ligand.clash>
0.0000

> <Gold.PLP.ligand.torsion>
1.1310

> <Gold.PLP.Chemscore.Hbond>
4.7840

> <Gold.PLP.Chemscore.CHOScore>
0.0000

> <Gold.PLP.Chemscore.Metal>
0.0000

> <Gold.Chemscore.Hbonds>
donor molecule, donor type, donor heavy atom, donor atom, acceptor molecule, acceptor atom, score
      L1  H     6    35       P1  7948  2.00
      P1  H  6896  6907       L1     1  1.00
      P1  H  6931  6943       L1    14  0.83
      P1  H  6934  6947       L1    14  0.94

> <Gold.PLP.Chemscore.Internal.Correction>
0.0521

> <Gold.Rescore>
     Score         DG    S(hbond)    S(metal)    S(lipo)     H(rot)  DE(clash)    DE(int)     intcor
     17.52     -18.69       3.42        0.00      49.92       1.58       0.01       1.16       ----

> <Gold.Chemscore.Fitness>
17.5240

> <Gold.Chemscore.DG>
-18.6879

> <Gold.Chemscore.ZeroCoef>
-5.4800

> <Gold.Chemscore.Hbond>
3.4176

> <Gold.Chemscore.Metal>
0.0000

> <Gold.Chemscore.Lipo>
49.9215

> <Gold.Chemscore.Internal_Hbond>
0.0000

> <Gold.Chemscore.DEClash>
0.0073

> <Gold.Chemscore.DEInternal>
1.1566

> <Gold.Chemscore.Rot>
1.5812

> <Gold.Chemscore.Internal.Correction>
   9.000000E+99

> <Gold.Chemscore.Hbonds>
donor molecule, donor type, donor heavy atom, donor atom, acceptor molecule, acceptor atom, score
      L1  H     6    35       P1  7948  0.96
      P1  H  6896  6907       L1     1  0.99
      P1  H  6931  6943       L1    14  0.26
      P1  H  6934  6947       L1    14  0.89

> <Gold.Chemscore.Hbond.Weighted>
-11.4149

> <Gold.Chemscore.Metal.Weighted>
-0.0000

> <Gold.Chemscore.Lipo.Weighted>
-5.8408

> <Gold.Chemscore.Internal_Hbond.Weighted>
0.0000

> <Gold.Chemscore.DEClash.Weighted>
0.0073

> <Gold.Chemscore.DEInternal.Weighted>
1.1566

> <Gold.Chemscore.Rot.Weighted>
4.0478

> <Gold.Chemscore.Internal.Correction.Weighted>
   9.000000E+99

> <Gold.Protein.RotatedTorsions>
[ 6907 6896 6895 6894 ] final  -81.31 input  -60.11 | X-H torsion
[ 7974 7965 7964 7962 ] final  -76.97 input  175.53 | X-H torsion
[ 8008 7997 7996 7995 ] final   64.41 input   59.86 | X-H torsion
[ 10167 10162 10161 10158 ] final -113.63 input  -65.29 | X-H torsion
[ 10718 10713 10712 10709 ] final -158.96 input   66.30 | X-H torsion
[ 10763 10752 10751 10750 ] final  146.70 input  -60.55 | X-H torsion
[ 11005 11000 10999 10996 ] final -173.11 input  -57.11 | X-H torsion

> <Gold.Protein.ActiveResidues>
 VAL166  LYS551  ARG553  GLY616  TRP617  ASP618  TYR619  PRO620  LYS621  CYS622 
 ASP623  PHE694  ASN695  SER759  ASP760  ASP761  ALA762  ILE779  LEU786  VAL792 
 PHE793  MET794  SER795  GLU796  ALA797  LYS798  CYS799  TRP800  GLU811  SER814 

> <Gold.Protein.RotatedAtoms>
  150.6914  134.3837  159.5045 H   0  0  0  0  0  0  0  0  0  0  0  0  # atno 6907 bound_to 6896
  152.1635  134.8890  160.0549 H   0  0  0  0  0  0  0  0  0  0  0  0  # atno 6908 bound_to 6896
  151.9943  133.3767  159.4193 H   0  0  0  0  0  0  0  0  0  0  0  0  # atno 6909 bound_to 6896
  145.6058  140.9398  143.1216 H   0  0  0  0  0  0  0  0  0  0  0  0  # atno 7974 bound_to 7965
  155.6456  140.3497  155.4730 H   0  0  0  0  0  0  0  0  0  0  0  0  # atno 8008 bound_to 7997
  155.9890  140.1190  157.0679 H   0  0  0  0  0  0  0  0  0  0  0  0  # atno 8009 bound_to 7997
  154.4213  140.1123  156.5525 H   0  0  0  0  0  0  0  0  0  0  0  0  # atno 8010 bound_to 7997
  140.1097  143.4538  152.1760 H   0  0  0  0  0  0  0  0  0  0  0  0  # atno 10167 bound_to 10162
  156.5614  130.8649  151.2811 H   0  0  0  0  0  0  0  0  0  0  0  0  # atno 10718 bound_to 10713
  154.0262  135.2901  155.3374 H   0  0  0  0  0  0  0  0  0  0  0  0  # atno 10763 bound_to 10752
  154.7016  135.5186  153.8538 H   0  0  0  0  0  0  0  0  0  0  0  0  # atno 10764 bound_to 10752
  153.0659  135.6631  154.0479 H   0  0  0  0  0  0  0  0  0  0  0  0  # atno 10765 bound_to 10752
  140.4894  134.5999  157.4949 H   0  0  0  0  0  0  0  0  0  0  0  0  # atno 11005 bound_to 11000
  144.7290  139.7783  143.7354 LP  0  0  0  0  0  0  0  0  0  0  0  0  # atno 17320 bound_to 7965
  146.1542  139.4634  143.0029 LP  0  0  0  0  0  0  0  0  0  0  0  0  # atno 17321 bound_to 7965
  139.5626  144.7415  151.4113 LP  0  0  0  0  0  0  0  0  0  0  0  0  # atno 17342 bound_to 10162
  140.6932  143.7811  150.7287 LP  0  0  0  0  0  0  0  0  0  0  0  0  # atno 17343 bound_to 10162
  157.7367  130.9784  150.2154 LP  0  0  0  0  0  0  0  0  0  0  0  0  # atno 17370 bound_to 10713
  156.2795  130.3731  149.7949 LP  0  0  0  0  0  0  0  0  0  0  0  0  # atno 17371 bound_to 10713
  139.9778  134.7186  155.9916 LP  0  0  0  0  0  0  0  0  0  0  0  0  # atno 17394 bound_to 11000
  141.1491  133.6551  156.3959 LP  0  0  0  0  0  0  0  0  0  0  0  0  # atno 17395 bound_to 11000

$$$$
