AV-unprocessed.smi:2353|AV-procd|sdf|9380|dock6
  -GOLD-   2272013 03D 1   1.00000     0.00000
 Structure written by MMmdl.
 45 47  0  0  0  0  0  0  0  0  1 V2000
  152.8259  143.0878  163.2893 C   0  0  0  0  0  0  0  0  0  0  0  0
  152.4783  143.2522  161.8240 C   0  0  0  0  0  0  0  0  0  0  0  0
  152.0214  144.4917  161.3361 C   0  0  0  0  0  0  0  0  0  0  0  0
  151.7054  144.6368  159.9735 C   0  0  0  0  0  0  0  0  0  0  0  0
  151.8428  143.5455  159.0911 C   0  0  0  0  0  0  0  0  0  0  0  0
  151.4976  143.7195  157.6241 C   0  0  0  0  0  0  0  0  0  0  0  0
  152.2964  142.2939  159.5681 C   0  0  0  0  0  0  0  0  0  0  0  0
  152.4033  141.2671  158.6527 O   0  0  0  0  0  0  0  0  0  0  0  0
  153.0694  140.0736  159.0421 C   0  0  0  0  0  0  0  0  0  0  0  0
  152.7567  138.9778  158.0095 C   0  0  2  0  0  0  0  0  0  0  0  0
  153.8436  138.0724  158.0174 O   0  0  0  0  0  0  0  0  0  0  0  0
  152.6277  139.5526  156.5813 C   0  0  0  0  0  0  0  0  0  0  0  0
  151.5235  138.9347  155.8373 N   0  0  0  0  0  0  0  0  0  0  0  0
  150.5228  139.8203  155.4809 N   0  0  0  0  0  0  0  0  0  0  0  0
  149.4962  139.4280  154.8001 C   0  0  0  0  0  0  0  0  0  0  0  0
  148.4606  140.3738  154.4241 N   0  0  0  0  0  0  0  0  0  0  0  0
  147.3915  140.0299  153.5957 C   0  0  0  0  0  0  0  0  0  0  0  0
  146.6336  141.1728  153.4646 C   0  0  0  0  0  0  0  0  0  0  0  0
  147.2091  142.2147  154.1894 N   0  0  0  0  0  0  0  0  0  0  0  0
  148.2902  141.6677  154.7294 C   0  0  0  0  0  0  0  0  0  0  0  0
  149.3794  138.0261  154.4132 C   0  0  0  0  0  0  0  0  0  0  0  0
  150.3606  137.1693  154.7701 C   0  0  0  0  0  0  0  0  0  0  0  0
  151.5318  137.6049  155.5279 C   0  0  0  0  0  0  0  0  0  0  0  0
  152.4438  136.8462  155.8551 O   0  0  0  0  0  0  0  0  0  0  0  0
  152.6157  142.1598  160.9437 C   0  0  0  0  0  0  0  0  0  0  0  0
  152.5263  143.9606  163.8699 H   0  0  0  0  0  0  0  0  0  0  0  0
  153.9009  142.9510  163.4079 H   0  0  0  0  0  0  0  0  0  0  0  0
  152.3204  142.2154  163.7040 H   0  0  0  0  0  0  0  0  0  0  0  0
  151.9126  145.3351  162.0024 H   0  0  0  0  0  0  0  0  0  0  0  0
  151.3565  145.5916  159.6083 H   0  0  0  0  0  0  0  0  0  0  0  0
  150.6550  143.0815  157.3557 H   0  0  0  0  0  0  0  0  0  0  0  0
  152.3486  143.4461  156.9997 H   0  0  0  0  0  0  0  0  0  0  0  0
  151.2297  144.7517  157.3962 H   0  0  0  0  0  0  0  0  0  0  0  0
  154.1425  140.2709  159.0497 H   0  0  0  0  0  0  0  0  0  0  0  0
  152.7799  139.7566  160.0458 H   0  0  0  0  0  0  0  0  0  0  0  0
  151.8402  138.4604  158.2962 H   0  0  0  0  0  0  0  0  0  0  0  0
  153.8988  137.6607  157.1688 H   0  0  0  0  0  0  0  0  0  0  0  0
  152.4538  140.6291  156.6281 H   0  0  0  0  0  0  0  0  0  0  0  0
  153.5700  139.4465  156.0396 H   0  0  0  0  0  0  0  0  0  0  0  0
  147.2274  139.0573  153.1613 H   0  0  0  0  0  0  0  0  0  0  0  0
  145.7231  141.3251  152.9042 H   0  0  0  0  0  0  0  0  0  0  0  0
  148.9696  142.2215  155.3607 H   0  0  0  0  0  0  0  0  0  0  0  0
  148.5384  137.6452  153.8590 H   0  0  0  0  0  0  0  0  0  0  0  0
  150.2794  136.1295  154.4886 H   0  0  0  0  0  0  0  0  0  0  0  0
  152.9716  141.2247  161.3486 H   0  0  0  0  0  0  0  0  0  0  0  0
  1  2  1  0  0  0  0
  1 26  1  0  0  0  0
  1 27  1  0  0  0  0
  1 28  1  0  0  0  0
  2 25  1  0  0  0  0
  2  3  2  0  0  0  0
  3  4  1  0  0  0  0
  3 29  1  0  0  0  0
  4  5  2  0  0  0  0
  4 30  1  0  0  0  0
  5  6  1  0  0  0  0
  5  7  1  0  0  0  0
  6 31  1  0  0  0  0
  6 32  1  0  0  0  0
  6 33  1  0  0  0  0
  7  8  1  0  0  0  0
  7 25  2  0  0  0  0
  8  9  1  0  0  0  0
  9 10  1  0  0  0  0
  9 34  1  0  0  0  0
  9 35  1  0  0  0  0
 10 11  1  0  0  0  0
 10 12  1  0  0  0  0
 10 36  1  0  0  0  0
 11 37  1  0  0  0  0
 12 13  1  0  0  0  0
 12 38  1  0  0  0  0
 12 39  1  0  0  0  0
 13 23  1  0  0  0  0
 13 14  1  0  0  0  0
 14 15  2  0  0  0  0
 15 16  1  0  0  0  0
 15 21  1  0  0  0  0
 16 20  1  0  0  0  0
 16 17  1  0  0  0  0
 17 18  2  0  0  0  0
 17 40  1  0  0  0  0
 18 19  1  0  0  0  0
 18 41  1  0  0  0  0
 19 20  2  0  0  0  0
 20 42  1  0  0  0  0
 21 22  2  0  0  0  0
 21 43  1  0  0  0  0
 22 23  1  0  0  0  0
 22 44  1  0  0  0  0
 23 24  2  0  0  0  0
 25 45  1  0  0  0  0
M  END
> <s_m_source_file>
AV-unprocessed.smi

> <i_m_source_file_index>
2353

> <i_lp_mmshare_version>
43012

> <i_f3d_flags>
0

> <s_epik_input>
W0NIM11jMVtjSF1bY0hdYyhbQ0gzXSljKFtjSF0xKU9bQ0gyXVtDQEhdKFtPSF0pW0NIMl1uMm5jKFtjSF1bY0hdYzI9TyktbjNbY0hdW2NIXW5bY0hdMw==

> <s_epik_cmdline>
J2VwaWtfcHl0aG9uJywgJy1waCcsICc3LjAnLCAnLXRuJywgJzgnLCAnLW1hJywgJzIwMCcsICctbWV0YWxfYmluZGluZycsICctaW1hZScsICc8aW5maWxlLm1hZT4nLCAnLW9tYWUnLCAnPG91dGZpbGUubWFlPic=

> <r_lp_tautomer_probability>
1

> <r_epik_Ionization_Penalty>
0.03707

> <r_epik_Ionization_Penalty_Charging>
0.0370699

> <r_epik_Ionization_Penalty_Neutral>
1.17174e-07

> <r_epik_State_Penalty>
0.0310055

> <r_epik_Charging_Adjusted_Penalty>
0.0680754

> <i_epik_Tot_Q>
0

> <i_epik_Tot_abs_Q>
0

> <r_epik_Metal_State_Penalty>
0.0291724

> <b_epik_Metal_Only>
0

> <s_lp_Force_Field>
OPLS_2005

> <r_lp_Energy>
36.9493

> <b_lp_Chiralities_Consistent>
1

> <s_lp_Variant>
AV-unprocessed.smi:2353-1

> <Gold.Version>
5.8.1

> <Gold.Id.Protein>
6NUR|6NUR_protein|mol2

> <Gold.PLP.Fitness>
54.5727

> <Gold.PLP.PLP>
-49.6052

> <Gold.PLP.part.hbond>
-2.0016

> <Gold.PLP.part.metal>
0.0000

> <Gold.PLP.part.buried>
2.8666

> <Gold.PLP.part.nonpolar>
-50.1831

> <Gold.PLP.part.repulsive>
0.2319

> <Gold.PLP.ligand.clash>
0.0000

> <Gold.PLP.ligand.torsion>
1.0708

> <Gold.PLP.Chemscore.Hbond>
0.9459

> <Gold.PLP.Chemscore.CHOScore>
1.4063

> <Gold.PLP.Chemscore.Metal>
0.0000

> <Gold.Chemscore.Hbonds>
donor molecule, donor type, donor heavy atom, donor atom, acceptor molecule, acceptor atom, score
      P1  H 10752 10764       L1    24  0.74
      L1  C    18    41       P1 10175  0.66
      L1  C    20    42       P1  8028  0.86

> <Gold.PLP.Chemscore.Internal.Correction>
0.0524

> <Gold.Rescore>
     Score         DG    S(hbond)    S(metal)    S(lipo)     H(rot)  DE(clash)    DE(int)     intcor
     13.83     -17.50       0.82        0.00     136.22       2.60       1.47       2.19       ----

> <Gold.Chemscore.Fitness>
13.8308

> <Gold.Chemscore.DG>
-17.4964

> <Gold.Chemscore.ZeroCoef>
-5.4800

> <Gold.Chemscore.Hbond>
0.8176

> <Gold.Chemscore.Metal>
0.0000

> <Gold.Chemscore.Lipo>
136.2206

> <Gold.Chemscore.Internal_Hbond>
0.0000

> <Gold.Chemscore.DEClash>
1.4718

> <Gold.Chemscore.DEInternal>
2.1937

> <Gold.Chemscore.Rot>
2.5986

> <Gold.Chemscore.Internal.Correction>
   9.000000E+99

> <Gold.Chemscore.Hbonds>
donor molecule, donor type, donor heavy atom, donor atom, acceptor molecule, acceptor atom, score
      P1  H 10752 10764       L1    24  0.72

> <Gold.Chemscore.Hbond.Weighted>
-2.7309

> <Gold.Chemscore.Metal.Weighted>
-0.0000

> <Gold.Chemscore.Lipo.Weighted>
-15.9378

> <Gold.Chemscore.Internal_Hbond.Weighted>
0.0000

> <Gold.Chemscore.DEClash.Weighted>
1.4718

> <Gold.Chemscore.DEInternal.Weighted>
2.1937

> <Gold.Chemscore.Rot.Weighted>
6.6524

> <Gold.Chemscore.Internal.Correction.Weighted>
   9.000000E+99

> <Gold.Protein.RotatedTorsions>
[ 6907 6896 6895 6894 ] final  -58.29 input  -60.11 | X-H torsion
[ 7974 7965 7964 7962 ] final  -11.20 input  175.53 | X-H torsion
[ 8008 7997 7996 7995 ] final  -79.40 input   59.86 | X-H torsion
[ 10167 10162 10161 10158 ] final -124.27 input  -65.29 | X-H torsion
[ 10718 10713 10712 10709 ] final    0.10 input   66.30 | X-H torsion
[ 10763 10752 10751 10750 ] final  -54.26 input  -60.55 | X-H torsion
[ 11005 11000 10999 10996 ] final  174.14 input  -57.11 | X-H torsion

> <Gold.Protein.ActiveResidues>
 VAL166  LYS551  ARG553  GLY616  TRP617  ASP618  TYR619  PRO620  LYS621  CYS622 
 ASP623  PHE694  ASN695  SER759  ASP760  ASP761  ALA762  ILE779  LEU786  VAL792 
 PHE793  MET794  SER795  GLU796  ALA797  LYS798  CYS799  TRP800  GLU811  SER814 

> <Gold.Protein.RotatedAtoms>
  150.8019  134.7118  159.6607 H   0  0  0  0  0  0  0  0  0  0  0  0  # atno 6907 bound_to 6896
  152.4136  134.6077  160.0027 H   0  0  0  0  0  0  0  0  0  0  0  0  # atno 6908 bound_to 6896
  151.6313  133.3295  159.3145 H   0  0  0  0  0  0  0  0  0  0  0  0  # atno 6909 bound_to 6896
  146.2195  140.2876  142.8366 H   0  0  0  0  0  0  0  0  0  0  0  0  # atno 7974 bound_to 7965
  154.5782  140.0679  156.9065 H   0  0  0  0  0  0  0  0  0  0  0  0  # atno 8008 bound_to 7997
  155.2511  140.3351  155.4264 H   0  0  0  0  0  0  0  0  0  0  0  0  # atno 8009 bound_to 7997
  156.2169  140.1782  156.7552 H   0  0  0  0  0  0  0  0  0  0  0  0  # atno 8010 bound_to 7997
  139.9946  143.5604  152.2328 H   0  0  0  0  0  0  0  0  0  0  0  0  # atno 10167 bound_to 10162
  156.8284  130.5480  149.5689 H   0  0  0  0  0  0  0  0  0  0  0  0  # atno 10718 bound_to 10713
  154.1720  135.6457  153.5012 H   0  0  0  0  0  0  0  0  0  0  0  0  # atno 10763 bound_to 10752
  153.0082  135.5385  154.6603 H   0  0  0  0  0  0  0  0  0  0  0  0  # atno 10764 bound_to 10752
  154.5944  135.2937  155.0573 H   0  0  0  0  0  0  0  0  0  0  0  0  # atno 10765 bound_to 10752
  140.3481  134.7219  157.4249 H   0  0  0  0  0  0  0  0  0  0  0  0  # atno 11005 bound_to 11000
  144.9151  140.7803  143.5783 LP  0  0  0  0  0  0  0  0  0  0  0  0  # atno 17320 bound_to 7965
  145.2809  139.1919  143.4791 LP  0  0  0  0  0  0  0  0  0  0  0  0  # atno 17321 bound_to 7965
  139.6315  144.7645  151.2526 LP  0  0  0  0  0  0  0  0  0  0  0  0  # atno 17342 bound_to 10162
  140.7442  143.6471  150.8282 LP  0  0  0  0  0  0  0  0  0  0  0  0  # atno 17343 bound_to 10162
  156.0948  130.5924  150.9795 LP  0  0  0  0  0  0  0  0  0  0  0  0  # atno 17370 bound_to 10713
  157.6420  131.0909  150.8232 LP  0  0  0  0  0  0  0  0  0  0  0  0  # atno 17371 bound_to 10713
  140.0726  134.5842  155.8626 LP  0  0  0  0  0  0  0  0  0  0  0  0  # atno 17394 bound_to 11000
  141.2020  133.6622  156.5981 LP  0  0  0  0  0  0  0  0  0  0  0  0  # atno 17395 bound_to 11000

$$$$
