AV-unprocessed.smi:2526|AV-procd|sdf|9935|dock9
  -GOLD-   2272013583D 1   1.00000     0.00000
 Structure written by MMmdl.
 29 30  0  0  0  0  0  0  0  0  2 V2000
  142.5241  137.4617  153.4347 C   0  0  0  0  0  0  0  0  0  0  0  0
  143.0917  136.3552  152.6942 N   0  0  0  0  0  0  0  0  0  0  0  0
  142.6656  135.0462  152.6414 C   0  0  0  0  0  0  0  0  0  0  0  0
  143.5104  134.3678  151.8046 C   0  0  0  0  0  0  0  0  0  0  0  0
  143.4933  132.9113  151.3854 C   0  0  1  0  0  0  0  0  0  0  0  0
  143.2161  132.7854  149.9519 N   0  0  0  0  0  0  0  0  0  0  0  0
  144.1225  132.6127  148.9714 C   0  0  0  0  0  0  0  0  0  0  0  0
  143.7960  132.6369  147.7876 O   0  0  0  0  0  0  0  0  0  0  0  0
  145.5877  132.3279  149.3429 C   0  0  0  0  0  0  0  0  0  0  0  0
  145.9380  132.6113  150.8151 C   0  0  0  0  0  0  0  0  0  0  0  0
  144.8031  132.1704  151.7493 C   0  0  1  0  0  0  0  0  0  0  0  0
  145.1693  132.3299  153.1690 N   0  3  0  0  0  0  0  0  0  0  0  0
  144.4414  135.3708  151.4059 C   0  0  0  0  0  0  0  0  0  0  0  0
  144.1847  136.5563  151.9317 N   0  0  0  0  0  0  0  0  0  0  0  0
  141.6363  137.1337  153.9760 H   0  0  0  0  0  0  0  0  0  0  0  0
  142.2446  138.2616  152.7482 H   0  0  0  0  0  0  0  0  0  0  0  0
  143.2548  137.8410  154.1497 H   0  0  0  0  0  0  0  0  0  0  0  0
  141.8001  134.7094  153.1936 H   0  0  0  0  0  0  0  0  0  0  0  0
  142.6733  132.4040  151.8952 H   0  0  0  0  0  0  0  0  0  0  0  0
  142.2561  132.9228  149.6692 H   0  0  0  0  0  0  0  0  0  0  0  0
  145.7715  131.2747  149.1288 H   0  0  0  0  0  0  0  0  0  0  0  0
  146.2478  132.8950  148.6860 H   0  0  0  0  0  0  0  0  0  0  0  0
  146.8594  132.0879  151.0724 H   0  0  0  0  0  0  0  0  0  0  0  0
  146.1463  133.6741  150.9462 H   0  0  0  0  0  0  0  0  0  0  0  0
  144.6439  131.1017  151.5967 H   0  0  0  0  0  0  0  0  0  0  0  0
  144.3304  132.3452  153.7316 H   0  0  0  0  0  0  0  0  0  0  0  0
  145.6730  133.1967  153.2926 H   0  0  0  0  0  0  0  0  0  0  0  0
  145.2903  135.2724  150.7454 H   0  0  0  0  0  0  0  0  0  0  0  0
  145.7532  131.5577  153.4568 H   0  0  0  0  0  0  0  0  0  0  0  0
  1  2  1  0  0  0  0
  1 15  1  0  0  0  0
  1 16  1  0  0  0  0
  1 17  1  0  0  0  0
  2 14  1  0  0  0  0
  2  3  1  0  0  0  0
  3  4  2  0  0  0  0
  3 18  1  0  0  0  0
  4  5  1  0  0  0  0
  4 13  1  0  0  0  0
  5 11  1  0  0  0  0
  5  6  1  0  0  0  0
  5 19  1  0  0  0  0
  6  7  1  0  0  0  0
  6 20  1  0  0  0  0
  7  8  2  0  0  0  0
  7  9  1  0  0  0  0
  9 10  1  0  0  0  0
  9 21  1  0  0  0  0
  9 22  1  0  0  0  0
 10 11  1  0  0  0  0
 10 23  1  0  0  0  0
 10 24  1  0  0  0  0
 11 12  1  0  0  0  0
 11 25  1  0  0  0  0
 12 26  1  0  0  0  0
 12 27  1  0  0  0  0
 12 29  1  0  0  0  0
 13 14  2  0  0  0  0
 13 28  1  0  0  0  0
M  CHG  1  12   1
M  END
> <s_m_source_file>
AV-unprocessed.smi

> <i_m_source_file_index>
2526

> <i_lp_mmshare_version>
43012

> <i_f3d_flags>
0

> <s_epik_input>
W0NIM11uMVtjSF1jKFtjSF1uMSlbQ0BASF0yW05IXUMoPU8pW0NIMl1bQ0gyXVtDQEhdMltOSDJd

> <s_epik_cmdline>
J2VwaWtfcHl0aG9uJywgJy1waCcsICc3LjAnLCAnLXRuJywgJzgnLCAnLW1hJywgJzIwMCcsICctbWV0YWxfYmluZGluZycsICctaW1hZScsICc8aW5maWxlLm1hZT4nLCAnLW9tYWUnLCAnPG91dGZpbGUubWFlPic=

> <r_lp_tautomer_probability>
1

> <r_epik_Ionization_Penalty>
0.00878543

> <r_epik_Ionization_Penalty_Charging>
0.00874185

> <r_epik_Ionization_Penalty_Neutral>
4.35793e-05

> <r_epik_State_Penalty>
0.00660351

> <r_epik_Charging_Adjusted_Penalty>
0.0153454

> <i_epik_Tot_Q>
1

> <i_epik_Tot_abs_Q>
1

> <r_epik_Metal_State_Penalty>
0.00660727

> <b_epik_Metal_Only>
0

> <s_lp_Force_Field>
OPLS_2005

> <r_lp_Energy>
11.1602

> <b_lp_Chiralities_Consistent>
1

> <s_lp_Variant>
AV-unprocessed.smi:2526-2

> <Gold.Version>
5.8.1

> <Gold.Id.Protein>
6NUR|6NUR_protein|mol2

> <Gold.PLP.Fitness>
37.2896

> <Gold.PLP.PLP>
-28.2540

> <Gold.PLP.part.hbond>
-3.0000

> <Gold.PLP.part.metal>
0.0000

> <Gold.PLP.part.buried>
-3.8153

> <Gold.PLP.part.nonpolar>
-21.3327

> <Gold.PLP.part.repulsive>
1.9995

> <Gold.PLP.ligand.clash>
0.0000

> <Gold.PLP.ligand.torsion>
0.0336

> <Gold.PLP.Chemscore.Hbond>
3.0280

> <Gold.PLP.Chemscore.CHOScore>
0.0000

> <Gold.PLP.Chemscore.Metal>
0.0000

> <Gold.Chemscore.Hbonds>
donor molecule, donor type, donor heavy atom, donor atom, acceptor molecule, acceptor atom, score
      L1  H     6    20       P1 10186  0.75
      L1  H    12    26       P1 10957  1.88
      P1  H  7918  7932       L1     8  0.17

> <Gold.PLP.Chemscore.Internal.Correction>
0.0187

> <Gold.Rescore>
     Score         DG    S(hbond)    S(metal)    S(lipo)     H(rot)  DE(clash)    DE(int)     intcor
     13.66     -13.71       1.57        0.00      47.24       1.00       0.04       0.01       ----

> <Gold.Chemscore.Fitness>
13.6571

> <Gold.Chemscore.DG>
-13.7068

> <Gold.Chemscore.ZeroCoef>
-5.4800

> <Gold.Chemscore.Hbond>
1.5749

> <Gold.Chemscore.Metal>
0.0000

> <Gold.Chemscore.Lipo>
47.2361

> <Gold.Chemscore.Internal_Hbond>
0.0000

> <Gold.Chemscore.DEClash>
0.0402

> <Gold.Chemscore.DEInternal>
0.0094

> <Gold.Chemscore.Rot>
1.0000

> <Gold.Chemscore.Internal.Correction>
   9.000000E+99

> <Gold.Chemscore.Hbonds>
donor molecule, donor type, donor heavy atom, donor atom, acceptor molecule, acceptor atom, score
      L1  H     6    20       P1 10186  0.75
      L1  H    12    26       P1 10957  0.20
      P1  H  7918  7932       L1     8  0.17

> <Gold.Chemscore.Hbond.Weighted>
-5.2602

> <Gold.Chemscore.Metal.Weighted>
-0.0000

> <Gold.Chemscore.Lipo.Weighted>
-5.5266

> <Gold.Chemscore.Internal_Hbond.Weighted>
0.0000

> <Gold.Chemscore.DEClash.Weighted>
0.0402

> <Gold.Chemscore.DEInternal.Weighted>
0.0094

> <Gold.Chemscore.Rot.Weighted>
2.5600

> <Gold.Chemscore.Internal.Correction.Weighted>
   9.000000E+99

> <Gold.Protein.RotatedTorsions>
[ 6907 6896 6895 6894 ] final -113.35 input  -60.11 | X-H torsion
[ 7974 7965 7964 7962 ] final  176.51 input  175.53 | X-H torsion
[ 8008 7997 7996 7995 ] final  132.60 input   59.86 | X-H torsion
[ 10167 10162 10161 10158 ] final  159.85 input  -65.29 | X-H torsion
[ 10718 10713 10712 10709 ] final  133.68 input   66.30 | X-H torsion
[ 10763 10752 10751 10750 ] final  -96.37 input  -60.55 | X-H torsion
[ 11005 11000 10999 10996 ] final -108.16 input  -57.11 | X-H torsion

> <Gold.Protein.ActiveResidues>
 VAL166  LYS551  ARG553  GLY616  TRP617  ASP618  TYR619  PRO620  LYS621  CYS622 
 ASP623  PHE694  ASN695  SER759  ASP760  ASP761  ALA762  ILE779  LEU786  VAL792 
 PHE793  MET794  SER795  GLU796  ALA797  LYS798  CYS799  TRP800  GLU811  SER814 

> <Gold.Protein.RotatedAtoms>
  150.7823  133.8958  159.3326 H   0  0  0  0  0  0  0  0  0  0  0  0  # atno 6907 bound_to 6896
  151.6817  135.0959  160.0227 H   0  0  0  0  0  0  0  0  0  0  0  0  # atno 6908 bound_to 6896
  152.3877  133.6596  159.6248 H   0  0  0  0  0  0  0  0  0  0  0  0  # atno 6909 bound_to 6896
  144.7183  140.0107  143.6440 H   0  0  0  0  0  0  0  0  0  0  0  0  # atno 7974 bound_to 7965
  156.2984  140.2542  156.3115 H   0  0  0  0  0  0  0  0  0  0  0  0  # atno 8008 bound_to 7997
  154.9322  140.0398  157.2072 H   0  0  0  0  0  0  0  0  0  0  0  0  # atno 8009 bound_to 7997
  154.8207  140.2859  155.5793 H   0  0  0  0  0  0  0  0  0  0  0  0  # atno 8010 bound_to 7997
  139.4835  144.4691  151.8601 H   0  0  0  0  0  0  0  0  0  0  0  0  # atno 10167 bound_to 10162
  157.4749  131.1082  150.9756 H   0  0  0  0  0  0  0  0  0  0  0  0  # atno 10718 bound_to 10713
  154.7233  135.5086  153.8847 H   0  0  0  0  0  0  0  0  0  0  0  0  # atno 10763 bound_to 10752
  153.0882  135.6651  153.9915 H   0  0  0  0  0  0  0  0  0  0  0  0  # atno 10764 bound_to 10752
  153.9733  135.3036  155.3405 H   0  0  0  0  0  0  0  0  0  0  0  0  # atno 10765 bound_to 10752
  141.0916  133.9045  157.2062 H   0  0  0  0  0  0  0  0  0  0  0  0  # atno 11005 bound_to 11000
  146.0260  139.3293  143.0784 LP  0  0  0  0  0  0  0  0  0  0  0  0  # atno 17320 bound_to 7965
  145.8510  140.9529  143.0749 LP  0  0  0  0  0  0  0  0  0  0  0  0  # atno 17321 bound_to 7965
  140.4158  144.2309  150.5888 LP  0  0  0  0  0  0  0  0  0  0  0  0  # atno 17342 bound_to 10162
  140.4922  143.2344  151.8802 LP  0  0  0  0  0  0  0  0  0  0  0  0  # atno 17343 bound_to 10162
  157.0509  130.5786  149.5370 LP  0  0  0  0  0  0  0  0  0  0  0  0  # atno 17370 bound_to 10713
  156.0092  130.5181  150.7931 LP  0  0  0  0  0  0  0  0  0  0  0  0  # atno 17371 bound_to 10713
  139.9743  135.0119  156.9592 LP  0  0  0  0  0  0  0  0  0  0  0  0  # atno 17394 bound_to 11000
  140.5238  134.0881  155.7298 LP  0  0  0  0  0  0  0  0  0  0  0  0  # atno 17395 bound_to 11000

$$$$
