AV-unprocessed.smi:1629|AV-procd|sdf|6522|dock8
  -GOLD-   22720 7193D 1   1.00000     0.00000
 Structure written by MMmdl.
 45 46  0  0  0  0  0  0  0  0  2 V2000
  145.3793  134.5269  151.5859 C   0  0  0  0  0  0  0  0  0  0  0  0
  145.0761  136.3395  151.5979 S   0  0  0  0  0  0  0  0  0  0  0  0
  145.7927  136.9503  150.4682 O   0  0  0  0  0  0  0  0  0  0  0  0
  143.6329  136.5650  151.7711 O   0  0  0  0  0  0  0  0  0  0  0  0
  145.8725  136.8347  153.0482 N   0  0  0  0  0  0  0  0  0  0  0  0
  145.8602  138.2504  153.4271 C   0  0  0  0  0  0  0  0  0  0  0  0
  146.6293  139.1015  152.3925 C   0  0  0  0  0  0  0  0  0  0  0  0
  146.7779  140.5563  152.8740 C   0  0  0  0  0  0  0  0  0  0  0  0
  147.4405  140.5611  154.1899 N   0  0  0  0  0  0  0  0  0  0  0  0
  148.7209  140.9342  154.4412 C   0  0  0  0  0  0  0  0  0  0  0  0
  149.5839  141.0219  153.5666 O   0  0  0  0  0  0  0  0  0  0  0  0
  148.9988  141.1562  155.7363 N   0  0  0  0  0  0  0  0  0  0  0  0
  150.3128  141.5188  156.2488 C   0  0  0  0  0  0  0  0  0  0  0  0
  150.3156  141.5205  157.7835 C   0  0  0  0  0  0  0  0  0  0  0  0
  151.1327  142.6644  158.3529 C   0  0  0  0  0  0  0  0  0  0  0  0
  152.1359  142.4588  159.3250 C   0  0  0  0  0  0  0  0  0  0  0  0
  152.8668  143.5654  159.8059 C   0  0  0  0  0  0  0  0  0  0  0  0
  152.5803  144.8522  159.3050 C   0  0  0  0  0  0  0  0  0  0  0  0
  151.5700  145.0000  158.3329 C   0  0  0  0  0  0  0  0  0  0  0  0
  150.8921  143.9153  157.8969 N   0  3  0  0  0  0  0  0  0  0  0  0
  146.6114  139.8992  155.2055 C   0  0  0  0  0  0  0  0  0  0  0  0
  146.4580  138.4122  154.8393 C   0  0  0  0  0  0  0  0  0  0  0  0
  144.9088  134.0865  150.7070 H   0  0  0  0  0  0  0  0  0  0  0  0
  144.9541  134.0811  152.4851 H   0  0  0  0  0  0  0  0  0  0  0  0
  146.4518  134.3357  151.5571 H   0  0  0  0  0  0  0  0  0  0  0  0
  146.8154  136.4493  153.0970 H   0  0  0  0  0  0  0  0  0  0  0  0
  144.8248  138.5916  153.4601 H   0  0  0  0  0  0  0  0  0  0  0  0
  147.6189  138.6752  152.2216 H   0  0  0  0  0  0  0  0  0  0  0  0
  146.1141  139.0853  151.4316 H   0  0  0  0  0  0  0  0  0  0  0  0
  147.2957  141.1402  152.1136 H   0  0  0  0  0  0  0  0  0  0  0  0
  145.7933  141.0164  152.9699 H   0  0  0  0  0  0  0  0  0  0  0  0
  148.2515  141.0528  156.4074 H   0  0  0  0  0  0  0  0  0  0  0  0
  151.0549  140.8094  155.8783 H   0  0  0  0  0  0  0  0  0  0  0  0
  150.5875  142.5035  155.8675 H   0  0  0  0  0  0  0  0  0  0  0  0
  149.2941  141.5921  158.1605 H   0  0  0  0  0  0  0  0  0  0  0  0
  150.7162  140.5770  158.1571 H   0  0  0  0  0  0  0  0  0  0  0  0
  152.3463  141.4664  159.6966 H   0  0  0  0  0  0  0  0  0  0  0  0
  153.6385  143.4288  160.5494 H   0  0  0  0  0  0  0  0  0  0  0  0
  153.1285  145.7126  159.6606 H   0  0  0  0  0  0  0  0  0  0  0  0
  151.2859  145.9454  157.8943 H   0  0  0  0  0  0  0  0  0  0  0  0
  147.0217  139.9949  156.2118 H   0  0  0  0  0  0  0  0  0  0  0  0
  145.6323  140.3791  155.2410 H   0  0  0  0  0  0  0  0  0  0  0  0
  145.8261  137.9116  155.5737 H   0  0  0  0  0  0  0  0  0  0  0  0
  147.4347  137.9279  154.8892 H   0  0  0  0  0  0  0  0  0  0  0  0
  150.1657  144.0462  157.1924 H   0  0  0  0  0  0  0  0  0  0  0  0
  1  2  1  0  0  0  0
  1 23  1  0  0  0  0
  1 24  1  0  0  0  0
  1 25  1  0  0  0  0
  2  3  2  0  0  0  0
  2  4  2  0  0  0  0
  2  5  1  0  0  0  0
  5  6  1  0  0  0  0
  5 26  1  0  0  0  0
  6 22  1  0  0  0  0
  6  7  1  0  0  0  0
  6 27  1  0  0  0  0
  7  8  1  0  0  0  0
  7 28  1  0  0  0  0
  7 29  1  0  0  0  0
  8  9  1  0  0  0  0
  8 30  1  0  0  0  0
  8 31  1  0  0  0  0
  9 10  1  0  0  0  0
  9 21  1  0  0  0  0
 10 11  2  0  0  0  0
 10 12  1  0  0  0  0
 12 13  1  0  0  0  0
 12 32  1  0  0  0  0
 13 14  1  0  0  0  0
 13 33  1  0  0  0  0
 13 34  1  0  0  0  0
 14 15  1  0  0  0  0
 14 35  1  0  0  0  0
 14 36  1  0  0  0  0
 15 20  1  0  0  0  0
 15 16  2  0  0  0  0
 16 17  1  0  0  0  0
 16 37  1  0  0  0  0
 17 18  2  0  0  0  0
 17 38  1  0  0  0  0
 18 19  1  0  0  0  0
 18 39  1  0  0  0  0
 19 20  2  0  0  0  0
 19 40  1  0  0  0  0
 20 45  1  0  0  0  0
 21 22  1  0  0  0  0
 21 41  1  0  0  0  0
 21 42  1  0  0  0  0
 22 43  1  0  0  0  0
 22 44  1  0  0  0  0
M  CHG  1  20   1
M  END
> <s_m_source_file>
AV-unprocessed.smi

> <i_m_source_file_index>
1629

> <i_lp_mmshare_version>
43012

> <i_f3d_flags>
0

> <s_epik_input>
W0NIM11TKD1PKSg9TylbTkhdW0NIXTFbQ0gyXVtDSDJdTihbQ0gyXVtDSDJdMSlDKD1PKVtOSF1bQ0gyXVtDSDJdYzJbY0hdW2NIXVtjSF1bY0hdbjI=

> <s_epik_cmdline>
J2VwaWtfcHl0aG9uJywgJy1waCcsICc3LjAnLCAnLXRuJywgJzgnLCAnLW1hJywgJzIwMCcsICctbWV0YWxfYmluZGluZycsICctaW1hZScsICc8aW5maWxlLm1hZT4nLCAnLW9tYWUnLCAnPG91dGZpbGUubWFlPic=

> <r_epik_Ionization_Penalty>
1.55223

> <r_epik_Ionization_Penalty_Charging>
1.55216

> <r_epik_Ionization_Penalty_Neutral>
6.06433e-05

> <r_epik_State_Penalty>
1.64647

> <r_epik_Charging_Adjusted_Penalty>
3.19864

> <i_epik_Tot_Q>
1

> <i_epik_Tot_abs_Q>
1

> <r_epik_Metal_State_Penalty>
1.69511

> <b_epik_Metal_Only>
0

> <s_lp_Force_Field>
OPLS_2005

> <r_lp_Energy>
29.0489

> <b_lp_Chiralities_Consistent>
1

> <s_lp_Variant>
AV-unprocessed.smi:1629-2

> <Gold.Version>
5.8.1

> <Gold.Id.Protein>
6NUR|6NUR_protein|mol2

> <Gold.PLP.Fitness>
49.6265

> <Gold.PLP.PLP>
-37.3370

> <Gold.PLP.part.hbond>
-5.0000

> <Gold.PLP.part.metal>
0.0000

> <Gold.PLP.part.buried>
-3.5447

> <Gold.PLP.part.nonpolar>
-34.1215

> <Gold.PLP.part.repulsive>
5.8612

> <Gold.PLP.ligand.clash>
0.0061

> <Gold.PLP.ligand.torsion>
0.6367

> <Gold.PLP.Chemscore.Hbond>
4.4723

> <Gold.PLP.Chemscore.CHOScore>
0.0000

> <Gold.PLP.Chemscore.Metal>
0.0000

> <Gold.Chemscore.Hbonds>
donor molecule, donor type, donor heavy atom, donor atom, acceptor molecule, acceptor atom, score
      L1  H    20    45       P1  8028  1.72
      P1  H  7989  7998       L1    11  0.27
      P1  H  8011  8017       L1    11  1.00

> <Gold.PLP.Chemscore.Internal.Correction>
0.1523

> <Gold.Rescore>
     Score         DG    S(hbond)    S(metal)    S(lipo)     H(rot)  DE(clash)    DE(int)     intcor
     19.02     -21.74       2.99        0.00     100.32       2.13       2.04       0.68       ----

> <Gold.Chemscore.Fitness>
19.0185

> <Gold.Chemscore.DG>
-21.7398

> <Gold.Chemscore.ZeroCoef>
-5.4800

> <Gold.Chemscore.Hbond>
2.9886

> <Gold.Chemscore.Metal>
0.0000

> <Gold.Chemscore.Lipo>
100.3186

> <Gold.Chemscore.Internal_Hbond>
0.0000

> <Gold.Chemscore.DEClash>
2.0434

> <Gold.Chemscore.DEInternal>
0.6779

> <Gold.Chemscore.Rot>
2.1326

> <Gold.Chemscore.Internal.Correction>
   9.000000E+99

> <Gold.Chemscore.Hbonds>
donor molecule, donor type, donor heavy atom, donor atom, acceptor molecule, acceptor atom, score
      L1  H     5    26       P1  7948  0.02
      L1  H    20    45       P1  8028  0.74
      P1  H  7989  7998       L1    11  0.27
      P1  H  8011  8017       L1    11  0.96

> <Gold.Chemscore.Hbond.Weighted>
-9.9820

> <Gold.Chemscore.Metal.Weighted>
-0.0000

> <Gold.Chemscore.Lipo.Weighted>
-11.7373

> <Gold.Chemscore.Internal_Hbond.Weighted>
0.0000

> <Gold.Chemscore.DEClash.Weighted>
2.0434

> <Gold.Chemscore.DEInternal.Weighted>
0.6779

> <Gold.Chemscore.Rot.Weighted>
5.4595

> <Gold.Chemscore.Internal.Correction.Weighted>
   9.000000E+99

> <Gold.Protein.RotatedTorsions>
[ 6907 6896 6895 6894 ] final   42.02 input  -60.11 | X-H torsion
[ 7974 7965 7964 7962 ] final  -43.43 input  175.53 | X-H torsion
[ 8008 7997 7996 7995 ] final   87.71 input   59.86 | X-H torsion
[ 10167 10162 10161 10158 ] final  146.15 input  -65.29 | X-H torsion
[ 10718 10713 10712 10709 ] final  -38.80 input   66.30 | X-H torsion
[ 10763 10752 10751 10750 ] final  115.60 input  -60.55 | X-H torsion
[ 11005 11000 10999 10996 ] final  -47.23 input  -57.11 | X-H torsion

> <Gold.Protein.ActiveResidues>
 VAL166  LYS551  ARG553  GLY616  TRP617  ASP618  TYR619  PRO620  LYS621  CYS622 
 ASP623  PHE694  ASN695  SER759  ASP760  ASP761  ALA762  ILE779  LEU786  VAL792 
 PHE793  MET794  SER795  GLU796  ALA797  LYS798  CYS799  TRP800  GLU811  SER814 

> <Gold.Protein.RotatedAtoms>
  152.2027  134.8574  160.0505 H   0  0  0  0  0  0  0  0  0  0  0  0  # atno 6907 bound_to 6896
  151.9421  133.3636  159.3977 H   0  0  0  0  0  0  0  0  0  0  0  0  # atno 6908 bound_to 6896
  150.6958  134.4352  159.5311 H   0  0  0  0  0  0  0  0  0  0  0  0  # atno 6909 bound_to 6896
  146.0019  140.7064  142.9266 H   0  0  0  0  0  0  0  0  0  0  0  0  # atno 7974 bound_to 7965
  155.9787  140.3379  155.6643 H   0  0  0  0  0  0  0  0  0  0  0  0  # atno 8008 bound_to 7997
  155.6577  140.0712  157.2583 H   0  0  0  0  0  0  0  0  0  0  0  0  # atno 8009 bound_to 7997
  154.4186  140.1714  156.1731 H   0  0  0  0  0  0  0  0  0  0  0  0  # atno 8010 bound_to 7997
  139.4912  144.5850  151.6796 H   0  0  0  0  0  0  0  0  0  0  0  0  # atno 10167 bound_to 10162
  156.2997  130.4238  149.8156 H   0  0  0  0  0  0  0  0  0  0  0  0  # atno 10718 bound_to 10713
  153.5246  135.3591  155.2648 H   0  0  0  0  0  0  0  0  0  0  0  0  # atno 10763 bound_to 10752
  154.8732  135.4054  154.3220 H   0  0  0  0  0  0  0  0  0  0  0  0  # atno 10764 bound_to 10752
  153.3897  135.7071  153.6571 H   0  0  0  0  0  0  0  0  0  0  0  0  # atno 10765 bound_to 10752
  141.0627  133.6703  156.3267 H   0  0  0  0  0  0  0  0  0  0  0  0  # atno 11005 bound_to 11000
  144.6922  140.3248  143.7226 LP  0  0  0  0  0  0  0  0  0  0  0  0  # atno 17320 bound_to 7965
  145.7474  139.1783  143.2341 LP  0  0  0  0  0  0  0  0  0  0  0  0  # atno 17321 bound_to 7965
  140.5464  144.0496  150.6109 LP  0  0  0  0  0  0  0  0  0  0  0  0  # atno 17342 bound_to 10162
  140.3535  143.2949  152.0461 LP  0  0  0  0  0  0  0  0  0  0  0  0  # atno 17343 bound_to 10162
  156.5539  130.8354  151.3308 LP  0  0  0  0  0  0  0  0  0  0  0  0  # atno 17370 bound_to 10713
  157.7364  130.9779  150.2137 LP  0  0  0  0  0  0  0  0  0  0  0  0  # atno 17371 bound_to 10713
  140.5835  134.5722  157.5484 LP  0  0  0  0  0  0  0  0  0  0  0  0  # atno 17394 bound_to 11000
  139.9448  134.7722  156.0589 LP  0  0  0  0  0  0  0  0  0  0  0  0  # atno 17395 bound_to 11000

$$$$
