AV-unprocessed.smi:1933|AV-procd|sdf|7817|dock10
  -GOLD-   22720 9563D 1   1.00000     0.00000
 Structure written by MMmdl.
 47 49  0  0  0  0  0  0  0  0  1 V2000
  145.0179  135.5753  153.9578 O   0  0  0  0  0  0  0  0  0  0  0  0
  146.0680  135.8279  153.3670 C   0  0  0  0  0  0  0  0  0  0  0  0
  146.9698  136.7199  153.8028 N   0  0  0  0  0  0  0  0  0  0  0  0
  146.8620  137.5164  155.0225 C   0  0  0  0  0  0  0  0  0  0  0  0
  148.1370  137.4264  155.9032 C   0  0  2  0  0  0  0  0  0  0  0  0
  149.4363  137.1823  155.0801 C   0  0  1  0  0  0  0  0  0  0  0  0
  150.0701  138.4192  154.4651 C   0  0  0  0  0  0  0  0  0  0  0  0
  151.4922  137.9508  154.1349 C   0  0  0  0  0  0  0  0  0  0  0  0
  151.6531  136.6813  154.7651 O   0  0  0  0  0  0  0  0  0  0  0  0
  150.6438  136.5306  155.7508 C   0  0  0  0  0  0  0  0  0  0  0  0
  147.9922  136.5805  157.1050 N   0  0  0  0  0  0  0  0  0  0  0  0
  148.9058  136.8913  158.2078 C   0  0  0  0  0  0  0  0  0  0  0  0
  148.6086  136.0304  159.4467 C   0  0  0  0  0  0  0  0  0  0  0  0
  148.6989  134.6524  159.0982 O   0  0  0  0  0  0  0  0  0  0  0  0
  147.8105  134.2900  158.0460 C   0  0  0  0  0  0  0  0  0  0  0  0
  148.0927  135.1543  156.8045 C   0  0  0  0  0  0  0  0  0  0  0  0
  146.4758  135.2432  152.2273 N   0  0  0  0  0  0  0  0  0  0  0  0
  145.8333  134.2147  151.4885 C   0  0  0  0  0  0  0  0  0  0  0  0
  144.4199  134.0915  151.5009 C   0  0  0  0  0  0  0  0  0  0  0  0
  143.8082  133.0797  150.7362 C   0  0  0  0  0  0  0  0  0  0  0  0
  144.6191  132.2238  149.9704 C   0  0  0  0  0  0  0  0  0  0  0  0
  146.0107  132.4266  150.0010 C   0  0  0  0  0  0  0  0  0  0  0  0
  146.6006  133.3969  150.7310 N   0  0  0  0  0  0  0  0  0  0  0  0
  147.8036  136.8556  153.2501 H   0  0  0  0  0  0  0  0  0  0  0  0
  146.6931  138.5457  154.7071 H   0  0  0  0  0  0  0  0  0  0  0  0
  145.9793  137.2296  155.5961 H   0  0  0  0  0  0  0  0  0  0  0  0
  148.2845  138.4419  156.2742 H   0  0  0  0  0  0  0  0  0  0  0  0
  149.1721  136.5405  154.2389 H   0  0  0  0  0  0  0  0  0  0  0  0
  149.5298  138.7725  153.5863 H   0  0  0  0  0  0  0  0  0  0  0  0
  150.1134  139.2379  155.1840 H   0  0  0  0  0  0  0  0  0  0  0  0
  151.6419  137.8428  153.0602 H   0  0  0  0  0  0  0  0  0  0  0  0
  152.2335  138.6565  154.5116 H   0  0  0  0  0  0  0  0  0  0  0  0
  150.9757  137.0707  156.6344 H   0  0  0  0  0  0  0  0  0  0  0  0
  150.4852  135.4844  156.0109 H   0  0  0  0  0  0  0  0  0  0  0  0
  149.9362  136.7052  157.9027 H   0  0  0  0  0  0  0  0  0  0  0  0
  148.8586  137.9390  158.4852 H   0  0  0  0  0  0  0  0  0  0  0  0
  149.3259  136.2452  160.2389 H   0  0  0  0  0  0  0  0  0  0  0  0
  147.6160  136.2514  159.8429 H   0  0  0  0  0  0  0  0  0  0  0  0
  147.9463  133.2343  157.8112 H   0  0  0  0  0  0  0  0  0  0  0  0
  146.7776  134.4150  158.3752 H   0  0  0  0  0  0  0  0  0  0  0  0
  147.3839  134.8872  156.0202 H   0  0  0  0  0  0  0  0  0  0  0  0
  149.0863  134.9191  156.4218 H   0  0  0  0  0  0  0  0  0  0  0  0
  147.4062  135.4798  151.9156 H   0  0  0  0  0  0  0  0  0  0  0  0
  143.7968  134.7623  152.0731 H   0  0  0  0  0  0  0  0  0  0  0  0
  142.7340  132.9668  150.7334 H   0  0  0  0  0  0  0  0  0  0  0  0
  144.1859  131.4369  149.3707 H   0  0  0  0  0  0  0  0  0  0  0  0
  146.6688  131.7956  149.4221 H   0  0  0  0  0  0  0  0  0  0  0  0
  1  2  2  0  0  0  0
  2  3  1  0  0  0  0
  2 17  1  0  0  0  0
  3  4  1  0  0  0  0
  3 24  1  0  0  0  0
  4  5  1  0  0  0  0
  4 25  1  0  0  0  0
  4 26  1  0  0  0  0
  5  6  1  0  0  0  0
  5 11  1  0  0  0  0
  5 27  1  0  0  0  0
  6 10  1  0  0  0  0
  6  7  1  0  0  0  0
  6 28  1  0  0  0  0
  7  8  1  0  0  0  0
  7 29  1  0  0  0  0
  7 30  1  0  0  0  0
  8  9  1  0  0  0  0
  8 31  1  0  0  0  0
  8 32  1  0  0  0  0
  9 10  1  0  0  0  0
 10 33  1  0  0  0  0
 10 34  1  0  0  0  0
 11 16  1  0  0  0  0
 11 12  1  0  0  0  0
 12 13  1  0  0  0  0
 12 35  1  0  0  0  0
 12 36  1  0  0  0  0
 13 14  1  0  0  0  0
 13 37  1  0  0  0  0
 13 38  1  0  0  0  0
 14 15  1  0  0  0  0
 15 16  1  0  0  0  0
 15 39  1  0  0  0  0
 15 40  1  0  0  0  0
 16 41  1  0  0  0  0
 16 42  1  0  0  0  0
 17 18  1  0  0  0  0
 17 43  1  0  0  0  0
 18 23  1  0  0  0  0
 18 19  2  0  0  0  0
 19 20  1  0  0  0  0
 19 44  1  0  0  0  0
 20 21  2  0  0  0  0
 20 45  1  0  0  0  0
 21 22  1  0  0  0  0
 21 46  1  0  0  0  0
 22 23  2  0  0  0  0
 22 47  1  0  0  0  0
M  END
> <s_m_source_file>
AV-unprocessed.smi

> <i_m_source_file_index>
1933

> <i_lp_mmshare_version>
43012

> <i_f3d_flags>
0

> <s_epik_input>
bjFbY0hdW2NIXVtjSF1bY0hdYzFbTkhdQyg9TylbTkhdW0NIMl1bQ0BIXShbQ0BASF0yW0NIMl1bQ0gyXU9bQ0gyXTIpTjNbQ0gyXVtDSDJdT1tDSDJdW0NIMl0z

> <s_epik_cmdline>
J2VwaWtfcHl0aG9uJywgJy1waCcsICc3LjAnLCAnLXRuJywgJzgnLCAnLW1hJywgJzIwMCcsICctbWV0YWxfYmluZGluZycsICctaW1hZScsICc8aW5maWxlLm1hZT4nLCAnLW9tYWUnLCAnPG91dGZpbGUubWFlPic=

> <r_epik_Ionization_Penalty>
0.125062

> <r_epik_Ionization_Penalty_Charging>
0

> <r_epik_Ionization_Penalty_Neutral>
0.125062

> <r_epik_State_Penalty>
0.114484

> <r_epik_Charging_Adjusted_Penalty>
0.114484

> <i_epik_Tot_Q>
0

> <i_epik_Tot_abs_Q>
0

> <r_epik_Metal_State_Penalty>
0.114484

> <b_epik_Metal_Only>
0

> <s_lp_Force_Field>
OPLS_2005

> <r_lp_Energy>
60.0985

> <b_lp_Chiralities_Consistent>
1

> <s_lp_Variant>
AV-unprocessed.smi:1933-3

> <Gold.Version>
5.8.1

> <Gold.Id.Protein>
6NUR|6NUR_protein|mol2

> <Gold.PLP.Fitness>
41.9588

> <Gold.PLP.PLP>
-30.2526

> <Gold.PLP.part.hbond>
-4.0000

> <Gold.PLP.part.metal>
0.0000

> <Gold.PLP.part.buried>
-6.3598

> <Gold.PLP.part.nonpolar>
-21.0562

> <Gold.PLP.part.repulsive>
0.4205

> <Gold.PLP.ligand.clash>
0.0000

> <Gold.PLP.ligand.torsion>
1.7405

> <Gold.PLP.Chemscore.Hbond>
3.9920

> <Gold.PLP.Chemscore.CHOScore>
0.9706

> <Gold.PLP.Chemscore.Metal>
0.0000

> <Gold.Chemscore.Hbonds>
donor molecule, donor type, donor heavy atom, donor atom, acceptor molecule, acceptor atom, score
      L1  H     3    24       P1  7948  0.98
      L1  H    17    43       P1  7948  1.00
      P1  H  6896  6908       L1    14  0.90
      P1  H 10752 10765       L1     9  1.00
      L1  C    22    47       P1 10747  0.73

> <Gold.PLP.Chemscore.Internal.Correction>
0.2993

> <Gold.Rescore>
     Score         DG    S(hbond)    S(metal)    S(lipo)     H(rot)  DE(clash)    DE(int)     intcor
     18.47     -21.90       3.88        0.00      67.25       1.72       0.13       3.29       ----

> <Gold.Chemscore.Fitness>
18.4689

> <Gold.Chemscore.DG>
-21.8978

> <Gold.Chemscore.ZeroCoef>
-5.4800

> <Gold.Chemscore.Hbond>
3.8752

> <Gold.Chemscore.Metal>
0.0000

> <Gold.Chemscore.Lipo>
67.2471

> <Gold.Chemscore.Internal_Hbond>
0.0000

> <Gold.Chemscore.DEClash>
0.1343

> <Gold.Chemscore.DEInternal>
3.2946

> <Gold.Chemscore.Rot>
1.7161

> <Gold.Chemscore.Internal.Correction>
   9.000000E+99

> <Gold.Chemscore.Hbonds>
donor molecule, donor type, donor heavy atom, donor atom, acceptor molecule, acceptor atom, score
      L1  H     3    24       P1  7948  0.93
      L1  H    17    43       P1  7948  0.99
      P1  H  6896  6908       L1    14  0.17
      P1  H 10752 10765       L1     9  0.99

> <Gold.Chemscore.Hbond.Weighted>
-12.9431

> <Gold.Chemscore.Metal.Weighted>
-0.0000

> <Gold.Chemscore.Lipo.Weighted>
-7.8679

> <Gold.Chemscore.Internal_Hbond.Weighted>
0.0000

> <Gold.Chemscore.DEClash.Weighted>
0.1343

> <Gold.Chemscore.DEInternal.Weighted>
3.2946

> <Gold.Chemscore.Rot.Weighted>
4.3932

> <Gold.Chemscore.Internal.Correction.Weighted>
   9.000000E+99

> <Gold.Protein.RotatedTorsions>
[ 6907 6896 6895 6894 ] final  158.27 input  -60.11 | X-H torsion
[ 7974 7965 7964 7962 ] final   -4.31 input  175.53 | X-H torsion
[ 8008 7997 7996 7995 ] final   50.18 input   59.86 | X-H torsion
[ 10167 10162 10161 10158 ] final -150.30 input  -65.29 | X-H torsion
[ 10718 10713 10712 10709 ] final  144.41 input   66.30 | X-H torsion
[ 10763 10752 10751 10750 ] final  179.92 input  -60.55 | X-H torsion
[ 11005 11000 10999 10996 ] final   21.09 input  -57.11 | X-H torsion

> <Gold.Protein.ActiveResidues>
 VAL166  LYS551  ARG553  GLY616  TRP617  ASP618  TYR619  PRO620  LYS621  CYS622 
 ASP623  PHE694  ASN695  SER759  ASP760  ASP761  ALA762  ILE779  LEU786  VAL792 
 PHE793  MET794  SER795  GLU796  ALA797  LYS798  CYS799  TRP800  GLU811  SER814 

> <Gold.Protein.RotatedAtoms>
  152.0028  133.3832  159.4188 H   0  0  0  0  0  0  0  0  0  0  0  0  # atno 6907 bound_to 6896
  150.6908  134.3815  159.5045 H   0  0  0  0  0  0  0  0  0  0  0  0  # atno 6908 bound_to 6896
  152.1565  134.8946  160.0595 H   0  0  0  0  0  0  0  0  0  0  0  0  # atno 6909 bound_to 6896
  146.2374  140.1852  142.8332 H   0  0  0  0  0  0  0  0  0  0  0  0  # atno 7974 bound_to 7965
  155.4145  140.3444  155.4266 H   0  0  0  0  0  0  0  0  0  0  0  0  # atno 8008 bound_to 7997
  156.1429  140.1547  156.8924 H   0  0  0  0  0  0  0  0  0  0  0  0  # atno 8009 bound_to 7997
  154.4986  140.0821  156.7731 H   0  0  0  0  0  0  0  0  0  0  0  0  # atno 8010 bound_to 7997
  139.7367  143.8725  152.2550 H   0  0  0  0  0  0  0  0  0  0  0  0  # atno 10167 bound_to 10162
  157.3575  131.0960  151.0945 H   0  0  0  0  0  0  0  0  0  0  0  0  # atno 10718 bound_to 10713
  154.5268  135.2797  155.1215 H   0  0  0  0  0  0  0  0  0  0  0  0  # atno 10763 bound_to 10752
  154.2750  135.6296  153.5328 H   0  0  0  0  0  0  0  0  0  0  0  0  # atno 10764 bound_to 10752
  152.9948  135.5637  154.5771 H   0  0  0  0  0  0  0  0  0  0  0  0  # atno 10765 bound_to 10752
  140.3955  134.1774  155.7663 H   0  0  0  0  0  0  0  0  0  0  0  0  # atno 11005 bound_to 11000
  144.9902  140.8540  143.5344 LP  0  0  0  0  0  0  0  0  0  0  0  0  # atno 17320 bound_to 7965
  145.1857  139.2328  143.5269 LP  0  0  0  0  0  0  0  0  0  0  0  0  # atno 17321 bound_to 7965
  139.8664  144.7091  150.9039 LP  0  0  0  0  0  0  0  0  0  0  0  0  # atno 17342 bound_to 10162
  140.7780  143.3774  151.1537 LP  0  0  0  0  0  0  0  0  0  0  0  0  # atno 17343 bound_to 10162
  157.2098  130.6432  149.5769 LP  0  0  0  0  0  0  0  0  0  0  0  0  # atno 17370 bound_to 10713
  155.9731  130.4664  150.6287 LP  0  0  0  0  0  0  0  0  0  0  0  0  # atno 17371 bound_to 10713
  141.1876  133.8278  157.1027 LP  0  0  0  0  0  0  0  0  0  0  0  0  # atno 17394 bound_to 11000
  140.0375  134.9871  157.0899 LP  0  0  0  0  0  0  0  0  0  0  0  0  # atno 17395 bound_to 11000

$$$$
