AV-unprocessed.smi:2202|AV-procd|sdf|8934|dock5
  -GOLD-   2272012153D 1   1.00000     0.00000
 Structure written by MMmdl.
 43 45  0  0  0  0  0  0  0  0  2 V2000
  153.2515  137.8656  160.2575 O   0  0  0  0  0  0  0  0  0  0  0  0
  153.9987  138.2741  161.1481 C   0  0  0  0  0  0  0  0  0  0  0  0
  154.6869  139.6425  161.0415 C   0  0  0  0  0  0  0  0  0  0  0  0
  153.7732  140.7281  160.6633 N   0  0  0  0  0  0  0  0  0  0  0  0
  153.3985  141.7269  161.4869 C   0  0  0  0  0  0  0  0  0  0  0  0
  153.8036  141.9415  162.6288 O   0  0  0  0  0  0  0  0  0  0  0  0
  152.3084  142.5430  160.8087 C   0  0  1  0  0  0  0  0  0  0  0  0
  152.1747  144.0601  160.9876 C   0  0  0  0  0  0  0  0  0  0  0  0
  151.1515  144.5700  159.9670 C   0  0  0  0  0  0  0  0  0  0  0  0
  150.7341  143.8510  158.8961 C   0  0  0  0  0  0  0  0  0  0  0  0
  151.2641  142.4556  158.5494 C   0  0  0  0  0  0  0  0  0  0  0  0
  152.5537  142.2263  159.3468 C   0  0  2  0  0  0  0  0  0  0  0  0
  153.2367  140.8700  159.4350 C   0  0  0  0  0  0  0  0  0  0  0  0
  153.3257  140.0868  158.4900 O   0  0  0  0  0  0  0  0  0  0  0  0
  154.2685  137.5685  162.2568 N   0  0  0  0  0  0  0  0  0  0  0  0
  153.7211  136.2516  162.5605 C   0  0  0  0  0  0  0  0  0  0  0  0
  154.5348  135.5393  163.6543 C   0  0  0  0  0  0  0  0  0  0  0  0
  154.2403  134.0533  163.7106 C   0  0  0  0  0  0  0  0  0  0  0  0
  153.6261  133.3662  162.6412 C   0  0  0  0  0  0  0  0  0  0  0  0
  153.3756  131.9834  162.7647 C   0  0  0  0  0  0  0  0  0  0  0  0
  153.7428  131.3186  163.9533 C   0  0  0  0  0  0  0  0  0  0  0  0
  154.3515  132.0545  164.9903 C   0  0  0  0  0  0  0  0  0  0  0  0
  154.5751  133.3778  164.8340 N   0  3  0  0  0  0  0  0  0  0  0  0
  155.1598  139.8787  161.9966 H   0  0  0  0  0  0  0  0  0  0  0  0
  155.5004  139.5657  160.3178 H   0  0  0  0  0  0  0  0  0  0  0  0
  151.3669  142.0879  161.1259 H   0  0  0  0  0  0  0  0  0  0  0  0
  151.8279  144.2921  161.9949 H   0  0  0  0  0  0  0  0  0  0  0  0
  153.1273  144.5700  160.8401 H   0  0  0  0  0  0  0  0  0  0  0  0
  150.7520  145.5594  160.1349 H   0  0  0  0  0  0  0  0  0  0  0  0
  149.9905  144.2650  158.2312 H   0  0  0  0  0  0  0  0  0  0  0  0
  150.5068  141.7061  158.7815 H   0  0  0  0  0  0  0  0  0  0  0  0
  151.4674  142.4005  157.4796 H   0  0  0  0  0  0  0  0  0  0  0  0
  153.3124  142.9056  158.9503 H   0  0  0  0  0  0  0  0  0  0  0  0
  154.8961  137.9732  162.9368 H   0  0  0  0  0  0  0  0  0  0  0  0
  152.6749  136.3453  162.8578 H   0  0  0  0  0  0  0  0  0  0  0  0
  153.7316  135.6593  161.6451 H   0  0  0  0  0  0  0  0  0  0  0  0
  155.6020  135.6874  163.4817 H   0  0  0  0  0  0  0  0  0  0  0  0
  154.3193  135.9726  164.6321 H   0  0  0  0  0  0  0  0  0  0  0  0
  153.3490  133.8901  161.7377 H   0  0  0  0  0  0  0  0  0  0  0  0
  152.9070  131.4391  161.9577 H   0  0  0  0  0  0  0  0  0  0  0  0
  153.5594  130.2601  164.0679 H   0  0  0  0  0  0  0  0  0  0  0  0
  154.6637  131.6286  165.9326 H   0  0  0  0  0  0  0  0  0  0  0  0
  155.0170  133.8912  165.5972 H   0  0  0  0  0  0  0  0  0  0  0  0
  1  2  2  0  0  0  0
  2  3  1  0  0  0  0
  2 15  1  0  0  0  0
  3  4  1  0  0  0  0
  3 24  1  0  0  0  0
  3 25  1  0  0  0  0
  4 13  1  0  0  0  0
  4  5  1  0  0  0  0
  5  6  2  0  0  0  0
  5  7  1  0  0  0  0
  7 12  1  0  0  0  0
  7  8  1  0  0  0  0
  7 26  1  0  0  0  0
  8  9  1  0  0  0  0
  8 27  1  0  0  0  0
  8 28  1  0  0  0  0
  9 10  2  0  0  0  0
  9 29  1  0  0  0  0
 10 11  1  0  0  0  0
 10 30  1  0  0  0  0
 11 12  1  0  0  0  0
 11 31  1  0  0  0  0
 11 32  1  0  0  0  0
 12 13  1  0  0  0  0
 12 33  1  0  0  0  0
 13 14  2  0  0  0  0
 15 16  1  0  0  0  0
 15 34  1  0  0  0  0
 16 17  1  0  0  0  0
 16 35  1  0  0  0  0
 16 36  1  0  0  0  0
 17 18  1  0  0  0  0
 17 37  1  0  0  0  0
 17 38  1  0  0  0  0
 18 23  1  0  0  0  0
 18 19  2  0  0  0  0
 19 20  1  0  0  0  0
 19 39  1  0  0  0  0
 20 21  2  0  0  0  0
 20 40  1  0  0  0  0
 21 22  1  0  0  0  0
 21 41  1  0  0  0  0
 22 23  2  0  0  0  0
 22 42  1  0  0  0  0
 23 43  1  0  0  0  0
M  CHG  1  23   1
M  END
> <s_m_source_file>
AV-unprocessed.smi

> <i_m_source_file_index>
2202

> <i_lp_mmshare_version>
43012

> <i_f3d_flags>
0

> <s_epik_input>
W0NIMl0xW0NIXT1bQ0hdW0NIMl1bQ0BIXShbQ0BIXTEyKUMoPU8pTihDMj1PKVtDSDJdQyg9TylbTkhdW0NIMl1bQ0gyXWMzW2NIXVtjSF1bY0hdW2NIXW4z

> <s_epik_cmdline>
J2VwaWtfcHl0aG9uJywgJy1waCcsICc3LjAnLCAnLXRuJywgJzgnLCAnLW1hJywgJzIwMCcsICctbWV0YWxfYmluZGluZycsICctaW1hZScsICc8aW5maWxlLm1hZT4nLCAnLW9tYWUnLCAnPG91dGZpbGUubWFlPic=

> <r_lp_tautomer_probability>
1

> <r_epik_Ionization_Penalty>
1.90039

> <r_epik_Ionization_Penalty_Charging>
1.90039

> <r_epik_Ionization_Penalty_Neutral>
1.50224e-07

> <r_epik_State_Penalty>
2.02162

> <r_epik_Charging_Adjusted_Penalty>
3.922

> <i_epik_Tot_Q>
1

> <i_epik_Tot_abs_Q>
1

> <r_epik_Metal_State_Penalty>
2.04542

> <b_epik_Metal_Only>
0

> <s_lp_Force_Field>
OPLS_2005

> <r_lp_Energy>
26.7025

> <b_lp_Chiralities_Consistent>
1

> <s_lp_Variant>
AV-unprocessed.smi:2202-6

> <Gold.Version>
5.8.1

> <Gold.Id.Protein>
6NUR|6NUR_protein|mol2

> <Gold.PLP.Fitness>
52.6044

> <Gold.PLP.PLP>
-50.8927

> <Gold.PLP.part.hbond>
-3.0000

> <Gold.PLP.part.metal>
0.0000

> <Gold.PLP.part.buried>
-5.3469

> <Gold.PLP.part.nonpolar>
-41.5185

> <Gold.PLP.part.repulsive>
0.0591

> <Gold.PLP.ligand.clash>
0.0000

> <Gold.PLP.ligand.torsion>
0.6584

> <Gold.PLP.Chemscore.Hbond>
0.9920

> <Gold.PLP.Chemscore.CHOScore>
0.0000

> <Gold.PLP.Chemscore.Metal>
0.0000

> <Gold.Chemscore.Hbonds>
donor molecule, donor type, donor heavy atom, donor atom, acceptor molecule, acceptor atom, score
      P1  H  7997  8010       L1    14  0.98

> <Gold.PLP.Chemscore.Internal.Correction>
0.0525

> <Gold.Rescore>
     Score         DG    S(hbond)    S(metal)    S(lipo)     H(rot)  DE(clash)    DE(int)     intcor
     15.78     -17.68       0.96        0.00     119.84       1.96       0.09       1.81       ----

> <Gold.Chemscore.Fitness>
15.7817

> <Gold.Chemscore.DG>
-17.6791

> <Gold.Chemscore.ZeroCoef>
-5.4800

> <Gold.Chemscore.Hbond>
0.9588

> <Gold.Chemscore.Metal>
0.0000

> <Gold.Chemscore.Lipo>
119.8357

> <Gold.Chemscore.Internal_Hbond>
0.0000

> <Gold.Chemscore.DEClash>
0.0884

> <Gold.Chemscore.DEInternal>
1.8089

> <Gold.Chemscore.Rot>
1.9625

> <Gold.Chemscore.Internal.Correction>
   9.000000E+99

> <Gold.Chemscore.Hbonds>
donor molecule, donor type, donor heavy atom, donor atom, acceptor molecule, acceptor atom, score
      P1  H  7997  8010       L1    14  0.92

> <Gold.Chemscore.Hbond.Weighted>
-3.2023

> <Gold.Chemscore.Metal.Weighted>
-0.0000

> <Gold.Chemscore.Lipo.Weighted>
-14.0208

> <Gold.Chemscore.Internal_Hbond.Weighted>
0.0000

> <Gold.Chemscore.DEClash.Weighted>
0.0884

> <Gold.Chemscore.DEInternal.Weighted>
1.8089

> <Gold.Chemscore.Rot.Weighted>
5.0240

> <Gold.Chemscore.Internal.Correction.Weighted>
   9.000000E+99

> <Gold.Protein.RotatedTorsions>
[ 6907 6896 6895 6894 ] final   82.46 input  -60.11 | X-H torsion
[ 7974 7965 7964 7962 ] final  137.96 input  175.53 | X-H torsion
[ 8008 7997 7996 7995 ] final   22.19 input   59.86 | X-H torsion
[ 10167 10162 10161 10158 ] final   -6.28 input  -65.29 | X-H torsion
[ 10718 10713 10712 10709 ] final   79.99 input   66.30 | X-H torsion
[ 10763 10752 10751 10750 ] final  -83.96 input  -60.55 | X-H torsion
[ 11005 11000 10999 10996 ] final -169.59 input  -57.11 | X-H torsion

> <Gold.Protein.ActiveResidues>
 VAL166  LYS551  ARG553  GLY616  TRP617  ASP618  TYR619  PRO620  LYS621  CYS622 
 ASP623  PHE694  ASN695  SER759  ASP760  ASP761  ALA762  ILE779  LEU786  VAL792 
 PHE793  MET794  SER795  GLU796  ALA797  LYS798  CYS799  TRP800  GLU811  SER814 

> <Gold.Protein.RotatedAtoms>
  152.5300  134.3046  159.9090 H   0  0  0  0  0  0  0  0  0  0  0  0  # atno 6907 bound_to 6896
  151.2997  133.4121  159.2646 H   0  0  0  0  0  0  0  0  0  0  0  0  # atno 6908 bound_to 6896
  151.0130  134.9427  159.8075 H   0  0  0  0  0  0  0  0  0  0  0  0  # atno 6909 bound_to 6896
  144.9418  139.4922  143.5568 H   0  0  0  0  0  0  0  0  0  0  0  0  # atno 7974 bound_to 7965
  154.9619  140.3079  155.5027 H   0  0  0  0  0  0  0  0  0  0  0  0  # atno 8008 bound_to 7997
  156.2976  140.2299  156.4644 H   0  0  0  0  0  0  0  0  0  0  0  0  # atno 8009 bound_to 7997
  154.7957  140.0437  157.1223 H   0  0  0  0  0  0  0  0  0  0  0  0  # atno 8010 bound_to 7997
  140.6992  143.6212  150.8611 H   0  0  0  0  0  0  0  0  0  0  0  0  # atno 10167 bound_to 10162
  157.6793  130.9939  150.2013 H   0  0  0  0  0  0  0  0  0  0  0  0  # atno 10718 bound_to 10713
  154.5939  135.5537  153.7306 H   0  0  0  0  0  0  0  0  0  0  0  0  # atno 10763 bound_to 10752
  153.0127  135.6350  154.1810 H   0  0  0  0  0  0  0  0  0  0  0  0  # atno 10764 bound_to 10752
  154.1751  135.2890  155.3049 H   0  0  0  0  0  0  0  0  0  0  0  0  # atno 10765 bound_to 10752
  140.5290  134.5635  157.5069 H   0  0  0  0  0  0  0  0  0  0  0  0  # atno 11005 bound_to 11000
  146.3288  139.8443  142.8885 LP  0  0  0  0  0  0  0  0  0  0  0  0  # atno 17320 bound_to 7965
  145.2979  141.0186  143.3625 LP  0  0  0  0  0  0  0  0  0  0  0  0  # atno 17321 bound_to 7965
  139.9932  143.5824  152.2902 LP  0  0  0  0  0  0  0  0  0  0  0  0  # atno 17342 bound_to 10162
  139.6487  144.7659  151.2192 LP  0  0  0  0  0  0  0  0  0  0  0  0  # atno 17343 bound_to 10162
  156.2703  130.3721  149.8038 LP  0  0  0  0  0  0  0  0  0  0  0  0  # atno 17370 bound_to 10713
  156.5757  130.8444  151.3369 LP  0  0  0  0  0  0  0  0  0  0  0  0  # atno 17371 bound_to 10713
  139.9564  134.7527  156.0331 LP  0  0  0  0  0  0  0  0  0  0  0  0  # atno 17394 bound_to 11000
  141.1292  133.6591  156.3418 LP  0  0  0  0  0  0  0  0  0  0  0  0  # atno 17395 bound_to 11000

$$$$
