AV-unprocessed.smi:3122|AV-procd|sdf|11898|dock10
  -GOLD-   2272017283D 1   1.00000     0.00000
 Structure written by MMmdl.
 29 30  0  0  0  0  0  0  0  0  1 V2000
  153.7155  141.1710  160.9747 C   0  0  0  0  0  0  0  0  0  0  0  0
  153.0435  142.4578  160.4729 C   0  0  0  0  0  0  0  0  0  0  0  0
  152.3846  143.2513  161.6100 C   0  0  0  0  0  0  0  0  0  0  0  0
  152.0786  142.1915  159.3606 C   0  0  0  0  0  0  0  0  0  0  0  0
  150.8563  142.7074  159.2018 N   0  0  0  0  0  0  0  0  0  0  0  0
  150.4098  142.2502  157.9827 N   0  0  0  0  0  0  0  0  0  0  0  0
  151.4017  141.5043  157.4875 C   0  0  0  0  0  0  0  0  0  0  0  0
  151.4637  140.8271  156.1563 C   0  0  2  0  0  0  0  0  0  0  0  0
  150.1667  141.0117  155.3451 C   0  0  0  0  0  0  0  0  0  0  0  0
  150.2431  140.2638  154.0910 N   0  0  0  0  0  0  0  0  0  0  0  0
  150.5471  138.8540  154.3335 C   0  0  0  0  0  0  0  0  0  0  0  0
  151.8280  138.7183  155.1764 C   0  0  0  0  0  0  0  0  0  0  0  0
  151.6767  139.4383  156.3950 O   0  0  0  0  0  0  0  0  0  0  0  0
  152.4951  141.4633  158.2921 O   0  0  0  0  0  0  0  0  0  0  0  0
  154.2242  140.6523  160.1615 H   0  0  0  0  0  0  0  0  0  0  0  0
  152.9874  140.4827  161.4057 H   0  0  0  0  0  0  0  0  0  0  0  0
  154.4592  141.3897  161.7415 H   0  0  0  0  0  0  0  0  0  0  0  0
  153.8339  143.0857  160.0599 H   0  0  0  0  0  0  0  0  0  0  0  0
  151.9780  144.1948  161.2441 H   0  0  0  0  0  0  0  0  0  0  0  0
  153.1038  143.4845  162.3955 H   0  0  0  0  0  0  0  0  0  0  0  0
  151.5666  142.6895  162.0625 H   0  0  0  0  0  0  0  0  0  0  0  0
  152.3138  141.2369  155.6078 H   0  0  0  0  0  0  0  0  0  0  0  0
  149.3140  140.6650  155.9303 H   0  0  0  0  0  0  0  0  0  0  0  0
  149.9983  142.0693  155.1405 H   0  0  0  0  0  0  0  0  0  0  0  0
  149.3610  140.3410  153.5948 H   0  0  0  0  0  0  0  0  0  0  0  0
  149.7148  138.3792  154.8544 H   0  0  0  0  0  0  0  0  0  0  0  0
  150.6645  138.3280  153.3860 H   0  0  0  0  0  0  0  0  0  0  0  0
  152.0144  137.6698  155.4085 H   0  0  0  0  0  0  0  0  0  0  0  0
  152.6983  139.0824  154.6278 H   0  0  0  0  0  0  0  0  0  0  0  0
  1  2  1  0  0  0  0
  1 15  1  0  0  0  0
  1 16  1  0  0  0  0
  1 17  1  0  0  0  0
  2  3  1  0  0  0  0
  2  4  1  0  0  0  0
  2 18  1  0  0  0  0
  3 19  1  0  0  0  0
  3 20  1  0  0  0  0
  3 21  1  0  0  0  0
  4 14  1  0  0  0  0
  4  5  2  0  0  0  0
  5  6  1  0  0  0  0
  6  7  2  0  0  0  0
  7  8  1  0  0  0  0
  7 14  1  0  0  0  0
  8 13  1  0  0  0  0
  8  9  1  0  0  0  0
  8 22  1  0  0  0  0
  9 10  1  0  0  0  0
  9 23  1  0  0  0  0
  9 24  1  0  0  0  0
 10 11  1  0  0  0  0
 10 25  1  0  0  0  0
 11 12  1  0  0  0  0
 11 26  1  0  0  0  0
 11 27  1  0  0  0  0
 12 13  1  0  0  0  0
 12 28  1  0  0  0  0
 12 29  1  0  0  0  0
M  END
> <s_m_source_file>
AV-unprocessed.smi

> <i_m_source_file_index>
3122

> <i_lp_mmshare_version>
43012

> <i_f3d_flags>
0

> <s_epik_input>
W0NIM11bQ0hdKFtDSDNdKWMxbm5jKG8xKVtDQEBIXTJbQ0gyXVtOSF1bQ0gyXVtDSDJdTzI=

> <s_epik_cmdline>
J2VwaWtfcHl0aG9uJywgJy1waCcsICc3LjAnLCAnLXRuJywgJzgnLCAnLW1hJywgJzIwMCcsICctbWV0YWxfYmluZGluZycsICctaW1hZScsICc8aW5maWxlLm1hZT4nLCAnLW9tYWUnLCAnPG91dGZpbGUubWFlPic=

> <r_lp_tautomer_probability>
1

> <r_epik_Ionization_Penalty>
1.64488

> <r_epik_Ionization_Penalty_Charging>
0

> <r_epik_Ionization_Penalty_Neutral>
1.64488

> <r_epik_State_Penalty>
1.74649

> <r_epik_Charging_Adjusted_Penalty>
1.74649

> <i_epik_Tot_Q>
0

> <i_epik_Tot_abs_Q>
0

> <r_epik_Metal_State_Penalty>
1.74649

> <b_epik_Metal_Only>
0

> <s_lp_Force_Field>
OPLS_2005

> <r_lp_Energy>
11.6401

> <b_lp_Chiralities_Consistent>
1

> <s_lp_Variant>
AV-unprocessed.smi:3122-3

> <Gold.Version>
5.8.1

> <Gold.Id.Protein>
6NUR|6NUR_protein|mol2

> <Gold.PLP.Fitness>
34.7458

> <Gold.PLP.PLP>
-32.1004

> <Gold.PLP.part.hbond>
-2.5138

> <Gold.PLP.part.metal>
0.0000

> <Gold.PLP.part.buried>
-3.3685

> <Gold.PLP.part.nonpolar>
-25.1951

> <Gold.PLP.part.repulsive>
0.1067

> <Gold.PLP.ligand.clash>
0.0000

> <Gold.PLP.ligand.torsion>
0.2066

> <Gold.PLP.Chemscore.Hbond>
0.9760

> <Gold.PLP.Chemscore.CHOScore>
0.0000

> <Gold.PLP.Chemscore.Metal>
0.0000

> <Gold.Chemscore.Hbonds>
donor molecule, donor type, donor heavy atom, donor atom, acceptor molecule, acceptor atom, score
      P1  H  7989  7998       L1    10  0.93

> <Gold.PLP.Chemscore.Internal.Correction>
0.1306

> <Gold.Rescore>
     Score         DG    S(hbond)    S(metal)    S(lipo)     H(rot)  DE(clash)    DE(int)     intcor
     10.63     -10.73       0.32        0.00      62.94       1.24       0.00       0.10       ----

> <Gold.Chemscore.Fitness>
10.6316

> <Gold.Chemscore.DG>
-10.7287

> <Gold.Chemscore.ZeroCoef>
-5.4800

> <Gold.Chemscore.Hbond>
0.3186

> <Gold.Chemscore.Metal>
0.0000

> <Gold.Chemscore.Lipo>
62.9432

> <Gold.Chemscore.Internal_Hbond>
0.0000

> <Gold.Chemscore.DEClash>
0.0009

> <Gold.Chemscore.DEInternal>
0.0962

> <Gold.Chemscore.Rot>
1.2422

> <Gold.Chemscore.Internal.Correction>
   9.000000E+99

> <Gold.Chemscore.Hbonds>
donor molecule, donor type, donor heavy atom, donor atom, acceptor molecule, acceptor atom, score
      L1  H    10    25       P1  7957  0.01
      P1  H  7989  7998       L1    10  0.11

> <Gold.Chemscore.Hbond.Weighted>
-1.0643

> <Gold.Chemscore.Metal.Weighted>
-0.0000

> <Gold.Chemscore.Lipo.Weighted>
-7.3643

> <Gold.Chemscore.Internal_Hbond.Weighted>
0.0000

> <Gold.Chemscore.DEClash.Weighted>
0.0009

> <Gold.Chemscore.DEInternal.Weighted>
0.0962

> <Gold.Chemscore.Rot.Weighted>
3.1799

> <Gold.Chemscore.Internal.Correction.Weighted>
   9.000000E+99

> <Gold.Protein.RotatedTorsions>
[ 6907 6896 6895 6894 ] final   41.93 input  -60.11 | X-H torsion
[ 7974 7965 7964 7962 ] final  -52.23 input  175.53 | X-H torsion
[ 8008 7997 7996 7995 ] final  -51.66 input   59.86 | X-H torsion
[ 10167 10162 10161 10158 ] final  152.67 input  -65.29 | X-H torsion
[ 10718 10713 10712 10709 ] final    4.68 input   66.30 | X-H torsion
[ 10763 10752 10751 10750 ] final -168.50 input  -60.55 | X-H torsion
[ 11005 11000 10999 10996 ] final   -5.93 input  -57.11 | X-H torsion

> <Gold.Protein.ActiveResidues>
 VAL166  LYS551  ARG553  GLY616  TRP617  ASP618  TYR619  PRO620  LYS621  CYS622 
 ASP623  PHE694  ASN695  SER759  ASP760  ASP761  ALA762  ILE779  LEU786  VAL792 
 PHE793  MET794  SER795  GLU796  ALA797  LYS798  CYS799  TRP800  GLU811  SER814 

> <Gold.Protein.RotatedAtoms>
  152.2014  134.8584  160.0507 H   0  0  0  0  0  0  0  0  0  0  0  0  # atno 6907 bound_to 6896
  151.9436  133.3640  159.3982 H   0  0  0  0  0  0  0  0  0  0  0  0  # atno 6908 bound_to 6896
  150.6955  134.4338  159.5304 H   0  0  0  0  0  0  0  0  0  0  0  0  # atno 6909 bound_to 6896
  145.9102  140.7921  142.9699 H   0  0  0  0  0  0  0  0  0  0  0  0  # atno 7974 bound_to 7965
  154.4088  140.1242  156.4864 H   0  0  0  0  0  0  0  0  0  0  0  0  # atno 8008 bound_to 7997
  155.7034  140.3494  155.4923 H   0  0  0  0  0  0  0  0  0  0  0  0  # atno 8009 bound_to 7997
  155.9365  140.1079  157.1080 H   0  0  0  0  0  0  0  0  0  0  0  0  # atno 8010 bound_to 7997
  139.4831  144.5338  151.7679 H   0  0  0  0  0  0  0  0  0  0  0  0  # atno 10167 bound_to 10162
  156.8962  130.5705  149.5649 H   0  0  0  0  0  0  0  0  0  0  0  0  # atno 10718 bound_to 10713
  154.6622  135.2926  154.9851 H   0  0  0  0  0  0  0  0  0  0  0  0  # atno 10763 bound_to 10752
  154.0907  135.6591  153.4856 H   0  0  0  0  0  0  0  0  0  0  0  0  # atno 10764 bound_to 10752
  153.0437  135.5219  154.7579 H   0  0  0  0  0  0  0  0  0  0  0  0  # atno 10765 bound_to 10752
  140.6965  133.9026  155.8653 H   0  0  0  0  0  0  0  0  0  0  0  0  # atno 11005 bound_to 11000
  144.6742  140.1814  143.7405 LP  0  0  0  0  0  0  0  0  0  0  0  0  # atno 17320 bound_to 7965
  145.8681  139.2257  143.1677 LP  0  0  0  0  0  0  0  0  0  0  0  0  # atno 17321 bound_to 7965
  140.4867  144.1370  150.5942 LP  0  0  0  0  0  0  0  0  0  0  0  0  # atno 17342 bound_to 10162
  140.4217  143.2609  151.9707 LP  0  0  0  0  0  0  0  0  0  0  0  0  # atno 17343 bound_to 10162
  156.0604  130.5658  150.9181 LP  0  0  0  0  0  0  0  0  0  0  0  0  # atno 17370 bound_to 10713
  157.6054  131.0939  150.8889 LP  0  0  0  0  0  0  0  0  0  0  0  0  # atno 17371 bound_to 10713
  141.0199  134.0903  157.4132 LP  0  0  0  0  0  0  0  0  0  0  0  0  # atno 17394 bound_to 11000
  139.8909  135.0115  156.6760 LP  0  0  0  0  0  0  0  0  0  0  0  0  # atno 17395 bound_to 11000

$$$$
