AV-unprocessed.smi:2078|AV-procd|sdf|8474|dock3
  -GOLD-   2272011173D 1   1.00000     0.00000
 Structure written by MMmdl.
 41 42  0  0  0  0  0  0  0  0  3 V2000
  152.8700  141.3717  159.7384 C   0  0  0  0  0  0  0  0  0  0  0  0
  152.0763  140.9443  158.5519 C   0  0  0  0  0  0  0  0  0  0  0  0
  150.8660  141.3349  158.0522 C   0  0  0  0  0  0  0  0  0  0  0  0
  150.7156  140.5187  156.8996 C   0  0  0  0  0  0  0  0  0  0  0  0
  149.5556  140.6190  156.0869 N   0  0  0  0  0  0  0  0  0  0  0  0
  149.3308  140.0842  154.8733 C   0  0  0  0  0  0  0  0  0  0  0  0
  150.2162  139.4364  154.3017 O   0  0  0  0  0  0  0  0  0  0  0  0
  148.0716  140.3373  154.4196 N   0  5  0  0  0  0  0  0  0  0  0  0
  147.3159  139.4776  153.5027 C   0  0  0  0  0  0  0  0  0  0  0  0
  147.0074  138.1157  154.1612 C   0  0  0  0  0  0  0  0  0  0  0  0
  146.7895  137.0453  153.1512 N   0  3  2  0  0  0  0  0  0  0  0  0
  145.9337  137.4581  152.0076 C   0  0  0  0  0  0  0  0  0  0  0  0
  145.9291  136.3770  150.9159 C   0  0  0  0  0  0  0  0  0  0  0  0
  145.4760  135.0255  151.4848 C   0  0  0  0  0  0  0  0  0  0  0  0
  146.3480  134.6321  152.6902 C   0  0  2  0  0  0  0  0  0  0  0  0
  145.9013  133.2942  153.2954 C   0  0  0  0  0  0  0  0  0  0  0  0
  146.3438  135.7582  153.7433 C   0  0  0  0  0  0  0  0  0  0  0  0
  151.7409  139.6998  156.7160 N   0  0  0  0  0  0  0  0  0  0  0  0
  152.6184  139.9695  157.7728 O   0  0  0  0  0  0  0  0  0  0  0  0
  152.3278  142.1150  160.3228 H   0  0  0  0  0  0  0  0  0  0  0  0
  153.8193  141.8102  159.4300 H   0  0  0  0  0  0  0  0  0  0  0  0
  153.0836  140.5218  160.3868 H   0  0  0  0  0  0  0  0  0  0  0  0
  150.1979  142.0854  158.4476 H   0  0  0  0  0  0  0  0  0  0  0  0
  148.7935  141.1520  156.4794 H   0  0  0  0  0  0  0  0  0  0  0  0
  146.3717  139.9463  153.2265 H   0  0  0  0  0  0  0  0  0  0  0  0
  147.8390  139.3107  152.5602 H   0  0  0  0  0  0  0  0  0  0  0  0
  147.8349  137.8547  154.8230 H   0  0  0  0  0  0  0  0  0  0  0  0
  146.1324  138.2007  154.8072 H   0  0  0  0  0  0  0  0  0  0  0  0
  144.9181  137.6460  152.3591 H   0  0  0  0  0  0  0  0  0  0  0  0
  146.3023  138.3937  151.5853 H   0  0  0  0  0  0  0  0  0  0  0  0
  145.2749  136.6756  150.0965 H   0  0  0  0  0  0  0  0  0  0  0  0
  146.9309  136.2804  150.4941 H   0  0  0  0  0  0  0  0  0  0  0  0
  144.4293  135.0874  151.7861 H   0  0  0  0  0  0  0  0  0  0  0  0
  145.5331  134.2599  150.7103 H   0  0  0  0  0  0  0  0  0  0  0  0
  147.3737  134.5071  152.3381 H   0  0  0  0  0  0  0  0  0  0  0  0
  144.8802  133.3508  153.6739 H   0  0  0  0  0  0  0  0  0  0  0  0
  146.5481  133.0034  154.1239 H   0  0  0  0  0  0  0  0  0  0  0  0
  145.9384  132.4959  152.5536 H   0  0  0  0  0  0  0  0  0  0  0  0
  147.0162  135.4864  154.5585 H   0  0  0  0  0  0  0  0  0  0  0  0
  145.3494  135.8803  154.1753 H   0  0  0  0  0  0  0  0  0  0  0  0
  147.7089  136.8637  152.7710 H   0  0  0  0  0  0  0  0  0  0  0  0
  1  2  1  0  0  0  0
  1 20  1  0  0  0  0
  1 21  1  0  0  0  0
  1 22  1  0  0  0  0
  2 19  1  0  0  0  0
  2  3  2  0  0  0  0
  3  4  1  0  0  0  0
  3 23  1  0  0  0  0
  4  5  1  0  0  0  0
  4 18  2  0  0  0  0
  5  6  1  0  0  0  0
  5 24  1  0  0  0  0
  6  7  2  0  0  0  0
  6  8  1  0  0  0  0
  8  9  1  0  0  0  0
  9 10  1  0  0  0  0
  9 25  1  0  0  0  0
  9 26  1  0  0  0  0
 10 11  1  0  0  0  0
 10 27  1  0  0  0  0
 10 28  1  0  0  0  0
 11 17  1  0  0  0  0
 11 12  1  0  0  0  0
 11 41  1  0  0  0  0
 12 13  1  0  0  0  0
 12 29  1  0  0  0  0
 12 30  1  0  0  0  0
 13 14  1  0  0  0  0
 13 31  1  0  0  0  0
 13 32  1  0  0  0  0
 14 15  1  0  0  0  0
 14 33  1  0  0  0  0
 14 34  1  0  0  0  0
 15 16  1  0  0  0  0
 15 17  1  0  0  0  0
 15 35  1  0  0  0  0
 16 36  1  0  0  0  0
 16 37  1  0  0  0  0
 16 38  1  0  0  0  0
 17 39  1  0  0  0  0
 17 40  1  0  0  0  0
 18 19  1  0  0  0  0
M  CHG  1   8  -1
M  CHG  1  11   1
M  END
> <s_m_source_file>
AV-unprocessed.smi

> <i_m_source_file_index>
2078

> <i_lp_mmshare_version>
43012

> <i_f3d_flags>
0

> <s_epik_input>
W0NIM11jMVtjSF1jKG5vMSlbTkhdQyg9TylbTkhdW0NIMl1bQ0gyXU4yW0NIMl1bQ0gyXVtDSDJdW0NAQEhdKFtDSDNdKVtDSDJdMg==

> <s_epik_cmdline>
J2VwaWtfcHl0aG9uJywgJy1waCcsICc3LjAnLCAnLXRuJywgJzgnLCAnLW1hJywgJzIwMCcsICctbWV0YWxfYmluZGluZycsICctaW1hZScsICc8aW5maWxlLm1hZT4nLCAnLW9tYWUnLCAnPG91dGZpbGUubWFlPic=

> <r_epik_Ionization_Penalty>
6.76934

> <r_epik_Ionization_Penalty_Charging>
6.76934

> <r_epik_Ionization_Penalty_Neutral>
5.77849e-06

> <r_epik_State_Penalty>
6.79457

> <r_epik_Charging_Adjusted_Penalty>
13.5639

> <i_epik_Tot_Q>
0

> <i_epik_Tot_abs_Q>
2

> <r_epik_Metal_State_Penalty>
2.72837

> <b_epik_Metal_Only>
1

> <s_lp_Force_Field>
OPLS_2005

> <r_lp_Energy>
9.58201

> <b_lp_Chiralities_Consistent>
1

> <s_lp_Variant>
AV-unprocessed.smi:2078-12

> <Gold.Version>
5.8.1

> <Gold.Id.Protein>
6NUR|6NUR_protein|mol2

> <Gold.PLP.Fitness>
37.5427

> <Gold.PLP.PLP>
-26.3110

> <Gold.PLP.part.hbond>
-3.0000

> <Gold.PLP.part.metal>
0.0000

> <Gold.PLP.part.buried>
-0.7045

> <Gold.PLP.part.nonpolar>
-22.8776

> <Gold.PLP.part.repulsive>
0.7959

> <Gold.PLP.ligand.clash>
0.0000

> <Gold.PLP.ligand.torsion>
0.4153

> <Gold.PLP.Chemscore.Hbond>
4.0000

> <Gold.PLP.Chemscore.CHOScore>
0.0000

> <Gold.PLP.Chemscore.Metal>
0.0000

> <Gold.Chemscore.Hbonds>
donor molecule, donor type, donor heavy atom, donor atom, acceptor molecule, acceptor atom, score
      L1  H    11    41       P1  7948  2.00
      P1  H  7989  7998       L1     7  0.67
      P1  H  7997  8009       L1    19  0.91

> <Gold.PLP.Chemscore.Internal.Correction>
0.0623

> <Gold.Rescore>
     Score         DG    S(hbond)    S(metal)    S(lipo)     H(rot)  DE(clash)    DE(int)     intcor
     15.33     -17.30       2.72        0.00      56.97       1.54       0.19       1.78       ----

> <Gold.Chemscore.Fitness>
15.3279

> <Gold.Chemscore.DG>
-17.3007

> <Gold.Chemscore.ZeroCoef>
-5.4800

> <Gold.Chemscore.Hbond>
2.7244

> <Gold.Chemscore.Metal>
0.0000

> <Gold.Chemscore.Lipo>
56.9714

> <Gold.Chemscore.Internal_Hbond>
0.0000

> <Gold.Chemscore.DEClash>
0.1889

> <Gold.Chemscore.DEInternal>
1.7839

> <Gold.Chemscore.Rot>
1.5409

> <Gold.Chemscore.Internal.Correction>
   9.000000E+99

> <Gold.Chemscore.Hbonds>
donor molecule, donor type, donor heavy atom, donor atom, acceptor molecule, acceptor atom, score
      L1  H    11    41       P1  7948  1.00
      P1  H  7989  7998       L1     7  0.40
      P1  H  7997  8009       L1    19  0.22

> <Gold.Chemscore.Hbond.Weighted>
-9.0996

> <Gold.Chemscore.Metal.Weighted>
-0.0000

> <Gold.Chemscore.Lipo.Weighted>
-6.6657

> <Gold.Chemscore.Internal_Hbond.Weighted>
0.0000

> <Gold.Chemscore.DEClash.Weighted>
0.1889

> <Gold.Chemscore.DEInternal.Weighted>
1.7839

> <Gold.Chemscore.Rot.Weighted>
3.9446

> <Gold.Chemscore.Internal.Correction.Weighted>
   9.000000E+99

> <Gold.Protein.RotatedTorsions>
[ 6907 6896 6895 6894 ] final  134.19 input  -60.11 | X-H torsion
[ 7974 7965 7964 7962 ] final   85.97 input  175.53 | X-H torsion
[ 8008 7997 7996 7995 ] final  174.13 input   59.86 | X-H torsion
[ 10167 10162 10161 10158 ] final -109.47 input  -65.29 | X-H torsion
[ 10718 10713 10712 10709 ] final  177.10 input   66.30 | X-H torsion
[ 10763 10752 10751 10750 ] final   67.49 input  -60.55 | X-H torsion
[ 11005 11000 10999 10996 ] final   51.16 input  -57.11 | X-H torsion

> <Gold.Protein.ActiveResidues>
 VAL166  LYS551  ARG553  GLY616  TRP617  ASP618  TYR619  PRO620  LYS621  CYS622 
 ASP623  PHE694  ASN695  SER759  ASP760  ASP761  ALA762  ILE779  LEU786  VAL792 
 PHE793  MET794  SER795  GLU796  ALA797  LYS798  CYS799  TRP800  GLU811  SER814 

> <Gold.Protein.RotatedAtoms>
  152.3140  133.5782  159.5699 H   0  0  0  0  0  0  0  0  0  0  0  0  # atno 6907 bound_to 6896
  150.7337  134.0110  159.3678 H   0  0  0  0  0  0  0  0  0  0  0  0  # atno 6908 bound_to 6896
  151.8001  135.0712  160.0450 H   0  0  0  0  0  0  0  0  0  0  0  0  # atno 6909 bound_to 6896
  145.5785  139.2322  143.2366 H   0  0  0  0  0  0  0  0  0  0  0  0  # atno 7974 bound_to 7965
  156.1005  140.1442  156.9474 H   0  0  0  0  0  0  0  0  0  0  0  0  # atno 8008 bound_to 7997
  154.4699  140.0913  156.7163 H   0  0  0  0  0  0  0  0  0  0  0  0  # atno 8009 bound_to 7997
  155.4768  140.3443  155.4336 H   0  0  0  0  0  0  0  0  0  0  0  0  # atno 8010 bound_to 7997
  140.1550  143.4167  152.1467 H   0  0  0  0  0  0  0  0  0  0  0  0  # atno 10167 bound_to 10162
  156.9103  130.9907  151.3022 H   0  0  0  0  0  0  0  0  0  0  0  0  # atno 10718 bound_to 10713
  153.0189  135.5282  154.6988 H   0  0  0  0  0  0  0  0  0  0  0  0  # atno 10763 bound_to 10752
  154.6102  135.2877  155.0442 H   0  0  0  0  0  0  0  0  0  0  0  0  # atno 10764 bound_to 10752
  154.1467  135.6569  153.5006 H   0  0  0  0  0  0  0  0  0  0  0  0  # atno 10765 bound_to 10752
  140.0956  134.5150  155.8810 H   0  0  0  0  0  0  0  0  0  0  0  0  # atno 11005 bound_to 11000
  146.1734  140.6611  142.9223 LP  0  0  0  0  0  0  0  0  0  0  0  0  # atno 17320 bound_to 7965
  144.7405  140.4928  143.6873 LP  0  0  0  0  0  0  0  0  0  0  0  0  # atno 17321 bound_to 7965
  139.5408  144.7254  151.4741 LP  0  0  0  0  0  0  0  0  0  0  0  0  # atno 17342 bound_to 10162
  140.6679  143.8358  150.6963 LP  0  0  0  0  0  0  0  0  0  0  0  0  # atno 17343 bound_to 10162
  157.5972  130.8486  149.8746 LP  0  0  0  0  0  0  0  0  0  0  0  0  # atno 17370 bound_to 10713
  156.0539  130.3712  150.1136 LP  0  0  0  0  0  0  0  0  0  0  0  0  # atno 17371 bound_to 10713
  141.2091  133.6680  156.6416 LP  0  0  0  0  0  0  0  0  0  0  0  0  # atno 17394 bound_to 11000
  140.3290  134.7944  157.4312 LP  0  0  0  0  0  0  0  0  0  0  0  0  # atno 17395 bound_to 11000

$$$$
