AV-unprocessed.smi:2492|AV-procd|sdf|9818|dock6
  -GOLD-   2272013453D 1   1.00000     0.00000
 Structure written by MMmdl.
 32 33  0  0  0  0  0  0  0  0  2 V2000
  152.2986  143.8180  160.5503 C   0  0  0  0  0  0  0  0  0  0  0  0
  153.4664  142.4367  160.4371 S   0  0  0  0  0  0  0  0  0  0  0  0
  152.3800  141.1560  159.7460 C   0  0  1  0  0  0  0  0  0  0  0  0
  151.7495  141.5749  158.4203 C   0  0  0  0  0  0  0  0  0  0  0  0
  151.3097  140.2587  157.7758 C   0  0  0  0  0  0  0  0  0  0  0  0
  152.2735  139.1786  158.3044 C   0  0  2  0  0  0  0  0  0  0  0  0
  151.5309  138.0348  158.8303 N   0  0  0  0  0  0  0  0  0  0  0  0
  150.5950  137.3340  158.1737 C   0  0  0  0  0  0  0  0  0  0  0  0
  150.3021  137.6348  157.0140 O   0  0  0  0  0  0  0  0  0  0  0  0
  150.0582  136.3283  158.9012 N   0  5  0  0  0  0  0  0  0  0  0  0
  148.9885  136.5608  159.6794 C   0  0  0  0  0  0  0  0  0  0  0  0
  148.5791  135.8008  160.6962 N   0  0  0  0  0  0  0  0  0  0  0  0
  147.4738  136.4710  161.1183 C   0  0  0  0  0  0  0  0  0  0  0  0
  146.6381  136.0140  162.2647 C   0  0  0  0  0  0  0  0  0  0  0  0
  147.1682  137.5666  160.4391 N   0  0  0  0  0  0  0  0  0  0  0  0
  148.1789  137.6315  159.4696 O   0  0  0  0  0  0  0  0  0  0  0  0
  153.1158  139.8587  159.4015 C   0  0  0  0  0  0  0  0  0  0  0  0
  152.8062  144.7083  160.9213 H   0  0  0  0  0  0  0  0  0  0  0  0
  151.4841  143.5775  161.2333 H   0  0  0  0  0  0  0  0  0  0  0  0
  151.8776  144.0428  159.5704 H   0  0  0  0  0  0  0  0  0  0  0  0
  151.5849  140.9411  160.4615 H   0  0  0  0  0  0  0  0  0  0  0  0
  150.9222  142.2733  158.5509 H   0  0  0  0  0  0  0  0  0  0  0  0
  152.4960  142.0574  157.7878 H   0  0  0  0  0  0  0  0  0  0  0  0
  150.2832  140.0407  158.0752 H   0  0  0  0  0  0  0  0  0  0  0  0
  151.3195  140.3188  156.6870 H   0  0  0  0  0  0  0  0  0  0  0  0
  152.9263  138.8463  157.4950 H   0  0  0  0  0  0  0  0  0  0  0  0
  151.7400  137.7521  159.7766 H   0  0  0  0  0  0  0  0  0  0  0  0
  145.7258  135.5421  161.8993 H   0  0  0  0  0  0  0  0  0  0  0  0
  146.3647  136.8583  162.8982 H   0  0  0  0  0  0  0  0  0  0  0  0
  147.1827  135.2908  162.8726 H   0  0  0  0  0  0  0  0  0  0  0  0
  154.1016  140.0917  158.9963 H   0  0  0  0  0  0  0  0  0  0  0  0
  153.2724  139.2295  160.2785 H   0  0  0  0  0  0  0  0  0  0  0  0
  1  2  1  0  0  0  0
  1 18  1  0  0  0  0
  1 19  1  0  0  0  0
  1 20  1  0  0  0  0
  2  3  1  0  0  0  0
  3 17  1  0  0  0  0
  3  4  1  0  0  0  0
  3 21  1  0  0  0  0
  4  5  1  0  0  0  0
  4 22  1  0  0  0  0
  4 23  1  0  0  0  0
  5  6  1  0  0  0  0
  5 24  1  0  0  0  0
  5 25  1  0  0  0  0
  6  7  1  0  0  0  0
  6 17  1  0  0  0  0
  6 26  1  0  0  0  0
  7  8  1  0  0  0  0
  7 27  1  0  0  0  0
  8  9  2  0  0  0  0
  8 10  1  0  0  0  0
 10 11  1  0  0  0  0
 11 16  1  0  0  0  0
 11 12  2  0  0  0  0
 12 13  1  0  0  0  0
 13 14  1  0  0  0  0
 13 15  2  0  0  0  0
 14 28  1  0  0  0  0
 14 29  1  0  0  0  0
 14 30  1  0  0  0  0
 15 16  1  0  0  0  0
 17 31  1  0  0  0  0
 17 32  1  0  0  0  0
M  CHG  1  10  -1
M  END
> <s_m_source_file>
AV-unprocessed.smi

> <i_m_source_file_index>
2492

> <i_lp_mmshare_version>
43012

> <i_f3d_flags>
0

> <s_epik_input>
W0NIM11TW0NAQEhdMVtDSDJdW0NIMl1bQ0BIXShbQ0gyXTEpW05IXUMoPU8pW05IXWMybmMoW0NIM10pbm8y

> <s_epik_cmdline>
J2VwaWtfcHl0aG9uJywgJy1waCcsICc3LjAnLCAnLXRuJywgJzgnLCAnLW1hJywgJzIwMCcsICctbWV0YWxfYmluZGluZycsICctaW1hZScsICc8aW5maWxlLm1hZT4nLCAnLW9tYWUnLCAnPG91dGZpbGUubWFlPic=

> <r_lp_tautomer_probability>
1

> <r_epik_Ionization_Penalty>
6.26454

> <r_epik_Ionization_Penalty_Charging>
6.26445

> <r_epik_Ionization_Penalty_Neutral>
9.05726e-05

> <r_epik_State_Penalty>
6.26444

> <r_epik_Charging_Adjusted_Penalty>
12.5289

> <i_epik_Tot_Q>
-1

> <i_epik_Tot_abs_Q>
1

> <r_epik_Metal_State_Penalty>
2.20125

> <b_epik_Metal_Only>
1

> <s_lp_Force_Field>
OPLS_2005

> <r_lp_Energy>
10.5143

> <b_lp_Chiralities_Consistent>
1

> <s_lp_Variant>
AV-unprocessed.smi:2492-8

> <Gold.Version>
5.8.1

> <Gold.Id.Protein>
6NUR|6NUR_protein|mol2

> <Gold.PLP.Fitness>
35.8759

> <Gold.PLP.PLP>
-28.6397

> <Gold.PLP.part.hbond>
-3.9436

> <Gold.PLP.part.metal>
0.0000

> <Gold.PLP.part.buried>
-2.4102

> <Gold.PLP.part.nonpolar>
-22.4063

> <Gold.PLP.part.repulsive>
0.1043

> <Gold.PLP.ligand.clash>
0.0000

> <Gold.PLP.ligand.torsion>
0.8947

> <Gold.PLP.Chemscore.Hbond>
3.0000

> <Gold.PLP.Chemscore.CHOScore>
0.0000

> <Gold.PLP.Chemscore.Metal>
0.0000

> <Gold.Chemscore.Hbonds>
donor molecule, donor type, donor heavy atom, donor atom, acceptor molecule, acceptor atom, score
      P1  H  6896  6907       L1    10  2.00
      P1  H  6934  6947       L1    15  0.95

> <Gold.PLP.Chemscore.Internal.Correction>
0.0255

> <Gold.Rescore>
     Score         DG    S(hbond)    S(metal)    S(lipo)     H(rot)  DE(clash)    DE(int)     intcor
     12.08     -13.84       1.27        0.00      62.86       1.27       0.02       1.73       ----

> <Gold.Chemscore.Fitness>
12.0829

> <Gold.Chemscore.DG>
-13.8350

> <Gold.Chemscore.ZeroCoef>
-5.4800

> <Gold.Chemscore.Hbond>
1.2740

> <Gold.Chemscore.Metal>
0.0000

> <Gold.Chemscore.Lipo>
62.8559

> <Gold.Chemscore.Internal_Hbond>
0.0000

> <Gold.Chemscore.DEClash>
0.0195

> <Gold.Chemscore.DEInternal>
1.7326

> <Gold.Chemscore.Rot>
1.2712

> <Gold.Chemscore.Internal.Correction>
   9.000000E+99

> <Gold.Chemscore.Hbonds>
donor molecule, donor type, donor heavy atom, donor atom, acceptor molecule, acceptor atom, score
      P1  H  6896  6907       L1    10  0.40
      P1  H  6934  6947       L1    15  0.20

> <Gold.Chemscore.Hbond.Weighted>
-4.2551

> <Gold.Chemscore.Metal.Weighted>
-0.0000

> <Gold.Chemscore.Lipo.Weighted>
-7.3541

> <Gold.Chemscore.Internal_Hbond.Weighted>
0.0000

> <Gold.Chemscore.DEClash.Weighted>
0.0195

> <Gold.Chemscore.DEInternal.Weighted>
1.7326

> <Gold.Chemscore.Rot.Weighted>
3.2542

> <Gold.Chemscore.Internal.Correction.Weighted>
   9.000000E+99

> <Gold.Protein.RotatedTorsions>
[ 6907 6896 6895 6894 ] final  -51.45 input  -60.11 | X-H torsion
[ 7974 7965 7964 7962 ] final  -86.20 input  175.53 | X-H torsion
[ 8008 7997 7996 7995 ] final -100.15 input   59.86 | X-H torsion
[ 10167 10162 10161 10158 ] final  -71.82 input  -65.29 | X-H torsion
[ 10718 10713 10712 10709 ] final -113.27 input   66.30 | X-H torsion
[ 10763 10752 10751 10750 ] final -176.45 input  -60.55 | X-H torsion
[ 11005 11000 10999 10996 ] final  166.55 input  -57.11 | X-H torsion

> <Gold.Protein.ActiveResidues>
 VAL166  LYS551  ARG553  GLY616  TRP617  ASP618  TYR619  PRO620  LYS621  CYS622 
 ASP623  PHE694  ASN695  SER759  ASP760  ASP761  ALA762  ILE779  LEU786  VAL792 
 PHE793  MET794  SER795  GLU796  ALA797  LYS798  CYS799  TRP800  GLU811  SER814 

> <Gold.Protein.RotatedAtoms>
  150.8610  134.7962  159.7082 H   0  0  0  0  0  0  0  0  0  0  0  0  # atno 6907 bound_to 6896
  152.4647  134.5100  159.9761 H   0  0  0  0  0  0  0  0  0  0  0  0  # atno 6908 bound_to 6896
  151.5204  133.3429  159.2936 H   0  0  0  0  0  0  0  0  0  0  0  0  # atno 6909 bound_to 6896
  145.4830  140.9556  143.1854 H   0  0  0  0  0  0  0  0  0  0  0  0  # atno 7974 bound_to 7965
  154.8247  140.0443  157.1435 H   0  0  0  0  0  0  0  0  0  0  0  0  # atno 8008 bound_to 7997
  154.9220  140.3028  155.5191 H   0  0  0  0  0  0  0  0  0  0  0  0  # atno 8009 bound_to 7997
  156.2983  140.2339  156.4271 H   0  0  0  0  0  0  0  0  0  0  0  0  # atno 8010 bound_to 7997
  140.5242  143.2328  151.7376 H   0  0  0  0  0  0  0  0  0  0  0  0  # atno 10167 bound_to 10162
  156.0756  130.5964  150.8619 H   0  0  0  0  0  0  0  0  0  0  0  0  # atno 10718 bound_to 10713
  154.5721  135.2829  155.0816 H   0  0  0  0  0  0  0  0  0  0  0  0  # atno 10763 bound_to 10752
  154.2185  135.6395  153.5141 H   0  0  0  0  0  0  0  0  0  0  0  0  # atno 10764 bound_to 10752
  153.0061  135.5508  154.6348 H   0  0  0  0  0  0  0  0  0  0  0  0  # atno 10765 bound_to 10752
  140.2676  134.7852  157.3647 H   0  0  0  0  0  0  0  0  0  0  0  0  # atno 11005 bound_to 11000
  144.7878  139.6391  143.7126 LP  0  0  0  0  0  0  0  0  0  0  0  0  # atno 17320 bound_to 7965
  146.2329  139.5849  142.9543 LP  0  0  0  0  0  0  0  0  0  0  0  0  # atno 17321 bound_to 7965
  139.4933  144.4210  151.9978 LP  0  0  0  0  0  0  0  0  0  0  0  0  # atno 17342 bound_to 10162
  140.3308  144.3318  150.5988 LP  0  0  0  0  0  0  0  0  0  0  0  0  # atno 17343 bound_to 10162
  157.5850  131.0945  150.9211 LP  0  0  0  0  0  0  0  0  0  0  0  0  # atno 17370 bound_to 10713
  156.9399  130.5381  149.5280 LP  0  0  0  0  0  0  0  0  0  0  0  0  # atno 17371 bound_to 10713
  140.1404  134.4979  155.8036 LP  0  0  0  0  0  0  0  0  0  0  0  0  # atno 17394 bound_to 11000
  141.2182  133.6823  156.7199 LP  0  0  0  0  0  0  0  0  0  0  0  0  # atno 17395 bound_to 11000

$$$$
