AV-unprocessed.smi:21|AV-procd|sdf|150|dock8
  -GOLD-   2262015373D 1   1.00000     0.00000
 Structure written by MMmdl.
 62 65  0  0  0  0  0  0  0  0  2 V2000
  140.0302  137.2606  153.7567 C   0  0  0  0  0  0  0  0  0  0  0  0
  141.1867  137.4498  154.5564 O   0  0  0  0  0  0  0  0  0  0  0  0
  142.1691  136.4347  154.3948 C   0  0  2  0  0  0  0  0  0  0  0  0
  143.3350  136.7282  155.3292 C   0  0  0  0  0  0  0  0  0  0  0  0
  144.1488  137.7880  154.5773 C   0  0  1  0  0  0  0  0  0  0  0  0
  145.6220  137.9065  155.0401 C   0  0  0  0  0  0  0  0  0  0  0  0
  146.0530  139.2985  155.1892 N   0  0  0  0  0  0  0  0  0  0  0  0
  145.1204  140.2502  155.7798 C   0  0  0  0  0  0  0  0  0  0  0  0
  147.3790  139.6046  155.1227 C   0  0  0  0  0  0  0  0  0  0  0  0
  148.0957  139.1135  154.0771 N   0  0  0  0  0  0  0  0  0  0  0  0
  149.3990  139.3771  153.9567 C   0  0  0  0  0  0  0  0  0  0  0  0
  150.1800  140.0970  154.7615 N   0  0  0  0  0  0  0  0  0  0  0  0
  149.4766  140.5918  155.8187 C   0  0  0  0  0  0  0  0  0  0  0  0
  148.0874  140.3991  156.0761 C   0  0  0  0  0  0  0  0  0  0  0  0
  147.7445  141.0464  157.2595 N   0  0  0  0  0  0  0  0  0  0  0  0
  148.8556  141.5932  157.6684 C   0  0  0  0  0  0  0  0  0  0  0  0
  149.9447  141.3764  156.8582 N   0  0  0  0  0  0  0  0  0  0  0  0
  151.2955  141.8645  157.0773 C   0  0  0  0  0  0  0  0  0  0  0  0
  151.8123  141.6134  158.5153 C   0  0  1  0  0  0  0  0  0  0  0  0
  152.7742  140.4024  158.5382 C   0  0  0  0  0  0  0  0  0  0  0  0
  152.1584  139.2668  157.9668 O   0  0  0  0  0  0  0  0  0  0  0  0
  152.4109  142.8922  159.1662 C   0  0  1  0  0  0  0  0  0  0  0  0
  151.7496  144.2112  158.7633 C   0  0  0  0  0  0  0  0  0  0  0  0
  151.5548  144.9542  160.0862 C   0  0  0  0  0  0  0  0  0  0  0  0
  152.4541  144.3221  160.9831 O   0  0  0  0  0  0  0  0  0  0  0  0
  152.4019  142.9346  160.6987 C   0  0  0  0  0  0  0  0  0  0  0  0
  143.9408  137.4957  153.1291 N   0  3  1  0  0  0  0  0  0  0  0  0
  145.1294  137.1122  152.3306 C   0  0  0  0  0  0  0  0  0  0  0  0
  142.8285  136.5212  153.0134 C   0  0  0  0  0  0  0  0  0  0  0  0
  141.7453  135.4495  154.5972 H   0  0  0  0  0  0  0  0  0  0  0  0
  143.6637  138.7514  154.7408 H   0  0  0  0  0  0  0  0  0  0  0  0
  139.3314  138.0789  153.9302 H   0  0  0  0  0  0  0  0  0  0  0  0
  139.5237  136.3296  154.0139 H   0  0  0  0  0  0  0  0  0  0  0  0
  140.2687  137.2454  152.6932 H   0  0  0  0  0  0  0  0  0  0  0  0
  143.0124  137.0590  156.3172 H   0  0  0  0  0  0  0  0  0  0  0  0
  143.9315  135.8239  155.4597 H   0  0  0  0  0  0  0  0  0  0  0  0
  145.7844  137.3390  155.9559 H   0  0  0  0  0  0  0  0  0  0  0  0
  146.2744  137.4512  154.2946 H   0  0  0  0  0  0  0  0  0  0  0  0
  145.3082  141.2601  155.4132 H   0  0  0  0  0  0  0  0  0  0  0  0
  145.2031  140.2482  156.8669 H   0  0  0  0  0  0  0  0  0  0  0  0
  144.0932  139.9931  155.5208 H   0  0  0  0  0  0  0  0  0  0  0  0
  149.8856  138.9507  153.0918 H   0  0  0  0  0  0  0  0  0  0  0  0
  148.9124  142.1759  158.5767 H   0  0  0  0  0  0  0  0  0  0  0  0
  151.9428  141.3754  156.3486 H   0  0  0  0  0  0  0  0  0  0  0  0
  151.3271  142.9299  156.8473 H   0  0  0  0  0  0  0  0  0  0  0  0
  150.9475  141.3458  159.1250 H   0  0  0  0  0  0  0  0  0  0  0  0
  153.6900  140.6166  157.9872 H   0  0  0  0  0  0  0  0  0  0  0  0
  153.0689  140.1404  159.5533 H   0  0  0  0  0  0  0  0  0  0  0  0
  151.3215  139.1354  158.3860 H   0  0  0  0  0  0  0  0  0  0  0  0
  153.4519  142.9883  158.8565 H   0  0  0  0  0  0  0  0  0  0  0  0
  152.4135  144.7720  158.1041 H   0  0  0  0  0  0  0  0  0  0  0  0
  150.8041  144.0900  158.2355 H   0  0  0  0  0  0  0  0  0  0  0  0
  151.7559  146.0224  160.0029 H   0  0  0  0  0  0  0  0  0  0  0  0
  150.5347  144.8262  160.4518 H   0  0  0  0  0  0  0  0  0  0  0  0
  151.4849  142.5243  161.1214 H   0  0  0  0  0  0  0  0  0  0  0  0
  153.2464  142.4056  161.1399 H   0  0  0  0  0  0  0  0  0  0  0  0
  145.5954  136.2063  152.7204 H   0  0  0  0  0  0  0  0  0  0  0  0
  145.8709  137.9107  152.3138 H   0  0  0  0  0  0  0  0  0  0  0  0
  144.8391  136.9219  151.2968 H   0  0  0  0  0  0  0  0  0  0  0  0
  143.2293  135.5382  152.7599 H   0  0  0  0  0  0  0  0  0  0  0  0
  142.1389  136.8025  152.2178 H   0  0  0  0  0  0  0  0  0  0  0  0
  143.6043  138.3597  152.7285 H   0  0  0  0  0  0  0  0  0  0  0  0
  1  2  1  0  0  0  0
  1 32  1  0  0  0  0
  1 33  1  0  0  0  0
  1 34  1  0  0  0  0
  2  3  1  0  0  0  0
  3 30  1  0  0  0  0
  3 29  1  0  0  0  0
  3  4  1  0  0  0  0
  4  5  1  0  0  0  0
  4 35  1  0  0  0  0
  4 36  1  0  0  0  0
  5 31  1  0  0  0  0
  5  6  1  0  0  0  0
  5 27  1  0  0  0  0
  6  7  1  0  0  0  0
  6 37  1  0  0  0  0
  6 38  1  0  0  0  0
  7  8  1  0  0  0  0
  7  9  1  0  0  0  0
  8 39  1  0  0  0  0
  8 40  1  0  0  0  0
  8 41  1  0  0  0  0
  9 14  1  0  0  0  0
  9 10  2  0  0  0  0
 10 11  1  0  0  0  0
 11 12  2  0  0  0  0
 11 42  1  0  0  0  0
 12 13  1  0  0  0  0
 13 17  1  0  0  0  0
 13 14  2  0  0  0  0
 14 15  1  0  0  0  0
 15 16  2  0  0  0  0
 16 17  1  0  0  0  0
 16 43  1  0  0  0  0
 17 18  1  0  0  0  0
 18 19  1  0  0  0  0
 18 44  1  0  0  0  0
 18 45  1  0  0  0  0
 19 20  1  0  0  0  0
 19 22  1  0  0  0  0
 19 46  1  0  0  0  0
 20 21  1  0  0  0  0
 20 47  1  0  0  0  0
 20 48  1  0  0  0  0
 21 49  1  0  0  0  0
 22 26  1  0  0  0  0
 22 23  1  0  0  0  0
 22 50  1  0  0  0  0
 23 24  1  0  0  0  0
 23 51  1  0  0  0  0
 23 52  1  0  0  0  0
 24 25  1  0  0  0  0
 24 53  1  0  0  0  0
 24 54  1  0  0  0  0
 25 26  1  0  0  0  0
 26 55  1  0  0  0  0
 26 56  1  0  0  0  0
 27 28  1  0  0  0  0
 27 29  1  0  0  0  0
 27 62  1  0  0  0  0
 28 57  1  0  0  0  0
 28 58  1  0  0  0  0
 28 59  1  0  0  0  0
 29 60  1  0  0  0  0
 29 61  1  0  0  0  0
M  CHG  1  27   1
M  END
> <s_m_source_file>
AV-unprocessed.smi

> <i_m_source_file_index>
21

> <i_lp_mmshare_version>
43012

> <i_f3d_flags>
0

> <s_epik_input>
W0NIM11PW0NASF0xW0NIMl1bQ0BIXShOKFtDSDNdKVtDSDJdMSlbQ0gyXU4oW0NIM10pYyhuW2NIXW4yKWMoYzIzKW5bY0hdbjNbQ0gyXVtDQEhdKFtDSDJdW09IXSlbQ0BASF00W0NIMl1bQ0gyXU9bQ0gyXTQ=

> <s_epik_cmdline>
J2VwaWtfcHl0aG9uJywgJy1waCcsICc3LjAnLCAnLXRuJywgJzgnLCAnLW1hJywgJzIwMCcsICctbWV0YWxfYmluZGluZycsICctaW1hZScsICc8aW5maWxlLm1hZT4nLCAnLW9tYWUnLCAnPG91dGZpbGUubWFlPic=

> <r_lp_tautomer_probability>
1

> <r_epik_Ionization_Penalty>
0.0157465

> <r_epik_Ionization_Penalty_Charging>
0.015354

> <r_epik_Ionization_Penalty_Neutral>
0.000392529

> <r_epik_State_Penalty>
0.0120612

> <r_epik_Charging_Adjusted_Penalty>
0.0274152

> <i_epik_Tot_Q>
1

> <i_epik_Tot_abs_Q>
1

> <r_epik_Metal_State_Penalty>
0.0121253

> <b_epik_Metal_Only>
0

> <s_lp_Force_Field>
OPLS_2005

> <r_lp_Energy>
62.4591

> <b_lp_Chiralities_Consistent>
1

> <s_lp_Variant>
AV-unprocessed.smi:21-30

> <Gold.Version>
5.8.1

> <Gold.Id.Protein>
6NUR|6NUR_protein|mol2

> <Gold.PLP.Fitness>
46.0336

> <Gold.PLP.PLP>
-39.7246

> <Gold.PLP.part.hbond>
-2.0000

> <Gold.PLP.part.metal>
0.0000

> <Gold.PLP.part.buried>
-4.9675

> <Gold.PLP.part.nonpolar>
-33.3374

> <Gold.PLP.part.repulsive>
0.5400

> <Gold.PLP.ligand.clash>
0.0000

> <Gold.PLP.ligand.torsion>
2.8207

> <Gold.PLP.Chemscore.Hbond>
3.0000

> <Gold.PLP.Chemscore.CHOScore>
0.7445

> <Gold.PLP.Chemscore.Metal>
0.0000

> <Gold.Chemscore.Hbonds>
donor molecule, donor type, donor heavy atom, donor atom, acceptor molecule, acceptor atom, score
      L1  H    27    62       P1 10175  1.69
      P1  H  7989  7998       L1    12  0.89
      L1  C    11    42       P1  7957  0.75

> <Gold.PLP.Chemscore.Internal.Correction>
0.7171

> <Gold.Rescore>
     Score         DG    S(hbond)    S(metal)    S(lipo)     H(rot)  DE(clash)    DE(int)     intcor
     10.00     -12.60       1.04        0.00      98.29       3.08       0.23       2.37       ----

> <Gold.Chemscore.Fitness>
9.9966

> <Gold.Chemscore.DG>
-12.5955

> <Gold.Chemscore.ZeroCoef>
-5.4800

> <Gold.Chemscore.Hbond>
1.0447

> <Gold.Chemscore.Metal>
0.0000

> <Gold.Chemscore.Lipo>
98.2927

> <Gold.Chemscore.Internal_Hbond>
0.0000

> <Gold.Chemscore.DEClash>
0.2313

> <Gold.Chemscore.DEInternal>
2.3676

> <Gold.Chemscore.Rot>
3.0758

> <Gold.Chemscore.Internal.Correction>
   9.000000E+99

> <Gold.Chemscore.Hbonds>
donor molecule, donor type, donor heavy atom, donor atom, acceptor molecule, acceptor atom, score
      L1  H    27    62       P1 10175  0.80
      P1  H  7989  7998       L1    12  0.39

> <Gold.Chemscore.Hbond.Weighted>
-3.4894

> <Gold.Chemscore.Metal.Weighted>
-0.0000

> <Gold.Chemscore.Lipo.Weighted>
-11.5003

> <Gold.Chemscore.Internal_Hbond.Weighted>
0.0000

> <Gold.Chemscore.DEClash.Weighted>
0.2313

> <Gold.Chemscore.DEInternal.Weighted>
2.3676

> <Gold.Chemscore.Rot.Weighted>
7.8741

> <Gold.Chemscore.Internal.Correction.Weighted>
   9.000000E+99

> <Gold.Protein.RotatedTorsions>
[ 6907 6896 6895 6894 ] final  -26.15 input  -60.11 | X-H torsion
[ 7974 7965 7964 7962 ] final  -49.76 input  175.53 | X-H torsion
[ 8008 7997 7996 7995 ] final  -96.21 input   59.86 | X-H torsion
[ 10167 10162 10161 10158 ] final    2.65 input  -65.29 | X-H torsion
[ 10718 10713 10712 10709 ] final   97.56 input   66.30 | X-H torsion
[ 10763 10752 10751 10750 ] final    7.20 input  -60.55 | X-H torsion
[ 11005 11000 10999 10996 ] final -132.83 input  -57.11 | X-H torsion

> <Gold.Protein.ActiveResidues>
 VAL166  LYS551  ARG553  GLY616  TRP617  ASP618  TYR619  PRO620  LYS621  CYS622 
 ASP623  PHE694  ASN695  SER759  ASP760  ASP761  ALA762  ILE779  LEU786  VAL792 
 PHE793  MET794  SER795  GLU796  ALA797  LYS798  CYS799  TRP800  GLU811  SER814 

> <Gold.Protein.RotatedAtoms>
  151.1650  135.0291  159.8726 H   0  0  0  0  0  0  0  0  0  0  0  0  # atno 6907 bound_to 6896
  152.5450  134.1236  159.8419 H   0  0  0  0  0  0  0  0  0  0  0  0  # atno 6908 bound_to 6896
  151.1335  133.4974  159.2631 H   0  0  0  0  0  0  0  0  0  0  0  0  # atno 6909 bound_to 6896
  145.9371  140.7696  142.9570 H   0  0  0  0  0  0  0  0  0  0  0  0  # atno 7974 bound_to 7965
  154.7714  140.0473  157.1054 H   0  0  0  0  0  0  0  0  0  0  0  0  # atno 8008 bound_to 7997
  154.9816  140.3102  155.4924 H   0  0  0  0  0  0  0  0  0  0  0  0  # atno 8009 bound_to 7997
  156.2922  140.2235  156.4915 H   0  0  0  0  0  0  0  0  0  0  0  0  # atno 8010 bound_to 7997
  140.6625  143.7267  150.7765 H   0  0  0  0  0  0  0  0  0  0  0  0  # atno 10167 bound_to 10162
  157.6910  131.0613  150.4662 H   0  0  0  0  0  0  0  0  0  0  0  0  # atno 10718 bound_to 10713
  153.2390  135.6901  153.7804 H   0  0  0  0  0  0  0  0  0  0  0  0  # atno 10763 bound_to 10752
  153.6941  135.3308  155.3210 H   0  0  0  0  0  0  0  0  0  0  0  0  # atno 10764 bound_to 10752
  154.8347  135.4552  154.1305 H   0  0  0  0  0  0  0  0  0  0  0  0  # atno 10765 bound_to 10752
  140.9135  134.1537  157.4371 H   0  0  0  0  0  0  0  0  0  0  0  0  # atno 11005 bound_to 11000
  144.6773  140.2221  143.7365 LP  0  0  0  0  0  0  0  0  0  0  0  0  # atno 17320 bound_to 7965
  145.8349  139.2103  143.1861 LP  0  0  0  0  0  0  0  0  0  0  0  0  # atno 17321 bound_to 7965
  140.0938  143.4852  152.2464 LP  0  0  0  0  0  0  0  0  0  0  0  0  # atno 17342 bound_to 10162
  139.5863  144.7532  151.3512 LP  0  0  0  0  0  0  0  0  0  0  0  0  # atno 17343 bound_to 10162
  156.5003  130.4115  149.6357 LP  0  0  0  0  0  0  0  0  0  0  0  0  # atno 17370 bound_to 10713
  156.3334  130.7344  151.2277 LP  0  0  0  0  0  0  0  0  0  0  0  0  # atno 17371 bound_to 10713
  139.8762  134.9945  156.5695 LP  0  0  0  0  0  0  0  0  0  0  0  0  # atno 17394 bound_to 11000
  140.8080  133.8452  155.8784 LP  0  0  0  0  0  0  0  0  0  0  0  0  # atno 17395 bound_to 11000

$$$$
