AV-unprocessed.smi:1740|AV-procd|sdf|7008|dock6
  -GOLD-   22720 8223D 1   1.00000     0.00000
 Structure written by MMmdl.
 52 54  0  0  0  0  0  0  0  0  2 V2000
  146.7827  136.3016  153.3473 N   0  0  0  0  0  0  0  0  0  0  0  0
  146.8800  136.0594  154.6563 C   0  0  0  0  0  0  0  0  0  0  0  0
  145.9035  135.7632  155.3424 O   0  0  0  0  0  0  0  0  0  0  0  0
  148.2798  136.1468  155.2735 C   0  0  0  0  0  0  0  0  0  0  0  0
  149.0977  137.2500  154.7064 N   0  3  2  0  0  0  0  0  0  0  0  0
  150.5224  137.1989  155.1318 C   0  0  0  0  0  0  0  0  0  0  0  0
  151.3567  138.2717  154.4093 C   0  0  0  0  0  0  0  0  0  0  0  0
  150.7775  139.6853  154.6105 C   0  0  2  0  0  0  0  0  0  0  0  0
  150.9662  140.1546  155.9828 N   0  0  0  0  0  0  0  0  0  0  0  0
  152.0501  139.9275  156.7384 C   0  0  0  0  0  0  0  0  0  0  0  0
  153.0226  139.2790  156.3538 O   0  0  0  0  0  0  0  0  0  0  0  0
  151.9283  140.5091  157.9434 N   0  0  0  0  0  0  0  0  0  0  0  0
  152.8856  140.5756  158.9955 C   0  0  0  0  0  0  0  0  0  0  0  0
  153.7338  139.4835  159.3039 C   0  0  0  0  0  0  0  0  0  0  0  0
  154.6146  139.5803  160.3947 C   0  0  0  0  0  0  0  0  0  0  0  0
  154.6063  140.7626  161.1530 C   0  0  0  0  0  0  0  0  0  0  0  0
  153.7957  141.8048  160.8823 N   0  0  0  0  0  0  0  0  0  0  0  0
  152.9507  141.7326  159.8245 C   0  0  0  0  0  0  0  0  0  0  0  0
  152.1345  142.8612  159.5803 N   0  0  0  0  0  0  0  0  0  0  0  0
  152.2534  143.5236  158.2845 C   0  0  0  0  0  0  0  0  0  0  0  0
  152.0821  145.0239  158.5462 C   0  0  0  0  0  0  0  0  0  0  0  0
  151.3572  145.0770  159.8876 C   0  0  0  0  0  0  0  0  0  0  0  0
  151.9365  143.8687  160.6172 C   0  0  0  0  0  0  0  0  0  0  0  0
  149.2851  139.6952  154.2379 C   0  0  0  0  0  0  0  0  0  0  0  0
  148.4996  138.5854  154.9603 C   0  0  0  0  0  0  0  0  0  0  0  0
  145.8811  136.2490  152.8942 H   0  0  0  0  0  0  0  0  0  0  0  0
  147.6063  136.5297  152.8093 H   0  0  0  0  0  0  0  0  0  0  0  0
  148.1374  136.3081  156.3428 H   0  0  0  0  0  0  0  0  0  0  0  0
  148.8068  135.1969  155.1675 H   0  0  0  0  0  0  0  0  0  0  0  0
  150.5872  137.3351  156.2124 H   0  0  0  0  0  0  0  0  0  0  0  0
  150.9438  136.2168  154.9154 H   0  0  0  0  0  0  0  0  0  0  0  0
  152.3931  138.2307  154.7468 H   0  0  0  0  0  0  0  0  0  0  0  0
  151.3792  138.0437  153.3429 H   0  0  0  0  0  0  0  0  0  0  0  0
  151.2945  140.3751  153.9406 H   0  0  0  0  0  0  0  0  0  0  0  0
  150.2213  140.7057  156.3833 H   0  0  0  0  0  0  0  0  0  0  0  0
  151.1014  141.0707  158.0833 H   0  0  0  0  0  0  0  0  0  0  0  0
  153.7086  138.5647  158.7389 H   0  0  0  0  0  0  0  0  0  0  0  0
  155.2713  138.7624  160.6516 H   0  0  0  0  0  0  0  0  0  0  0  0
  155.2623  140.8726  162.0038 H   0  0  0  0  0  0  0  0  0  0  0  0
  153.2069  143.3106  157.7990 H   0  0  0  0  0  0  0  0  0  0  0  0
  151.4549  143.1684  157.6328 H   0  0  0  0  0  0  0  0  0  0  0  0
  153.0620  145.4933  158.6425 H   0  0  0  0  0  0  0  0  0  0  0  0
  151.5418  145.5343  157.7485 H   0  0  0  0  0  0  0  0  0  0  0  0
  151.5149  146.0134  160.4232 H   0  0  0  0  0  0  0  0  0  0  0  0
  150.2846  144.9454  159.7383 H   0  0  0  0  0  0  0  0  0  0  0  0
  151.2684  143.5084  161.3997 H   0  0  0  0  0  0  0  0  0  0  0  0
  152.8863  144.1452  161.0765 H   0  0  0  0  0  0  0  0  0  0  0  0
  148.8465  140.6697  154.4569 H   0  0  0  0  0  0  0  0  0  0  0  0
  149.1861  139.5554  153.1605 H   0  0  0  0  0  0  0  0  0  0  0  0
  147.4666  138.5982  154.6108 H   0  0  0  0  0  0  0  0  0  0  0  0
  148.4717  138.7749  156.0345 H   0  0  0  0  0  0  0  0  0  0  0  0
  149.0851  137.1186  153.7046 H   0  0  0  0  0  0  0  0  0  0  0  0
  1  2  1  0  0  0  0
  1 26  1  0  0  0  0
  1 27  1  0  0  0  0
  2  3  2  0  0  0  0
  2  4  1  0  0  0  0
  4  5  1  0  0  0  0
  4 28  1  0  0  0  0
  4 29  1  0  0  0  0
  5 25  1  0  0  0  0
  5  6  1  0  0  0  0
  5 52  1  0  0  0  0
  6  7  1  0  0  0  0
  6 30  1  0  0  0  0
  6 31  1  0  0  0  0
  7  8  1  0  0  0  0
  7 32  1  0  0  0  0
  7 33  1  0  0  0  0
  8  9  1  0  0  0  0
  8 24  1  0  0  0  0
  8 34  1  0  0  0  0
  9 10  1  0  0  0  0
  9 35  1  0  0  0  0
 10 11  2  0  0  0  0
 10 12  1  0  0  0  0
 12 13  1  0  0  0  0
 12 36  1  0  0  0  0
 13 18  1  0  0  0  0
 13 14  2  0  0  0  0
 14 15  1  0  0  0  0
 14 37  1  0  0  0  0
 15 16  2  0  0  0  0
 15 38  1  0  0  0  0
 16 17  1  0  0  0  0
 16 39  1  0  0  0  0
 17 18  2  0  0  0  0
 18 19  1  0  0  0  0
 19 23  1  0  0  0  0
 19 20  1  0  0  0  0
 20 21  1  0  0  0  0
 20 40  1  0  0  0  0
 20 41  1  0  0  0  0
 21 22  1  0  0  0  0
 21 42  1  0  0  0  0
 21 43  1  0  0  0  0
 22 23  1  0  0  0  0
 22 44  1  0  0  0  0
 22 45  1  0  0  0  0
 23 46  1  0  0  0  0
 23 47  1  0  0  0  0
 24 25  1  0  0  0  0
 24 48  1  0  0  0  0
 24 49  1  0  0  0  0
 25 50  1  0  0  0  0
 25 51  1  0  0  0  0
M  CHG  1   5   1
M  END
> <s_m_source_file>
AV-unprocessed.smi

> <i_m_source_file_index>
1740

> <i_lp_mmshare_version>
43012

> <i_f3d_flags>
0

> <s_epik_input>
W05IMl1DKD1PKVtDSDJdTjFbQ0gyXVtDSDJdW0NIXShbQ0gyXVtDSDJdMSlbTkhdQyg9TylbTkhdYzJbY0hdW2NIXVtjSF1uYzJOM1tDSDJdW0NIMl1bQ0gyXVtDSDJdMw==

> <s_epik_cmdline>
J2VwaWtfcHl0aG9uJywgJy1waCcsICc3LjAnLCAnLXRuJywgJzgnLCAnLW1hJywgJzIwMCcsICctbWV0YWxfYmluZGluZycsICctaW1hZScsICc8aW5maWxlLm1hZT4nLCAnLW9tYWUnLCAnPG91dGZpbGUubWFlPic=

> <r_lp_tautomer_probability>
1

> <r_epik_Ionization_Penalty>
0.91661

> <r_epik_Ionization_Penalty_Charging>
0.838844

> <r_epik_Ionization_Penalty_Neutral>
0.0777664

> <r_epik_State_Penalty>
0.927046

> <r_epik_Charging_Adjusted_Penalty>
1.76589

> <i_epik_Tot_Q>
1

> <i_epik_Tot_abs_Q>
1

> <r_epik_Metal_State_Penalty>
0.950555

> <b_epik_Metal_Only>
0

> <s_lp_Force_Field>
OPLS_2005

> <r_lp_Energy>
41.6121

> <b_lp_Chiralities_Consistent>
1

> <s_lp_Variant>
AV-unprocessed.smi:1740-3

> <Gold.Version>
5.8.1

> <Gold.Id.Protein>
6NUR|6NUR_protein|mol2

> <Gold.PLP.Fitness>
54.4560

> <Gold.PLP.PLP>
-44.3672

> <Gold.PLP.part.hbond>
-3.0000

> <Gold.PLP.part.metal>
0.0000

> <Gold.PLP.part.buried>
-4.4667

> <Gold.PLP.part.nonpolar>
-37.3548

> <Gold.PLP.part.repulsive>
0.2051

> <Gold.PLP.ligand.clash>
0.0000

> <Gold.PLP.ligand.torsion>
1.1310

> <Gold.PLP.Chemscore.Hbond>
4.0000

> <Gold.PLP.Chemscore.CHOScore>
0.0000

> <Gold.PLP.Chemscore.Metal>
0.0000

> <Gold.Chemscore.Hbonds>
donor molecule, donor type, donor heavy atom, donor atom, acceptor molecule, acceptor atom, score
      L1  H     1    27       P1  7948  1.00
      L1  H     5    52       P1  7948  1.98
      P1  H  7997  8009       L1    11  1.00

> <Gold.PLP.Chemscore.Internal.Correction>
0.3509

> <Gold.Rescore>
     Score         DG    S(hbond)    S(metal)    S(lipo)     H(rot)  DE(clash)    DE(int)     intcor
     18.71     -22.08       2.97        0.00     105.01       2.19       0.03       3.35       ----

> <Gold.Chemscore.Fitness>
18.7067

> <Gold.Chemscore.DG>
-22.0844

> <Gold.Chemscore.ZeroCoef>
-5.4800

> <Gold.Chemscore.Hbond>
2.9743

> <Gold.Chemscore.Metal>
0.0000

> <Gold.Chemscore.Lipo>
105.0118

> <Gold.Chemscore.Internal_Hbond>
0.0000

> <Gold.Chemscore.DEClash>
0.0308

> <Gold.Chemscore.DEInternal>
3.3468

> <Gold.Chemscore.Rot>
2.1939

> <Gold.Chemscore.Internal.Correction>
   9.000000E+99

> <Gold.Chemscore.Hbonds>
donor molecule, donor type, donor heavy atom, donor atom, acceptor molecule, acceptor atom, score
      L1  H     1    27       P1  7948  0.98
      L1  H     5    52       P1  7948  0.92
      P1  H  7997  8009       L1    11  0.76

> <Gold.Chemscore.Hbond.Weighted>
-9.9343

> <Gold.Chemscore.Metal.Weighted>
-0.0000

> <Gold.Chemscore.Lipo.Weighted>
-12.2864

> <Gold.Chemscore.Internal_Hbond.Weighted>
0.0000

> <Gold.Chemscore.DEClash.Weighted>
0.0308

> <Gold.Chemscore.DEInternal.Weighted>
3.3468

> <Gold.Chemscore.Rot.Weighted>
5.6163

> <Gold.Chemscore.Internal.Correction.Weighted>
   9.000000E+99

> <Gold.Protein.RotatedTorsions>
[ 6907 6896 6895 6894 ] final   15.25 input  -60.11 | X-H torsion
[ 7974 7965 7964 7962 ] final   19.92 input  175.53 | X-H torsion
[ 8008 7997 7996 7995 ] final -178.23 input   59.86 | X-H torsion
[ 10167 10162 10161 10158 ] final  170.71 input  -65.29 | X-H torsion
[ 10718 10713 10712 10709 ] final   41.22 input   66.30 | X-H torsion
[ 10763 10752 10751 10750 ] final -121.87 input  -60.55 | X-H torsion
[ 11005 11000 10999 10996 ] final   -4.30 input  -57.11 | X-H torsion

> <Gold.Protein.ActiveResidues>
 VAL166  LYS551  ARG553  GLY616  TRP617  ASP618  TYR619  PRO620  LYS621  CYS622 
 ASP623  PHE694  ASN695  SER759  ASP760  ASP761  ALA762  ILE779  LEU786  VAL792 
 PHE793  MET794  SER795  GLU796  ALA797  LYS798  CYS799  TRP800  GLU811  SER814 

> <Gold.Protein.RotatedAtoms>
  151.8151  135.0669  160.0417 H   0  0  0  0  0  0  0  0  0  0  0  0  # atno 6907 bound_to 6896
  152.2992  133.5634  159.5616 H   0  0  0  0  0  0  0  0  0  0  0  0  # atno 6908 bound_to 6896
  150.7265  134.0232  159.3750 H   0  0  0  0  0  0  0  0  0  0  0  0  # atno 6909 bound_to 6896
  146.2131  139.8244  142.8673 H   0  0  0  0  0  0  0  0  0  0  0  0  # atno 7974 bound_to 7965
  156.0164  140.1251  157.0402 H   0  0  0  0  0  0  0  0  0  0  0  0  # atno 8008 bound_to 7997
  154.4295  140.1077  156.5971 H   0  0  0  0  0  0  0  0  0  0  0  0  # atno 8009 bound_to 7997
  155.6007  140.3470  155.4595 H   0  0  0  0  0  0  0  0  0  0  0  0  # atno 8010 bound_to 7997
  139.5026  144.3566  151.9868 H   0  0  0  0  0  0  0  0  0  0  0  0  # atno 10167 bound_to 10162
  157.3911  130.7807  149.7270 H   0  0  0  0  0  0  0  0  0  0  0  0  # atno 10718 bound_to 10713
  154.8677  135.4153  154.2689 H   0  0  0  0  0  0  0  0  0  0  0  0  # atno 10763 bound_to 10752
  153.3603  135.7003  153.6723 H   0  0  0  0  0  0  0  0  0  0  0  0  # atno 10764 bound_to 10752
  153.5626  135.3607  155.2778 H   0  0  0  0  0  0  0  0  0  0  0  0  # atno 10765 bound_to 10752
  140.6787  133.9172  155.8541 H   0  0  0  0  0  0  0  0  0  0  0  0  # atno 11005 bound_to 11000
  145.3063  141.0208  143.3580 LP  0  0  0  0  0  0  0  0  0  0  0  0  # atno 17320 bound_to 7965
  144.8969  139.4701  143.6651 LP  0  0  0  0  0  0  0  0  0  0  0  0  # atno 17321 bound_to 7965
  140.3002  144.3655  150.6062 LP  0  0  0  0  0  0  0  0  0  0  0  0  # atno 17342 bound_to 10162
  140.5879  143.2169  151.7308 LP  0  0  0  0  0  0  0  0  0  0  0  0  # atno 17343 bound_to 10162
  155.9798  130.4036  150.3563 LP  0  0  0  0  0  0  0  0  0  0  0  0  # atno 17370 bound_to 10713
  157.1679  131.0361  151.2809 LP  0  0  0  0  0  0  0  0  0  0  0  0  # atno 17371 bound_to 10713
  141.0334  134.0723  157.3987 LP  0  0  0  0  0  0  0  0  0  0  0  0  # atno 17394 bound_to 11000
  139.8958  135.0143  156.7021 LP  0  0  0  0  0  0  0  0  0  0  0  0  # atno 17395 bound_to 11000

$$$$
