AV-unprocessed.smi:1256|AV-procd|sdf|5283|dock4
  -GOLD-   22720 4403D 1   1.00000     0.00000
 Structure written by MMmdl.
 41 42  0  0  0  0  0  0  0  0  1 V2000
  150.3450  142.1066  156.1878 C   0  0  0  0  0  0  0  0  0  0  0  0
  150.0961  140.8649  155.3833 C   0  0  0  0  0  0  0  0  0  0  0  0
  148.8935  140.4692  154.7288 C   0  0  0  0  0  0  0  0  0  0  0  0
  149.2389  139.2728  154.1619 C   0  0  0  0  0  0  0  0  0  0  0  0
  148.4790  138.4302  153.4129 N   0  0  0  0  0  0  0  0  0  0  0  0
  147.1427  138.2824  153.4086 C   0  0  0  0  0  0  0  0  0  0  0  0
  146.3516  138.9110  154.1123 O   0  0  0  0  0  0  0  0  0  0  0  0
  146.7627  137.3496  152.5237 N   0  0  0  0  0  0  0  0  0  0  0  0
  145.3832  136.9533  152.2670 C   0  0  0  0  0  0  0  0  0  0  0  0
  145.2651  136.1341  150.9697 C   0  0  0  0  0  0  0  0  0  0  0  0
  145.4807  134.6461  151.1904 C   0  0  0  0  0  0  0  0  0  0  0  0
  146.6266  134.1634  151.7090 C   0  0  0  0  0  0  0  0  0  0  0  0
  146.9172  132.6867  151.9112 C   0  0  0  0  0  0  0  0  0  0  0  0
  145.9403  131.7868  151.1365 C   0  0  0  0  0  0  0  0  0  0  0  0
  144.4977  132.2886  151.2744 C   0  0  0  0  0  0  0  0  0  0  0  0
  144.3469  133.7271  150.7471 C   0  0  0  0  0  0  0  0  0  0  0  0
  150.5533  138.9983  154.4681 N   0  0  0  0  0  0  0  0  0  0  0  0
  151.3668  137.8562  154.0986 C   0  0  0  0  0  0  0  0  0  0  0  0
  151.0792  139.9856  155.2249 N   0  0  0  0  0  0  0  0  0  0  0  0
  149.4520  142.7302  156.2361 H   0  0  0  0  0  0  0  0  0  0  0  0
  151.1439  142.7048  155.7491 H   0  0  0  0  0  0  0  0  0  0  0  0
  150.6333  141.8610  157.2103 H   0  0  0  0  0  0  0  0  0  0  0  0
  147.9488  140.9903  154.6954 H   0  0  0  0  0  0  0  0  0  0  0  0
  148.9926  137.8447  152.7712 H   0  0  0  0  0  0  0  0  0  0  0  0
  147.4777  136.8812  151.9863 H   0  0  0  0  0  0  0  0  0  0  0  0
  145.0428  136.3559  153.1132 H   0  0  0  0  0  0  0  0  0  0  0  0
  144.7456  137.8378  152.2358 H   0  0  0  0  0  0  0  0  0  0  0  0
  144.2860  136.2787  150.5114 H   0  0  0  0  0  0  0  0  0  0  0  0
  145.9971  136.4982  150.2471 H   0  0  0  0  0  0  0  0  0  0  0  0
  147.4060  134.8452  152.0175 H   0  0  0  0  0  0  0  0  0  0  0  0
  147.9406  132.4762  151.5997 H   0  0  0  0  0  0  0  0  0  0  0  0
  146.8598  132.4746  152.9792 H   0  0  0  0  0  0  0  0  0  0  0  0
  146.2150  131.7731  150.0809 H   0  0  0  0  0  0  0  0  0  0  0  0
  146.0207  130.7584  151.4899 H   0  0  0  0  0  0  0  0  0  0  0  0
  143.8133  131.6256  150.7447 H   0  0  0  0  0  0  0  0  0  0  0  0
  144.2078  132.2550  152.3254 H   0  0  0  0  0  0  0  0  0  0  0  0
  143.3873  134.1268  151.0730 H   0  0  0  0  0  0  0  0  0  0  0  0
  144.3288  133.7229  149.6567 H   0  0  0  0  0  0  0  0  0  0  0  0
  151.2973  137.6875  153.0239 H   0  0  0  0  0  0  0  0  0  0  0  0
  151.0115  136.9693  154.6236 H   0  0  0  0  0  0  0  0  0  0  0  0
  152.4116  138.0284  154.3601 H   0  0  0  0  0  0  0  0  0  0  0  0
  1  2  1  0  0  0  0
  1 20  1  0  0  0  0
  1 21  1  0  0  0  0
  1 22  1  0  0  0  0
  2 19  2  0  0  0  0
  2  3  1  0  0  0  0
  3  4  2  0  0  0  0
  3 23  1  0  0  0  0
  4  5  1  0  0  0  0
  4 17  1  0  0  0  0
  5  6  1  0  0  0  0
  5 24  1  0  0  0  0
  6  7  2  0  0  0  0
  6  8  1  0  0  0  0
  8  9  1  0  0  0  0
  8 25  1  0  0  0  0
  9 10  1  0  0  0  0
  9 26  1  0  0  0  0
  9 27  1  0  0  0  0
 10 11  1  0  0  0  0
 10 28  1  0  0  0  0
 10 29  1  0  0  0  0
 11 16  1  0  0  0  0
 11 12  2  0  0  0  0
 12 13  1  0  0  0  0
 12 30  1  0  0  0  0
 13 14  1  0  0  0  0
 13 31  1  0  0  0  0
 13 32  1  0  0  0  0
 14 15  1  0  0  0  0
 14 33  1  0  0  0  0
 14 34  1  0  0  0  0
 15 16  1  0  0  0  0
 15 35  1  0  0  0  0
 15 36  1  0  0  0  0
 16 37  1  0  0  0  0
 16 38  1  0  0  0  0
 17 18  1  0  0  0  0
 17 19  1  0  0  0  0
 18 39  1  0  0  0  0
 18 40  1  0  0  0  0
 18 41  1  0  0  0  0
M  END
> <s_m_source_file>
AV-unprocessed.smi

> <i_m_source_file_index>
1256

> <i_lp_mmshare_version>
43012

> <i_f3d_flags>
0

> <s_epik_input>
W0NIM11jMVtjSF1jKG4objEpW0NIM10pW05IXUMoPU8pW05IXVtDSDJdW0NIMl1DMj1bQ0hdW0NIMl1bQ0gyXVtDSDJdW0NIMl0y

> <s_epik_cmdline>
J2VwaWtfcHl0aG9uJywgJy1waCcsICc3LjAnLCAnLXRuJywgJzgnLCAnLW1hJywgJzIwMCcsICctbWV0YWxfYmluZGluZycsICctaW1hZScsICc8aW5maWxlLm1hZT4nLCAnLW9tYWUnLCAnPG91dGZpbGUubWFlPic=

> <r_lp_tautomer_probability>
1

> <r_epik_Ionization_Penalty>
9.50632e-05

> <r_epik_Ionization_Penalty_Charging>
0

> <r_epik_Ionization_Penalty_Neutral>
9.50632e-05

> <r_epik_State_Penalty>
-0

> <r_epik_Charging_Adjusted_Penalty>
0

> <i_epik_Tot_Q>
0

> <i_epik_Tot_abs_Q>
0

> <r_epik_Metal_State_Penalty>
-0

> <b_epik_Metal_Only>
0

> <s_lp_Force_Field>
OPLS_2005

> <r_lp_Energy>
8.63058

> <b_lp_Chiralities_Consistent>
1

> <s_lp_Variant>
AV-unprocessed.smi:1256-1

> <Gold.Version>
5.8.1

> <Gold.Id.Protein>
6NUR|6NUR_protein|mol2

> <Gold.PLP.Fitness>
42.4775

> <Gold.PLP.PLP>
-36.6517

> <Gold.PLP.part.hbond>
-4.0000

> <Gold.PLP.part.metal>
0.0000

> <Gold.PLP.part.buried>
0.2499

> <Gold.PLP.part.nonpolar>
-33.1266

> <Gold.PLP.part.repulsive>
0.2599

> <Gold.PLP.ligand.clash>
0.0000

> <Gold.PLP.ligand.torsion>
0.3972

> <Gold.PLP.Chemscore.Hbond>
2.2010

> <Gold.PLP.Chemscore.CHOScore>
0.0000

> <Gold.PLP.Chemscore.Metal>
0.0000

> <Gold.Chemscore.Hbonds>
donor molecule, donor type, donor heavy atom, donor atom, acceptor molecule, acceptor atom, score
      L1  H     5    24       P1  7948  0.91
      L1  H     8    25       P1  7948  1.00
      P1  H  7989  7998       L1    19  0.19

> <Gold.PLP.Chemscore.Internal.Correction>
0.0172

> <Gold.Rescore>
     Score         DG    S(hbond)    S(metal)    S(lipo)     H(rot)  DE(clash)    DE(int)     intcor
     16.30     -17.86       1.88        0.00      82.65       1.40       0.96       0.59       ----

> <Gold.Chemscore.Fitness>
16.3035

> <Gold.Chemscore.DG>
-17.8620

> <Gold.Chemscore.ZeroCoef>
-5.4800

> <Gold.Chemscore.Hbond>
1.8817

> <Gold.Chemscore.Metal>
0.0000

> <Gold.Chemscore.Lipo>
82.6522

> <Gold.Chemscore.Internal_Hbond>
0.0000

> <Gold.Chemscore.DEClash>
0.9641

> <Gold.Chemscore.DEInternal>
0.5944

> <Gold.Chemscore.Rot>
1.3958

> <Gold.Chemscore.Internal.Correction>
   9.000000E+99

> <Gold.Chemscore.Hbonds>
donor molecule, donor type, donor heavy atom, donor atom, acceptor molecule, acceptor atom, score
      L1  H     5    24       P1  7948  0.88
      L1  H     8    25       P1  7948  0.95

> <Gold.Chemscore.Hbond.Weighted>
-6.2850

> <Gold.Chemscore.Metal.Weighted>
-0.0000

> <Gold.Chemscore.Lipo.Weighted>
-9.6703

> <Gold.Chemscore.Internal_Hbond.Weighted>
0.0000

> <Gold.Chemscore.DEClash.Weighted>
0.9641

> <Gold.Chemscore.DEInternal.Weighted>
0.5944

> <Gold.Chemscore.Rot.Weighted>
3.5733

> <Gold.Chemscore.Internal.Correction.Weighted>
   9.000000E+99

> <Gold.Protein.RotatedTorsions>
[ 6907 6896 6895 6894 ] final   64.10 input  -60.11 | X-H torsion
[ 7974 7965 7964 7962 ] final -171.86 input  175.53 | X-H torsion
[ 8008 7997 7996 7995 ] final -138.69 input   59.86 | X-H torsion
[ 10167 10162 10161 10158 ] final   56.97 input  -65.29 | X-H torsion
[ 10718 10713 10712 10709 ] final  110.58 input   66.30 | X-H torsion
[ 10763 10752 10751 10750 ] final  -53.33 input  -60.55 | X-H torsion
[ 11005 11000 10999 10996 ] final  -33.40 input  -57.11 | X-H torsion

> <Gold.Protein.ActiveResidues>
 VAL166  LYS551  ARG553  GLY616  TRP617  ASP618  TYR619  PRO620  LYS621  CYS622 
 ASP623  PHE694  ASN695  SER759  ASP760  ASP761  ALA762  ILE779  LEU786  VAL792 
 PHE793  MET794  SER795  GLU796  ALA797  LYS798  CYS799  TRP800  GLU811  SER814 

> <Gold.Protein.RotatedAtoms>
  152.4305  134.5786  159.9941 H   0  0  0  0  0  0  0  0  0  0  0  0  # atno 6907 bound_to 6896
  151.5911  133.3361  159.3036 H   0  0  0  0  0  0  0  0  0  0  0  0  # atno 6908 bound_to 6896
  150.8198  134.7435  159.6827 H   0  0  0  0  0  0  0  0  0  0  0  0  # atno 6909 bound_to 6896
  144.7152  140.1859  143.6353 H   0  0  0  0  0  0  0  0  0  0  0  0  # atno 7974 bound_to 7965
  155.4325  140.0526  157.3017 H   0  0  0  0  0  0  0  0  0  0  0  0  # atno 8008 bound_to 7997
  154.4853  140.2098  155.9627 H   0  0  0  0  0  0  0  0  0  0  0  0  # atno 8009 bound_to 7997
  156.1266  140.3179  155.8291 H   0  0  0  0  0  0  0  0  0  0  0  0  # atno 8010 bound_to 7997
  140.2030  144.3968  150.6520 H   0  0  0  0  0  0  0  0  0  0  0  0  # atno 10167 bound_to 10162
  157.6487  131.0935  150.6622 H   0  0  0  0  0  0  0  0  0  0  0  0  # atno 10718 bound_to 10713
  154.1570  135.6481  153.4977 H   0  0  0  0  0  0  0  0  0  0  0  0  # atno 10763 bound_to 10752
  153.0121  135.5352  154.6749 H   0  0  0  0  0  0  0  0  0  0  0  0  # atno 10764 bound_to 10752
  154.6053  135.2948  155.0463 H   0  0  0  0  0  0  0  0  0  0  0  0  # atno 10765 bound_to 10752
  140.9632  133.7152  156.1403 H   0  0  0  0  0  0  0  0  0  0  0  0  # atno 11005 bound_to 11000
  145.8813  139.2324  143.1603 LP  0  0  0  0  0  0  0  0  0  0  0  0  # atno 17320 bound_to 7965
  145.9992  140.8535  143.0027 LP  0  0  0  0  0  0  0  0  0  0  0  0  # atno 17321 bound_to 7965
  140.6377  143.2198  151.6359 LP  0  0  0  0  0  0  0  0  0  0  0  0  # atno 17342 bound_to 10162
  139.5209  144.3208  152.0912 LP  0  0  0  0  0  0  0  0  0  0  0  0  # atno 17343 bound_to 10162
  156.6936  130.4602  149.5592 LP  0  0  0  0  0  0  0  0  0  0  0  0  # atno 17370 bound_to 10713
  156.1844  130.6520  151.0989 LP  0  0  0  0  0  0  0  0  0  0  0  0  # atno 17371 bound_to 10713
  140.7437  134.4121  157.5551 LP  0  0  0  0  0  0  0  0  0  0  0  0  # atno 17394 bound_to 11000
  139.8885  134.8854  156.2470 LP  0  0  0  0  0  0  0  0  0  0  0  0  # atno 17395 bound_to 11000

$$$$
