AV-unprocessed.smi:2601|AV-procd|sdf|10183|dock3
  -GOLD-   2272014193D 1   1.00000     0.00000
 Structure written by MMmdl.
 47 48  0  0  0  0  0  0  0  0  1 V2000
  152.9650  144.1059  158.0870 C   0  0  0  0  0  0  0  0  0  0  0  0
  151.8520  144.3444  158.9864 N   0  0  0  0  0  0  0  0  0  0  0  0
  150.7904  145.0515  158.5428 N   0  0  0  0  0  0  0  0  0  0  0  0
  149.9620  145.0918  159.5713 C   0  0  0  0  0  0  0  0  0  0  0  0
  150.4725  144.4101  160.7097 C   0  0  0  0  0  0  0  0  0  0  0  0
  151.6905  143.9415  160.3013 C   0  0  0  0  0  0  0  0  0  0  0  0
  152.7143  143.1390  161.0494 C   0  0  0  0  0  0  0  0  0  0  0  0
  153.3755  142.0207  160.2197 C   0  0  0  0  0  0  0  0  0  0  0  0
  152.4187  141.2686  159.4132 N   0  0  0  0  0  0  0  0  0  0  0  0
  152.6986  140.1728  158.6885 C   0  0  0  0  0  0  0  0  0  0  0  0
  153.8319  139.6940  158.6334 O   0  0  0  0  0  0  0  0  0  0  0  0
  151.6317  139.6296  158.0523 N   0  0  0  0  0  0  0  0  0  0  0  0
  151.5882  138.3740  157.2951 C   0  0  0  0  0  0  0  0  0  0  0  0
  151.3568  138.6837  155.7984 C   0  0  0  0  0  0  0  0  0  0  0  0
  152.6170  139.2545  155.1179 C   0  0  0  0  0  0  0  0  0  0  0  0
  150.9525  137.3948  155.0641 C   0  0  0  0  0  0  0  0  0  0  0  0
  150.2308  139.5631  155.6317 O   0  0  0  0  0  0  0  0  0  0  0  0
  150.0393  140.6857  156.5108 C   0  0  0  0  0  0  0  0  0  0  0  0
  150.8788  141.8986  156.0588 C   0  0  0  0  0  0  0  0  0  0  0  0
  148.5522  141.0452  156.3594 C   0  0  0  0  0  0  0  0  0  0  0  0
  150.3269  140.2844  157.9761 C   0  0  0  0  0  0  0  0  0  0  0  0
  153.0670  143.0354  157.9081 H   0  0  0  0  0  0  0  0  0  0  0  0
  153.8864  144.4817  158.5318 H   0  0  0  0  0  0  0  0  0  0  0  0
  152.8055  144.6102  157.1329 H   0  0  0  0  0  0  0  0  0  0  0  0
  149.0219  145.6124  159.4637 H   0  0  0  0  0  0  0  0  0  0  0  0
  150.0148  144.2849  161.6797 H   0  0  0  0  0  0  0  0  0  0  0  0
  153.4892  143.8111  161.4183 H   0  0  0  0  0  0  0  0  0  0  0  0
  152.2704  142.6975  161.9411 H   0  0  0  0  0  0  0  0  0  0  0  0
  154.0999  142.4598  159.5335 H   0  0  0  0  0  0  0  0  0  0  0  0
  153.9348  141.3445  160.8677 H   0  0  0  0  0  0  0  0  0  0  0  0
  151.4640  141.5971  159.4177 H   0  0  0  0  0  0  0  0  0  0  0  0
  152.4760  137.7532  157.4178 H   0  0  0  0  0  0  0  0  0  0  0  0
  150.7678  137.7676  157.6825 H   0  0  0  0  0  0  0  0  0  0  0  0
  153.3998  138.4984  155.0551 H   0  0  0  0  0  0  0  0  0  0  0  0
  153.0497  140.0895  155.6600 H   0  0  0  0  0  0  0  0  0  0  0  0
  152.4016  139.5893  154.1029 H   0  0  0  0  0  0  0  0  0  0  0  0
  151.7286  136.6325  155.1409 H   0  0  0  0  0  0  0  0  0  0  0  0
  150.7761  137.5830  154.0045 H   0  0  0  0  0  0  0  0  0  0  0  0
  150.0351  136.9748  155.4778 H   0  0  0  0  0  0  0  0  0  0  0  0
  150.5709  142.8009  156.5878 H   0  0  0  0  0  0  0  0  0  0  0  0
  150.7579  142.0863  154.9917 H   0  0  0  0  0  0  0  0  0  0  0  0
  151.9393  141.7807  156.2584 H   0  0  0  0  0  0  0  0  0  0  0  0
  148.2787  141.8859  156.9981 H   0  0  0  0  0  0  0  0  0  0  0  0
  147.9123  140.2041  156.6281 H   0  0  0  0  0  0  0  0  0  0  0  0
  148.3153  141.3202  155.3311 H   0  0  0  0  0  0  0  0  0  0  0  0
  149.5651  139.5915  158.3371 H   0  0  0  0  0  0  0  0  0  0  0  0
  150.2539  141.1576  158.6263 H   0  0  0  0  0  0  0  0  0  0  0  0
  1  2  1  0  0  0  0
  1 22  1  0  0  0  0
  1 23  1  0  0  0  0
  1 24  1  0  0  0  0
  2  6  1  0  0  0  0
  2  3  1  0  0  0  0
  3  4  2  0  0  0  0
  4  5  1  0  0  0  0
  4 25  1  0  0  0  0
  5  6  2  0  0  0  0
  5 26  1  0  0  0  0
  6  7  1  0  0  0  0
  7  8  1  0  0  0  0
  7 27  1  0  0  0  0
  7 28  1  0  0  0  0
  8  9  1  0  0  0  0
  8 29  1  0  0  0  0
  8 30  1  0  0  0  0
  9 10  1  0  0  0  0
  9 31  1  0  0  0  0
 10 11  2  0  0  0  0
 10 12  1  0  0  0  0
 12 21  1  0  0  0  0
 12 13  1  0  0  0  0
 13 14  1  0  0  0  0
 13 32  1  0  0  0  0
 13 33  1  0  0  0  0
 14 15  1  0  0  0  0
 14 16  1  0  0  0  0
 14 17  1  0  0  0  0
 15 34  1  0  0  0  0
 15 35  1  0  0  0  0
 15 36  1  0  0  0  0
 16 37  1  0  0  0  0
 16 38  1  0  0  0  0
 16 39  1  0  0  0  0
 17 18  1  0  0  0  0
 18 19  1  0  0  0  0
 18 20  1  0  0  0  0
 18 21  1  0  0  0  0
 19 40  1  0  0  0  0
 19 41  1  0  0  0  0
 19 42  1  0  0  0  0
 20 43  1  0  0  0  0
 20 44  1  0  0  0  0
 20 45  1  0  0  0  0
 21 46  1  0  0  0  0
 21 47  1  0  0  0  0
M  END
> <s_m_source_file>
AV-unprocessed.smi

> <i_m_source_file_index>
2601

> <i_lp_mmshare_version>
43012

> <i_f3d_flags>
0

> <s_epik_input>
W0NIM11uMW5bY0hdW2NIXWMxW0NIMl1bQ0gyXVtOSF1DKD1PKU4oW0NIMl1DMihbQ0gzXSlbQ0gzXSlbQ0gyXUMoTzIpKFtDSDNdKVtDSDNd

> <s_epik_cmdline>
J2VwaWtfcHl0aG9uJywgJy1waCcsICc3LjAnLCAnLXRuJywgJzgnLCAnLW1hJywgJzIwMCcsICctbWV0YWxfYmluZGluZycsICctaW1hZScsICc8aW5maWxlLm1hZT4nLCAnLW9tYWUnLCAnPG91dGZpbGUubWFlPic=

> <r_lp_tautomer_probability>
1

> <r_epik_Ionization_Penalty>
0.00250606

> <r_epik_Ionization_Penalty_Charging>
0

> <r_epik_Ionization_Penalty_Neutral>
0.00250606

> <r_epik_State_Penalty>
0.0017149

> <r_epik_Charging_Adjusted_Penalty>
0.0017149

> <i_epik_Tot_Q>
0

> <i_epik_Tot_abs_Q>
0

> <r_epik_Metal_State_Penalty>
-0

> <b_epik_Metal_Only>
0

> <s_lp_Force_Field>
OPLS_2005

> <r_lp_Energy>
30.5553

> <b_lp_Chiralities_Consistent>
1

> <s_lp_Variant>
AV-unprocessed.smi:2601-1

> <Gold.Version>
5.8.1

> <Gold.Id.Protein>
6NUR|6NUR_protein|mol2

> <Gold.PLP.Fitness>
42.8870

> <Gold.PLP.PLP>
-39.0030

> <Gold.PLP.part.hbond>
-1.0000

> <Gold.PLP.part.metal>
0.0000

> <Gold.PLP.part.buried>
-5.2249

> <Gold.PLP.part.nonpolar>
-33.2760

> <Gold.PLP.part.repulsive>
0.3164

> <Gold.PLP.ligand.clash>
1.0106

> <Gold.PLP.ligand.torsion>
0.3738

> <Gold.PLP.Chemscore.Hbond>
1.0000

> <Gold.PLP.Chemscore.CHOScore>
0.8791

> <Gold.PLP.Chemscore.Metal>
0.0000

> <Gold.Chemscore.Hbonds>
donor molecule, donor type, donor heavy atom, donor atom, acceptor molecule, acceptor atom, score
      P1  H  7997  8010       L1    11  1.00
      L1  C     4    25       P1  8029  0.87

> <Gold.PLP.Chemscore.Internal.Correction>
0.0049

> <Gold.Rescore>
     Score         DG    S(hbond)    S(metal)    S(lipo)     H(rot)  DE(clash)    DE(int)     intcor
     17.83     -18.75       0.92        0.00     116.14       1.33       0.61       0.30       ----

> <Gold.Chemscore.Fitness>
17.8328

> <Gold.Chemscore.DG>
-18.7469

> <Gold.Chemscore.ZeroCoef>
-5.4800

> <Gold.Chemscore.Hbond>
0.9235

> <Gold.Chemscore.Metal>
0.0000

> <Gold.Chemscore.Lipo>
116.1368

> <Gold.Chemscore.Internal_Hbond>
0.0000

> <Gold.Chemscore.DEClash>
0.6148

> <Gold.Chemscore.DEInternal>
0.2993

> <Gold.Chemscore.Rot>
1.3303

> <Gold.Chemscore.Internal.Correction>
   9.000000E+99

> <Gold.Chemscore.Hbonds>
donor molecule, donor type, donor heavy atom, donor atom, acceptor molecule, acceptor atom, score
      P1  H  7997  8010       L1    11  0.80

> <Gold.Chemscore.Hbond.Weighted>
-3.0844

> <Gold.Chemscore.Metal.Weighted>
-0.0000

> <Gold.Chemscore.Lipo.Weighted>
-13.5880

> <Gold.Chemscore.Internal_Hbond.Weighted>
0.0000

> <Gold.Chemscore.DEClash.Weighted>
0.6148

> <Gold.Chemscore.DEInternal.Weighted>
0.2993

> <Gold.Chemscore.Rot.Weighted>
3.4055

> <Gold.Chemscore.Internal.Correction.Weighted>
   9.000000E+99

> <Gold.Protein.RotatedTorsions>
[ 6907 6896 6895 6894 ] final  140.18 input  -60.11 | X-H torsion
[ 7974 7965 7964 7962 ] final   -1.22 input  175.53 | X-H torsion
[ 8008 7997 7996 7995 ] final   33.38 input   59.86 | X-H torsion
[ 10167 10162 10161 10158 ] final    6.30 input  -65.29 | X-H torsion
[ 10718 10713 10712 10709 ] final  -78.04 input   66.30 | X-H torsion
[ 10763 10752 10751 10750 ] final   90.40 input  -60.55 | X-H torsion
[ 11005 11000 10999 10996 ] final  -82.34 input  -57.11 | X-H torsion

> <Gold.Protein.ActiveResidues>
 VAL166  LYS551  ARG553  GLY616  TRP617  ASP618  TYR619  PRO620  LYS621  CYS622 
 ASP623  PHE694  ASN695  SER759  ASP760  ASP761  ALA762  ILE779  LEU786  VAL792 
 PHE793  MET794  SER795  GLU796  ALA797  LYS798  CYS799  TRP800  GLU811  SER814 

> <Gold.Protein.RotatedAtoms>
  152.2461  133.5176  159.5297 H   0  0  0  0  0  0  0  0  0  0  0  0  # atno 6907 bound_to 6896
  150.7079  134.1023  159.3979 H   0  0  0  0  0  0  0  0  0  0  0  0  # atno 6908 bound_to 6896
  151.8944  135.0404  160.0551 H   0  0  0  0  0  0  0  0  0  0  0  0  # atno 6909 bound_to 6896
  146.2419  140.1387  142.8336 H   0  0  0  0  0  0  0  0  0  0  0  0  # atno 7974 bound_to 7965
  155.1377  140.3263  155.4459 H   0  0  0  0  0  0  0  0  0  0  0  0  # atno 8008 bound_to 7997
  156.2614  140.1999  156.6443 H   0  0  0  0  0  0  0  0  0  0  0  0  # atno 8009 bound_to 7997
  154.6565  140.0552  157.0001 H   0  0  0  0  0  0  0  0  0  0  0  0  # atno 8010 bound_to 7997
  140.6435  143.7717  150.7464 H   0  0  0  0  0  0  0  0  0  0  0  0  # atno 10167 bound_to 10162
  156.0128  130.4507  150.3436 H   0  0  0  0  0  0  0  0  0  0  0  0  # atno 10718 bound_to 10713
  153.1971  135.4435  155.0221 H   0  0  0  0  0  0  0  0  0  0  0  0  # atno 10763 bound_to 10752
  154.8125  135.3301  154.7268 H   0  0  0  0  0  0  0  0  0  0  0  0  # atno 10764 bound_to 10752
  153.7717  135.6984  153.4960 H   0  0  0  0  0  0  0  0  0  0  0  0  # atno 10765 bound_to 10752
  141.1663  133.7239  156.8556 H   0  0  0  0  0  0  0  0  0  0  0  0  # atno 11005 bound_to 11000
  145.0265  140.8836  143.5135 LP  0  0  0  0  0  0  0  0  0  0  0  0  # atno 17320 bound_to 7965
  145.1444  139.2552  143.5473 LP  0  0  0  0  0  0  0  0  0  0  0  0  # atno 17321 bound_to 7965
  140.1353  143.4489  152.2228 LP  0  0  0  0  0  0  0  0  0  0  0  0  # atno 17342 bound_to 10162
  139.5645  144.7426  151.4061 LP  0  0  0  0  0  0  0  0  0  0  0  0  # atno 17343 bound_to 10162
  157.1531  131.0326  151.2876 LP  0  0  0  0  0  0  0  0  0  0  0  0  # atno 17370 bound_to 10713
  157.4375  130.7525  149.7041 LP  0  0  0  0  0  0  0  0  0  0  0  0  # atno 17371 bound_to 10713
  140.1884  134.8983  157.3032 LP  0  0  0  0  0  0  0  0  0  0  0  0  # atno 17394 bound_to 11000
  140.2317  134.3901  155.7519 LP  0  0  0  0  0  0  0  0  0  0  0  0  # atno 17395 bound_to 11000

$$$$
