AV-unprocessed.smi:1202|AV-procd|sdf|5028|dock4
  -GOLD-   22720 4 53D 1   1.00000     0.00000
 Structure written by MMmdl.
 44 45  0  0  0  0  0  0  0  0  1 V2000
  146.2361  135.4451  154.2056 C   0  0  0  0  0  0  0  0  0  0  0  0
  146.6311  136.6014  153.4163 N   0  0  0  0  0  0  0  0  0  0  0  0
  146.2797  137.8638  153.7006 C   0  0  0  0  0  0  0  0  0  0  0  0
  145.5805  138.1696  154.6668 O   0  0  0  0  0  0  0  0  0  0  0  0
  146.8020  138.9529  152.7555 C   0  0  0  0  0  0  0  0  0  0  0  0
  147.6349  139.9878  153.4103 N   0  0  0  0  0  0  0  0  0  0  0  0
  148.7124  139.3343  154.1625 C   0  0  0  0  0  0  0  0  0  0  0  0
  149.6815  140.3784  154.7440 C   0  0  0  0  0  0  0  0  0  0  0  0
  148.9292  141.3630  155.6553 C   0  0  0  0  0  0  0  0  0  0  0  0
  149.8038  142.3699  156.2606 N   0  0  0  0  0  0  0  0  0  0  0  0
  150.9079  142.1645  156.9989 C   0  0  0  0  0  0  0  0  0  0  0  0
  151.3391  141.0478  157.2876 O   0  0  0  0  0  0  0  0  0  0  0  0
  151.6171  143.4303  157.5013 C   0  0  0  0  0  0  0  0  0  0  0  0
  152.0568  143.3347  158.9034 N   0  0  0  0  0  0  0  0  0  0  0  0
  152.9158  142.2680  159.2355 C   0  0  0  0  0  0  0  0  0  0  0  0
  153.3773  142.0902  160.4835 C   0  0  0  0  0  0  0  0  0  0  0  0
  152.9700  143.0288  161.5020 C   0  0  0  0  0  0  0  0  0  0  0  0
  152.1518  144.0549  161.1944 C   0  0  0  0  0  0  0  0  0  0  0  0
  151.6475  144.2548  159.8309 C   0  0  0  0  0  0  0  0  0  0  0  0
  150.9023  145.1911  159.5406 O   0  0  0  0  0  0  0  0  0  0  0  0
  147.7468  141.9746  154.8843 C   0  0  0  0  0  0  0  0  0  0  0  0
  146.8532  140.8706  154.2906 C   0  0  0  0  0  0  0  0  0  0  0  0
  146.6770  134.5404  153.7870 H   0  0  0  0  0  0  0  0  0  0  0  0
  145.1516  135.3282  154.2057 H   0  0  0  0  0  0  0  0  0  0  0  0
  146.5758  135.5441  155.2372 H   0  0  0  0  0  0  0  0  0  0  0  0
  147.2087  136.4332  152.6053 H   0  0  0  0  0  0  0  0  0  0  0  0
  147.3617  138.4951  151.9373 H   0  0  0  0  0  0  0  0  0  0  0  0
  145.9278  139.4250  152.3044 H   0  0  0  0  0  0  0  0  0  0  0  0
  148.2974  138.7169  154.9613 H   0  0  0  0  0  0  0  0  0  0  0  0
  149.2709  138.6671  153.5045 H   0  0  0  0  0  0  0  0  0  0  0  0
  150.4709  139.8772  155.3051 H   0  0  0  0  0  0  0  0  0  0  0  0
  150.1703  140.9044  153.9234 H   0  0  0  0  0  0  0  0  0  0  0  0
  148.5202  140.7939  156.4911 H   0  0  0  0  0  0  0  0  0  0  0  0
  149.5423  143.3309  156.0942 H   0  0  0  0  0  0  0  0  0  0  0  0
  152.4702  143.6496  156.8563 H   0  0  0  0  0  0  0  0  0  0  0  0
  150.9371  144.2732  157.3707 H   0  0  0  0  0  0  0  0  0  0  0  0
  153.1784  141.6154  158.4155 H   0  0  0  0  0  0  0  0  0  0  0  0
  154.0387  141.2693  160.7184 H   0  0  0  0  0  0  0  0  0  0  0  0
  153.3239  142.9085  162.5153 H   0  0  0  0  0  0  0  0  0  0  0  0
  151.8583  144.7476  161.9696 H   0  0  0  0  0  0  0  0  0  0  0  0
  147.1570  142.6093  155.5468 H   0  0  0  0  0  0  0  0  0  0  0  0
  148.1000  142.6154  154.0758 H   0  0  0  0  0  0  0  0  0  0  0  0
  146.0449  141.3535  153.7417 H   0  0  0  0  0  0  0  0  0  0  0  0
  146.3886  140.2886  155.0885 H   0  0  0  0  0  0  0  0  0  0  0  0
  1  2  1  0  0  0  0
  1 23  1  0  0  0  0
  1 24  1  0  0  0  0
  1 25  1  0  0  0  0
  2  3  1  0  0  0  0
  2 26  1  0  0  0  0
  3  4  2  0  0  0  0
  3  5  1  0  0  0  0
  5  6  1  0  0  0  0
  5 27  1  0  0  0  0
  5 28  1  0  0  0  0
  6 22  1  0  0  0  0
  6  7  1  0  0  0  0
  7  8  1  0  0  0  0
  7 29  1  0  0  0  0
  7 30  1  0  0  0  0
  8  9  1  0  0  0  0
  8 31  1  0  0  0  0
  8 32  1  0  0  0  0
  9 10  1  0  0  0  0
  9 21  1  0  0  0  0
  9 33  1  0  0  0  0
 10 11  1  0  0  0  0
 10 34  1  0  0  0  0
 11 12  2  0  0  0  0
 11 13  1  0  0  0  0
 13 14  1  0  0  0  0
 13 35  1  0  0  0  0
 13 36  1  0  0  0  0
 14 19  1  0  0  0  0
 14 15  1  0  0  0  0
 15 16  2  0  0  0  0
 15 37  1  0  0  0  0
 16 17  1  0  0  0  0
 16 38  1  0  0  0  0
 17 18  2  0  0  0  0
 17 39  1  0  0  0  0
 18 19  1  0  0  0  0
 18 40  1  0  0  0  0
 19 20  2  0  0  0  0
 21 22  1  0  0  0  0
 21 41  1  0  0  0  0
 21 42  1  0  0  0  0
 22 43  1  0  0  0  0
 22 44  1  0  0  0  0
M  END
> <s_m_source_file>
AV-unprocessed.smi

> <i_m_source_file_index>
1202

> <i_lp_mmshare_version>
43012

> <i_f3d_flags>
0

> <s_epik_input>
W0NIM11bTkhdQyg9TylbQ0gyXU4xW0NIMl1bQ0gyXVtDSF0oW0NIMl1bQ0gyXTEpW05IXUMoPU8pW0NIMl1uMltjSF1bY0hdW2NIXVtjSF1jMj1P

> <s_epik_cmdline>
J2VwaWtfcHl0aG9uJywgJy1waCcsICc3LjAnLCAnLXRuJywgJzgnLCAnLW1hJywgJzIwMCcsICctbWV0YWxfYmluZGluZycsICctaW1hZScsICc8aW5maWxlLm1hZT4nLCAnLW9tYWUnLCAnPG91dGZpbGUubWFlPic=

> <r_lp_tautomer_probability>
1

> <r_epik_Ionization_Penalty>
0.12485

> <r_epik_Ionization_Penalty_Charging>
3.59605e-07

> <r_epik_Ionization_Penalty_Neutral>
0.12485

> <r_epik_State_Penalty>
0.114323

> <r_epik_Charging_Adjusted_Penalty>
0.114323

> <i_epik_Tot_Q>
0

> <i_epik_Tot_abs_Q>
0

> <r_epik_Metal_State_Penalty>
0.117995

> <b_epik_Metal_Only>
0

> <s_lp_Force_Field>
OPLS_2005

> <r_lp_Energy>
24.2751

> <b_lp_Chiralities_Consistent>
1

> <s_lp_Variant>
AV-unprocessed.smi:1202-1

> <Gold.Version>
5.8.1

> <Gold.Id.Protein>
6NUR|6NUR_protein|mol2

> <Gold.PLP.Fitness>
49.8748

> <Gold.PLP.PLP>
-44.4377

> <Gold.PLP.part.hbond>
-2.0000

> <Gold.PLP.part.metal>
0.0000

> <Gold.PLP.part.buried>
-4.5321

> <Gold.PLP.part.nonpolar>
-39.7727

> <Gold.PLP.part.repulsive>
1.9622

> <Gold.PLP.ligand.clash>
0.0000

> <Gold.PLP.ligand.torsion>
0.2996

> <Gold.PLP.Chemscore.Hbond>
2.0000

> <Gold.PLP.Chemscore.CHOScore>
0.0000

> <Gold.PLP.Chemscore.Metal>
0.0000

> <Gold.Chemscore.Hbonds>
donor molecule, donor type, donor heavy atom, donor atom, acceptor molecule, acceptor atom, score
      L1  H     2    26       P1  7948  0.99
      L1  H    10    34       P1  8028  1.00

> <Gold.PLP.Chemscore.Internal.Correction>
0.0363

> <Gold.Rescore>
     Score         DG    S(hbond)    S(metal)    S(lipo)     H(rot)  DE(clash)    DE(int)     intcor
     15.08     -17.57       1.97        0.00      94.84       2.19       0.03       2.46       ----

> <Gold.Chemscore.Fitness>
15.0781

> <Gold.Chemscore.DG>
-17.5666

> <Gold.Chemscore.ZeroCoef>
-5.4800

> <Gold.Chemscore.Hbond>
1.9733

> <Gold.Chemscore.Metal>
0.0000

> <Gold.Chemscore.Lipo>
94.8397

> <Gold.Chemscore.Internal_Hbond>
0.0000

> <Gold.Chemscore.DEClash>
0.0306

> <Gold.Chemscore.DEInternal>
2.4579

> <Gold.Chemscore.Rot>
2.1877

> <Gold.Chemscore.Internal.Correction>
   9.000000E+99

> <Gold.Chemscore.Hbonds>
donor molecule, donor type, donor heavy atom, donor atom, acceptor molecule, acceptor atom, score
      L1  H     2    26       P1  7948  0.94
      L1  H    10    34       P1  8028  0.98

> <Gold.Chemscore.Hbond.Weighted>
-6.5908

> <Gold.Chemscore.Metal.Weighted>
-0.0000

> <Gold.Chemscore.Lipo.Weighted>
-11.0962

> <Gold.Chemscore.Internal_Hbond.Weighted>
0.0000

> <Gold.Chemscore.DEClash.Weighted>
0.0306

> <Gold.Chemscore.DEInternal.Weighted>
2.4579

> <Gold.Chemscore.Rot.Weighted>
5.6005

> <Gold.Chemscore.Internal.Correction.Weighted>
   9.000000E+99

> <Gold.Protein.RotatedTorsions>
[ 6907 6896 6895 6894 ] final  113.20 input  -60.11 | X-H torsion
[ 7974 7965 7964 7962 ] final -128.75 input  175.53 | X-H torsion
[ 8008 7997 7996 7995 ] final  -97.39 input   59.86 | X-H torsion
[ 10167 10162 10161 10158 ] final  175.06 input  -65.29 | X-H torsion
[ 10718 10713 10712 10709 ] final   10.56 input   66.30 | X-H torsion
[ 10763 10752 10751 10750 ] final  106.21 input  -60.55 | X-H torsion
[ 11005 11000 10999 10996 ] final   38.59 input  -57.11 | X-H torsion

> <Gold.Protein.ActiveResidues>
 VAL166  LYS551  ARG553  GLY616  TRP617  ASP618  TYR619  PRO620  LYS621  CYS622 
 ASP623  PHE694  ASN695  SER759  ASP760  ASP761  ALA762  ILE779  LEU786  VAL792 
 PHE793  MET794  SER795  GLU796  ALA797  LYS798  CYS799  TRP800  GLU811  SER814 

> <Gold.Protein.RotatedAtoms>
  152.4874  133.8408  159.7151 H   0  0  0  0  0  0  0  0  0  0  0  0  # atno 6907 bound_to 6896
  150.8972  133.7156  159.2895 H   0  0  0  0  0  0  0  0  0  0  0  0  # atno 6908 bound_to 6896
  151.4609  135.1042  159.9777 H   0  0  0  0  0  0  0  0  0  0  0  0  # atno 6909 bound_to 6896
  144.9639  140.7476  143.4712 H   0  0  0  0  0  0  0  0  0  0  0  0  # atno 7974 bound_to 7965
  154.7871  140.0463  157.1172 H   0  0  0  0  0  0  0  0  0  0  0  0  # atno 8008 bound_to 7997
  154.9635  140.3080  155.5000 H   0  0  0  0  0  0  0  0  0  0  0  0  # atno 8009 bound_to 7997
  156.2945  140.2266  156.4722 H   0  0  0  0  0  0  0  0  0  0  0  0  # atno 8010 bound_to 7997
  139.5163  144.3075  152.0322 H   0  0  0  0  0  0  0  0  0  0  0  0  # atno 10167 bound_to 10162
  156.9827  130.6012  149.5678 H   0  0  0  0  0  0  0  0  0  0  0  0  # atno 10718 bound_to 10713
  153.3899  135.3884  155.1916 H   0  0  0  0  0  0  0  0  0  0  0  0  # atno 10763 bound_to 10752
  154.8718  135.3746  154.4751 H   0  0  0  0  0  0  0  0  0  0  0  0  # atno 10764 bound_to 10752
  153.5236  135.7086  153.5780 H   0  0  0  0  0  0  0  0  0  0  0  0  # atno 10765 bound_to 10752
  140.2111  134.3753  155.8048 H   0  0  0  0  0  0  0  0  0  0  0  0  # atno 11005 bound_to 11000
  145.2658  139.1974  143.4868 LP  0  0  0  0  0  0  0  0  0  0  0  0  # atno 17320 bound_to 7965
  146.3362  140.2596  142.8601 LP  0  0  0  0  0  0  0  0  0  0  0  0  # atno 17321 bound_to 7965
  140.2521  144.4158  150.6218 LP  0  0  0  0  0  0  0  0  0  0  0  0  # atno 17342 bound_to 10162
  140.6217  143.2177  151.6680 LP  0  0  0  0  0  0  0  0  0  0  0  0  # atno 17343 bound_to 10162
  156.0238  130.5332  150.8350 LP  0  0  0  0  0  0  0  0  0  0  0  0  # atno 17370 bound_to 10713
  157.5515  131.0944  150.9689 LP  0  0  0  0  0  0  0  0  0  0  0  0  # atno 17371 bound_to 10713
  141.2226  133.7144  156.8420 LP  0  0  0  0  0  0  0  0  0  0  0  0  # atno 17394 bound_to 11000
  140.1949  134.8939  157.3103 LP  0  0  0  0  0  0  0  0  0  0  0  0  # atno 17395 bound_to 11000

$$$$
