AV-unprocessed.smi:103|AV-procd|sdf|984|dock7
  -GOLD-   2262017553D 1   1.00000     0.00000
 Structure written by MMmdl.
 53 55  0  0  0  0  0  0  0  0  1 V2000
  147.9604  134.9021  160.7756 C   0  0  0  0  0  0  0  0  0  0  0  0
  148.3159  136.2472  160.1566 C   0  0  0  0  0  0  0  0  0  0  0  0
  147.9331  137.3068  160.6531 O   0  0  0  0  0  0  0  0  0  0  0  0
  149.0692  136.1186  159.0543 O   0  0  0  0  0  0  0  0  0  0  0  0
  149.3524  137.2584  158.2579 C   0  0  0  0  0  0  0  0  0  0  0  0
  149.6541  136.8250  156.8099 C   0  0  1  0  0  0  0  0  0  0  0  0
  148.6102  135.9664  156.3745 O   0  0  0  0  0  0  0  0  0  0  0  0
  147.5653  136.7370  155.8683 C   0  0  2  0  0  0  0  0  0  0  0  0
  146.9135  135.9726  154.7546 N   0  0  0  0  0  0  0  0  0  0  0  0
  147.2385  134.7394  154.2260 C   0  0  0  0  0  0  0  0  0  0  0  0
  148.6189  133.7062  154.7021 S   0  0  0  0  0  0  0  0  0  0  0  0
  148.6661  132.4873  153.3273 C   0  0  0  0  0  0  0  0  0  0  0  0
  149.8296  134.5396  154.6503 O   0  0  0  0  0  0  0  0  0  0  0  0
  148.2338  133.0243  155.9477 O   0  0  0  0  0  0  0  0  0  0  0  0
  146.5283  134.3331  153.2088 N   0  0  0  0  0  0  0  0  0  0  0  0
  145.5770  135.3338  153.0702 C   0  0  0  0  0  0  0  0  0  0  0  0
  144.4779  135.5342  152.1975 C   0  0  0  0  0  0  0  0  0  0  0  0
  144.1433  134.6680  151.2311 N   0  0  0  0  0  0  0  0  0  0  0  0
  143.7290  136.6516  152.3467 N   0  0  0  0  0  0  0  0  0  0  0  0
  144.0417  137.5316  153.3032 C   0  0  0  0  0  0  0  0  0  0  0  0
  145.0410  137.4840  154.1883 N   0  0  0  0  0  0  0  0  0  0  0  0
  145.7977  136.3572  154.0362 C   0  0  0  0  0  0  0  0  0  0  0  0
  148.1592  138.0871  155.4083 C   0  0  2  0  0  0  0  0  0  0  0  0
  148.0242  138.3038  154.0062 O   0  0  0  0  0  0  0  0  0  0  0  0
  147.1307  139.1862  153.5306 C   0  0  0  0  0  0  0  0  0  0  0  0
  146.8252  138.9572  152.0573 C   0  0  0  0  0  0  0  0  0  0  0  0
  146.5863  140.0869  154.1682 O   0  0  0  0  0  0  0  0  0  0  0  0
  149.6339  137.9521  155.7689 C   0  0  1  0  0  0  0  0  0  0  0  0
  150.1581  139.1690  156.2873 O   0  0  0  0  0  0  0  0  0  0  0  0
  150.4858  140.1784  155.4643 C   0  0  0  0  0  0  0  0  0  0  0  0
  151.0019  141.3946  156.2211 C   0  0  0  0  0  0  0  0  0  0  0  0
  150.3963  140.1741  154.2367 O   0  0  0  0  0  0  0  0  0  0  0  0
  148.8669  134.3593  161.0436 H   0  0  0  0  0  0  0  0  0  0  0  0
  147.3899  134.2986  160.0695 H   0  0  0  0  0  0  0  0  0  0  0  0
  147.3615  135.0401  161.6759 H   0  0  0  0  0  0  0  0  0  0  0  0
  148.4782  137.9105  158.2738 H   0  0  0  0  0  0  0  0  0  0  0  0
  150.1882  137.8267  158.6689 H   0  0  0  0  0  0  0  0  0  0  0  0
  150.5979  136.2796  156.7812 H   0  0  0  0  0  0  0  0  0  0  0  0
  146.8045  136.8444  156.6392 H   0  0  0  0  0  0  0  0  0  0  0  0
  149.4740  131.7770  153.4999 H   0  0  0  0  0  0  0  0  0  0  0  0
  148.8328  133.0068  152.3841 H   0  0  0  0  0  0  0  0  0  0  0  0
  147.7169  131.9536  153.2847 H   0  0  0  0  0  0  0  0  0  0  0  0
  144.6854  133.8260  151.0998 H   0  0  0  0  0  0  0  0  0  0  0  0
  143.3506  134.8590  150.6356 H   0  0  0  0  0  0  0  0  0  0  0  0
  143.4019  138.3995  153.3667 H   0  0  0  0  0  0  0  0  0  0  0  0
  147.6980  138.8753  156.0058 H   0  0  0  0  0  0  0  0  0  0  0  0
  146.3817  137.9719  151.9133 H   0  0  0  0  0  0  0  0  0  0  0  0
  147.7402  139.0156  151.4680 H   0  0  0  0  0  0  0  0  0  0  0  0
  146.1271  139.7087  151.6884 H   0  0  0  0  0  0  0  0  0  0  0  0
  150.2000  137.6155  154.8984 H   0  0  0  0  0  0  0  0  0  0  0  0
  151.8948  141.1353  156.7899 H   0  0  0  0  0  0  0  0  0  0  0  0
  150.2436  141.7597  156.9137 H   0  0  0  0  0  0  0  0  0  0  0  0
  151.2534  142.1986  155.5292 H   0  0  0  0  0  0  0  0  0  0  0  0
  1  2  1  0  0  0  0
  1 33  1  0  0  0  0
  1 34  1  0  0  0  0
  1 35  1  0  0  0  0
  2  3  2  0  0  0  0
  2  4  1  0  0  0  0
  4  5  1  0  0  0  0
  5  6  1  0  0  0  0
  5 36  1  0  0  0  0
  5 37  1  0  0  0  0
  6 28  1  0  0  0  0
  6  7  1  0  0  0  0
  6 38  1  0  0  0  0
  7  8  1  0  0  0  0
  8  9  1  0  0  0  0
  8 23  1  0  0  0  0
  8 39  1  0  0  0  0
  9 22  1  0  0  0  0
  9 10  1  0  0  0  0
 10 11  1  0  0  0  0
 10 15  2  0  0  0  0
 11 12  1  0  0  0  0
 11 13  2  0  0  0  0
 11 14  2  0  0  0  0
 12 40  1  0  0  0  0
 12 41  1  0  0  0  0
 12 42  1  0  0  0  0
 15 16  1  0  0  0  0
 16 22  2  0  0  0  0
 16 17  1  0  0  0  0
 17 18  1  0  0  0  0
 17 19  2  0  0  0  0
 18 43  1  0  0  0  0
 18 44  1  0  0  0  0
 19 20  1  0  0  0  0
 20 21  2  0  0  0  0
 20 45  1  0  0  0  0
 21 22  1  0  0  0  0
 23 24  1  0  0  0  0
 23 28  1  0  0  0  0
 23 46  1  0  0  0  0
 24 25  1  0  0  0  0
 25 26  1  0  0  0  0
 25 27  2  0  0  0  0
 26 47  1  0  0  0  0
 26 48  1  0  0  0  0
 26 49  1  0  0  0  0
 28 29  1  0  0  0  0
 28 50  1  0  0  0  0
 29 30  1  0  0  0  0
 30 31  1  0  0  0  0
 30 32  2  0  0  0  0
 31 51  1  0  0  0  0
 31 52  1  0  0  0  0
 31 53  1  0  0  0  0
M  END
> <s_m_source_file>
AV-unprocessed.smi

> <i_m_source_file_index>
103

> <i_lp_mmshare_version>
43012

> <i_f3d_flags>
0

> <s_epik_input>
W0NIM11DKD1PKU9bQ0gyXVtDQEBIXTFPW0NASF0oW0NAQEhdKE9DKD1PKVtDSDNdKVtDQEhdMU9DKD1PKVtDSDNdKW4oYyhuMilTKD1PKSg9TylbQ0gzXSljKGMyMyluW2NIXW5jM1tOSDJd

> <s_epik_cmdline>
J2VwaWtfcHl0aG9uJywgJy1waCcsICc3LjAnLCAnLXRuJywgJzgnLCAnLW1hJywgJzIwMCcsICctbWV0YWxfYmluZGluZycsICctaW1hZScsICc8aW5maWxlLm1hZT4nLCAnLW9tYWUnLCAnPG91dGZpbGUubWFlPic=

> <r_lp_tautomer_probability>
1

> <r_epik_Ionization_Penalty>
1.51338e-05

> <r_epik_Ionization_Penalty_Charging>
0

> <r_epik_Ionization_Penalty_Neutral>
1.51338e-05

> <r_epik_State_Penalty>
-0

> <r_epik_Charging_Adjusted_Penalty>
0

> <i_epik_Tot_Q>
0

> <i_epik_Tot_abs_Q>
0

> <r_epik_Metal_State_Penalty>
-0

> <b_epik_Metal_Only>
0

> <s_epik_Chemistry_Notes>
This compound has an ester and may undergo hydrolysis at high or low pH. This compound contains an acetal/aminal-like group ( X-CH(R)-Y where X, Y are N, S, or O) that may be acid/base labile, releasing an aldehyde.

> <s_lp_Force_Field>
OPLS_2005

> <r_lp_Energy>
18.7929

> <b_lp_Chiralities_Consistent>
1

> <s_lp_Variant>
AV-unprocessed.smi:103-8

> <Gold.Version>
5.8.1

> <Gold.Id.Protein>
6NUR|6NUR_protein|mol2

> <Gold.PLP.Fitness>
38.9414

> <Gold.PLP.PLP>
-30.8595

> <Gold.PLP.part.hbond>
-3.4084

> <Gold.PLP.part.metal>
0.0000

> <Gold.PLP.part.buried>
-4.6322

> <Gold.PLP.part.nonpolar>
-24.2597

> <Gold.PLP.part.repulsive>
1.1872

> <Gold.PLP.ligand.clash>
0.0000

> <Gold.PLP.ligand.torsion>
2.5172

> <Gold.PLP.Chemscore.Hbond>
2.6320

> <Gold.PLP.Chemscore.CHOScore>
0.9953

> <Gold.PLP.Chemscore.Metal>
0.0000

> <Gold.Chemscore.Hbonds>
donor molecule, donor type, donor heavy atom, donor atom, acceptor molecule, acceptor atom, score
      P1  H  6931  6943       L1     3  0.75
      P1  H  6934  6947       L1     3  0.77
      P1  H  7989  7998       L1    32  1.00
      L1  C    20    45       P1 10175  1.00

> <Gold.PLP.Chemscore.Internal.Correction>
2.2346

> <Gold.Rescore>
     Score         DG    S(hbond)    S(metal)    S(lipo)     H(rot)  DE(clash)    DE(int)     intcor
      1.18      -8.21       2.72        0.00      38.63       4.25       0.08       6.95       ----

> <Gold.Chemscore.Fitness>
1.1786

> <Gold.Chemscore.DG>
-8.2097

> <Gold.Chemscore.ZeroCoef>
-5.4800

> <Gold.Chemscore.Hbond>
2.7183

> <Gold.Chemscore.Metal>
0.0000

> <Gold.Chemscore.Lipo>
38.6260

> <Gold.Chemscore.Internal_Hbond>
0.0000

> <Gold.Chemscore.DEClash>
0.0801

> <Gold.Chemscore.DEInternal>
6.9511

> <Gold.Chemscore.Rot>
4.2456

> <Gold.Chemscore.Internal.Correction>
   9.000000E+99

> <Gold.Chemscore.Hbonds>
donor molecule, donor type, donor heavy atom, donor atom, acceptor molecule, acceptor atom, score
      P1  H  6931  6943       L1     3  0.74
      P1  H  6934  6947       L1     3  0.78
      P1  H  7989  7998       L1    32  0.87

> <Gold.Chemscore.Hbond.Weighted>
-9.0791

> <Gold.Chemscore.Metal.Weighted>
-0.0000

> <Gold.Chemscore.Lipo.Weighted>
-4.5192

> <Gold.Chemscore.Internal_Hbond.Weighted>
0.0000

> <Gold.Chemscore.DEClash.Weighted>
0.0801

> <Gold.Chemscore.DEInternal.Weighted>
6.9511

> <Gold.Chemscore.Rot.Weighted>
10.8687

> <Gold.Chemscore.Internal.Correction.Weighted>
   9.000000E+99

> <Gold.Protein.RotatedTorsions>
[ 6907 6896 6895 6894 ] final  -81.53 input  -60.11 | X-H torsion
[ 7974 7965 7964 7962 ] final  164.04 input  175.53 | X-H torsion
[ 8008 7997 7996 7995 ] final  -16.54 input   59.86 | X-H torsion
[ 10167 10162 10161 10158 ] final -125.71 input  -65.29 | X-H torsion
[ 10718 10713 10712 10709 ] final -105.31 input   66.30 | X-H torsion
[ 10763 10752 10751 10750 ] final   95.77 input  -60.55 | X-H torsion
[ 11005 11000 10999 10996 ] final   71.60 input  -57.11 | X-H torsion

> <Gold.Protein.ActiveResidues>
 VAL166  LYS551  ARG553  GLY616  TRP617  ASP618  TYR619  PRO620  LYS621  CYS622 
 ASP623  PHE694  ASN695  SER759  ASP760  ASP761  ALA762  ILE779  LEU786  VAL792 
 PHE793  MET794  SER795  GLU796  ALA797  LYS798  CYS799  TRP800  GLU811  SER814 

> <Gold.Protein.RotatedAtoms>
  150.6910  134.3803  159.5030 H   0  0  0  0  0  0  0  0  0  0  0  0  # atno 6907 bound_to 6896
  152.1606  134.8912  160.0551 H   0  0  0  0  0  0  0  0  0  0  0  0  # atno 6908 bound_to 6896
  151.9975  133.3778  159.4206 H   0  0  0  0  0  0  0  0  0  0  0  0  # atno 6909 bound_to 6896
  144.7563  139.8268  143.6349 H   0  0  0  0  0  0  0  0  0  0  0  0  # atno 7974 bound_to 7965
  154.5046  140.2167  155.9278 H   0  0  0  0  0  0  0  0  0  0  0  0  # atno 8008 bound_to 7997
  156.1477  140.3167  155.8563 H   0  0  0  0  0  0  0  0  0  0  0  0  # atno 8009 bound_to 7997
  155.3999  140.0483  157.3028 H   0  0  0  0  0  0  0  0  0  0  0  0  # atno 8010 bound_to 7997
  139.9792  143.5760  152.2384 H   0  0  0  0  0  0  0  0  0  0  0  0  # atno 10167 bound_to 10162
  156.0341  130.5558  150.7521 H   0  0  0  0  0  0  0  0  0  0  0  0  # atno 10718 bound_to 10713
  153.2571  135.4242  155.0856 H   0  0  0  0  0  0  0  0  0  0  0  0  # atno 10763 bound_to 10752
  154.8405  135.3440  154.6431 H   0  0  0  0  0  0  0  0  0  0  0  0  # atno 10764 bound_to 10752
  153.6851  135.7036  153.5163 H   0  0  0  0  0  0  0  0  0  0  0  0  # atno 10765 bound_to 10752
  139.9535  134.7185  156.0808 H   0  0  0  0  0  0  0  0  0  0  0  0  # atno 11005 bound_to 11000
  146.1576  139.4679  143.0009 LP  0  0  0  0  0  0  0  0  0  0  0  0  # atno 17320 bound_to 7965
  145.6769  141.0201  143.1627 LP  0  0  0  0  0  0  0  0  0  0  0  0  # atno 17321 bound_to 7965
  139.6422  144.7655  151.2315 LP  0  0  0  0  0  0  0  0  0  0  0  0  # atno 17342 bound_to 10162
  140.7495  143.6298  150.8434 LP  0  0  0  0  0  0  0  0  0  0  0  0  # atno 17343 bound_to 10162
  157.5063  131.0922  151.0253 LP  0  0  0  0  0  0  0  0  0  0  0  0  # atno 17370 bound_to 10713
  157.0620  130.5829  149.5387 LP  0  0  0  0  0  0  0  0  0  0  0  0  # atno 17371 bound_to 10713
  141.1202  133.6615  156.3195 LP  0  0  0  0  0  0  0  0  0  0  0  0  # atno 17394 bound_to 11000
  140.5664  134.5883  157.5447 LP  0  0  0  0  0  0  0  0  0  0  0  0  # atno 17395 bound_to 11000

$$$$
