AV-unprocessed.smi:72|AV-procd|sdf|688|dock3
  -GOLD-   2262017 03D 1   1.00000     0.00000
 Structure written by MMmdl.
 29 30  0  0  0  0  0  0  0  0  1 V2000
  152.0028  140.7198  159.0523 N   0  0  0  0  0  0  0  0  0  0  0  0
  151.2659  140.8651  158.0100 C   0  0  0  0  0  0  0  0  0  0  0  0
  150.1067  141.6514  157.9378 N   0  0  0  0  0  0  0  0  0  0  0  0
  149.4581  141.6995  156.8153 C   0  0  0  0  0  0  0  0  0  0  0  0
  149.8892  140.9671  155.6338 N   0  0  0  0  0  0  0  0  0  0  0  0
  149.1053  141.0262  154.3365 C   0  0  1  0  0  0  0  0  0  0  0  0
  148.9045  139.7269  153.8636 O   0  0  0  0  0  0  0  0  0  0  0  0
  147.5219  139.3974  153.9071 C   0  0  2  0  0  0  0  0  0  0  0  0
  147.1752  138.3693  152.8149 C   0  0  0  0  0  0  0  0  0  0  0  0
  147.4359  138.8632  151.5172 O   0  0  0  0  0  0  0  0  0  0  0  0
  146.7682  140.7318  153.8677 C   0  0  1  0  0  0  0  0  0  0  0  0
  145.5694  140.6403  154.6115 O   0  0  0  0  0  0  0  0  0  0  0  0
  147.7371  141.7059  154.5335 C   0  0  2  0  0  0  0  0  0  0  0  0
  147.6786  142.9558  153.8766 O   0  0  0  0  0  0  0  0  0  0  0  0
  151.0681  140.1807  155.6885 C   0  0  0  0  0  0  0  0  0  0  0  0
  151.5028  139.5608  154.7183 O   0  0  0  0  0  0  0  0  0  0  0  0
  151.7021  140.1617  156.8808 N   0  0  0  0  0  0  0  0  0  0  0  0
  149.7299  141.5279  153.5967 H   0  0  0  0  0  0  0  0  0  0  0  0
  147.3471  138.9209  154.8716 H   0  0  0  0  0  0  0  0  0  0  0  0
  146.5562  141.0373  152.8423 H   0  0  0  0  0  0  0  0  0  0  0  0
  147.5269  141.8222  155.5980 H   0  0  0  0  0  0  0  0  0  0  0  0
  151.6256  141.2548  159.8216 H   0  0  0  0  0  0  0  0  0  0  0  0
  148.5559  142.2945  156.6901 H   0  0  0  0  0  0  0  0  0  0  0  0
  147.7294  137.4436  152.9711 H   0  0  0  0  0  0  0  0  0  0  0  0
  146.1154  138.1194  152.8705 H   0  0  0  0  0  0  0  0  0  0  0  0
  148.0744  139.5569  151.5821 H   0  0  0  0  0  0  0  0  0  0  0  0
  144.8545  140.5122  154.0066 H   0  0  0  0  0  0  0  0  0  0  0  0
  147.9687  143.6249  154.4781 H   0  0  0  0  0  0  0  0  0  0  0  0
  152.5443  139.6100  156.9544 H   0  0  0  0  0  0  0  0  0  0  0  0
  1  2  2  0  0  0  0
  1 22  1  0  0  0  0
  2 17  1  0  0  0  0
  2  3  1  0  0  0  0
  3  4  2  0  0  0  0
  4  5  1  0  0  0  0
  4 23  1  0  0  0  0
  5  6  1  0  0  0  0
  5 15  1  0  0  0  0
  6 18  1  0  0  0  0
  6 13  1  0  0  0  0
  6  7  1  0  0  0  0
  7  8  1  0  0  0  0
  8 19  1  0  0  0  0
  8  9  1  0  0  0  0
  8 11  1  0  0  0  0
  9 10  1  0  0  0  0
  9 24  1  0  0  0  0
  9 25  1  0  0  0  0
 10 26  1  0  0  0  0
 11 20  1  0  0  0  0
 11 12  1  0  0  0  0
 11 13  1  0  0  0  0
 12 27  1  0  0  0  0
 13 21  1  0  0  0  0
 13 14  1  0  0  0  0
 14 28  1  0  0  0  0
 15 16  2  0  0  0  0
 15 17  1  0  0  0  0
 17 29  1  0  0  0  0
M  END
> <s_m_source_file>
AV-unprocessed.smi

> <i_m_source_file_index>
72

> <i_lp_mmshare_version>
43012

> <i_f3d_flags>
0

> <s_epik_input>
W05IMl1jMW5bY0hdbihjKD1PKW4xKVtDQEBIXTJPW0NASF0oW0NIMl1bT0hdKVtDQEBIXShbT0hdKVtDQEhdMltPSF0=

> <s_epik_cmdline>
J2VwaWtfcHl0aG9uJywgJy1waCcsICc3LjAnLCAnLXRuJywgJzgnLCAnLW1hJywgJzIwMCcsICctbWV0YWxfYmluZGluZycsICctaW1hZScsICc8aW5maWxlLm1hZT4nLCAnLW9tYWUnLCAnPG91dGZpbGUubWFlPic=

> <r_lp_tautomer_probability>
7.17554e-07

> <r_epik_Ionization_Penalty>
0.0066451

> <r_epik_Ionization_Penalty_Charging>
0.00663793

> <r_epik_Ionization_Penalty_Neutral>
7.17052e-06

> <r_epik_State_Penalty>
0.419231

> <r_epik_Charging_Adjusted_Penalty>
0.425868

> <i_epik_Tot_Q>
0

> <i_epik_Tot_abs_Q>
0

> <r_epik_Metal_State_Penalty>
1.44144

> <b_epik_Metal_Only>
0

> <s_epik_Chemistry_Notes>
This compound contains an acetal/aminal-like group ( X-CH(R)-Y where X, Y are N, S, or O) that may be acid/base labile, releasing an aldehyde.

> <s_lp_Force_Field>
OPLS_2005

> <r_lp_Energy>
38.9387

> <b_lp_Chiralities_Consistent>
1

> <s_lp_Variant>
AV-unprocessed.smi:72-26

> <Gold.Version>
5.8.1

> <Gold.Id.Protein>
6NUR|6NUR_protein|mol2

> <Gold.PLP.Fitness>
41.0679

> <Gold.PLP.PLP>
-25.5045

> <Gold.PLP.part.hbond>
-7.7727

> <Gold.PLP.part.metal>
0.0000

> <Gold.PLP.part.buried>
0.2199

> <Gold.PLP.part.nonpolar>
-19.1183

> <Gold.PLP.part.repulsive>
2.4187

> <Gold.PLP.ligand.clash>
0.0000

> <Gold.PLP.ligand.torsion>
0.2103

> <Gold.PLP.Chemscore.Hbond>
4.6982

> <Gold.PLP.Chemscore.CHOScore>
0.6294

> <Gold.PLP.Chemscore.Metal>
0.0000

> <Gold.Chemscore.Hbonds>
donor molecule, donor type, donor heavy atom, donor atom, acceptor molecule, acceptor atom, score
      L1  H    10    26       P1  7957  0.88
      L1  H    12    27       P1 10175  1.00
      L1  H    14    28       P1  8028  1.00
      P1  H  7954  7966       L1    10  0.85
      P1  H  7989  7998       L1    16  1.00
      L1  C     4    23       P1  8028  0.52

> <Gold.PLP.Chemscore.Internal.Correction>
0.0009

> <Gold.Rescore>
     Score         DG    S(hbond)    S(metal)    S(lipo)     H(rot)  DE(clash)    DE(int)     intcor
      7.35     -10.20       3.63        0.00      25.46       4.06       1.39       1.46       ----

> <Gold.Chemscore.Fitness>
7.3502

> <Gold.Chemscore.DG>
-10.1991

> <Gold.Chemscore.ZeroCoef>
-5.4800

> <Gold.Chemscore.Hbond>
3.6330

> <Gold.Chemscore.Metal>
0.0000

> <Gold.Chemscore.Lipo>
25.4558

> <Gold.Chemscore.Internal_Hbond>
0.0000

> <Gold.Chemscore.DEClash>
1.3885

> <Gold.Chemscore.DEInternal>
1.4604

> <Gold.Chemscore.Rot>
4.0600

> <Gold.Chemscore.Internal.Correction>
   9.000000E+99

> <Gold.Chemscore.Hbonds>
donor molecule, donor type, donor heavy atom, donor atom, acceptor molecule, acceptor atom, score
      L1  H    10    26       P1  7957  0.86
      L1  H    12    27       P1 10175  1.00
      L1  H    14    28       P1  8028  0.70
      P1  H  7954  7966       L1    10  0.18
      P1  H  7989  7998       L1    16  0.35

> <Gold.Chemscore.Hbond.Weighted>
-12.1344

> <Gold.Chemscore.Metal.Weighted>
-0.0000

> <Gold.Chemscore.Lipo.Weighted>
-2.9783

> <Gold.Chemscore.Internal_Hbond.Weighted>
0.0000

> <Gold.Chemscore.DEClash.Weighted>
1.3885

> <Gold.Chemscore.DEInternal.Weighted>
1.4604

> <Gold.Chemscore.Rot.Weighted>
10.3936

> <Gold.Chemscore.Internal.Correction.Weighted>
   9.000000E+99

> <Gold.Protein.RotatedTorsions>
[ 6907 6896 6895 6894 ] final   63.83 input  -60.11 | X-H torsion
[ 7974 7965 7964 7962 ] final   62.89 input  175.53 | X-H torsion
[ 8008 7997 7996 7995 ] final  177.59 input   59.86 | X-H torsion
[ 10167 10162 10161 10158 ] final  -71.08 input  -65.29 | X-H torsion
[ 10718 10713 10712 10709 ] final  145.27 input   66.30 | X-H torsion
[ 10763 10752 10751 10750 ] final -174.20 input  -60.55 | X-H torsion
[ 11005 11000 10999 10996 ] final   25.34 input  -57.11 | X-H torsion

> <Gold.Protein.ActiveResidues>
 VAL166  LYS551  ARG553  GLY616  TRP617  ASP618  TYR619  PRO620  LYS621  CYS622 
 ASP623  PHE694  ASN695  SER759  ASP760  ASP761  ALA762  ILE779  LEU786  VAL792 
 PHE793  MET794  SER795  GLU796  ALA797  LYS798  CYS799  TRP800  GLU811  SER814 

> <Gold.Protein.RotatedAtoms>
  152.4284  134.5824  159.9951 H   0  0  0  0  0  0  0  0  0  0  0  0  # atno 6907 bound_to 6896
  151.5954  133.3356  159.3044 H   0  0  0  0  0  0  0  0  0  0  0  0  # atno 6908 bound_to 6896
  150.8175  134.7401  159.6808 H   0  0  0  0  0  0  0  0  0  0  0  0  # atno 6909 bound_to 6896
  145.8681  139.3360  143.0779 H   0  0  0  0  0  0  0  0  0  0  0  0  # atno 7974 bound_to 7965
  156.0640  140.1354  156.9908 H   0  0  0  0  0  0  0  0  0  0  0  0  # atno 8008 bound_to 7997
  154.4496  140.0985  156.6630 H   0  0  0  0  0  0  0  0  0  0  0  0  # atno 8009 bound_to 7997
  155.5333  140.3459  155.4433 H   0  0  0  0  0  0  0  0  0  0  0  0  # atno 8010 bound_to 7997
  140.5302  143.2322  151.7276 H   0  0  0  0  0  0  0  0  0  0  0  0  # atno 10167 bound_to 10162
  157.3473  131.0945  151.1031 H   0  0  0  0  0  0  0  0  0  0  0  0  # atno 10718 bound_to 10713
  154.5989  135.2852  155.0556 H   0  0  0  0  0  0  0  0  0  0  0  0  # atno 10763 bound_to 10752
  154.1828  135.6454  153.5042 H   0  0  0  0  0  0  0  0  0  0  0  0  # atno 10764 bound_to 10752
  153.0149  135.5427  154.6702 H   0  0  0  0  0  0  0  0  0  0  0  0  # atno 10765 bound_to 10752
  140.3489  134.2251  155.7682 H   0  0  0  0  0  0  0  0  0  0  0  0  # atno 11005 bound_to 11000
  145.9169  140.9142  143.0425 LP  0  0  0  0  0  0  0  0  0  0  0  0  # atno 17320 bound_to 7965
  144.6726  140.1235  143.7448 LP  0  0  0  0  0  0  0  0  0  0  0  0  # atno 17321 bound_to 7965
  139.4951  144.4126  152.0064 LP  0  0  0  0  0  0  0  0  0  0  0  0  # atno 17342 bound_to 10162
  140.3228  144.3408  150.6005 LP  0  0  0  0  0  0  0  0  0  0  0  0  # atno 17343 bound_to 10162
  157.2220  130.6485  149.5815 LP  0  0  0  0  0  0  0  0  0  0  0  0  # atno 17370 bound_to 10713
  155.9716  130.4626  150.6152 LP  0  0  0  0  0  0  0  0  0  0  0  0  # atno 17371 bound_to 10713
  141.2018  133.7954  157.0424 LP  0  0  0  0  0  0  0  0  0  0  0  0  # atno 17394 bound_to 11000
  140.0720  134.9697  157.1482 LP  0  0  0  0  0  0  0  0  0  0  0  0  # atno 17395 bound_to 11000

$$$$
