AV-unprocessed.smi:1818|AV-procd|sdf|7380|dock10
  -GOLD-   22720 9 43D 1   1.00000     0.00000
 Structure written by MMmdl.
 36 37  0  0  0  0  0  0  0  0  1 V2000
  151.5143  139.3929  155.0098 N   0  0  0  0  0  0  0  0  0  0  0  0
  150.6996  140.1620  155.2992 C   0  0  0  0  0  0  0  0  0  0  0  0
  149.6608  141.1437  155.6696 C   0  0  0  0  0  0  0  0  0  0  0  0
  150.2802  142.4102  156.0730 N   0  0  0  0  0  0  0  0  0  0  0  0
  151.2316  142.5897  157.0051 C   0  0  0  0  0  0  0  0  0  0  0  0
  151.7035  141.6797  157.6853 O   0  0  0  0  0  0  0  0  0  0  0  0
  151.7374  144.0196  157.1915 C   0  0  0  0  0  0  0  0  0  0  0  0
  151.6098  144.4344  158.5756 N   0  0  0  0  0  0  0  0  0  0  0  0
  152.3637  143.9961  159.6571 C   0  0  0  0  0  0  0  0  0  0  0  0
  151.8814  144.6555  160.7653 C   0  0  0  0  0  0  0  0  0  0  0  0
  150.8369  145.4979  160.3917 N   0  0  0  0  0  0  0  0  0  0  0  0
  150.7323  145.3119  159.0823 C   0  0  0  0  0  0  0  0  0  0  0  0
  148.8234  141.4242  154.3970 C   0  0  0  0  0  0  0  0  0  0  0  0
  147.4133  141.9973  154.6262 C   0  0  0  0  0  0  0  0  0  0  0  0
  146.3514  140.8963  154.7999 C   0  0  0  0  0  0  0  0  0  0  0  0
  146.4068  140.1474  156.1407 C   0  0  0  0  0  0  0  0  0  0  0  0
  147.7731  139.5264  156.4803 C   0  0  0  0  0  0  0  0  0  0  0  0
  148.8213  140.5891  156.8503 C   0  0  0  0  0  0  0  0  0  0  0  0
  149.9646  143.2306  155.5768 H   0  0  0  0  0  0  0  0  0  0  0  0
  152.7824  144.1015  156.8893 H   0  0  0  0  0  0  0  0  0  0  0  0
  151.1642  144.7007  156.5608 H   0  0  0  0  0  0  0  0  0  0  0  0
  153.1569  143.2704  159.5531 H   0  0  0  0  0  0  0  0  0  0  0  0
  152.2016  144.5878  161.7945 H   0  0  0  0  0  0  0  0  0  0  0  0
  149.9984  145.8246  158.4773 H   0  0  0  0  0  0  0  0  0  0  0  0
  149.3805  142.1078  153.7541 H   0  0  0  0  0  0  0  0  0  0  0  0
  148.7356  140.5110  153.8062 H   0  0  0  0  0  0  0  0  0  0  0  0
  147.4000  142.6979  155.4617 H   0  0  0  0  0  0  0  0  0  0  0  0
  147.1402  142.5803  153.7461 H   0  0  0  0  0  0  0  0  0  0  0  0
  145.3630  141.3465  154.7032 H   0  0  0  0  0  0  0  0  0  0  0  0
  146.4275  140.1811  153.9800 H   0  0  0  0  0  0  0  0  0  0  0  0
  146.1002  140.8179  156.9445 H   0  0  0  0  0  0  0  0  0  0  0  0
  145.6580  139.3549  156.1204 H   0  0  0  0  0  0  0  0  0  0  0  0
  147.6334  138.8745  157.3431 H   0  0  0  0  0  0  0  0  0  0  0  0
  148.1284  138.8826  155.6751 H   0  0  0  0  0  0  0  0  0  0  0  0
  149.5029  140.1484  157.5791 H   0  0  0  0  0  0  0  0  0  0  0  0
  148.3305  141.4041  157.3847 H   0  0  0  0  0  0  0  0  0  0  0  0
  1  2  3  0  0  0  0
  2  3  1  0  0  0  0
  3 18  1  0  0  0  0
  3  4  1  0  0  0  0
  3 13  1  0  0  0  0
  4  5  1  0  0  0  0
  4 19  1  0  0  0  0
  5  6  2  0  0  0  0
  5  7  1  0  0  0  0
  7  8  1  0  0  0  0
  7 20  1  0  0  0  0
  7 21  1  0  0  0  0
  8 12  1  0  0  0  0
  8  9  1  0  0  0  0
  9 10  2  0  0  0  0
  9 22  1  0  0  0  0
 10 11  1  0  0  0  0
 10 23  1  0  0  0  0
 11 12  2  0  0  0  0
 12 24  1  0  0  0  0
 13 14  1  0  0  0  0
 13 25  1  0  0  0  0
 13 26  1  0  0  0  0
 14 15  1  0  0  0  0
 14 27  1  0  0  0  0
 14 28  1  0  0  0  0
 15 16  1  0  0  0  0
 15 29  1  0  0  0  0
 15 30  1  0  0  0  0
 16 17  1  0  0  0  0
 16 31  1  0  0  0  0
 16 32  1  0  0  0  0
 17 18  1  0  0  0  0
 17 33  1  0  0  0  0
 17 34  1  0  0  0  0
 18 35  1  0  0  0  0
 18 36  1  0  0  0  0
M  END
> <s_m_source_file>
AV-unprocessed.smi

> <i_m_source_file_index>
1818

> <i_lp_mmshare_version>
43012

> <i_f3d_flags>
0

> <s_epik_input>
W0NIMl0xW0NIMl1bQ0gyXVtDSDJdW0NIMl1bQ0gyXUMxKEMjTilbTkhdQyg9TylbQ0gyXW4yW2NIXVtjSF1uW2NIXTI=

> <s_epik_cmdline>
J2VwaWtfcHl0aG9uJywgJy1waCcsICc3LjAnLCAnLXRuJywgJzgnLCAnLW1hJywgJzIwMCcsICctbWV0YWxfYmluZGluZycsICctaW1hZScsICc8aW5maWxlLm1hZT4nLCAnLW9tYWUnLCAnPG91dGZpbGUubWFlPic=

> <r_lp_tautomer_probability>
1

> <r_epik_Ionization_Penalty>
0.21493

> <r_epik_Ionization_Penalty_Charging>
0.214927

> <r_epik_Ionization_Penalty_Neutral>
2.56273e-06

> <r_epik_State_Penalty>
0.205117

> <r_epik_Charging_Adjusted_Penalty>
0.420044

> <i_epik_Tot_Q>
0

> <i_epik_Tot_abs_Q>
0

> <r_epik_Metal_State_Penalty>
0.148888

> <b_epik_Metal_Only>
0

> <s_lp_Force_Field>
OPLS_2005

> <r_lp_Energy>
17.7076

> <b_lp_Chiralities_Consistent>
1

> <s_lp_Variant>
AV-unprocessed.smi:1818-1

> <Gold.Version>
5.8.1

> <Gold.Id.Protein>
6NUR|6NUR_protein|mol2

> <Gold.PLP.Fitness>
41.3041

> <Gold.PLP.PLP>
-35.9909

> <Gold.PLP.part.hbond>
-2.2705

> <Gold.PLP.part.metal>
0.0000

> <Gold.PLP.part.buried>
-4.3330

> <Gold.PLP.part.nonpolar>
-30.4515

> <Gold.PLP.part.repulsive>
0.6943

> <Gold.PLP.ligand.clash>
0.0000

> <Gold.PLP.ligand.torsion>
0.2413

> <Gold.PLP.Chemscore.Hbond>
0.9280

> <Gold.PLP.Chemscore.CHOScore>
1.0000

> <Gold.PLP.Chemscore.Metal>
0.0000

> <Gold.Chemscore.Hbonds>
donor molecule, donor type, donor heavy atom, donor atom, acceptor molecule, acceptor atom, score
      L1  H     4    19       P1  8028  0.91
      L1  C    12    24       P1  8029  1.00

> <Gold.PLP.Chemscore.Internal.Correction>
0.0118

> <Gold.Rescore>
     Score         DG    S(hbond)    S(metal)    S(lipo)     H(rot)  DE(clash)    DE(int)     intcor
     10.66     -12.07       0.94        0.00      65.46       1.65       0.14       1.27       ----

> <Gold.Chemscore.Fitness>
10.6590

> <Gold.Chemscore.DG>
-12.0714

> <Gold.Chemscore.ZeroCoef>
-5.4800

> <Gold.Chemscore.Hbond>
0.9443

> <Gold.Chemscore.Metal>
0.0000

> <Gold.Chemscore.Lipo>
65.4562

> <Gold.Chemscore.Internal_Hbond>
0.0000

> <Gold.Chemscore.DEClash>
0.1417

> <Gold.Chemscore.DEInternal>
1.2707

> <Gold.Chemscore.Rot>
1.6488

> <Gold.Chemscore.Internal.Correction>
   9.000000E+99

> <Gold.Chemscore.Hbonds>
donor molecule, donor type, donor heavy atom, donor atom, acceptor molecule, acceptor atom, score
      L1  H     4    19       P1  8028  0.90

> <Gold.Chemscore.Hbond.Weighted>
-3.1540

> <Gold.Chemscore.Metal.Weighted>
-0.0000

> <Gold.Chemscore.Lipo.Weighted>
-7.6584

> <Gold.Chemscore.Internal_Hbond.Weighted>
0.0000

> <Gold.Chemscore.DEClash.Weighted>
0.1417

> <Gold.Chemscore.DEInternal.Weighted>
1.2707

> <Gold.Chemscore.Rot.Weighted>
4.2210

> <Gold.Chemscore.Internal.Correction.Weighted>
   9.000000E+99

> <Gold.Protein.RotatedTorsions>
[ 6907 6896 6895 6894 ] final  116.91 input  -60.11 | X-H torsion
[ 7974 7965 7964 7962 ] final   29.44 input  175.53 | X-H torsion
[ 8008 7997 7996 7995 ] final -113.20 input   59.86 | X-H torsion
[ 10167 10162 10161 10158 ] final  -58.94 input  -65.29 | X-H torsion
[ 10718 10713 10712 10709 ] final  -79.82 input   66.30 | X-H torsion
[ 10763 10752 10751 10750 ] final  -50.67 input  -60.55 | X-H torsion
[ 11005 11000 10999 10996 ] final -154.76 input  -57.11 | X-H torsion

> <Gold.Protein.ActiveResidues>
 VAL166  LYS551  ARG553  GLY616  TRP617  ASP618  TYR619  PRO620  LYS621  CYS622 
 ASP623  PHE694  ASN695  SER759  ASP760  ASP761  ALA762  ILE779  LEU786  VAL792 
 PHE793  MET794  SER795  GLU796  ALA797  LYS798  CYS799  TRP800  GLU811  SER814 

> <Gold.Protein.RotatedAtoms>
  152.4647  133.7896  159.6894 H   0  0  0  0  0  0  0  0  0  0  0  0  # atno 6907 bound_to 6896
  150.8606  133.7640  159.3000 H   0  0  0  0  0  0  0  0  0  0  0  0  # atno 6908 bound_to 6896
  151.5207  135.1070  159.9929 H   0  0  0  0  0  0  0  0  0  0  0  0  # atno 6909 bound_to 6896
  146.1671  139.6921  142.8993 H   0  0  0  0  0  0  0  0  0  0  0  0  # atno 7974 bound_to 7965
  155.0170  140.0393  157.2422 H   0  0  0  0  0  0  0  0  0  0  0  0  # atno 8008 bound_to 7997
  154.7411  140.2749  155.6349 H   0  0  0  0  0  0  0  0  0  0  0  0  # atno 8009 bound_to 7997
  156.2864  140.2665  156.2138 H   0  0  0  0  0  0  0  0  0  0  0  0  # atno 8010 bound_to 7997
  140.6166  143.2404  151.5582 H   0  0  0  0  0  0  0  0  0  0  0  0  # atno 10167 bound_to 10162
  156.0084  130.4556  150.3706 H   0  0  0  0  0  0  0  0  0  0  0  0  # atno 10718 bound_to 10713
  154.1142  135.6544  153.4890 H   0  0  0  0  0  0  0  0  0  0  0  0  # atno 10763 bound_to 10752
  153.0246  135.5255  154.7162 H   0  0  0  0  0  0  0  0  0  0  0  0  # atno 10764 bound_to 10752
  154.6351  135.2981  155.0141 H   0  0  0  0  0  0  0  0  0  0  0  0  # atno 10765 bound_to 10752
  140.6938  134.4012  157.5216 H   0  0  0  0  0  0  0  0  0  0  0  0  # atno 11005 bound_to 11000
  145.4439  141.0424  143.2842 LP  0  0  0  0  0  0  0  0  0  0  0  0  # atno 17320 bound_to 7965
  144.8108  139.5965  143.7030 LP  0  0  0  0  0  0  0  0  0  0  0  0  # atno 17321 bound_to 7965
  139.5404  144.2664  152.1338 LP  0  0  0  0  0  0  0  0  0  0  0  0  # atno 17342 bound_to 10162
  140.1875  144.4784  150.6496 LP  0  0  0  0  0  0  0  0  0  0  0  0  # atno 17343 bound_to 10162
  157.1790  131.0387  151.2758 LP  0  0  0  0  0  0  0  0  0  0  0  0  # atno 17370 bound_to 10713
  157.4162  130.7412  149.6877 LP  0  0  0  0  0  0  0  0  0  0  0  0  # atno 17371 bound_to 10713
  139.8916  134.8776  156.2313 LP  0  0  0  0  0  0  0  0  0  0  0  0  # atno 17394 bound_to 11000
  141.0219  133.7036  156.1283 LP  0  0  0  0  0  0  0  0  0  0  0  0  # atno 17395 bound_to 11000

$$$$
