AV-unprocessed.smi:290|AV-procd|sdf|2215|dock6
  -GOLD-   2262022 53D 1   1.00000     0.00000
 Structure written by MMmdl.
 59 62  0  0  0  0  0  0  0  0  2 V2000
  150.9694  142.0693  156.0875 C   0  0  0  0  0  0  0  0  0  0  0  0
  150.9531  140.5334  156.0706 C   0  0  2  0  0  0  0  0  0  0  0  0
  151.5116  140.0344  154.8581 O   0  0  0  0  0  0  0  0  0  0  0  0
  150.8561  138.8285  154.4741 C   0  0  0  0  0  0  0  0  0  0  0  0
  149.9158  138.4832  155.6253 C   0  0  0  0  0  0  0  0  0  0  0  0
  149.5768  139.8538  156.1995 C   0  0  1  0  0  0  0  0  0  0  0  0
  149.2256  139.7083  157.5633 O   0  0  0  0  0  0  0  0  0  0  0  0
  148.4345  140.5873  155.4454 C   0  0  0  0  0  0  0  0  0  0  0  0
  147.5473  139.6963  154.7147 N   0  0  0  0  0  0  0  0  0  0  0  0
  147.7696  139.1438  153.4733 C   0  0  0  0  0  0  0  0  0  0  0  0
  146.8164  138.3706  153.0291 N   0  0  0  0  0  0  0  0  0  0  0  0
  145.8661  138.3893  154.0429 C   0  0  0  0  0  0  0  0  0  0  0  0
  144.5925  137.7805  154.2259 C   0  0  0  0  0  0  0  0  0  0  0  0
  143.9903  136.9665  153.3331 N   0  0  0  0  0  0  0  0  0  0  0  0
  142.6126  136.6108  153.6662 C   0  0  0  0  0  0  0  0  0  0  0  0
  142.3943  135.1941  153.1298 C   0  0  0  0  0  0  0  0  0  0  0  0
  143.7987  134.6036  153.2761 C   0  0  1  0  0  0  0  0  0  0  0  0
  144.0844  133.2951  152.6088 N   0  3  1  0  0  0  0  0  0  0  0  0
  143.6432  133.2993  151.1916 C   0  0  0  0  0  0  0  0  0  0  0  0
  145.4737  132.7808  152.7707 C   0  0  0  0  0  0  0  0  0  0  0  0
  145.7231  131.4675  152.0072 C   0  0  0  0  0  0  0  0  0  0  0  0
  147.0438  131.0194  152.2256 O   0  0  0  0  0  0  0  0  0  0  0  0
  144.7316  135.7768  152.9141 C   0  0  1  0  0  0  0  0  0  0  0  0
  145.1164  135.9133  151.4319 C   0  0  0  0  0  0  0  0  0  0  0  0
  143.9334  138.0165  155.3860 N   0  0  0  0  0  0  0  0  0  0  0  0
  144.4769  138.8126  156.3120 C   0  0  0  0  0  0  0  0  0  0  0  0
  145.6466  139.4550  156.2785 N   0  0  0  0  0  0  0  0  0  0  0  0
  146.3149  139.2104  155.1146 C   0  0  0  0  0  0  0  0  0  0  0  0
  143.9473  134.4540  154.3472 H   0  0  0  0  0  0  0  0  0  0  0  0
  145.6590  135.6724  153.4793 H   0  0  0  0  0  0  0  0  0  0  0  0
  150.5132  142.4562  156.9990 H   0  0  0  0  0  0  0  0  0  0  0  0
  150.4346  142.4894  155.2357 H   0  0  0  0  0  0  0  0  0  0  0  0
  151.9926  142.4430  156.0451 H   0  0  0  0  0  0  0  0  0  0  0  0
  151.5998  140.1717  156.8723 H   0  0  0  0  0  0  0  0  0  0  0  0
  150.2928  139.0130  153.5588 H   0  0  0  0  0  0  0  0  0  0  0  0
  151.5735  138.0322  154.2743 H   0  0  0  0  0  0  0  0  0  0  0  0
  149.0564  137.8901  155.3149 H   0  0  0  0  0  0  0  0  0  0  0  0
  150.4643  137.8923  156.3610 H   0  0  0  0  0  0  0  0  0  0  0  0
  150.0068  139.8073  158.0857 H   0  0  0  0  0  0  0  0  0  0  0  0
  147.8264  141.1644  156.1433 H   0  0  0  0  0  0  0  0  0  0  0  0
  148.8484  141.3074  154.7387 H   0  0  0  0  0  0  0  0  0  0  0  0
  148.6660  139.3375  152.9024 H   0  0  0  0  0  0  0  0  0  0  0  0
  142.4640  136.6287  154.7473 H   0  0  0  0  0  0  0  0  0  0  0  0
  141.9112  137.3180  153.2227 H   0  0  0  0  0  0  0  0  0  0  0  0
  141.6364  134.6438  153.6880 H   0  0  0  0  0  0  0  0  0  0  0  0
  142.0755  135.2562  152.0899 H   0  0  0  0  0  0  0  0  0  0  0  0
  144.2266  134.0110  150.6059 H   0  0  0  0  0  0  0  0  0  0  0  0
  142.5910  133.5756  151.1130 H   0  0  0  0  0  0  0  0  0  0  0  0
  143.7407  132.3181  150.7305 H   0  0  0  0  0  0  0  0  0  0  0  0
  146.1815  133.5429  152.4421 H   0  0  0  0  0  0  0  0  0  0  0  0
  145.6960  132.5934  153.8192 H   0  0  0  0  0  0  0  0  0  0  0  0
  145.0176  130.6840  152.2806 H   0  0  0  0  0  0  0  0  0  0  0  0
  145.5966  131.6379  150.9378 H   0  0  0  0  0  0  0  0  0  0  0  0
  147.5633  131.2273  151.4634 H   0  0  0  0  0  0  0  0  0  0  0  0
  145.6599  135.0388  151.0766 H   0  0  0  0  0  0  0  0  0  0  0  0
  145.7676  136.7755  151.2846 H   0  0  0  0  0  0  0  0  0  0  0  0
  144.2423  136.0589  150.7975 H   0  0  0  0  0  0  0  0  0  0  0  0
  143.8903  138.9563  157.2075 H   0  0  0  0  0  0  0  0  0  0  0  0
  143.4879  132.6262  153.0756 H   0  0  0  0  0  0  0  0  0  0  0  0
  1  2  1  0  0  0  0
  1 31  1  0  0  0  0
  1 32  1  0  0  0  0
  1 33  1  0  0  0  0
  2  6  1  0  0  0  0
  2  3  1  0  0  0  0
  2 34  1  0  0  0  0
  3  4  1  0  0  0  0
  4  5  1  0  0  0  0
  4 35  1  0  0  0  0
  4 36  1  0  0  0  0
  5  6  1  0  0  0  0
  5 37  1  0  0  0  0
  5 38  1  0  0  0  0
  6  7  1  0  0  0  0
  6  8  1  0  0  0  0
  7 39  1  0  0  0  0
  8  9  1  0  0  0  0
  8 40  1  0  0  0  0
  8 41  1  0  0  0  0
  9 28  1  0  0  0  0
  9 10  1  0  0  0  0
 10 11  2  0  0  0  0
 10 42  1  0  0  0  0
 11 12  1  0  0  0  0
 12 28  2  0  0  0  0
 12 13  1  0  0  0  0
 13 14  1  0  0  0  0
 13 25  2  0  0  0  0
 14 23  1  0  0  0  0
 14 15  1  0  0  0  0
 15 16  1  0  0  0  0
 15 43  1  0  0  0  0
 15 44  1  0  0  0  0
 16 17  1  0  0  0  0
 16 45  1  0  0  0  0
 16 46  1  0  0  0  0
 17 29  1  0  0  0  0
 17 18  1  0  0  0  0
 17 23  1  0  0  0  0
 18 19  1  0  0  0  0
 18 20  1  0  0  0  0
 18 59  1  0  0  0  0
 19 47  1  0  0  0  0
 19 48  1  0  0  0  0
 19 49  1  0  0  0  0
 20 21  1  0  0  0  0
 20 50  1  0  0  0  0
 20 51  1  0  0  0  0
 21 22  1  0  0  0  0
 21 52  1  0  0  0  0
 21 53  1  0  0  0  0
 22 54  1  0  0  0  0
 23 30  1  0  0  0  0
 23 24  1  0  0  0  0
 24 55  1  0  0  0  0
 24 56  1  0  0  0  0
 24 57  1  0  0  0  0
 25 26  1  0  0  0  0
 26 27  2  0  0  0  0
 26 58  1  0  0  0  0
 27 28  1  0  0  0  0
M  CHG  1  18   1
M  END
> <s_m_source_file>
AV-unprocessed.smi

> <i_m_source_file_index>
290

> <i_lp_mmshare_version>
43012

> <i_f3d_flags>
0

> <s_epik_input>
W0NIMl0xW0NIMl1PW0NAQEhdKFtDSDNdKVtDQEBdMShbT0hdKVtDSDJdbihbY0hdbjIpYyhjMjMpbltjSF1uYzNONFtDSDJdW0NIMl1bQ0BIXShbQ0BIXTRbQ0gzXSlOKFtDSDNdKVtDSDJdW0NIMl1bT0hd

> <s_epik_cmdline>
J2VwaWtfcHl0aG9uJywgJy1waCcsICc3LjAnLCAnLXRuJywgJzgnLCAnLW1hJywgJzIwMCcsICctbWV0YWxfYmluZGluZycsICctaW1hZScsICc8aW5maWxlLm1hZT4nLCAnLW9tYWUnLCAnPG91dGZpbGUubWFlPic=

> <r_lp_tautomer_probability>
1

> <r_epik_Ionization_Penalty>
0.0036983

> <r_epik_Ionization_Penalty_Charging>
0.0032725

> <r_epik_Ionization_Penalty_Neutral>
0.000425798

> <r_epik_State_Penalty>
-0

> <r_epik_Charging_Adjusted_Penalty>
0.0032725

> <i_epik_Tot_Q>
1

> <i_epik_Tot_abs_Q>
1

> <r_epik_Metal_State_Penalty>
-0

> <b_epik_Metal_Only>
0

> <s_lp_Force_Field>
OPLS_2005

> <r_lp_Energy>
65.3188

> <b_lp_Chiralities_Consistent>
1

> <s_lp_Variant>
AV-unprocessed.smi:290-1

> <Gold.Version>
5.8.1

> <Gold.Id.Protein>
6NUR|6NUR_protein|mol2

> <Gold.PLP.Fitness>
43.3092

> <Gold.PLP.PLP>
-30.6980

> <Gold.PLP.part.hbond>
-3.0000

> <Gold.PLP.part.metal>
0.0000

> <Gold.PLP.part.buried>
-7.7507

> <Gold.PLP.part.nonpolar>
-21.8413

> <Gold.PLP.part.repulsive>
0.5184

> <Gold.PLP.ligand.clash>
0.0000

> <Gold.PLP.ligand.torsion>
1.3462

> <Gold.PLP.Chemscore.Hbond>
3.9825

> <Gold.PLP.Chemscore.CHOScore>
1.0000

> <Gold.PLP.Chemscore.Metal>
0.0000

> <Gold.Chemscore.Hbonds>
donor molecule, donor type, donor heavy atom, donor atom, acceptor molecule, acceptor atom, score
      L1  H    18    59       P1 10957  1.64
      L1  H    22    54       P1 10747  1.00
      P1  H  7989  7998       L1     3  1.00
      L1  C    10    42       P1  7957  1.00

> <Gold.PLP.Chemscore.Internal.Correction>
0.3562

> <Gold.Rescore>
     Score         DG    S(hbond)    S(metal)    S(lipo)     H(rot)  DE(clash)    DE(int)     intcor
      9.08     -10.78       1.98        0.00      68.84       3.67       0.03       1.66       ----

> <Gold.Chemscore.Fitness>
9.0847

> <Gold.Chemscore.DG>
-10.7767

> <Gold.Chemscore.ZeroCoef>
-5.4800

> <Gold.Chemscore.Hbond>
1.9841

> <Gold.Chemscore.Metal>
0.0000

> <Gold.Chemscore.Lipo>
68.8390

> <Gold.Chemscore.Internal_Hbond>
0.0000

> <Gold.Chemscore.DEClash>
0.0316

> <Gold.Chemscore.DEInternal>
1.6604

> <Gold.Chemscore.Rot>
3.6658

> <Gold.Chemscore.Internal.Correction>
   9.000000E+99

> <Gold.Chemscore.Hbonds>
donor molecule, donor type, donor heavy atom, donor atom, acceptor molecule, acceptor atom, score
      L1  H    18    59       P1 10957  0.15
      L1  H    22    54       P1 10747  0.95
      P1  H  7989  7998       L1     3  0.48

> <Gold.Chemscore.Hbond.Weighted>
-6.6269

> <Gold.Chemscore.Metal.Weighted>
-0.0000

> <Gold.Chemscore.Lipo.Weighted>
-8.0542

> <Gold.Chemscore.Internal_Hbond.Weighted>
0.0000

> <Gold.Chemscore.DEClash.Weighted>
0.0316

> <Gold.Chemscore.DEInternal.Weighted>
1.6604

> <Gold.Chemscore.Rot.Weighted>
9.3844

> <Gold.Chemscore.Internal.Correction.Weighted>
   9.000000E+99

> <Gold.Protein.RotatedTorsions>
[ 6907 6896 6895 6894 ] final -109.10 input  -60.11 | X-H torsion
[ 7974 7965 7964 7962 ] final  -51.08 input  175.53 | X-H torsion
[ 8008 7997 7996 7995 ] final  -72.02 input   59.86 | X-H torsion
[ 10167 10162 10161 10158 ] final   -2.90 input  -65.29 | X-H torsion
[ 10718 10713 10712 10709 ] final   46.79 input   66.30 | X-H torsion
[ 10763 10752 10751 10750 ] final -155.03 input  -60.55 | X-H torsion
[ 11005 11000 10999 10996 ] final  101.41 input  -57.11 | X-H torsion

> <Gold.Protein.ActiveResidues>
 VAL166  LYS551  ARG553  GLY616  TRP617  ASP618  TYR619  PRO620  LYS621  CYS622 
 ASP623  PHE694  ASN695  SER759  ASP760  ASP761  ALA762  ILE779  LEU786  VAL792 
 PHE793  MET794  SER795  GLU796  ALA797  LYS798  CYS799  TRP800  GLU811  SER814 

> <Gold.Protein.RotatedAtoms>
  150.7541  133.9579  159.3506 H   0  0  0  0  0  0  0  0  0  0  0  0  # atno 6907 bound_to 6896
  151.7502  135.0832  160.0339 H   0  0  0  0  0  0  0  0  0  0  0  0  # atno 6908 bound_to 6896
  152.3471  133.6098  159.5954 H   0  0  0  0  0  0  0  0  0  0  0  0  # atno 6909 bound_to 6896
  145.9228  140.7818  142.9638 H   0  0  0  0  0  0  0  0  0  0  0  0  # atno 7974 bound_to 7965
  154.5133  140.0805  156.8032 H   0  0  0  0  0  0  0  0  0  0  0  0  # atno 8008 bound_to 7997
  155.3736  140.3424  155.4226 H   0  0  0  0  0  0  0  0  0  0  0  0  # atno 8009 bound_to 7997
  156.1599  140.1585  156.8618 H   0  0  0  0  0  0  0  0  0  0  0  0  # atno 8010 bound_to 7997
  140.6869  143.6603  150.8273 H   0  0  0  0  0  0  0  0  0  0  0  0  # atno 10167 bound_to 10162
  157.4517  130.8142  149.7795 H   0  0  0  0  0  0  0  0  0  0  0  0  # atno 10718 bound_to 10713
  154.7816  135.3176  154.7977 H   0  0  0  0  0  0  0  0  0  0  0  0  # atno 10763 bound_to 10752
  153.8687  135.6846  153.4780 H   0  0  0  0  0  0  0  0  0  0  0  0  # atno 10764 bound_to 10752
  153.1454  135.4721  154.9496 H   0  0  0  0  0  0  0  0  0  0  0  0  # atno 10765 bound_to 10752
  139.8773  134.9182  156.4903 H   0  0  0  0  0  0  0  0  0  0  0  0  # atno 11005 bound_to 11000
  144.6755  140.2003  143.7387 LP  0  0  0  0  0  0  0  0  0  0  0  0  # atno 17320 bound_to 7965
  145.8527  139.2183  143.1762 LP  0  0  0  0  0  0  0  0  0  0  0  0  # atno 17321 bound_to 7965
  140.0311  143.5443  152.2760 LP  0  0  0  0  0  0  0  0  0  0  0  0  # atno 17342 bound_to 10162
  139.6236  144.7633  151.2687 LP  0  0  0  0  0  0  0  0  0  0  0  0  # atno 17343 bound_to 10162
  155.9990  130.3891  150.2681 LP  0  0  0  0  0  0  0  0  0  0  0  0  # atno 17370 bound_to 10713
  157.0853  131.0154  151.3142 LP  0  0  0  0  0  0  0  0  0  0  0  0  # atno 17371 bound_to 10713
  140.8663  133.8022  155.9317 LP  0  0  0  0  0  0  0  0  0  0  0  0  # atno 17394 bound_to 11000
  140.8998  134.2392  157.5048 LP  0  0  0  0  0  0  0  0  0  0  0  0  # atno 17395 bound_to 11000

$$$$
