AV-unprocessed.smi:103|AV-procd|sdf|977|dock7
  -GOLD-   2262017533D 1   1.00000     0.00000
 Structure written by MMmdl.
 53 55  0  0  0  0  0  0  0  0  1 V2000
  152.6087  143.4549  161.8613 C   0  0  0  0  0  0  0  0  0  0  0  0
  152.7697  143.0701  160.3963 C   0  0  0  0  0  0  0  0  0  0  0  0
  153.5959  142.2276  160.0440 O   0  0  0  0  0  0  0  0  0  0  0  0
  151.9268  143.7419  159.5892 O   0  0  0  0  0  0  0  0  0  0  0  0
  151.8502  143.4264  158.2056 C   0  0  0  0  0  0  0  0  0  0  0  0
  150.6735  142.4719  157.9241 C   0  0  2  0  0  0  0  0  0  0  0  0
  150.7408  141.3361  158.7771 O   0  0  0  0  0  0  0  0  0  0  0  0
  151.6067  140.3952  158.2284 C   0  0  1  0  0  0  0  0  0  0  0  0
  151.1007  139.0306  158.5879 N   0  0  0  0  0  0  0  0  0  0  0  0
  151.7992  137.9213  159.0188 C   0  0  0  0  0  0  0  0  0  0  0  0
  153.5573  137.8327  159.3362 S   0  0  0  0  0  0  0  0  0  0  0  0
  153.6200  138.0235  161.1642 C   0  0  0  0  0  0  0  0  0  0  0  0
  153.9924  136.4753  158.9715 O   0  0  0  0  0  0  0  0  0  0  0  0
  154.1739  139.0098  158.7059 O   0  0  0  0  0  0  0  0  0  0  0  0
  151.0945  136.8630  159.3146 N   0  0  0  0  0  0  0  0  0  0  0  0
  149.7989  137.2523  159.0048 C   0  0  0  0  0  0  0  0  0  0  0  0
  148.5381  136.6055  159.0508 C   0  0  0  0  0  0  0  0  0  0  0  0
  148.3813  135.3378  159.4557 N   0  0  0  0  0  0  0  0  0  0  0  0
  147.4407  137.2982  158.6665 N   0  0  0  0  0  0  0  0  0  0  0  0
  147.5706  138.5650  158.2602 C   0  0  0  0  0  0  0  0  0  0  0  0
  148.6799  139.3022  158.1681 N   0  0  0  0  0  0  0  0  0  0  0  0
  149.7880  138.6022  158.5508 C   0  0  0  0  0  0  0  0  0  0  0  0
  151.6642  140.6489  156.7063 C   0  0  1  0  0  0  0  0  0  0  0  0
  151.2497  139.5291  155.9243 O   0  0  0  0  0  0  0  0  0  0  0  0
  152.1295  138.8498  155.1714 C   0  0  0  0  0  0  0  0  0  0  0  0
  151.5588  137.5302  154.6708 C   0  0  0  0  0  0  0  0  0  0  0  0
  153.2753  139.2017  154.8936 O   0  0  0  0  0  0  0  0  0  0  0  0
  150.7442  141.8545  156.5214 C   0  0  1  0  0  0  0  0  0  0  0  0
  149.4407  141.4489  156.1133 O   0  0  0  0  0  0  0  0  0  0  0  0
  149.2013  141.0798  154.8452 C   0  0  0  0  0  0  0  0  0  0  0  0
  147.7256  141.1825  154.4844 C   0  0  0  0  0  0  0  0  0  0  0  0
  150.0410  140.7022  154.0282 O   0  0  0  0  0  0  0  0  0  0  0  0
  152.1285  142.6455  162.4112 H   0  0  0  0  0  0  0  0  0  0  0  0
  151.9982  144.3523  161.9643 H   0  0  0  0  0  0  0  0  0  0  0  0
  153.5830  143.6482  162.3103 H   0  0  0  0  0  0  0  0  0  0  0  0
  151.6815  144.3626  157.6732 H   0  0  0  0  0  0  0  0  0  0  0  0
  152.7938  143.0278  157.8300 H   0  0  0  0  0  0  0  0  0  0  0  0
  149.7352  143.0057  158.0805 H   0  0  0  0  0  0  0  0  0  0  0  0
  152.5774  140.4883  158.7101 H   0  0  0  0  0  0  0  0  0  0  0  0
  154.6573  137.9914  161.4961 H   0  0  0  0  0  0  0  0  0  0  0  0
  153.0632  137.2125  161.6332 H   0  0  0  0  0  0  0  0  0  0  0  0
  153.1777  138.9778  161.4490 H   0  0  0  0  0  0  0  0  0  0  0  0
  149.1854  134.8000  159.7457 H   0  0  0  0  0  0  0  0  0  0  0  0
  147.4609  134.9230  159.4707 H   0  0  0  0  0  0  0  0  0  0  0  0
  146.6562  139.0597  157.9680 H   0  0  0  0  0  0  0  0  0  0  0  0
  152.6843  140.9525  156.4670 H   0  0  0  0  0  0  0  0  0  0  0  0
  151.2563  136.9065  155.5122 H   0  0  0  0  0  0  0  0  0  0  0  0
  152.3028  136.9867  154.0880 H   0  0  0  0  0  0  0  0  0  0  0  0
  150.6882  137.7097  154.0400 H   0  0  0  0  0  0  0  0  0  0  0  0
  151.1649  142.5455  155.7891 H   0  0  0  0  0  0  0  0  0  0  0  0
  147.1337  140.5271  155.1235 H   0  0  0  0  0  0  0  0  0  0  0  0
  147.5627  140.8935  153.4460 H   0  0  0  0  0  0  0  0  0  0  0  0
  147.3749  142.2059  154.6182 H   0  0  0  0  0  0  0  0  0  0  0  0
  1  2  1  0  0  0  0
  1 33  1  0  0  0  0
  1 34  1  0  0  0  0
  1 35  1  0  0  0  0
  2  3  2  0  0  0  0
  2  4  1  0  0  0  0
  4  5  1  0  0  0  0
  5  6  1  0  0  0  0
  5 36  1  0  0  0  0
  5 37  1  0  0  0  0
  6 28  1  0  0  0  0
  6  7  1  0  0  0  0
  6 38  1  0  0  0  0
  7  8  1  0  0  0  0
  8  9  1  0  0  0  0
  8 23  1  0  0  0  0
  8 39  1  0  0  0  0
  9 22  1  0  0  0  0
  9 10  1  0  0  0  0
 10 11  1  0  0  0  0
 10 15  2  0  0  0  0
 11 12  1  0  0  0  0
 11 13  2  0  0  0  0
 11 14  2  0  0  0  0
 12 40  1  0  0  0  0
 12 41  1  0  0  0  0
 12 42  1  0  0  0  0
 15 16  1  0  0  0  0
 16 22  2  0  0  0  0
 16 17  1  0  0  0  0
 17 18  1  0  0  0  0
 17 19  2  0  0  0  0
 18 43  1  0  0  0  0
 18 44  1  0  0  0  0
 19 20  1  0  0  0  0
 20 21  2  0  0  0  0
 20 45  1  0  0  0  0
 21 22  1  0  0  0  0
 23 24  1  0  0  0  0
 23 28  1  0  0  0  0
 23 46  1  0  0  0  0
 24 25  1  0  0  0  0
 25 26  1  0  0  0  0
 25 27  2  0  0  0  0
 26 47  1  0  0  0  0
 26 48  1  0  0  0  0
 26 49  1  0  0  0  0
 28 29  1  0  0  0  0
 28 50  1  0  0  0  0
 29 30  1  0  0  0  0
 30 31  1  0  0  0  0
 30 32  2  0  0  0  0
 31 51  1  0  0  0  0
 31 52  1  0  0  0  0
 31 53  1  0  0  0  0
M  END
> <s_m_source_file>
AV-unprocessed.smi

> <i_m_source_file_index>
103

> <i_lp_mmshare_version>
43012

> <i_f3d_flags>
0

> <s_epik_input>
W0NIM11DKD1PKU9bQ0gyXVtDQEBIXTFPW0NASF0oW0NAQEhdKE9DKD1PKVtDSDNdKVtDQEhdMU9DKD1PKVtDSDNdKW4oYyhuMilTKD1PKSg9TylbQ0gzXSljKGMyMyluW2NIXW5jM1tOSDJd

> <s_epik_cmdline>
J2VwaWtfcHl0aG9uJywgJy1waCcsICc3LjAnLCAnLXRuJywgJzgnLCAnLW1hJywgJzIwMCcsICctbWV0YWxfYmluZGluZycsICctaW1hZScsICc8aW5maWxlLm1hZT4nLCAnLW9tYWUnLCAnPG91dGZpbGUubWFlPic=

> <r_lp_tautomer_probability>
1

> <r_epik_Ionization_Penalty>
1.51338e-05

> <r_epik_Ionization_Penalty_Charging>
0

> <r_epik_Ionization_Penalty_Neutral>
1.51338e-05

> <r_epik_State_Penalty>
-0

> <r_epik_Charging_Adjusted_Penalty>
0

> <i_epik_Tot_Q>
0

> <i_epik_Tot_abs_Q>
0

> <r_epik_Metal_State_Penalty>
-0

> <b_epik_Metal_Only>
0

> <s_epik_Chemistry_Notes>
This compound has an ester and may undergo hydrolysis at high or low pH. This compound contains an acetal/aminal-like group ( X-CH(R)-Y where X, Y are N, S, or O) that may be acid/base labile, releasing an aldehyde.

> <s_lp_Force_Field>
OPLS_2005

> <r_lp_Energy>
14.6626

> <b_lp_Chiralities_Consistent>
1

> <s_lp_Variant>
AV-unprocessed.smi:103-1

> <Gold.Version>
5.8.1

> <Gold.Id.Protein>
6NUR|6NUR_protein|mol2

> <Gold.PLP.Fitness>
60.3813

> <Gold.PLP.PLP>
-51.7963

> <Gold.PLP.part.hbond>
-5.7597

> <Gold.PLP.part.metal>
0.0000

> <Gold.PLP.part.buried>
-9.3531

> <Gold.PLP.part.nonpolar>
-38.6614

> <Gold.PLP.part.repulsive>
1.7644

> <Gold.PLP.ligand.clash>
0.0000

> <Gold.PLP.ligand.torsion>
3.0379

> <Gold.PLP.Chemscore.Hbond>
4.1188

> <Gold.PLP.Chemscore.CHOScore>
0.0000

> <Gold.PLP.Chemscore.Metal>
0.0000

> <Gold.Chemscore.Hbonds>
donor molecule, donor type, donor heavy atom, donor atom, acceptor molecule, acceptor atom, score
      P1  H  6896  6908       L1    15  1.00
      P1  H  7989  7998       L1    32  0.64
      P1  H  7997  8009       L1    14  1.00
      P1  H  7997  8010       L1    27  1.00
      P1  H  8011  8017       L1    32  0.03

> <Gold.PLP.Chemscore.Internal.Correction>
2.3045

> <Gold.Rescore>
     Score         DG    S(hbond)    S(metal)    S(lipo)     H(rot)  DE(clash)    DE(int)     intcor
      6.74     -16.00       4.09        0.00      66.13       4.25       1.57       7.69       ----

> <Gold.Chemscore.Fitness>
6.7440

> <Gold.Chemscore.DG>
-15.9962

> <Gold.Chemscore.ZeroCoef>
-5.4800

> <Gold.Chemscore.Hbond>
4.0862

> <Gold.Chemscore.Metal>
0.0000

> <Gold.Chemscore.Lipo>
66.1278

> <Gold.Chemscore.Internal_Hbond>
0.0000

> <Gold.Chemscore.DEClash>
1.5662

> <Gold.Chemscore.DEInternal>
7.6860

> <Gold.Chemscore.Rot>
4.2456

> <Gold.Chemscore.Internal.Correction>
   9.000000E+99

> <Gold.Chemscore.Hbonds>
donor molecule, donor type, donor heavy atom, donor atom, acceptor molecule, acceptor atom, score
      P1  H  6896  6908       L1    15  0.88
      P1  H  7989  7998       L1    32  0.64
      P1  H  7997  8009       L1    14  0.99
      P1  H  7997  8010       L1    27  0.99
      P1  H  8011  8017       L1    32  0.02

> <Gold.Chemscore.Hbond.Weighted>
-13.6479

> <Gold.Chemscore.Metal.Weighted>
-0.0000

> <Gold.Chemscore.Lipo.Weighted>
-7.7369

> <Gold.Chemscore.Internal_Hbond.Weighted>
0.0000

> <Gold.Chemscore.DEClash.Weighted>
1.5662

> <Gold.Chemscore.DEInternal.Weighted>
7.6860

> <Gold.Chemscore.Rot.Weighted>
10.8687

> <Gold.Chemscore.Internal.Correction.Weighted>
   9.000000E+99

> <Gold.Protein.RotatedTorsions>
[ 6907 6896 6895 6894 ] final -140.92 input  -60.11 | X-H torsion
[ 7974 7965 7964 7962 ] final  123.62 input  175.53 | X-H torsion
[ 8008 7997 7996 7995 ] final  119.89 input   59.86 | X-H torsion
[ 10167 10162 10161 10158 ] final -134.98 input  -65.29 | X-H torsion
[ 10718 10713 10712 10709 ] final  -71.64 input   66.30 | X-H torsion
[ 10763 10752 10751 10750 ] final  -22.81 input  -60.55 | X-H torsion
[ 11005 11000 10999 10996 ] final   -8.17 input  -57.11 | X-H torsion

> <Gold.Protein.ActiveResidues>
 VAL166  LYS551  ARG553  GLY616  TRP617  ASP618  TYR619  PRO620  LYS621  CYS622 
 ASP623  PHE694  ASN695  SER759  ASP760  ASP761  ALA762  ILE779  LEU786  VAL792 
 PHE793  MET794  SER795  GLU796  ALA797  LYS798  CYS799  TRP800  GLU811  SER814 

> <Gold.Protein.RotatedAtoms>
  151.0671  133.5497  159.2629 H   0  0  0  0  0  0  0  0  0  0  0  0  # atno 6907 bound_to 6896
  151.2450  135.0601  159.9050 H   0  0  0  0  0  0  0  0  0  0  0  0  # atno 6908 bound_to 6896
  152.5406  134.0440  159.8134 H   0  0  0  0  0  0  0  0  0  0  0  0  # atno 6909 bound_to 6896
  145.0938  139.3567  143.4847 H   0  0  0  0  0  0  0  0  0  0  0  0  # atno 7974 bound_to 7965
  156.2617  140.2843  156.1063 H   0  0  0  0  0  0  0  0  0  0  0  0  # atno 8008 bound_to 7997
  155.1306  140.0394  157.2791 H   0  0  0  0  0  0  0  0  0  0  0  0  # atno 8009 bound_to 7997
  154.6603  140.2565  155.7123 H   0  0  0  0  0  0  0  0  0  0  0  0  # atno 8010 bound_to 7997
  139.8825  143.6821  152.2625 H   0  0  0  0  0  0  0  0  0  0  0  0  # atno 10167 bound_to 10162
  156.0354  130.4355  150.2475 H   0  0  0  0  0  0  0  0  0  0  0  0  # atno 10718 bound_to 10713
  153.6579  135.6978  153.5187 H   0  0  0  0  0  0  0  0  0  0  0  0  # atno 10763 bound_to 10752
  153.2655  135.4231  155.0936 H   0  0  0  0  0  0  0  0  0  0  0  0  # atno 10764 bound_to 10752
  154.8460  135.3565  154.6123 H   0  0  0  0  0  0  0  0  0  0  0  0  # atno 10765 bound_to 10752
  140.7206  133.8832  155.8817 H   0  0  0  0  0  0  0  0  0  0  0  0  # atno 11005 bound_to 11000
  146.3531  140.0785  142.8619 LP  0  0  0  0  0  0  0  0  0  0  0  0  # atno 17320 bound_to 7965
  145.1035  140.9360  143.4699 LP  0  0  0  0  0  0  0  0  0  0  0  0  # atno 17321 bound_to 7965
  139.7183  144.7607  151.0997 LP  0  0  0  0  0  0  0  0  0  0  0  0  # atno 17342 bound_to 10162
  140.7742  143.5241  150.9501 LP  0  0  0  0  0  0  0  0  0  0  0  0  # atno 17343 bound_to 10162
  157.0574  131.0080  151.3234 LP  0  0  0  0  0  0  0  0  0  0  0  0  # atno 17370 bound_to 10713
  157.5095  130.7930  149.7690 LP  0  0  0  0  0  0  0  0  0  0  0  0  # atno 17371 bound_to 10713
  141.0007  134.1154  157.4320 LP  0  0  0  0  0  0  0  0  0  0  0  0  # atno 17394 bound_to 11000
  139.8849  135.0067  156.6400 LP  0  0  0  0  0  0  0  0  0  0  0  0  # atno 17395 bound_to 11000

$$$$
