AV-unprocessed.smi:2247|AV-procd|sdf|9086|dock9
  -GOLD-   2272012293D 1   1.00000     0.00000
 Structure written by MMmdl.
 34 35  0  0  0  0  0  0  0  0  1 V2000
  149.2004  141.6986  154.6098 C   0  0  0  0  0  0  0  0  0  0  0  0
  148.9715  140.1992  154.8708 C   0  0  0  0  0  0  0  0  0  0  0  0
  150.2643  139.3835  154.7110 C   0  0  0  0  0  0  0  0  0  0  0  0
  147.9066  139.6366  154.0298 N   0  0  0  0  0  0  0  0  0  0  0  0
  147.2642  140.3982  152.9707 C   0  0  0  0  0  0  0  0  0  0  0  0
  146.5131  139.3499  152.1443 C   0  0  0  0  0  0  0  0  0  0  0  0
  146.3386  138.1317  153.0657 C   0  0  1  0  0  0  0  0  0  0  0  0
  146.5813  136.8971  152.3216 N   0  0  0  0  0  0  0  0  0  0  0  0
  145.6276  136.0756  151.8584 C   0  0  0  0  0  0  0  0  0  0  0  0
  144.4222  136.2978  151.9774 O   0  0  0  0  0  0  0  0  0  0  0  0
  146.1606  134.9956  151.2629 N   0  0  0  0  0  0  0  0  0  0  0  0
  145.4705  133.9013  150.6831 C   0  0  0  0  0  0  0  0  0  0  0  0
  146.0112  132.7664  150.2371 N   0  0  0  0  0  0  0  0  0  0  0  0
  144.9354  132.0281  149.7659 C   0  0  0  0  0  0  0  0  0  0  0  0
  143.7945  132.7646  149.9569 C   0  0  0  0  0  0  0  0  0  0  0  0
  144.1199  133.9598  150.5404 O   0  0  0  0  0  0  0  0  0  0  0  0
  147.4422  138.3811  154.0946 C   0  0  0  0  0  0  0  0  0  0  0  0
  147.8269  137.5160  154.8814 O   0  0  0  0  0  0  0  0  0  0  0  0
  149.9226  142.1077  155.3170 H   0  0  0  0  0  0  0  0  0  0  0  0
  148.2755  142.2647  154.7243 H   0  0  0  0  0  0  0  0  0  0  0  0
  149.5876  141.8830  153.6075 H   0  0  0  0  0  0  0  0  0  0  0  0
  148.6541  140.1122  155.9116 H   0  0  0  0  0  0  0  0  0  0  0  0
  151.0490  139.7591  155.3680 H   0  0  0  0  0  0  0  0  0  0  0  0
  150.6373  139.4301  153.6873 H   0  0  0  0  0  0  0  0  0  0  0  0
  150.1042  138.3339  154.9600 H   0  0  0  0  0  0  0  0  0  0  0  0
  146.5680  141.1144  153.4092 H   0  0  0  0  0  0  0  0  0  0  0  0
  147.9880  140.9446  152.3648 H   0  0  0  0  0  0  0  0  0  0  0  0
  145.5572  139.7272  151.7791 H   0  0  0  0  0  0  0  0  0  0  0  0
  147.1126  139.0918  151.2692 H   0  0  0  0  0  0  0  0  0  0  0  0
  145.3641  138.1442  153.5571 H   0  0  0  0  0  0  0  0  0  0  0  0
  147.5457  136.6351  152.1804 H   0  0  0  0  0  0  0  0  0  0  0  0
  147.1677  134.9414  151.2339 H   0  0  0  0  0  0  0  0  0  0  0  0
  145.0642  131.0457  149.3360 H   0  0  0  0  0  0  0  0  0  0  0  0
  142.7487  132.5947  149.7480 H   0  0  0  0  0  0  0  0  0  0  0  0
  1  2  1  0  0  0  0
  1 19  1  0  0  0  0
  1 20  1  0  0  0  0
  1 21  1  0  0  0  0
  2  3  1  0  0  0  0
  2  4  1  0  0  0  0
  2 22  1  0  0  0  0
  3 23  1  0  0  0  0
  3 24  1  0  0  0  0
  3 25  1  0  0  0  0
  4 17  1  0  0  0  0
  4  5  1  0  0  0  0
  5  6  1  0  0  0  0
  5 26  1  0  0  0  0
  5 27  1  0  0  0  0
  6  7  1  0  0  0  0
  6 28  1  0  0  0  0
  6 29  1  0  0  0  0
  7  8  1  0  0  0  0
  7 17  1  0  0  0  0
  7 30  1  0  0  0  0
  8  9  1  0  0  0  0
  8 31  1  0  0  0  0
  9 10  2  0  0  0  0
  9 11  1  0  0  0  0
 11 12  1  0  0  0  0
 11 32  1  0  0  0  0
 12 16  1  0  0  0  0
 12 13  2  0  0  0  0
 13 14  1  0  0  0  0
 14 15  2  0  0  0  0
 14 33  1  0  0  0  0
 15 16  1  0  0  0  0
 15 34  1  0  0  0  0
 17 18  2  0  0  0  0
M  END
> <s_m_source_file>
AV-unprocessed.smi

> <i_m_source_file_index>
2247

> <i_lp_mmshare_version>
43012

> <i_f3d_flags>
0

> <s_epik_input>
W0NIM11bQ0hdKFtDSDNdKU4xW0NIMl1bQ0gyXVtDQEhdKEMxPU8pW05IXUMoPU8pW05IXWMybltjSF1bY0hdbzI=

> <s_epik_cmdline>
J2VwaWtfcHl0aG9uJywgJy1waCcsICc3LjAnLCAnLXRuJywgJzgnLCAnLW1hJywgJzIwMCcsICctbWV0YWxfYmluZGluZycsICctaW1hZScsICc8aW5maWxlLm1hZT4nLCAnLW9tYWUnLCAnPG91dGZpbGUubWFlPic=

> <r_lp_tautomer_probability>
0.785861

> <r_epik_Ionization_Penalty>
5.15801e-05

> <r_epik_Ionization_Penalty_Charging>
0

> <r_epik_Ionization_Penalty_Neutral>
5.15801e-05

> <r_epik_State_Penalty>
0.0205761

> <r_epik_Charging_Adjusted_Penalty>
0.0205761

> <i_epik_Tot_Q>
0

> <i_epik_Tot_abs_Q>
0

> <r_epik_Metal_State_Penalty>
0.0168939

> <b_epik_Metal_Only>
0

> <s_lp_Force_Field>
OPLS_2005

> <r_lp_Energy>
20.5401

> <b_lp_Chiralities_Consistent>
1

> <s_lp_Variant>
AV-unprocessed.smi:2247-1

> <Gold.Version>
5.8.1

> <Gold.Id.Protein>
6NUR|6NUR_protein|mol2

> <Gold.PLP.Fitness>
33.8479

> <Gold.PLP.PLP>
-27.8994

> <Gold.PLP.part.hbond>
-1.7531

> <Gold.PLP.part.metal>
0.0000

> <Gold.PLP.part.buried>
-0.5616

> <Gold.PLP.part.nonpolar>
-27.2102

> <Gold.PLP.part.repulsive>
0.7484

> <Gold.PLP.ligand.clash>
0.0000

> <Gold.PLP.ligand.torsion>
0.3515

> <Gold.PLP.Chemscore.Hbond>
1.2887

> <Gold.PLP.Chemscore.CHOScore>
0.9011

> <Gold.PLP.Chemscore.Metal>
0.0000

> <Gold.Chemscore.Hbonds>
donor molecule, donor type, donor heavy atom, donor atom, acceptor molecule, acceptor atom, score
      L1  H     8    31       P1  7948  0.89
      L1  H    11    32       P1  7948  0.39
      L1  C    15    34       P1 10186  0.90

> <Gold.PLP.Chemscore.Internal.Correction>
0.0821

> <Gold.Rescore>
     Score         DG    S(hbond)    S(metal)    S(lipo)     H(rot)  DE(clash)    DE(int)     intcor
     12.44     -14.77       1.55        0.00      64.22       1.33       0.51       1.82       ----

> <Gold.Chemscore.Fitness>
12.4442

> <Gold.Chemscore.DG>
-14.7698

> <Gold.Chemscore.ZeroCoef>
-5.4800

> <Gold.Chemscore.Hbond>
1.5540

> <Gold.Chemscore.Metal>
0.0000

> <Gold.Chemscore.Lipo>
64.2229

> <Gold.Chemscore.Internal_Hbond>
0.0000

> <Gold.Chemscore.DEClash>
0.5102

> <Gold.Chemscore.DEInternal>
1.8155

> <Gold.Chemscore.Rot>
1.3338

> <Gold.Chemscore.Internal.Correction>
   9.000000E+99

> <Gold.Chemscore.Hbonds>
donor molecule, donor type, donor heavy atom, donor atom, acceptor molecule, acceptor atom, score
      L1  H     8    31       P1  7948  0.86
      L1  H    11    32       P1  7948  0.21

> <Gold.Chemscore.Hbond.Weighted>
-5.1903

> <Gold.Chemscore.Metal.Weighted>
-0.0000

> <Gold.Chemscore.Lipo.Weighted>
-7.5141

> <Gold.Chemscore.Internal_Hbond.Weighted>
0.0000

> <Gold.Chemscore.DEClash.Weighted>
0.5102

> <Gold.Chemscore.DEInternal.Weighted>
1.8155

> <Gold.Chemscore.Rot.Weighted>
3.4145

> <Gold.Chemscore.Internal.Correction.Weighted>
   9.000000E+99

> <Gold.Protein.RotatedTorsions>
[ 6907 6896 6895 6894 ] final  -42.78 input  -60.11 | X-H torsion
[ 7974 7965 7964 7962 ] final   53.04 input  175.53 | X-H torsion
[ 8008 7997 7996 7995 ] final  -97.68 input   59.86 | X-H torsion
[ 10167 10162 10161 10158 ] final   68.31 input  -65.29 | X-H torsion
[ 10718 10713 10712 10709 ] final  132.36 input   66.30 | X-H torsion
[ 10763 10752 10751 10750 ] final  174.34 input  -60.55 | X-H torsion
[ 11005 11000 10999 10996 ] final  103.16 input  -57.11 | X-H torsion

> <Gold.Protein.ActiveResidues>
 VAL166  LYS551  ARG553  GLY616  TRP617  ASP618  TYR619  PRO620  LYS621  CYS622 
 ASP623  PHE694  ASN695  SER759  ASP760  ASP761  ALA762  ILE779  LEU786  VAL792 
 PHE793  MET794  SER795  GLU796  ALA797  LYS798  CYS799  TRP800  GLU811  SER814 

> <Gold.Protein.RotatedAtoms>
  150.9513  134.8913  159.7673 H   0  0  0  0  0  0  0  0  0  0  0  0  # atno 6907 bound_to 6896
  152.5121  134.3802  159.9358 H   0  0  0  0  0  0  0  0  0  0  0  0  # atno 6908 bound_to 6896
  151.3818  133.3778  159.2745 H   0  0  0  0  0  0  0  0  0  0  0  0  # atno 6909 bound_to 6896
  145.9753  139.4188  143.0165 H   0  0  0  0  0  0  0  0  0  0  0  0  # atno 7974 bound_to 7965
  154.7910  140.0461  157.1200 H   0  0  0  0  0  0  0  0  0  0  0  0  # atno 8008 bound_to 7997
  154.9591  140.3075  155.5019 H   0  0  0  0  0  0  0  0  0  0  0  0  # atno 8009 bound_to 7997
  156.2950  140.2274  156.4675 H   0  0  0  0  0  0  0  0  0  0  0  0  # atno 8010 bound_to 7997
  140.0801  144.5078  150.7168 H   0  0  0  0  0  0  0  0  0  0  0  0  # atno 10167 bound_to 10162
  157.4878  131.1089  150.9597 H   0  0  0  0  0  0  0  0  0  0  0  0  # atno 10718 bound_to 10713
  154.4525  135.2765  155.1770 H   0  0  0  0  0  0  0  0  0  0  0  0  # atno 10763 bound_to 10752
  154.3591  135.6133  153.5685 H   0  0  0  0  0  0  0  0  0  0  0  0  # atno 10764 bound_to 10752
  152.9848  135.5830  154.4873 H   0  0  0  0  0  0  0  0  0  0  0  0  # atno 10765 bound_to 10752
  139.8782  134.9252  156.5168 H   0  0  0  0  0  0  0  0  0  0  0  0  # atno 11005 bound_to 11000
  145.7848  140.9840  143.1080 LP  0  0  0  0  0  0  0  0  0  0  0  0  # atno 17320 bound_to 7965
  144.6847  139.9609  143.7480 LP  0  0  0  0  0  0  0  0  0  0  0  0  # atno 17321 bound_to 7965
  140.7082  143.2484  151.4662 LP  0  0  0  0  0  0  0  0  0  0  0  0  # atno 17342 bound_to 10162
  139.5785  144.1764  152.1936 LP  0  0  0  0  0  0  0  0  0  0  0  0  # atno 17343 bound_to 10162
  157.0308  130.5711  149.5343 LP  0  0  0  0  0  0  0  0  0  0  0  0  # atno 17370 bound_to 10713
  156.0156  130.5250  150.8125 LP  0  0  0  0  0  0  0  0  0  0  0  0  # atno 17371 bound_to 10713
  140.8480  133.8154  155.9140 LP  0  0  0  0  0  0  0  0  0  0  0  0  # atno 17394 bound_to 11000
  140.9172  134.2186  157.4949 LP  0  0  0  0  0  0  0  0  0  0  0  0  # atno 17395 bound_to 11000

$$$$
