AV-unprocessed.smi:2908|AV-procd|sdf|11167|dock8
  -GOLD-   2272016 53D 1   1.00000     0.00000
 Structure written by MMmdl.
 43 44  0  0  0  0  0  0  0  0  1 V2000
  148.8499  139.7886  157.4455 O   0  0  0  0  0  0  0  0  0  0  0  0
  149.5749  138.9846  158.0333 C   0  0  0  0  0  0  0  0  0  0  0  0
  150.7890  139.3272  158.4938 N   0  0  0  0  0  0  0  0  0  0  0  0
  151.3700  140.6578  158.3793 C   0  0  0  0  0  0  0  0  0  0  0  0
  151.4459  141.3394  159.7526 C   0  0  0  0  0  0  0  0  0  0  0  0
  151.3142  142.8476  159.6512 C   0  0  0  0  0  0  0  0  0  0  0  0
  151.2746  143.4852  158.3927 C   0  0  0  0  0  0  0  0  0  0  0  0
  151.1381  144.8864  158.3549 C   0  0  0  0  0  0  0  0  0  0  0  0
  151.0462  145.5923  159.5699 C   0  0  0  0  0  0  0  0  0  0  0  0
  151.0962  144.8624  160.7741 C   0  0  0  0  0  0  0  0  0  0  0  0
  151.2274  143.5192  160.8217 N   0  0  0  0  0  0  0  0  0  0  0  0
  149.2336  137.6872  158.2388 N   0  0  0  0  0  0  0  0  0  0  0  0
  149.8094  136.7817  159.2451 C   0  0  0  0  0  0  0  0  0  0  0  0
  148.7898  136.5972  160.3824 C   0  0  0  0  0  0  0  0  0  0  0  0
  147.4344  136.0511  159.8629 C   0  0  0  0  0  0  0  0  0  0  0  0
  146.3878  135.9545  161.0067 C   0  0  2  0  0  0  0  0  0  0  0  0
  146.0360  137.2675  161.4037 O   0  0  0  0  0  0  0  0  0  0  0  0
  146.8450  135.1954  162.2746 C   0  0  0  0  0  0  0  0  0  0  0  0
  147.5573  136.0103  163.0543 F   0  0  0  0  0  0  0  0  0  0  0  0
  145.7936  134.7944  162.9884 F   0  0  0  0  0  0  0  0  0  0  0  0
  147.5840  134.1323  161.9566 F   0  0  0  0  0  0  0  0  0  0  0  0
  146.9530  136.8973  158.6580 C   0  0  0  0  0  0  0  0  0  0  0  0
  148.0595  137.0811  157.6031 C   0  0  0  0  0  0  0  0  0  0  0  0
  151.3404  138.6201  158.9577 H   0  0  0  0  0  0  0  0  0  0  0  0
  152.3683  140.5826  157.9450 H   0  0  0  0  0  0  0  0  0  0  0  0
  150.7642  141.2554  157.6962 H   0  0  0  0  0  0  0  0  0  0  0  0
  150.6580  140.9591  160.4043 H   0  0  0  0  0  0  0  0  0  0  0  0
  152.3913  141.0942  160.2385 H   0  0  0  0  0  0  0  0  0  0  0  0
  151.3439  142.9162  157.4773 H   0  0  0  0  0  0  0  0  0  0  0  0
  151.1029  145.4097  157.4108 H   0  0  0  0  0  0  0  0  0  0  0  0
  150.9397  146.6669  159.5789 H   0  0  0  0  0  0  0  0  0  0  0  0
  151.0281  145.3709  161.7244 H   0  0  0  0  0  0  0  0  0  0  0  0
  150.0256  135.8189  158.7799 H   0  0  0  0  0  0  0  0  0  0  0  0
  150.7603  137.1218  159.6549 H   0  0  0  0  0  0  0  0  0  0  0  0
  149.2103  135.9235  161.1295 H   0  0  0  0  0  0  0  0  0  0  0  0
  148.6346  137.5534  160.8843 H   0  0  0  0  0  0  0  0  0  0  0  0
  147.6141  135.0416  159.4898 H   0  0  0  0  0  0  0  0  0  0  0  0
  145.4828  135.4788  160.6269 H   0  0  0  0  0  0  0  0  0  0  0  0
  145.4322  137.2085  162.1285 H   0  0  0  0  0  0  0  0  0  0  0  0
  146.1008  136.4194  158.1761 H   0  0  0  0  0  0  0  0  0  0  0  0
  146.6133  137.8749  159.0029 H   0  0  0  0  0  0  0  0  0  0  0  0
  147.6820  137.6719  156.7672 H   0  0  0  0  0  0  0  0  0  0  0  0
  148.3358  136.1155  157.1774 H   0  0  0  0  0  0  0  0  0  0  0  0
  1  2  2  0  0  0  0
  2  3  1  0  0  0  0
  2 12  1  0  0  0  0
  3  4  1  0  0  0  0
  3 24  1  0  0  0  0
  4  5  1  0  0  0  0
  4 25  1  0  0  0  0
  4 26  1  0  0  0  0
  5  6  1  0  0  0  0
  5 27  1  0  0  0  0
  5 28  1  0  0  0  0
  6 11  1  0  0  0  0
  6  7  2  0  0  0  0
  7  8  1  0  0  0  0
  7 29  1  0  0  0  0
  8  9  2  0  0  0  0
  8 30  1  0  0  0  0
  9 10  1  0  0  0  0
  9 31  1  0  0  0  0
 10 11  2  0  0  0  0
 10 32  1  0  0  0  0
 12 23  1  0  0  0  0
 12 13  1  0  0  0  0
 13 14  1  0  0  0  0
 13 33  1  0  0  0  0
 13 34  1  0  0  0  0
 14 15  1  0  0  0  0
 14 35  1  0  0  0  0
 14 36  1  0  0  0  0
 15 16  1  0  0  0  0
 15 22  1  0  0  0  0
 15 37  1  0  0  0  0
 16 17  1  0  0  0  0
 16 18  1  0  0  0  0
 16 38  1  0  0  0  0
 17 39  1  0  0  0  0
 18 19  1  0  0  0  0
 18 20  1  0  0  0  0
 18 21  1  0  0  0  0
 22 23  1  0  0  0  0
 22 40  1  0  0  0  0
 22 41  1  0  0  0  0
 23 42  1  0  0  0  0
 23 43  1  0  0  0  0
M  END
> <s_m_source_file>
AV-unprocessed.smi

> <i_m_source_file_index>
2908

> <i_lp_mmshare_version>
43012

> <i_f3d_flags>
0

> <s_epik_input>
RkMoRikoRilbQ0BASF0oW09IXSlbQ0hdKFtDSDJdW0NIMl0xKVtDSDJdW0NIMl1OMUMoPU8pW05IXVtDSDJdW0NIMl1jMltjSF1bY0hdW2NIXVtjSF1uMg==

> <s_epik_cmdline>
J2VwaWtfcHl0aG9uJywgJy1waCcsICc3LjAnLCAnLXRuJywgJzgnLCAnLW1hJywgJzIwMCcsICctbWV0YWxfYmluZGluZycsICctaW1hZScsICc8aW5maWxlLm1hZT4nLCAnLW9tYWUnLCAnPG91dGZpbGUubWFlPic=

> <r_epik_Ionization_Penalty>
0.0451198

> <r_epik_Ionization_Penalty_Charging>
0

> <r_epik_Ionization_Penalty_Neutral>
0.0451198

> <r_epik_State_Penalty>
0.0381178

> <r_epik_Charging_Adjusted_Penalty>
0.0381178

> <i_epik_Tot_Q>
0

> <i_epik_Tot_abs_Q>
0

> <r_epik_Metal_State_Penalty>
0.0354176

> <b_epik_Metal_Only>
0

> <s_lp_Force_Field>
OPLS_2005

> <r_lp_Energy>
35.4637

> <b_lp_Chiralities_Consistent>
1

> <s_lp_Variant>
AV-unprocessed.smi:2908-1

> <Gold.Version>
5.8.1

> <Gold.Id.Protein>
6NUR|6NUR_protein|mol2

> <Gold.PLP.Fitness>
48.1689

> <Gold.PLP.PLP>
-46.8277

> <Gold.PLP.part.hbond>
-1.0000

> <Gold.PLP.part.metal>
0.0000

> <Gold.PLP.part.buried>
-7.0670

> <Gold.PLP.part.nonpolar>
-39.7073

> <Gold.PLP.part.repulsive>
0.1741

> <Gold.PLP.ligand.clash>
0.0000

> <Gold.PLP.ligand.torsion>
1.0343

> <Gold.PLP.Chemscore.Hbond>
1.0000

> <Gold.PLP.Chemscore.CHOScore>
0.0000

> <Gold.PLP.Chemscore.Metal>
0.0000

> <Gold.Chemscore.Hbonds>
donor molecule, donor type, donor heavy atom, donor atom, acceptor molecule, acceptor atom, score
      P1  H  6934  6947       L1    17  0.75

> <Gold.PLP.Chemscore.Internal.Correction>
0.4098

> <Gold.Rescore>
     Score         DG    S(hbond)    S(metal)    S(lipo)     H(rot)  DE(clash)    DE(int)     intcor
     13.60     -14.57       0.94        0.00     101.23       2.30       0.01       0.96       ----

> <Gold.Chemscore.Fitness>
13.5987

> <Gold.Chemscore.DG>
-14.5674

> <Gold.Chemscore.ZeroCoef>
-5.4800

> <Gold.Chemscore.Hbond>
0.9413

> <Gold.Chemscore.Metal>
0.0000

> <Gold.Chemscore.Lipo>
101.2298

> <Gold.Chemscore.Internal_Hbond>
0.0000

> <Gold.Chemscore.DEClash>
0.0073

> <Gold.Chemscore.DEInternal>
0.9614

> <Gold.Chemscore.Rot>
2.3048

> <Gold.Chemscore.Internal.Correction>
   9.000000E+99

> <Gold.Chemscore.Hbonds>
donor molecule, donor type, donor heavy atom, donor atom, acceptor molecule, acceptor atom, score
      P1  H  6934  6947       L1    17  0.71

> <Gold.Chemscore.Hbond.Weighted>
-3.1439

> <Gold.Chemscore.Metal.Weighted>
-0.0000

> <Gold.Chemscore.Lipo.Weighted>
-11.8439

> <Gold.Chemscore.Internal_Hbond.Weighted>
0.0000

> <Gold.Chemscore.DEClash.Weighted>
0.0073

> <Gold.Chemscore.DEInternal.Weighted>
0.9614

> <Gold.Chemscore.Rot.Weighted>
5.9004

> <Gold.Chemscore.Internal.Correction.Weighted>
   9.000000E+99

> <Gold.Protein.RotatedTorsions>
[ 6907 6896 6895 6894 ] final  -26.41 input  -60.11 | X-H torsion
[ 7974 7965 7964 7962 ] final -171.58 input  175.53 | X-H torsion
[ 8008 7997 7996 7995 ] final   -1.27 input   59.86 | X-H torsion
[ 10167 10162 10161 10158 ] final  102.78 input  -65.29 | X-H torsion
[ 10718 10713 10712 10709 ] final -101.22 input   66.30 | X-H torsion
[ 10763 10752 10751 10750 ] final  159.52 input  -60.55 | X-H torsion
[ 11005 11000 10999 10996 ] final  150.24 input  -57.11 | X-H torsion

> <Gold.Protein.ActiveResidues>
 VAL166  LYS551  ARG553  GLY616  TRP617  ASP618  TYR619  PRO620  LYS621  CYS622 
 ASP623  PHE694  ASN695  SER759  ASP760  ASP761  ALA762  ILE779  LEU786  VAL792 
 PHE793  MET794  SER795  GLU796  ALA797  LYS798  CYS799  TRP800  GLU811  SER814 

> <Gold.Protein.RotatedAtoms>
  151.1613  135.0274  159.8711 H   0  0  0  0  0  0  0  0  0  0  0  0  # atno 6907 bound_to 6896
  152.5451  134.1276  159.8435 H   0  0  0  0  0  0  0  0  0  0  0  0  # atno 6908 bound_to 6896
  151.1371  133.4950  159.2630 H   0  0  0  0  0  0  0  0  0  0  0  0  # atno 6909 bound_to 6896
  144.7155  140.1900  143.6349 H   0  0  0  0  0  0  0  0  0  0  0  0  # atno 7974 bound_to 7965
  154.6487  140.2563  155.7239 H   0  0  0  0  0  0  0  0  0  0  0  0  # atno 8008 bound_to 7997
  156.2564  140.2872  156.0832 H   0  0  0  0  0  0  0  0  0  0  0  0  # atno 8009 bound_to 7997
  155.1484  140.0381  157.2805 H   0  0  0  0  0  0  0  0  0  0  0  0  # atno 8010 bound_to 7997
  139.7320  144.7033  151.0707 H   0  0  0  0  0  0  0  0  0  0  0  0  # atno 10167 bound_to 10162
  156.0187  130.5363  150.6931 H   0  0  0  0  0  0  0  0  0  0  0  0  # atno 10718 bound_to 10713
  154.2331  135.2777  155.2882 H   0  0  0  0  0  0  0  0  0  0  0  0  # atno 10763 bound_to 10752
  154.5607  135.5648  153.7008 H   0  0  0  0  0  0  0  0  0  0  0  0  # atno 10764 bound_to 10752
  153.0016  135.6297  154.2473 H   0  0  0  0  0  0  0  0  0  0  0  0  # atno 10765 bound_to 10752
  140.1114  134.8922  157.1941 H   0  0  0  0  0  0  0  0  0  0  0  0  # atno 11005 bound_to 11000
  145.8777  139.2306  143.1624 LP  0  0  0  0  0  0  0  0  0  0  0  0  # atno 17320 bound_to 7965
  146.0025  140.8508  143.0011 LP  0  0  0  0  0  0  0  0  0  0  0  0  # atno 17321 bound_to 7965
  140.7773  143.5031  150.9746 LP  0  0  0  0  0  0  0  0  0  0  0  0  # atno 17342 bound_to 10162
  139.8719  143.7181  152.3165 LP  0  0  0  0  0  0  0  0  0  0  0  0  # atno 17343 bound_to 10162
  157.4608  131.0883  151.0748 LP  0  0  0  0  0  0  0  0  0  0  0  0  # atno 17370 bound_to 10713
  157.1236  130.6072  149.5511 LP  0  0  0  0  0  0  0  0  0  0  0  0  # atno 17371 bound_to 10713
  140.3086  134.3049  155.7272 LP  0  0  0  0  0  0  0  0  0  0  0  0  # atno 17394 bound_to 11000
  141.2131  133.7636  156.9744 LP  0  0  0  0  0  0  0  0  0  0  0  0  # atno 17395 bound_to 11000

$$$$
