AV-unprocessed.smi:2279|AV-procd|sdf|9184|dock7
  -GOLD-   2272012403D 1   1.00000     0.00000
 Structure written by MMmdl.
 58 60  0  0  0  0  0  0  0  0  3 V2000
  152.0446  144.9020  160.4146 C   0  0  0  0  0  0  0  0  0  0  0  0
  152.3236  143.4871  159.9528 C   0  0  0  0  0  0  0  0  0  0  0  0
  153.2173  142.6595  160.6592 C   0  0  0  0  0  0  0  0  0  0  0  0
  153.4363  141.3542  160.1776 C   0  0  0  0  0  0  0  0  0  0  0  0
  154.3795  140.4087  160.8911 C   0  0  0  0  0  0  0  0  0  0  0  0
  152.8338  140.8658  159.0724 N   0  0  0  0  0  0  0  0  0  0  0  0
  151.9708  141.6535  158.3841 C   0  0  0  0  0  0  0  0  0  0  0  0
  151.2771  141.2288  157.2196 N   0  0  0  0  0  0  0  0  0  0  0  0
  150.0643  141.6202  156.7899 C   0  0  0  0  0  0  0  0  0  0  0  0
  149.3104  142.3877  157.3890 O   0  0  0  0  0  0  0  0  0  0  0  0
  149.7550  141.0522  155.6145 N   0  0  0  0  0  0  0  0  0  0  0  0
  148.5017  141.2530  154.8925 C   0  0  2  0  0  0  0  0  0  0  0  0
  147.2960  140.9540  155.8046 C   0  0  0  0  0  0  0  0  0  0  0  0
  145.9699  141.0130  155.0191 C   0  0  0  0  0  0  0  0  0  0  0  0
  145.9735  140.1027  153.8365 N   0  3  2  0  0  0  0  0  0  0  0  0
  145.8501  138.6398  154.1621 C   0  0  2  0  0  0  0  0  0  0  0  0
  147.0613  138.0947  154.9617 C   0  0  0  0  0  0  0  0  0  0  0  0
  146.9672  136.5806  155.2166 C   0  0  0  0  0  0  0  0  0  0  0  0
  146.8301  135.8310  153.9468 N   0  3  1  0  0  0  0  0  0  0  0  0
  146.8565  134.3663  154.1507 C   0  0  0  0  0  0  0  0  0  0  0  0
  145.6414  136.2752  153.1833 C   0  0  0  0  0  0  0  0  0  0  0  0
  145.7071  137.7820  152.8799 C   0  0  0  0  0  0  0  0  0  0  0  0
  147.0997  140.4767  152.9329 C   0  0  0  0  0  0  0  0  0  0  0  0
  148.4620  140.3582  153.6421 C   0  0  0  0  0  0  0  0  0  0  0  0
  151.6909  142.9739  158.8024 C   0  0  0  0  0  0  0  0  0  0  0  0
  152.5020  145.0990  161.3845 H   0  0  0  0  0  0  0  0  0  0  0  0
  150.9710  145.0675  160.5054 H   0  0  0  0  0  0  0  0  0  0  0  0
  152.4442  145.6182  159.6963 H   0  0  0  0  0  0  0  0  0  0  0  0
  153.7206  143.0153  161.5464 H   0  0  0  0  0  0  0  0  0  0  0  0
  154.6971  140.8173  161.8509 H   0  0  0  0  0  0  0  0  0  0  0  0
  155.2676  140.2315  160.2840 H   0  0  0  0  0  0  0  0  0  0  0  0
  153.8917  139.4512  161.0758 H   0  0  0  0  0  0  0  0  0  0  0  0
  151.7638  140.5553  156.6470 H   0  0  0  0  0  0  0  0  0  0  0  0
  150.4340  140.4364  155.1916 H   0  0  0  0  0  0  0  0  0  0  0  0
  148.4366  142.2907  154.5583 H   0  0  0  0  0  0  0  0  0  0  0  0
  147.4111  139.9761  156.2728 H   0  0  0  0  0  0  0  0  0  0  0  0
  147.2650  141.6751  156.6224 H   0  0  0  0  0  0  0  0  0  0  0  0
  145.1259  140.8278  155.6795 H   0  0  0  0  0  0  0  0  0  0  0  0
  145.8215  142.0322  154.6587 H   0  0  0  0  0  0  0  0  0  0  0  0
  144.9609  138.4914  154.7751 H   0  0  0  0  0  0  0  0  0  0  0  0
  147.9884  138.3181  154.4314 H   0  0  0  0  0  0  0  0  0  0  0  0
  147.1316  138.5743  155.9373 H   0  0  0  0  0  0  0  0  0  0  0  0
  147.8619  136.2449  155.7426 H   0  0  0  0  0  0  0  0  0  0  0  0
  146.1173  136.3612  155.8654 H   0  0  0  0  0  0  0  0  0  0  0  0
  146.0092  134.0389  154.7546 H   0  0  0  0  0  0  0  0  0  0  0  0
  147.7743  134.0644  154.6568 H   0  0  0  0  0  0  0  0  0  0  0  0
  146.8181  133.8430  153.1946 H   0  0  0  0  0  0  0  0  0  0  0  0
  145.5820  135.7187  152.2470 H   0  0  0  0  0  0  0  0  0  0  0  0
  144.7357  136.0442  153.7467 H   0  0  0  0  0  0  0  0  0  0  0  0
  144.8023  138.0372  152.3313 H   0  0  0  0  0  0  0  0  0  0  0  0
  146.5432  137.9812  152.2077 H   0  0  0  0  0  0  0  0  0  0  0  0
  147.0872  139.9136  152.0017 H   0  0  0  0  0  0  0  0  0  0  0  0
  146.9539  141.5127  152.6233 H   0  0  0  0  0  0  0  0  0  0  0  0
  149.2583  140.6490  152.9558 H   0  0  0  0  0  0  0  0  0  0  0  0
  148.6549  139.3191  153.9116 H   0  0  0  0  0  0  0  0  0  0  0  0
  151.0003  143.5912  158.2460 H   0  0  0  0  0  0  0  0  0  0  0  0
  145.1349  140.3248  153.3185 H   0  0  0  0  0  0  0  0  0  0  0  0
  147.6397  136.0545  153.3853 H   0  0  0  0  0  0  0  0  0  0  0  0
  1  2  1  0  0  0  0
  1 26  1  0  0  0  0
  1 27  1  0  0  0  0
  1 28  1  0  0  0  0
  2 25  1  0  0  0  0
  2  3  2  0  0  0  0
  3  4  1  0  0  0  0
  3 29  1  0  0  0  0
  4  5  1  0  0  0  0
  4  6  2  0  0  0  0
  5 30  1  0  0  0  0
  5 31  1  0  0  0  0
  5 32  1  0  0  0  0
  6  7  1  0  0  0  0
  7  8  1  0  0  0  0
  7 25  2  0  0  0  0
  8  9  1  0  0  0  0
  8 33  1  0  0  0  0
  9 10  2  0  0  0  0
  9 11  1  0  0  0  0
 11 12  1  0  0  0  0
 11 34  1  0  0  0  0
 12 24  1  0  0  0  0
 12 13  1  0  0  0  0
 12 35  1  0  0  0  0
 13 14  1  0  0  0  0
 13 36  1  0  0  0  0
 13 37  1  0  0  0  0
 14 15  1  0  0  0  0
 14 38  1  0  0  0  0
 14 39  1  0  0  0  0
 15 16  1  0  0  0  0
 15 23  1  0  0  0  0
 15 57  1  0  0  0  0
 16 22  1  0  0  0  0
 16 17  1  0  0  0  0
 16 40  1  0  0  0  0
 17 18  1  0  0  0  0
 17 41  1  0  0  0  0
 17 42  1  0  0  0  0
 18 19  1  0  0  0  0
 18 43  1  0  0  0  0
 18 44  1  0  0  0  0
 19 20  1  0  0  0  0
 19 21  1  0  0  0  0
 19 58  1  0  0  0  0
 20 45  1  0  0  0  0
 20 46  1  0  0  0  0
 20 47  1  0  0  0  0
 21 22  1  0  0  0  0
 21 48  1  0  0  0  0
 21 49  1  0  0  0  0
 22 50  1  0  0  0  0
 22 51  1  0  0  0  0
 23 24  1  0  0  0  0
 23 52  1  0  0  0  0
 23 53  1  0  0  0  0
 24 54  1  0  0  0  0
 24 55  1  0  0  0  0
 25 56  1  0  0  0  0
M  CHG  1  15   1
M  CHG  1  19   1
M  END
> <s_m_source_file>
AV-unprocessed.smi

> <i_m_source_file_index>
2279

> <i_lp_mmshare_version>
43012

> <i_f3d_flags>
0

> <s_epik_input>
W0NIM11jMVtjSF1jKFtDSDNdKW5jKFtjSF0xKVtOSF1DKD1PKVtOSF1bQ0hdMltDSDJdW0NIMl1OKFtDSDJdW0NIMl0yKVtDSF0zW0NIMl1bQ0gyXU4oW0NIM10pW0NIMl1bQ0gyXTM=

> <s_epik_cmdline>
J2VwaWtfcHl0aG9uJywgJy1waCcsICc3LjAnLCAnLXRuJywgJzgnLCAnLW1hJywgJzIwMCcsICctbWV0YWxfYmluZGluZycsICctaW1hZScsICc8aW5maWxlLm1hZT4nLCAnLW9tYWUnLCAnPG91dGZpbGUubWFlPic=

> <r_epik_Ionization_Penalty>
0.180973

> <r_epik_Ionization_Penalty_Charging>
0.180787

> <r_epik_Ionization_Penalty_Neutral>
0.000186186

> <r_epik_State_Penalty>
0.153592

> <r_epik_Charging_Adjusted_Penalty>
0.334379

> <i_epik_Tot_Q>
2

> <i_epik_Tot_abs_Q>
2

> <r_epik_Metal_State_Penalty>
0.153604

> <b_epik_Metal_Only>
0

> <s_lp_Force_Field>
OPLS_2005

> <r_lp_Energy>
44.6219

> <b_lp_Chiralities_Consistent>
1

> <s_lp_Variant>
AV-unprocessed.smi:2279-2

> <Gold.Version>
5.8.1

> <Gold.Id.Protein>
6NUR|6NUR_protein|mol2

> <Gold.PLP.Fitness>
48.7119

> <Gold.PLP.PLP>
-38.4376

> <Gold.PLP.part.hbond>
-2.0000

> <Gold.PLP.part.metal>
0.0000

> <Gold.PLP.part.buried>
-1.7938

> <Gold.PLP.part.nonpolar>
-35.4321

> <Gold.PLP.part.repulsive>
1.1249

> <Gold.PLP.ligand.clash>
1.2887

> <Gold.PLP.ligand.torsion>
0.2445

> <Gold.PLP.Chemscore.Hbond>
4.0000

> <Gold.PLP.Chemscore.CHOScore>
0.0000

> <Gold.PLP.Chemscore.Metal>
0.0000

> <Gold.Chemscore.Hbonds>
donor molecule, donor type, donor heavy atom, donor atom, acceptor molecule, acceptor atom, score
      L1  H    15    57       P1 10175  2.00
      L1  H    19    58       P1  7948  2.00

> <Gold.PLP.Chemscore.Internal.Correction>
0.0520

> <Gold.Rescore>
     Score         DG    S(hbond)    S(metal)    S(lipo)     H(rot)  DE(clash)    DE(int)     intcor
     15.45     -21.81       1.98        0.00     109.42       1.21       1.35       5.01       ----

> <Gold.Chemscore.Fitness>
15.4517

> <Gold.Chemscore.DG>
-21.8132

> <Gold.Chemscore.ZeroCoef>
-5.4800

> <Gold.Chemscore.Hbond>
1.9844

> <Gold.Chemscore.Metal>
0.0000

> <Gold.Chemscore.Lipo>
109.4162

> <Gold.Chemscore.Internal_Hbond>
0.0000

> <Gold.Chemscore.DEClash>
1.3513

> <Gold.Chemscore.DEInternal>
5.0102

> <Gold.Chemscore.Rot>
1.2095

> <Gold.Chemscore.Internal.Correction>
   9.000000E+99

> <Gold.Chemscore.Hbonds>
donor molecule, donor type, donor heavy atom, donor atom, acceptor molecule, acceptor atom, score
      L1  H    15    57       P1 10175  1.00
      L1  H    19    58       P1  7948  0.94

> <Gold.Chemscore.Hbond.Weighted>
-6.6278

> <Gold.Chemscore.Metal.Weighted>
-0.0000

> <Gold.Chemscore.Lipo.Weighted>
-12.8017

> <Gold.Chemscore.Internal_Hbond.Weighted>
0.0000

> <Gold.Chemscore.DEClash.Weighted>
1.3513

> <Gold.Chemscore.DEInternal.Weighted>
5.0102

> <Gold.Chemscore.Rot.Weighted>
3.0963

> <Gold.Chemscore.Internal.Correction.Weighted>
   9.000000E+99

> <Gold.Protein.RotatedTorsions>
[ 6907 6896 6895 6894 ] final  118.32 input  -60.11 | X-H torsion
[ 7974 7965 7964 7962 ] final   57.79 input  175.53 | X-H torsion
[ 8008 7997 7996 7995 ] final   37.35 input   59.86 | X-H torsion
[ 10167 10162 10161 10158 ] final -129.59 input  -65.29 | X-H torsion
[ 10718 10713 10712 10709 ] final   14.51 input   66.30 | X-H torsion
[ 10763 10752 10751 10750 ] final  164.65 input  -60.55 | X-H torsion
[ 11005 11000 10999 10996 ] final -134.44 input  -57.11 | X-H torsion

> <Gold.Protein.ActiveResidues>
 VAL166  LYS551  ARG553  GLY616  TRP617  ASP618  TYR619  PRO620  LYS621  CYS622 
 ASP623  PHE694  ASN695  SER759  ASP760  ASP761  ALA762  ILE779  LEU786  VAL792 
 PHE793  MET794  SER795  GLU796  ALA797  LYS798  CYS799  TRP800  GLU811  SER814 

> <Gold.Protein.RotatedAtoms>
  152.4551  133.7707  159.6797 H   0  0  0  0  0  0  0  0  0  0  0  0  # atno 6907 bound_to 6896
  150.8475  133.7828  159.3044 H   0  0  0  0  0  0  0  0  0  0  0  0  # atno 6908 bound_to 6896
  151.5434  135.1071  159.9984 H   0  0  0  0  0  0  0  0  0  0  0  0  # atno 6909 bound_to 6896
  145.9252  139.3762  143.0454 H   0  0  0  0  0  0  0  0  0  0  0  0  # atno 7974 bound_to 7965
  155.2023  140.3316  155.4341 H   0  0  0  0  0  0  0  0  0  0  0  0  # atno 8008 bound_to 7997
  156.2402  140.1891  156.7058 H   0  0  0  0  0  0  0  0  0  0  0  0  # atno 8009 bound_to 7997
  154.6133  140.0606  156.9508 H   0  0  0  0  0  0  0  0  0  0  0  0  # atno 8010 bound_to 7997
  139.9382  143.6193  152.2511 H   0  0  0  0  0  0  0  0  0  0  0  0  # atno 10167 bound_to 10162
  157.0402  130.6228  149.5749 H   0  0  0  0  0  0  0  0  0  0  0  0  # atno 10718 bound_to 10713
  154.3122  135.2757  155.2560 H   0  0  0  0  0  0  0  0  0  0  0  0  # atno 10763 bound_to 10752
  154.4950  135.5823  153.6491 H   0  0  0  0  0  0  0  0  0  0  0  0  # atno 10764 bound_to 10752
  152.9886  135.6144  154.3300 H   0  0  0  0  0  0  0  0  0  0  0  0  # atno 10765 bound_to 10752
  140.8990  134.1715  157.4474 H   0  0  0  0  0  0  0  0  0  0  0  0  # atno 11005 bound_to 11000
  145.8498  140.9535  143.0755 LP  0  0  0  0  0  0  0  0  0  0  0  0  # atno 17320 bound_to 7965
  144.6757  140.0392  143.7481 LP  0  0  0  0  0  0  0  0  0  0  0  0  # atno 17321 bound_to 7965
  139.6726  144.7660  151.1755 LP  0  0  0  0  0  0  0  0  0  0  0  0  # atno 17342 bound_to 10162
  140.7618  143.5843  150.8862 LP  0  0  0  0  0  0  0  0  0  0  0  0  # atno 17343 bound_to 10162
  156.0040  130.5124  150.7766 LP  0  0  0  0  0  0  0  0  0  0  0  0  # atno 17370 bound_to 10713
  157.5110  131.0925  151.0198 LP  0  0  0  0  0  0  0  0  0  0  0  0  # atno 17371 bound_to 10713
  139.8739  134.9890  156.5437 LP  0  0  0  0  0  0  0  0  0  0  0  0  # atno 17394 bound_to 11000
  140.8254  133.8321  155.8934 LP  0  0  0  0  0  0  0  0  0  0  0  0  # atno 17395 bound_to 11000

$$$$
