AV-unprocessed.smi:21|AV-procd|sdf|148|dock8
  -GOLD-   2262015363D 1   1.00000     0.00000
 Structure written by MMmdl.
 62 65  0  0  0  0  0  0  0  0  2 V2000
  145.1784  130.8621  151.6424 C   0  0  0  0  0  0  0  0  0  0  0  0
  145.3979  132.1967  152.0717 O   0  0  0  0  0  0  0  0  0  0  0  0
  144.7627  133.1749  151.2587 C   0  0  2  0  0  0  0  0  0  0  0  0
  145.1151  134.5959  151.6998 C   0  0  0  0  0  0  0  0  0  0  0  0
  144.1558  134.9088  152.8625 C   0  0  2  0  0  0  0  0  0  0  0  0
  144.8118  134.8041  154.2557 C   0  0  0  0  0  0  0  0  0  0  0  0
  145.0824  136.1082  154.8656 N   0  0  0  0  0  0  0  0  0  0  0  0
  143.9659  137.0050  155.1408 C   0  0  0  0  0  0  0  0  0  0  0  0
  146.3484  136.4424  155.2505 C   0  0  0  0  0  0  0  0  0  0  0  0
  147.3389  135.5262  155.0727 N   0  0  0  0  0  0  0  0  0  0  0  0
  148.5953  135.7923  155.4372 C   0  0  0  0  0  0  0  0  0  0  0  0
  149.0815  136.8977  155.9997 N   0  0  0  0  0  0  0  0  0  0  0  0
  148.1018  137.8263  156.1875 C   0  0  0  0  0  0  0  0  0  0  0  0
  146.7246  137.6882  155.8430 C   0  0  0  0  0  0  0  0  0  0  0  0
  146.0452  138.8502  156.1973 N   0  0  0  0  0  0  0  0  0  0  0  0
  146.9591  139.6215  156.7175 C   0  0  0  0  0  0  0  0  0  0  0  0
  148.2197  139.0756  156.7710 N   0  0  0  0  0  0  0  0  0  0  0  0
  149.4150  139.7068  157.3022 C   0  0  0  0  0  0  0  0  0  0  0  0
  149.7539  141.0796  156.6639 C   0  0  2  0  0  0  0  0  0  0  0  0
  149.8541  140.8811  155.1313 C   0  0  0  0  0  0  0  0  0  0  0  0
  150.9765  140.1022  154.7715 O   0  0  0  0  0  0  0  0  0  0  0  0
  151.0417  141.7278  157.2611 C   0  0  1  0  0  0  0  0  0  0  0  0
  151.1693  143.2314  157.0693 C   0  0  0  0  0  0  0  0  0  0  0  0
  152.2224  143.6015  158.1022 C   0  0  0  0  0  0  0  0  0  0  0  0
  151.9057  142.7914  159.2223 O   0  0  0  0  0  0  0  0  0  0  0  0
  151.2006  141.6316  158.7887 C   0  0  0  0  0  0  0  0  0  0  0  0
  143.0559  133.9196  152.7586 N   0  3  1  0  0  0  0  0  0  0  0  0
  141.6990  134.4924  152.8848 C   0  0  0  0  0  0  0  0  0  0  0  0
  143.2629  133.1166  151.5357 C   0  0  0  0  0  0  0  0  0  0  0  0
  144.9744  132.9970  150.2029 H   0  0  0  0  0  0  0  0  0  0  0  0
  143.7582  135.9149  152.7200 H   0  0  0  0  0  0  0  0  0  0  0  0
  145.6809  130.1753  152.3234 H   0  0  0  0  0  0  0  0  0  0  0  0
  145.5736  130.6849  150.6422 H   0  0  0  0  0  0  0  0  0  0  0  0
  144.1156  130.6173  151.6462 H   0  0  0  0  0  0  0  0  0  0  0  0
  146.1668  134.7285  151.9464 H   0  0  0  0  0  0  0  0  0  0  0  0
  144.9015  135.2792  150.8766 H   0  0  0  0  0  0  0  0  0  0  0  0
  144.1811  134.2171  154.9247 H   0  0  0  0  0  0  0  0  0  0  0  0
  145.7418  134.2401  154.1769 H   0  0  0  0  0  0  0  0  0  0  0  0
  144.1864  138.0140  154.7908 H   0  0  0  0  0  0  0  0  0  0  0  0
  143.7536  137.0418  156.2094 H   0  0  0  0  0  0  0  0  0  0  0  0
  143.0584  136.6747  154.6353 H   0  0  0  0  0  0  0  0  0  0  0  0
  149.3134  135.0062  155.2556 H   0  0  0  0  0  0  0  0  0  0  0  0
  146.7351  140.6103  157.0907 H   0  0  0  0  0  0  0  0  0  0  0  0
  149.3132  139.8115  158.3829 H   0  0  0  0  0  0  0  0  0  0  0  0
  150.2344  139.0052  157.1419 H   0  0  0  0  0  0  0  0  0  0  0  0
  148.9102  141.7456  156.8518 H   0  0  0  0  0  0  0  0  0  0  0  0
  148.9460  140.4247  154.7364 H   0  0  0  0  0  0  0  0  0  0  0  0
  149.9701  141.8377  154.6214 H   0  0  0  0  0  0  0  0  0  0  0  0
  150.9782  139.3162  155.2964 H   0  0  0  0  0  0  0  0  0  0  0  0
  151.9143  141.2638  156.7978 H   0  0  0  0  0  0  0  0  0  0  0  0
  151.4651  143.5129  156.0584 H   0  0  0  0  0  0  0  0  0  0  0  0
  150.2289  143.7305  157.3068 H   0  0  0  0  0  0  0  0  0  0  0  0
  153.2197  143.3422  157.7439 H   0  0  0  0  0  0  0  0  0  0  0  0
  152.2130  144.6616  158.3562 H   0  0  0  0  0  0  0  0  0  0  0  0
  150.2327  141.6192  159.2901 H   0  0  0  0  0  0  0  0  0  0  0  0
  151.7498  140.7398  159.0867 H   0  0  0  0  0  0  0  0  0  0  0  0
  141.4885  135.1905  152.0732 H   0  0  0  0  0  0  0  0  0  0  0  0
  141.5980  135.0261  153.8306 H   0  0  0  0  0  0  0  0  0  0  0  0
  140.9488  133.7017  152.8617 H   0  0  0  0  0  0  0  0  0  0  0  0
  142.7269  133.5766  150.7038 H   0  0  0  0  0  0  0  0  0  0  0  0
  142.8894  132.0985  151.6502 H   0  0  0  0  0  0  0  0  0  0  0  0
  143.1859  133.2841  153.5332 H   0  0  0  0  0  0  0  0  0  0  0  0
  1  2  1  0  0  0  0
  1 32  1  0  0  0  0
  1 33  1  0  0  0  0
  1 34  1  0  0  0  0
  2  3  1  0  0  0  0
  3 30  1  0  0  0  0
  3 29  1  0  0  0  0
  3  4  1  0  0  0  0
  4  5  1  0  0  0  0
  4 35  1  0  0  0  0
  4 36  1  0  0  0  0
  5 31  1  0  0  0  0
  5  6  1  0  0  0  0
  5 27  1  0  0  0  0
  6  7  1  0  0  0  0
  6 37  1  0  0  0  0
  6 38  1  0  0  0  0
  7  8  1  0  0  0  0
  7  9  1  0  0  0  0
  8 39  1  0  0  0  0
  8 40  1  0  0  0  0
  8 41  1  0  0  0  0
  9 14  1  0  0  0  0
  9 10  2  0  0  0  0
 10 11  1  0  0  0  0
 11 12  2  0  0  0  0
 11 42  1  0  0  0  0
 12 13  1  0  0  0  0
 13 17  1  0  0  0  0
 13 14  2  0  0  0  0
 14 15  1  0  0  0  0
 15 16  2  0  0  0  0
 16 17  1  0  0  0  0
 16 43  1  0  0  0  0
 17 18  1  0  0  0  0
 18 19  1  0  0  0  0
 18 44  1  0  0  0  0
 18 45  1  0  0  0  0
 19 20  1  0  0  0  0
 19 22  1  0  0  0  0
 19 46  1  0  0  0  0
 20 21  1  0  0  0  0
 20 47  1  0  0  0  0
 20 48  1  0  0  0  0
 21 49  1  0  0  0  0
 22 26  1  0  0  0  0
 22 23  1  0  0  0  0
 22 50  1  0  0  0  0
 23 24  1  0  0  0  0
 23 51  1  0  0  0  0
 23 52  1  0  0  0  0
 24 25  1  0  0  0  0
 24 53  1  0  0  0  0
 24 54  1  0  0  0  0
 25 26  1  0  0  0  0
 26 55  1  0  0  0  0
 26 56  1  0  0  0  0
 27 28  1  0  0  0  0
 27 29  1  0  0  0  0
 27 62  1  0  0  0  0
 28 57  1  0  0  0  0
 28 58  1  0  0  0  0
 28 59  1  0  0  0  0
 29 60  1  0  0  0  0
 29 61  1  0  0  0  0
M  CHG  1  27   1
M  END
> <s_m_source_file>
AV-unprocessed.smi

> <i_m_source_file_index>
21

> <i_lp_mmshare_version>
43012

> <i_f3d_flags>
0

> <s_epik_input>
W0NIM11PW0NASF0xW0NIMl1bQ0BIXShOKFtDSDNdKVtDSDJdMSlbQ0gyXU4oW0NIM10pYyhuW2NIXW4yKWMoYzIzKW5bY0hdbjNbQ0gyXVtDQEhdKFtDSDJdW09IXSlbQ0BASF00W0NIMl1bQ0gyXU9bQ0gyXTQ=

> <s_epik_cmdline>
J2VwaWtfcHl0aG9uJywgJy1waCcsICc3LjAnLCAnLXRuJywgJzgnLCAnLW1hJywgJzIwMCcsICctbWV0YWxfYmluZGluZycsICctaW1hZScsICc8aW5maWxlLm1hZT4nLCAnLW9tYWUnLCAnPG91dGZpbGUubWFlPic=

> <r_lp_tautomer_probability>
1

> <r_epik_Ionization_Penalty>
0.0157465

> <r_epik_Ionization_Penalty_Charging>
0.015354

> <r_epik_Ionization_Penalty_Neutral>
0.000392529

> <r_epik_State_Penalty>
0.0120612

> <r_epik_Charging_Adjusted_Penalty>
0.0274152

> <i_epik_Tot_Q>
1

> <i_epik_Tot_abs_Q>
1

> <r_epik_Metal_State_Penalty>
0.0121253

> <b_epik_Metal_Only>
0

> <s_lp_Force_Field>
OPLS_2005

> <r_lp_Energy>
58.7805

> <b_lp_Chiralities_Consistent>
1

> <s_lp_Variant>
AV-unprocessed.smi:21-28

> <Gold.Version>
5.8.1

> <Gold.Id.Protein>
6NUR|6NUR_protein|mol2

> <Gold.PLP.Fitness>
40.7771

> <Gold.PLP.PLP>
-33.5504

> <Gold.PLP.part.hbond>
-2.0000

> <Gold.PLP.part.metal>
0.0000

> <Gold.PLP.part.buried>
-5.8569

> <Gold.PLP.part.nonpolar>
-26.5785

> <Gold.PLP.part.repulsive>
0.2533

> <Gold.PLP.ligand.clash>
0.0000

> <Gold.PLP.ligand.torsion>
1.0437

> <Gold.PLP.Chemscore.Hbond>
3.0000

> <Gold.PLP.Chemscore.CHOScore>
0.0000

> <Gold.PLP.Chemscore.Metal>
0.0000

> <Gold.Chemscore.Hbonds>
donor molecule, donor type, donor heavy atom, donor atom, acceptor molecule, acceptor atom, score
      L1  H    27    62       P1 10957  2.00
      P1  H  7989  7998       L1    21  1.00

> <Gold.PLP.Chemscore.Internal.Correction>
0.3140

> <Gold.Rescore>
     Score         DG    S(hbond)    S(metal)    S(lipo)     H(rot)  DE(clash)    DE(int)     intcor
     12.31     -14.64       1.91        0.00      91.04       3.08       0.04       2.29       ----

> <Gold.Chemscore.Fitness>
12.3101

> <Gold.Chemscore.DG>
-14.6387

> <Gold.Chemscore.ZeroCoef>
-5.4800

> <Gold.Chemscore.Hbond>
1.9106

> <Gold.Chemscore.Metal>
0.0000

> <Gold.Chemscore.Lipo>
91.0376

> <Gold.Chemscore.Internal_Hbond>
0.0000

> <Gold.Chemscore.DEClash>
0.0354

> <Gold.Chemscore.DEInternal>
2.2933

> <Gold.Chemscore.Rot>
3.0758

> <Gold.Chemscore.Internal.Correction>
   9.000000E+99

> <Gold.Chemscore.Hbonds>
donor molecule, donor type, donor heavy atom, donor atom, acceptor molecule, acceptor atom, score
      L1  H    27    62       P1 10957  0.90
      P1  H  7989  7998       L1    21  0.50

> <Gold.Chemscore.Hbond.Weighted>
-6.3815

> <Gold.Chemscore.Metal.Weighted>
-0.0000

> <Gold.Chemscore.Lipo.Weighted>
-10.6514

> <Gold.Chemscore.Internal_Hbond.Weighted>
0.0000

> <Gold.Chemscore.DEClash.Weighted>
0.0354

> <Gold.Chemscore.DEInternal.Weighted>
2.2933

> <Gold.Chemscore.Rot.Weighted>
7.8741

> <Gold.Chemscore.Internal.Correction.Weighted>
   9.000000E+99

> <Gold.Protein.RotatedTorsions>
[ 6907 6896 6895 6894 ] final  -32.60 input  -60.11 | X-H torsion
[ 7974 7965 7964 7962 ] final  146.13 input  175.53 | X-H torsion
[ 8008 7997 7996 7995 ] final -131.18 input   59.86 | X-H torsion
[ 10167 10162 10161 10158 ] final -179.67 input  -65.29 | X-H torsion
[ 10718 10713 10712 10709 ] final   81.39 input   66.30 | X-H torsion
[ 10763 10752 10751 10750 ] final  172.02 input  -60.55 | X-H torsion
[ 11005 11000 10999 10996 ] final   61.22 input  -57.11 | X-H torsion

> <Gold.Protein.ActiveResidues>
 VAL166  LYS551  ARG553  GLY616  TRP617  ASP618  TYR619  PRO620  LYS621  CYS622 
 ASP623  PHE694  ASN695  SER759  ASP760  ASP761  ALA762  ILE779  LEU786  VAL792 
 PHE793  MET794  SER795  GLU796  ALA797  LYS798  CYS799  TRP800  GLU811  SER814 

> <Gold.Protein.RotatedAtoms>
  151.0766  134.9832  159.8335 H   0  0  0  0  0  0  0  0  0  0  0  0  # atno 6907 bound_to 6896
  152.5415  134.2233  159.8806 H   0  0  0  0  0  0  0  0  0  0  0  0  # atno 6908 bound_to 6896
  151.2261  133.4432  159.2636 H   0  0  0  0  0  0  0  0  0  0  0  0  # atno 6909 bound_to 6896
  144.8696  139.5867  143.5893 H   0  0  0  0  0  0  0  0  0  0  0  0  # atno 7974 bound_to 7965
  155.3081  140.0456  157.3033 H   0  0  0  0  0  0  0  0  0  0  0  0  # atno 8008 bound_to 7997
  154.5448  140.2299  155.8547 H   0  0  0  0  0  0  0  0  0  0  0  0  # atno 8009 bound_to 7997
  156.1914  140.3049  155.9347 H   0  0  0  0  0  0  0  0  0  0  0  0  # atno 8010 bound_to 7997
  139.5376  144.2454  152.0827 H   0  0  0  0  0  0  0  0  0  0  0  0  # atno 10167 bound_to 10162
  157.6831  131.0002  150.2219 H   0  0  0  0  0  0  0  0  0  0  0  0  # atno 10718 bound_to 10713
  154.4202  135.2757  155.1980 H   0  0  0  0  0  0  0  0  0  0  0  0  # atno 10763 bound_to 10752
  154.3929  135.6062  153.5857 H   0  0  0  0  0  0  0  0  0  0  0  0  # atno 10764 bound_to 10752
  152.9833  135.5908  154.4497 H   0  0  0  0  0  0  0  0  0  0  0  0  # atno 10765 bound_to 10752
  140.0176  134.6201  155.9686 H   0  0  0  0  0  0  0  0  0  0  0  0  # atno 11005 bound_to 11000
  146.2921  139.7169  142.9153 LP  0  0  0  0  0  0  0  0  0  0  0  0  # atno 17320 bound_to 7965
  145.4156  141.0401  143.2993 LP  0  0  0  0  0  0  0  0  0  0  0  0  # atno 17321 bound_to 7965
  140.1927  144.4736  150.6471 LP  0  0  0  0  0  0  0  0  0  0  0  0  # atno 17342 bound_to 10162
  140.6590  143.2246  151.5901 LP  0  0  0  0  0  0  0  0  0  0  0  0  # atno 17343 bound_to 10162
  156.2869  130.3740  149.7880 LP  0  0  0  0  0  0  0  0  0  0  0  0  # atno 17370 bound_to 10713
  156.5551  130.8359  151.3312 LP  0  0  0  0  0  0  0  0  0  0  0  0  # atno 17371 bound_to 10713
  141.1753  133.6540  156.4805 LP  0  0  0  0  0  0  0  0  0  0  0  0  # atno 17394 bound_to 11000
  140.4443  134.6987  157.5007 LP  0  0  0  0  0  0  0  0  0  0  0  0  # atno 17395 bound_to 11000

$$$$
