AV-unprocessed.smi:1683|AV-procd|sdf|6750|dock2
  -GOLD-   22720 7503D 1   1.00000     0.00000
 Structure written by MMmdl.
 37 38  0  0  0  0  0  0  0  0  2 V2000
  144.3598  136.2813  151.8798 O   0  0  0  0  0  0  0  0  0  0  0  0
  145.5759  136.1272  151.7631 C   0  0  0  0  0  0  0  0  0  0  0  0
  146.4707  137.0911  152.0232 N   0  0  0  0  0  0  0  0  0  0  0  0
  146.1359  138.4423  152.4609 C   0  0  0  0  0  0  0  0  0  0  0  0
  147.3842  139.2398  152.8842 C   0  0  1  0  0  0  0  0  0  0  0  0
  147.1049  140.6613  153.3653 C   0  0  0  0  0  0  0  0  0  0  0  0
  148.3684  140.9975  154.1527 C   0  0  0  0  0  0  0  0  0  0  0  0
  148.7807  139.7335  154.8045 N   0  3  2  0  0  0  0  0  0  0  0  0
  150.2420  139.5782  155.0125 C   0  0  0  0  0  0  0  0  0  0  0  0
  150.7708  140.4075  156.1967 C   0  0  0  0  0  0  0  0  0  0  0  0
  152.0541  140.1104  156.3952 F   0  0  0  0  0  0  0  0  0  0  0  0
  150.6742  141.7144  155.9548 F   0  0  0  0  0  0  0  0  0  0  0  0
  150.0878  140.1127  157.3028 F   0  0  0  0  0  0  0  0  0  0  0  0
  148.1507  138.6168  154.0582 C   0  0  0  0  0  0  0  0  0  0  0  0
  146.1773  134.9917  151.3717 N   0  0  0  0  0  0  0  0  0  0  0  0
  145.5542  133.7767  150.9892 C   0  0  0  0  0  0  0  0  0  0  0  0
  146.2026  132.5124  150.9472 C   0  0  0  0  0  0  0  0  0  0  0  0
  145.3749  131.5573  150.5481 N   0  0  0  0  0  0  0  0  0  0  0  0
  144.2049  132.2000  150.3331 N   0  0  0  0  0  0  0  0  0  0  0  0
  144.2672  133.5522  150.5877 C   0  0  0  0  0  0  0  0  0  0  0  0
  143.3820  131.7081  150.0147 H   0  0  0  0  0  0  0  0  0  0  0  0
  147.4502  136.8791  151.9001 H   0  0  0  0  0  0  0  0  0  0  0  0
  145.6279  138.9480  151.6393 H   0  0  0  0  0  0  0  0  0  0  0  0
  145.4195  138.3976  153.2831 H   0  0  0  0  0  0  0  0  0  0  0  0
  148.0719  139.3024  152.0387 H   0  0  0  0  0  0  0  0  0  0  0  0
  146.9200  141.3586  152.5476 H   0  0  0  0  0  0  0  0  0  0  0  0
  146.2372  140.6760  154.0266 H   0  0  0  0  0  0  0  0  0  0  0  0
  149.1439  141.3324  153.4617 H   0  0  0  0  0  0  0  0  0  0  0  0
  148.2021  141.7905  154.8822 H   0  0  0  0  0  0  0  0  0  0  0  0
  150.4453  138.5265  155.2201 H   0  0  0  0  0  0  0  0  0  0  0  0
  150.7815  139.8226  154.0959 H   0  0  0  0  0  0  0  0  0  0  0  0
  147.4701  138.1041  154.7391 H   0  0  0  0  0  0  0  0  0  0  0  0
  148.8742  137.8803  153.7045 H   0  0  0  0  0  0  0  0  0  0  0  0
  147.1862  134.9973  151.3365 H   0  0  0  0  0  0  0  0  0  0  0  0
  147.2250  132.2610  151.1881 H   0  0  0  0  0  0  0  0  0  0  0  0
  143.4156  134.2041  150.4607 H   0  0  0  0  0  0  0  0  0  0  0  0
  148.3533  139.7251  155.7197 H   0  0  0  0  0  0  0  0  0  0  0  0
  1  2  2  0  0  0  0
  2  3  1  0  0  0  0
  2 15  1  0  0  0  0
  3  4  1  0  0  0  0
  3 22  1  0  0  0  0
  4  5  1  0  0  0  0
  4 23  1  0  0  0  0
  4 24  1  0  0  0  0
  5 14  1  0  0  0  0
  5  6  1  0  0  0  0
  5 25  1  0  0  0  0
  6  7  1  0  0  0  0
  6 26  1  0  0  0  0
  6 27  1  0  0  0  0
  7  8  1  0  0  0  0
  7 28  1  0  0  0  0
  7 29  1  0  0  0  0
  8  9  1  0  0  0  0
  8 14  1  0  0  0  0
  8 37  1  0  0  0  0
  9 10  1  0  0  0  0
  9 30  1  0  0  0  0
  9 31  1  0  0  0  0
 10 11  1  0  0  0  0
 10 12  1  0  0  0  0
 10 13  1  0  0  0  0
 14 32  1  0  0  0  0
 14 33  1  0  0  0  0
 15 16  1  0  0  0  0
 15 34  1  0  0  0  0
 16 20  2  0  0  0  0
 16 17  1  0  0  0  0
 17 18  2  0  0  0  0
 17 35  1  0  0  0  0
 18 19  1  0  0  0  0
 19 21  1  0  0  0  0
 19 20  1  0  0  0  0
 20 36  1  0  0  0  0
M  CHG  1   8   1
M  END
> <s_m_source_file>
AV-unprocessed.smi

> <i_m_source_file_index>
1683

> <i_lp_mmshare_version>
43012

> <i_f3d_flags>
0

> <s_epik_input>
W2NIXTFbbkhdbltjSF1jMVtOSF1DKD1PKVtOSF1bQ0gyXVtDQEBIXTJbQ0gyXVtDSDJdTihbQ0gyXTIpW0NIMl1DKEYpKEYpRg==

> <s_epik_cmdline>
J2VwaWtfcHl0aG9uJywgJy1waCcsICc3LjAnLCAnLXRuJywgJzgnLCAnLW1hJywgJzIwMCcsICctbWV0YWxfYmluZGluZycsICctaW1hZScsICc8aW5maWxlLm1hZT4nLCAnLW9tYWUnLCAnPG91dGZpbGUubWFlPic=

> <r_lp_tautomer_probability>
0.5

> <r_epik_Ionization_Penalty>
0.641865

> <r_epik_Ionization_Penalty_Charging>
0.64182

> <r_epik_Ionization_Penalty_Neutral>
4.50685e-05

> <r_epik_State_Penalty>
0.65957

> <r_epik_Charging_Adjusted_Penalty>
1.30139

> <i_epik_Tot_Q>
1

> <i_epik_Tot_abs_Q>
1

> <r_epik_Metal_State_Penalty>
0.659571

> <b_epik_Metal_Only>
0

> <s_lp_Force_Field>
OPLS_2005

> <r_lp_Energy>
31.4735

> <b_lp_Chiralities_Consistent>
1

> <s_lp_Variant>
AV-unprocessed.smi:1683-4

> <Gold.Version>
5.8.1

> <Gold.Id.Protein>
6NUR|6NUR_protein|mol2

> <Gold.PLP.Fitness>
43.7631

> <Gold.PLP.PLP>
-33.2790

> <Gold.PLP.part.hbond>
-2.0000

> <Gold.PLP.part.metal>
0.0000

> <Gold.PLP.part.buried>
-3.7395

> <Gold.PLP.part.nonpolar>
-29.6634

> <Gold.PLP.part.repulsive>
1.6191

> <Gold.PLP.ligand.clash>
0.0000

> <Gold.PLP.ligand.torsion>
0.3216

> <Gold.PLP.Chemscore.Hbond>
1.6435

> <Gold.PLP.Chemscore.CHOScore>
1.9151

> <Gold.PLP.Chemscore.Metal>
0.0000

> <Gold.Chemscore.Hbonds>
donor molecule, donor type, donor heavy atom, donor atom, acceptor molecule, acceptor atom, score
      L1  H     3    22       P1  7948  1.00
      L1  H    15    34       P1  7948  0.59
      L1  C    17    35       P1 10747  1.00
      L1  C    20    36       P1 10186  0.88

> <Gold.PLP.Chemscore.Internal.Correction>
0.4517

> <Gold.Rescore>
     Score         DG    S(hbond)    S(metal)    S(lipo)     H(rot)  DE(clash)    DE(int)     intcor
     12.61     -14.19       1.82        0.00      62.15       1.81       0.09       1.49       ----

> <Gold.Chemscore.Fitness>
12.6083

> <Gold.Chemscore.DG>
-14.1921

> <Gold.Chemscore.ZeroCoef>
-5.4800

> <Gold.Chemscore.Hbond>
1.8198

> <Gold.Chemscore.Metal>
0.0000

> <Gold.Chemscore.Lipo>
62.1509

> <Gold.Chemscore.Internal_Hbond>
0.0000

> <Gold.Chemscore.DEClash>
0.0939

> <Gold.Chemscore.DEInternal>
1.4899

> <Gold.Chemscore.Rot>
1.8116

> <Gold.Chemscore.Internal.Correction>
   9.000000E+99

> <Gold.Chemscore.Hbonds>
donor molecule, donor type, donor heavy atom, donor atom, acceptor molecule, acceptor atom, score
      L1  H     3    22       P1  7948  0.99
      L1  H    15    34       P1  7948  0.40

> <Gold.Chemscore.Hbond.Weighted>
-6.0782

> <Gold.Chemscore.Metal.Weighted>
-0.0000

> <Gold.Chemscore.Lipo.Weighted>
-7.2717

> <Gold.Chemscore.Internal_Hbond.Weighted>
0.0000

> <Gold.Chemscore.DEClash.Weighted>
0.0939

> <Gold.Chemscore.DEInternal.Weighted>
1.4899

> <Gold.Chemscore.Rot.Weighted>
4.6378

> <Gold.Chemscore.Internal.Correction.Weighted>
   9.000000E+99

> <Gold.Protein.RotatedTorsions>
[ 6907 6896 6895 6894 ] final -130.91 input  -60.11 | X-H torsion
[ 7974 7965 7964 7962 ] final -176.46 input  175.53 | X-H torsion
[ 8008 7997 7996 7995 ] final  102.34 input   59.86 | X-H torsion
[ 10167 10162 10161 10158 ] final  -44.45 input  -65.29 | X-H torsion
[ 10718 10713 10712 10709 ] final  -66.31 input   66.30 | X-H torsion
[ 10763 10752 10751 10750 ] final  -67.83 input  -60.55 | X-H torsion
[ 11005 11000 10999 10996 ] final   64.37 input  -57.11 | X-H torsion

> <Gold.Protein.ActiveResidues>
 VAL166  LYS551  ARG553  GLY616  TRP617  ASP618  TYR619  PRO620  LYS621  CYS622 
 ASP623  PHE694  ASN695  SER759  ASP760  ASP761  ALA762  ILE779  LEU786  VAL792 
 PHE793  MET794  SER795  GLU796  ALA797  LYS798  CYS799  TRP800  GLU811  SER814 

> <Gold.Protein.RotatedAtoms>
  150.9450  133.6614  159.2782 H   0  0  0  0  0  0  0  0  0  0  0  0  # atno 6907 bound_to 6896
  151.3989  135.0967  159.9559 H   0  0  0  0  0  0  0  0  0  0  0  0  # atno 6908 bound_to 6896
  152.5086  133.8948  159.7466 H   0  0  0  0  0  0  0  0  0  0  0  0  # atno 6909 bound_to 6896
  144.7127  140.1167  143.6408 H   0  0  0  0  0  0  0  0  0  0  0  0  # atno 7974 bound_to 7965
  156.1384  140.3183  155.8456 H   0  0  0  0  0  0  0  0  0  0  0  0  # atno 8008 bound_to 7997
  155.4201  140.0511  157.3043 H   0  0  0  0  0  0  0  0  0  0  0  0  # atno 8009 bound_to 7997
  154.4955  140.2109  155.9468 H   0  0  0  0  0  0  0  0  0  0  0  0  # atno 8010 bound_to 7997
  140.6896  143.2930  151.3497 H   0  0  0  0  0  0  0  0  0  0  0  0  # atno 10167 bound_to 10162
  156.0620  130.4260  150.1690 H   0  0  0  0  0  0  0  0  0  0  0  0  # atno 10718 bound_to 10713
  154.3802  135.6076  153.5787 H   0  0  0  0  0  0  0  0  0  0  0  0  # atno 10763 bound_to 10752
  152.9788  135.5859  154.4419 H   0  0  0  0  0  0  0  0  0  0  0  0  # atno 10764 bound_to 10752
  154.4187  135.2845  155.1968 H   0  0  0  0  0  0  0  0  0  0  0  0  # atno 10765 bound_to 10752
  139.9963  134.6512  156.0005 H   0  0  0  0  0  0  0  0  0  0  0  0  # atno 11005 bound_to 11000
  145.9407  139.2667  143.1270 LP  0  0  0  0  0  0  0  0  0  0  0  0  # atno 17320 bound_to 7965
  145.9426  140.8968  143.0300 LP  0  0  0  0  0  0  0  0  0  0  0  0  # atno 17321 bound_to 7965
  139.6286  144.0764  152.2456 LP  0  0  0  0  0  0  0  0  0  0  0  0  # atno 17342 bound_to 10162
  140.0232  144.6137  150.7549 LP  0  0  0  0  0  0  0  0  0  0  0  0  # atno 17343 bound_to 10162
  156.9756  130.9848  151.3449 LP  0  0  0  0  0  0  0  0  0  0  0  0  # atno 17370 bound_to 10713
  157.5635  130.8262  149.8297 LP  0  0  0  0  0  0  0  0  0  0  0  0  # atno 17371 bound_to 10713
  141.1607  133.6539  156.4308 LP  0  0  0  0  0  0  0  0  0  0  0  0  # atno 17394 bound_to 11000
  140.4812  134.6662  157.5172 LP  0  0  0  0  0  0  0  0  0  0  0  0  # atno 17395 bound_to 11000

$$$$
