AV-unprocessed.smi:2060|AV-procd|sdf|8359|dock1
  -GOLD-   2272011 33D 1   1.00000     0.00000
 Structure written by MMmdl.
 45 46  0  0  0  0  0  0  0  0  3 V2000
  147.4013  141.9684  156.6873 C   0  0  0  0  0  0  0  0  0  0  0  0
  146.9617  140.5667  156.2081 C   0  0  0  0  0  0  0  0  0  0  0  0
  147.6037  140.0007  154.8900 C   0  0  2  0  0  0  0  0  0  0  0  0
  147.3775  141.0565  153.7595 C   0  0  0  0  0  0  0  0  0  0  0  0
  146.9234  138.6527  154.4410 C   0  0  0  0  0  0  0  0  0  0  0  0
  145.4854  138.8354  154.2089 N   0  5  0  0  0  0  0  0  0  0  0  0
  144.5245  137.9360  154.5550 C   0  0  0  0  0  0  0  0  0  0  0  0
  144.6447  136.9550  155.2978 O   0  0  0  0  0  0  0  0  0  0  0  0
  143.3396  138.2125  153.9801 N   0  0  0  0  0  0  0  0  0  0  0  0
  142.1120  137.5068  154.0889 C   0  0  0  0  0  0  0  0  0  0  0  0
  140.9562  137.9528  153.3937 C   0  0  0  0  0  0  0  0  0  0  0  0
  140.0092  137.0328  153.7459 C   0  0  0  0  0  0  0  0  0  0  0  0
  138.5702  136.8720  153.3940 C   0  0  0  0  0  0  0  0  0  0  0  0
  140.5409  136.1028  154.5845 O   0  0  0  0  0  0  0  0  0  0  0  0
  141.8893  136.4113  154.7997 N   0  0  0  0  0  0  0  0  0  0  0  0
  149.0836  139.7380  155.1118 N   0  3  0  0  0  0  0  0  0  0  0  0
  149.7863  138.9174  154.0828 C   0  0  0  0  0  0  0  0  0  0  0  0
  151.2068  138.5553  154.5516 C   0  0  0  0  0  0  0  0  0  0  0  0
  151.9419  139.7315  154.8560 O   0  0  0  0  0  0  0  0  0  0  0  0
  151.3304  140.4708  155.9029 C   0  0  0  0  0  0  0  0  0  0  0  0
  149.9349  140.9221  155.4492 C   0  0  0  0  0  0  0  0  0  0  0  0
  146.8567  142.2448  157.5903 H   0  0  0  0  0  0  0  0  0  0  0  0
  147.2025  142.7421  155.9459 H   0  0  0  0  0  0  0  0  0  0  0  0
  148.4616  142.0008  156.9358 H   0  0  0  0  0  0  0  0  0  0  0  0
  147.1850  139.8770  157.0231 H   0  0  0  0  0  0  0  0  0  0  0  0
  145.8720  140.5784  156.1390 H   0  0  0  0  0  0  0  0  0  0  0  0
  146.3270  141.1742  153.4849 H   0  0  0  0  0  0  0  0  0  0  0  0
  147.9084  140.8095  152.8376 H   0  0  0  0  0  0  0  0  0  0  0  0
  147.7118  142.0475  154.0683 H   0  0  0  0  0  0  0  0  0  0  0  0
  147.4302  138.2933  153.5447 H   0  0  0  0  0  0  0  0  0  0  0  0
  147.1055  137.8869  155.1949 H   0  0  0  0  0  0  0  0  0  0  0  0
  143.3182  139.0338  153.3945 H   0  0  0  0  0  0  0  0  0  0  0  0
  140.8389  138.8072  152.7439 H   0  0  0  0  0  0  0  0  0  0  0  0
  138.2740  137.5887  152.6279 H   0  0  0  0  0  0  0  0  0  0  0  0
  137.9394  137.0316  154.2686 H   0  0  0  0  0  0  0  0  0  0  0  0
  138.3748  135.8697  153.0127 H   0  0  0  0  0  0  0  0  0  0  0  0
  149.2771  137.9748  153.8932 H   0  0  0  0  0  0  0  0  0  0  0  0
  149.8253  139.4626  153.1390 H   0  0  0  0  0  0  0  0  0  0  0  0
  151.1707  137.9014  155.4246 H   0  0  0  0  0  0  0  0  0  0  0  0
  151.7301  138.0069  153.7681 H   0  0  0  0  0  0  0  0  0  0  0  0
  151.2739  139.8722  156.8139 H   0  0  0  0  0  0  0  0  0  0  0  0
  151.9508  141.3384  156.1284 H   0  0  0  0  0  0  0  0  0  0  0  0
  150.0404  141.5710  154.5792 H   0  0  0  0  0  0  0  0  0  0  0  0
  149.4939  141.5248  156.2424 H   0  0  0  0  0  0  0  0  0  0  0  0
  149.0840  139.1613  155.9428 H   0  0  0  0  0  0  0  0  0  0  0  0
  1  2  1  0  0  0  0
  1 22  1  0  0  0  0
  1 23  1  0  0  0  0
  1 24  1  0  0  0  0
  2  3  1  0  0  0  0
  2 25  1  0  0  0  0
  2 26  1  0  0  0  0
  3  4  1  0  0  0  0
  3  5  1  0  0  0  0
  3 16  1  0  0  0  0
  4 27  1  0  0  0  0
  4 28  1  0  0  0  0
  4 29  1  0  0  0  0
  5  6  1  0  0  0  0
  5 30  1  0  0  0  0
  5 31  1  0  0  0  0
  6  7  1  0  0  0  0
  7  8  2  0  0  0  0
  7  9  1  0  0  0  0
  9 10  1  0  0  0  0
  9 32  1  0  0  0  0
 10 15  2  0  0  0  0
 10 11  1  0  0  0  0
 11 12  2  0  0  0  0
 11 33  1  0  0  0  0
 12 13  1  0  0  0  0
 12 14  1  0  0  0  0
 13 34  1  0  0  0  0
 13 35  1  0  0  0  0
 13 36  1  0  0  0  0
 14 15  1  0  0  0  0
 16 21  1  0  0  0  0
 16 17  1  0  0  0  0
 16 45  1  0  0  0  0
 17 18  1  0  0  0  0
 17 37  1  0  0  0  0
 17 38  1  0  0  0  0
 18 19  1  0  0  0  0
 18 39  1  0  0  0  0
 18 40  1  0  0  0  0
 19 20  1  0  0  0  0
 20 21  1  0  0  0  0
 20 41  1  0  0  0  0
 20 42  1  0  0  0  0
 21 43  1  0  0  0  0
 21 44  1  0  0  0  0
M  CHG  1   6  -1
M  CHG  1  16   1
M  END
> <s_m_source_file>
AV-unprocessed.smi

> <i_m_source_file_index>
2060

> <i_lp_mmshare_version>
43012

> <i_f3d_flags>
0

> <s_epik_input>
W0NIMl0xW0NIMl1PW0NIMl1bQ0gyXU4xW0NAQF0oW0NIM10pKFtDSDJdW0NIM10pW0NIMl1bTkhdQyg9TylbTkhdYzJbY0hdYyhbQ0gzXSlvbjI=

> <s_epik_cmdline>
J2VwaWtfcHl0aG9uJywgJy1waCcsICc3LjAnLCAnLXRuJywgJzgnLCAnLW1hJywgJzIwMCcsICctbWV0YWxfYmluZGluZycsICctaW1hZScsICc8aW5maWxlLm1hZT4nLCAnLW9tYWUnLCAnPG91dGZpbGUubWFlPic=

> <r_epik_Ionization_Penalty>
6.79469

> <r_epik_Ionization_Penalty_Charging>
6.79469

> <r_epik_Ionization_Penalty_Neutral>
5.68576e-06

> <r_epik_State_Penalty>
7.33145

> <r_epik_Charging_Adjusted_Penalty>
14.1261

> <i_epik_Tot_Q>
0

> <i_epik_Tot_abs_Q>
2

> <r_epik_Metal_State_Penalty>
3.24803

> <b_epik_Metal_Only>
1

> <s_lp_Force_Field>
OPLS_2005

> <r_lp_Energy>
28.6548

> <b_lp_Chiralities_Consistent>
1

> <s_lp_Variant>
AV-unprocessed.smi:2060-6

> <Gold.Version>
5.8.1

> <Gold.Id.Protein>
6NUR|6NUR_protein|mol2

> <Gold.PLP.Fitness>
37.8961

> <Gold.PLP.PLP>
-29.8621

> <Gold.PLP.part.hbond>
-3.1244

> <Gold.PLP.part.metal>
0.0000

> <Gold.PLP.part.buried>
-5.4168

> <Gold.PLP.part.nonpolar>
-22.7255

> <Gold.PLP.part.repulsive>
1.1451

> <Gold.PLP.ligand.clash>
0.0000

> <Gold.PLP.ligand.torsion>
0.3852

> <Gold.PLP.Chemscore.Hbond>
2.8240

> <Gold.PLP.Chemscore.CHOScore>
0.0000

> <Gold.PLP.Chemscore.Metal>
0.0000

> <Gold.Chemscore.Hbonds>
donor molecule, donor type, donor heavy atom, donor atom, acceptor molecule, acceptor atom, score
      L1  H     9    32       P1 10175  1.00
      P1  H  7989  7998       L1    19  0.93
      P1  H 11000 11005       L1    14  0.91

> <Gold.PLP.Chemscore.Internal.Correction>
0.3324

> <Gold.Rescore>
     Score         DG    S(hbond)    S(metal)    S(lipo)     H(rot)  DE(clash)    DE(int)     intcor
     12.84     -15.29       1.87        0.00      68.20       1.73       0.06       2.39       ----

> <Gold.Chemscore.Fitness>
12.8369

> <Gold.Chemscore.DG>
-15.2901

> <Gold.Chemscore.ZeroCoef>
-5.4800

> <Gold.Chemscore.Hbond>
1.8735

> <Gold.Chemscore.Metal>
0.0000

> <Gold.Chemscore.Lipo>
68.2043

> <Gold.Chemscore.Internal_Hbond>
0.0000

> <Gold.Chemscore.DEClash>
0.0639

> <Gold.Chemscore.DEInternal>
2.3894

> <Gold.Chemscore.Rot>
1.7294

> <Gold.Chemscore.Internal.Correction>
   9.000000E+99

> <Gold.Chemscore.Hbonds>
donor molecule, donor type, donor heavy atom, donor atom, acceptor molecule, acceptor atom, score
      L1  H     9    32       P1 10175  1.00
      P1  H  7989  7998       L1    19  0.13
      P1  H 11000 11005       L1    14  0.45

> <Gold.Chemscore.Hbond.Weighted>
-6.2575

> <Gold.Chemscore.Metal.Weighted>
-0.0000

> <Gold.Chemscore.Lipo.Weighted>
-7.9799

> <Gold.Chemscore.Internal_Hbond.Weighted>
0.0000

> <Gold.Chemscore.DEClash.Weighted>
0.0639

> <Gold.Chemscore.DEInternal.Weighted>
2.3894

> <Gold.Chemscore.Rot.Weighted>
4.4272

> <Gold.Chemscore.Internal.Correction.Weighted>
   9.000000E+99

> <Gold.Protein.RotatedTorsions>
[ 6907 6896 6895 6894 ] final -149.89 input  -60.11 | X-H torsion
[ 7974 7965 7964 7962 ] final -149.14 input  175.53 | X-H torsion
[ 8008 7997 7996 7995 ] final -129.18 input   59.86 | X-H torsion
[ 10167 10162 10161 10158 ] final   24.29 input  -65.29 | X-H torsion
[ 10718 10713 10712 10709 ] final -126.68 input   66.30 | X-H torsion
[ 10763 10752 10751 10750 ] final  -56.83 input  -60.55 | X-H torsion
[ 11005 11000 10999 10996 ] final   53.51 input  -57.11 | X-H torsion

> <Gold.Protein.ActiveResidues>
 VAL166  LYS551  ARG553  GLY616  TRP617  ASP618  TYR619  PRO620  LYS621  CYS622 
 ASP623  PHE694  ASN695  SER759  ASP760  ASP761  ALA762  ILE779  LEU786  VAL792 
 PHE793  MET794  SER795  GLU796  ALA797  LYS798  CYS799  TRP800  GLU811  SER814 

> <Gold.Protein.RotatedAtoms>
  151.1906  133.4669  159.2594 H   0  0  0  0  0  0  0  0  0  0  0  0  # atno 6907 bound_to 6896
  151.1167  135.0057  159.8530 H   0  0  0  0  0  0  0  0  0  0  0  0  # atno 6908 bound_to 6896
  152.5454  134.1821  159.8692 H   0  0  0  0  0  0  0  0  0  0  0  0  # atno 6909 bound_to 6896
  144.7985  140.5103  143.5723 H   0  0  0  0  0  0  0  0  0  0  0  0  # atno 7974 bound_to 7965
  155.2750  140.0441  157.3010 H   0  0  0  0  0  0  0  0  0  0  0  0  # atno 8008 bound_to 7997
  154.5631  140.2352  155.8274 H   0  0  0  0  0  0  0  0  0  0  0  0  # atno 8009 bound_to 7997
  156.2063  140.3011  155.9642 H   0  0  0  0  0  0  0  0  0  0  0  0  # atno 8010 bound_to 7997
  140.5200  144.0019  150.6412 H   0  0  0  0  0  0  0  0  0  0  0  0  # atno 10167 bound_to 10162
  156.1788  130.6717  151.0277 H   0  0  0  0  0  0  0  0  0  0  0  0  # atno 10718 bound_to 10713
  154.2129  135.6391  153.5120 H   0  0  0  0  0  0  0  0  0  0  0  0  # atno 10763 bound_to 10752
  152.9986  135.5478  154.6196 H   0  0  0  0  0  0  0  0  0  0  0  0  # atno 10764 bound_to 10752
  154.5637  135.2911  155.0868 H   0  0  0  0  0  0  0  0  0  0  0  0  # atno 10765 bound_to 10752
  140.0761  134.5402  155.8995 H   0  0  0  0  0  0  0  0  0  0  0  0  # atno 11005 bound_to 11000
  145.5611  139.1479  143.3340 LP  0  0  0  0  0  0  0  0  0  0  0  0  # atno 17320 bound_to 7965
  146.2261  140.5747  142.8996 LP  0  0  0  0  0  0  0  0  0  0  0  0  # atno 17321 bound_to 7965
  140.3365  143.3045  152.0633 LP  0  0  0  0  0  0  0  0  0  0  0  0  # atno 17342 bound_to 10162
  139.4920  144.6473  151.6752 LP  0  0  0  0  0  0  0  0  0  0  0  0  # atno 17343 bound_to 10162
  157.6854  131.0826  150.7258 LP  0  0  0  0  0  0  0  0  0  0  0  0  # atno 17370 bound_to 10713
  156.7315  130.4711  149.5498 LP  0  0  0  0  0  0  0  0  0  0  0  0  # atno 17371 bound_to 10713
  141.2030  133.6629  156.6038 LP  0  0  0  0  0  0  0  0  0  0  0  0  # atno 17394 bound_to 11000
  140.3555  134.7732  157.4497 LP  0  0  0  0  0  0  0  0  0  0  0  0  # atno 17395 bound_to 11000

$$$$
