AV-unprocessed.smi:2922|AV-procd|sdf|11201|dock5
  -GOLD-   2272016 93D 1   1.00000     0.00000
 Structure written by MMmdl.
 30 31  0  0  0  0  0  0  0  0  1 V2000
  150.6742  144.8086  157.9806 N   0  0  0  0  0  0  0  0  0  0  0  0
  151.5609  143.8516  158.2703 C   0  0  0  0  0  0  0  0  0  0  0  0
  151.5768  142.7793  157.6690 O   0  0  0  0  0  0  0  0  0  0  0  0
  152.5557  144.1256  159.4124 C   0  0  1  0  0  0  0  0  0  0  0  0
  151.8929  144.2845  160.7958 C   0  0  0  0  0  0  0  0  0  0  0  0
  152.5389  143.2002  161.6420 C   0  0  0  0  0  0  0  0  0  0  0  0
  152.9755  142.1760  160.6016 C   0  0  2  0  0  0  0  0  0  0  0  0
  154.0827  141.2280  161.0881 C   0  0  0  0  0  0  0  0  0  0  0  0
  154.8042  140.6177  159.9795 N   0  0  0  0  0  0  0  0  0  0  0  0
  154.9866  139.2560  159.8181 C   0  0  0  0  0  0  0  0  0  0  0  0
  155.8072  138.8321  158.8488 N   0  0  0  0  0  0  0  0  0  0  0  0
  155.9580  137.4970  158.7092 C   0  0  0  0  0  0  0  0  0  0  0  0
  155.2845  136.5881  159.5490 C   0  0  0  0  0  0  0  0  0  0  0  0
  155.4702  134.8819  159.3748 Cl  0  0  0  0  0  0  0  0  0  0  0  0
  154.4509  137.1464  160.5385 C   0  0  0  0  0  0  0  0  0  0  0  0
  154.3054  138.4837  160.6691 N   0  0  0  0  0  0  0  0  0  0  0  0
  153.4456  143.0190  159.5597 O   0  0  0  0  0  0  0  0  0  0  0  0
  150.0070  144.6687  157.2356 H   0  0  0  0  0  0  0  0  0  0  0  0
  150.6794  145.6699  158.5079 H   0  0  0  0  0  0  0  0  0  0  0  0
  153.1412  145.0096  159.1580 H   0  0  0  0  0  0  0  0  0  0  0  0
  152.0614  145.2754  161.2186 H   0  0  0  0  0  0  0  0  0  0  0  0
  150.8143  144.1253  160.7578 H   0  0  0  0  0  0  0  0  0  0  0  0
  153.4101  143.6055  162.1590 H   0  0  0  0  0  0  0  0  0  0  0  0
  151.8630  142.7850  162.3901 H   0  0  0  0  0  0  0  0  0  0  0  0
  152.1075  141.6107  160.2560 H   0  0  0  0  0  0  0  0  0  0  0  0
  154.7686  141.7416  161.7628 H   0  0  0  0  0  0  0  0  0  0  0  0
  153.6343  140.4178  161.6633 H   0  0  0  0  0  0  0  0  0  0  0  0
  155.3906  141.2200  159.4202 H   0  0  0  0  0  0  0  0  0  0  0  0
  156.6171  137.1554  157.9247 H   0  0  0  0  0  0  0  0  0  0  0  0
  153.8985  136.5218  161.2248 H   0  0  0  0  0  0  0  0  0  0  0  0
  1  2  1  0  0  0  0
  1 18  1  0  0  0  0
  1 19  1  0  0  0  0
  2  3  2  0  0  0  0
  2  4  1  0  0  0  0
  4 17  1  0  0  0  0
  4  5  1  0  0  0  0
  4 20  1  0  0  0  0
  5  6  1  0  0  0  0
  5 21  1  0  0  0  0
  5 22  1  0  0  0  0
  6  7  1  0  0  0  0
  6 23  1  0  0  0  0
  6 24  1  0  0  0  0
  7  8  1  0  0  0  0
  7 17  1  0  0  0  0
  7 25  1  0  0  0  0
  8  9  1  0  0  0  0
  8 26  1  0  0  0  0
  8 27  1  0  0  0  0
  9 10  1  0  0  0  0
  9 28  1  0  0  0  0
 10 16  1  0  0  0  0
 10 11  2  0  0  0  0
 11 12  1  0  0  0  0
 12 13  2  0  0  0  0
 12 29  1  0  0  0  0
 13 14  1  0  0  0  0
 13 15  1  0  0  0  0
 15 16  2  0  0  0  0
 15 30  1  0  0  0  0
M  END
> <s_m_source_file>
AV-unprocessed.smi

> <i_m_source_file_index>
2922

> <i_lp_mmshare_version>
43012

> <i_f3d_flags>
0

> <s_epik_input>
W05IMl1DKD1PKVtDQEBIXTFbQ0gyXVtDSDJdW0NASF0oTzEpW0NIMl1bTkhdYzJuW2NIXWMoQ2wpW2NIXW4y

> <s_epik_cmdline>
J2VwaWtfcHl0aG9uJywgJy1waCcsICc3LjAnLCAnLXRuJywgJzgnLCAnLW1hJywgJzIwMCcsICctbWV0YWxfYmluZGluZycsICctaW1hZScsICc8aW5maWxlLm1hZT4nLCAnLW9tYWUnLCAnPG91dGZpbGUubWFlPic=

> <r_lp_tautomer_probability>
1

> <r_epik_Ionization_Penalty>
6.13883e-06

> <r_epik_Ionization_Penalty_Charging>
0

> <r_epik_Ionization_Penalty_Neutral>
6.13883e-06

> <r_epik_State_Penalty>
-0

> <r_epik_Charging_Adjusted_Penalty>
0

> <i_epik_Tot_Q>
0

> <i_epik_Tot_abs_Q>
0

> <r_epik_Metal_State_Penalty>
-0

> <b_epik_Metal_Only>
0

> <s_lp_Force_Field>
OPLS_2005

> <r_lp_Energy>
9.79995

> <b_lp_Chiralities_Consistent>
1

> <s_lp_Variant>
AV-unprocessed.smi:2922-4

> <Gold.Version>
5.8.1

> <Gold.Id.Protein>
6NUR|6NUR_protein|mol2

> <Gold.PLP.Fitness>
37.0537

> <Gold.PLP.PLP>
-31.4632

> <Gold.PLP.part.hbond>
-2.8802

> <Gold.PLP.part.metal>
0.0000

> <Gold.PLP.part.buried>
-4.5057

> <Gold.PLP.part.nonpolar>
-24.5027

> <Gold.PLP.part.repulsive>
0.2917

> <Gold.PLP.ligand.clash>
0.0000

> <Gold.PLP.ligand.torsion>
0.2188

> <Gold.PLP.Chemscore.Hbond>
2.0000

> <Gold.PLP.Chemscore.CHOScore>
0.0000

> <Gold.PLP.Chemscore.Metal>
0.0000

> <Gold.Chemscore.Hbonds>
donor molecule, donor type, donor heavy atom, donor atom, acceptor molecule, acceptor atom, score
      L1  H     1    18       P1  8028  0.95
      P1  H  7997  8009       L1    11  1.00

> <Gold.PLP.Chemscore.Internal.Correction>
0.0281

> <Gold.Rescore>
     Score         DG    S(hbond)    S(metal)    S(lipo)     H(rot)  DE(clash)    DE(int)     intcor
     13.67     -14.52       1.64        0.00      72.39       1.91       0.65       0.20       ----

> <Gold.Chemscore.Fitness>
13.6704

> <Gold.Chemscore.DG>
-14.5199

> <Gold.Chemscore.ZeroCoef>
-5.4800

> <Gold.Chemscore.Hbond>
1.6380

> <Gold.Chemscore.Metal>
0.0000

> <Gold.Chemscore.Lipo>
72.3861

> <Gold.Chemscore.Internal_Hbond>
0.0000

> <Gold.Chemscore.DEClash>
0.6515

> <Gold.Chemscore.DEInternal>
0.1980

> <Gold.Chemscore.Rot>
1.9142

> <Gold.Chemscore.Internal.Correction>
   9.000000E+99

> <Gold.Chemscore.Hbonds>
donor molecule, donor type, donor heavy atom, donor atom, acceptor molecule, acceptor atom, score
      L1  H     1    18       P1  8028  0.22
      P1  H  7997  8009       L1    11  0.44

> <Gold.Chemscore.Hbond.Weighted>
-5.4709

> <Gold.Chemscore.Metal.Weighted>
-0.0000

> <Gold.Chemscore.Lipo.Weighted>
-8.4692

> <Gold.Chemscore.Internal_Hbond.Weighted>
0.0000

> <Gold.Chemscore.DEClash.Weighted>
0.6515

> <Gold.Chemscore.DEInternal.Weighted>
0.1980

> <Gold.Chemscore.Rot.Weighted>
4.9002

> <Gold.Chemscore.Internal.Correction.Weighted>
   9.000000E+99

> <Gold.Protein.RotatedTorsions>
[ 6907 6896 6895 6894 ] final -161.00 input  -60.11 | X-H torsion
[ 7974 7965 7964 7962 ] final   74.34 input  175.53 | X-H torsion
[ 8008 7997 7996 7995 ] final  102.94 input   59.86 | X-H torsion
[ 10167 10162 10161 10158 ] final   78.56 input  -65.29 | X-H torsion
[ 10718 10713 10712 10709 ] final -136.17 input   66.30 | X-H torsion
[ 10763 10752 10751 10750 ] final -112.30 input  -60.55 | X-H torsion
[ 11005 11000 10999 10996 ] final   25.13 input  -57.11 | X-H torsion

> <Gold.Protein.ActiveResidues>
 VAL166  LYS551  ARG553  GLY616  TRP617  ASP618  TYR619  PRO620  LYS621  CYS622 
 ASP623  PHE694  ASN695  SER759  ASP760  ASP761  ALA762  ILE779  LEU786  VAL792 
 PHE793  MET794  SER795  GLU796  ALA797  LYS798  CYS799  TRP800  GLU811  SER814 

> <Gold.Protein.RotatedAtoms>
  151.3578  133.3901  159.2686 H   0  0  0  0  0  0  0  0  0  0  0  0  # atno 6907 bound_to 6896
  150.9750  134.9117  159.7821 H   0  0  0  0  0  0  0  0  0  0  0  0  # atno 6908 bound_to 6896
  152.5197  134.3541  159.9314 H   0  0  0  0  0  0  0  0  0  0  0  0  # atno 6909 bound_to 6896
  145.7294  139.2678  143.1550 H   0  0  0  0  0  0  0  0  0  0  0  0  # atno 7974 bound_to 7965
  156.1439  140.3173  155.8539 H   0  0  0  0  0  0  0  0  0  0  0  0  # atno 8008 bound_to 7997
  155.4101  140.0505  157.3049 H   0  0  0  0  0  0  0  0  0  0  0  0  # atno 8009 bound_to 7997
  154.5000  140.2125  155.9379 H   0  0  0  0  0  0  0  0  0  0  0  0  # atno 8010 bound_to 7997
  139.9697  144.5903  150.7997 H   0  0  0  0  0  0  0  0  0  0  0  0  # atno 10167 bound_to 10162
  156.2741  130.7282  151.1259 H   0  0  0  0  0  0  0  0  0  0  0  0  # atno 10718 bound_to 10713
  154.8343  135.4496  154.1172 H   0  0  0  0  0  0  0  0  0  0  0  0  # atno 10763 bound_to 10752
  153.2418  135.6917  153.7781 H   0  0  0  0  0  0  0  0  0  0  0  0  # atno 10764 bound_to 10752
  153.7125  135.3354  155.3225 H   0  0  0  0  0  0  0  0  0  0  0  0  # atno 10765 bound_to 10752
  140.3512  134.2227  155.7680 H   0  0  0  0  0  0  0  0  0  0  0  0  # atno 11005 bound_to 11000
  146.0551  140.8029  142.9762 LP  0  0  0  0  0  0  0  0  0  0  0  0  # atno 17320 bound_to 7965
  144.6896  140.3112  143.7248 LP  0  0  0  0  0  0  0  0  0  0  0  0  # atno 17321 bound_to 7965
  140.7526  143.2993  151.3122 LP  0  0  0  0  0  0  0  0  0  0  0  0  # atno 17342 bound_to 10162
  139.6491  144.0396  152.2613 LP  0  0  0  0  0  0  0  0  0  0  0  0  # atno 17343 bound_to 10162
  157.7293  131.0625  150.5778 LP  0  0  0  0  0  0  0  0  0  0  0  0  # atno 17370 bound_to 10713
  156.5877  130.4321  149.5950 LP  0  0  0  0  0  0  0  0  0  0  0  0  # atno 17371 bound_to 10713
  141.2011  133.7970  157.0454 LP  0  0  0  0  0  0  0  0  0  0  0  0  # atno 17394 bound_to 11000
  140.0702  134.9706  157.1454 LP  0  0  0  0  0  0  0  0  0  0  0  0  # atno 17395 bound_to 11000

$$$$
