AV-unprocessed.smi:951|AV-procd|sdf|4252|dock5
  -GOLD-   22720 2163D 1   1.00000     0.00000
 Structure written by MMmdl.
 51 53  0  0  0  0  0  0  0  0  1 V2000
  151.1117  141.0527  155.8945 O   0  0  0  0  0  0  0  0  0  0  0  0
  150.5247  140.0990  156.4077 C   0  0  0  0  0  0  0  0  0  0  0  0
  149.6491  139.3323  155.7426 N   0  0  0  0  0  0  0  0  0  0  0  0
  149.2672  139.5374  154.3527 C   0  0  0  0  0  0  0  0  0  0  0  0
  149.0307  141.0276  154.0708 C   0  0  0  0  0  0  0  0  0  0  0  0
  147.9140  141.6033  154.9209 C   0  0  0  0  0  0  0  0  0  0  0  0
  146.8000  142.2289  154.3209 C   0  0  0  0  0  0  0  0  0  0  0  0
  145.7885  142.7420  155.1558 C   0  0  0  0  0  0  0  0  0  0  0  0
  145.9283  142.6093  156.5508 C   0  0  0  0  0  0  0  0  0  0  0  0
  147.0780  141.9660  157.0511 C   0  0  0  0  0  0  0  0  0  0  0  0
  148.0541  141.4714  156.2595 N   0  0  0  0  0  0  0  0  0  0  0  0
  150.7898  139.7149  157.8767 C   0  0  1  0  0  0  0  0  0  0  0  0
  151.4521  138.3294  157.9374 C   0  0  0  0  0  0  0  0  0  0  0  0
  152.2998  138.3642  159.1928 C   0  0  0  0  0  0  0  0  0  0  0  0
  152.7029  139.8296  159.3449 C   0  0  0  0  0  0  0  0  0  0  0  0
  151.7096  140.6145  158.6041 N   0  0  0  0  0  0  0  0  0  0  0  0
  151.6040  141.9681  158.6608 C   0  0  0  0  0  0  0  0  0  0  0  0
  150.6617  142.5650  158.1389 O   0  0  0  0  0  0  0  0  0  0  0  0
  152.6854  142.7887  159.4074 C   0  0  0  0  0  0  0  0  0  0  0  0
  152.2349  143.1764  160.8354 C   0  0  0  0  0  0  0  0  0  0  0  0
  151.2329  144.3442  160.8597 C   0  0  0  0  0  0  0  0  0  0  0  0
  151.8024  145.5730  160.1364 C   0  0  0  0  0  0  0  0  0  0  0  0
  152.1862  145.2358  158.6886 C   0  0  0  0  0  0  0  0  0  0  0  0
  153.1573  144.0397  158.6224 C   0  0  0  0  0  0  0  0  0  0  0  0
  149.2144  138.5643  156.2333 H   0  0  0  0  0  0  0  0  0  0  0  0
  150.0545  139.1551  153.7006 H   0  0  0  0  0  0  0  0  0  0  0  0
  148.3634  138.9644  154.1388 H   0  0  0  0  0  0  0  0  0  0  0  0
  149.9445  141.5939  154.2583 H   0  0  0  0  0  0  0  0  0  0  0  0
  148.7900  141.1739  153.0169 H   0  0  0  0  0  0  0  0  0  0  0  0
  146.7193  142.3129  153.2468 H   0  0  0  0  0  0  0  0  0  0  0  0
  144.9213  143.2279  154.7339 H   0  0  0  0  0  0  0  0  0  0  0  0
  145.1724  142.9902  157.2214 H   0  0  0  0  0  0  0  0  0  0  0  0
  147.2176  141.8452  158.1152 H   0  0  0  0  0  0  0  0  0  0  0  0
  149.8494  139.6953  158.4309 H   0  0  0  0  0  0  0  0  0  0  0  0
  150.7229  137.5186  157.9521 H   0  0  0  0  0  0  0  0  0  0  0  0
  152.1067  138.1659  157.0791 H   0  0  0  0  0  0  0  0  0  0  0  0
  151.6879  138.0677  160.0458 H   0  0  0  0  0  0  0  0  0  0  0  0
  153.1564  137.6909  159.1488 H   0  0  0  0  0  0  0  0  0  0  0  0
  152.7562  140.1118  160.3973 H   0  0  0  0  0  0  0  0  0  0  0  0
  153.6855  139.9858  158.8974 H   0  0  0  0  0  0  0  0  0  0  0  0
  153.5758  142.1705  159.5042 H   0  0  0  0  0  0  0  0  0  0  0  0
  151.8009  142.3147  161.3441 H   0  0  0  0  0  0  0  0  0  0  0  0
  153.1133  143.4524  161.4200 H   0  0  0  0  0  0  0  0  0  0  0  0
  150.2931  144.0443  160.3951 H   0  0  0  0  0  0  0  0  0  0  0  0
  150.9942  144.6025  161.8918 H   0  0  0  0  0  0  0  0  0  0  0  0
  151.0731  146.3834  160.1480 H   0  0  0  0  0  0  0  0  0  0  0  0
  152.6796  145.9385  160.6718 H   0  0  0  0  0  0  0  0  0  0  0  0
  151.2859  145.0312  158.1102 H   0  0  0  0  0  0  0  0  0  0  0  0
  152.6475  146.1055  158.2203 H   0  0  0  0  0  0  0  0  0  0  0  0
  154.1205  144.3563  159.0243 H   0  0  0  0  0  0  0  0  0  0  0  0
  153.3462  143.7803  157.5796 H   0  0  0  0  0  0  0  0  0  0  0  0
  1  2  2  0  0  0  0
  2  3  1  0  0  0  0
  2 12  1  0  0  0  0
  3  4  1  0  0  0  0
  3 25  1  0  0  0  0
  4  5  1  0  0  0  0
  4 26  1  0  0  0  0
  4 27  1  0  0  0  0
  5  6  1  0  0  0  0
  5 28  1  0  0  0  0
  5 29  1  0  0  0  0
  6 11  1  0  0  0  0
  6  7  2  0  0  0  0
  7  8  1  0  0  0  0
  7 30  1  0  0  0  0
  8  9  2  0  0  0  0
  8 31  1  0  0  0  0
  9 10  1  0  0  0  0
  9 32  1  0  0  0  0
 10 11  2  0  0  0  0
 10 33  1  0  0  0  0
 12 16  1  0  0  0  0
 12 13  1  0  0  0  0
 12 34  1  0  0  0  0
 13 14  1  0  0  0  0
 13 35  1  0  0  0  0
 13 36  1  0  0  0  0
 14 15  1  0  0  0  0
 14 37  1  0  0  0  0
 14 38  1  0  0  0  0
 15 16  1  0  0  0  0
 15 39  1  0  0  0  0
 15 40  1  0  0  0  0
 16 17  1  0  0  0  0
 17 18  2  0  0  0  0
 17 19  1  0  0  0  0
 19 24  1  0  0  0  0
 19 20  1  0  0  0  0
 19 41  1  0  0  0  0
 20 21  1  0  0  0  0
 20 42  1  0  0  0  0
 20 43  1  0  0  0  0
 21 22  1  0  0  0  0
 21 44  1  0  0  0  0
 21 45  1  0  0  0  0
 22 23  1  0  0  0  0
 22 46  1  0  0  0  0
 22 47  1  0  0  0  0
 23 24  1  0  0  0  0
 23 48  1  0  0  0  0
 23 49  1  0  0  0  0
 24 50  1  0  0  0  0
 24 51  1  0  0  0  0
M  END
> <s_m_source_file>
AV-unprocessed.smi

> <i_m_source_file_index>
951

> <i_lp_mmshare_version>
43012

> <i_f3d_flags>
0

> <s_epik_input>
bjFbY0hdW2NIXVtjSF1bY0hdYzFbQ0gyXVtDSDJdW05IXUMoPU8pW0NAQEhdMltDSDJdW0NIMl1bQ0gyXU4yQyg9TylbQ0hdM1tDSDJdW0NIMl1bQ0gyXVtDSDJdW0NIMl0z

> <s_epik_cmdline>
J2VwaWtfcHl0aG9uJywgJy1waCcsICc3LjAnLCAnLXRuJywgJzgnLCAnLW1hJywgJzIwMCcsICctbWV0YWxfYmluZGluZycsICctaW1hZScsICc8aW5maWxlLm1hZT4nLCAnLW9tYWUnLCAnPG91dGZpbGUubWFlPic=

> <r_epik_Ionization_Penalty>
0.0265505

> <r_epik_Ionization_Penalty_Charging>
0

> <r_epik_Ionization_Penalty_Neutral>
0.0265505

> <r_epik_State_Penalty>
0.02168

> <r_epik_Charging_Adjusted_Penalty>
0.02168

> <i_epik_Tot_Q>
0

> <i_epik_Tot_abs_Q>
0

> <r_epik_Metal_State_Penalty>
0.020746

> <b_epik_Metal_Only>
0

> <s_lp_Force_Field>
OPLS_2005

> <r_lp_Energy>
20.7073

> <b_lp_Chiralities_Consistent>
1

> <s_lp_Variant>
AV-unprocessed.smi:951-2

> <Gold.Version>
5.8.1

> <Gold.Id.Protein>
6NUR|6NUR_protein|mol2

> <Gold.PLP.Fitness>
48.9263

> <Gold.PLP.PLP>
-50.1286

> <Gold.PLP.part.hbond>
-0.2874

> <Gold.PLP.part.metal>
0.0000

> <Gold.PLP.part.buried>
-6.4718

> <Gold.PLP.part.nonpolar>
-43.0840

> <Gold.PLP.part.repulsive>
0.2866

> <Gold.PLP.ligand.clash>
0.0000

> <Gold.PLP.ligand.torsion>
0.6481

> <Gold.PLP.Chemscore.Hbond>
0.0000

> <Gold.PLP.Chemscore.CHOScore>
0.0000

> <Gold.PLP.Chemscore.Metal>
0.0000

> <Gold.PLP.Chemscore.Internal.Correction>
0.0940

> <Gold.Rescore>
     Score         DG    S(hbond)    S(metal)    S(lipo)     H(rot)  DE(clash)    DE(int)     intcor
     10.30     -17.41       0.07        0.00     133.84       1.55       0.26       6.85       ----

> <Gold.Chemscore.Fitness>
10.2967

> <Gold.Chemscore.DG>
-17.4059

> <Gold.Chemscore.ZeroCoef>
-5.4800

> <Gold.Chemscore.Hbond>
0.0706

> <Gold.Chemscore.Metal>
0.0000

> <Gold.Chemscore.Lipo>
133.8436

> <Gold.Chemscore.Internal_Hbond>
0.0000

> <Gold.Chemscore.DEClash>
0.2619

> <Gold.Chemscore.DEInternal>
6.8473

> <Gold.Chemscore.Rot>
1.5506

> <Gold.Chemscore.Internal.Correction>
   9.000000E+99

> <Gold.Chemscore.Hbonds>
donor molecule, donor type, donor heavy atom, donor atom, acceptor molecule, acceptor atom, score
      P1  H  7989  7998       L1     1  0.03

> <Gold.Chemscore.Hbond.Weighted>
-0.2357

> <Gold.Chemscore.Metal.Weighted>
-0.0000

> <Gold.Chemscore.Lipo.Weighted>
-15.6597

> <Gold.Chemscore.Internal_Hbond.Weighted>
0.0000

> <Gold.Chemscore.DEClash.Weighted>
0.2619

> <Gold.Chemscore.DEInternal.Weighted>
6.8473

> <Gold.Chemscore.Rot.Weighted>
3.9695

> <Gold.Chemscore.Internal.Correction.Weighted>
   9.000000E+99

> <Gold.Protein.RotatedTorsions>
[ 6907 6896 6895 6894 ] final -127.49 input  -60.11 | X-H torsion
[ 7974 7965 7964 7962 ] final   -6.95 input  175.53 | X-H torsion
[ 8008 7997 7996 7995 ] final  108.96 input   59.86 | X-H torsion
[ 10167 10162 10161 10158 ] final -168.38 input  -65.29 | X-H torsion
[ 10718 10713 10712 10709 ] final  178.35 input   66.30 | X-H torsion
[ 10763 10752 10751 10750 ] final   75.58 input  -60.55 | X-H torsion
[ 11005 11000 10999 10996 ] final -124.05 input  -57.11 | X-H torsion

> <Gold.Protein.ActiveResidues>
 VAL166  LYS551  ARG553  GLY616  TRP617  ASP618  TYR619  PRO620  LYS621  CYS622 
 ASP623  PHE694  ASN695  SER759  ASP760  ASP761  ALA762  ILE779  LEU786  VAL792 
 PHE793  MET794  SER795  GLU796  ALA797  LYS798  CYS799  TRP800  GLU811  SER814 

> <Gold.Protein.RotatedAtoms>
  150.9078  133.7035  159.2862 H   0  0  0  0  0  0  0  0  0  0  0  0  # atno 6907 bound_to 6896
  151.4532  135.1030  159.9713 H   0  0  0  0  0  0  0  0  0  0  0  0  # atno 6908 bound_to 6896
  152.4913  133.8459  159.7232 H   0  0  0  0  0  0  0  0  0  0  0  0  # atno 6909 bound_to 6896
  146.2319  140.2247  142.8338 H   0  0  0  0  0  0  0  0  0  0  0  0  # atno 7974 bound_to 7965
  156.1943  140.3066  155.9396 H   0  0  0  0  0  0  0  0  0  0  0  0  # atno 8008 bound_to 7997
  155.3101  140.0450  157.3051 H   0  0  0  0  0  0  0  0  0  0  0  0  # atno 8009 bound_to 7997
  154.5490  140.2285  155.8524 H   0  0  0  0  0  0  0  0  0  0  0  0  # atno 8010 bound_to 7997
  139.5989  144.1053  152.1721 H   0  0  0  0  0  0  0  0  0  0  0  0  # atno 10167 bound_to 10162
  156.8919  130.9850  151.3048 H   0  0  0  0  0  0  0  0  0  0  0  0  # atno 10718 bound_to 10713
  153.0665  135.4983  154.8210 H   0  0  0  0  0  0  0  0  0  0  0  0  # atno 10763 bound_to 10752
  154.6960  135.2993  154.9413 H   0  0  0  0  0  0  0  0  0  0  0  0  # atno 10764 bound_to 10752
  154.0152  135.6749  153.4821 H   0  0  0  0  0  0  0  0  0  0  0  0  # atno 10765 bound_to 10752
  140.9871  134.0591  157.3698 H   0  0  0  0  0  0  0  0  0  0  0  0  # atno 11005 bound_to 11000
  144.9605  140.8270  143.5516 LP  0  0  0  0  0  0  0  0  0  0  0  0  # atno 17320 bound_to 7965
  145.2217  139.2156  143.5089 LP  0  0  0  0  0  0  0  0  0  0  0  0  # atno 17321 bound_to 7965
  140.0644  144.5830  150.7238 LP  0  0  0  0  0  0  0  0  0  0  0  0  # atno 17342 bound_to 10162
  140.7234  143.2611  151.4202 LP  0  0  0  0  0  0  0  0  0  0  0  0  # atno 17343 bound_to 10162
  157.6078  130.8560  149.8904 LP  0  0  0  0  0  0  0  0  0  0  0  0  # atno 17370 bound_to 10713
  156.0625  130.3697  150.0951 LP  0  0  0  0  0  0  0  0  0  0  0  0  # atno 17371 bound_to 10713
  139.8975  135.0151  156.7106 LP  0  0  0  0  0  0  0  0  0  0  0  0  # atno 17394 bound_to 11000
  140.7097  133.9234  155.8076 LP  0  0  0  0  0  0  0  0  0  0  0  0  # atno 17395 bound_to 11000

$$$$
