AV-unprocessed.smi:2002|AV-procd|sdf|8116|dock7
  -GOLD-   2272010353D 1   1.00000     0.00000
 Structure written by MMmdl.
 39 40  0  0  0  0  0  0  0  0  2 V2000
  144.9418  132.2372  149.7718 C   0  0  0  0  0  0  0  0  0  0  0  0
  144.1578  132.6672  151.0191 C   0  0  0  0  0  0  0  0  0  0  0  0
  143.8053  134.1067  150.9920 N   0  3  2  0  0  0  0  0  0  0  0  0
  144.8621  134.9811  150.4296 C   0  0  0  0  0  0  0  0  0  0  0  0
  145.0349  136.1505  151.4043 C   0  0  0  0  0  0  0  0  0  0  0  0
  143.7343  136.1674  152.2073 C   0  0  2  0  0  0  0  0  0  0  0  0
  143.8158  136.8699  153.5761 C   0  0  0  0  0  0  0  0  0  0  0  0
  144.5003  138.1567  153.4900 N   0  0  0  0  0  0  0  0  0  0  0  0
  145.7643  138.3932  153.8717 C   0  0  0  0  0  0  0  0  0  0  0  0
  146.5034  137.5279  154.3409 O   0  0  0  0  0  0  0  0  0  0  0  0
  146.1030  139.6766  153.6627 N   0  0  0  0  0  0  0  0  0  0  0  0
  147.3339  140.3214  153.9496 C   0  0  0  0  0  0  0  0  0  0  0  0
  148.3871  139.8080  154.7615 C   0  0  0  0  0  0  0  0  0  0  0  0
  149.3184  140.8069  154.7228 C   0  0  0  0  0  0  0  0  0  0  0  0
  150.6642  140.9627  155.3433 C   0  0  0  0  0  0  0  0  0  0  0  0
  148.8758  141.8382  153.9542 O   0  0  0  0  0  0  0  0  0  0  0  0
  147.6034  141.5197  153.4650 N   0  0  0  0  0  0  0  0  0  0  0  0
  143.4037  134.6773  152.2972 C   0  0  0  0  0  0  0  0  0  0  0  0
  145.2296  131.1879  149.8417 H   0  0  0  0  0  0  0  0  0  0  0  0
  145.8541  132.8232  149.6577 H   0  0  0  0  0  0  0  0  0  0  0  0
  144.3504  132.3536  148.8634 H   0  0  0  0  0  0  0  0  0  0  0  0
  143.2551  132.0643  151.1293 H   0  0  0  0  0  0  0  0  0  0  0  0
  144.7726  132.4749  151.8996 H   0  0  0  0  0  0  0  0  0  0  0  0
  145.8072  134.4560  150.2833 H   0  0  0  0  0  0  0  0  0  0  0  0
  144.5292  135.3384  149.4549 H   0  0  0  0  0  0  0  0  0  0  0  0
  145.8775  135.9476  152.0668 H   0  0  0  0  0  0  0  0  0  0  0  0
  145.2320  137.0944  150.8951 H   0  0  0  0  0  0  0  0  0  0  0  0
  142.9638  136.6517  151.6045 H   0  0  0  0  0  0  0  0  0  0  0  0
  142.8083  137.0577  153.9485 H   0  0  0  0  0  0  0  0  0  0  0  0
  144.2953  136.2241  154.3138 H   0  0  0  0  0  0  0  0  0  0  0  0
  143.9671  138.9291  153.1176 H   0  0  0  0  0  0  0  0  0  0  0  0
  145.3964  140.2658  153.2478 H   0  0  0  0  0  0  0  0  0  0  0  0
  148.4627  138.8716  155.2932 H   0  0  0  0  0  0  0  0  0  0  0  0
  150.8493  140.1742  156.0731 H   0  0  0  0  0  0  0  0  0  0  0  0
  150.7462  141.9216  155.8551 H   0  0  0  0  0  0  0  0  0  0  0  0
  151.4467  140.9138  154.5862 H   0  0  0  0  0  0  0  0  0  0  0  0
  142.3481  134.4986  152.5041 H   0  0  0  0  0  0  0  0  0  0  0  0
  143.9862  134.2156  153.0968 H   0  0  0  0  0  0  0  0  0  0  0  0
  143.0103  134.2075  150.3769 H   0  0  0  0  0  0  0  0  0  0  0  0
  1  2  1  0  0  0  0
  1 19  1  0  0  0  0
  1 20  1  0  0  0  0
  1 21  1  0  0  0  0
  2  3  1  0  0  0  0
  2 22  1  0  0  0  0
  2 23  1  0  0  0  0
  3 18  1  0  0  0  0
  3  4  1  0  0  0  0
  3 39  1  0  0  0  0
  4  5  1  0  0  0  0
  4 24  1  0  0  0  0
  4 25  1  0  0  0  0
  5  6  1  0  0  0  0
  5 26  1  0  0  0  0
  5 27  1  0  0  0  0
  6  7  1  0  0  0  0
  6 18  1  0  0  0  0
  6 28  1  0  0  0  0
  7  8  1  0  0  0  0
  7 29  1  0  0  0  0
  7 30  1  0  0  0  0
  8  9  1  0  0  0  0
  8 31  1  0  0  0  0
  9 10  2  0  0  0  0
  9 11  1  0  0  0  0
 11 12  1  0  0  0  0
 11 32  1  0  0  0  0
 12 17  2  0  0  0  0
 12 13  1  0  0  0  0
 13 14  2  0  0  0  0
 13 33  1  0  0  0  0
 14 15  1  0  0  0  0
 14 16  1  0  0  0  0
 15 34  1  0  0  0  0
 15 35  1  0  0  0  0
 15 36  1  0  0  0  0
 16 17  1  0  0  0  0
 18 37  1  0  0  0  0
 18 38  1  0  0  0  0
M  CHG  1   3   1
M  END
> <s_m_source_file>
AV-unprocessed.smi

> <i_m_source_file_index>
2002

> <i_lp_mmshare_version>
43012

> <i_f3d_flags>
0

> <s_epik_input>
W0NIM11bQ0gyXU4xW0NIMl1bQ0gyXVtDQEhdKFtDSDJdMSlbQ0gyXVtOSF1DKD1PKVtOSF1jMltjSF1jKFtDSDNdKW9uMg==

> <s_epik_cmdline>
J2VwaWtfcHl0aG9uJywgJy1waCcsICc3LjAnLCAnLXRuJywgJzgnLCAnLW1hJywgJzIwMCcsICctbWV0YWxfYmluZGluZycsICctaW1hZScsICc8aW5maWxlLm1hZT4nLCAnLW9tYWUnLCAnPG91dGZpbGUubWFlPic=

> <r_epik_Ionization_Penalty>
0.000632871

> <r_epik_Ionization_Penalty_Charging>
0.000610951

> <r_epik_Ionization_Penalty_Neutral>
2.19198e-05

> <r_epik_State_Penalty>
0.000385263

> <r_epik_Charging_Adjusted_Penalty>
0.000996214

> <i_epik_Tot_Q>
1

> <i_epik_Tot_abs_Q>
1

> <r_epik_Metal_State_Penalty>
-0

> <b_epik_Metal_Only>
0

> <s_lp_Force_Field>
OPLS_2005

> <r_lp_Energy>
28.1542

> <b_lp_Chiralities_Consistent>
1

> <s_lp_Variant>
AV-unprocessed.smi:2002-4

> <Gold.Version>
5.8.1

> <Gold.Id.Protein>
6NUR|6NUR_protein|mol2

> <Gold.PLP.Fitness>
43.3365

> <Gold.PLP.PLP>
-30.2656

> <Gold.PLP.part.hbond>
-4.6577

> <Gold.PLP.part.metal>
0.0000

> <Gold.PLP.part.buried>
-3.3981

> <Gold.PLP.part.nonpolar>
-22.8404

> <Gold.PLP.part.repulsive>
0.4432

> <Gold.PLP.ligand.clash>
0.0000

> <Gold.PLP.ligand.torsion>
0.4434

> <Gold.PLP.Chemscore.Hbond>
4.6480

> <Gold.PLP.Chemscore.CHOScore>
0.0000

> <Gold.PLP.Chemscore.Metal>
0.0000

> <Gold.Chemscore.Hbonds>
donor molecule, donor type, donor heavy atom, donor atom, acceptor molecule, acceptor atom, score
      L1  H     3    39       P1 10186  1.30
      L1  H     8    31       P1 10175  1.00
      L1  H    11    32       P1 10175  1.00
      P1  H  8011  8017       L1    16  0.51

> <Gold.PLP.Chemscore.Internal.Correction>
0.0138

> <Gold.Rescore>
     Score         DG    S(hbond)    S(metal)    S(lipo)     H(rot)  DE(clash)    DE(int)     intcor
     18.38     -20.40       3.43        0.00      63.00       1.52       0.43       1.59       ----

> <Gold.Chemscore.Fitness>
18.3828

> <Gold.Chemscore.DG>
-20.4046

> <Gold.Chemscore.ZeroCoef>
-5.4800

> <Gold.Chemscore.Hbond>
3.4283

> <Gold.Chemscore.Metal>
0.0000

> <Gold.Chemscore.Lipo>
63.0027

> <Gold.Chemscore.Internal_Hbond>
0.0000

> <Gold.Chemscore.DEClash>
0.4280

> <Gold.Chemscore.DEInternal>
1.5938

> <Gold.Chemscore.Rot>
1.5223

> <Gold.Chemscore.Internal.Correction>
   9.000000E+99

> <Gold.Chemscore.Hbonds>
donor molecule, donor type, donor heavy atom, donor atom, acceptor molecule, acceptor atom, score
      L1  H     3    39       P1 10186  0.57
      L1  H     8    31       P1 10175  0.99
      L1  H    11    32       P1 10175  0.95
      P1  H  8011  8017       L1    16  0.18

> <Gold.Chemscore.Hbond.Weighted>
-11.4504

> <Gold.Chemscore.Metal.Weighted>
-0.0000

> <Gold.Chemscore.Lipo.Weighted>
-7.3713

> <Gold.Chemscore.Internal_Hbond.Weighted>
0.0000

> <Gold.Chemscore.DEClash.Weighted>
0.4280

> <Gold.Chemscore.DEInternal.Weighted>
1.5938

> <Gold.Chemscore.Rot.Weighted>
3.8971

> <Gold.Chemscore.Internal.Correction.Weighted>
   9.000000E+99

> <Gold.Protein.RotatedTorsions>
[ 6907 6896 6895 6894 ] final   18.24 input  -60.11 | X-H torsion
[ 7974 7965 7964 7962 ] final -132.30 input  175.53 | X-H torsion
[ 8008 7997 7996 7995 ] final  109.08 input   59.86 | X-H torsion
[ 10167 10162 10161 10158 ] final -158.07 input  -65.29 | X-H torsion
[ 10718 10713 10712 10709 ] final -108.92 input   66.30 | X-H torsion
[ 10763 10752 10751 10750 ] final -162.09 input  -60.55 | X-H torsion
[ 11005 11000 10999 10996 ] final  154.00 input  -57.11 | X-H torsion

> <Gold.Protein.ActiveResidues>
 VAL166  LYS551  ARG553  GLY616  TRP617  ASP618  TYR619  PRO620  LYS621  CYS622 
 ASP623  PHE694  ASN695  SER759  ASP760  ASP761  ALA762  ILE779  LEU786  VAL792 
 PHE793  MET794  SER795  GLU796  ALA797  LYS798  CYS799  TRP800  GLU811  SER814 

> <Gold.Protein.RotatedAtoms>
  151.8621  135.0520  160.0470 H   0  0  0  0  0  0  0  0  0  0  0  0  # atno 6907 bound_to 6896
  152.2654  133.5330  159.5415 H   0  0  0  0  0  0  0  0  0  0  0  0  # atno 6908 bound_to 6896
  150.7132  134.0688  159.3899 H   0  0  0  0  0  0  0  0  0  0  0  0  # atno 6909 bound_to 6896
  144.9298  140.7115  143.4913 H   0  0  0  0  0  0  0  0  0  0  0  0  # atno 7974 bound_to 7965
  156.1952  140.3064  155.9413 H   0  0  0  0  0  0  0  0  0  0  0  0  # atno 8008 bound_to 7997
  155.3082  140.0450  157.3050 H   0  0  0  0  0  0  0  0  0  0  0  0  # atno 8009 bound_to 7997
  154.5501  140.2288  155.8508 H   0  0  0  0  0  0  0  0  0  0  0  0  # atno 8010 bound_to 7997
  139.6721  143.9727  152.2289 H   0  0  0  0  0  0  0  0  0  0  0  0  # atno 10167 bound_to 10162
  156.0510  130.5737  150.8027 H   0  0  0  0  0  0  0  0  0  0  0  0  # atno 10718 bound_to 10713
  154.7245  135.3033  154.8993 H   0  0  0  0  0  0  0  0  0  0  0  0  # atno 10763 bound_to 10752
  153.9855  135.6725  153.4756 H   0  0  0  0  0  0  0  0  0  0  0  0  # atno 10764 bound_to 10752
  153.0863  135.4982  154.8522 H   0  0  0  0  0  0  0  0  0  0  0  0  # atno 10765 bound_to 10752
  140.1449  134.8714  157.2380 H   0  0  0  0  0  0  0  0  0  0  0  0  # atno 11005 bound_to 11000
  145.3160  139.1803  143.4613 LP  0  0  0  0  0  0  0  0  0  0  0  0  # atno 17320 bound_to 7965
  146.3242  140.3171  142.8630 LP  0  0  0  0  0  0  0  0  0  0  0  0  # atno 17321 bound_to 7965
  139.9494  144.6630  150.8187 LP  0  0  0  0  0  0  0  0  0  0  0  0  # atno 17342 bound_to 10162
  140.7622  143.3192  151.2662 LP  0  0  0  0  0  0  0  0  0  0  0  0  # atno 17343 bound_to 10162
  157.5436  131.0941  150.9794 LP  0  0  0  0  0  0  0  0  0  0  0  0  # atno 17370 bound_to 10713
  157.0071  130.5622  149.5317 LP  0  0  0  0  0  0  0  0  0  0  0  0  # atno 17371 bound_to 10713
  140.2676  134.3498  155.7384 LP  0  0  0  0  0  0  0  0  0  0  0  0  # atno 17394 bound_to 11000
  141.2191  133.7405  156.9174 LP  0  0  0  0  0  0  0  0  0  0  0  0  # atno 17395 bound_to 11000

$$$$
