AV-unprocessed.smi:2097|AV-procd|sdf|8563|dock1
  -GOLD-   2272011293D 1   1.00000     0.00000
 Structure written by MMmdl.
 41 42  0  0  0  0  0  0  0  0  1 V2000
  146.2549  139.2418  151.2946 C   0  0  0  0  0  0  0  0  0  0  0  0
  147.0150  138.4243  152.3496 C   0  0  2  0  0  0  0  0  0  0  0  0
  146.1394  137.3963  152.8071 O   0  0  0  0  0  0  0  0  0  0  0  0
  145.7758  136.4198  151.8360 C   0  0  0  0  0  0  0  0  0  0  0  0
  144.6679  135.5255  152.4054 C   0  0  0  0  0  0  0  0  0  0  0  0
  143.6400  136.2857  152.7811 F   0  0  0  0  0  0  0  0  0  0  0  0
  144.2477  134.6655  151.4781 F   0  0  0  0  0  0  0  0  0  0  0  0
  145.1157  134.8564  153.4676 F   0  0  0  0  0  0  0  0  0  0  0  0
  147.4663  139.3077  153.5245 C   0  0  0  0  0  0  0  0  0  0  0  0
  146.6241  139.8052  154.2714 O   0  0  0  0  0  0  0  0  0  0  0  0
  148.7970  139.4443  153.6747 N   0  0  0  0  0  0  0  0  0  0  0  0
  149.5060  140.1696  154.6697 C   0  0  0  0  0  0  0  0  0  0  0  0
  150.8769  139.8956  154.8381 C   0  0  0  0  0  0  0  0  0  0  0  0
  151.6072  140.6055  155.8097 C   0  0  0  0  0  0  0  0  0  0  0  0
  150.9480  141.5845  156.5897 C   0  0  0  0  0  0  0  0  0  0  0  0
  151.6577  142.3021  157.5773 N   0  0  0  0  0  0  0  0  0  0  0  0
  152.0635  141.5294  158.7491 C   0  0  0  0  0  0  0  0  0  0  0  0
  153.0731  142.3254  159.5940 C   0  0  0  0  0  0  0  0  0  0  0  0
  152.5249  143.5950  159.9320 O   0  0  0  0  0  0  0  0  0  0  0  0
  152.2437  144.3745  158.7744 C   0  0  0  0  0  0  0  0  0  0  0  0
  151.2015  143.6520  157.9043 C   0  0  0  0  0  0  0  0  0  0  0  0
  149.6343  141.8659  156.4088 N   0  0  0  0  0  0  0  0  0  0  0  0
  148.9363  141.1813  155.4782 C   0  0  0  0  0  0  0  0  0  0  0  0
  146.8668  140.0580  150.9085 H   0  0  0  0  0  0  0  0  0  0  0  0
  145.3391  139.6721  151.7021 H   0  0  0  0  0  0  0  0  0  0  0  0
  145.9737  138.6136  150.4492 H   0  0  0  0  0  0  0  0  0  0  0  0
  147.8843  137.9709  151.8692 H   0  0  0  0  0  0  0  0  0  0  0  0
  145.4226  136.9108  150.9283 H   0  0  0  0  0  0  0  0  0  0  0  0
  146.6327  135.8037  151.5614 H   0  0  0  0  0  0  0  0  0  0  0  0
  149.3695  138.9103  153.0371 H   0  0  0  0  0  0  0  0  0  0  0  0
  151.3672  139.1465  154.2336 H   0  0  0  0  0  0  0  0  0  0  0  0
  152.6600  140.4013  155.9348 H   0  0  0  0  0  0  0  0  0  0  0  0
  151.1777  141.3023  159.3436 H   0  0  0  0  0  0  0  0  0  0  0  0
  152.5102  140.5762  158.4705 H   0  0  0  0  0  0  0  0  0  0  0  0
  153.3040  141.7832  160.5109 H   0  0  0  0  0  0  0  0  0  0  0  0
  154.0136  142.4549  159.0558 H   0  0  0  0  0  0  0  0  0  0  0  0
  151.8632  145.3477  159.0847 H   0  0  0  0  0  0  0  0  0  0  0  0
  153.1615  144.5557  158.2126 H   0  0  0  0  0  0  0  0  0  0  0  0
  151.0338  144.2258  156.9920 H   0  0  0  0  0  0  0  0  0  0  0  0
  150.2494  143.5936  158.4339 H   0  0  0  0  0  0  0  0  0  0  0  0
  147.9039  141.4788  155.3802 H   0  0  0  0  0  0  0  0  0  0  0  0
  1  2  1  0  0  0  0
  1 24  1  0  0  0  0
  1 25  1  0  0  0  0
  1 26  1  0  0  0  0
  2  3  1  0  0  0  0
  2  9  1  0  0  0  0
  2 27  1  0  0  0  0
  3  4  1  0  0  0  0
  4  5  1  0  0  0  0
  4 28  1  0  0  0  0
  4 29  1  0  0  0  0
  5  6  1  0  0  0  0
  5  7  1  0  0  0  0
  5  8  1  0  0  0  0
  9 10  2  0  0  0  0
  9 11  1  0  0  0  0
 11 12  1  0  0  0  0
 11 30  1  0  0  0  0
 12 23  1  0  0  0  0
 12 13  2  0  0  0  0
 13 14  1  0  0  0  0
 13 31  1  0  0  0  0
 14 15  2  0  0  0  0
 14 32  1  0  0  0  0
 15 16  1  0  0  0  0
 15 22  1  0  0  0  0
 16 21  1  0  0  0  0
 16 17  1  0  0  0  0
 17 18  1  0  0  0  0
 17 33  1  0  0  0  0
 17 34  1  0  0  0  0
 18 19  1  0  0  0  0
 18 35  1  0  0  0  0
 18 36  1  0  0  0  0
 19 20  1  0  0  0  0
 20 21  1  0  0  0  0
 20 37  1  0  0  0  0
 20 38  1  0  0  0  0
 21 39  1  0  0  0  0
 21 40  1  0  0  0  0
 22 23  2  0  0  0  0
 23 41  1  0  0  0  0
M  END
> <s_m_source_file>
AV-unprocessed.smi

> <i_m_source_file_index>
2097

> <i_lp_mmshare_version>
43012

> <i_f3d_flags>
0

> <s_epik_input>
RkMoRikoRilbQ0gyXU9bQ0BASF0oW0NIM10pQyg9TylbTkhdYzFbY0hdW2NIXWMobltjSF0xKU4yW0NIMl1bQ0gyXU9bQ0gyXVtDSDJdMg==

> <s_epik_cmdline>
J2VwaWtfcHl0aG9uJywgJy1waCcsICc3LjAnLCAnLXRuJywgJzgnLCAnLW1hJywgJzIwMCcsICctbWV0YWxfYmluZGluZycsICctaW1hZScsICc8aW5maWxlLm1hZT4nLCAnLW9tYWUnLCAnPG91dGZpbGUubWFlPic=

> <r_lp_tautomer_probability>
1

> <r_epik_Ionization_Penalty>
0.000443452

> <r_epik_Ionization_Penalty_Charging>
0

> <r_epik_Ionization_Penalty_Neutral>
0.000443452

> <r_epik_State_Penalty>
0.00027288

> <r_epik_Charging_Adjusted_Penalty>
0.00027288

> <i_epik_Tot_Q>
0

> <i_epik_Tot_abs_Q>
0

> <r_epik_Metal_State_Penalty>
-0

> <b_epik_Metal_Only>
0

> <s_lp_Force_Field>
OPLS_2005

> <r_lp_Energy>
25.2007

> <b_lp_Chiralities_Consistent>
1

> <s_lp_Variant>
AV-unprocessed.smi:2097-1

> <Gold.Version>
5.8.1

> <Gold.Id.Protein>
6NUR|6NUR_protein|mol2

> <Gold.PLP.Fitness>
40.9281

> <Gold.PLP.PLP>
-41.8616

> <Gold.PLP.part.hbond>
-1.0000

> <Gold.PLP.part.metal>
0.0000

> <Gold.PLP.part.buried>
0.2703

> <Gold.PLP.part.nonpolar>
-42.8795

> <Gold.PLP.part.repulsive>
2.0723

> <Gold.PLP.ligand.clash>
0.0000

> <Gold.PLP.ligand.torsion>
0.6555

> <Gold.PLP.Chemscore.Hbond>
0.0000

> <Gold.PLP.Chemscore.CHOScore>
0.0000

> <Gold.PLP.Chemscore.Metal>
0.0000

> <Gold.Chemscore.Hbonds>
donor molecule, donor type, donor heavy atom, donor atom, acceptor molecule, acceptor atom, score
      L1  H    11    30       P1  7957  0.11

> <Gold.PLP.Chemscore.Internal.Correction>
0.3775

> <Gold.Rescore>
     Score         DG    S(hbond)    S(metal)    S(lipo)     H(rot)  DE(clash)    DE(int)     intcor
      9.71     -11.62       0.00        0.00      95.12       1.95       0.36       1.55       ----

> <Gold.Chemscore.Fitness>
9.7095

> <Gold.Chemscore.DG>
-11.6196

> <Gold.Chemscore.ZeroCoef>
-5.4800

> <Gold.Chemscore.Hbond>
0.0000

> <Gold.Chemscore.Metal>
0.0000

> <Gold.Chemscore.Lipo>
95.1225

> <Gold.Chemscore.Internal_Hbond>
0.0000

> <Gold.Chemscore.DEClash>
0.3593

> <Gold.Chemscore.DEInternal>
1.5508

> <Gold.Chemscore.Rot>
1.9491

> <Gold.Chemscore.Internal.Correction>
   9.000000E+99

> <Gold.Chemscore.Hbonds>
donor molecule, donor type, donor heavy atom, donor atom, acceptor molecule, acceptor atom, score
      L1  H    11    30       P1  7957  0.12

> <Gold.Chemscore.Hbond.Weighted>
-0.0000

> <Gold.Chemscore.Metal.Weighted>
-0.0000

> <Gold.Chemscore.Lipo.Weighted>
-11.1293

> <Gold.Chemscore.Internal_Hbond.Weighted>
0.0000

> <Gold.Chemscore.DEClash.Weighted>
0.3593

> <Gold.Chemscore.DEInternal.Weighted>
1.5508

> <Gold.Chemscore.Rot.Weighted>
4.9897

> <Gold.Chemscore.Internal.Correction.Weighted>
   9.000000E+99

> <Gold.Protein.RotatedTorsions>
[ 6907 6896 6895 6894 ] final  -93.64 input  -60.11 | X-H torsion
[ 7974 7965 7964 7962 ] final   16.36 input  175.53 | X-H torsion
[ 8008 7997 7996 7995 ] final  -32.64 input   59.86 | X-H torsion
[ 10167 10162 10161 10158 ] final -113.84 input  -65.29 | X-H torsion
[ 10718 10713 10712 10709 ] final    2.57 input   66.30 | X-H torsion
[ 10763 10752 10751 10750 ] final -136.73 input  -60.55 | X-H torsion
[ 11005 11000 10999 10996 ] final  -20.45 input  -57.11 | X-H torsion

> <Gold.Protein.ActiveResidues>
 VAL166  LYS551  ARG553  GLY616  TRP617  ASP618  TYR619  PRO620  LYS621  CYS622 
 ASP623  PHE694  ASN695  SER759  ASP760  ASP761  ALA762  ILE779  LEU786  VAL792 
 PHE793  MET794  SER795  GLU796  ALA797  LYS798  CYS799  TRP800  GLU811  SER814 

> <Gold.Protein.RotatedAtoms>
  150.6926  134.1936  159.4294 H   0  0  0  0  0  0  0  0  0  0  0  0  # atno 6907 bound_to 6896
  151.9906  134.9979  160.0570 H   0  0  0  0  0  0  0  0  0  0  0  0  # atno 6908 bound_to 6896
  152.1671  133.4584  159.4927 H   0  0  0  0  0  0  0  0  0  0  0  0  # atno 6909 bound_to 6896
  146.2252  139.8759  142.8579 H   0  0  0  0  0  0  0  0  0  0  0  0  # atno 7974 bound_to 7965
  154.4173  140.1732  156.1760 H   0  0  0  0  0  0  0  0  0  0  0  0  # atno 8008 bound_to 7997
  155.9721  140.3385  155.6561 H   0  0  0  0  0  0  0  0  0  0  0  0  # atno 8009 bound_to 7997
  155.6611  140.0701  157.2544 H   0  0  0  0  0  0  0  0  0  0  0  0  # atno 8010 bound_to 7997
  140.1075  143.4557  152.1774 H   0  0  0  0  0  0  0  0  0  0  0  0  # atno 10167 bound_to 10162
  156.8650  130.5600  149.5660 H   0  0  0  0  0  0  0  0  0  0  0  0  # atno 10718 bound_to 10713
  154.8677  135.3663  154.5109 H   0  0  0  0  0  0  0  0  0  0  0  0  # atno 10763 bound_to 10752
  153.5744  135.7020  153.5495 H   0  0  0  0  0  0  0  0  0  0  0  0  # atno 10764 bound_to 10752
  153.3513  135.4071  155.1611 H   0  0  0  0  0  0  0  0  0  0  0  0  # atno 10765 bound_to 10752
  140.8466  133.7887  155.9919 H   0  0  0  0  0  0  0  0  0  0  0  0  # atno 11005 bound_to 11000
  145.2561  141.0061  143.3853 LP  0  0  0  0  0  0  0  0  0  0  0  0  # atno 17320 bound_to 7965
  144.9335  139.4270  143.6483 LP  0  0  0  0  0  0  0  0  0  0  0  0  # atno 17321 bound_to 7965
  139.5637  144.7422  151.4081 LP  0  0  0  0  0  0  0  0  0  0  0  0  # atno 17342 bound_to 10162
  140.6944  143.7784  150.7304 LP  0  0  0  0  0  0  0  0  0  0  0  0  # atno 17343 bound_to 10162
  156.0757  130.5779  150.9468 LP  0  0  0  0  0  0  0  0  0  0  0  0  # atno 17370 bound_to 10713
  157.6229  131.0928  150.8589 LP  0  0  0  0  0  0  0  0  0  0  0  0  # atno 17371 bound_to 10713
  140.8837  134.2580  157.5131 LP  0  0  0  0  0  0  0  0  0  0  0  0  # atno 17394 bound_to 11000
  139.8703  134.9627  156.4439 LP  0  0  0  0  0  0  0  0  0  0  0  0  # atno 17395 bound_to 11000

$$$$
