AV-unprocessed.smi:3231|AV-procd|sdf|12338|dock10
  -GOLD-   2272018193D 1   1.00000     0.00000
 Structure written by MMmdl.
 40 41  0  0  0  0  0  0  0  0  1 V2000
  146.1783  140.2589  153.4709 O   0  0  0  0  0  0  0  0  0  0  0  0
  146.4402  138.9539  153.9486 C   0  0  1  0  0  0  0  0  0  0  0  0
  145.4035  138.0199  153.2981 C   0  0  0  0  0  0  0  0  0  0  0  0
  145.6123  137.9163  151.8562 N   0  0  0  0  0  0  0  0  0  0  0  0
  145.9655  136.5699  151.4186 C   0  0  0  0  0  0  0  0  0  0  0  0
  144.7473  135.6374  151.4664 C   0  0  0  0  0  0  0  0  0  0  0  0
  145.0424  134.3446  150.8798 N   0  0  0  0  0  0  0  0  0  0  0  0
  144.1723  133.4520  150.2902 C   0  0  0  0  0  0  0  0  0  0  0  0
  144.9083  132.3764  149.8828 C   0  0  0  0  0  0  0  0  0  0  0  0
  146.2361  132.7082  150.2723 C   0  0  0  0  0  0  0  0  0  0  0  0
  146.3131  133.8870  150.8689 N   0  0  0  0  0  0  0  0  0  0  0  0
  147.8850  138.5736  153.5557 C   0  0  0  0  0  0  0  0  0  0  0  0
  148.9279  139.0473  154.4672 N   0  0  0  0  0  0  0  0  0  0  0  0
  149.0082  140.5054  154.5232 C   0  0  0  0  0  0  0  0  0  0  0  0
  150.1302  140.9850  155.4609 C   0  0  0  0  0  0  0  0  0  0  0  0
  151.3722  140.4215  155.0519 O   0  0  0  0  0  0  0  0  0  0  0  0
  151.3480  138.9982  155.0330 C   0  0  0  0  0  0  0  0  0  0  0  0
  150.2333  138.5160  154.0887 C   0  0  0  0  0  0  0  0  0  0  0  0
  145.4244  140.2200  152.9020 H   0  0  0  0  0  0  0  0  0  0  0  0
  146.3320  138.9244  155.0342 H   0  0  0  0  0  0  0  0  0  0  0  0
  145.4265  137.0351  153.7667 H   0  0  0  0  0  0  0  0  0  0  0  0
  144.4043  138.4201  153.4740 H   0  0  0  0  0  0  0  0  0  0  0  0
  144.7779  138.2260  151.3679 H   0  0  0  0  0  0  0  0  0  0  0  0
  146.3648  136.6007  150.4042 H   0  0  0  0  0  0  0  0  0  0  0  0
  146.7554  136.1682  152.0548 H   0  0  0  0  0  0  0  0  0  0  0  0
  144.4178  135.4867  152.4956 H   0  0  0  0  0  0  0  0  0  0  0  0
  143.9085  136.0789  150.9262 H   0  0  0  0  0  0  0  0  0  0  0  0
  143.1142  133.6543  150.2100 H   0  0  0  0  0  0  0  0  0  0  0  0
  144.5530  131.4877  149.3827 H   0  0  0  0  0  0  0  0  0  0  0  0
  147.1398  132.1317  150.1398 H   0  0  0  0  0  0  0  0  0  0  0  0
  147.9430  137.4847  153.5381 H   0  0  0  0  0  0  0  0  0  0  0  0
  148.0987  138.8877  152.5324 H   0  0  0  0  0  0  0  0  0  0  0  0
  149.1777  140.9053  153.5223 H   0  0  0  0  0  0  0  0  0  0  0  0
  148.0635  140.9220  154.8714 H   0  0  0  0  0  0  0  0  0  0  0  0
  150.2063  142.0720  155.4361 H   0  0  0  0  0  0  0  0  0  0  0  0
  149.9177  140.7020  156.4931 H   0  0  0  0  0  0  0  0  0  0  0  0
  152.3168  138.6292  154.6958 H   0  0  0  0  0  0  0  0  0  0  0  0
  151.1922  138.6159  156.0428 H   0  0  0  0  0  0  0  0  0  0  0  0
  150.2054  137.4256  154.0944 H   0  0  0  0  0  0  0  0  0  0  0  0
  150.4730  138.8165  153.0674 H   0  0  0  0  0  0  0  0  0  0  0  0
  1  2  1  0  0  0  0
  1 19  1  0  0  0  0
  2  3  1  0  0  0  0
  2 12  1  0  0  0  0
  2 20  1  0  0  0  0
  3  4  1  0  0  0  0
  3 21  1  0  0  0  0
  3 22  1  0  0  0  0
  4  5  1  0  0  0  0
  4 23  1  0  0  0  0
  5  6  1  0  0  0  0
  5 24  1  0  0  0  0
  5 25  1  0  0  0  0
  6  7  1  0  0  0  0
  6 26  1  0  0  0  0
  6 27  1  0  0  0  0
  7 11  1  0  0  0  0
  7  8  1  0  0  0  0
  8  9  2  0  0  0  0
  8 28  1  0  0  0  0
  9 10  1  0  0  0  0
  9 29  1  0  0  0  0
 10 11  2  0  0  0  0
 10 30  1  0  0  0  0
 12 13  1  0  0  0  0
 12 31  1  0  0  0  0
 12 32  1  0  0  0  0
 13 18  1  0  0  0  0
 13 14  1  0  0  0  0
 14 15  1  0  0  0  0
 14 33  1  0  0  0  0
 14 34  1  0  0  0  0
 15 16  1  0  0  0  0
 15 35  1  0  0  0  0
 15 36  1  0  0  0  0
 16 17  1  0  0  0  0
 17 18  1  0  0  0  0
 17 37  1  0  0  0  0
 17 38  1  0  0  0  0
 18 39  1  0  0  0  0
 18 40  1  0  0  0  0
M  END
> <s_m_source_file>
AV-unprocessed.smi

> <i_m_source_file_index>
3231

> <i_lp_mmshare_version>
43012

> <i_f3d_flags>
0

> <s_epik_input>
W0NIMl0xW0NIMl1PW0NIMl1bQ0gyXU4xW0NIMl1bQ0BIXShbT0hdKVtDSDJdW05IXVtDSDJdW0NIMl1uMltjSF1bY0hdW2NIXW4y

> <s_epik_cmdline>
J2VwaWtfcHl0aG9uJywgJy1waCcsICc3LjAnLCAnLXRuJywgJzgnLCAnLW1hJywgJzIwMCcsICctbWV0YWxfYmluZGluZycsICctaW1hZScsICc8aW5maWxlLm1hZT4nLCAnLW9tYWUnLCAnPG91dGZpbGUubWFlPic=

> <r_lp_tautomer_probability>
1

> <r_epik_Ionization_Penalty>
2.37071

> <r_epik_Ionization_Penalty_Charging>
0

> <r_epik_Ionization_Penalty_Neutral>
2.37071

> <r_epik_State_Penalty>
1.72455

> <r_epik_Charging_Adjusted_Penalty>
1.72455

> <i_epik_Tot_Q>
0

> <i_epik_Tot_abs_Q>
0

> <r_epik_Metal_State_Penalty>
1.72366

> <b_epik_Metal_Only>
0

> <s_lp_Force_Field>
OPLS_2005

> <r_lp_Energy>
35.5688

> <b_lp_Chiralities_Consistent>
1

> <s_lp_Variant>
AV-unprocessed.smi:3231-8

> <Gold.Version>
5.8.1

> <Gold.Id.Protein>
6NUR|6NUR_protein|mol2

> <Gold.PLP.Fitness>
44.8894

> <Gold.PLP.PLP>
-31.8898

> <Gold.PLP.part.hbond>
-3.3383

> <Gold.PLP.part.metal>
0.0000

> <Gold.PLP.part.buried>
-1.7180

> <Gold.PLP.part.nonpolar>
-28.1328

> <Gold.PLP.part.repulsive>
0.4019

> <Gold.PLP.ligand.clash>
0.0000

> <Gold.PLP.ligand.torsion>
1.0704

> <Gold.PLP.Chemscore.Hbond>
2.9920

> <Gold.PLP.Chemscore.CHOScore>
2.0000

> <Gold.PLP.Chemscore.Metal>
0.0000

> <Gold.Chemscore.Hbonds>
donor molecule, donor type, donor heavy atom, donor atom, acceptor molecule, acceptor atom, score
      L1  H     1    19       P1 10175  1.00
      L1  H     4    23       P1 10171  1.00
      P1  H  7989  7998       L1    16  0.98
      L1  C     8    28       P1 10186  1.00
      L1  C    10    30       P1 10747  1.00

> <Gold.PLP.Chemscore.Internal.Correction>
0.1643

> <Gold.Rescore>
     Score         DG    S(hbond)    S(metal)    S(lipo)     H(rot)  DE(clash)    DE(int)     intcor
     14.32     -16.80       2.57        0.00      82.91       2.72       0.31       2.17       ----

> <Gold.Chemscore.Fitness>
14.3184

> <Gold.Chemscore.DG>
-16.8029

> <Gold.Chemscore.ZeroCoef>
-5.4800

> <Gold.Chemscore.Hbond>
2.5693

> <Gold.Chemscore.Metal>
0.0000

> <Gold.Chemscore.Lipo>
82.9089

> <Gold.Chemscore.Internal_Hbond>
0.0000

> <Gold.Chemscore.DEClash>
0.3149

> <Gold.Chemscore.DEInternal>
2.1696

> <Gold.Chemscore.Rot>
2.7183

> <Gold.Chemscore.Internal.Correction>
   9.000000E+99

> <Gold.Chemscore.Hbonds>
donor molecule, donor type, donor heavy atom, donor atom, acceptor molecule, acceptor atom, score
      L1  H     1    19       P1 10175  0.95
      L1  H     4    23       P1 10171  0.95
      P1  H  7989  7998       L1    16  0.33

> <Gold.Chemscore.Hbond.Weighted>
-8.5814

> <Gold.Chemscore.Metal.Weighted>
-0.0000

> <Gold.Chemscore.Lipo.Weighted>
-9.7003

> <Gold.Chemscore.Internal_Hbond.Weighted>
0.0000

> <Gold.Chemscore.DEClash.Weighted>
0.3149

> <Gold.Chemscore.DEInternal.Weighted>
2.1696

> <Gold.Chemscore.Rot.Weighted>
6.9589

> <Gold.Chemscore.Internal.Correction.Weighted>
   9.000000E+99

> <Gold.Protein.RotatedTorsions>
[ 6907 6896 6895 6894 ] final -104.33 input  -60.11 | X-H torsion
[ 7974 7965 7964 7962 ] final   74.16 input  175.53 | X-H torsion
[ 8008 7997 7996 7995 ] final   52.37 input   59.86 | X-H torsion
[ 10167 10162 10161 10158 ] final   39.22 input  -65.29 | X-H torsion
[ 10718 10713 10712 10709 ] final   91.91 input   66.30 | X-H torsion
[ 10763 10752 10751 10750 ] final  162.92 input  -60.55 | X-H torsion
[ 11005 11000 10999 10996 ] final  164.32 input  -57.11 | X-H torsion

> <Gold.Protein.ActiveResidues>
 VAL166  LYS551  ARG553  GLY616  TRP617  ASP618  TYR619  PRO620  LYS621  CYS622 
 ASP623  PHE694  ASN695  SER759  ASP760  ASP761  ALA762  ILE779  LEU786  VAL792 
 PHE793  MET794  SER795  GLU796  ALA797  LYS798  CYS799  TRP800  GLU811  SER814 

> <Gold.Protein.RotatedAtoms>
  150.7282  134.0294  159.3727 H   0  0  0  0  0  0  0  0  0  0  0  0  # atno 6907 bound_to 6896
  151.8262  135.0634  160.0440 H   0  0  0  0  0  0  0  0  0  0  0  0  # atno 6908 bound_to 6896
  152.2967  133.5578  159.5628 H   0  0  0  0  0  0  0  0  0  0  0  0  # atno 6909 bound_to 6896
  145.7317  139.2686  143.1537 H   0  0  0  0  0  0  0  0  0  0  0  0  # atno 7974 bound_to 7965
  155.4506  140.3458  155.4300 H   0  0  0  0  0  0  0  0  0  0  0  0  # atno 8008 bound_to 7997
  156.1222  140.1490  156.9217 H   0  0  0  0  0  0  0  0  0  0  0  0  # atno 8009 bound_to 7997
  154.4832  140.0863  156.7405 H   0  0  0  0  0  0  0  0  0  0  0  0  # atno 8010 bound_to 7997
  140.3861  144.1915  150.6130 H   0  0  0  0  0  0  0  0  0  0  0  0  # atno 10167 bound_to 10162
  157.6959  131.0424  150.3801 H   0  0  0  0  0  0  0  0  0  0  0  0  # atno 10718 bound_to 10713
  154.2857  135.2762  155.2677 H   0  0  0  0  0  0  0  0  0  0  0  0  # atno 10763 bound_to 10752
  154.5178  135.5764  153.6660 H   0  0  0  0  0  0  0  0  0  0  0  0  # atno 10764 bound_to 10752
  152.9922  135.6197  154.3019 H   0  0  0  0  0  0  0  0  0  0  0  0  # atno 10765 bound_to 10752
  140.2448  134.8023  157.3445 H   0  0  0  0  0  0  0  0  0  0  0  0  # atno 11005 bound_to 11000
  146.0531  140.8049  142.9772 LP  0  0  0  0  0  0  0  0  0  0  0  0  # atno 17320 bound_to 7965
  144.6891  140.3083  143.7252 LP  0  0  0  0  0  0  0  0  0  0  0  0  # atno 17321 bound_to 7965
  140.4888  143.2354  151.8849 LP  0  0  0  0  0  0  0  0  0  0  0  0  # atno 17342 bound_to 10162
  139.4792  144.5189  151.8829 LP  0  0  0  0  0  0  0  0  0  0  0  0  # atno 17343 bound_to 10162
  156.4216  130.3954  149.6821 LP  0  0  0  0  0  0  0  0  0  0  0  0  # atno 17370 bound_to 10713
  156.4070  130.7703  151.2714 LP  0  0  0  0  0  0  0  0  0  0  0  0  # atno 17371 bound_to 10713
  140.1617  134.4720  155.7890 LP  0  0  0  0  0  0  0  0  0  0  0  0  # atno 17394 bound_to 11000
  141.2207  133.6904  156.7556 LP  0  0  0  0  0  0  0  0  0  0  0  0  # atno 17395 bound_to 11000

$$$$
