AV-unprocessed.smi:2303|AV-procd|sdf|9242|dock3
  -GOLD-   2272012463D 1   1.00000     0.00000
 Structure written by MMmdl.
 33 34  0  0  0  0  0  0  0  0  1 V2000
  147.3116  141.3950  153.8456 C   0  0  0  0  0  0  0  0  0  0  0  0
  148.5743  140.5148  153.8351 C   0  0  0  0  0  0  0  0  0  0  0  0
  148.1971  139.0288  153.6997 C   0  0  0  0  0  0  0  0  0  0  0  0
  149.5025  140.7564  155.0262 C   0  0  0  0  0  0  0  0  0  0  0  0
  149.2364  141.5134  156.1100 C   0  0  0  0  0  0  0  0  0  0  0  0
  150.2399  141.6371  157.1533 C   0  0  0  0  0  0  0  0  0  0  0  0
  149.9004  142.4071  158.3509 C   0  0  0  0  0  0  0  0  0  0  0  0
  148.9596  142.1151  159.0895 O   0  0  0  0  0  0  0  0  0  0  0  0
  150.6796  143.4801  158.6165 N   0  0  0  0  0  0  0  0  0  0  0  0
  151.8616  143.9206  157.8875 C   0  0  0  0  0  0  0  0  0  0  0  0
  152.5623  144.8539  158.8581 C   0  0  0  0  0  0  0  0  0  0  0  0
  152.0803  144.3437  160.2069 C   0  0  0  0  0  0  0  0  0  0  0  0
  150.7416  143.9633  159.9400 O   0  0  0  0  0  0  0  0  0  0  0  0
  151.4155  140.9704  157.0393 C   0  0  0  0  0  0  0  0  0  0  0  0
  151.7216  140.1598  155.8585 C   0  0  0  0  0  0  0  0  0  0  0  0
  152.7817  139.5593  155.6994 O   0  0  0  0  0  0  0  0  0  0  0  0
  150.7418  140.1060  154.9270 N   0  0  0  0  0  0  0  0  0  0  0  0
  147.5661  142.4549  153.8761 H   0  0  0  0  0  0  0  0  0  0  0  0
  146.6760  141.1735  154.7038 H   0  0  0  0  0  0  0  0  0  0  0  0
  146.7164  141.2324  152.9466 H   0  0  0  0  0  0  0  0  0  0  0  0
  149.1438  140.7892  152.9459 H   0  0  0  0  0  0  0  0  0  0  0  0
  149.0754  138.3964  153.5683 H   0  0  0  0  0  0  0  0  0  0  0  0
  147.5525  138.8658  152.8356 H   0  0  0  0  0  0  0  0  0  0  0  0
  147.6622  138.6767  154.5823 H   0  0  0  0  0  0  0  0  0  0  0  0
  148.2914  142.0264  156.2115 H   0  0  0  0  0  0  0  0  0  0  0  0
  152.4943  143.0630  157.6521 H   0  0  0  0  0  0  0  0  0  0  0  0
  151.5960  144.4212  156.9559 H   0  0  0  0  0  0  0  0  0  0  0  0
  153.6479  144.8415  158.7586 H   0  0  0  0  0  0  0  0  0  0  0  0
  152.2162  145.8770  158.7051 H   0  0  0  0  0  0  0  0  0  0  0  0
  152.6506  143.4662  160.5157 H   0  0  0  0  0  0  0  0  0  0  0  0
  152.1406  145.0939  160.9954 H   0  0  0  0  0  0  0  0  0  0  0  0
  152.1513  141.0136  157.8297 H   0  0  0  0  0  0  0  0  0  0  0  0
  150.9003  139.5569  154.0946 H   0  0  0  0  0  0  0  0  0  0  0  0
  1  2  1  0  0  0  0
  1 18  1  0  0  0  0
  1 19  1  0  0  0  0
  1 20  1  0  0  0  0
  2  3  1  0  0  0  0
  2 21  1  0  0  0  0
  2  4  1  0  0  0  0
  3 22  1  0  0  0  0
  3 23  1  0  0  0  0
  3 24  1  0  0  0  0
  4 17  1  0  0  0  0
  4  5  2  0  0  0  0
  5 25  1  0  0  0  0
  5  6  1  0  0  0  0
  6  7  1  0  0  0  0
  6 14  2  0  0  0  0
  7  8  2  0  0  0  0
  7  9  1  0  0  0  0
  9 13  1  0  0  0  0
  9 10  1  0  0  0  0
 10 11  1  0  0  0  0
 10 26  1  0  0  0  0
 10 27  1  0  0  0  0
 11 12  1  0  0  0  0
 11 28  1  0  0  0  0
 11 29  1  0  0  0  0
 12 13  1  0  0  0  0
 12 30  1  0  0  0  0
 12 31  1  0  0  0  0
 14 15  1  0  0  0  0
 14 32  1  0  0  0  0
 15 16  2  0  0  0  0
 15 17  1  0  0  0  0
 17 33  1  0  0  0  0
M  END
> <s_m_source_file>
AV-unprocessed.smi

> <i_m_source_file_index>
2303

> <i_lp_mmshare_version>
43012

> <i_f3d_flags>
0

> <s_epik_input>
W0NIM11bQ0hdKFtDSDNdKWMxW2NIXWMoW2NIXWMobjEpW09IXSlDKD1PKU4yW0NIMl1bQ0gyXVtDSDJdTzI=

> <s_epik_cmdline>
J2VwaWtfcHl0aG9uJywgJy1waCcsICc3LjAnLCAnLXRuJywgJzgnLCAnLW1hJywgJzIwMCcsICctbWV0YWxfYmluZGluZycsICctaW1hZScsICc8aW5maWxlLm1hZT4nLCAnLW9tYWUnLCAnPG91dGZpbGUubWFlPic=

> <r_lp_tautomer_probability>
1

> <r_epik_Ionization_Penalty>
8.70942e-05

> <r_epik_Ionization_Penalty_Charging>
8.7046e-05

> <r_epik_Ionization_Penalty_Neutral>
4.82304e-08

> <r_epik_State_Penalty>
-0

> <r_epik_Charging_Adjusted_Penalty>
8.7046e-05

> <i_epik_Tot_Q>
0

> <i_epik_Tot_abs_Q>
0

> <r_epik_Metal_State_Penalty>
0.0811253

> <b_epik_Metal_Only>
0

> <s_epik_Chemistry_Notes>
This compound has a N-S or N-O group and may undergo hydrolysis at high or low pH.

> <s_lp_Force_Field>
OPLS_2005

> <r_lp_Energy>
27.1372

> <b_lp_Chiralities_Consistent>
1

> <s_lp_Variant>
AV-unprocessed.smi:2303-1

> <Gold.Version>
5.8.1

> <Gold.Id.Protein>
6NUR|6NUR_protein|mol2

> <Gold.PLP.Fitness>
36.5886

> <Gold.PLP.PLP>
-35.0992

> <Gold.PLP.part.hbond>
-2.0000

> <Gold.PLP.part.metal>
0.0000

> <Gold.PLP.part.buried>
-2.5702

> <Gold.PLP.part.nonpolar>
-31.4434

> <Gold.PLP.part.repulsive>
1.3140

> <Gold.PLP.ligand.clash>
0.0000

> <Gold.PLP.ligand.torsion>
1.3643

> <Gold.PLP.Chemscore.Hbond>
1.0000

> <Gold.PLP.Chemscore.CHOScore>
0.0000

> <Gold.PLP.Chemscore.Metal>
0.0000

> <Gold.Chemscore.Hbonds>
donor molecule, donor type, donor heavy atom, donor atom, acceptor molecule, acceptor atom, score
      P1  H  7997  8009       L1    16  1.00

> <Gold.PLP.Chemscore.Internal.Correction>
1.2181

> <Gold.Rescore>
     Score         DG    S(hbond)    S(metal)    S(lipo)     H(rot)  DE(clash)    DE(int)     intcor
     14.37     -15.96       1.03        0.00      82.16       1.00       0.24       1.35       ----

> <Gold.Chemscore.Fitness>
14.3727

> <Gold.Chemscore.DG>
-15.9619

> <Gold.Chemscore.ZeroCoef>
-5.4800

> <Gold.Chemscore.Hbond>
1.0266

> <Gold.Chemscore.Metal>
0.0000

> <Gold.Chemscore.Lipo>
82.1637

> <Gold.Chemscore.Internal_Hbond>
0.0000

> <Gold.Chemscore.DEClash>
0.2425

> <Gold.Chemscore.DEInternal>
1.3467

> <Gold.Chemscore.Rot>
1.0000

> <Gold.Chemscore.Internal.Correction>
   9.000000E+99

> <Gold.Chemscore.Hbonds>
donor molecule, donor type, donor heavy atom, donor atom, acceptor molecule, acceptor atom, score
      P1  H  6933  6944       L1     8  0.01
      P1  H  7997  8009       L1    16  0.99

> <Gold.Chemscore.Hbond.Weighted>
-3.4288

> <Gold.Chemscore.Metal.Weighted>
-0.0000

> <Gold.Chemscore.Lipo.Weighted>
-9.6132

> <Gold.Chemscore.Internal_Hbond.Weighted>
0.0000

> <Gold.Chemscore.DEClash.Weighted>
0.2425

> <Gold.Chemscore.DEInternal.Weighted>
1.3467

> <Gold.Chemscore.Rot.Weighted>
2.5600

> <Gold.Chemscore.Internal.Correction.Weighted>
   9.000000E+99

> <Gold.Protein.RotatedTorsions>
[ 6907 6896 6895 6894 ] final -169.86 input  -60.11 | X-H torsion
[ 7974 7965 7964 7962 ] final -148.91 input  175.53 | X-H torsion
[ 8008 7997 7996 7995 ] final -161.45 input   59.86 | X-H torsion
[ 10167 10162 10161 10158 ] final   39.04 input  -65.29 | X-H torsion
[ 10718 10713 10712 10709 ] final -126.98 input   66.30 | X-H torsion
[ 10763 10752 10751 10750 ] final   28.85 input  -60.55 | X-H torsion
[ 11005 11000 10999 10996 ] final -177.88 input  -57.11 | X-H torsion

> <Gold.Protein.ActiveResidues>
 VAL166  LYS551  ARG553  GLY616  TRP617  ASP618  TYR619  PRO620  LYS621  CYS622 
 ASP623  PHE694  ASN695  SER759  ASP760  ASP761  ALA762  ILE779  LEU786  VAL792 
 PHE793  MET794  SER795  GLU796  ALA797  LYS798  CYS799  TRP800  GLU811  SER814 

> <Gold.Protein.RotatedAtoms>
  151.4984  133.3510  159.2864 H   0  0  0  0  0  0  0  0  0  0  0  0  # atno 6907 bound_to 6896
  150.8789  134.8179  159.7221 H   0  0  0  0  0  0  0  0  0  0  0  0  # atno 6908 bound_to 6896
  152.4749  134.4878  159.9738 H   0  0  0  0  0  0  0  0  0  0  0  0  # atno 6909 bound_to 6896
  144.8000  140.5135  143.5713 H   0  0  0  0  0  0  0  0  0  0  0  0  # atno 7974 bound_to 7965
  155.7924  140.0880  157.2001 H   0  0  0  0  0  0  0  0  0  0  0  0  # atno 8008 bound_to 7997
  154.3985  140.1487  156.3237 H   0  0  0  0  0  0  0  0  0  0  0  0  # atno 8009 bound_to 7997
  155.8545  140.3433  155.5718 H   0  0  0  0  0  0  0  0  0  0  0  0  # atno 8010 bound_to 7997
  140.3878  144.1893  150.6130 H   0  0  0  0  0  0  0  0  0  0  0  0  # atno 10167 bound_to 10162
  156.1815  130.6735  151.0311 H   0  0  0  0  0  0  0  0  0  0  0  0  # atno 10718 bound_to 10713
  153.0466  135.6503  154.0801 H   0  0  0  0  0  0  0  0  0  0  0  0  # atno 10763 bound_to 10752
  154.0498  135.2896  155.3344 H   0  0  0  0  0  0  0  0  0  0  0  0  # atno 10764 bound_to 10752
  154.6727  135.5350  153.8225 H   0  0  0  0  0  0  0  0  0  0  0  0  # atno 10765 bound_to 10752
  140.4360  134.6475  157.4735 H   0  0  0  0  0  0  0  0  0  0  0  0  # atno 11005 bound_to 11000
  145.5576  139.1478  143.3359 LP  0  0  0  0  0  0  0  0  0  0  0  0  # atno 17320 bound_to 7965
  146.2279  140.5713  142.8988 LP  0  0  0  0  0  0  0  0  0  0  0  0  # atno 17321 bound_to 7965
  140.4871  143.2359  151.8872 LP  0  0  0  0  0  0  0  0  0  0  0  0  # atno 17342 bound_to 10162
  139.4791  144.5207  151.8806 LP  0  0  0  0  0  0  0  0  0  0  0  0  # atno 17343 bound_to 10162
  157.6871  131.0821  150.7212 LP  0  0  0  0  0  0  0  0  0  0  0  0  # atno 17370 bound_to 10713
  156.7269  130.4697  149.5509 LP  0  0  0  0  0  0  0  0  0  0  0  0  # atno 17371 bound_to 10713
  140.0102  134.6703  155.9393 LP  0  0  0  0  0  0  0  0  0  0  0  0  # atno 17394 bound_to 11000
  141.1725  133.6538  156.4706 LP  0  0  0  0  0  0  0  0  0  0  0  0  # atno 17395 bound_to 11000

$$$$
