AV-unprocessed.smi:33|AV-procd|sdf|207|dock10
  -GOLD-   2262015503D 1   1.00000     0.00000
 Structure written by MMmdl.
 67 72  0  0  0  0  0  0  0  0  1 V2000
  152.8093  140.4236  158.0238 O   0  0  0  0  0  0  0  0  0  0  0  0
  152.0963  141.4294  158.0204 C   0  0  0  0  0  0  0  0  0  0  0  0
  151.1567  141.6742  157.0858 O   0  0  0  0  0  0  0  0  0  0  0  0
  151.1879  140.9813  155.8487 C   0  0  0  0  0  0  0  0  0  0  0  0
  150.0148  139.9889  155.7859 C   0  0  2  0  0  0  0  0  0  0  0  0
  150.1847  139.0000  156.7968 O   0  0  0  0  0  0  0  0  0  0  0  0
  150.9490  137.9432  156.2984 C   0  0  1  0  0  0  0  0  0  0  0  0
  150.3773  136.6566  156.8102 N   0  0  0  0  0  0  0  0  0  0  0  0
  151.0248  135.4471  156.9364 C   0  0  0  0  0  0  0  0  0  0  0  0
  150.3019  134.4700  157.4130 N   0  0  0  0  0  0  0  0  0  0  0  0
  149.0583  135.0486  157.6297 C   0  0  0  0  0  0  0  0  0  0  0  0
  147.8170  134.5661  158.1271 C   0  0  0  0  0  0  0  0  0  0  0  0
  147.6257  133.2835  158.5193 N   0  0  0  0  0  0  0  0  0  0  0  0
  146.8916  133.0666  159.7749 C   0  0  0  0  0  0  0  0  0  0  0  0
  146.3039  131.9990  159.9598 O   0  0  0  0  0  0  0  0  0  0  0  0
  146.8150  134.1534  160.8102 C   0  0  0  0  0  0  0  0  0  0  0  0
  145.6256  134.3453  161.5470 C   0  0  0  0  0  0  0  0  0  0  0  0
  145.5529  135.3528  162.5284 C   0  0  0  0  0  0  0  0  0  0  0  0
  146.6738  136.1630  162.7915 C   0  0  0  0  0  0  0  0  0  0  0  0
  147.8714  135.9589  162.0802 C   0  0  0  0  0  0  0  0  0  0  0  0
  147.9454  134.9510  161.0994 C   0  0  0  0  0  0  0  0  0  0  0  0
  148.1825  132.2251  157.6634 C   0  0  0  0  0  0  0  0  0  0  0  0
  148.4847  131.1384  158.1605 O   0  0  0  0  0  0  0  0  0  0  0  0
  148.4403  132.4804  156.2049 C   0  0  0  0  0  0  0  0  0  0  0  0
  149.5579  131.8941  155.5712 C   0  0  0  0  0  0  0  0  0  0  0  0
  149.7959  132.1173  154.2011 C   0  0  0  0  0  0  0  0  0  0  0  0
  148.9077  132.9119  153.4515 C   0  0  0  0  0  0  0  0  0  0  0  0
  147.7763  133.4766  154.0706 C   0  0  0  0  0  0  0  0  0  0  0  0
  147.5385  133.2550  155.4407 C   0  0  0  0  0  0  0  0  0  0  0  0
  146.7803  135.4404  158.2075 N   0  0  0  0  0  0  0  0  0  0  0  0
  146.9504  136.7092  157.8258 C   0  0  0  0  0  0  0  0  0  0  0  0
  148.0485  137.2956  157.3444 N   0  0  0  0  0  0  0  0  0  0  0  0
  149.0929  136.4216  157.2593 C   0  0  0  0  0  0  0  0  0  0  0  0
  150.9419  138.0429  154.7585 C   0  0  1  0  0  0  0  0  0  0  0  0
  150.6062  136.8559  154.0626 O   0  0  0  0  0  0  0  0  0  0  0  0
  149.9588  139.1743  154.4913 C   0  0  1  0  0  0  0  0  0  0  0  0
  148.7154  138.7127  154.3453 F   0  0  0  0  0  0  0  0  0  0  0  0
  152.1811  142.5025  159.0524 C   0  0  0  0  0  0  0  0  0  0  0  0
  151.8403  143.8299  158.7022 C   0  0  0  0  0  0  0  0  0  0  0  0
  151.9130  144.8644  159.6552 C   0  0  0  0  0  0  0  0  0  0  0  0
  152.3250  144.5837  160.9708 C   0  0  0  0  0  0  0  0  0  0  0  0
  152.6640  143.2667  161.3325 C   0  0  0  0  0  0  0  0  0  0  0  0
  152.5940  142.2312  160.3804 C   0  0  0  0  0  0  0  0  0  0  0  0
  151.1466  141.6886  155.0195 H   0  0  0  0  0  0  0  0  0  0  0  0
  152.1306  140.4384  155.7677 H   0  0  0  0  0  0  0  0  0  0  0  0
  149.0812  140.5252  155.9599 H   0  0  0  0  0  0  0  0  0  0  0  0
  151.9568  137.9772  156.7145 H   0  0  0  0  0  0  0  0  0  0  0  0
  152.0598  135.3102  156.6587 H   0  0  0  0  0  0  0  0  0  0  0  0
  144.7592  133.7294  161.3533 H   0  0  0  0  0  0  0  0  0  0  0  0
  144.6366  135.5034  163.0801 H   0  0  0  0  0  0  0  0  0  0  0  0
  146.6175  136.9359  163.5437 H   0  0  0  0  0  0  0  0  0  0  0  0
  148.7345  136.5741  162.2876 H   0  0  0  0  0  0  0  0  0  0  0  0
  148.8717  134.7997  160.5638 H   0  0  0  0  0  0  0  0  0  0  0  0
  150.2457  131.2818  156.1364 H   0  0  0  0  0  0  0  0  0  0  0  0
  150.6596  131.6775  153.7246 H   0  0  0  0  0  0  0  0  0  0  0  0
  149.0906  133.0825  152.4008 H   0  0  0  0  0  0  0  0  0  0  0  0
  147.0897  134.0786  153.4940 H   0  0  0  0  0  0  0  0  0  0  0  0
  146.6638  133.6892  155.9036 H   0  0  0  0  0  0  0  0  0  0  0  0
  146.0833  137.3459  157.9196 H   0  0  0  0  0  0  0  0  0  0  0  0
  151.9406  138.3536  154.4494 H   0  0  0  0  0  0  0  0  0  0  0  0
  150.1416  137.0965  153.2749 H   0  0  0  0  0  0  0  0  0  0  0  0
  150.1949  139.7519  153.5969 H   0  0  0  0  0  0  0  0  0  0  0  0
  151.5217  144.0699  157.6979 H   0  0  0  0  0  0  0  0  0  0  0  0
  151.6525  145.8748  159.3759 H   0  0  0  0  0  0  0  0  0  0  0  0
  152.3808  145.3769  161.7016 H   0  0  0  0  0  0  0  0  0  0  0  0
  152.9785  143.0494  162.3429 H   0  0  0  0  0  0  0  0  0  0  0  0
  152.8606  141.2319  160.6920 H   0  0  0  0  0  0  0  0  0  0  0  0
  1  2  2  0  0  0  0
  2  3  1  0  0  0  0
  2 38  1  0  0  0  0
  3  4  1  0  0  0  0
  4  5  1  0  0  0  0
  4 44  1  0  0  0  0
  4 45  1  0  0  0  0
  5 36  1  0  0  0  0
  5  6  1  0  0  0  0
  5 46  1  0  0  0  0
  6  7  1  0  0  0  0
  7  8  1  0  0  0  0
  7 34  1  0  0  0  0
  7 47  1  0  0  0  0
  8 33  1  0  0  0  0
  8  9  1  0  0  0  0
  9 10  2  0  0  0  0
  9 48  1  0  0  0  0
 10 11  1  0  0  0  0
 11 33  2  0  0  0  0
 11 12  1  0  0  0  0
 12 13  1  0  0  0  0
 12 30  2  0  0  0  0
 13 14  1  0  0  0  0
 13 22  1  0  0  0  0
 14 15  2  0  0  0  0
 14 16  1  0  0  0  0
 16 21  1  0  0  0  0
 16 17  2  0  0  0  0
 17 18  1  0  0  0  0
 17 49  1  0  0  0  0
 18 19  2  0  0  0  0
 18 50  1  0  0  0  0
 19 20  1  0  0  0  0
 19 51  1  0  0  0  0
 20 21  2  0  0  0  0
 20 52  1  0  0  0  0
 21 53  1  0  0  0  0
 22 23  2  0  0  0  0
 22 24  1  0  0  0  0
 24 29  1  0  0  0  0
 24 25  2  0  0  0  0
 25 26  1  0  0  0  0
 25 54  1  0  0  0  0
 26 27  2  0  0  0  0
 26 55  1  0  0  0  0
 27 28  1  0  0  0  0
 27 56  1  0  0  0  0
 28 29  2  0  0  0  0
 28 57  1  0  0  0  0
 29 58  1  0  0  0  0
 30 31  1  0  0  0  0
 31 32  2  0  0  0  0
 31 59  1  0  0  0  0
 32 33  1  0  0  0  0
 34 35  1  0  0  0  0
 34 36  1  0  0  0  0
 34 60  1  0  0  0  0
 35 61  1  0  0  0  0
 36 37  1  0  0  0  0
 36 62  1  0  0  0  0
 38 43  1  0  0  0  0
 38 39  2  0  0  0  0
 39 40  1  0  0  0  0
 39 63  1  0  0  0  0
 40 41  2  0  0  0  0
 40 64  1  0  0  0  0
 41 42  1  0  0  0  0
 41 65  1  0  0  0  0
 42 43  2  0  0  0  0
 42 66  1  0  0  0  0
 43 67  1  0  0  0  0
M  END
> <s_m_source_file>
AV-unprocessed.smi

> <i_m_source_file_index>
33

> <i_lp_mmshare_version>
43012

> <i_f3d_flags>
0

> <s_epik_input>
W2NIXTFbY0hdW2NIXVtjSF1bY0hdYzFDKD1PKU9bQ0gyXVtDQEBIXTJPW0NASF0oW0NAQEhdKFtPSF0pW0NAQEhdMkYpbihbY0hdbjMpYyhjMzQpbltjSF1uYzROKEMoPU8pYzVbY0hdW2NIXVtjSF1bY0hdW2NIXTUpQyg9TyljNltjSF1bY0hdW2NIXVtjSF1bY0hdNg==

> <s_epik_cmdline>
J2VwaWtfcHl0aG9uJywgJy1waCcsICc3LjAnLCAnLXRuJywgJzgnLCAnLW1hJywgJzIwMCcsICctbWV0YWxfYmluZGluZycsICctaW1hZScsICc8aW5maWxlLm1hZT4nLCAnLW9tYWUnLCAnPG91dGZpbGUubWFlPic=

> <r_lp_tautomer_probability>
1

> <r_epik_Ionization_Penalty>
0.00067664

> <r_epik_Ionization_Penalty_Charging>
0

> <r_epik_Ionization_Penalty_Neutral>
0.00067664

> <r_epik_State_Penalty>
0.000428095

> <r_epik_Charging_Adjusted_Penalty>
0.000428095

> <i_epik_Tot_Q>
0

> <i_epik_Tot_abs_Q>
0

> <r_epik_Metal_State_Penalty>
-0

> <b_epik_Metal_Only>
0

> <s_epik_Chemistry_Notes>
This compound has an ester and may undergo hydrolysis at high or low pH. This compound contains an acetal/aminal-like group ( X-CH(R)-Y where X, Y are N, S, or O) that may be acid/base labile, releasing an aldehyde.

> <s_lp_Force_Field>
OPLS_2005

> <r_lp_Energy>
79.5237

> <b_lp_Chiralities_Consistent>
1

> <s_lp_Variant>
AV-unprocessed.smi:33-9

> <Gold.Version>
5.8.1

> <Gold.Id.Protein>
6NUR|6NUR_protein|mol2

> <Gold.PLP.Fitness>
62.7941

> <Gold.PLP.PLP>
-60.7304

> <Gold.PLP.part.hbond>
-4.0000

> <Gold.PLP.part.metal>
0.0000

> <Gold.PLP.part.buried>
-7.5375

> <Gold.PLP.part.nonpolar>
-49.7146

> <Gold.PLP.part.repulsive>
0.0521

> <Gold.PLP.ligand.clash>
0.0046

> <Gold.PLP.ligand.torsion>
3.9117

> <Gold.PLP.Chemscore.Hbond>
2.0714

> <Gold.PLP.Chemscore.CHOScore>
0.0000

> <Gold.PLP.Chemscore.Metal>
0.0000

> <Gold.Chemscore.Hbonds>
donor molecule, donor type, donor heavy atom, donor atom, acceptor molecule, acceptor atom, score
      L1  H    35    61       P1  7948  0.59
      P1  H  6896  6908       L1    10  0.67
      P1  H  7997  8009       L1     1  0.84

> <Gold.PLP.Chemscore.Internal.Correction>
3.6773

> <Gold.Rescore>
     Score         DG    S(hbond)    S(metal)    S(lipo)     H(rot)  DE(clash)    DE(int)     intcor
     10.82     -23.49       1.50        0.00     166.47       2.52       0.10      12.57       ----

> <Gold.Chemscore.Fitness>
10.8224

> <Gold.Chemscore.DG>
-23.4932

> <Gold.Chemscore.ZeroCoef>
-5.4800

> <Gold.Chemscore.Hbond>
1.4969

> <Gold.Chemscore.Metal>
0.0000

> <Gold.Chemscore.Lipo>
166.4673

> <Gold.Chemscore.Internal_Hbond>
0.0000

> <Gold.Chemscore.DEClash>
0.0975

> <Gold.Chemscore.DEInternal>
12.5732

> <Gold.Chemscore.Rot>
2.5247

> <Gold.Chemscore.Internal.Correction>
   9.000000E+99

> <Gold.Chemscore.Hbonds>
donor molecule, donor type, donor heavy atom, donor atom, acceptor molecule, acceptor atom, score
      L1  H    35    61       P1  7948  0.07
      P1  H  6896  6908       L1    10  0.13
      P1  H  7997  8009       L1     1  0.78

> <Gold.Chemscore.Hbond.Weighted>
-4.9998

> <Gold.Chemscore.Metal.Weighted>
-0.0000

> <Gold.Chemscore.Lipo.Weighted>
-19.4767

> <Gold.Chemscore.Internal_Hbond.Weighted>
0.0000

> <Gold.Chemscore.DEClash.Weighted>
0.0975

> <Gold.Chemscore.DEInternal.Weighted>
12.5732

> <Gold.Chemscore.Rot.Weighted>
6.4633

> <Gold.Chemscore.Internal.Correction.Weighted>
   9.000000E+99

> <Gold.Protein.RotatedTorsions>
[ 6907 6896 6895 6894 ] final  129.33 input  -60.11 | X-H torsion
[ 7974 7965 7964 7962 ] final    1.42 input  175.53 | X-H torsion
[ 8008 7997 7996 7995 ] final  163.97 input   59.86 | X-H torsion
[ 10167 10162 10161 10158 ] final   38.86 input  -65.29 | X-H torsion
[ 10718 10713 10712 10709 ] final   -0.91 input   66.30 | X-H torsion
[ 10763 10752 10751 10750 ] final  125.00 input  -60.55 | X-H torsion
[ 11005 11000 10999 10996 ] final   64.08 input  -57.11 | X-H torsion

> <Gold.Protein.ActiveResidues>
 VAL166  LYS551  ARG553  GLY616  TRP617  ASP618  TYR619  PRO620  LYS621  CYS622 
 ASP623  PHE694  ASN695  SER759  ASP760  ASP761  ALA762  ILE779  LEU786  VAL792 
 PHE793  MET794  SER795  GLU796  ALA797  LYS798  CYS799  TRP800  GLU811  SER814 

> <Gold.Protein.RotatedAtoms>
  152.3634  133.6326  159.6031 H   0  0  0  0  0  0  0  0  0  0  0  0  # atno 6907 bound_to 6896
  150.7617  133.9387  159.3458 H   0  0  0  0  0  0  0  0  0  0  0  0  # atno 6908 bound_to 6896
  151.7221  135.0893  160.0337 H   0  0  0  0  0  0  0  0  0  0  0  0  # atno 6909 bound_to 6896
  146.2440  140.0990  142.8348 H   0  0  0  0  0  0  0  0  0  0  0  0  # atno 7974 bound_to 7965
  156.1916  140.1709  156.8080 H   0  0  0  0  0  0  0  0  0  0  0  0  # atno 8008 bound_to 7997
  154.5478  140.0723  156.8650 H   0  0  0  0  0  0  0  0  0  0  0  0  # atno 8009 bound_to 7997
  155.3087  140.3366  155.4247 H   0  0  0  0  0  0  0  0  0  0  0  0  # atno 8010 bound_to 7997
  140.3895  144.1871  150.6130 H   0  0  0  0  0  0  0  0  0  0  0  0  # atno 10167 bound_to 10162
  156.8134  130.5432  149.5706 H   0  0  0  0  0  0  0  0  0  0  0  0  # atno 10718 bound_to 10713
  153.6704  135.3331  155.3151 H   0  0  0  0  0  0  0  0  0  0  0  0  # atno 10763 bound_to 10752
  154.8492  135.4385  154.1711 H   0  0  0  0  0  0  0  0  0  0  0  0  # atno 10764 bound_to 10752
  153.2701  135.6999  153.7565 H   0  0  0  0  0  0  0  0  0  0  0  0  # atno 10765 bound_to 10752
  139.9982  134.6484  155.9975 H   0  0  0  0  0  0  0  0  0  0  0  0  # atno 11005 bound_to 11000
  145.0585  140.9070  143.4953 LP  0  0  0  0  0  0  0  0  0  0  0  0  # atno 17320 bound_to 7965
  145.1101  139.2763  143.5642 LP  0  0  0  0  0  0  0  0  0  0  0  0  # atno 17321 bound_to 7965
  140.4854  143.2365  151.8895 LP  0  0  0  0  0  0  0  0  0  0  0  0  # atno 17342 bound_to 10162
  139.4790  144.5224  151.8783 LP  0  0  0  0  0  0  0  0  0  0  0  0  # atno 17343 bound_to 10162
  156.1031  130.5984  150.9926 LP  0  0  0  0  0  0  0  0  0  0  0  0  # atno 17370 bound_to 10713
  157.6494  131.0899  150.8083 LP  0  0  0  0  0  0  0  0  0  0  0  0  # atno 17371 bound_to 10713
  141.1621  133.6538  156.4354 LP  0  0  0  0  0  0  0  0  0  0  0  0  # atno 17394 bound_to 11000
  140.4778  134.6693  157.5157 LP  0  0  0  0  0  0  0  0  0  0  0  0  # atno 17395 bound_to 11000

$$$$
