AV-unprocessed.smi:221|AV-procd|sdf|1697|dock5
  -GOLD-   2262020143D 1   1.00000     0.00000
 Structure written by MMmdl.
 50 53  0  0  0  0  0  0  0  0  1 V2000
  147.7156  137.0340  163.4728 N   0  0  0  0  0  0  0  0  0  0  0  0
  147.1495  136.7666  162.2912 C   0  0  0  0  0  0  0  0  0  0  0  0
  146.3689  137.5534  161.7602 O   0  0  0  0  0  0  0  0  0  0  0  0
  147.4859  135.4361  161.5891 C   0  0  1  0  0  0  0  0  0  0  0  0
  146.9583  134.2401  162.3989 C   0  0  0  0  0  0  0  0  0  0  0  0
  146.7772  133.1431  161.3556 C   0  0  2  0  0  0  0  0  0  0  0  0
  147.9517  132.5572  161.1169 F   0  0  0  0  0  0  0  0  0  0  0  0
  146.3308  133.9124  160.1131 C   0  0  0  0  0  0  0  0  0  0  0  0
  146.8714  135.2595  160.2655 N   0  0  0  0  0  0  0  0  0  0  0  0
  147.3223  135.9119  159.1595 C   0  0  0  0  0  0  0  0  0  0  0  0
  146.5858  135.8831  158.0170 N   0  0  0  0  0  0  0  0  0  0  0  0
  147.0105  136.5130  156.9182 C   0  0  0  0  0  0  0  0  0  0  0  0
  148.1302  137.2155  156.7398 N   0  0  0  0  0  0  0  0  0  0  0  0
  148.8817  137.2403  157.8768 C   0  0  0  0  0  0  0  0  0  0  0  0
  148.5566  136.6237  159.1188 C   0  0  0  0  0  0  0  0  0  0  0  0
  149.5729  136.8599  160.0387 N   0  0  0  0  0  0  0  0  0  0  0  0
  150.4397  137.5820  159.3832 C   0  0  0  0  0  0  0  0  0  0  0  0
  150.1082  137.8487  158.0746 N   0  0  0  0  0  0  0  0  0  0  0  0
  150.8853  138.6142  157.1158 C   0  0  0  0  0  0  0  0  0  0  0  0
  150.5238  140.1223  157.1166 C   0  0  2  0  0  0  0  0  0  0  0  0
  151.0273  140.8244  155.8340 C   0  0  0  0  0  0  0  0  0  0  0  0
  150.7065  140.0765  154.6796 O   0  0  0  0  0  0  0  0  0  0  0  0
  150.9850  140.8639  158.4015 C   0  0  1  0  0  0  0  0  0  0  0  0
  152.4667  140.7257  158.7528 C   0  0  0  0  0  0  0  0  0  0  0  0
  152.8828  142.1342  159.1852 C   0  0  0  0  0  0  0  0  0  0  0  0
  151.6612  142.8135  159.4320 O   0  0  0  0  0  0  0  0  0  0  0  0
  150.7445  142.3766  158.4435 C   0  0  0  0  0  0  0  0  0  0  0  0
  148.5700  135.3453  161.5001 H   0  0  0  0  0  0  0  0  0  0  0  0
  146.0761  132.3649  161.6580 H   0  0  0  0  0  0  0  0  0  0  0  0
  147.5021  137.8994  163.9470 H   0  0  0  0  0  0  0  0  0  0  0  0
  148.3508  136.3680  163.8877 H   0  0  0  0  0  0  0  0  0  0  0  0
  147.6322  133.9463  163.2044 H   0  0  0  0  0  0  0  0  0  0  0  0
  145.9895  134.4713  162.8461 H   0  0  0  0  0  0  0  0  0  0  0  0
  146.6663  133.4139  159.2022 H   0  0  0  0  0  0  0  0  0  0  0  0
  145.2430  133.9814  160.0792 H   0  0  0  0  0  0  0  0  0  0  0  0
  146.3605  136.4421  156.0586 H   0  0  0  0  0  0  0  0  0  0  0  0
  151.3556  137.9327  159.8364 H   0  0  0  0  0  0  0  0  0  0  0  0
  151.9375  138.4575  157.3499 H   0  0  0  0  0  0  0  0  0  0  0  0
  150.7231  138.1808  156.1290 H   0  0  0  0  0  0  0  0  0  0  0  0
  149.4346  140.1863  157.1020 H   0  0  0  0  0  0  0  0  0  0  0  0
  150.6047  141.8255  155.7463 H   0  0  0  0  0  0  0  0  0  0  0  0
  152.1108  140.9369  155.8479 H   0  0  0  0  0  0  0  0  0  0  0  0
  150.9550  139.1765  154.8246 H   0  0  0  0  0  0  0  0  0  0  0  0
  150.4453  140.4428  159.2508 H   0  0  0  0  0  0  0  0  0  0  0  0
  152.5918  140.0160  159.5713 H   0  0  0  0  0  0  0  0  0  0  0  0
  153.0840  140.3736  157.9274 H   0  0  0  0  0  0  0  0  0  0  0  0
  153.5227  142.1313  160.0678 H   0  0  0  0  0  0  0  0  0  0  0  0
  153.4163  142.6400  158.3792 H   0  0  0  0  0  0  0  0  0  0  0  0
  150.9879  142.8671  157.5014 H   0  0  0  0  0  0  0  0  0  0  0  0
  149.7186  142.6328  158.7089 H   0  0  0  0  0  0  0  0  0  0  0  0
  1  2  1  0  0  0  0
  1 30  1  0  0  0  0
  1 31  1  0  0  0  0
  2  3  2  0  0  0  0
  2  4  1  0  0  0  0
  4 28  1  0  0  0  0
  4  9  1  0  0  0  0
  4  5  1  0  0  0  0
  5  6  1  0  0  0  0
  5 32  1  0  0  0  0
  5 33  1  0  0  0  0
  6 29  1  0  0  0  0
  6  7  1  0  0  0  0
  6  8  1  0  0  0  0
  8  9  1  0  0  0  0
  8 34  1  0  0  0  0
  8 35  1  0  0  0  0
  9 10  1  0  0  0  0
 10 15  1  0  0  0  0
 10 11  2  0  0  0  0
 11 12  1  0  0  0  0
 12 13  2  0  0  0  0
 12 36  1  0  0  0  0
 13 14  1  0  0  0  0
 14 18  1  0  0  0  0
 14 15  2  0  0  0  0
 15 16  1  0  0  0  0
 16 17  2  0  0  0  0
 17 18  1  0  0  0  0
 17 37  1  0  0  0  0
 18 19  1  0  0  0  0
 19 20  1  0  0  0  0
 19 38  1  0  0  0  0
 19 39  1  0  0  0  0
 20 21  1  0  0  0  0
 20 23  1  0  0  0  0
 20 40  1  0  0  0  0
 21 22  1  0  0  0  0
 21 41  1  0  0  0  0
 21 42  1  0  0  0  0
 22 43  1  0  0  0  0
 23 27  1  0  0  0  0
 23 24  1  0  0  0  0
 23 44  1  0  0  0  0
 24 25  1  0  0  0  0
 24 45  1  0  0  0  0
 24 46  1  0  0  0  0
 25 26  1  0  0  0  0
 25 47  1  0  0  0  0
 25 48  1  0  0  0  0
 26 27  1  0  0  0  0
 27 49  1  0  0  0  0
 27 50  1  0  0  0  0
M  END
> <s_m_source_file>
AV-unprocessed.smi

> <i_m_source_file_index>
221

> <i_lp_mmshare_version>
43012

> <i_f3d_flags>
0

> <s_epik_input>
W05IMl1DKD1PKVtDQEBIXTFbQ0gyXVtDQEBIXShGKVtDSDJdTjFjKG5bY0hdbjIpYyhjMjMpbltjSF1uM1tDSDJdW0NASF0oW0NIMl1bT0hdKVtDQEBIXTRbQ0gyXVtDSDJdT1tDSDJdNA==

> <s_epik_cmdline>
J2VwaWtfcHl0aG9uJywgJy1waCcsICc3LjAnLCAnLXRuJywgJzgnLCAnLW1hJywgJzIwMCcsICctbWV0YWxfYmluZGluZycsICctaW1hZScsICc8aW5maWxlLm1hZT4nLCAnLW9tYWUnLCAnPG91dGZpbGUubWFlPic=

> <r_lp_tautomer_probability>
1

> <r_epik_Ionization_Penalty>
0.000818822

> <r_epik_Ionization_Penalty_Charging>
0

> <r_epik_Ionization_Penalty_Neutral>
0.000818822

> <r_epik_State_Penalty>
0.000440551

> <r_epik_Charging_Adjusted_Penalty>
0.000440551

> <i_epik_Tot_Q>
0

> <i_epik_Tot_abs_Q>
0

> <r_epik_Metal_State_Penalty>
-0

> <b_epik_Metal_Only>
0

> <s_lp_Force_Field>
OPLS_2005

> <r_lp_Energy>
49.9883

> <b_lp_Chiralities_Consistent>
1

> <s_lp_Variant>
AV-unprocessed.smi:221-12

> <Gold.Version>
5.8.1

> <Gold.Id.Protein>
6NUR|6NUR_protein|mol2

> <Gold.PLP.Fitness>
44.2736

> <Gold.PLP.PLP>
-39.6937

> <Gold.PLP.part.hbond>
-3.5328

> <Gold.PLP.part.metal>
0.0000

> <Gold.PLP.part.buried>
-5.7121

> <Gold.PLP.part.nonpolar>
-30.8545

> <Gold.PLP.part.repulsive>
1.0579

> <Gold.PLP.ligand.clash>
0.0000

> <Gold.PLP.ligand.torsion>
1.0530

> <Gold.PLP.Chemscore.Hbond>
2.1118

> <Gold.PLP.Chemscore.CHOScore>
0.0000

> <Gold.PLP.Chemscore.Metal>
0.0000

> <Gold.Chemscore.Hbonds>
donor molecule, donor type, donor heavy atom, donor atom, acceptor molecule, acceptor atom, score
      P1  H  6896  6908       L1    16  0.12
      P1  H  6931  6943       L1    16  0.08
      P1  H  6934  6947       L1     3  0.91
      P1  H  7989  7998       L1    22  1.00

> <Gold.PLP.Chemscore.Internal.Correction>
0.3504

> <Gold.Rescore>
     Score         DG    S(hbond)    S(metal)    S(lipo)     H(rot)  DE(clash)    DE(int)     intcor
      9.79     -11.96       1.83        0.00      75.66       3.31       0.13       2.04       ----

> <Gold.Chemscore.Fitness>
9.7878

> <Gold.Chemscore.DG>
-11.9622

> <Gold.Chemscore.ZeroCoef>
-5.4800

> <Gold.Chemscore.Hbond>
1.8267

> <Gold.Chemscore.Metal>
0.0000

> <Gold.Chemscore.Lipo>
75.6563

> <Gold.Chemscore.Internal_Hbond>
0.0000

> <Gold.Chemscore.DEClash>
0.1295

> <Gold.Chemscore.DEInternal>
2.0449

> <Gold.Chemscore.Rot>
3.3089

> <Gold.Chemscore.Internal.Correction>
   9.000000E+99

> <Gold.Chemscore.Hbonds>
donor molecule, donor type, donor heavy atom, donor atom, acceptor molecule, acceptor atom, score
      P1  H  6931  6943       L1    16  0.03
      P1  H  6934  6947       L1     3  0.81
      P1  H  7989  7998       L1    22  0.26

> <Gold.Chemscore.Hbond.Weighted>
-6.1013

> <Gold.Chemscore.Metal.Weighted>
-0.0000

> <Gold.Chemscore.Lipo.Weighted>
-8.8518

> <Gold.Chemscore.Internal_Hbond.Weighted>
0.0000

> <Gold.Chemscore.DEClash.Weighted>
0.1295

> <Gold.Chemscore.DEInternal.Weighted>
2.0449

> <Gold.Chemscore.Rot.Weighted>
8.4709

> <Gold.Chemscore.Internal.Correction.Weighted>
   9.000000E+99

> <Gold.Protein.RotatedTorsions>
[ 6907 6896 6895 6894 ] final -163.12 input  -60.11 | X-H torsion
[ 7974 7965 7964 7962 ] final  158.39 input  175.53 | X-H torsion
[ 8008 7997 7996 7995 ] final  -48.82 input   59.86 | X-H torsion
[ 10167 10162 10161 10158 ] final   39.94 input  -65.29 | X-H torsion
[ 10718 10713 10712 10709 ] final -172.03 input   66.30 | X-H torsion
[ 10763 10752 10751 10750 ] final -131.76 input  -60.55 | X-H torsion
[ 11005 11000 10999 10996 ] final -156.12 input  -57.11 | X-H torsion

> <Gold.Protein.ActiveResidues>
 VAL166  LYS551  ARG553  GLY616  TRP617  ASP618  TYR619  PRO620  LYS621  CYS622 
 ASP623  PHE694  ASN695  SER759  ASP760  ASP761  ALA762  ILE779  LEU786  VAL792 
 PHE793  MET794  SER795  GLU796  ALA797  LYS798  CYS799  TRP800  GLU811  SER814 

> <Gold.Protein.RotatedAtoms>
  151.3910  133.3789  159.2720 H   0  0  0  0  0  0  0  0  0  0  0  0  # atno 6907 bound_to 6896
  150.9505  134.8906  159.7679 H   0  0  0  0  0  0  0  0  0  0  0  0  # atno 6908 bound_to 6896
  152.5109  134.3865  159.9421 H   0  0  0  0  0  0  0  0  0  0  0  0  # atno 6909 bound_to 6896
  144.7849  139.7471  143.6245 H   0  0  0  0  0  0  0  0  0  0  0  0  # atno 7974 bound_to 7965
  154.4034  140.1312  156.4401 H   0  0  0  0  0  0  0  0  0  0  0  0  # atno 8008 bound_to 7997
  155.7467  140.3489  155.5110 H   0  0  0  0  0  0  0  0  0  0  0  0  # atno 8009 bound_to 7997
  155.8988  140.1016  157.1355 H   0  0  0  0  0  0  0  0  0  0  0  0  # atno 8010 bound_to 7997
  140.3790  144.2005  150.6131 H   0  0  0  0  0  0  0  0  0  0  0  0  # atno 10167 bound_to 10162
  156.7495  130.9373  151.3114 H   0  0  0  0  0  0  0  0  0  0  0  0  # atno 10718 bound_to 10713
  154.8748  135.3820  154.4298 H   0  0  0  0  0  0  0  0  0  0  0  0  # atno 10763 bound_to 10752
  153.4993  135.7030  153.5845 H   0  0  0  0  0  0  0  0  0  0  0  0  # atno 10764 bound_to 10752
  153.4184  135.3907  155.2062 H   0  0  0  0  0  0  0  0  0  0  0  0  # atno 10765 bound_to 10752
  140.6790  134.4165  157.5227 H   0  0  0  0  0  0  0  0  0  0  0  0  # atno 11005 bound_to 11000
  146.2075  139.5410  142.9703 LP  0  0  0  0  0  0  0  0  0  0  0  0  # atno 17320 bound_to 7965
  145.5950  141.0364  143.2049 LP  0  0  0  0  0  0  0  0  0  0  0  0  # atno 17321 bound_to 7965
  140.4957  143.2333  151.8754 LP  0  0  0  0  0  0  0  0  0  0  0  0  # atno 17342 bound_to 10162
  139.4797  144.5117  151.8924 LP  0  0  0  0  0  0  0  0  0  0  0  0  # atno 17343 bound_to 10162
  157.6783  130.9115  150.0204 LP  0  0  0  0  0  0  0  0  0  0  0  0  # atno 17370 bound_to 10713
  156.1410  130.3642  149.9582 LP  0  0  0  0  0  0  0  0  0  0  0  0  # atno 17371 bound_to 10713
  139.8957  134.8676  156.2118 LP  0  0  0  0  0  0  0  0  0  0  0  0  # atno 17394 bound_to 11000
  141.0332  133.6977  156.1467 LP  0  0  0  0  0  0  0  0  0  0  0  0  # atno 17395 bound_to 11000

$$$$
