AV-unprocessed.smi:2061|AV-procd|sdf|8385|dock5
  -GOLD-   2272011 63D 1   1.00000     0.00000
 Structure written by MMmdl.
 45 46  0  0  0  0  0  0  0  0  3 V2000
  151.0111  141.1880  156.1507 C   0  0  0  0  0  0  0  0  0  0  0  0
  151.4590  139.8429  155.6904 C   0  0  0  0  0  0  0  0  0  0  0  0
  150.7960  138.7839  155.1383 C   0  0  0  0  0  0  0  0  0  0  0  0
  151.8269  137.8270  154.9317 C   0  0  0  0  0  0  0  0  0  0  0  0
  151.6713  136.6000  154.4110 N   0  5  0  0  0  0  0  0  0  0  0  0
  150.7829  135.7382  154.9552 C   0  0  0  0  0  0  0  0  0  0  0  0
  150.6572  135.4769  156.1537 O   0  0  0  0  0  0  0  0  0  0  0  0
  150.0000  135.1319  154.0506 N   0  0  0  0  0  0  0  0  0  0  0  0
  148.9535  134.1511  154.3288 C   0  0  0  0  0  0  0  0  0  0  0  0
  147.5439  134.7870  154.4510 C   0  0  1  0  0  0  0  0  0  0  0  0
  147.6331  136.2266  155.0151 C   0  0  0  0  0  0  0  0  0  0  0  0
  146.8356  134.7054  153.1312 N   0  3  1  0  0  0  0  0  0  0  0  0
  146.7143  133.3096  152.6335 C   0  0  0  0  0  0  0  0  0  0  0  0
  146.1433  133.2821  151.2062 C   0  0  1  0  0  0  0  0  0  0  0  0
  145.9517  131.8513  150.6914 C   0  0  0  0  0  0  0  0  0  0  0  0
  144.8727  133.9226  151.1984 O   0  0  0  0  0  0  0  0  0  0  0  0
  144.8901  135.2745  151.6504 C   0  0  2  0  0  0  0  0  0  0  0  0
  145.5485  136.2206  150.6298 C   0  0  0  0  0  0  0  0  0  0  0  0
  145.5042  135.3687  153.0623 C   0  0  0  0  0  0  0  0  0  0  0  0
  153.0076  138.2594  155.3408 N   0  0  0  0  0  0  0  0  0  0  0  0
  152.7816  139.5543  155.8229 O   0  0  0  0  0  0  0  0  0  0  0  0
  150.3337  141.0980  156.9998 H   0  0  0  0  0  0  0  0  0  0  0  0
  150.4862  141.7129  155.3525 H   0  0  0  0  0  0  0  0  0  0  0  0
  151.8583  141.8019  156.4575 H   0  0  0  0  0  0  0  0  0  0  0  0
  149.7431  138.7072  154.9119 H   0  0  0  0  0  0  0  0  0  0  0  0
  150.1442  135.3805  153.0826 H   0  0  0  0  0  0  0  0  0  0  0  0
  148.9427  133.3624  153.5747 H   0  0  0  0  0  0  0  0  0  0  0  0
  149.2479  133.6653  155.2568 H   0  0  0  0  0  0  0  0  0  0  0  0
  146.9660  134.2081  155.1736 H   0  0  0  0  0  0  0  0  0  0  0  0
  148.1465  136.2534  155.9756 H   0  0  0  0  0  0  0  0  0  0  0  0
  146.6498  136.6562  155.2055 H   0  0  0  0  0  0  0  0  0  0  0  0
  148.1738  136.8879  154.3372 H   0  0  0  0  0  0  0  0  0  0  0  0
  147.6804  132.8088  152.6284 H   0  0  0  0  0  0  0  0  0  0  0  0
  146.0709  132.7401  153.3063 H   0  0  0  0  0  0  0  0  0  0  0  0
  146.8247  133.7951  150.5271 H   0  0  0  0  0  0  0  0  0  0  0  0
  146.8995  131.3130  150.6654 H   0  0  0  0  0  0  0  0  0  0  0  0
  145.5437  131.8525  149.6803 H   0  0  0  0  0  0  0  0  0  0  0  0
  145.2652  131.2906  151.3264 H   0  0  0  0  0  0  0  0  0  0  0  0
  143.8452  135.5773  151.7256 H   0  0  0  0  0  0  0  0  0  0  0  0
  145.4235  137.2607  150.9313 H   0  0  0  0  0  0  0  0  0  0  0  0
  145.0937  136.1076  149.6453 H   0  0  0  0  0  0  0  0  0  0  0  0
  146.6185  136.0413  150.5277 H   0  0  0  0  0  0  0  0  0  0  0  0
  144.8367  134.8999  153.7871 H   0  0  0  0  0  0  0  0  0  0  0  0
  145.5727  136.4246  153.3222 H   0  0  0  0  0  0  0  0  0  0  0  0
  147.4211  135.2022  152.4748 H   0  0  0  0  0  0  0  0  0  0  0  0
  1  2  1  0  0  0  0
  1 22  1  0  0  0  0
  1 23  1  0  0  0  0
  1 24  1  0  0  0  0
  2 21  1  0  0  0  0
  2  3  2  0  0  0  0
  3  4  1  0  0  0  0
  3 25  1  0  0  0  0
  4  5  1  0  0  0  0
  4 20  2  0  0  0  0
  5  6  1  0  0  0  0
  6  7  2  0  0  0  0
  6  8  1  0  0  0  0
  8  9  1  0  0  0  0
  8 26  1  0  0  0  0
  9 10  1  0  0  0  0
  9 27  1  0  0  0  0
  9 28  1  0  0  0  0
 10 11  1  0  0  0  0
 10 12  1  0  0  0  0
 10 29  1  0  0  0  0
 11 30  1  0  0  0  0
 11 31  1  0  0  0  0
 11 32  1  0  0  0  0
 12 19  1  0  0  0  0
 12 13  1  0  0  0  0
 12 45  1  0  0  0  0
 13 14  1  0  0  0  0
 13 33  1  0  0  0  0
 13 34  1  0  0  0  0
 14 15  1  0  0  0  0
 14 16  1  0  0  0  0
 14 35  1  0  0  0  0
 15 36  1  0  0  0  0
 15 37  1  0  0  0  0
 15 38  1  0  0  0  0
 16 17  1  0  0  0  0
 17 18  1  0  0  0  0
 17 19  1  0  0  0  0
 17 39  1  0  0  0  0
 18 40  1  0  0  0  0
 18 41  1  0  0  0  0
 18 42  1  0  0  0  0
 19 43  1  0  0  0  0
 19 44  1  0  0  0  0
 20 21  1  0  0  0  0
M  CHG  1   5  -1
M  CHG  1  12   1
M  END
> <s_m_source_file>
AV-unprocessed.smi

> <i_m_source_file_index>
2061

> <i_lp_mmshare_version>
43012

> <i_f3d_flags>
0

> <s_epik_input>
W0NIM11jMVtjSF1jKG5vMSlbTkhdQyg9TylbTkhdW0NIMl1bQ0BIXShbQ0gzXSlOMltDSDJdW0NAQEhdKFtDSDNdKU9bQ0BASF0oW0NIM10pW0NIMl0y

> <s_epik_cmdline>
J2VwaWtfcHl0aG9uJywgJy1waCcsICc3LjAnLCAnLXRuJywgJzgnLCAnLW1hJywgJzIwMCcsICctbWV0YWxfYmluZGluZycsICctaW1hZScsICc8aW5maWxlLm1hZT4nLCAnLW9tYWUnLCAnPG91dGZpbGUubWFlPic=

> <r_epik_Ionization_Penalty>
6.73511

> <r_epik_Ionization_Penalty_Charging>
6.73502

> <r_epik_Ionization_Penalty_Neutral>
9.50841e-05

> <r_epik_State_Penalty>
6.93549

> <r_epik_Charging_Adjusted_Penalty>
13.6705

> <i_epik_Tot_Q>
0

> <i_epik_Tot_abs_Q>
2

> <r_epik_Metal_State_Penalty>
2.87211

> <b_epik_Metal_Only>
1

> <s_lp_Force_Field>
OPLS_2005

> <r_lp_Energy>
11.2627

> <b_lp_Chiralities_Consistent>
1

> <s_lp_Variant>
AV-unprocessed.smi:2061-26

> <Gold.Version>
5.8.1

> <Gold.Id.Protein>
6NUR|6NUR_protein|mol2

> <Gold.PLP.Fitness>
44.4796

> <Gold.PLP.PLP>
-32.4494

> <Gold.PLP.part.hbond>
-5.0000

> <Gold.PLP.part.metal>
0.0000

> <Gold.PLP.part.buried>
-0.7030

> <Gold.PLP.part.nonpolar>
-25.5102

> <Gold.PLP.part.repulsive>
0.6693

> <Gold.PLP.ligand.clash>
0.0000

> <Gold.PLP.ligand.torsion>
1.5322

> <Gold.PLP.Chemscore.Hbond>
5.0000

> <Gold.PLP.Chemscore.CHOScore>
0.0000

> <Gold.PLP.Chemscore.Metal>
0.0000

> <Gold.Chemscore.Hbonds>
donor molecule, donor type, donor heavy atom, donor atom, acceptor molecule, acceptor atom, score
      L1  H    12    45       P1  7948  2.00
      P1  H  7997  8009       L1    21  1.00
      P1  H 10752 10763       L1     5  1.50

> <Gold.PLP.Chemscore.Internal.Correction>
0.0945

> <Gold.Rescore>
     Score         DG    S(hbond)    S(metal)    S(lipo)     H(rot)  DE(clash)    DE(int)     intcor
     15.12     -16.90       2.38        0.00      63.58       1.56       0.11       1.67       ----

> <Gold.Chemscore.Fitness>
15.1206

> <Gold.Chemscore.DG>
-16.9029

> <Gold.Chemscore.ZeroCoef>
-5.4800

> <Gold.Chemscore.Hbond>
2.3849

> <Gold.Chemscore.Metal>
0.0000

> <Gold.Chemscore.Lipo>
63.5756

> <Gold.Chemscore.Internal_Hbond>
0.0000

> <Gold.Chemscore.DEClash>
0.1094

> <Gold.Chemscore.DEInternal>
1.6729

> <Gold.Chemscore.Rot>
1.5550

> <Gold.Chemscore.Internal.Correction>
   9.000000E+99

> <Gold.Chemscore.Hbonds>
donor molecule, donor type, donor heavy atom, donor atom, acceptor molecule, acceptor atom, score
      L1  H    12    45       P1  7948  0.99
      P1  H  7997  8009       L1    21  0.29
      P1  H 10752 10763       L1     5  0.09

> <Gold.Chemscore.Hbond.Weighted>
-7.9654

> <Gold.Chemscore.Metal.Weighted>
-0.0000

> <Gold.Chemscore.Lipo.Weighted>
-7.4383

> <Gold.Chemscore.Internal_Hbond.Weighted>
0.0000

> <Gold.Chemscore.DEClash.Weighted>
0.1094

> <Gold.Chemscore.DEInternal.Weighted>
1.6729

> <Gold.Chemscore.Rot.Weighted>
3.9809

> <Gold.Chemscore.Internal.Correction.Weighted>
   9.000000E+99

> <Gold.Protein.RotatedTorsions>
[ 6907 6896 6895 6894 ] final  -55.51 input  -60.11 | X-H torsion
[ 7974 7965 7964 7962 ] final  162.66 input  175.53 | X-H torsion
[ 8008 7997 7996 7995 ] final -134.47 input   59.86 | X-H torsion
[ 10167 10162 10161 10158 ] final   59.78 input  -65.29 | X-H torsion
[ 10718 10713 10712 10709 ] final  176.36 input   66.30 | X-H torsion
[ 10763 10752 10751 10750 ] final   58.97 input  -60.55 | X-H torsion
[ 11005 11000 10999 10996 ] final -134.49 input  -57.11 | X-H torsion

> <Gold.Protein.ActiveResidues>
 VAL166  LYS551  ARG553  GLY616  TRP617  ASP618  TYR619  PRO620  LYS621  CYS622 
 ASP623  PHE694  ASN695  SER759  ASP760  ASP761  ALA762  ILE779  LEU786  VAL792 
 PHE793  MET794  SER795  GLU796  ALA797  LYS798  CYS799  TRP800  GLU811  SER814 

> <Gold.Protein.RotatedAtoms>
  150.8245  134.7470  159.6800 H   0  0  0  0  0  0  0  0  0  0  0  0  # atno 6907 bound_to 6896
  152.4357  134.5687  159.9924 H   0  0  0  0  0  0  0  0  0  0  0  0  # atno 6908 bound_to 6896
  151.5862  133.3334  159.3054 H   0  0  0  0  0  0  0  0  0  0  0  0  # atno 6909 bound_to 6896
  144.7626  139.8071  143.6327 H   0  0  0  0  0  0  0  0  0  0  0  0  # atno 7974 bound_to 7965
  155.3627  140.0483  157.3046 H   0  0  0  0  0  0  0  0  0  0  0  0  # atno 8008 bound_to 7997
  154.5170  140.2211  155.9011 H   0  0  0  0  0  0  0  0  0  0  0  0  # atno 8009 bound_to 7997
  156.1647  140.3109  155.8874 H   0  0  0  0  0  0  0  0  0  0  0  0  # atno 8010 bound_to 7997
  140.1727  144.4261  150.6653 H   0  0  0  0  0  0  0  0  0  0  0  0  # atno 10167 bound_to 10162
  156.9213  130.9941  151.3004 H   0  0  0  0  0  0  0  0  0  0  0  0  # atno 10718 bound_to 10713
  152.9883  135.5588  154.5638 H   0  0  0  0  0  0  0  0  0  0  0  0  # atno 10763 bound_to 10752
  154.5052  135.2799  155.1390 H   0  0  0  0  0  0  0  0  0  0  0  0  # atno 10764 bound_to 10752
  154.2804  135.6346  153.5398 H   0  0  0  0  0  0  0  0  0  0  0  0  # atno 10765 bound_to 10752
  140.8985  134.1721  157.4477 H   0  0  0  0  0  0  0  0  0  0  0  0  # atno 11005 bound_to 11000
  146.1704  139.4852  142.9931 LP  0  0  0  0  0  0  0  0  0  0  0  0  # atno 17320 bound_to 7965
  145.6571  141.0249  143.1729 LP  0  0  0  0  0  0  0  0  0  0  0  0  # atno 17321 bound_to 7965
  140.6571  143.2241  151.5942 LP  0  0  0  0  0  0  0  0  0  0  0  0  # atno 17342 bound_to 10162
  139.5331  144.2859  152.1191 LP  0  0  0  0  0  0  0  0  0  0  0  0  # atno 17343 bound_to 10162
  157.5906  130.8441  149.8654 LP  0  0  0  0  0  0  0  0  0  0  0  0  # atno 17370 bound_to 10713
  156.0490  130.3721  150.1248 LP  0  0  0  0  0  0  0  0  0  0  0  0  # atno 17371 bound_to 10713
  139.8739  134.9888  156.5429 LP  0  0  0  0  0  0  0  0  0  0  0  0  # atno 17394 bound_to 11000
  140.8259  133.8317  155.8939 LP  0  0  0  0  0  0  0  0  0  0  0  0  # atno 17395 bound_to 11000

$$$$
