AV-unprocessed.smi:1254|AV-procd|sdf|5270|dock5
  -GOLD-   22720 4383D 1   1.00000     0.00000
 Structure written by MMmdl.
 46 47  0  0  0  0  0  0  0  0  2 V2000
  147.8075  135.4814  162.7916 C   0  0  0  0  0  0  0  0  0  0  0  0
  147.9913  135.9568  161.3913 C   0  0  0  0  0  0  0  0  0  0  0  0
  147.9216  135.3302  160.1787 C   0  0  0  0  0  0  0  0  0  0  0  0
  148.2088  136.3756  159.2614 C   0  0  0  0  0  0  0  0  0  0  0  0
  148.2413  136.1307  157.8646 N   0  0  0  0  0  0  0  0  0  0  0  0
  148.9050  135.1556  157.2208 C   0  0  0  0  0  0  0  0  0  0  0  0
  149.6327  134.3192  157.7565 O   0  0  0  0  0  0  0  0  0  0  0  0
  148.6729  135.1963  155.9007 N   0  0  0  0  0  0  0  0  0  0  0  0
  149.2215  134.2608  154.9236 C   0  0  0  0  0  0  0  0  0  0  0  0
  148.1147  133.6020  154.0807 C   0  0  1  0  0  0  0  0  0  0  0  0
  148.6863  132.9114  152.8244 C   0  0  0  0  0  0  0  0  0  0  0  0
  147.6209  132.2284  152.0496 N   0  3  2  0  0  0  0  0  0  0  0  0
  146.7848  133.1548  151.2387 C   0  0  0  0  0  0  0  0  0  0  0  0
  145.6065  132.4440  150.5387 C   0  0  0  0  0  0  0  0  0  0  0  0
  146.0384  131.7815  149.2197 C   0  0  0  0  0  0  0  0  0  0  0  0
  144.4529  133.4271  150.2903 C   0  0  0  0  0  0  0  0  0  0  0  0
  146.8552  131.3037  152.9244 C   0  0  0  0  0  0  0  0  0  0  0  0
  146.3621  132.0115  154.2006 C   0  0  0  0  0  0  0  0  0  0  0  0
  147.4624  132.6123  154.8702 O   0  0  0  0  0  0  0  0  0  0  0  0
  148.4313  137.5359  159.8595 N   0  0  0  0  0  0  0  0  0  0  0  0
  148.2927  137.2735  161.2275 O   0  0  0  0  0  0  0  0  0  0  0  0
  147.5476  134.4228  162.8129 H   0  0  0  0  0  0  0  0  0  0  0  0
  147.0104  136.0359  163.2869 H   0  0  0  0  0  0  0  0  0  0  0  0
  148.7229  135.6162  163.3681 H   0  0  0  0  0  0  0  0  0  0  0  0
  147.7030  134.2908  159.9835 H   0  0  0  0  0  0  0  0  0  0  0  0
  147.6845  136.7531  157.2982 H   0  0  0  0  0  0  0  0  0  0  0  0
  148.0663  135.9213  155.5461 H   0  0  0  0  0  0  0  0  0  0  0  0
  149.8885  134.8270  154.2730 H   0  0  0  0  0  0  0  0  0  0  0  0
  149.8387  133.5043  155.4118 H   0  0  0  0  0  0  0  0  0  0  0  0
  147.3956  134.3689  153.7871 H   0  0  0  0  0  0  0  0  0  0  0  0
  149.2173  133.6250  152.1932 H   0  0  0  0  0  0  0  0  0  0  0  0
  149.4227  132.1642  153.1237 H   0  0  0  0  0  0  0  0  0  0  0  0
  146.4198  133.9696  151.8642 H   0  0  0  0  0  0  0  0  0  0  0  0
  147.4016  133.6227  150.4700 H   0  0  0  0  0  0  0  0  0  0  0  0
  145.2186  131.6640  151.1933 H   0  0  0  0  0  0  0  0  0  0  0  0
  146.4265  132.5170  148.5142 H   0  0  0  0  0  0  0  0  0  0  0  0
  145.1980  131.2761  148.7426 H   0  0  0  0  0  0  0  0  0  0  0  0
  146.8146  131.0334  149.3819 H   0  0  0  0  0  0  0  0  0  0  0  0
  144.7592  134.2432  149.6350 H   0  0  0  0  0  0  0  0  0  0  0  0
  144.1005  133.8652  151.2248 H   0  0  0  0  0  0  0  0  0  0  0  0
  143.6037  132.9269  149.8234 H   0  0  0  0  0  0  0  0  0  0  0  0
  146.0206  130.8506  152.3912 H   0  0  0  0  0  0  0  0  0  0  0  0
  147.5150  130.4825  153.2068 H   0  0  0  0  0  0  0  0  0  0  0  0
  145.6023  132.7610  153.9769 H   0  0  0  0  0  0  0  0  0  0  0  0
  145.8990  131.2880  154.8717 H   0  0  0  0  0  0  0  0  0  0  0  0
  148.1013  131.6532  151.3721 H   0  0  0  0  0  0  0  0  0  0  0  0
  1  2  1  0  0  0  0
  1 22  1  0  0  0  0
  1 23  1  0  0  0  0
  1 24  1  0  0  0  0
  2 21  1  0  0  0  0
  2  3  2  0  0  0  0
  3  4  1  0  0  0  0
  3 25  1  0  0  0  0
  4  5  1  0  0  0  0
  4 20  2  0  0  0  0
  5  6  1  0  0  0  0
  5 26  1  0  0  0  0
  6  7  2  0  0  0  0
  6  8  1  0  0  0  0
  8  9  1  0  0  0  0
  8 27  1  0  0  0  0
  9 10  1  0  0  0  0
  9 28  1  0  0  0  0
  9 29  1  0  0  0  0
 10 19  1  0  0  0  0
 10 11  1  0  0  0  0
 10 30  1  0  0  0  0
 11 12  1  0  0  0  0
 11 31  1  0  0  0  0
 11 32  1  0  0  0  0
 12 13  1  0  0  0  0
 12 17  1  0  0  0  0
 12 46  1  0  0  0  0
 13 14  1  0  0  0  0
 13 33  1  0  0  0  0
 13 34  1  0  0  0  0
 14 15  1  0  0  0  0
 14 16  1  0  0  0  0
 14 35  1  0  0  0  0
 15 36  1  0  0  0  0
 15 37  1  0  0  0  0
 15 38  1  0  0  0  0
 16 39  1  0  0  0  0
 16 40  1  0  0  0  0
 16 41  1  0  0  0  0
 17 18  1  0  0  0  0
 17 42  1  0  0  0  0
 17 43  1  0  0  0  0
 18 19  1  0  0  0  0
 18 44  1  0  0  0  0
 18 45  1  0  0  0  0
 20 21  1  0  0  0  0
M  CHG  1  12   1
M  END
> <s_m_source_file>
AV-unprocessed.smi

> <i_m_source_file_index>
1254

> <i_lp_mmshare_version>
43012

> <i_f3d_flags>
0

> <s_epik_input>
W0NIM11jMVtjSF1jKG5vMSlbTkhdQyg9TylbTkhdW0NIMl1bQ0BASF0yW0NIMl1OKFtDSDJdW0NIMl1PMilbQ0gyXVtDSF0oW0NIM10pW0NIM10=

> <s_epik_cmdline>
J2VwaWtfcHl0aG9uJywgJy1waCcsICc3LjAnLCAnLXRuJywgJzgnLCAnLW1hJywgJzIwMCcsICctbWV0YWxfYmluZGluZycsICctaW1hZScsICc8aW5maWxlLm1hZT4nLCAnLW9tYWUnLCAnPG91dGZpbGUubWFlPic=

> <r_epik_Ionization_Penalty>
0.0986825

> <r_epik_Ionization_Penalty_Charging>
0.0986478

> <r_epik_Ionization_Penalty_Neutral>
3.46838e-05

> <r_epik_State_Penalty>
0.0887259

> <r_epik_Charging_Adjusted_Penalty>
0.187374

> <i_epik_Tot_Q>
1

> <i_epik_Tot_abs_Q>
1

> <r_epik_Metal_State_Penalty>
0.103424

> <b_epik_Metal_Only>
0

> <s_lp_Force_Field>
OPLS_2005

> <r_lp_Energy>
18.2179

> <b_lp_Chiralities_Consistent>
1

> <s_lp_Variant>
AV-unprocessed.smi:1254-2

> <Gold.Version>
5.8.1

> <Gold.Id.Protein>
6NUR|6NUR_protein|mol2

> <Gold.PLP.Fitness>
44.6593

> <Gold.PLP.PLP>
-37.4163

> <Gold.PLP.part.hbond>
-6.0000

> <Gold.PLP.part.metal>
0.0000

> <Gold.PLP.part.buried>
-3.6552

> <Gold.PLP.part.nonpolar>
-28.0576

> <Gold.PLP.part.repulsive>
0.0495

> <Gold.PLP.ligand.clash>
0.0000

> <Gold.PLP.ligand.torsion>
0.8944

> <Gold.PLP.Chemscore.Hbond>
3.0000

> <Gold.PLP.Chemscore.CHOScore>
0.0000

> <Gold.PLP.Chemscore.Metal>
0.0000

> <Gold.Chemscore.Hbonds>
donor molecule, donor type, donor heavy atom, donor atom, acceptor molecule, acceptor atom, score
      L1  H    12    46       P1 10747  1.00
      P1  H  6896  6908       L1     7  1.00
      P1  H  6931  6943       L1    21  0.67

> <Gold.PLP.Chemscore.Internal.Correction>
0.0317

> <Gold.Rescore>
     Score         DG    S(hbond)    S(metal)    S(lipo)     H(rot)  DE(clash)    DE(int)     intcor
     18.21     -19.43       2.46        0.00      86.86       1.73       0.29       0.94       ----

> <Gold.Chemscore.Fitness>
18.2072

> <Gold.Chemscore.DG>
-19.4317

> <Gold.Chemscore.ZeroCoef>
-5.4800

> <Gold.Chemscore.Hbond>
2.4596

> <Gold.Chemscore.Metal>
0.0000

> <Gold.Chemscore.Lipo>
86.8642

> <Gold.Chemscore.Internal_Hbond>
0.0000

> <Gold.Chemscore.DEClash>
0.2884

> <Gold.Chemscore.DEInternal>
0.9362

> <Gold.Chemscore.Rot>
1.7291

> <Gold.Chemscore.Internal.Correction>
   9.000000E+99

> <Gold.Chemscore.Hbonds>
donor molecule, donor type, donor heavy atom, donor atom, acceptor molecule, acceptor atom, score
      L1  H    12    46       P1 10747  0.99
      P1  H  6896  6908       L1     7  0.98
      P1  H  6931  6943       L1    21  0.36

> <Gold.Chemscore.Hbond.Weighted>
-8.2151

> <Gold.Chemscore.Metal.Weighted>
-0.0000

> <Gold.Chemscore.Lipo.Weighted>
-10.1631

> <Gold.Chemscore.Internal_Hbond.Weighted>
0.0000

> <Gold.Chemscore.DEClash.Weighted>
0.2884

> <Gold.Chemscore.DEInternal.Weighted>
0.9362

> <Gold.Chemscore.Rot.Weighted>
4.4265

> <Gold.Chemscore.Internal.Correction.Weighted>
   9.000000E+99

> <Gold.Protein.RotatedTorsions>
[ 6907 6896 6895 6894 ] final  132.77 input  -60.11 | X-H torsion
[ 7974 7965 7964 7962 ] final  165.62 input  175.53 | X-H torsion
[ 8008 7997 7996 7995 ] final  -36.19 input   59.86 | X-H torsion
[ 10167 10162 10161 10158 ] final   -9.93 input  -65.29 | X-H torsion
[ 10718 10713 10712 10709 ] final   26.73 input   66.30 | X-H torsion
[ 10763 10752 10751 10750 ] final  -61.28 input  -60.55 | X-H torsion
[ 11005 11000 10999 10996 ] final -165.54 input  -57.11 | X-H torsion

> <Gold.Protein.ActiveResidues>
 VAL166  LYS551  ARG553  GLY616  TRP617  ASP618  TYR619  PRO620  LYS621  CYS622 
 ASP623  PHE694  ASN695  SER759  ASP760  ASP761  ALA762  ILE779  LEU786  VAL792 
 PHE793  MET794  SER795  GLU796  ALA797  LYS798  CYS799  TRP800  GLU811  SER814 

> <Gold.Protein.RotatedAtoms>
  152.3289  133.5936  159.5795 H   0  0  0  0  0  0  0  0  0  0  0  0  # atno 6907 bound_to 6896
  150.7412  133.9898  159.3612 H   0  0  0  0  0  0  0  0  0  0  0  0  # atno 6908 bound_to 6896
  151.7775  135.0771  160.0420 H   0  0  0  0  0  0  0  0  0  0  0  0  # atno 6909 bound_to 6896
  144.7495  139.8496  143.6371 H   0  0  0  0  0  0  0  0  0  0  0  0  # atno 7974 bound_to 7965
  154.4078  140.1637  156.2333 H   0  0  0  0  0  0  0  0  0  0  0  0  # atno 8008 bound_to 7997
  155.9264  140.3418  155.6191 H   0  0  0  0  0  0  0  0  0  0  0  0  # atno 8009 bound_to 7997
  155.7160  140.0762  157.2341 H   0  0  0  0  0  0  0  0  0  0  0  0  # atno 8010 bound_to 7997
  140.7100  143.5804  150.8998 H   0  0  0  0  0  0  0  0  0  0  0  0  # atno 10167 bound_to 10162
  157.2107  130.6933  149.6227 H   0  0  0  0  0  0  0  0  0  0  0  0  # atno 10718 bound_to 10713
  154.2822  135.6269  153.5352 H   0  0  0  0  0  0  0  0  0  0  0  0  # atno 10763 bound_to 10752
  152.9864  135.5636  154.5482 H   0  0  0  0  0  0  0  0  0  0  0  0  # atno 10764 bound_to 10752
  154.5075  135.2875  155.1345 H   0  0  0  0  0  0  0  0  0  0  0  0  # atno 10765 bound_to 10752
  140.5745  134.5204  157.5168 H   0  0  0  0  0  0  0  0  0  0  0  0  # atno 11005 bound_to 11000
  146.1425  139.4486  143.0100 LP  0  0  0  0  0  0  0  0  0  0  0  0  # atno 17320 bound_to 7965
  145.6996  141.0140  143.1511 LP  0  0  0  0  0  0  0  0  0  0  0  0  # atno 17321 bound_to 7965
  139.9530  143.6251  152.3024 LP  0  0  0  0  0  0  0  0  0  0  0  0  # atno 17342 bound_to 10162
  139.6776  144.7657  151.1668 LP  0  0  0  0  0  0  0  0  0  0  0  0  # atno 17343 bound_to 10162
  155.9691  130.4552  150.5879 LP  0  0  0  0  0  0  0  0  0  0  0  0  # atno 17370 bound_to 10713
  157.3675  131.0760  151.1585 LP  0  0  0  0  0  0  0  0  0  0  0  0  # atno 17371 bound_to 10713
  139.9346  134.7900  156.0838 LP  0  0  0  0  0  0  0  0  0  0  0  0  # atno 17394 bound_to 11000
  141.1035  133.6668  156.2809 LP  0  0  0  0  0  0  0  0  0  0  0  0  # atno 17395 bound_to 11000

$$$$
