AV-unprocessed.smi:415|AV-procd|sdf|2518|dock2
  -GOLD-   2262022473D 1   1.00000     0.00000
 Structure written by MMmdl.
 53 54  0  0  0  0  0  0  0  0  1 V2000
  149.6087  133.4268  154.8876 C   0  0  0  0  0  0  0  0  0  0  0  0
  149.3978  134.8238  154.7868 O   0  0  0  0  0  0  0  0  0  0  0  0
  148.5798  135.3281  155.8293 C   0  0  0  0  0  0  0  0  0  0  0  0
  148.4885  136.8597  155.7319 C   0  0  0  0  0  0  0  0  0  0  0  0
  149.7843  137.4999  155.6028 N   0  0  0  0  0  0  0  0  0  0  0  0
  150.1798  138.1834  154.4565 C   0  0  0  0  0  0  0  0  0  0  0  0
  149.3067  138.2897  153.3887 N   0  0  0  0  0  0  0  0  0  0  0  0
  151.3991  138.7588  154.3641 C   0  0  0  0  0  0  0  0  0  0  0  0
  152.3624  138.6985  155.4542 C   0  0  0  0  0  0  0  0  0  0  0  0
  153.4901  139.1865  155.3767 O   0  0  0  0  0  0  0  0  0  0  0  0
  151.9290  138.0268  156.6202 N   0  0  0  0  0  0  0  0  0  0  0  0
  152.8652  137.9130  157.7638 C   0  0  0  0  0  0  0  0  0  0  0  0
  153.3023  139.2566  158.3754 C   0  0  0  0  0  0  0  0  0  0  0  0
  154.4461  139.3686  158.8141 O   0  0  0  0  0  0  0  0  0  0  0  0
  152.4088  140.2611  158.3916 N   0  0  0  0  0  0  0  0  0  0  0  0
  152.6340  141.6204  158.8758 C   0  0  2  0  0  0  0  0  0  0  0  0
  153.0608  141.5477  160.3545 C   0  0  0  0  0  0  0  0  0  0  0  0
  153.2231  142.9424  160.9740 C   0  0  0  0  0  0  0  0  0  0  0  0
  151.9424  143.7753  160.8070 C   0  0  0  0  0  0  0  0  0  0  0  0
  151.5071  143.8863  159.3315 C   0  0  1  0  0  0  0  0  0  0  0  0
  152.4313  144.8308  158.5363 C   0  0  0  0  0  0  0  0  0  0  0  0
  151.3499  142.4750  158.7051 C   0  0  1  0  0  0  0  0  0  0  0  0
  150.8482  142.5313  157.2482 C   0  0  0  0  0  0  0  0  0  0  0  0
  150.6523  137.4272  156.7227 C   0  0  0  0  0  0  0  0  0  0  0  0
  150.3217  136.8474  157.7607 O   0  0  0  0  0  0  0  0  0  0  0  0
  150.2349  133.0906  154.0613 H   0  0  0  0  0  0  0  0  0  0  0  0
  148.6658  132.8803  154.8392 H   0  0  0  0  0  0  0  0  0  0  0  0
  150.1152  133.1714  155.8193 H   0  0  0  0  0  0  0  0  0  0  0  0
  147.5800  134.9007  155.7410 H   0  0  0  0  0  0  0  0  0  0  0  0
  148.9737  135.0314  156.8025 H   0  0  0  0  0  0  0  0  0  0  0  0
  147.8430  137.1874  154.9157 H   0  0  0  0  0  0  0  0  0  0  0  0
  148.0335  137.2769  156.6299 H   0  0  0  0  0  0  0  0  0  0  0  0
  148.3822  137.8835  153.4137 H   0  0  0  0  0  0  0  0  0  0  0  0
  149.5659  138.7583  152.5326 H   0  0  0  0  0  0  0  0  0  0  0  0
  151.6779  139.2782  153.4583 H   0  0  0  0  0  0  0  0  0  0  0  0
  152.4417  137.3011  158.5616 H   0  0  0  0  0  0  0  0  0  0  0  0
  153.7634  137.3674  157.4704 H   0  0  0  0  0  0  0  0  0  0  0  0
  151.4940  140.0706  158.0095 H   0  0  0  0  0  0  0  0  0  0  0  0
  153.4438  142.0864  158.3127 H   0  0  0  0  0  0  0  0  0  0  0  0
  152.3172  140.9890  160.9252 H   0  0  0  0  0  0  0  0  0  0  0  0
  153.9968  140.9951  160.4460 H   0  0  0  0  0  0  0  0  0  0  0  0
  153.4670  142.8492  162.0327 H   0  0  0  0  0  0  0  0  0  0  0  0
  154.0668  143.4552  160.5112 H   0  0  0  0  0  0  0  0  0  0  0  0
  151.1408  143.3114  161.3835 H   0  0  0  0  0  0  0  0  0  0  0  0
  152.0843  144.7681  161.2355 H   0  0  0  0  0  0  0  0  0  0  0  0
  150.5216  144.3540  159.3297 H   0  0  0  0  0  0  0  0  0  0  0  0
  153.4405  144.4324  158.4357 H   0  0  0  0  0  0  0  0  0  0  0  0
  152.5097  145.8005  159.0283 H   0  0  0  0  0  0  0  0  0  0  0  0
  152.0479  145.0156  157.5332 H   0  0  0  0  0  0  0  0  0  0  0  0
  150.5617  141.9774  159.2730 H   0  0  0  0  0  0  0  0  0  0  0  0
  151.6241  142.8869  156.5702 H   0  0  0  0  0  0  0  0  0  0  0  0
  149.9885  143.1952  157.1533 H   0  0  0  0  0  0  0  0  0  0  0  0
  150.5332  141.5484  156.8964 H   0  0  0  0  0  0  0  0  0  0  0  0
  1  2  1  0  0  0  0
  1 26  1  0  0  0  0
  1 27  1  0  0  0  0
  1 28  1  0  0  0  0
  2  3  1  0  0  0  0
  3  4  1  0  0  0  0
  3 29  1  0  0  0  0
  3 30  1  0  0  0  0
  4  5  1  0  0  0  0
  4 31  1  0  0  0  0
  4 32  1  0  0  0  0
  5 24  1  0  0  0  0
  5  6  1  0  0  0  0
  6  7  1  0  0  0  0
  6  8  2  0  0  0  0
  7 33  1  0  0  0  0
  7 34  1  0  0  0  0
  8  9  1  0  0  0  0
  8 35  1  0  0  0  0
  9 10  2  0  0  0  0
  9 11  1  0  0  0  0
 11 12  1  0  0  0  0
 11 24  1  0  0  0  0
 12 13  1  0  0  0  0
 12 36  1  0  0  0  0
 12 37  1  0  0  0  0
 13 14  2  0  0  0  0
 13 15  1  0  0  0  0
 15 16  1  0  0  0  0
 15 38  1  0  0  0  0
 16 22  1  0  0  0  0
 16 17  1  0  0  0  0
 16 39  1  0  0  0  0
 17 18  1  0  0  0  0
 17 40  1  0  0  0  0
 17 41  1  0  0  0  0
 18 19  1  0  0  0  0
 18 42  1  0  0  0  0
 18 43  1  0  0  0  0
 19 20  1  0  0  0  0
 19 44  1  0  0  0  0
 19 45  1  0  0  0  0
 20 21  1  0  0  0  0
 20 22  1  0  0  0  0
 20 46  1  0  0  0  0
 21 47  1  0  0  0  0
 21 48  1  0  0  0  0
 21 49  1  0  0  0  0
 22 23  1  0  0  0  0
 22 50  1  0  0  0  0
 23 51  1  0  0  0  0
 23 52  1  0  0  0  0
 23 53  1  0  0  0  0
 24 25  2  0  0  0  0
M  END
> <s_m_source_file>
AV-unprocessed.smi

> <i_m_source_file_index>
415

> <i_lp_mmshare_version>
43012

> <i_f3d_flags>
0

> <s_epik_input>
W0NIM11PW0NIMl1bQ0gyXW4xYyhbTkgyXSlbY0hdYyg9TyluKGMxPU8pW0NIMl1DKD1PKVtOSF1bQ0BASF0yW0NIMl1bQ0gyXVtDSDJdW0NAQEhdKFtDSDNdKVtDQEhdMltDSDNd

> <s_epik_cmdline>
J2VwaWtfcHl0aG9uJywgJy1waCcsICc3LjAnLCAnLXRuJywgJzgnLCAnLW1hJywgJzIwMCcsICctbWV0YWxfYmluZGluZycsICctaW1hZScsICc8aW5maWxlLm1hZT4nLCAnLW9tYWUnLCAnPG91dGZpbGUubWFlPic=

> <r_lp_tautomer_probability>
1

> <r_epik_Ionization_Penalty>
8.6647e-06

> <r_epik_Ionization_Penalty_Charging>
1.81162e-08

> <r_epik_Ionization_Penalty_Neutral>
8.64658e-06

> <r_epik_State_Penalty>
-0

> <r_epik_Charging_Adjusted_Penalty>
1.81162e-08

> <i_epik_Tot_Q>
0

> <i_epik_Tot_abs_Q>
0

> <r_epik_Metal_State_Penalty>
-0

> <b_epik_Metal_Only>
0

> <s_lp_Force_Field>
OPLS_2005

> <r_lp_Energy>
23.489

> <b_lp_Chiralities_Consistent>
1

> <s_lp_Variant>
AV-unprocessed.smi:415-1

> <Gold.Version>
5.8.1

> <Gold.Id.Protein>
6NUR|6NUR_protein|mol2

> <Gold.PLP.Fitness>
52.1590

> <Gold.PLP.PLP>
-43.9664

> <Gold.PLP.part.hbond>
-3.8547

> <Gold.PLP.part.metal>
0.0000

> <Gold.PLP.part.buried>
-5.9538

> <Gold.PLP.part.nonpolar>
-34.3465

> <Gold.PLP.part.repulsive>
0.4573

> <Gold.PLP.ligand.clash>
0.0000

> <Gold.PLP.ligand.torsion>
0.4355

> <Gold.PLP.Chemscore.Hbond>
3.0000

> <Gold.PLP.Chemscore.CHOScore>
0.0000

> <Gold.PLP.Chemscore.Metal>
0.0000

> <Gold.Chemscore.Hbonds>
donor molecule, donor type, donor heavy atom, donor atom, acceptor molecule, acceptor atom, score
      L1  H     7    34       P1  7957  1.00
      P1  H  7997  8008       L1    14  0.85
      P1  H  7997  8009       L1    10  0.94

> <Gold.PLP.Chemscore.Internal.Correction>
0.0636

> <Gold.Rescore>
     Score         DG    S(hbond)    S(metal)    S(lipo)     H(rot)  DE(clash)    DE(int)     intcor
     18.71     -21.02       2.74        0.00     104.11       2.26       0.91       1.40       ----

> <Gold.Chemscore.Fitness>
18.7081

> <Gold.Chemscore.DG>
-21.0199

> <Gold.Chemscore.ZeroCoef>
-5.4800

> <Gold.Chemscore.Hbond>
2.7415

> <Gold.Chemscore.Metal>
0.0000

> <Gold.Chemscore.Lipo>
104.1059

> <Gold.Chemscore.Internal_Hbond>
0.0000

> <Gold.Chemscore.DEClash>
0.9128

> <Gold.Chemscore.DEInternal>
1.3990

> <Gold.Chemscore.Rot>
2.2645

> <Gold.Chemscore.Internal.Correction>
   9.000000E+99

> <Gold.Chemscore.Hbonds>
donor molecule, donor type, donor heavy atom, donor atom, acceptor molecule, acceptor atom, score
      L1  H     7    34       P1  7957  0.70
      P1  H  7997  8008       L1    14  0.15
      P1  H  7997  8009       L1    10  0.85

> <Gold.Chemscore.Hbond.Weighted>
-9.1567

> <Gold.Chemscore.Metal.Weighted>
-0.0000

> <Gold.Chemscore.Lipo.Weighted>
-12.1804

> <Gold.Chemscore.Internal_Hbond.Weighted>
0.0000

> <Gold.Chemscore.DEClash.Weighted>
0.9128

> <Gold.Chemscore.DEInternal.Weighted>
1.3990

> <Gold.Chemscore.Rot.Weighted>
5.7972

> <Gold.Chemscore.Internal.Correction.Weighted>
   9.000000E+99

> <Gold.Protein.RotatedTorsions>
[ 6907 6896 6895 6894 ] final  -77.42 input  -60.11 | X-H torsion
[ 7974 7965 7964 7962 ] final  107.05 input  175.53 | X-H torsion
[ 8008 7997 7996 7995 ] final -125.61 input   59.86 | X-H torsion
[ 10167 10162 10161 10158 ] final  131.73 input  -65.29 | X-H torsion
[ 10718 10713 10712 10709 ] final  -29.48 input   66.30 | X-H torsion
[ 10763 10752 10751 10750 ] final  148.47 input  -60.55 | X-H torsion
[ 11005 11000 10999 10996 ] final  141.94 input  -57.11 | X-H torsion

> <Gold.Protein.ActiveResidues>
 VAL166  LYS551  ARG553  GLY616  TRP617  ASP618  TYR619  PRO620  LYS621  CYS622 
 ASP623  PHE694  ASN695  SER759  ASP760  ASP761  ALA762  ILE779  LEU786  VAL792 
 PHE793  MET794  SER795  GLU796  ALA797  LYS798  CYS799  TRP800  GLU811  SER814 

> <Gold.Protein.RotatedAtoms>
  150.6999  134.4425  159.5298 H   0  0  0  0  0  0  0  0  0  0  0  0  # atno 6907 bound_to 6896
  152.2132  134.8479  160.0504 H   0  0  0  0  0  0  0  0  0  0  0  0  # atno 6908 bound_to 6896
  151.9357  133.3588  159.3984 H   0  0  0  0  0  0  0  0  0  0  0  0  # atno 6909 bound_to 6896
  145.2987  139.2576  143.3825 H   0  0  0  0  0  0  0  0  0  0  0  0  # atno 7974 bound_to 7965
  155.2161  140.0420  157.2941 H   0  0  0  0  0  0  0  0  0  0  0  0  # atno 8008 bound_to 7997
  154.5980  140.2444  155.7802 H   0  0  0  0  0  0  0  0  0  0  0  0  # atno 8009 bound_to 7997
  156.2303  140.2940  156.0179 H   0  0  0  0  0  0  0  0  0  0  0  0  # atno 8010 bound_to 7997
  139.5371  144.6693  151.4750 H   0  0  0  0  0  0  0  0  0  0  0  0  # atno 10167 bound_to 10162
  156.4119  130.4410  149.7246 H   0  0  0  0  0  0  0  0  0  0  0  0  # atno 10718 bound_to 10713
  154.0552  135.2878  155.3334 H   0  0  0  0  0  0  0  0  0  0  0  0  # atno 10763 bound_to 10752
  154.6843  135.5251  153.8309 H   0  0  0  0  0  0  0  0  0  0  0  0  # atno 10764 bound_to 10752
  153.0544  135.6589  154.0745 H   0  0  0  0  0  0  0  0  0  0  0  0  # atno 10765 bound_to 10752
  140.0439  134.9291  157.0894 H   0  0  0  0  0  0  0  0  0  0  0  0  # atno 11005 bound_to 11000
  146.3159  140.3496  142.8655 LP  0  0  0  0  0  0  0  0  0  0  0  0  # atno 17320 bound_to 7965
  144.9111  140.7759  143.5806 LP  0  0  0  0  0  0  0  0  0  0  0  0  # atno 17321 bound_to 7965
  140.6582  143.8554  150.6859 LP  0  0  0  0  0  0  0  0  0  0  0  0  # atno 17342 bound_to 10162
  140.1940  143.4013  152.1842 LP  0  0  0  0  0  0  0  0  0  0  0  0  # atno 17343 bound_to 10162
  156.4221  130.7774  151.2791 LP  0  0  0  0  0  0  0  0  0  0  0  0  # atno 17370 bound_to 10713
  157.7507  131.0180  150.3607 LP  0  0  0  0  0  0  0  0  0  0  0  0  # atno 17371 bound_to 10713
  140.4025  134.2068  155.7163 LP  0  0  0  0  0  0  0  0  0  0  0  0  # atno 17394 bound_to 11000
  141.1897  133.8233  157.0946 LP  0  0  0  0  0  0  0  0  0  0  0  0  # atno 17395 bound_to 11000

$$$$
