AV-unprocessed.smi:3263|AV-procd|sdf|12492|dock8
  -GOLD-   2272018393D 1   1.00000     0.00000
 Structure written by MMmdl.
 42 44  0  0  0  0  0  0  0  0  2 V2000
  150.8386  140.5521  156.5093 O   0  0  0  0  0  0  0  0  0  0  0  0
  150.4934  141.6940  156.2054 C   0  0  0  0  0  0  0  0  0  0  0  0
  151.2610  142.9065  156.7431 C   0  0  0  0  0  0  0  0  0  0  0  0
  151.3303  142.9550  158.2862 C   0  0  2  0  0  0  0  0  0  0  0  0
  150.2447  143.8417  158.9439 C   0  0  0  0  0  0  0  0  0  0  0  0
  151.0654  144.8162  159.8076 C   0  0  1  0  0  0  0  0  0  0  0  0
  151.6996  144.0538  160.9859 C   0  0  0  0  0  0  0  0  0  0  0  0
  152.8087  143.2331  160.3007 C   0  0  0  0  0  0  0  0  0  0  0  0
  152.6327  143.5998  158.8147 C   0  0  2  0  0  0  0  0  0  0  0  0
  152.2692  145.0787  158.9126 C   0  0  0  0  0  0  0  0  0  0  0  0
  149.4526  141.9568  155.4005 N   0  0  0  0  0  0  0  0  0  0  0  0
  148.5893  140.9503  154.7947 C   0  0  0  0  0  0  0  0  0  0  0  0
  147.6239  141.5730  153.7725 C   0  0  0  0  0  0  0  0  0  0  0  0
  146.5098  142.3557  154.4397 C   0  0  0  0  0  0  0  0  0  0  0  0
  145.6048  143.1494  153.7021 C   0  0  0  0  0  0  0  0  0  0  0  0
  144.5856  143.8465  154.3840 C   0  0  0  0  0  0  0  0  0  0  0  0
  144.4924  143.7351  155.7869 C   0  0  0  0  0  0  0  0  0  0  0  0
  145.4227  142.9282  156.4734 C   0  0  0  0  0  0  0  0  0  0  0  0
  146.3849  142.2759  155.7844 N   0  3  0  0  0  0  0  0  0  0  0  0
  152.2715  142.8661  156.3349 H   0  0  0  0  0  0  0  0  0  0  0  0
  150.8125  143.8231  156.3573 H   0  0  0  0  0  0  0  0  0  0  0  0
  151.2568  141.9347  158.6662 H   0  0  0  0  0  0  0  0  0  0  0  0
  149.6755  144.3965  158.1967 H   0  0  0  0  0  0  0  0  0  0  0  0
  149.5352  143.2597  159.5333 H   0  0  0  0  0  0  0  0  0  0  0  0
  150.5116  145.7057  160.1086 H   0  0  0  0  0  0  0  0  0  0  0  0
  152.1277  144.7447  161.7133 H   0  0  0  0  0  0  0  0  0  0  0  0
  150.9766  143.4237  161.5052 H   0  0  0  0  0  0  0  0  0  0  0  0
  153.7904  143.5437  160.6603 H   0  0  0  0  0  0  0  0  0  0  0  0
  152.7113  142.1625  160.4838 H   0  0  0  0  0  0  0  0  0  0  0  0
  153.5134  143.3806  158.2103 H   0  0  0  0  0  0  0  0  0  0  0  0
  152.0069  145.5314  157.9551 H   0  0  0  0  0  0  0  0  0  0  0  0
  153.0413  145.6833  159.3920 H   0  0  0  0  0  0  0  0  0  0  0  0
  149.2383  142.9237  155.2030 H   0  0  0  0  0  0  0  0  0  0  0  0
  149.1951  140.1737  154.3244 H   0  0  0  0  0  0  0  0  0  0  0  0
  148.0273  140.4641  155.5925 H   0  0  0  0  0  0  0  0  0  0  0  0
  148.1677  142.2354  153.0975 H   0  0  0  0  0  0  0  0  0  0  0  0
  147.1825  140.7949  153.1483 H   0  0  0  0  0  0  0  0  0  0  0  0
  145.6872  143.2228  152.6272 H   0  0  0  0  0  0  0  0  0  0  0  0
  143.8830  144.4581  153.8372 H   0  0  0  0  0  0  0  0  0  0  0  0
  143.7182  144.2598  156.3276 H   0  0  0  0  0  0  0  0  0  0  0  0
  145.4257  142.7852  157.5442 H   0  0  0  0  0  0  0  0  0  0  0  0
  147.0462  141.6965  156.3018 H   0  0  0  0  0  0  0  0  0  0  0  0
  1  2  2  0  0  0  0
  2  3  1  0  0  0  0
  2 11  1  0  0  0  0
  3  4  1  0  0  0  0
  3 20  1  0  0  0  0
  3 21  1  0  0  0  0
  4  9  1  0  0  0  0
  4  5  1  0  0  0  0
  4 22  1  0  0  0  0
  5  6  1  0  0  0  0
  5 23  1  0  0  0  0
  5 24  1  0  0  0  0
  6 10  1  0  0  0  0
  6  7  1  0  0  0  0
  6 25  1  0  0  0  0
  7  8  1  0  0  0  0
  7 26  1  0  0  0  0
  7 27  1  0  0  0  0
  8  9  1  0  0  0  0
  8 28  1  0  0  0  0
  8 29  1  0  0  0  0
  9 10  1  0  0  0  0
  9 30  1  0  0  0  0
 10 31  1  0  0  0  0
 10 32  1  0  0  0  0
 11 12  1  0  0  0  0
 11 33  1  0  0  0  0
 12 13  1  0  0  0  0
 12 34  1  0  0  0  0
 12 35  1  0  0  0  0
 13 14  1  0  0  0  0
 13 36  1  0  0  0  0
 13 37  1  0  0  0  0
 14 19  1  0  0  0  0
 14 15  2  0  0  0  0
 15 16  1  0  0  0  0
 15 38  1  0  0  0  0
 16 17  2  0  0  0  0
 16 39  1  0  0  0  0
 17 18  1  0  0  0  0
 17 40  1  0  0  0  0
 18 19  2  0  0  0  0
 18 41  1  0  0  0  0
 19 42  1  0  0  0  0
M  CHG  1  19   1
M  END
> <s_m_source_file>
AV-unprocessed.smi

> <i_m_source_file_index>
3263

> <i_lp_mmshare_version>
43012

> <i_f3d_flags>
0

> <s_epik_input>
W0NIMl0xW0NIMl1bQ0BASF0oW0NIMl0yKVtDQEBIXShbQ0gyXVtDQEhdMTIpW0NIMl1DKD1PKVtOSF1bQ0gyXVtDSDJdYzNbY0hdW2NIXVtjSF1bY0hdbjM=

> <s_epik_cmdline>
J2VwaWtfcHl0aG9uJywgJy1waCcsICc3LjAnLCAnLXRuJywgJzgnLCAnLW1hJywgJzIwMCcsICctbWV0YWxfYmluZGluZycsICctaW1hZScsICc8aW5maWxlLm1hZT4nLCAnLW9tYWUnLCAnPG91dGZpbGUubWFlPic=

> <r_epik_Ionization_Penalty>
1.83579

> <r_epik_Ionization_Penalty_Charging>
1.83579

> <r_epik_Ionization_Penalty_Neutral>
2.47288e-08

> <r_epik_State_Penalty>
1.95213

> <r_epik_Charging_Adjusted_Penalty>
3.78793

> <i_epik_Tot_Q>
1

> <i_epik_Tot_abs_Q>
1

> <r_epik_Metal_State_Penalty>
1.97847

> <b_epik_Metal_Only>
0

> <s_lp_Force_Field>
OPLS_2005

> <r_lp_Energy>
51.8999

> <b_lp_Chiralities_Consistent>
1

> <s_lp_Variant>
AV-unprocessed.smi:3263-7

> <Gold.Version>
5.8.1

> <Gold.Id.Protein>
6NUR|6NUR_protein|mol2

> <Gold.PLP.Fitness>
49.8838

> <Gold.PLP.PLP>
-48.0807

> <Gold.PLP.part.hbond>
-1.2145

> <Gold.PLP.part.metal>
0.0000

> <Gold.PLP.part.buried>
-8.0910

> <Gold.PLP.part.nonpolar>
-39.3365

> <Gold.PLP.part.repulsive>
0.2089

> <Gold.PLP.ligand.clash>
0.0000

> <Gold.PLP.ligand.torsion>
0.6065

> <Gold.PLP.Chemscore.Hbond>
1.0000

> <Gold.PLP.Chemscore.CHOScore>
0.0000

> <Gold.PLP.Chemscore.Metal>
0.0000

> <Gold.Chemscore.Hbonds>
donor molecule, donor type, donor heavy atom, donor atom, acceptor molecule, acceptor atom, score
      L1  H    11    33       P1  8028  1.00

> <Gold.PLP.Chemscore.Internal.Correction>
0.0161

> <Gold.Rescore>
     Score         DG    S(hbond)    S(metal)    S(lipo)     H(rot)  DE(clash)    DE(int)     intcor
     18.99     -19.97       0.96        0.00     130.62       1.56       0.47       0.52       ----

> <Gold.Chemscore.Fitness>
18.9878

> <Gold.Chemscore.DG>
-19.9717

> <Gold.Chemscore.ZeroCoef>
-5.4800

> <Gold.Chemscore.Hbond>
0.9620

> <Gold.Chemscore.Metal>
0.0000

> <Gold.Chemscore.Lipo>
130.6173

> <Gold.Chemscore.Internal_Hbond>
0.0000

> <Gold.Chemscore.DEClash>
0.4664

> <Gold.Chemscore.DEInternal>
0.5175

> <Gold.Chemscore.Rot>
1.5640

> <Gold.Chemscore.Internal.Correction>
   9.000000E+99

> <Gold.Chemscore.Hbonds>
donor molecule, donor type, donor heavy atom, donor atom, acceptor molecule, acceptor atom, score
      L1  H    11    33       P1  8028  0.98

> <Gold.Chemscore.Hbond.Weighted>
-3.2132

> <Gold.Chemscore.Metal.Weighted>
-0.0000

> <Gold.Chemscore.Lipo.Weighted>
-15.2822

> <Gold.Chemscore.Internal_Hbond.Weighted>
0.0000

> <Gold.Chemscore.DEClash.Weighted>
0.4664

> <Gold.Chemscore.DEInternal.Weighted>
0.5175

> <Gold.Chemscore.Rot.Weighted>
4.0038

> <Gold.Chemscore.Internal.Correction.Weighted>
   9.000000E+99

> <Gold.Protein.RotatedTorsions>
[ 6907 6896 6895 6894 ] final  118.02 input  -60.11 | X-H torsion
[ 7974 7965 7964 7962 ] final  -29.21 input  175.53 | X-H torsion
[ 8008 7997 7996 7995 ] final   70.57 input   59.86 | X-H torsion
[ 10167 10162 10161 10158 ] final  179.40 input  -65.29 | X-H torsion
[ 10718 10713 10712 10709 ] final   92.27 input   66.30 | X-H torsion
[ 10763 10752 10751 10750 ] final -121.78 input  -60.55 | X-H torsion
[ 11005 11000 10999 10996 ] final -168.71 input  -57.11 | X-H torsion

> <Gold.Protein.ActiveResidues>
 VAL166  LYS551  ARG553  GLY616  TRP617  ASP618  TYR619  PRO620  LYS621  CYS622 
 ASP623  PHE694  ASN695  SER759  ASP760  ASP761  ALA762  ILE779  LEU786  VAL792 
 PHE793  MET794  SER795  GLU796  ALA797  LYS798  CYS799  TRP800  GLU811  SER814 

> <Gold.Protein.RotatedAtoms>
  152.4572  133.7748  159.6818 H   0  0  0  0  0  0  0  0  0  0  0  0  # atno 6907 bound_to 6896
  150.8503  133.7788  159.3034 H   0  0  0  0  0  0  0  0  0  0  0  0  # atno 6908 bound_to 6896
  151.5385  135.1071  159.9972 H   0  0  0  0  0  0  0  0  0  0  0  0  # atno 6909 bound_to 6896
  146.1233  140.5382  142.8726 H   0  0  0  0  0  0  0  0  0  0  0  0  # atno 7974 bound_to 7965
  155.7408  140.3490  155.5103 H   0  0  0  0  0  0  0  0  0  0  0  0  # atno 8008 bound_to 7997
  155.9095  140.1048  157.1311 H   0  0  0  0  0  0  0  0  0  0  0  0  # atno 8009 bound_to 7997
  154.4054  140.1270  156.4526 H   0  0  0  0  0  0  0  0  0  0  0  0  # atno 8010 bound_to 7997
  139.5335  144.2566  152.0741 H   0  0  0  0  0  0  0  0  0  0  0  0  # atno 10167 bound_to 10162
  157.6959  131.0437  150.3855 H   0  0  0  0  0  0  0  0  0  0  0  0  # atno 10718 bound_to 10713
  154.8676  135.4156  154.2676 H   0  0  0  0  0  0  0  0  0  0  0  0  # atno 10763 bound_to 10752
  153.3592  135.7002  153.6731 H   0  0  0  0  0  0  0  0  0  0  0  0  # atno 10764 bound_to 10752
  153.5639  135.3604  155.2783 H   0  0  0  0  0  0  0  0  0  0  0  0  # atno 10765 bound_to 10752
  140.5390  134.5542  157.5094 H   0  0  0  0  0  0  0  0  0  0  0  0  # atno 11005 bound_to 11000
  144.7618  140.5439  143.6730 LP  0  0  0  0  0  0  0  0  0  0  0  0  # atno 17320 bound_to 7965
  145.5419  139.1475  143.3442 LP  0  0  0  0  0  0  0  0  0  0  0  0  # atno 17321 bound_to 7965
  140.2033  144.4636  150.6421 LP  0  0  0  0  0  0  0  0  0  0  0  0  # atno 17342 bound_to 10162
  140.6527  143.2229  151.6040 LP  0  0  0  0  0  0  0  0  0  0  0  0  # atno 17343 bound_to 10162
  156.4264  130.3963  149.6790 LP  0  0  0  0  0  0  0  0  0  0  0  0  # atno 17370 bound_to 10713
  156.4022  130.7680  151.2689 LP  0  0  0  0  0  0  0  0  0  0  0  0  # atno 17371 bound_to 10713
  139.9514  134.7610  156.0440 LP  0  0  0  0  0  0  0  0  0  0  0  0  # atno 17394 bound_to 11000
  141.1238  133.6605  156.3284 LP  0  0  0  0  0  0  0  0  0  0  0  0  # atno 17395 bound_to 11000

$$$$
