AV-unprocessed.smi:2804|AV-procd|sdf|10809|dock10
  -GOLD-   2272015243D 1   1.00000     0.00000
 Structure written by MMmdl.
 35 36  0  0  0  0  0  0  0  0  1 V2000
  155.9084  139.7384  161.0024 C   0  0  0  0  0  0  0  0  0  0  0  0
  155.0158  140.4174  159.9590 C   0  0  0  0  0  0  0  0  0  0  0  0
  153.6146  140.7369  160.5028 C   0  0  0  0  0  0  0  0  0  0  0  0
  152.8113  141.4414  159.5073 N   0  0  0  0  0  0  0  0  0  0  0  0
  152.4432  140.9757  158.2909 C   0  0  0  0  0  0  0  0  0  0  0  0
  152.7131  139.8676  157.8277 O   0  0  0  0  0  0  0  0  0  0  0  0
  151.7413  141.9483  157.6626 N   0  0  0  0  0  0  0  0  0  0  0  0
  151.1725  141.8765  156.3175 C   0  0  0  0  0  0  0  0  0  0  0  0
  150.8034  140.4288  155.9300 C   0  0  2  0  0  0  0  0  0  0  0  0
  151.7657  139.9533  155.0086 O   0  0  0  0  0  0  0  0  0  0  0  0
  149.4165  140.3265  155.2656 C   0  0  0  0  0  0  0  0  0  0  0  0
  148.4574  140.5143  156.1726 F   0  0  0  0  0  0  0  0  0  0  0  0
  149.2942  141.2753  154.3374 F   0  0  0  0  0  0  0  0  0  0  0  0
  149.2546  139.1374  154.6840 F   0  0  0  0  0  0  0  0  0  0  0  0
  151.6734  143.0757  158.4944 C   0  0  0  0  0  0  0  0  0  0  0  0
  151.0826  144.3370  158.3009 C   0  0  0  0  0  0  0  0  0  0  0  0
  151.2056  145.2768  159.3511 C   0  0  0  0  0  0  0  0  0  0  0  0
  151.9008  144.9481  160.5438 C   0  0  0  0  0  0  0  0  0  0  0  0
  152.4872  143.6719  160.7122 C   0  0  0  0  0  0  0  0  0  0  0  0
  152.3482  142.7565  159.6544 C   0  0  0  0  0  0  0  0  0  0  0  0
  156.8957  139.5280  160.5908 H   0  0  0  0  0  0  0  0  0  0  0  0
  155.4772  138.7933  161.3335 H   0  0  0  0  0  0  0  0  0  0  0  0
  156.0413  140.3731  161.8789 H   0  0  0  0  0  0  0  0  0  0  0  0
  155.4969  141.3356  159.6202 H   0  0  0  0  0  0  0  0  0  0  0  0
  154.9327  139.7717  159.0839 H   0  0  0  0  0  0  0  0  0  0  0  0
  153.1099  139.8163  160.8005 H   0  0  0  0  0  0  0  0  0  0  0  0
  153.6889  141.3453  161.4047 H   0  0  0  0  0  0  0  0  0  0  0  0
  150.2770  142.4994  156.3058 H   0  0  0  0  0  0  0  0  0  0  0  0
  151.8451  142.3207  155.5831 H   0  0  0  0  0  0  0  0  0  0  0  0
  150.8166  139.7847  156.8103 H   0  0  0  0  0  0  0  0  0  0  0  0
  152.6037  139.9170  155.4439 H   0  0  0  0  0  0  0  0  0  0  0  0
  150.5594  144.5858  157.3897 H   0  0  0  0  0  0  0  0  0  0  0  0
  150.7674  146.2579  159.2424 H   0  0  0  0  0  0  0  0  0  0  0  0
  151.9853  145.6818  161.3319 H   0  0  0  0  0  0  0  0  0  0  0  0
  153.0210  143.4173  161.6158 H   0  0  0  0  0  0  0  0  0  0  0  0
  1  2  1  0  0  0  0
  1 21  1  0  0  0  0
  1 22  1  0  0  0  0
  1 23  1  0  0  0  0
  2  3  1  0  0  0  0
  2 24  1  0  0  0  0
  2 25  1  0  0  0  0
  3  4  1  0  0  0  0
  3 26  1  0  0  0  0
  3 27  1  0  0  0  0
  4 20  1  0  0  0  0
  4  5  1  0  0  0  0
  5  6  2  0  0  0  0
  5  7  1  0  0  0  0
  7  8  1  0  0  0  0
  7 15  1  0  0  0  0
  8  9  1  0  0  0  0
  8 28  1  0  0  0  0
  8 29  1  0  0  0  0
  9 10  1  0  0  0  0
  9 11  1  0  0  0  0
  9 30  1  0  0  0  0
 10 31  1  0  0  0  0
 11 12  1  0  0  0  0
 11 13  1  0  0  0  0
 11 14  1  0  0  0  0
 15 20  2  0  0  0  0
 15 16  1  0  0  0  0
 16 17  2  0  0  0  0
 16 32  1  0  0  0  0
 17 18  1  0  0  0  0
 17 33  1  0  0  0  0
 18 19  2  0  0  0  0
 18 34  1  0  0  0  0
 19 20  1  0  0  0  0
 19 35  1  0  0  0  0
M  END
> <s_m_source_file>
AV-unprocessed.smi

> <i_m_source_file_index>
2804

> <i_lp_mmshare_version>
43012

> <i_f3d_flags>
0

> <s_epik_input>
W2NIXTFbY0hdW2NIXVtjSF1jKGMxMiluKFtDSDJdW0NIMl1bQ0gzXSljKD1PKW4yW0NIMl1bQ0BIXShbT0hdKUMoRikoRilG

> <s_epik_cmdline>
J2VwaWtfcHl0aG9uJywgJy1waCcsICc3LjAnLCAnLXRuJywgJzgnLCAnLW1hJywgJzIwMCcsICctbWV0YWxfYmluZGluZycsICctaW1hZScsICc8aW5maWxlLm1hZT4nLCAnLW9tYWUnLCAnPG91dGZpbGUubWFlPic=

> <r_epik_Ionization_Penalty>
0.0117937

> <r_epik_Ionization_Penalty_Charging>
3.30828e-09

> <r_epik_Ionization_Penalty_Neutral>
0.0117937

> <r_epik_State_Penalty>
0.00909547

> <r_epik_Charging_Adjusted_Penalty>
0.00909547

> <i_epik_Tot_Q>
0

> <i_epik_Tot_abs_Q>
0

> <r_epik_Metal_State_Penalty>
0.00909547

> <b_epik_Metal_Only>
0

> <s_lp_Force_Field>
OPLS_2005

> <r_lp_Energy>
41.5992

> <b_lp_Chiralities_Consistent>
1

> <s_lp_Variant>
AV-unprocessed.smi:2804-1

> <Gold.Version>
5.8.1

> <Gold.Id.Protein>
6NUR|6NUR_protein|mol2

> <Gold.PLP.Fitness>
50.5040

> <Gold.PLP.PLP>
-47.0436

> <Gold.PLP.part.hbond>
-2.0000

> <Gold.PLP.part.metal>
0.0000

> <Gold.PLP.part.buried>
-6.2532

> <Gold.PLP.part.nonpolar>
-38.2764

> <Gold.PLP.part.repulsive>
0.0000

> <Gold.PLP.ligand.clash>
0.0000

> <Gold.PLP.ligand.torsion>
1.2842

> <Gold.PLP.Chemscore.Hbond>
2.0000

> <Gold.PLP.Chemscore.CHOScore>
0.0000

> <Gold.PLP.Chemscore.Metal>
0.0000

> <Gold.Chemscore.Hbonds>
donor molecule, donor type, donor heavy atom, donor atom, acceptor molecule, acceptor atom, score
      P1  H  7989  7998       L1    10  0.98
      P1  H  7997  8009       L1     6  1.00

> <Gold.PLP.Chemscore.Internal.Correction>
0.0287

> <Gold.Rescore>
     Score         DG    S(hbond)    S(metal)    S(lipo)     H(rot)  DE(clash)    DE(int)     intcor
     13.94     -17.97       1.71        0.00     108.69       2.32       0.18       3.85       ----

> <Gold.Chemscore.Fitness>
13.9428

> <Gold.Chemscore.DG>
-17.9734

> <Gold.Chemscore.ZeroCoef>
-5.4800

> <Gold.Chemscore.Hbond>
1.7077

> <Gold.Chemscore.Metal>
0.0000

> <Gold.Chemscore.Lipo>
108.6870

> <Gold.Chemscore.Internal_Hbond>
0.0000

> <Gold.Chemscore.DEClash>
0.1837

> <Gold.Chemscore.DEInternal>
3.8469

> <Gold.Chemscore.Rot>
2.3152

> <Gold.Chemscore.Internal.Correction>
   9.000000E+99

> <Gold.Chemscore.Hbonds>
donor molecule, donor type, donor heavy atom, donor atom, acceptor molecule, acceptor atom, score
      P1  H  7989  7998       L1    10  0.67
      P1  H  7997  8009       L1     6  0.52

> <Gold.Chemscore.Hbond.Weighted>
-5.7038

> <Gold.Chemscore.Metal.Weighted>
-0.0000

> <Gold.Chemscore.Lipo.Weighted>
-12.7164

> <Gold.Chemscore.Internal_Hbond.Weighted>
0.0000

> <Gold.Chemscore.DEClash.Weighted>
0.1837

> <Gold.Chemscore.DEInternal.Weighted>
3.8469

> <Gold.Chemscore.Rot.Weighted>
5.9268

> <Gold.Chemscore.Internal.Correction.Weighted>
   9.000000E+99

> <Gold.Protein.RotatedTorsions>
[ 6907 6896 6895 6894 ] final  -96.37 input  -60.11 | X-H torsion
[ 7974 7965 7964 7962 ] final -136.61 input  175.53 | X-H torsion
[ 8008 7997 7996 7995 ] final  169.40 input   59.86 | X-H torsion
[ 10167 10162 10161 10158 ] final   89.88 input  -65.29 | X-H torsion
[ 10718 10713 10712 10709 ] final  151.62 input   66.30 | X-H torsion
[ 10763 10752 10751 10750 ] final   17.80 input  -60.55 | X-H torsion
[ 11005 11000 10999 10996 ] final -157.84 input  -57.11 | X-H torsion

> <Gold.Protein.ActiveResidues>
 VAL166  LYS551  ARG553  GLY616  TRP617  ASP618  TYR619  PRO620  LYS621  CYS622 
 ASP623  PHE694  ASN695  SER759  ASP760  ASP761  ALA762  ILE779  LEU786  VAL792 
 PHE793  MET794  SER795  GLU796  ALA797  LYS798  CYS799  TRP800  GLU811  SER814 

> <Gold.Protein.RotatedAtoms>
  150.6987  134.1514  159.4141 H   0  0  0  0  0  0  0  0  0  0  0  0  # atno 6907 bound_to 6896
  151.9496  135.0173  160.0550 H   0  0  0  0  0  0  0  0  0  0  0  0  # atno 6908 bound_to 6896
  152.2022  133.4814  159.5101 H   0  0  0  0  0  0  0  0  0  0  0  0  # atno 6909 bound_to 6896
  144.8913  140.6645  143.5144 H   0  0  0  0  0  0  0  0  0  0  0  0  # atno 7974 bound_to 7965
  156.1461  140.1565  156.8845 H   0  0  0  0  0  0  0  0  0  0  0  0  # atno 8008 bound_to 7997
  154.5029  140.0820  156.7873 H   0  0  0  0  0  0  0  0  0  0  0  0  # atno 8009 bound_to 7997
  155.3986  140.3413  155.4258 H   0  0  0  0  0  0  0  0  0  0  0  0  # atno 8010 bound_to 7997
  139.8528  144.6584  150.9149 H   0  0  0  0  0  0  0  0  0  0  0  0  # atno 10167 bound_to 10162
  157.2684  131.0812  151.1617 H   0  0  0  0  0  0  0  0  0  0  0  0  # atno 10718 bound_to 10713
  153.1306  135.6739  153.9185 H   0  0  0  0  0  0  0  0  0  0  0  0  # atno 10763 bound_to 10752
  153.8672  135.3074  155.3442 H   0  0  0  0  0  0  0  0  0  0  0  0  # atno 10764 bound_to 10752
  154.7704  135.4942  153.9718 H   0  0  0  0  0  0  0  0  0  0  0  0  # atno 10765 bound_to 10752
  140.6602  134.4357  157.5234 H   0  0  0  0  0  0  0  0  0  0  0  0  # atno 11005 bound_to 11000
  145.3779  139.1643  143.4297 LP  0  0  0  0  0  0  0  0  0  0  0  0  # atno 17320 bound_to 7965
  146.3055  140.3857  142.8689 LP  0  0  0  0  0  0  0  0  0  0  0  0  # atno 17321 bound_to 7965
  140.7785  143.3812  151.1474 LP  0  0  0  0  0  0  0  0  0  0  0  0  # atno 17342 bound_to 10162
  139.7448  143.8868  152.3060 LP  0  0  0  0  0  0  0  0  0  0  0  0  # atno 17343 bound_to 10162
  157.3099  130.6884  149.6210 LP  0  0  0  0  0  0  0  0  0  0  0  0  # atno 17370 bound_to 10713
  155.9663  130.4367  150.5143 LP  0  0  0  0  0  0  0  0  0  0  0  0  # atno 17371 bound_to 10713
  139.9015  134.8544  156.1875 LP  0  0  0  0  0  0  0  0  0  0  0  0  # atno 17394 bound_to 11000
  141.0471  133.6908  156.1703 LP  0  0  0  0  0  0  0  0  0  0  0  0  # atno 17395 bound_to 11000

$$$$
