AV-unprocessed.smi:1999|AV-procd|sdf|8094|dock8
  -GOLD-   2272010313D 1   1.00000     0.00000
 Structure written by MMmdl.
 39 40  0  0  0  0  0  0  0  0  2 V2000
  150.9239  141.2074  157.1459 C   0  0  0  0  0  0  0  0  0  0  0  0
  151.1229  139.9425  156.3830 C   0  0  0  0  0  0  0  0  0  0  0  0
  152.3108  139.5822  155.8822 N   0  0  0  0  0  0  0  0  0  0  0  0
  152.2538  138.3672  155.2140 N   0  0  0  0  0  0  0  0  0  0  0  0
  151.0194  137.8458  155.2299 C   0  0  0  0  0  0  0  0  0  0  0  0
  150.6798  136.6055  154.6273 N   0  0  0  0  0  0  0  0  0  0  0  0
  150.0661  135.5491  155.1881 C   0  0  0  0  0  0  0  0  0  0  0  0
  149.7183  135.4705  156.3665 O   0  0  0  0  0  0  0  0  0  0  0  0
  149.8623  134.5722  154.2914 N   0  0  0  0  0  0  0  0  0  0  0  0
  149.2480  133.2708  154.5601 C   0  0  2  0  0  0  0  0  0  0  0  0
  150.3392  132.2893  155.0090 C   0  0  0  0  0  0  0  0  0  0  0  0
  148.4888  132.7342  153.3238 C   0  0  0  0  0  0  0  0  0  0  0  0
  147.4591  133.6758  152.8151 N   0  3  0  0  0  0  0  0  0  0  0  0
  146.7283  133.1564  151.6359 C   0  0  0  0  0  0  0  0  0  0  0  0
  145.7378  134.2130  151.1169 C   0  0  0  0  0  0  0  0  0  0  0  0
  144.8446  134.5859  152.1593 O   0  0  0  0  0  0  0  0  0  0  0  0
  145.5279  135.1596  153.2676 C   0  0  0  0  0  0  0  0  0  0  0  0
  146.5051  134.1292  153.8565 C   0  0  0  0  0  0  0  0  0  0  0  0
  149.8162  138.8045  156.0749 S   0  0  0  0  0  0  0  0  0  0  0  0
  151.3414  142.0495  156.5936 H   0  0  0  0  0  0  0  0  0  0  0  0
  151.4200  141.1409  158.1142 H   0  0  0  0  0  0  0  0  0  0  0  0
  149.8616  141.3900  157.3087 H   0  0  0  0  0  0  0  0  0  0  0  0
  150.9263  136.5174  153.6525 H   0  0  0  0  0  0  0  0  0  0  0  0
  150.1817  134.7297  153.3464 H   0  0  0  0  0  0  0  0  0  0  0  0
  148.5537  133.3710  155.3953 H   0  0  0  0  0  0  0  0  0  0  0  0
  149.9136  131.3158  155.2543 H   0  0  0  0  0  0  0  0  0  0  0  0
  150.8554  132.6541  155.8978 H   0  0  0  0  0  0  0  0  0  0  0  0
  151.0856  132.1384  154.2285 H   0  0  0  0  0  0  0  0  0  0  0  0
  149.2190  132.5431  152.5357 H   0  0  0  0  0  0  0  0  0  0  0  0
  148.0233  131.7720  153.5432 H   0  0  0  0  0  0  0  0  0  0  0  0
  147.4338  132.8985  150.8452 H   0  0  0  0  0  0  0  0  0  0  0  0
  146.1978  132.2422  151.9064 H   0  0  0  0  0  0  0  0  0  0  0  0
  146.2664  135.0918  150.7439 H   0  0  0  0  0  0  0  0  0  0  0  0
  145.1612  133.8107  150.2838 H   0  0  0  0  0  0  0  0  0  0  0  0
  146.0542  136.0649  152.9598 H   0  0  0  0  0  0  0  0  0  0  0  0
  144.7963  135.4566  154.0192 H   0  0  0  0  0  0  0  0  0  0  0  0
  145.9531  133.2736  154.2484 H   0  0  0  0  0  0  0  0  0  0  0  0
  147.0395  134.5756  154.6947 H   0  0  0  0  0  0  0  0  0  0  0  0
  147.9565  134.4964  152.4987 H   0  0  0  0  0  0  0  0  0  0  0  0
  1  2  1  0  0  0  0
  1 20  1  0  0  0  0
  1 21  1  0  0  0  0
  1 22  1  0  0  0  0
  2 19  1  0  0  0  0
  2  3  2  0  0  0  0
  3  4  1  0  0  0  0
  4  5  2  0  0  0  0
  5  6  1  0  0  0  0
  5 19  1  0  0  0  0
  6  7  1  0  0  0  0
  6 23  1  0  0  0  0
  7  8  2  0  0  0  0
  7  9  1  0  0  0  0
  9 10  1  0  0  0  0
  9 24  1  0  0  0  0
 10 11  1  0  0  0  0
 10 12  1  0  0  0  0
 10 25  1  0  0  0  0
 11 26  1  0  0  0  0
 11 27  1  0  0  0  0
 11 28  1  0  0  0  0
 12 13  1  0  0  0  0
 12 29  1  0  0  0  0
 12 30  1  0  0  0  0
 13 18  1  0  0  0  0
 13 14  1  0  0  0  0
 13 39  1  0  0  0  0
 14 15  1  0  0  0  0
 14 31  1  0  0  0  0
 14 32  1  0  0  0  0
 15 16  1  0  0  0  0
 15 33  1  0  0  0  0
 15 34  1  0  0  0  0
 16 17  1  0  0  0  0
 17 18  1  0  0  0  0
 17 35  1  0  0  0  0
 17 36  1  0  0  0  0
 18 37  1  0  0  0  0
 18 38  1  0  0  0  0
M  CHG  1  13   1
M  END
> <s_m_source_file>
AV-unprocessed.smi

> <i_m_source_file_index>
1999

> <i_lp_mmshare_version>
43012

> <i_f3d_flags>
0

> <s_epik_input>
W0NIM11jMW5uYyhzMSlbTkhdQyg9TylbTkhdW0NASF0oW0NIM10pW0NIMl1OMltDSDJdW0NIMl1PW0NIMl1bQ0gyXTI=

> <s_epik_cmdline>
J2VwaWtfcHl0aG9uJywgJy1waCcsICc3LjAnLCAnLXRuJywgJzgnLCAnLW1hJywgJzIwMCcsICctbWV0YWxfYmluZGluZycsICctaW1hZScsICc8aW5maWxlLm1hZT4nLCAnLW9tYWUnLCAnPG91dGZpbGUubWFlPic=

> <r_lp_tautomer_probability>
1

> <r_epik_Ionization_Penalty>
0.701298

> <r_epik_Ionization_Penalty_Charging>
0.695697

> <r_epik_Ionization_Penalty_Neutral>
0.00560124

> <r_epik_State_Penalty>
0.717972

> <r_epik_Charging_Adjusted_Penalty>
1.41367

> <i_epik_Tot_Q>
1

> <i_epik_Tot_abs_Q>
1

> <r_epik_Metal_State_Penalty>
1.07748

> <b_epik_Metal_Only>
0

> <s_lp_Force_Field>
OPLS_2005

> <r_lp_Energy>
20.3025

> <b_lp_Chiralities_Consistent>
1

> <s_lp_Variant>
AV-unprocessed.smi:1999-3

> <Gold.Version>
5.8.1

> <Gold.Id.Protein>
6NUR|6NUR_protein|mol2

> <Gold.PLP.Fitness>
41.5885

> <Gold.PLP.PLP>
-31.3198

> <Gold.PLP.part.hbond>
-6.3157

> <Gold.PLP.part.metal>
0.0000

> <Gold.PLP.part.buried>
-3.0302

> <Gold.PLP.part.nonpolar>
-22.4527

> <Gold.PLP.part.repulsive>
0.3518

> <Gold.PLP.ligand.clash>
0.0000

> <Gold.PLP.ligand.torsion>
0.8722

> <Gold.PLP.Chemscore.Hbond>
3.9913

> <Gold.PLP.Chemscore.CHOScore>
0.0000

> <Gold.PLP.Chemscore.Metal>
0.0000

> <Gold.Chemscore.Hbonds>
donor molecule, donor type, donor heavy atom, donor atom, acceptor molecule, acceptor atom, score
      L1  H     6    23       P1  7949  0.44
      L1  H    13    39       P1  7948  1.89
      P1  H  7997  8008       L1     3  0.71

> <Gold.PLP.Chemscore.Internal.Correction>
0.0394

> <Gold.Rescore>
     Score         DG    S(hbond)    S(metal)    S(lipo)     H(rot)  DE(clash)    DE(int)     intcor
     13.76     -15.86       2.50        0.00      52.91       1.63       1.24       0.86       ----

> <Gold.Chemscore.Fitness>
13.7602

> <Gold.Chemscore.DG>
-15.8584

> <Gold.Chemscore.ZeroCoef>
-5.4800

> <Gold.Chemscore.Hbond>
2.5045

> <Gold.Chemscore.Metal>
0.0000

> <Gold.Chemscore.Lipo>
52.9123

> <Gold.Chemscore.Internal_Hbond>
0.0000

> <Gold.Chemscore.DEClash>
1.2408

> <Gold.Chemscore.DEInternal>
0.8574

> <Gold.Chemscore.Rot>
1.6317

> <Gold.Chemscore.Internal.Correction>
   9.000000E+99

> <Gold.Chemscore.Hbonds>
donor molecule, donor type, donor heavy atom, donor atom, acceptor molecule, acceptor atom, score
      L1  H     6    23       P1  7949  0.09
      L1  H    13    39       P1  7948  0.45
      P1  H  7997  8008       L1     3  0.50

> <Gold.Chemscore.Hbond.Weighted>
-8.3649

> <Gold.Chemscore.Metal.Weighted>
-0.0000

> <Gold.Chemscore.Lipo.Weighted>
-6.1907

> <Gold.Chemscore.Internal_Hbond.Weighted>
0.0000

> <Gold.Chemscore.DEClash.Weighted>
1.2408

> <Gold.Chemscore.DEInternal.Weighted>
0.8574

> <Gold.Chemscore.Rot.Weighted>
4.1773

> <Gold.Chemscore.Internal.Correction.Weighted>
   9.000000E+99

> <Gold.Protein.RotatedTorsions>
[ 6907 6896 6895 6894 ] final -170.18 input  -60.11 | X-H torsion
[ 7974 7965 7964 7962 ] final  -55.61 input  175.53 | X-H torsion
[ 8008 7997 7996 7995 ] final  -29.91 input   59.86 | X-H torsion
[ 10167 10162 10161 10158 ] final -158.94 input  -65.29 | X-H torsion
[ 10718 10713 10712 10709 ] final  -26.37 input   66.30 | X-H torsion
[ 10763 10752 10751 10750 ] final -174.72 input  -60.55 | X-H torsion
[ 11005 11000 10999 10996 ] final -155.02 input  -57.11 | X-H torsion

> <Gold.Protein.ActiveResidues>
 VAL166  LYS551  ARG553  GLY616  TRP617  ASP618  TYR619  PRO620  LYS621  CYS622 
 ASP623  PHE694  ASN695  SER759  ASP760  ASP761  ALA762  ILE779  LEU786  VAL792 
 PHE793  MET794  SER795  GLU796  ALA797  LYS798  CYS799  TRP800  GLU811  SER814 

> <Gold.Protein.RotatedAtoms>
  151.5035  133.3499  159.2872 H   0  0  0  0  0  0  0  0  0  0  0  0  # atno 6907 bound_to 6896
  150.8758  134.8142  159.7199 H   0  0  0  0  0  0  0  0  0  0  0  0  # atno 6908 bound_to 6896
  152.4729  134.4926  159.9752 H   0  0  0  0  0  0  0  0  0  0  0  0  # atno 6909 bound_to 6896
  145.8722  140.8207  142.9882 H   0  0  0  0  0  0  0  0  0  0  0  0  # atno 7974 bound_to 7965
  154.4271  140.1805  156.1323 H   0  0  0  0  0  0  0  0  0  0  0  0  # atno 8008 bound_to 7997
  156.0058  140.3355  155.6865 H   0  0  0  0  0  0  0  0  0  0  0  0  # atno 8009 bound_to 7997
  155.6180  140.0657  157.2677 H   0  0  0  0  0  0  0  0  0  0  0  0  # atno 8010 bound_to 7997
  139.6653  143.9840  152.2251 H   0  0  0  0  0  0  0  0  0  0  0  0  # atno 10167 bound_to 10162
  156.4522  130.4486  149.6983 H   0  0  0  0  0  0  0  0  0  0  0  0  # atno 10718 bound_to 10713
  154.5929  135.2847  155.0616 H   0  0  0  0  0  0  0  0  0  0  0  0  # atno 10763 bound_to 10752
  154.1910  135.6440  153.5064 H   0  0  0  0  0  0  0  0  0  0  0  0  # atno 10764 bound_to 10752
  153.0128  135.5446  154.6621 H   0  0  0  0  0  0  0  0  0  0  0  0  # atno 10765 bound_to 10752
  140.6910  134.4041  157.5219 H   0  0  0  0  0  0  0  0  0  0  0  0  # atno 11005 bound_to 11000
  144.6726  140.1257  143.7447 LP  0  0  0  0  0  0  0  0  0  0  0  0  # atno 17320 bound_to 7965
  145.9123  139.2494  143.1430 LP  0  0  0  0  0  0  0  0  0  0  0  0  # atno 17321 bound_to 7965
  139.9590  144.6570  150.8098 LP  0  0  0  0  0  0  0  0  0  0  0  0  # atno 17342 bound_to 10162
  140.7597  143.3134  151.2791 LP  0  0  0  0  0  0  0  0  0  0  0  0  # atno 17343 bound_to 10162
  156.3805  130.7576  151.2569 LP  0  0  0  0  0  0  0  0  0  0  0  0  # atno 17370 bound_to 10713
  157.7502  131.0297  150.4105 LP  0  0  0  0  0  0  0  0  0  0  0  0  # atno 17371 bound_to 10713
  139.8923  134.8757  156.2275 LP  0  0  0  0  0  0  0  0  0  0  0  0  # atno 17394 bound_to 11000
  141.0241  133.7025  156.1318 LP  0  0  0  0  0  0  0  0  0  0  0  0  # atno 17395 bound_to 11000

$$$$
