AV-unprocessed.smi:1760|AV-procd|sdf|7092|dock1
  -GOLD-   22720 8313D 1   1.00000     0.00000
 Structure written by MMmdl.
 43 45  0  0  0  0  0  0  0  0  3 V2000
  150.7751  138.1537  158.2163 O   0  0  0  0  0  0  0  0  0  0  0  0
  150.2481  138.8985  157.3903 C   0  0  0  0  0  0  0  0  0  0  0  0
  150.4340  140.2271  157.2918 N   0  0  0  0  0  0  0  0  0  0  0  0
  151.2684  141.0707  158.0448 C   0  0  0  0  0  0  0  0  0  0  0  0
  150.9149  142.3002  158.5120 C   0  0  0  0  0  0  0  0  0  0  0  0
  151.8238  143.1243  159.2993 C   0  0  0  0  0  0  0  0  0  0  0  0
  151.4883  144.5081  159.8243 C   0  0  0  0  0  0  0  0  0  0  0  0
  151.7569  144.5828  161.1275 F   0  0  0  0  0  0  0  0  0  0  0  0
  152.2210  145.4292  159.1994 F   0  0  0  0  0  0  0  0  0  0  0  0
  150.2003  144.8000  159.6427 F   0  0  0  0  0  0  0  0  0  0  0  0
  153.0429  142.5111  159.5077 C   0  0  0  0  0  0  0  0  0  0  0  0
  153.4666  141.2969  159.0940 N   0  5  0  0  0  0  0  0  0  0  0  0
  152.6103  140.5349  158.3565 C   0  0  0  0  0  0  0  0  0  0  0  0
  152.9302  139.4178  157.9481 O   0  0  0  0  0  0  0  0  0  0  0  0
  149.3772  138.4731  156.4634 N   0  0  0  0  0  0  0  0  0  0  0  0
  148.9207  137.0973  156.2843 C   0  0  2  0  0  0  0  0  0  0  0  0
  150.0637  136.2325  155.7273 C   0  0  0  0  0  0  0  0  0  0  0  0
  149.5790  134.8064  155.4171 C   0  0  0  0  0  0  0  0  0  0  0  0
  148.4295  134.8273  154.4787 N   0  3  1  0  0  0  0  0  0  0  0  0
  148.0171  133.4667  154.0711 C   0  0  0  0  0  0  0  0  0  0  0  0
  149.0777  132.7150  153.3007 C   0  0  0  0  0  0  0  0  0  0  0  0
  147.8840  133.2957  152.5757 C   0  0  0  0  0  0  0  0  0  0  0  0
  147.2946  135.6174  155.0175 C   0  0  0  0  0  0  0  0  0  0  0  0
  147.7228  137.0631  155.3204 C   0  0  0  0  0  0  0  0  0  0  0  0
  149.8734  140.7099  156.6049 H   0  0  0  0  0  0  0  0  0  0  0  0
  149.9317  142.6994  158.3258 H   0  0  0  0  0  0  0  0  0  0  0  0
  153.7891  143.0858  160.0969 H   0  0  0  0  0  0  0  0  0  0  0  0
  148.9953  139.1628  155.8328 H   0  0  0  0  0  0  0  0  0  0  0  0
  148.6043  136.6705  157.2378 H   0  0  0  0  0  0  0  0  0  0  0  0
  150.4641  136.6843  154.8183 H   0  0  0  0  0  0  0  0  0  0  0  0
  150.8867  136.1951  156.4421 H   0  0  0  0  0  0  0  0  0  0  0  0
  150.3972  134.2311  154.9823 H   0  0  0  0  0  0  0  0  0  0  0  0
  149.2896  134.2981  156.3384 H   0  0  0  0  0  0  0  0  0  0  0  0
  147.3490  132.9392  154.7498 H   0  0  0  0  0  0  0  0  0  0  0  0
  150.0416  133.1961  153.1450 H   0  0  0  0  0  0  0  0  0  0  0  0
  149.1116  131.6336  153.4178 H   0  0  0  0  0  0  0  0  0  0  0  0
  147.1318  132.5971  152.2150 H   0  0  0  0  0  0  0  0  0  0  0  0
  148.0569  134.1618  151.9394 H   0  0  0  0  0  0  0  0  0  0  0  0
  146.4772  135.6237  154.2954 H   0  0  0  0  0  0  0  0  0  0  0  0
  146.9142  135.1401  155.9222 H   0  0  0  0  0  0  0  0  0  0  0  0
  146.8839  137.6145  155.7471 H   0  0  0  0  0  0  0  0  0  0  0  0
  147.9811  137.5664  154.3875 H   0  0  0  0  0  0  0  0  0  0  0  0
  148.7431  135.2978  153.6418 H   0  0  0  0  0  0  0  0  0  0  0  0
  1  2  2  0  0  0  0
  2  3  1  0  0  0  0
  2 15  1  0  0  0  0
  3  4  1  0  0  0  0
  3 25  1  0  0  0  0
  4 13  1  0  0  0  0
  4  5  2  0  0  0  0
  5  6  1  0  0  0  0
  5 26  1  0  0  0  0
  6  7  1  0  0  0  0
  6 11  2  0  0  0  0
  7  8  1  0  0  0  0
  7  9  1  0  0  0  0
  7 10  1  0  0  0  0
 11 12  1  0  0  0  0
 11 27  1  0  0  0  0
 12 13  1  0  0  0  0
 13 14  2  0  0  0  0
 15 16  1  0  0  0  0
 15 28  1  0  0  0  0
 16 24  1  0  0  0  0
 16 17  1  0  0  0  0
 16 29  1  0  0  0  0
 17 18  1  0  0  0  0
 17 30  1  0  0  0  0
 17 31  1  0  0  0  0
 18 19  1  0  0  0  0
 18 32  1  0  0  0  0
 18 33  1  0  0  0  0
 19 20  1  0  0  0  0
 19 23  1  0  0  0  0
 19 43  1  0  0  0  0
 20 22  1  0  0  0  0
 20 21  1  0  0  0  0
 20 34  1  0  0  0  0
 21 22  1  0  0  0  0
 21 35  1  0  0  0  0
 21 36  1  0  0  0  0
 22 37  1  0  0  0  0
 22 38  1  0  0  0  0
 23 24  1  0  0  0  0
 23 39  1  0  0  0  0
 23 40  1  0  0  0  0
 24 41  1  0  0  0  0
 24 42  1  0  0  0  0
M  CHG  1  12  -1
M  CHG  1  19   1
M  END
> <s_m_source_file>
AV-unprocessed.smi

> <i_m_source_file_index>
1760

> <i_lp_mmshare_version>
43012

> <i_f3d_flags>
0

> <s_epik_input>
W0NIMl0xW0NIMl1bQ0hdMU4oW0NIMl1bQ0gyXTIpW0NIMl1bQ0gyXVtDSF0yW05IXUMoPU8pW05IXWMzW2NIXWMoQyhGKShGKUYpW2NIXVtuSF1jMz1P

> <s_epik_cmdline>
J2VwaWtfcHl0aG9uJywgJy1waCcsICc3LjAnLCAnLXRuJywgJzgnLCAnLW1hJywgJzIwMCcsICctbWV0YWxfYmluZGluZycsICctaW1hZScsICc8aW5maWxlLm1hZT4nLCAnLW9tYWUnLCAnPG91dGZpbGUubWFlPic=

> <r_lp_tautomer_probability>
0.999

> <r_epik_Ionization_Penalty>
3.16043

> <r_epik_Ionization_Penalty_Charging>
0.268029

> <r_epik_Ionization_Penalty_Neutral>
2.8924

> <r_epik_State_Penalty>
3.0039

> <r_epik_Charging_Adjusted_Penalty>
3.27193

> <i_epik_Tot_Q>
0

> <i_epik_Tot_abs_Q>
2

> <r_epik_Metal_State_Penalty>
0.560618

> <b_epik_Metal_Only>
1

> <s_lp_Force_Field>
OPLS_2005

> <r_lp_Energy>
39.9714

> <b_lp_Chiralities_Consistent>
1

> <s_lp_Variant>
AV-unprocessed.smi:1760-4

> <Gold.Version>
5.8.1

> <Gold.Id.Protein>
6NUR|6NUR_protein|mol2

> <Gold.PLP.Fitness>
45.3234

> <Gold.PLP.PLP>
-38.3311

> <Gold.PLP.part.hbond>
-2.1543

> <Gold.PLP.part.metal>
0.0000

> <Gold.PLP.part.buried>
-3.0548

> <Gold.PLP.part.nonpolar>
-32.2656

> <Gold.PLP.part.repulsive>
0.0261

> <Gold.PLP.ligand.clash>
0.0000

> <Gold.PLP.ligand.torsion>
1.3420

> <Gold.PLP.Chemscore.Hbond>
2.8000

> <Gold.PLP.Chemscore.CHOScore>
0.0000

> <Gold.PLP.Chemscore.Metal>
0.0000

> <Gold.Chemscore.Hbonds>
donor molecule, donor type, donor heavy atom, donor atom, acceptor molecule, acceptor atom, score
      L1  H    19    43       P1  7948  2.00
      P1  H  7997  8009       L1    14  0.74

> <Gold.PLP.Chemscore.Internal.Correction>
1.2764

> <Gold.Rescore>
     Score         DG    S(hbond)    S(metal)    S(lipo)     H(rot)  DE(clash)    DE(int)     intcor
     10.18     -15.70       1.54        0.00      71.30       1.28       0.60       4.92       ----

> <Gold.Chemscore.Fitness>
10.1845

> <Gold.Chemscore.DG>
-15.7003

> <Gold.Chemscore.ZeroCoef>
-5.4800

> <Gold.Chemscore.Hbond>
1.5424

> <Gold.Chemscore.Metal>
0.0000

> <Gold.Chemscore.Lipo>
71.3014

> <Gold.Chemscore.Internal_Hbond>
0.0000

> <Gold.Chemscore.DEClash>
0.6004

> <Gold.Chemscore.DEInternal>
4.9155

> <Gold.Chemscore.Rot>
1.2787

> <Gold.Chemscore.Internal.Correction>
   9.000000E+99

> <Gold.Chemscore.Hbonds>
donor molecule, donor type, donor heavy atom, donor atom, acceptor molecule, acceptor atom, score
      L1  H    19    43       P1  7948  0.83
      P1  H  7997  8009       L1    14  0.09

> <Gold.Chemscore.Hbond.Weighted>
-5.1516

> <Gold.Chemscore.Metal.Weighted>
-0.0000

> <Gold.Chemscore.Lipo.Weighted>
-8.3423

> <Gold.Chemscore.Internal_Hbond.Weighted>
0.0000

> <Gold.Chemscore.DEClash.Weighted>
0.6004

> <Gold.Chemscore.DEInternal.Weighted>
4.9155

> <Gold.Chemscore.Rot.Weighted>
3.2735

> <Gold.Chemscore.Internal.Correction.Weighted>
   9.000000E+99

> <Gold.Protein.RotatedTorsions>
[ 6907 6896 6895 6894 ] final -112.25 input  -60.11 | X-H torsion
[ 7974 7965 7964 7962 ] final   56.08 input  175.53 | X-H torsion
[ 8008 7997 7996 7995 ] final  145.94 input   59.86 | X-H torsion
[ 10167 10162 10161 10158 ] final  -75.09 input  -65.29 | X-H torsion
[ 10718 10713 10712 10709 ] final   80.22 input   66.30 | X-H torsion
[ 10763 10752 10751 10750 ] final  -30.21 input  -60.55 | X-H torsion
[ 11005 11000 10999 10996 ] final  171.79 input  -57.11 | X-H torsion

> <Gold.Protein.ActiveResidues>
 VAL166  LYS551  ARG553  GLY616  TRP617  ASP618  TYR619  PRO620  LYS621  CYS622 
 ASP623  PHE694  ASN695  SER759  ASP760  ASP761  ALA762  ILE779  LEU786  VAL792 
 PHE793  MET794  SER795  GLU796  ALA797  LYS798  CYS799  TRP800  GLU811  SER814 

> <Gold.Protein.RotatedAtoms>
  150.7746  133.9116  159.3371 H   0  0  0  0  0  0  0  0  0  0  0  0  # atno 6907 bound_to 6896
  151.6994  135.0931  160.0257 H   0  0  0  0  0  0  0  0  0  0  0  0  # atno 6908 bound_to 6896
  152.3777  133.6465  159.6172 H   0  0  0  0  0  0  0  0  0  0  0  0  # atno 6909 bound_to 6896
  145.9436  139.3909  143.0349 H   0  0  0  0  0  0  0  0  0  0  0  0  # atno 7974 bound_to 7965
  156.2869  140.2195  156.5297 H   0  0  0  0  0  0  0  0  0  0  0  0  # atno 8008 bound_to 7997
  154.7459  140.0484  157.0874 H   0  0  0  0  0  0  0  0  0  0  0  0  # atno 8009 bound_to 7997
  155.0171  140.3120  155.4810 H   0  0  0  0  0  0  0  0  0  0  0  0  # atno 8010 bound_to 7997
  140.4972  143.2368  151.7812 H   0  0  0  0  0  0  0  0  0  0  0  0  # atno 10167 bound_to 10162
  157.6800  130.9949  150.2047 H   0  0  0  0  0  0  0  0  0  0  0  0  # atno 10718 bound_to 10713
  153.7772  135.6908  153.4895 H   0  0  0  0  0  0  0  0  0  0  0  0  # atno 10763 bound_to 10752
  153.1835  135.4497  155.0057 H   0  0  0  0  0  0  0  0  0  0  0  0  # atno 10764 bound_to 10752
  154.8095  135.3371  154.7278 H   0  0  0  0  0  0  0  0  0  0  0  0  # atno 10765 bound_to 10752
  140.3228  134.7423  157.4076 H   0  0  0  0  0  0  0  0  0  0  0  0  # atno 11005 bound_to 11000
  145.8267  140.9652  143.0870 LP  0  0  0  0  0  0  0  0  0  0  0  0  # atno 17320 bound_to 7965
  144.6783  140.0110  143.7484 LP  0  0  0  0  0  0  0  0  0  0  0  0  # atno 17321 bound_to 7965
  139.4864  144.4571  151.9585 LP  0  0  0  0  0  0  0  0  0  0  0  0  # atno 17342 bound_to 10162
  140.3659  144.2915  150.5926 LP  0  0  0  0  0  0  0  0  0  0  0  0  # atno 17343 bound_to 10162
  156.2730  130.3724  149.8012 LP  0  0  0  0  0  0  0  0  0  0  0  0  # atno 17370 bound_to 10713
  156.5723  130.8430  151.3360 LP  0  0  0  0  0  0  0  0  0  0  0  0  # atno 17371 bound_to 10713
  140.0927  134.5579  155.8428 LP  0  0  0  0  0  0  0  0  0  0  0  0  # atno 17394 bound_to 11000
  141.2082  133.6672  156.6359 LP  0  0  0  0  0  0  0  0  0  0  0  0  # atno 17395 bound_to 11000

$$$$
