AV-unprocessed.smi:703|AV-procd|sdf|3429|dock10
  -GOLD-   22720 0413D 1   1.00000     0.00000
 Structure written by MMmdl.
 38 39  0  0  0  0  0  0  0  0  2 V2000
  145.6999  134.6935  151.3554 C   0  0  0  0  0  0  0  0  0  0  0  0
  146.0412  134.8340  152.8449 C   0  0  0  0  0  0  0  0  0  0  0  0
  147.4586  134.5086  153.1277 N   0  3  2  0  0  0  0  0  0  0  0  0
  147.8645  133.1278  152.8042 C   0  0  0  0  0  0  0  0  0  0  0  0
  149.1983  132.9323  153.5292 C   0  0  2  0  0  0  0  0  0  0  0  0
  149.5115  131.4673  153.8612 C   0  0  0  0  0  0  0  0  0  0  0  0
  149.0989  133.8462  154.7650 C   0  0  1  0  0  0  0  0  0  0  0  0
  150.3047  134.6704  154.8910 N   0  0  0  0  0  0  0  0  0  0  0  0
  150.7444  135.2433  156.4562 S   0  0  0  0  0  0  0  0  0  0  0  0
  149.9138  134.5242  157.4341 O   0  0  0  0  0  0  0  0  0  0  0  0
  152.2110  135.1838  156.5534 O   0  0  0  0  0  0  0  0  0  0  0  0
  150.2271  137.0106  156.4002 C   0  0  0  0  0  0  0  0  0  0  0  0
  151.2974  137.8270  155.7337 C   0  0  0  0  0  0  0  0  0  0  0  0
  151.6741  137.8406  154.3623 C   0  0  0  0  0  0  0  0  0  0  0  0
  152.6887  138.7532  154.3196 C   0  0  0  0  0  0  0  0  0  0  0  0
  152.9241  139.2597  155.5561 O   0  0  0  0  0  0  0  0  0  0  0  0
  152.0318  138.6610  156.4528 N   0  0  0  0  0  0  0  0  0  0  0  0
  147.8590  134.7251  154.5323 C   0  0  0  0  0  0  0  0  0  0  0  0
  144.6711  135.0004  151.1662 H   0  0  0  0  0  0  0  0  0  0  0  0
  145.7999  133.6629  151.0142 H   0  0  0  0  0  0  0  0  0  0  0  0
  146.3491  135.3173  150.7403 H   0  0  0  0  0  0  0  0  0  0  0  0
  145.8544  135.8646  153.1497 H   0  0  0  0  0  0  0  0  0  0  0  0
  145.3840  134.2048  153.4468 H   0  0  0  0  0  0  0  0  0  0  0  0
  147.1175  132.4299  153.1871 H   0  0  0  0  0  0  0  0  0  0  0  0
  147.9552  132.9705  151.7290 H   0  0  0  0  0  0  0  0  0  0  0  0
  149.9821  133.3074  152.8679 H   0  0  0  0  0  0  0  0  0  0  0  0
  148.7550  131.0365  154.5177 H   0  0  0  0  0  0  0  0  0  0  0  0
  150.4758  131.3806  154.3631 H   0  0  0  0  0  0  0  0  0  0  0  0
  149.5528  130.8610  152.9561 H   0  0  0  0  0  0  0  0  0  0  0  0
  148.9566  133.2617  155.6755 H   0  0  0  0  0  0  0  0  0  0  0  0
  150.3141  135.4264  154.2067 H   0  0  0  0  0  0  0  0  0  0  0  0
  149.2817  137.0751  155.8606 H   0  0  0  0  0  0  0  0  0  0  0  0
  150.0532  137.3539  157.4198 H   0  0  0  0  0  0  0  0  0  0  0  0
  151.2632  137.2738  153.5403 H   0  0  0  0  0  0  0  0  0  0  0  0
  153.3135  139.1323  153.5244 H   0  0  0  0  0  0  0  0  0  0  0  0
  148.0320  135.7833  154.7340 H   0  0  0  0  0  0  0  0  0  0  0  0
  147.0561  134.3937  155.1934 H   0  0  0  0  0  0  0  0  0  0  0  0
  148.0349  135.1213  152.5685 H   0  0  0  0  0  0  0  0  0  0  0  0
  1  2  1  0  0  0  0
  1 19  1  0  0  0  0
  1 20  1  0  0  0  0
  1 21  1  0  0  0  0
  2  3  1  0  0  0  0
  2 22  1  0  0  0  0
  2 23  1  0  0  0  0
  3 18  1  0  0  0  0
  3  4  1  0  0  0  0
  3 38  1  0  0  0  0
  4  5  1  0  0  0  0
  4 24  1  0  0  0  0
  4 25  1  0  0  0  0
  5  6  1  0  0  0  0
  5  7  1  0  0  0  0
  5 26  1  0  0  0  0
  6 27  1  0  0  0  0
  6 28  1  0  0  0  0
  6 29  1  0  0  0  0
  7  8  1  0  0  0  0
  7 18  1  0  0  0  0
  7 30  1  0  0  0  0
  8  9  1  0  0  0  0
  8 31  1  0  0  0  0
  9 10  2  0  0  0  0
  9 11  2  0  0  0  0
  9 12  1  0  0  0  0
 12 13  1  0  0  0  0
 12 32  1  0  0  0  0
 12 33  1  0  0  0  0
 13 17  2  0  0  0  0
 13 14  1  0  0  0  0
 14 15  2  0  0  0  0
 14 34  1  0  0  0  0
 15 16  1  0  0  0  0
 15 35  1  0  0  0  0
 16 17  1  0  0  0  0
 18 36  1  0  0  0  0
 18 37  1  0  0  0  0
M  CHG  1   3   1
M  END
> <s_m_source_file>
AV-unprocessed.smi

> <i_m_source_file_index>
703

> <i_lp_mmshare_version>
43012

> <i_f3d_flags>
0

> <s_epik_input>
W0NIM11bQ0gyXU4xW0NIMl1bQ0BASF0oW0NIM10pW0NASF0oW0NIMl0xKVtOSF1TKD1PKSg9TylbQ0gyXWMyW2NIXVtjSF1vbjI=

> <s_epik_cmdline>
J2VwaWtfcHl0aG9uJywgJy1waCcsICc3LjAnLCAnLXRuJywgJzgnLCAnLW1hJywgJzIwMCcsICctbWV0YWxfYmluZGluZycsICctaW1hZScsICc8aW5maWxlLm1hZT4nLCAnLW9tYWUnLCAnPG91dGZpbGUubWFlPic=

> <r_epik_Ionization_Penalty>
0.00324529

> <r_epik_Ionization_Penalty_Charging>
0.0019384

> <r_epik_Ionization_Penalty_Neutral>
0.00130689

> <r_epik_State_Penalty>
0.00218682

> <r_epik_Charging_Adjusted_Penalty>
0.00412522

> <i_epik_Tot_Q>
1

> <i_epik_Tot_abs_Q>
1

> <r_epik_Metal_State_Penalty>
0.310831

> <b_epik_Metal_Only>
0

> <s_lp_Force_Field>
OPLS_2005

> <r_lp_Energy>
19.0381

> <b_lp_Chiralities_Consistent>
1

> <s_lp_Variant>
AV-unprocessed.smi:703-4

> <Gold.Version>
5.8.1

> <Gold.Id.Protein>
6NUR|6NUR_protein|mol2

> <Gold.PLP.Fitness>
41.5750

> <Gold.PLP.PLP>
-28.8749

> <Gold.PLP.part.hbond>
-4.1205

> <Gold.PLP.part.metal>
0.0000

> <Gold.PLP.part.buried>
-5.1907

> <Gold.PLP.part.nonpolar>
-19.9090

> <Gold.PLP.part.repulsive>
0.0000

> <Gold.PLP.ligand.clash>
0.0000

> <Gold.PLP.ligand.torsion>
1.2135

> <Gold.PLP.Chemscore.Hbond>
4.9920

> <Gold.PLP.Chemscore.CHOScore>
0.0000

> <Gold.PLP.Chemscore.Metal>
0.0000

> <Gold.Chemscore.Hbonds>
donor molecule, donor type, donor heavy atom, donor atom, acceptor molecule, acceptor atom, score
      L1  H     3    38       P1  7948  2.00
      P1  H  6896  6908       L1    10  0.76
      P1  H  7997  8010       L1    16  0.98
      P1  H 10752 10765       L1    11  1.00

> <Gold.PLP.Chemscore.Internal.Correction>
0.1510

> <Gold.Rescore>
     Score         DG    S(hbond)    S(metal)    S(lipo)     H(rot)  DE(clash)    DE(int)     intcor
     18.61     -20.04       3.83        0.00      57.47       1.94       0.00       1.43       ----

> <Gold.Chemscore.Fitness>
18.6103

> <Gold.Chemscore.DG>
-20.0384

> <Gold.Chemscore.ZeroCoef>
-5.4800

> <Gold.Chemscore.Hbond>
3.8325

> <Gold.Chemscore.Metal>
0.0000

> <Gold.Chemscore.Lipo>
57.4729

> <Gold.Chemscore.Internal_Hbond>
0.0000

> <Gold.Chemscore.DEClash>
0.0000

> <Gold.Chemscore.DEInternal>
1.4282

> <Gold.Chemscore.Rot>
1.9400

> <Gold.Chemscore.Internal.Correction>
   9.000000E+99

> <Gold.Chemscore.Hbonds>
donor molecule, donor type, donor heavy atom, donor atom, acceptor molecule, acceptor atom, score
      L1  H     3    38       P1  7948  0.92
      P1  H  6896  6908       L1    10  0.70
      P1  H  7997  8010       L1    16  0.77
      P1  H 10752 10765       L1    11  0.98

> <Gold.Chemscore.Hbond.Weighted>
-12.8006

> <Gold.Chemscore.Metal.Weighted>
-0.0000

> <Gold.Chemscore.Lipo.Weighted>
-6.7243

> <Gold.Chemscore.Internal_Hbond.Weighted>
0.0000

> <Gold.Chemscore.DEClash.Weighted>
0.0000

> <Gold.Chemscore.DEInternal.Weighted>
1.4282

> <Gold.Chemscore.Rot.Weighted>
4.9665

> <Gold.Chemscore.Internal.Correction.Weighted>
   9.000000E+99

> <Gold.Protein.RotatedTorsions>
[ 6907 6896 6895 6894 ] final  134.37 input  -60.11 | X-H torsion
[ 7974 7965 7964 7962 ] final -153.07 input  175.53 | X-H torsion
[ 8008 7997 7996 7995 ] final   69.86 input   59.86 | X-H torsion
[ 10167 10162 10161 10158 ] final  -26.17 input  -65.29 | X-H torsion
[ 10718 10713 10712 10709 ] final  119.43 input   66.30 | X-H torsion
[ 10763 10752 10751 10750 ] final -128.79 input  -60.55 | X-H torsion
[ 11005 11000 10999 10996 ] final  167.71 input  -57.11 | X-H torsion

> <Gold.Protein.ActiveResidues>
 VAL166  LYS551  ARG553  GLY616  TRP617  ASP618  TYR619  PRO620  LYS621  CYS622 
 ASP623  PHE694  ASN695  SER759  ASP760  ASP761  ALA762  ILE779  LEU786  VAL792 
 PHE793  MET794  SER795  GLU796  ALA797  LYS798  CYS799  TRP800  GLU811  SER814 

> <Gold.Protein.RotatedAtoms>
  152.3120  133.5762  159.5686 H   0  0  0  0  0  0  0  0  0  0  0  0  # atno 6907 bound_to 6896
  150.7327  134.0139  159.3687 H   0  0  0  0  0  0  0  0  0  0  0  0  # atno 6908 bound_to 6896
  151.8030  135.0703  160.0454 H   0  0  0  0  0  0  0  0  0  0  0  0  # atno 6909 bound_to 6896
  144.7760  140.4576  143.5873 H   0  0  0  0  0  0  0  0  0  0  0  0  # atno 7974 bound_to 7965
  155.7301  140.3492  155.5055 H   0  0  0  0  0  0  0  0  0  0  0  0  # atno 8008 bound_to 7997
  155.9190  140.1064  157.1243 H   0  0  0  0  0  0  0  0  0  0  0  0  # atno 8009 bound_to 7997
  154.4067  140.1253  156.4642 H   0  0  0  0  0  0  0  0  0  0  0  0  # atno 8010 bound_to 7997
  140.7284  143.4201  151.0965 H   0  0  0  0  0  0  0  0  0  0  0  0  # atno 10167 bound_to 10162
  157.5962  131.1057  150.7895 H   0  0  0  0  0  0  0  0  0  0  0  0  # atno 10718 bound_to 10713
  154.8757  135.3917  154.3814 H   0  0  0  0  0  0  0  0  0  0  0  0  # atno 10763 bound_to 10752
  153.4561  135.7028  153.6084 H   0  0  0  0  0  0  0  0  0  0  0  0  # atno 10764 bound_to 10752
  153.4603  135.3813  155.2303 H   0  0  0  0  0  0  0  0  0  0  0  0  # atno 10765 bound_to 10752
  140.2796  134.7761  157.3747 H   0  0  0  0  0  0  0  0  0  0  0  0  # atno 11005 bound_to 11000
  145.6184  139.1521  143.3036 LP  0  0  0  0  0  0  0  0  0  0  0  0  # atno 17320 bound_to 7965
  146.1940  140.6296  142.9133 LP  0  0  0  0  0  0  0  0  0  0  0  0  # atno 17321 bound_to 7965
  139.7846  143.8306  152.3143 LP  0  0  0  0  0  0  0  0  0  0  0  0  # atno 17342 bound_to 10162
  139.8269  144.7271  150.9500 LP  0  0  0  0  0  0  0  0  0  0  0  0  # atno 17343 bound_to 10162
  156.8305  130.5014  149.5332 LP  0  0  0  0  0  0  0  0  0  0  0  0  # atno 17370 bound_to 10713
  156.1025  130.5980  150.9918 LP  0  0  0  0  0  0  0  0  0  0  0  0  # atno 17371 bound_to 10713
  140.1296  134.5113  155.8117 LP  0  0  0  0  0  0  0  0  0  0  0  0  # atno 17394 bound_to 11000
  141.2165  133.6785  156.7014 LP  0  0  0  0  0  0  0  0  0  0  0  0  # atno 17395 bound_to 11000

$$$$
