AV-unprocessed.smi:101|AV-procd|sdf|919|dock2
  -GOLD-   2262017423D 1   1.00000     0.00000
 Structure written by MMmdl.
 44 46  0  0  0  0  0  0  0  0  1 V2000
  145.3769  136.8242  155.4874 C   0  0  0  0  0  0  0  0  0  0  0  0
  145.7865  137.6853  154.3040 C   0  0  0  0  0  0  0  0  0  0  0  0
  146.5772  138.7803  154.4403 C   0  0  0  0  0  0  0  0  0  0  0  0
  146.9656  139.5868  153.3791 N   0  0  0  0  0  0  0  0  0  0  0  0
  147.8348  140.8035  153.5953 C   0  0  2  0  0  0  0  0  0  0  0  0
  149.0746  140.3833  154.0774 O   0  0  0  0  0  0  0  0  0  0  0  0
  149.4961  141.2461  155.1247 C   0  0  2  0  0  0  0  0  0  0  0  0
  150.5226  140.5504  156.0295 C   0  0  0  0  0  0  0  0  0  0  0  0
  151.0390  141.4939  156.9532 O   0  0  0  0  0  0  0  0  0  0  0  0
  152.0327  141.1425  157.7921 C   0  0  0  0  0  0  0  0  0  0  0  0
  152.7415  140.1470  157.6304 O   0  0  0  0  0  0  0  0  0  0  0  0
  152.1860  142.0859  158.9371 C   0  0  0  0  0  0  0  0  0  0  0  0
  151.7502  143.4240  158.7957 C   0  0  0  0  0  0  0  0  0  0  0  0
  151.8800  144.3374  159.8601 C   0  0  0  0  0  0  0  0  0  0  0  0
  152.4455  143.9230  161.0800 C   0  0  0  0  0  0  0  0  0  0  0  0
  152.8822  142.5943  161.2340 C   0  0  0  0  0  0  0  0  0  0  0  0
  152.7549  141.6801  160.1699 C   0  0  0  0  0  0  0  0  0  0  0  0
  148.1873  141.6691  155.8040 C   0  0  2  0  0  0  0  0  0  0  0  0
  147.7644  140.7070  156.7529 O   0  0  0  0  0  0  0  0  0  0  0  0
  147.2043  141.7427  154.6409 C   0  0  1  0  0  0  0  0  0  0  0  0
  147.1260  143.0695  154.1576 O   0  0  0  0  0  0  0  0  0  0  0  0
  146.5028  139.2914  152.0806 C   0  0  0  0  0  0  0  0  0  0  0  0
  146.7754  139.9810  151.0987 O   0  0  0  0  0  0  0  0  0  0  0  0
  145.6963  138.1636  151.9388 N   0  0  0  0  0  0  0  0  0  0  0  0
  145.2974  137.3136  152.9734 C   0  0  0  0  0  0  0  0  0  0  0  0
  144.5849  136.3433  152.7215 O   0  0  0  0  0  0  0  0  0  0  0  0
  145.3682  137.9449  151.0096 H   0  0  0  0  0  0  0  0  0  0  0  0
  145.7941  137.1974  156.4231 H   0  0  0  0  0  0  0  0  0  0  0  0
  145.7245  135.7994  155.3516 H   0  0  0  0  0  0  0  0  0  0  0  0
  144.2912  136.8075  155.5891 H   0  0  0  0  0  0  0  0  0  0  0  0
  146.9157  139.0365  155.4336 H   0  0  0  0  0  0  0  0  0  0  0  0
  147.9903  141.2653  152.6182 H   0  0  0  0  0  0  0  0  0  0  0  0
  149.9460  142.1306  154.6699 H   0  0  0  0  0  0  0  0  0  0  0  0
  150.0448  139.7398  156.5812 H   0  0  0  0  0  0  0  0  0  0  0  0
  151.3278  140.1178  155.4338 H   0  0  0  0  0  0  0  0  0  0  0  0
  151.3106  143.7647  157.8692 H   0  0  0  0  0  0  0  0  0  0  0  0
  151.5438  145.3567  159.7400 H   0  0  0  0  0  0  0  0  0  0  0  0
  152.5436  144.6232  161.8966 H   0  0  0  0  0  0  0  0  0  0  0  0
  153.3151  142.2746  162.1703 H   0  0  0  0  0  0  0  0  0  0  0  0
  153.1002  140.6679  160.3219 H   0  0  0  0  0  0  0  0  0  0  0  0
  148.2922  142.6221  156.3248 H   0  0  0  0  0  0  0  0  0  0  0  0
  147.6221  139.8856  156.3075 H   0  0  0  0  0  0  0  0  0  0  0  0
  146.2012  141.4140  154.9184 H   0  0  0  0  0  0  0  0  0  0  0  0
  147.7074  143.6110  154.6691 H   0  0  0  0  0  0  0  0  0  0  0  0
  1  2  1  0  0  0  0
  1 28  1  0  0  0  0
  1 29  1  0  0  0  0
  1 30  1  0  0  0  0
  2 25  1  0  0  0  0
  2  3  2  0  0  0  0
  3  4  1  0  0  0  0
  3 31  1  0  0  0  0
  4  5  1  0  0  0  0
  4 22  1  0  0  0  0
  5 20  1  0  0  0  0
  5  6  1  0  0  0  0
  5 32  1  0  0  0  0
  6  7  1  0  0  0  0
  7  8  1  0  0  0  0
  7 18  1  0  0  0  0
  7 33  1  0  0  0  0
  8  9  1  0  0  0  0
  8 34  1  0  0  0  0
  8 35  1  0  0  0  0
  9 10  1  0  0  0  0
 10 11  2  0  0  0  0
 10 12  1  0  0  0  0
 12 17  1  0  0  0  0
 12 13  2  0  0  0  0
 13 14  1  0  0  0  0
 13 36  1  0  0  0  0
 14 15  2  0  0  0  0
 14 37  1  0  0  0  0
 15 16  1  0  0  0  0
 15 38  1  0  0  0  0
 16 17  2  0  0  0  0
 16 39  1  0  0  0  0
 17 40  1  0  0  0  0
 18 19  1  0  0  0  0
 18 20  1  0  0  0  0
 18 41  1  0  0  0  0
 19 42  1  0  0  0  0
 20 21  1  0  0  0  0
 20 43  1  0  0  0  0
 21 44  1  0  0  0  0
 22 23  2  0  0  0  0
 22 24  1  0  0  0  0
 24 27  1  0  0  0  0
 24 25  1  0  0  0  0
 25 26  2  0  0  0  0
M  END
> <s_m_source_file>
AV-unprocessed.smi

> <i_m_source_file_index>
101

> <i_lp_mmshare_version>
43012

> <i_f3d_flags>
0

> <s_epik_input>
Tz1jMVtuSF1jKD1PKW4oW2NIXWMxW0NIM10pW0NAQEhdMk9bQ0BIXShbQ0BASF0oW09IXSlbQ0BIXTJbT0hdKVtDSDJdT0MoPU8pYzNbY0hdW2NIXVtjSF1bY0hdW2NIXTM=

> <s_epik_cmdline>
J2VwaWtfcHl0aG9uJywgJy1waCcsICc3LjAnLCAnLXRuJywgJzgnLCAnLW1hJywgJzIwMCcsICctbWV0YWxfYmluZGluZycsICctaW1hZScsICc8aW5maWxlLm1hZT4nLCAnLW9tYWUnLCAnPG91dGZpbGUubWFlPic=

> <r_lp_tautomer_probability>
0.999537

> <r_epik_Ionization_Penalty>
0.00263537

> <r_epik_Ionization_Penalty_Charging>
0.00263428

> <r_epik_Ionization_Penalty_Neutral>
1.09111e-06

> <r_epik_State_Penalty>
0.00183335

> <r_epik_Charging_Adjusted_Penalty>
0.00446763

> <i_epik_Tot_Q>
0

> <i_epik_Tot_abs_Q>
0

> <r_epik_Metal_State_Penalty>
1.00528

> <b_epik_Metal_Only>
0

> <s_epik_Chemistry_Notes>
This compound has an ester and may undergo hydrolysis at high or low pH. This compound contains an acetal/aminal-like group ( X-CH(R)-Y where X, Y are N, S, or O) that may be acid/base labile, releasing an aldehyde.

> <s_lp_Force_Field>
OPLS_2005

> <r_lp_Energy>
30.9331

> <b_lp_Chiralities_Consistent>
1

> <s_lp_Variant>
AV-unprocessed.smi:101-7

> <Gold.Version>
5.8.1

> <Gold.Id.Protein>
6NUR|6NUR_protein|mol2

> <Gold.PLP.Fitness>
48.6187

> <Gold.PLP.PLP>
-41.6025

> <Gold.PLP.part.hbond>
-4.8572

> <Gold.PLP.part.metal>
0.0000

> <Gold.PLP.part.buried>
-2.6809

> <Gold.PLP.part.nonpolar>
-37.3462

> <Gold.PLP.part.repulsive>
3.6533

> <Gold.PLP.ligand.clash>
0.0000

> <Gold.PLP.ligand.torsion>
0.5636

> <Gold.PLP.Chemscore.Hbond>
2.7020

> <Gold.PLP.Chemscore.CHOScore>
0.0000

> <Gold.PLP.Chemscore.Metal>
0.0000

> <Gold.Chemscore.Hbonds>
donor molecule, donor type, donor heavy atom, donor atom, acceptor molecule, acceptor atom, score
      L1  H    21    44       P1  8028  1.00
      L1  H    24    27       P1 10171  0.72
      P1  H  7997  8010       L1    11  0.99

> <Gold.PLP.Chemscore.Internal.Correction>
0.0373

> <Gold.Rescore>
     Score         DG    S(hbond)    S(metal)    S(lipo)     H(rot)  DE(clash)    DE(int)     intcor
     13.85     -15.70       2.55        0.00      87.23       3.32       1.50       0.34       ----

> <Gold.Chemscore.Fitness>
13.8547

> <Gold.Chemscore.DG>
-15.6975

> <Gold.Chemscore.ZeroCoef>
-5.4800

> <Gold.Chemscore.Hbond>
2.5460

> <Gold.Chemscore.Metal>
0.0000

> <Gold.Chemscore.Lipo>
87.2294

> <Gold.Chemscore.Internal_Hbond>
0.0000

> <Gold.Chemscore.DEClash>
1.4999

> <Gold.Chemscore.DEInternal>
0.3430

> <Gold.Chemscore.Rot>
3.3172

> <Gold.Chemscore.Internal.Correction>
   9.000000E+99

> <Gold.Chemscore.Hbonds>
donor molecule, donor type, donor heavy atom, donor atom, acceptor molecule, acceptor atom, score
      L1  H    21    44       P1  8028  0.35
      L1  H    24    27       P1 10171  0.68
      P1  H  7997  8010       L1    11  0.94

> <Gold.Chemscore.Hbond.Weighted>
-8.5037

> <Gold.Chemscore.Metal.Weighted>
-0.0000

> <Gold.Chemscore.Lipo.Weighted>
-10.2058

> <Gold.Chemscore.Internal_Hbond.Weighted>
0.0000

> <Gold.Chemscore.DEClash.Weighted>
1.4999

> <Gold.Chemscore.DEInternal.Weighted>
0.3430

> <Gold.Chemscore.Rot.Weighted>
8.4920

> <Gold.Chemscore.Internal.Correction.Weighted>
   9.000000E+99

> <Gold.Protein.RotatedTorsions>
[ 6907 6896 6895 6894 ] final  128.39 input  -60.11 | X-H torsion
[ 7974 7965 7964 7962 ] final  137.23 input  175.53 | X-H torsion
[ 8008 7997 7996 7995 ] final   42.67 input   59.86 | X-H torsion
[ 10167 10162 10161 10158 ] final  118.34 input  -65.29 | X-H torsion
[ 10718 10713 10712 10709 ] final  -37.91 input   66.30 | X-H torsion
[ 10763 10752 10751 10750 ] final  164.05 input  -60.55 | X-H torsion
[ 11005 11000 10999 10996 ] final   21.37 input  -57.11 | X-H torsion

> <Gold.Protein.ActiveResidues>
 VAL166  LYS551  ARG553  GLY616  TRP617  ASP618  TYR619  PRO620  LYS621  CYS622 
 ASP623  PHE694  ASN695  SER759  ASP760  ASP761  ALA762  ILE779  LEU786  VAL792 
 PHE793  MET794  SER795  GLU796  ALA797  LYS798  CYS799  TRP800  GLU811  SER814 

> <Gold.Protein.RotatedAtoms>
  152.3723  133.6436  159.6096 H   0  0  0  0  0  0  0  0  0  0  0  0  # atno 6907 bound_to 6896
  150.7678  133.9249  159.3418 H   0  0  0  0  0  0  0  0  0  0  0  0  # atno 6908 bound_to 6896
  151.7070  135.0921  160.0312 H   0  0  0  0  0  0  0  0  0  0  0  0  # atno 6909 bound_to 6896
  144.9487  139.4844  143.5536 H   0  0  0  0  0  0  0  0  0  0  0  0  # atno 7974 bound_to 7965
  155.2900  140.3378  155.4253 H   0  0  0  0  0  0  0  0  0  0  0  0  # atno 8008 bound_to 7997
  156.2050  140.1747  156.7858 H   0  0  0  0  0  0  0  0  0  0  0  0  # atno 8009 bound_to 7997
  154.5609  140.0687  156.8802 H   0  0  0  0  0  0  0  0  0  0  0  0  # atno 8010 bound_to 7997
  139.6118  144.7083  151.2827 H   0  0  0  0  0  0  0  0  0  0  0  0  # atno 10167 bound_to 10162
  156.3098  130.4251  149.8062 H   0  0  0  0  0  0  0  0  0  0  0  0  # atno 10718 bound_to 10713
  154.3031  135.2758  155.2602 H   0  0  0  0  0  0  0  0  0  0  0  0  # atno 10763 bound_to 10752
  154.5030  135.5803  153.6549 H   0  0  0  0  0  0  0  0  0  0  0  0  # atno 10764 bound_to 10752
  152.9898  135.6162  154.3203 H   0  0  0  0  0  0  0  0  0  0  0  0  # atno 10765 bound_to 10752
  140.3924  134.1805  155.7663 H   0  0  0  0  0  0  0  0  0  0  0  0  # atno 11005 bound_to 11000
  146.3313  139.8558  142.8865 LP  0  0  0  0  0  0  0  0  0  0  0  0  # atno 17320 bound_to 7965
  145.2877  141.0158  143.3681 LP  0  0  0  0  0  0  0  0  0  0  0  0  # atno 17321 bound_to 7965
  140.7324  143.6824  150.7990 LP  0  0  0  0  0  0  0  0  0  0  0  0  # atno 17342 bound_to 10162
  140.0420  143.5336  152.2713 LP  0  0  0  0  0  0  0  0  0  0  0  0  # atno 17343 bound_to 10162
  156.5409  130.8299  151.3269 LP  0  0  0  0  0  0  0  0  0  0  0  0  # atno 17370 bound_to 10713
  157.7388  130.9820  150.2275 LP  0  0  0  0  0  0  0  0  0  0  0  0  # atno 17371 bound_to 10713
  141.1886  133.8256  157.0988 LP  0  0  0  0  0  0  0  0  0  0  0  0  # atno 17394 bound_to 11000
  140.0397  134.9860  157.0938 LP  0  0  0  0  0  0  0  0  0  0  0  0  # atno 17395 bound_to 11000

$$$$
