AV-unprocessed.smi:2807|AV-procd|sdf|10820|dock7
  -GOLD-   2272015253D 1   1.00000     0.00000
 Structure written by MMmdl.
 31 32  0  0  0  0  0  0  0  0  2 V2000
  152.4548  140.0419  155.3889 O   0  0  0  0  0  0  0  0  0  0  0  0
  151.4236  140.0824  156.0706 C   0  0  0  0  0  0  0  0  0  0  0  0
  151.1728  140.7499  157.2334 N   0  5  0  0  0  0  0  0  0  0  0  0
  151.9922  141.8511  157.7376 C   0  0  2  0  0  0  0  0  0  0  0  0
  152.4394  141.6124  159.1860 C   0  0  0  0  0  0  0  0  0  0  0  0
  152.6641  143.0106  159.7862 C   0  0  0  0  0  0  0  0  0  0  0  0
  151.9724  144.0087  158.8427 C   0  0  0  0  0  0  0  0  0  0  0  0
  151.1858  143.1498  157.8439 C   0  0  1  0  0  0  0  0  0  0  0  0
  151.0451  143.7874  156.5919 O   0  0  0  0  0  0  0  0  0  0  0  0
  150.2076  139.2524  155.6072 C   0  0  0  0  0  0  0  0  0  0  0  0
  150.5302  138.5266  154.5308 F   0  0  0  0  0  0  0  0  0  0  0  0
  149.8759  138.3978  156.5782 F   0  0  0  0  0  0  0  0  0  0  0  0
  149.0157  140.1648  155.3211 C   0  0  0  0  0  0  0  0  0  0  0  0
  149.0904  141.1491  154.3088 C   0  0  0  0  0  0  0  0  0  0  0  0
  147.9614  141.9534  154.0626 C   0  0  0  0  0  0  0  0  0  0  0  0
  146.8012  141.7486  154.8329 C   0  0  0  0  0  0  0  0  0  0  0  0
  146.8227  140.7431  155.8194 C   0  0  0  0  0  0  0  0  0  0  0  0
  147.9000  139.9678  156.0641 N   0  0  0  0  0  0  0  0  0  0  0  0
  152.8771  142.0349  157.1247 H   0  0  0  0  0  0  0  0  0  0  0  0
  151.6520  141.1069  159.7481 H   0  0  0  0  0  0  0  0  0  0  0  0
  153.3316  140.9883  159.2438 H   0  0  0  0  0  0  0  0  0  0  0  0
  152.2494  143.0658  160.7934 H   0  0  0  0  0  0  0  0  0  0  0  0
  153.7284  143.2384  159.8635 H   0  0  0  0  0  0  0  0  0  0  0  0
  151.3228  144.7014  159.3787 H   0  0  0  0  0  0  0  0  0  0  0  0
  152.7289  144.6093  158.3322 H   0  0  0  0  0  0  0  0  0  0  0  0
  150.1945  142.9436  158.2521 H   0  0  0  0  0  0  0  0  0  0  0  0
  150.1433  144.0596  156.5098 H   0  0  0  0  0  0  0  0  0  0  0  0
  149.9912  141.2766  153.7268 H   0  0  0  0  0  0  0  0  0  0  0  0
  147.9844  142.7116  153.2940 H   0  0  0  0  0  0  0  0  0  0  0  0
  145.9160  142.3453  154.6705 H   0  0  0  0  0  0  0  0  0  0  0  0
  145.9507  140.5570  156.4287 H   0  0  0  0  0  0  0  0  0  0  0  0
  1  2  2  0  0  0  0
  2  3  1  0  0  0  0
  2 10  1  0  0  0  0
  3  4  1  0  0  0  0
  4  8  1  0  0  0  0
  4  5  1  0  0  0  0
  4 19  1  0  0  0  0
  5  6  1  0  0  0  0
  5 20  1  0  0  0  0
  5 21  1  0  0  0  0
  6  7  1  0  0  0  0
  6 22  1  0  0  0  0
  6 23  1  0  0  0  0
  7  8  1  0  0  0  0
  7 24  1  0  0  0  0
  7 25  1  0  0  0  0
  8  9  1  0  0  0  0
  8 26  1  0  0  0  0
  9 27  1  0  0  0  0
 10 11  1  0  0  0  0
 10 12  1  0  0  0  0
 10 13  1  0  0  0  0
 13 18  1  0  0  0  0
 13 14  2  0  0  0  0
 14 15  1  0  0  0  0
 14 28  1  0  0  0  0
 15 16  2  0  0  0  0
 15 29  1  0  0  0  0
 16 17  1  0  0  0  0
 16 30  1  0  0  0  0
 17 18  2  0  0  0  0
 17 31  1  0  0  0  0
M  CHG  1   3  -1
M  END
> <s_m_source_file>
AV-unprocessed.smi

> <i_m_source_file_index>
2807

> <i_lp_mmshare_version>
43012

> <i_f3d_flags>
0

> <s_epik_input>
bjFbY0hdW2NIXVtjSF1bY0hdYzFDKEYpKEYpQyg9TylbTkhdW0NAQEhdMltDSDJdW0NIMl1bQ0gyXVtDQEhdMltPSF0=

> <s_epik_cmdline>
J2VwaWtfcHl0aG9uJywgJy1waCcsICc3LjAnLCAnLXRuJywgJzgnLCAnLW1hJywgJzIwMCcsICctbWV0YWxfYmluZGluZycsICctaW1hZScsICc8aW5maWxlLm1hZT4nLCAnLW9tYWUnLCAnPG91dGZpbGUubWFlPic=

> <r_lp_tautomer_probability>
1

> <r_epik_Ionization_Penalty>
5.72231

> <r_epik_Ionization_Penalty_Charging>
5.72231

> <r_epik_Ionization_Penalty_Neutral>
5.49816e-06

> <r_epik_State_Penalty>
5.72227

> <r_epik_Charging_Adjusted_Penalty>
11.4446

> <i_epik_Tot_Q>
-1

> <i_epik_Tot_abs_Q>
1

> <r_epik_Metal_State_Penalty>
1.70075

> <b_epik_Metal_Only>
1

> <s_lp_Force_Field>
OPLS_2005

> <r_lp_Energy>
34.3832

> <b_lp_Chiralities_Consistent>
1

> <s_lp_Variant>
AV-unprocessed.smi:2807-5

> <Gold.Version>
5.8.1

> <Gold.Id.Protein>
6NUR|6NUR_protein|mol2

> <Gold.PLP.Fitness>
40.0068

> <Gold.PLP.PLP>
-33.0942

> <Gold.PLP.part.hbond>
-3.0000

> <Gold.PLP.part.metal>
0.0000

> <Gold.PLP.part.buried>
-2.7084

> <Gold.PLP.part.nonpolar>
-26.8383

> <Gold.PLP.part.repulsive>
0.0099

> <Gold.PLP.ligand.clash>
0.0000

> <Gold.PLP.ligand.torsion>
0.1192

> <Gold.PLP.Chemscore.Hbond>
2.3667

> <Gold.PLP.Chemscore.CHOScore>
0.0000

> <Gold.PLP.Chemscore.Metal>
0.0000

> <Gold.Chemscore.Hbonds>
donor molecule, donor type, donor heavy atom, donor atom, acceptor molecule, acceptor atom, score
      L1  H     9    27       P1  8028  1.00
      P1  H  7989  7998       L1     1  0.36
      P1  H  7997  8008       L1     1  0.98

> <Gold.PLP.Chemscore.Internal.Correction>
0.0508

> <Gold.Rescore>
     Score         DG    S(hbond)    S(metal)    S(lipo)     H(rot)  DE(clash)    DE(int)     intcor
     16.54     -16.92       1.99        0.00      84.77       2.00       0.10       0.28       ----

> <Gold.Chemscore.Fitness>
16.5443

> <Gold.Chemscore.DG>
-16.9229

> <Gold.Chemscore.ZeroCoef>
-5.4800

> <Gold.Chemscore.Hbond>
1.9866

> <Gold.Chemscore.Metal>
0.0000

> <Gold.Chemscore.Lipo>
84.7740

> <Gold.Chemscore.Internal_Hbond>
0.0000

> <Gold.Chemscore.DEClash>
0.1027

> <Gold.Chemscore.DEInternal>
0.2759

> <Gold.Chemscore.Rot>
1.9964

> <Gold.Chemscore.Internal.Correction>
   9.000000E+99

> <Gold.Chemscore.Hbonds>
donor molecule, donor type, donor heavy atom, donor atom, acceptor molecule, acceptor atom, score
      L1  H     9    27       P1  8028  0.96
      P1  H  7989  7998       L1     1  0.09
      P1  H  7997  8008       L1     1  0.91

> <Gold.Chemscore.Hbond.Weighted>
-6.6352

> <Gold.Chemscore.Metal.Weighted>
-0.0000

> <Gold.Chemscore.Lipo.Weighted>
-9.9186

> <Gold.Chemscore.Internal_Hbond.Weighted>
0.0000

> <Gold.Chemscore.DEClash.Weighted>
0.1027

> <Gold.Chemscore.DEInternal.Weighted>
0.2759

> <Gold.Chemscore.Rot.Weighted>
5.1108

> <Gold.Chemscore.Internal.Correction.Weighted>
   9.000000E+99

> <Gold.Protein.RotatedTorsions>
[ 6907 6896 6895 6894 ] final  -99.93 input  -60.11 | X-H torsion
[ 7974 7965 7964 7962 ] final -114.53 input  175.53 | X-H torsion
[ 8008 7997 7996 7995 ] final  -29.94 input   59.86 | X-H torsion
[ 10167 10162 10161 10158 ] final   75.50 input  -65.29 | X-H torsion
[ 10718 10713 10712 10709 ] final   61.80 input   66.30 | X-H torsion
[ 10763 10752 10751 10750 ] final  125.67 input  -60.55 | X-H torsion
[ 11005 11000 10999 10996 ] final -121.45 input  -57.11 | X-H torsion

> <Gold.Protein.ActiveResidues>
 VAL166  LYS551  ARG553  GLY616  TRP617  ASP618  TYR619  PRO620  LYS621  CYS622 
 ASP623  PHE694  ASN695  SER759  ASP760  ASP761  ALA762  ILE779  LEU786  VAL792 
 PHE793  MET794  SER795  GLU796  ALA797  LYS798  CYS799  TRP800  GLU811  SER814 

> <Gold.Protein.RotatedAtoms>
  150.7097  134.0964  159.3949 H   0  0  0  0  0  0  0  0  0  0  0  0  # atno 6907 bound_to 6896
  151.8950  135.0399  160.0510 H   0  0  0  0  0  0  0  0  0  0  0  0  # atno 6908 bound_to 6896
  152.2460  133.5140  159.5334 H   0  0  0  0  0  0  0  0  0  0  0  0  # atno 6909 bound_to 6896
  145.1191  140.8658  143.3825 H   0  0  0  0  0  0  0  0  0  0  0  0  # atno 7974 bound_to 7965
  154.4270  140.1804  156.1328 H   0  0  0  0  0  0  0  0  0  0  0  0  # atno 8008 bound_to 7997
  156.0054  140.3356  155.6862 H   0  0  0  0  0  0  0  0  0  0  0  0  # atno 8009 bound_to 7997
  155.6185  140.0657  157.2676 H   0  0  0  0  0  0  0  0  0  0  0  0  # atno 8010 bound_to 7997
  140.0023  144.5677  150.7727 H   0  0  0  0  0  0  0  0  0  0  0  0  # atno 10167 bound_to 10162
  157.5855  130.9015  149.9507 H   0  0  0  0  0  0  0  0  0  0  0  0  # atno 10718 bound_to 10713
  153.6810  135.3314  155.3178 H   0  0  0  0  0  0  0  0  0  0  0  0  # atno 10763 bound_to 10752
  154.8466  135.4409  154.1606 H   0  0  0  0  0  0  0  0  0  0  0  0  # atno 10764 bound_to 10752
  153.2622  135.6992  153.7643 H   0  0  0  0  0  0  0  0  0  0  0  0  # atno 10765 bound_to 10752
  141.0069  134.0321  157.3465 H   0  0  0  0  0  0  0  0  0  0  0  0  # atno 11005 bound_to 11000
  145.0761  139.2995  143.5807 LP  0  0  0  0  0  0  0  0  0  0  0  0  # atno 17320 bound_to 7965
  146.3522  140.0252  142.8655 LP  0  0  0  0  0  0  0  0  0  0  0  0  # atno 17321 bound_to 7965
  140.7414  143.2817  151.3579 LP  0  0  0  0  0  0  0  0  0  0  0  0  # atno 17342 bound_to 10162
  139.6263  144.0808  152.2437 LP  0  0  0  0  0  0  0  0  0  0  0  0  # atno 17343 bound_to 10162
  156.0903  130.3664  150.0407 LP  0  0  0  0  0  0  0  0  0  0  0  0  # atno 17370 bound_to 10713
  156.8539  130.9468  151.3623 LP  0  0  0  0  0  0  0  0  0  0  0  0  # atno 17371 bound_to 10713
  139.9068  135.0181  156.7522 LP  0  0  0  0  0  0  0  0  0  0  0  0  # atno 17394 bound_to 11000
  140.6797  133.9485  155.7903 LP  0  0  0  0  0  0  0  0  0  0  0  0  # atno 17395 bound_to 11000

$$$$
