AV-unprocessed.smi:49|AV-procd|sdf|478|dock6
  -GOLD-   2262016343D 1   1.00000     0.00000
 Structure written by MMmdl.
 27 28  0  0  0  0  0  0  0  0  1 V2000
  152.8140  142.9732  160.8755 C   0  0  0  0  0  0  0  0  0  0  0  0
  153.1216  143.4160  159.4405 C   0  0  0  0  0  0  0  0  0  0  0  0
  152.0348  143.0421  158.4877 C   0  0  0  0  0  0  0  0  0  0  0  0
  151.6289  141.7501  158.3018 N   0  0  0  0  0  0  0  0  0  0  0  0
  150.7010  141.9258  157.3647 C   0  0  0  0  0  0  0  0  0  0  0  0
  149.8791  140.8441  156.7332 C   0  0  1  0  0  0  0  0  0  0  0  0
  148.8320  141.4052  155.7524 C   0  0  0  0  0  0  0  0  0  0  0  0
  149.3418  140.9796  154.3791 C   0  0  2  0  0  0  0  0  0  0  0  0
  148.3063  140.8216  153.4325 O   0  0  0  0  0  0  0  0  0  0  0  0
  150.0492  139.6672  154.6900 C   0  0  0  0  0  0  0  0  0  0  0  0
  150.7028  139.8989  155.9704 N   0  0  0  0  0  0  0  0  0  0  0  0
  150.5767  143.2061  157.0082 N   0  0  0  0  0  0  0  0  0  0  0  0
  151.4426  143.9568  157.7214 N   0  0  0  0  0  0  0  0  0  0  0  0
  149.3582  140.3081  157.5278 H   0  0  0  0  0  0  0  0  0  0  0  0
  150.0627  141.7104  154.0095 H   0  0  0  0  0  0  0  0  0  0  0  0
  149.9516  143.5933  156.3158 H   0  0  0  0  0  0  0  0  0  0  0  0
  153.6183  143.2626  161.5520 H   0  0  0  0  0  0  0  0  0  0  0  0
  152.6999  141.8906  160.9373 H   0  0  0  0  0  0  0  0  0  0  0  0
  151.8925  143.4291  161.2385 H   0  0  0  0  0  0  0  0  0  0  0  0
  153.2643  144.4968  159.4097 H   0  0  0  0  0  0  0  0  0  0  0  0
  154.0604  142.9709  159.1082 H   0  0  0  0  0  0  0  0  0  0  0  0
  147.8706  140.9292  155.9523 H   0  0  0  0  0  0  0  0  0  0  0  0
  148.6845  142.4830  155.8340 H   0  0  0  0  0  0  0  0  0  0  0  0
  148.6900  140.8053  152.5690 H   0  0  0  0  0  0  0  0  0  0  0  0
  149.3178  138.8643  154.7930 H   0  0  0  0  0  0  0  0  0  0  0  0
  150.7598  139.3763  153.9161 H   0  0  0  0  0  0  0  0  0  0  0  0
  150.7729  139.0177  156.4689 H   0  0  0  0  0  0  0  0  0  0  0  0
  1  2  1  0  0  0  0
  1 17  1  0  0  0  0
  1 18  1  0  0  0  0
  1 19  1  0  0  0  0
  2 20  1  0  0  0  0
  2 21  1  0  0  0  0
  2  3  1  0  0  0  0
  3  4  1  0  0  0  0
  3 13  2  0  0  0  0
  4  5  2  0  0  0  0
  5  6  1  0  0  0  0
  5 12  1  0  0  0  0
  6 14  1  0  0  0  0
  6 11  1  0  0  0  0
  6  7  1  0  0  0  0
  7  8  1  0  0  0  0
  7 22  1  0  0  0  0
  7 23  1  0  0  0  0
  8 15  1  0  0  0  0
  8  9  1  0  0  0  0
  8 10  1  0  0  0  0
  9 24  1  0  0  0  0
 10 11  1  0  0  0  0
 10 25  1  0  0  0  0
 10 26  1  0  0  0  0
 11 27  1  0  0  0  0
 12 13  1  0  0  0  0
 12 16  1  0  0  0  0
M  END
> <s_m_source_file>
AV-unprocessed.smi

> <i_m_source_file_index>
49

> <i_lp_mmshare_version>
43012

> <i_f3d_flags>
0

> <s_epik_input>
W0NIM11bQ0gyXWMxbmMobltuSF0xKVtDQEBIXTJbQ0gyXVtDQEBIXShbT0hdKVtDSDJdW05IXTI=

> <s_epik_cmdline>
J2VwaWtfcHl0aG9uJywgJy1waCcsICc3LjAnLCAnLXRuJywgJzgnLCAnLW1hJywgJzIwMCcsICctbWV0YWxfYmluZGluZycsICctaW1hZScsICc8aW5maWxlLm1hZT4nLCAnLW9tYWUnLCAnPG91dGZpbGUubWFlPic=

> <r_epik_Ionization_Penalty>
1.31544

> <r_epik_Ionization_Penalty_Charging>
0

> <r_epik_Ionization_Penalty_Neutral>
1.31544

> <r_epik_State_Penalty>
2.06074

> <r_epik_Charging_Adjusted_Penalty>
2.06074

> <i_epik_Tot_Q>
0

> <i_epik_Tot_abs_Q>
0

> <r_epik_Metal_State_Penalty>
2.32913

> <b_epik_Metal_Only>
0

> <s_lp_Force_Field>
OPLS_2005

> <r_lp_Energy>
17.94

> <b_lp_Chiralities_Consistent>
1

> <s_lp_Variant>
AV-unprocessed.smi:49-16

> <Gold.Version>
5.8.1

> <Gold.Id.Protein>
6NUR|6NUR_protein|mol2

> <Gold.PLP.Fitness>
31.7260

> <Gold.PLP.PLP>
-25.8265

> <Gold.PLP.part.hbond>
-2.0000

> <Gold.PLP.part.metal>
0.0000

> <Gold.PLP.part.buried>
-4.7809

> <Gold.PLP.part.nonpolar>
-20.1397

> <Gold.PLP.part.repulsive>
0.1586

> <Gold.PLP.ligand.clash>
0.0000

> <Gold.PLP.ligand.torsion>
0.0532

> <Gold.PLP.Chemscore.Hbond>
2.0000

> <Gold.PLP.Chemscore.CHOScore>
0.0000

> <Gold.PLP.Chemscore.Metal>
0.0000

> <Gold.Chemscore.Hbonds>
donor molecule, donor type, donor heavy atom, donor atom, acceptor molecule, acceptor atom, score
      L1  H     9    24       P1  7957  1.00
      L1  H    12    16       P1  8028  1.00

> <Gold.PLP.Chemscore.Internal.Correction>
0.0059

> <Gold.Rescore>
     Score         DG    S(hbond)    S(metal)    S(lipo)     H(rot)  DE(clash)    DE(int)     intcor
     13.27     -13.33       1.99        0.00      50.83       1.86       0.04       0.03       ----

> <Gold.Chemscore.Fitness>
13.2660

> <Gold.Chemscore.DG>
-13.3322

> <Gold.Chemscore.ZeroCoef>
-5.4800

> <Gold.Chemscore.Hbond>
1.9927

> <Gold.Chemscore.Metal>
0.0000

> <Gold.Chemscore.Lipo>
50.8327

> <Gold.Chemscore.Internal_Hbond>
0.0000

> <Gold.Chemscore.DEClash>
0.0358

> <Gold.Chemscore.DEInternal>
0.0305

> <Gold.Chemscore.Rot>
1.8558

> <Gold.Chemscore.Internal.Correction>
   9.000000E+99

> <Gold.Chemscore.Hbonds>
donor molecule, donor type, donor heavy atom, donor atom, acceptor molecule, acceptor atom, score
      L1  H     9    24       P1  7957  0.99
      L1  H    12    16       P1  8028  0.98

> <Gold.Chemscore.Hbond.Weighted>
-6.6555

> <Gold.Chemscore.Metal.Weighted>
-0.0000

> <Gold.Chemscore.Lipo.Weighted>
-5.9474

> <Gold.Chemscore.Internal_Hbond.Weighted>
0.0000

> <Gold.Chemscore.DEClash.Weighted>
0.0358

> <Gold.Chemscore.DEInternal.Weighted>
0.0305

> <Gold.Chemscore.Rot.Weighted>
4.7507

> <Gold.Chemscore.Internal.Correction.Weighted>
   9.000000E+99

> <Gold.Protein.RotatedTorsions>
[ 6907 6896 6895 6894 ] final   47.36 input  -60.11 | X-H torsion
[ 7974 7965 7964 7962 ] final   33.68 input  175.53 | X-H torsion
[ 8008 7997 7996 7995 ] final -177.24 input   59.86 | X-H torsion
[ 10167 10162 10161 10158 ] final  -39.17 input  -65.29 | X-H torsion
[ 10718 10713 10712 10709 ] final  -90.75 input   66.30 | X-H torsion
[ 10763 10752 10751 10750 ] final  103.03 input  -60.55 | X-H torsion
[ 11005 11000 10999 10996 ] final   27.30 input  -57.11 | X-H torsion

> <Gold.Protein.ActiveResidues>
 VAL166  LYS551  ARG553  GLY616  TRP617  ASP618  TYR619  PRO620  LYS621  CYS622 
 ASP623  PHE694  ASN695  SER759  ASP760  ASP761  ALA762  ILE779  LEU786  VAL792 
 PHE793  MET794  SER795  GLU796  ALA797  LYS798  CYS799  TRP800  GLU811  SER814 

> <Gold.Protein.RotatedAtoms>
  152.2672  134.7972  160.0420 H   0  0  0  0  0  0  0  0  0  0  0  0  # atno 6907 bound_to 6896
  151.8597  133.3450  159.3708 H   0  0  0  0  0  0  0  0  0  0  0  0  # atno 6908 bound_to 6896
  150.7138  134.5146  159.5668 H   0  0  0  0  0  0  0  0  0  0  0  0  # atno 6909 bound_to 6896
  146.1404  139.6365  142.9167 H   0  0  0  0  0  0  0  0  0  0  0  0  # atno 7974 bound_to 7965
  156.0046  140.1227  157.0514 H   0  0  0  0  0  0  0  0  0  0  0  0  # atno 8008 bound_to 7997
  154.4254  140.1100  156.5813 H   0  0  0  0  0  0  0  0  0  0  0  0  # atno 8009 bound_to 7997
  155.6165  140.3472  155.4641 H   0  0  0  0  0  0  0  0  0  0  0  0  # atno 8010 bound_to 7997
  140.7071  143.3231  151.2745 H   0  0  0  0  0  0  0  0  0  0  0  0  # atno 10167 bound_to 10162
  155.9989  130.4922  150.5370 H   0  0  0  0  0  0  0  0  0  0  0  0  # atno 10718 bound_to 10713
  153.3473  135.3990  155.1619 H   0  0  0  0  0  0  0  0  0  0  0  0  # atno 10763 bound_to 10752
  154.8655  135.3648  154.5267 H   0  0  0  0  0  0  0  0  0  0  0  0  # atno 10764 bound_to 10752
  153.5716  135.7079  153.5562 H   0  0  0  0  0  0  0  0  0  0  0  0  # atno 10765 bound_to 10752
  140.3278  134.2472  155.7707 H   0  0  0  0  0  0  0  0  0  0  0  0  # atno 11005 bound_to 11000
  145.5060  141.0436  143.2514 LP  0  0  0  0  0  0  0  0  0  0  0  0  # atno 17320 bound_to 7965
  144.7786  139.6575  143.7164 LP  0  0  0  0  0  0  0  0  0  0  0  0  # atno 17321 bound_to 7965
  139.6691  144.0053  152.2741 LP  0  0  0  0  0  0  0  0  0  0  0  0  # atno 17342 bound_to 10162
  139.9645  144.6535  150.8047 LP  0  0  0  0  0  0  0  0  0  0  0  0  # atno 17343 bound_to 10162
  157.3312  131.0700  151.1859 LP  0  0  0  0  0  0  0  0  0  0  0  0  # atno 17370 bound_to 10713
  157.2740  130.6718  149.6033 LP  0  0  0  0  0  0  0  0  0  0  0  0  # atno 17371 bound_to 10713
  141.2071  133.7815  157.0139 LP  0  0  0  0  0  0  0  0  0  0  0  0  # atno 17394 bound_to 11000
  140.0886  134.9606  157.1741 LP  0  0  0  0  0  0  0  0  0  0  0  0  # atno 17395 bound_to 11000

$$$$
