AV-unprocessed.smi:758|AV-procd|sdf|3618|dock10
  -GOLD-   22720 1 13D 1   1.00000     0.00000
 Structure written by MMmdl.
 47 48  0  0  0  0  0  0  0  0  1 V2000
  150.9588  143.9679  159.5975 C   0  0  0  0  0  0  0  0  0  0  0  0
  152.2069  143.5480  158.7902 C   0  0  0  0  0  0  0  0  0  0  0  0
  152.6196  144.7285  157.8829 C   0  0  0  0  0  0  0  0  0  0  0  0
  153.3719  143.3173  159.7788 C   0  0  0  0  0  0  0  0  0  0  0  0
  151.9565  142.2579  157.9332 C   0  0  2  0  0  0  0  0  0  0  0  0
  150.5924  142.2373  157.1943 C   0  0  0  0  0  0  0  0  0  0  0  0
  150.4148  140.9814  156.3203 C   0  0  0  0  0  0  0  0  0  0  0  0
  150.6014  139.6681  157.1102 C   0  0  2  0  0  0  0  0  0  0  0  0
  150.6231  138.6277  156.1508 O   0  0  0  0  0  0  0  0  0  0  0  0
  149.3939  139.3839  158.0427 C   0  0  0  0  0  0  0  0  0  0  0  0
  149.4286  138.0398  158.6160 N   0  0  0  0  0  0  0  0  0  0  0  0
  148.4444  137.4557  159.3184 C   0  0  0  0  0  0  0  0  0  0  0  0
  147.3634  137.9931  159.5578 O   0  0  0  0  0  0  0  0  0  0  0  0
  148.7263  136.0465  159.8412 C   0  0  0  0  0  0  0  0  0  0  0  0
  148.3593  135.9210  161.2399 N   0  0  0  0  0  0  0  0  0  0  0  0
  147.6991  134.9550  161.8816 C   0  0  0  0  0  0  0  0  0  0  0  0
  147.5387  135.1850  163.1772 N   0  0  0  0  0  0  0  0  0  0  0  0
  148.1683  136.3939  163.2736 C   0  0  0  0  0  0  0  0  0  0  0  0
  148.6778  136.8796  162.1416 N   0  0  0  0  0  0  0  0  0  0  0  0
  151.9752  139.6985  157.8162 C   0  0  0  0  0  0  0  0  0  0  0  0
  152.1356  140.9327  158.7186 C   0  0  0  0  0  0  0  0  0  0  0  0
  151.1529  144.8742  160.1720 H   0  0  0  0  0  0  0  0  0  0  0  0
  150.6558  143.2023  160.3113 H   0  0  0  0  0  0  0  0  0  0  0  0
  150.1054  144.1774  158.9533 H   0  0  0  0  0  0  0  0  0  0  0  0
  151.8003  145.0657  157.2483 H   0  0  0  0  0  0  0  0  0  0  0  0
  153.4561  144.4614  157.2362 H   0  0  0  0  0  0  0  0  0  0  0  0
  152.9271  145.5934  158.4718 H   0  0  0  0  0  0  0  0  0  0  0  0
  153.6379  144.2378  160.2998 H   0  0  0  0  0  0  0  0  0  0  0  0
  154.2673  142.9652  159.2653 H   0  0  0  0  0  0  0  0  0  0  0  0
  153.1226  142.5899  160.5505 H   0  0  0  0  0  0  0  0  0  0  0  0
  152.7207  142.2562  157.1541 H   0  0  0  0  0  0  0  0  0  0  0  0
  149.7716  142.3060  157.9065 H   0  0  0  0  0  0  0  0  0  0  0  0
  150.4968  143.1035  156.5413 H   0  0  0  0  0  0  0  0  0  0  0  0
  149.4341  141.0010  155.8432 H   0  0  0  0  0  0  0  0  0  0  0  0
  151.1440  141.0252  155.5093 H   0  0  0  0  0  0  0  0  0  0  0  0
  151.5107  138.3136  156.0691 H   0  0  0  0  0  0  0  0  0  0  0  0
  149.3502  140.1256  158.8399 H   0  0  0  0  0  0  0  0  0  0  0  0
  148.4581  139.4955  157.4936 H   0  0  0  0  0  0  0  0  0  0  0  0
  150.2832  137.5192  158.4817 H   0  0  0  0  0  0  0  0  0  0  0  0
  148.1659  135.3124  159.2607 H   0  0  0  0  0  0  0  0  0  0  0  0
  149.7847  135.8084  159.7231 H   0  0  0  0  0  0  0  0  0  0  0  0
  147.3267  134.0675  161.3912 H   0  0  0  0  0  0  0  0  0  0  0  0
  148.2538  136.9323  164.2061 H   0  0  0  0  0  0  0  0  0  0  0  0
  152.1432  138.7895  158.3938 H   0  0  0  0  0  0  0  0  0  0  0  0
  152.7672  139.7164  157.0660 H   0  0  0  0  0  0  0  0  0  0  0  0
  153.1224  140.8823  159.1756 H   0  0  0  0  0  0  0  0  0  0  0  0
  151.4172  140.8734  159.5350 H   0  0  0  0  0  0  0  0  0  0  0  0
  1  2  1  0  0  0  0
  1 22  1  0  0  0  0
  1 23  1  0  0  0  0
  1 24  1  0  0  0  0
  2  3  1  0  0  0  0
  2  4  1  0  0  0  0
  2  5  1  0  0  0  0
  3 25  1  0  0  0  0
  3 26  1  0  0  0  0
  3 27  1  0  0  0  0
  4 28  1  0  0  0  0
  4 29  1  0  0  0  0
  4 30  1  0  0  0  0
  5 21  1  0  0  0  0
  5  6  1  0  0  0  0
  5 31  1  0  0  0  0
  6  7  1  0  0  0  0
  6 32  1  0  0  0  0
  6 33  1  0  0  0  0
  7  8  1  0  0  0  0
  7 34  1  0  0  0  0
  7 35  1  0  0  0  0
  8  9  1  0  0  0  0
  8 10  1  0  0  0  0
  8 20  1  0  0  0  0
  9 36  1  0  0  0  0
 10 11  1  0  0  0  0
 10 37  1  0  0  0  0
 10 38  1  0  0  0  0
 11 12  1  0  0  0  0
 11 39  1  0  0  0  0
 12 13  2  0  0  0  0
 12 14  1  0  0  0  0
 14 15  1  0  0  0  0
 14 40  1  0  0  0  0
 14 41  1  0  0  0  0
 15 19  1  0  0  0  0
 15 16  1  0  0  0  0
 16 17  2  0  0  0  0
 16 42  1  0  0  0  0
 17 18  1  0  0  0  0
 18 19  2  0  0  0  0
 18 43  1  0  0  0  0
 20 21  1  0  0  0  0
 20 44  1  0  0  0  0
 20 45  1  0  0  0  0
 21 46  1  0  0  0  0
 21 47  1  0  0  0  0
M  END
> <s_m_source_file>
AV-unprocessed.smi

> <i_m_source_file_index>
758

> <i_lp_mmshare_version>
43012

> <i_f3d_flags>
0

> <s_epik_input>
W0NIM11DKFtDSDNdKShbQ0gzXSlbQ0BASF0oW0NIMl1bQ0gyXTEpW0NIMl1bQ0gyXVtDQEBdMShbT0hdKVtDSDJdW05IXUMoPU8pW0NIMl1uMltjSF1uW2NIXW4y

> <s_epik_cmdline>
J2VwaWtfcHl0aG9uJywgJy1waCcsICc3LjAnLCAnLXRuJywgJzgnLCAnLW1hJywgJzIwMCcsICctbWV0YWxfYmluZGluZycsICctaW1hZScsICc8aW5maWxlLm1hZT4nLCAnLW9tYWUnLCAnPG91dGZpbGUubWFlPic=

> <r_lp_tautomer_probability>
1

> <r_epik_Ionization_Penalty>
1.04836e-05

> <r_epik_Ionization_Penalty_Charging>
0

> <r_epik_Ionization_Penalty_Neutral>
1.04836e-05

> <r_epik_State_Penalty>
-0

> <r_epik_Charging_Adjusted_Penalty>
0

> <i_epik_Tot_Q>
0

> <i_epik_Tot_abs_Q>
0

> <r_epik_Metal_State_Penalty>
-0

> <b_epik_Metal_Only>
0

> <s_lp_Force_Field>
OPLS_2005

> <r_lp_Energy>
24.1988

> <b_lp_Chiralities_Consistent>
1

> <s_lp_Variant>
AV-unprocessed.smi:758-2

> <Gold.Version>
5.8.1

> <Gold.Id.Protein>
6NUR|6NUR_protein|mol2

> <Gold.PLP.Fitness>
45.0777

> <Gold.PLP.PLP>
-42.0966

> <Gold.PLP.part.hbond>
-2.0000

> <Gold.PLP.part.metal>
0.0000

> <Gold.PLP.part.buried>
-7.1519

> <Gold.PLP.part.nonpolar>
-34.0299

> <Gold.PLP.part.repulsive>
0.1732

> <Gold.PLP.ligand.clash>
0.0000

> <Gold.PLP.ligand.torsion>
1.0046

> <Gold.PLP.Chemscore.Hbond>
1.6400

> <Gold.PLP.Chemscore.CHOScore>
0.0000

> <Gold.PLP.Chemscore.Metal>
0.0000

> <Gold.Chemscore.Hbonds>
donor molecule, donor type, donor heavy atom, donor atom, acceptor molecule, acceptor atom, score
      P1  H  6931  6943       L1    19  0.73
      P1  H  6934  6947       L1    13  0.61

> <Gold.PLP.Chemscore.Internal.Correction>
0.0704

> <Gold.Rescore>
     Score         DG    S(hbond)    S(metal)    S(lipo)     H(rot)  DE(clash)    DE(int)     intcor
     12.15     -13.63       1.69        0.00      90.65       3.17       0.07       1.40       ----

> <Gold.Chemscore.Fitness>
12.1529

> <Gold.Chemscore.DG>
-13.6259

> <Gold.Chemscore.ZeroCoef>
-5.4800

> <Gold.Chemscore.Hbond>
1.6904

> <Gold.Chemscore.Metal>
0.0000

> <Gold.Chemscore.Lipo>
90.6464

> <Gold.Chemscore.Internal_Hbond>
0.0000

> <Gold.Chemscore.DEClash>
0.0737

> <Gold.Chemscore.DEInternal>
1.3993

> <Gold.Chemscore.Rot>
3.1663

> <Gold.Chemscore.Internal.Correction>
   9.000000E+99

> <Gold.Chemscore.Hbonds>
donor molecule, donor type, donor heavy atom, donor atom, acceptor molecule, acceptor atom, score
      P1  H  6931  6943       L1    19  0.73
      P1  H  6934  6947       L1    13  0.61

> <Gold.Chemscore.Hbond.Weighted>
-5.6458

> <Gold.Chemscore.Metal.Weighted>
-0.0000

> <Gold.Chemscore.Lipo.Weighted>
-10.6056

> <Gold.Chemscore.Internal_Hbond.Weighted>
0.0000

> <Gold.Chemscore.DEClash.Weighted>
0.0737

> <Gold.Chemscore.DEInternal.Weighted>
1.3993

> <Gold.Chemscore.Rot.Weighted>
8.1056

> <Gold.Chemscore.Internal.Correction.Weighted>
   9.000000E+99

> <Gold.Protein.RotatedTorsions>
[ 6907 6896 6895 6894 ] final   52.34 input  -60.11 | X-H torsion
[ 7974 7965 7964 7962 ] final  122.47 input  175.53 | X-H torsion
[ 8008 7997 7996 7995 ] final  -19.42 input   59.86 | X-H torsion
[ 10167 10162 10161 10158 ] final   75.97 input  -65.29 | X-H torsion
[ 10718 10713 10712 10709 ] final -128.88 input   66.30 | X-H torsion
[ 10763 10752 10751 10750 ] final   51.47 input  -60.55 | X-H torsion
[ 11005 11000 10999 10996 ] final   90.49 input  -57.11 | X-H torsion

> <Gold.Protein.ActiveResidues>
 VAL166  LYS551  ARG553  GLY616  TRP617  ASP618  TYR619  PRO620  LYS621  CYS622 
 ASP623  PHE694  ASN695  SER759  ASP760  ASP761  ALA762  ILE779  LEU786  VAL792 
 PHE793  MET794  SER795  GLU796  ALA797  LYS798  CYS799  TRP800  GLU811  SER814 

> <Gold.Protein.RotatedAtoms>
  152.3222  134.7366  160.0310 H   0  0  0  0  0  0  0  0  0  0  0  0  # atno 6907 bound_to 6896
  151.7810  133.3344  159.3479 H   0  0  0  0  0  0  0  0  0  0  0  0  # atno 6908 bound_to 6896
  150.7376  134.5862  159.6008 H   0  0  0  0  0  0  0  0  0  0  0  0  # atno 6909 bound_to 6896
  145.1072  139.3477  143.4782 H   0  0  0  0  0  0  0  0  0  0  0  0  # atno 7974 bound_to 7965
  154.4838  140.2089  155.9703 H   0  0  0  0  0  0  0  0  0  0  0  0  # atno 8008 bound_to 7997
  156.1205  140.3214  155.8170 H   0  0  0  0  0  0  0  0  0  0  0  0  # atno 8009 bound_to 7997
  155.4476  140.0514  157.2995 H   0  0  0  0  0  0  0  0  0  0  0  0  # atno 8010 bound_to 7997
  139.9972  144.5713  150.7767 H   0  0  0  0  0  0  0  0  0  0  0  0  # atno 10167 bound_to 10162
  156.1993  130.6847  151.0520 H   0  0  0  0  0  0  0  0  0  0  0  0  # atno 10718 bound_to 10713
  152.9785  135.5844  154.4421 H   0  0  0  0  0  0  0  0  0  0  0  0  # atno 10763 bound_to 10752
  154.4021  135.2769  155.2092 H   0  0  0  0  0  0  0  0  0  0  0  0  # atno 10764 bound_to 10752
  154.3918  135.6123  153.5902 H   0  0  0  0  0  0  0  0  0  0  0  0  # atno 10765 bound_to 10752
  139.8855  134.8617  156.3292 H   0  0  0  0  0  0  0  0  0  0  0  0  # atno 11005 bound_to 11000
  146.3528  140.0975  142.8609 LP  0  0  0  0  0  0  0  0  0  0  0  0  # atno 17320 bound_to 7965
  145.0888  140.9270  143.4781 LP  0  0  0  0  0  0  0  0  0  0  0  0  # atno 17321 bound_to 7965
  140.7432  143.2843  151.3508 LP  0  0  0  0  0  0  0  0  0  0  0  0  # atno 17342 bound_to 10162
  139.6297  144.0744  152.2465 LP  0  0  0  0  0  0  0  0  0  0  0  0  # atno 17343 bound_to 10162
  157.6976  131.0788  150.6920 LP  0  0  0  0  0  0  0  0  0  0  0  0  # atno 17370 bound_to 10713
  156.6977  130.4614  149.5582 LP  0  0  0  0  0  0  0  0  0  0  0  0  # atno 17371 bound_to 10713
  140.9734  133.7313  156.0567 LP  0  0  0  0  0  0  0  0  0  0  0  0  # atno 17394 bound_to 11000
  140.7841  134.3691  157.5480 LP  0  0  0  0  0  0  0  0  0  0  0  0  # atno 17395 bound_to 11000

$$$$
