AV-unprocessed.smi:2193|AV-procd|sdf|8898|dock8
  -GOLD-   2272012103D 1   1.00000     0.00000
 Structure written by MMmdl.
 40 42  0  0  0  0  0  0  0  0  1 V2000
  153.5622  138.4288  154.3121 O   0  0  0  0  0  0  0  0  0  0  0  0
  152.2299  138.4995  154.7710 C   0  0  0  0  0  0  0  0  0  0  0  0
  152.0189  139.5790  155.7890 C   0  0  0  0  0  0  0  0  0  0  0  0
  152.8665  139.7565  156.8032 N   0  0  0  0  0  0  0  0  0  0  0  0
  152.3249  140.8384  157.4684 C   0  0  0  0  0  0  0  0  0  0  0  0
  152.7635  141.5169  158.6281 C   0  0  0  0  0  0  0  0  0  0  0  0
  152.0381  142.6180  159.1282 C   0  0  0  0  0  0  0  0  0  0  0  0
  150.8677  143.0571  158.4761 C   0  0  0  0  0  0  0  0  0  0  0  0
  150.4138  142.3953  157.3189 C   0  0  0  0  0  0  0  0  0  0  0  0
  151.1392  141.2937  156.8260 C   0  0  0  0  0  0  0  0  0  0  0  0
  150.9676  140.4382  155.7415 N   0  0  0  0  0  0  0  0  0  0  0  0
  149.8815  140.5029  154.7704 C   0  0  0  0  0  0  0  0  0  0  0  0
  149.2256  139.1298  154.5168 C   0  0  2  0  0  0  0  0  0  0  0  0
  149.6230  138.6298  153.2563 O   0  0  0  0  0  0  0  0  0  0  0  0
  147.6921  139.1985  154.5519 C   0  0  0  0  0  0  0  0  0  0  0  0
  147.2934  139.9933  155.6615 O   0  0  0  0  0  0  0  0  0  0  0  0
  146.5760  141.1443  155.4171 C   0  0  0  0  0  0  0  0  0  0  0  0
  146.8128  141.7964  154.1890 C   0  0  0  0  0  0  0  0  0  0  0  0
  146.1240  142.9785  153.8555 C   0  0  0  0  0  0  0  0  0  0  0  0
  145.1870  143.5232  154.7527 C   0  0  0  0  0  0  0  0  0  0  0  0
  144.5236  144.6599  154.4342 F   0  0  0  0  0  0  0  0  0  0  0  0
  144.9413  142.8839  155.9821 C   0  0  0  0  0  0  0  0  0  0  0  0
  145.6298  141.7008  156.3152 C   0  0  0  0  0  0  0  0  0  0  0  0
  154.0576  139.1216  154.7210 H   0  0  0  0  0  0  0  0  0  0  0  0
  151.5810  138.6825  153.9135 H   0  0  0  0  0  0  0  0  0  0  0  0
  151.9298  137.5367  155.1844 H   0  0  0  0  0  0  0  0  0  0  0  0
  153.6605  141.1899  159.1332 H   0  0  0  0  0  0  0  0  0  0  0  0
  152.3823  143.1290  160.0154 H   0  0  0  0  0  0  0  0  0  0  0  0
  150.3184  143.9023  158.8647 H   0  0  0  0  0  0  0  0  0  0  0  0
  149.5182  142.7302  156.8169 H   0  0  0  0  0  0  0  0  0  0  0  0
  149.1391  141.2044  155.1524 H   0  0  0  0  0  0  0  0  0  0  0  0
  150.2409  140.9265  153.8336 H   0  0  0  0  0  0  0  0  0  0  0  0
  149.5610  138.4147  155.2682 H   0  0  0  0  0  0  0  0  0  0  0  0
  149.2069  137.7920  153.1211 H   0  0  0  0  0  0  0  0  0  0  0  0
  147.3138  139.6177  153.6177 H   0  0  0  0  0  0  0  0  0  0  0  0
  147.2825  138.1930  154.6626 H   0  0  0  0  0  0  0  0  0  0  0  0
  147.5306  141.3855  153.4943 H   0  0  0  0  0  0  0  0  0  0  0  0
  146.3154  143.4668  152.9113 H   0  0  0  0  0  0  0  0  0  0  0  0
  144.2229  143.3011  156.6723 H   0  0  0  0  0  0  0  0  0  0  0  0
  145.4141  141.2401  157.2670 H   0  0  0  0  0  0  0  0  0  0  0  0
  1  2  1  0  0  0  0
  1 24  1  0  0  0  0
  2  3  1  0  0  0  0
  2 25  1  0  0  0  0
  2 26  1  0  0  0  0
  3 11  1  0  0  0  0
  3  4  2  0  0  0  0
  4  5  1  0  0  0  0
  5 10  2  0  0  0  0
  5  6  1  0  0  0  0
  6  7  2  0  0  0  0
  6 27  1  0  0  0  0
  7  8  1  0  0  0  0
  7 28  1  0  0  0  0
  8  9  2  0  0  0  0
  8 29  1  0  0  0  0
  9 10  1  0  0  0  0
  9 30  1  0  0  0  0
 10 11  1  0  0  0  0
 11 12  1  0  0  0  0
 12 13  1  0  0  0  0
 12 31  1  0  0  0  0
 12 32  1  0  0  0  0
 13 14  1  0  0  0  0
 13 15  1  0  0  0  0
 13 33  1  0  0  0  0
 14 34  1  0  0  0  0
 15 16  1  0  0  0  0
 15 35  1  0  0  0  0
 15 36  1  0  0  0  0
 16 17  1  0  0  0  0
 17 23  1  0  0  0  0
 17 18  2  0  0  0  0
 18 19  1  0  0  0  0
 18 37  1  0  0  0  0
 19 20  2  0  0  0  0
 19 38  1  0  0  0  0
 20 21  1  0  0  0  0
 20 22  1  0  0  0  0
 22 23  2  0  0  0  0
 22 39  1  0  0  0  0
 23 40  1  0  0  0  0
M  END
> <s_m_source_file>
AV-unprocessed.smi

> <i_m_source_file_index>
2193

> <i_lp_mmshare_version>
43012

> <i_f3d_flags>
0

> <s_epik_input>
W2NIXTFbY0hdW2NIXVtjSF1jKGMxMiluKGMobjIpW0NIMl1bT0hdKVtDSDJdW0NASF0oW09IXSlbQ0gyXU9jM1tjSF1bY0hdYyhGKVtjSF1bY0hdMw==

> <s_epik_cmdline>
J2VwaWtfcHl0aG9uJywgJy1waCcsICc3LjAnLCAnLXRuJywgJzgnLCAnLW1hJywgJzIwMCcsICctbWV0YWxfYmluZGluZycsICctaW1hZScsICc8aW5maWxlLm1hZT4nLCAnLW9tYWUnLCAnPG91dGZpbGUubWFlPic=

> <r_lp_tautomer_probability>
1

> <r_epik_Ionization_Penalty>
0.0549747

> <r_epik_Ionization_Penalty_Charging>
0

> <r_epik_Ionization_Penalty_Neutral>
0.0549747

> <r_epik_State_Penalty>
0.0472568

> <r_epik_Charging_Adjusted_Penalty>
0.0472568

> <i_epik_Tot_Q>
0

> <i_epik_Tot_abs_Q>
0

> <r_epik_Metal_State_Penalty>
4.91905e-05

> <b_epik_Metal_Only>
0

> <s_lp_Force_Field>
OPLS_2005

> <r_lp_Energy>
14.0704

> <b_lp_Chiralities_Consistent>
1

> <s_lp_Variant>
AV-unprocessed.smi:2193-1

> <Gold.Version>
5.8.1

> <Gold.Id.Protein>
6NUR|6NUR_protein|mol2

> <Gold.PLP.Fitness>
47.8049

> <Gold.PLP.PLP>
-45.3724

> <Gold.PLP.part.hbond>
-4.1702

> <Gold.PLP.part.metal>
0.0000

> <Gold.PLP.part.buried>
-5.0801

> <Gold.PLP.part.nonpolar>
-35.6854

> <Gold.PLP.part.repulsive>
0.0144

> <Gold.PLP.ligand.clash>
0.0000

> <Gold.PLP.ligand.torsion>
1.8149

> <Gold.PLP.Chemscore.Hbond>
2.0000

> <Gold.PLP.Chemscore.CHOScore>
0.0000

> <Gold.PLP.Chemscore.Metal>
0.0000

> <Gold.Chemscore.Hbonds>
donor molecule, donor type, donor heavy atom, donor atom, acceptor molecule, acceptor atom, score
      L1  H    14    34       P1  7948  0.90
      P1  H  7997  8008       L1     4  1.00

> <Gold.PLP.Chemscore.Internal.Correction>
0.0623

> <Gold.Rescore>
     Score         DG    S(hbond)    S(metal)    S(lipo)     H(rot)  DE(clash)    DE(int)     intcor
     12.20     -13.90       1.75        0.00      92.38       3.22       0.07       1.62       ----

> <Gold.Chemscore.Fitness>
12.2029

> <Gold.Chemscore.DG>
-13.9002

> <Gold.Chemscore.ZeroCoef>
-5.4800

> <Gold.Chemscore.Hbond>
1.7528

> <Gold.Chemscore.Metal>
0.0000

> <Gold.Chemscore.Lipo>
92.3781

> <Gold.Chemscore.Internal_Hbond>
0.0000

> <Gold.Chemscore.DEClash>
0.0742

> <Gold.Chemscore.DEInternal>
1.6231

> <Gold.Chemscore.Rot>
3.2196

> <Gold.Chemscore.Internal.Correction>
   9.000000E+99

> <Gold.Chemscore.Hbonds>
donor molecule, donor type, donor heavy atom, donor atom, acceptor molecule, acceptor atom, score
      L1  H    14    34       P1  7948  0.83
      P1  H  7997  8008       L1     4  0.58

> <Gold.Chemscore.Hbond.Weighted>
-5.8542

> <Gold.Chemscore.Metal.Weighted>
-0.0000

> <Gold.Chemscore.Lipo.Weighted>
-10.8082

> <Gold.Chemscore.Internal_Hbond.Weighted>
0.0000

> <Gold.Chemscore.DEClash.Weighted>
0.0742

> <Gold.Chemscore.DEInternal.Weighted>
1.6231

> <Gold.Chemscore.Rot.Weighted>
8.2422

> <Gold.Chemscore.Internal.Correction.Weighted>
   9.000000E+99

> <Gold.Protein.RotatedTorsions>
[ 6907 6896 6895 6894 ] final   60.03 input  -60.11 | X-H torsion
[ 7974 7965 7964 7962 ] final -119.32 input  175.53 | X-H torsion
[ 8008 7997 7996 7995 ] final  -46.87 input   59.86 | X-H torsion
[ 10167 10162 10161 10158 ] final  -20.54 input  -65.29 | X-H torsion
[ 10718 10713 10712 10709 ] final  -13.57 input   66.30 | X-H torsion
[ 10763 10752 10751 10750 ] final    9.71 input  -60.55 | X-H torsion
[ 11005 11000 10999 10996 ] final   92.50 input  -57.11 | X-H torsion

> <Gold.Protein.ActiveResidues>
 VAL166  LYS551  ARG553  GLY616  TRP617  ASP618  TYR619  PRO620  LYS621  CYS622 
 ASP623  PHE694  ASN695  SER759  ASP760  ASP761  ALA762  ILE779  LEU786  VAL792 
 PHE793  MET794  SER795  GLU796  ALA797  LYS798  CYS799  TRP800  GLU811  SER814 

> <Gold.Protein.RotatedAtoms>
  152.3967  134.6354  160.0086 H   0  0  0  0  0  0  0  0  0  0  0  0  # atno 6907 bound_to 6896
  151.6571  133.3313  159.3173 H   0  0  0  0  0  0  0  0  0  0  0  0  # atno 6908 bound_to 6896
  150.7873  134.6912  159.6542 H   0  0  0  0  0  0  0  0  0  0  0  0  # atno 6909 bound_to 6896
  145.0639  140.8310  143.4136 H   0  0  0  0  0  0  0  0  0  0  0  0  # atno 7974 bound_to 7965
  154.4011  140.1360  156.4083 H   0  0  0  0  0  0  0  0  0  0  0  0  # atno 8008 bound_to 7997
  155.7758  140.3482  155.5251 H   0  0  0  0  0  0  0  0  0  0  0  0  # atno 8009 bound_to 7997
  155.8722  140.0973  157.1533 H   0  0  0  0  0  0  0  0  0  0  0  0  # atno 8010 bound_to 7997
  140.7276  143.4713  151.0243 H   0  0  0  0  0  0  0  0  0  0  0  0  # atno 10167 bound_to 10162
  156.6284  130.4894  149.6138 H   0  0  0  0  0  0  0  0  0  0  0  0  # atno 10718 bound_to 10713
  153.2110  135.6869  153.8114 H   0  0  0  0  0  0  0  0  0  0  0  0  # atno 10763 bound_to 10752
  153.7346  135.3247  155.3293 H   0  0  0  0  0  0  0  0  0  0  0  0  # atno 10764 bound_to 10752
  154.8222  135.4644  154.0918 H   0  0  0  0  0  0  0  0  0  0  0  0  # atno 10765 bound_to 10752
  139.8822  134.8737  156.3582 H   0  0  0  0  0  0  0  0  0  0  0  0  # atno 11005 bound_to 11000
  145.1375  139.2593  143.5507 LP  0  0  0  0  0  0  0  0  0  0  0  0  # atno 17320 bound_to 7965
  146.3526  140.1043  142.8606 LP  0  0  0  0  0  0  0  0  0  0  0  0  # atno 17321 bound_to 7965
  139.8405  143.7570  152.3180 LP  0  0  0  0  0  0  0  0  0  0  0  0  # atno 17342 bound_to 10162
  139.7717  144.7474  151.0215 LP  0  0  0  0  0  0  0  0  0  0  0  0  # atno 17343 bound_to 10162
  156.2255  130.6763  151.1411 LP  0  0  0  0  0  0  0  0  0  0  0  0  # atno 17370 bound_to 10713
  157.7207  131.0683  150.6146 LP  0  0  0  0  0  0  0  0  0  0  0  0  # atno 17371 bound_to 10713
  140.9547  133.7427  156.0320 LP  0  0  0  0  0  0  0  0  0  0  0  0  # atno 17394 bound_to 11000
  140.8063  134.3451  157.5425 LP  0  0  0  0  0  0  0  0  0  0  0  0  # atno 17395 bound_to 11000

$$$$
