AV-unprocessed.smi:1207|AV-procd|sdf|5057|dock9
  -GOLD-   22720 4 93D 1   1.00000     0.00000
 Structure written by MMmdl.
 53 55  0  0  0  0  0  0  0  0  3 V2000
  152.1934  144.0415  161.3037 C   0  0  0  0  0  0  0  0  0  0  0  0
  152.0080  143.1702  160.0728 C   0  0  0  0  0  0  0  0  0  0  0  0
  151.0429  143.5537  159.1142 C   0  0  0  0  0  0  0  0  0  0  0  0
  150.8965  142.7368  157.9993 C   0  0  0  0  0  0  0  0  0  0  0  0
  150.0467  142.8369  156.8953 N   0  3  0  0  0  0  0  0  0  0  0  0
  150.2679  141.7889  156.0541 C   0  0  0  0  0  0  0  0  0  0  0  0
  151.2514  141.0239  156.6025 N   0  0  0  0  0  0  0  0  0  0  0  0
  151.8660  139.7816  156.1155 C   0  0  0  0  0  0  0  0  0  0  0  0
  150.8933  138.9105  155.2962 C   0  0  2  0  0  0  0  0  0  0  0  0
  150.7176  139.4885  154.0173 O   0  0  0  0  0  0  0  0  0  0  0  0
  149.5165  138.7956  155.9814 C   0  0  0  0  0  0  0  0  0  0  0  0
  148.7286  137.6313  155.4961 N   0  3  1  0  0  0  0  0  0  0  0  0
  147.7610  137.9986  154.4320 C   0  0  0  0  0  0  0  0  0  0  0  0
  149.5950  136.4857  155.1137 C   0  0  0  0  0  0  0  0  0  0  0  0
  149.6654  135.4452  156.2024 C   0  0  0  0  0  0  0  0  0  0  0  0
  149.4874  135.6184  157.6060 C   0  0  0  0  0  0  0  0  0  0  0  0
  149.1844  136.8771  158.3677 C   0  0  0  0  0  0  0  0  0  0  0  0
  149.6171  134.4786  158.2633 N   0  0  0  0  0  0  0  0  0  0  0  0
  149.8825  133.5048  157.2961 O   0  0  0  0  0  0  0  0  0  0  0  0
  149.9037  134.1039  156.0789 C   0  0  0  0  0  0  0  0  0  0  0  0
  150.1692  133.2246  154.9039 C   0  0  0  0  0  0  0  0  0  0  0  0
  151.6700  141.5739  157.8190 C   0  0  0  0  0  0  0  0  0  0  0  0
  152.6241  141.1801  158.7539 C   0  0  0  0  0  0  0  0  0  0  0  0
  152.7883  141.9981  159.8948 C   0  0  0  0  0  0  0  0  0  0  0  0
  153.8224  141.5954  160.9323 C   0  0  0  0  0  0  0  0  0  0  0  0
  151.5126  144.8933  161.2958 H   0  0  0  0  0  0  0  0  0  0  0  0
  153.2113  144.4293  161.3491 H   0  0  0  0  0  0  0  0  0  0  0  0
  151.9995  143.4696  162.2115 H   0  0  0  0  0  0  0  0  0  0  0  0
  150.4444  144.4437  159.2440 H   0  0  0  0  0  0  0  0  0  0  0  0
  149.7566  141.6001  155.1209 H   0  0  0  0  0  0  0  0  0  0  0  0
  152.7467  140.0432  155.5275 H   0  0  0  0  0  0  0  0  0  0  0  0
  152.2279  139.2325  156.9861 H   0  0  0  0  0  0  0  0  0  0  0  0
  151.3375  137.9255  155.1627 H   0  0  0  0  0  0  0  0  0  0  0  0
  150.0421  139.0093  153.5615 H   0  0  0  0  0  0  0  0  0  0  0  0
  149.6315  138.7229  157.0639 H   0  0  0  0  0  0  0  0  0  0  0  0
  148.9712  139.7229  155.7989 H   0  0  0  0  0  0  0  0  0  0  0  0
  148.2804  138.3162  153.5272 H   0  0  0  0  0  0  0  0  0  0  0  0
  147.1050  138.8092  154.7449 H   0  0  0  0  0  0  0  0  0  0  0  0
  147.1162  137.1583  154.1755 H   0  0  0  0  0  0  0  0  0  0  0  0
  149.2358  136.0613  154.1753 H   0  0  0  0  0  0  0  0  0  0  0  0
  150.6018  136.8502  154.9068 H   0  0  0  0  0  0  0  0  0  0  0  0
  149.6359  137.7470  157.8919 H   0  0  0  0  0  0  0  0  0  0  0  0
  149.5653  136.8287  159.3884 H   0  0  0  0  0  0  0  0  0  0  0  0
  148.1094  137.0493  158.4225 H   0  0  0  0  0  0  0  0  0  0  0  0
  150.7677  133.7449  154.1559 H   0  0  0  0  0  0  0  0  0  0  0  0
  149.2344  132.9168  154.4352 H   0  0  0  0  0  0  0  0  0  0  0  0
  150.7106  132.3262  155.2013 H   0  0  0  0  0  0  0  0  0  0  0  0
  153.2165  140.2874  158.6201 H   0  0  0  0  0  0  0  0  0  0  0  0
  154.3294  140.6709  160.6539 H   0  0  0  0  0  0  0  0  0  0  0  0
  153.3503  141.4364  161.9020 H   0  0  0  0  0  0  0  0  0  0  0  0
  154.5806  142.3718  161.0388 H   0  0  0  0  0  0  0  0  0  0  0  0
  148.1904  137.3155  156.2907 H   0  0  0  0  0  0  0  0  0  0  0  0
  149.3626  143.5638  156.7278 H   0  0  0  0  0  0  0  0  0  0  0  0
  1  2  1  0  0  0  0
  1 26  1  0  0  0  0
  1 27  1  0  0  0  0
  1 28  1  0  0  0  0
  2 24  1  0  0  0  0
  2  3  2  0  0  0  0
  3  4  1  0  0  0  0
  3 29  1  0  0  0  0
  4 22  2  0  0  0  0
  4  5  1  0  0  0  0
  5  6  2  0  0  0  0
  5 53  1  0  0  0  0
  6  7  1  0  0  0  0
  6 30  1  0  0  0  0
  7  8  1  0  0  0  0
  7 22  1  0  0  0  0
  8  9  1  0  0  0  0
  8 31  1  0  0  0  0
  8 32  1  0  0  0  0
  9 10  1  0  0  0  0
  9 11  1  0  0  0  0
  9 33  1  0  0  0  0
 10 34  1  0  0  0  0
 11 12  1  0  0  0  0
 11 35  1  0  0  0  0
 11 36  1  0  0  0  0
 12 13  1  0  0  0  0
 12 14  1  0  0  0  0
 12 52  1  0  0  0  0
 13 37  1  0  0  0  0
 13 38  1  0  0  0  0
 13 39  1  0  0  0  0
 14 15  1  0  0  0  0
 14 40  1  0  0  0  0
 14 41  1  0  0  0  0
 15 20  2  0  0  0  0
 15 16  1  0  0  0  0
 16 17  1  0  0  0  0
 16 18  2  0  0  0  0
 17 42  1  0  0  0  0
 17 43  1  0  0  0  0
 17 44  1  0  0  0  0
 18 19  1  0  0  0  0
 19 20  1  0  0  0  0
 20 21  1  0  0  0  0
 21 45  1  0  0  0  0
 21 46  1  0  0  0  0
 21 47  1  0  0  0  0
 22 23  1  0  0  0  0
 23 24  2  0  0  0  0
 23 48  1  0  0  0  0
 24 25  1  0  0  0  0
 25 49  1  0  0  0  0
 25 50  1  0  0  0  0
 25 51  1  0  0  0  0
M  CHG  1   5   1
M  CHG  1  12   1
M  END
> <s_m_source_file>
AV-unprocessed.smi

> <i_m_source_file_index>
1207

> <i_lp_mmshare_version>
43012

> <i_f3d_flags>
0

> <s_epik_input>
W0NIM11jKFtjSF0xKWMoW0NIM10pW2NIXWMoYzEyKW4oW2NIXW4yKVtDSDJdW0NASF0oW09IXSlbQ0gyXU4oW0NIM10pW0NIMl1jM2MoW0NIM10pbm9jM1tDSDNd

> <s_epik_cmdline>
J2VwaWtfcHl0aG9uJywgJy1waCcsICc3LjAnLCAnLXRuJywgJzgnLCAnLW1hJywgJzIwMCcsICctbWV0YWxfYmluZGluZycsICctaW1hZScsICc8aW5maWxlLm1hZT4nLCAnLW9tYWUnLCAnPG91dGZpbGUubWFlPic=

> <r_epik_Ionization_Penalty>
1.77463

> <r_epik_Ionization_Penalty_Charging>
1.77463

> <r_epik_Ionization_Penalty_Neutral>
3.70885e-06

> <r_epik_State_Penalty>
1.85225

> <r_epik_Charging_Adjusted_Penalty>
3.62688

> <i_epik_Tot_Q>
2

> <i_epik_Tot_abs_Q>
2

> <r_epik_Metal_State_Penalty>
1.92674

> <b_epik_Metal_Only>
0

> <s_lp_Force_Field>
OPLS_2005

> <r_lp_Energy>
17.578

> <b_lp_Chiralities_Consistent>
1

> <s_lp_Variant>
AV-unprocessed.smi:1207-9

> <Gold.Version>
5.8.1

> <Gold.Id.Protein>
6NUR|6NUR_protein|mol2

> <Gold.PLP.Fitness>
52.1798

> <Gold.PLP.PLP>
-44.1613

> <Gold.PLP.part.hbond>
-4.3749

> <Gold.PLP.part.metal>
0.0000

> <Gold.PLP.part.buried>
-5.0125

> <Gold.PLP.part.nonpolar>
-35.5446

> <Gold.PLP.part.repulsive>
0.0347

> <Gold.PLP.ligand.clash>
0.0000

> <Gold.PLP.ligand.torsion>
2.0518

> <Gold.PLP.Chemscore.Hbond>
4.0000

> <Gold.PLP.Chemscore.CHOScore>
0.0000

> <Gold.PLP.Chemscore.Metal>
0.0000

> <Gold.Chemscore.Hbonds>
donor molecule, donor type, donor heavy atom, donor atom, acceptor molecule, acceptor atom, score
      L1  H     5    53       P1  8028  1.79
      P1  H  6896  6907       L1    18  1.00
      P1  H  7989  7998       L1    10  1.00

> <Gold.PLP.Chemscore.Internal.Correction>
0.1221

> <Gold.Rescore>
     Score         DG    S(hbond)    S(metal)    S(lipo)     H(rot)  DE(clash)    DE(int)     intcor
     20.24     -22.48       2.80        0.00     120.75       2.54       0.09       2.15       ----

> <Gold.Chemscore.Fitness>
20.2352

> <Gold.Chemscore.DG>
-22.4753

> <Gold.Chemscore.ZeroCoef>
-5.4800

> <Gold.Chemscore.Hbond>
2.8018

> <Gold.Chemscore.Metal>
0.0000

> <Gold.Chemscore.Lipo>
120.7457

> <Gold.Chemscore.Internal_Hbond>
0.0000

> <Gold.Chemscore.DEClash>
0.0949

> <Gold.Chemscore.DEInternal>
2.1451

> <Gold.Chemscore.Rot>
2.5351

> <Gold.Chemscore.Internal.Correction>
   9.000000E+99

> <Gold.Chemscore.Hbonds>
donor molecule, donor type, donor heavy atom, donor atom, acceptor molecule, acceptor atom, score
      L1  H     5    53       P1  8028  0.85
      P1  H  6896  6907       L1    18  0.66
      P1  H  7989  7998       L1    10  0.99

> <Gold.Chemscore.Hbond.Weighted>
-9.3580

> <Gold.Chemscore.Metal.Weighted>
-0.0000

> <Gold.Chemscore.Lipo.Weighted>
-14.1273

> <Gold.Chemscore.Internal_Hbond.Weighted>
0.0000

> <Gold.Chemscore.DEClash.Weighted>
0.0949

> <Gold.Chemscore.DEInternal.Weighted>
2.1451

> <Gold.Chemscore.Rot.Weighted>
6.4900

> <Gold.Chemscore.Internal.Correction.Weighted>
   9.000000E+99

> <Gold.Protein.RotatedTorsions>
[ 6907 6896 6895 6894 ] final  -85.41 input  -60.11 | X-H torsion
[ 7974 7965 7964 7962 ] final  -79.67 input  175.53 | X-H torsion
[ 8008 7997 7996 7995 ] final   38.56 input   59.86 | X-H torsion
[ 10167 10162 10161 10158 ] final   45.62 input  -65.29 | X-H torsion
[ 10718 10713 10712 10709 ] final -161.90 input   66.30 | X-H torsion
[ 10763 10752 10751 10750 ] final -137.29 input  -60.55 | X-H torsion
[ 11005 11000 10999 10996 ] final   13.42 input  -57.11 | X-H torsion

> <Gold.Protein.ActiveResidues>
 VAL166  LYS551  ARG553  GLY616  TRP617  ASP618  TYR619  PRO620  LYS621  CYS622 
 ASP623  PHE694  ASN695  SER759  ASP760  ASP761  ALA762  ILE779  LEU786  VAL792 
 PHE793  MET794  SER795  GLU796  ALA797  LYS798  CYS799  TRP800  GLU811  SER814 

> <Gold.Protein.RotatedAtoms>
  150.6870  134.3209  159.4785 H   0  0  0  0  0  0  0  0  0  0  0  0  # atno 6907 bound_to 6896
  152.1084  134.9289  160.0576 H   0  0  0  0  0  0  0  0  0  0  0  0  # atno 6908 bound_to 6896
  152.0541  133.3997  159.4426 H   0  0  0  0  0  0  0  0  0  0  0  0  # atno 6909 bound_to 6896
  145.5701  140.9467  143.1400 H   0  0  0  0  0  0  0  0  0  0  0  0  # atno 7974 bound_to 7965
  155.2221  140.3332  155.4314 H   0  0  0  0  0  0  0  0  0  0  0  0  # atno 8008 bound_to 7997
  156.2329  140.1859  156.7243 H   0  0  0  0  0  0  0  0  0  0  0  0  # atno 8009 bound_to 7997
  154.6008  140.0623  156.9351 H   0  0  0  0  0  0  0  0  0  0  0  0  # atno 8010 bound_to 7997
  140.3222  144.2691  150.6181 H   0  0  0  0  0  0  0  0  0  0  0  0  # atno 10167 bound_to 10162
  156.6027  130.8817  151.2918 H   0  0  0  0  0  0  0  0  0  0  0  0  # atno 10718 bound_to 10713
  154.8665  135.3646  154.5200 H   0  0  0  0  0  0  0  0  0  0  0  0  # atno 10763 bound_to 10752
  153.5830  135.7018  153.5460 H   0  0  0  0  0  0  0  0  0  0  0  0  # atno 10764 bound_to 10752
  153.3440  135.4090  155.1556 H   0  0  0  0  0  0  0  0  0  0  0  0  # atno 10765 bound_to 10752
  140.4809  134.0936  155.7751 H   0  0  0  0  0  0  0  0  0  0  0  0  # atno 11005 bound_to 11000
  144.7442  139.7366  143.7299 LP  0  0  0  0  0  0  0  0  0  0  0  0  # atno 17320 bound_to 7965
  146.1790  139.4974  142.9878 LP  0  0  0  0  0  0  0  0  0  0  0  0  # atno 17321 bound_to 7965
  140.5473  143.2212  151.7986 LP  0  0  0  0  0  0  0  0  0  0  0  0  # atno 17342 bound_to 10162
  139.4872  144.4523  151.9639 LP  0  0  0  0  0  0  0  0  0  0  0  0  # atno 17343 bound_to 10162
  157.7275  130.9644  150.1702 LP  0  0  0  0  0  0  0  0  0  0  0  0  # atno 17370 bound_to 10713
  156.2455  130.3695  149.8289 LP  0  0  0  0  0  0  0  0  0  0  0  0  # atno 17371 bound_to 10713
  141.1531  133.8932  157.2046 LP  0  0  0  0  0  0  0  0  0  0  0  0  # atno 17394 bound_to 11000
  139.9827  135.0093  156.9788 LP  0  0  0  0  0  0  0  0  0  0  0  0  # atno 17395 bound_to 11000

$$$$
