AV-unprocessed.smi:1809|AV-procd|sdf|7316|dock4
  -GOLD-   22720 8573D 1   1.00000     0.00000
 Structure written by MMmdl.
 40 42  0  0  0  0  0  0  0  0  2 V2000
  151.7857  141.0150  157.3890 C   0  0  0  0  0  0  0  0  0  0  0  0
  151.4151  140.0153  156.3474 C   0  0  0  0  0  0  0  0  0  0  0  0
  151.6756  140.1910  155.0461 N   0  0  0  0  0  0  0  0  0  0  0  0
  151.2394  139.1239  154.2731 N   0  0  0  0  0  0  0  0  0  0  0  0
  150.6612  138.1715  155.0177 C   0  0  0  0  0  0  0  0  0  0  0  0
  150.1261  136.9692  154.4844 N   0  0  0  0  0  0  0  0  0  0  0  0
  150.3709  135.7053  154.8719 C   0  0  0  0  0  0  0  0  0  0  0  0
  151.1281  135.3719  155.7840 O   0  0  0  0  0  0  0  0  0  0  0  0
  149.6831  134.8263  154.1294 N   0  0  0  0  0  0  0  0  0  0  0  0
  149.7284  133.3775  154.2964 C   0  0  0  0  0  0  0  0  0  0  0  0
  148.9089  132.6481  153.2170 C   0  0  1  0  0  0  0  0  0  0  0  0
  148.3382  131.3074  153.7354 C   0  0  0  0  0  0  0  0  0  0  0  0
  147.4797  130.7344  152.6830 N   0  3  1  0  0  0  0  0  0  0  0  0
  146.8312  129.4363  152.9367 C   0  0  0  0  0  0  0  0  0  0  0  0
  145.6021  129.4213  152.0049 C   0  0  0  0  0  0  0  0  0  0  0  0
  145.5371  130.8251  151.3753 C   0  0  0  0  0  0  0  0  0  0  0  0
  146.4070  131.6591  152.3098 C   0  0  2  0  0  0  0  0  0  0  0  0
  147.0268  132.9526  151.7658 C   0  0  0  0  0  0  0  0  0  0  0  0
  147.8401  133.5068  152.8012 O   0  0  0  0  0  0  0  0  0  0  0  0
  150.6016  138.5055  156.7399 S   0  0  0  0  0  0  0  0  0  0  0  0
  152.1155  141.9469  156.9284 H   0  0  0  0  0  0  0  0  0  0  0  0
  152.5940  140.6248  158.0076 H   0  0  0  0  0  0  0  0  0  0  0  0
  150.9268  141.2263  158.0262 H   0  0  0  0  0  0  0  0  0  0  0  0
  149.4798  137.0866  153.7183 H   0  0  0  0  0  0  0  0  0  0  0  0
  149.0859  135.1820  153.3970 H   0  0  0  0  0  0  0  0  0  0  0  0
  150.7664  133.0413  154.2774 H   0  0  0  0  0  0  0  0  0  0  0  0
  149.3429  133.1339  155.2868 H   0  0  0  0  0  0  0  0  0  0  0  0
  149.5470  132.4450  152.3550 H   0  0  0  0  0  0  0  0  0  0  0  0
  149.1447  130.6121  153.9709 H   0  0  0  0  0  0  0  0  0  0  0  0
  147.7589  131.4591  154.6476 H   0  0  0  0  0  0  0  0  0  0  0  0
  147.5171  128.6117  152.7403 H   0  0  0  0  0  0  0  0  0  0  0  0
  146.5131  129.3745  153.9787 H   0  0  0  0  0  0  0  0  0  0  0  0
  145.6868  128.6524  151.2362 H   0  0  0  0  0  0  0  0  0  0  0  0
  144.6990  129.2127  152.5795 H   0  0  0  0  0  0  0  0  0  0  0  0
  145.9706  130.8041  150.3743 H   0  0  0  0  0  0  0  0  0  0  0  0
  144.5188  131.2071  151.2935 H   0  0  0  0  0  0  0  0  0  0  0  0
  145.8225  131.8938  153.2024 H   0  0  0  0  0  0  0  0  0  0  0  0
  147.6232  132.7676  150.8711 H   0  0  0  0  0  0  0  0  0  0  0  0
  146.2482  133.6675  151.4988 H   0  0  0  0  0  0  0  0  0  0  0  0
  148.0526  130.6126  151.8600 H   0  0  0  0  0  0  0  0  0  0  0  0
  1  2  1  0  0  0  0
  1 21  1  0  0  0  0
  1 22  1  0  0  0  0
  1 23  1  0  0  0  0
  2 20  1  0  0  0  0
  2  3  2  0  0  0  0
  3  4  1  0  0  0  0
  4  5  2  0  0  0  0
  5  6  1  0  0  0  0
  5 20  1  0  0  0  0
  6  7  1  0  0  0  0
  6 24  1  0  0  0  0
  7  8  2  0  0  0  0
  7  9  1  0  0  0  0
  9 10  1  0  0  0  0
  9 25  1  0  0  0  0
 10 11  1  0  0  0  0
 10 26  1  0  0  0  0
 10 27  1  0  0  0  0
 11 19  1  0  0  0  0
 11 12  1  0  0  0  0
 11 28  1  0  0  0  0
 12 13  1  0  0  0  0
 12 29  1  0  0  0  0
 12 30  1  0  0  0  0
 13 17  1  0  0  0  0
 13 14  1  0  0  0  0
 13 40  1  0  0  0  0
 14 15  1  0  0  0  0
 14 31  1  0  0  0  0
 14 32  1  0  0  0  0
 15 16  1  0  0  0  0
 15 33  1  0  0  0  0
 15 34  1  0  0  0  0
 16 17  1  0  0  0  0
 16 35  1  0  0  0  0
 16 36  1  0  0  0  0
 17 18  1  0  0  0  0
 17 37  1  0  0  0  0
 18 19  1  0  0  0  0
 18 38  1  0  0  0  0
 18 39  1  0  0  0  0
M  CHG  1  13   1
M  END
> <s_m_source_file>
AV-unprocessed.smi

> <i_m_source_file_index>
1809

> <i_lp_mmshare_version>
43012

> <i_f3d_flags>
0

> <s_epik_input>
W0NIM11jMW5uYyhzMSlbTkhdQyg9TylbTkhdW0NIMl1bQ0BIXShbQ0gyXTIpT1tDSDJdW0NAQEhdKE4yMylbQ0gyXVtDSDJdW0NIMl0z

> <s_epik_cmdline>
J2VwaWtfcHl0aG9uJywgJy1waCcsICc3LjAnLCAnLXRuJywgJzgnLCAnLW1hJywgJzIwMCcsICctbWV0YWxfYmluZGluZycsICctaW1hZScsICc8aW5maWxlLm1hZT4nLCAnLW9tYWUnLCAnPG91dGZpbGUubWFlPic=

> <r_lp_tautomer_probability>
1

> <r_epik_Ionization_Penalty>
0.112474

> <r_epik_Ionization_Penalty_Charging>
0.108916

> <r_epik_Ionization_Penalty_Neutral>
0.00355844

> <r_epik_State_Penalty>
0.0565397

> <r_epik_Charging_Adjusted_Penalty>
0.165456

> <i_epik_Tot_Q>
1

> <i_epik_Tot_abs_Q>
1

> <r_epik_Metal_State_Penalty>
0.422831

> <b_epik_Metal_Only>
0

> <s_lp_Force_Field>
OPLS_2005

> <r_lp_Energy>
33.8042

> <b_lp_Chiralities_Consistent>
1

> <s_lp_Variant>
AV-unprocessed.smi:1809-8

> <Gold.Version>
5.8.1

> <Gold.Id.Protein>
6NUR|6NUR_protein|mol2

> <Gold.PLP.Fitness>
42.8044

> <Gold.PLP.PLP>
-33.5041

> <Gold.PLP.part.hbond>
-6.6211

> <Gold.PLP.part.metal>
0.0000

> <Gold.PLP.part.buried>
-3.1241

> <Gold.PLP.part.nonpolar>
-23.3223

> <Gold.PLP.part.repulsive>
1.1474

> <Gold.PLP.ligand.clash>
0.0000

> <Gold.PLP.ligand.torsion>
0.8520

> <Gold.PLP.Chemscore.Hbond>
3.6678

> <Gold.PLP.Chemscore.CHOScore>
0.0000

> <Gold.PLP.Chemscore.Metal>
0.0000

> <Gold.Chemscore.Hbonds>
donor molecule, donor type, donor heavy atom, donor atom, acceptor molecule, acceptor atom, score
      L1  H     6    24       P1  7948  0.69
      L1  H     9    25       P1  7948  0.91
      L1  H    13    40       P1 10747  1.00
      P1  H 10752 10764       L1     8  0.83

> <Gold.PLP.Chemscore.Internal.Correction>
0.0008

> <Gold.Rescore>
     Score         DG    S(hbond)    S(metal)    S(lipo)     H(rot)  DE(clash)    DE(int)     intcor
     18.65     -19.63       2.69        0.00      73.49       1.34       0.17       0.81       ----

> <Gold.Chemscore.Fitness>
18.6523

> <Gold.Chemscore.DG>
-19.6252

> <Gold.Chemscore.ZeroCoef>
-5.4800

> <Gold.Chemscore.Hbond>
2.6870

> <Gold.Chemscore.Metal>
0.0000

> <Gold.Chemscore.Lipo>
73.4937

> <Gold.Chemscore.Internal_Hbond>
0.0000

> <Gold.Chemscore.DEClash>
0.1654

> <Gold.Chemscore.DEInternal>
0.8075

> <Gold.Chemscore.Rot>
1.3391

> <Gold.Chemscore.Internal.Correction>
   9.000000E+99

> <Gold.Chemscore.Hbonds>
donor molecule, donor type, donor heavy atom, donor atom, acceptor molecule, acceptor atom, score
      L1  H     6    24       P1  7948  0.62
      L1  H     9    25       P1  7948  0.27
      L1  H    13    40       P1 10747  1.00
      P1  H 10752 10764       L1     8  0.28

> <Gold.Chemscore.Hbond.Weighted>
-8.9746

> <Gold.Chemscore.Metal.Weighted>
-0.0000

> <Gold.Chemscore.Lipo.Weighted>
-8.5988

> <Gold.Chemscore.Internal_Hbond.Weighted>
0.0000

> <Gold.Chemscore.DEClash.Weighted>
0.1654

> <Gold.Chemscore.DEInternal.Weighted>
0.8075

> <Gold.Chemscore.Rot.Weighted>
3.4281

> <Gold.Chemscore.Internal.Correction.Weighted>
   9.000000E+99

> <Gold.Protein.RotatedTorsions>
[ 6907 6896 6895 6894 ] final    6.16 input  -60.11 | X-H torsion
[ 7974 7965 7964 7962 ] final   51.08 input  175.53 | X-H torsion
[ 8008 7997 7996 7995 ] final  138.43 input   59.86 | X-H torsion
[ 10167 10162 10161 10158 ] final -172.31 input  -65.29 | X-H torsion
[ 10718 10713 10712 10709 ] final   60.10 input   66.30 | X-H torsion
[ 10763 10752 10751 10750 ] final  -44.09 input  -60.55 | X-H torsion
[ 11005 11000 10999 10996 ] final   10.52 input  -57.11 | X-H torsion

> <Gold.Protein.ActiveResidues>
 VAL166  LYS551  ARG553  GLY616  TRP617  ASP618  TYR619  PRO620  LYS621  CYS622 
 ASP623  PHE694  ASN695  SER759  ASP760  ASP761  ALA762  ILE779  LEU786  VAL792 
 PHE793  MET794  SER795  GLU796  ALA797  LYS798  CYS799  TRP800  GLU811  SER814 

> <Gold.Protein.RotatedAtoms>
  151.6693  135.0978  160.0194 H   0  0  0  0  0  0  0  0  0  0  0  0  # atno 6907 bound_to 6896
  152.3901  133.6662  159.6239 H   0  0  0  0  0  0  0  0  0  0  0  0  # atno 6908 bound_to 6896
  150.7818  133.8885  159.3348 H   0  0  0  0  0  0  0  0  0  0  0  0  # atno 6909 bound_to 6896
  145.9949  139.4377  143.0051 H   0  0  0  0  0  0  0  0  0  0  0  0  # atno 7974 bound_to 7965
  156.2997  140.2394  156.4072 H   0  0  0  0  0  0  0  0  0  0  0  0  # atno 8008 bound_to 7997
  154.8474  140.0425  157.1601 H   0  0  0  0  0  0  0  0  0  0  0  0  # atno 8009 bound_to 7997
  154.9036  140.2980  155.5308 H   0  0  0  0  0  0  0  0  0  0  0  0  # atno 8010 bound_to 7997
  139.5752  144.1550  152.1440 H   0  0  0  0  0  0  0  0  0  0  0  0  # atno 10167 bound_to 10162
  157.5727  130.8920  149.9294 H   0  0  0  0  0  0  0  0  0  0  0  0  # atno 10718 bound_to 10713
  154.0064  135.6687  153.4762 H   0  0  0  0  0  0  0  0  0  0  0  0  # atno 10763 bound_to 10752
  153.0640  135.5011  154.8154 H   0  0  0  0  0  0  0  0  0  0  0  0  # atno 10764 bound_to 10752
  154.7022  135.3081  154.9287 H   0  0  0  0  0  0  0  0  0  0  0  0  # atno 10765 bound_to 10752
  140.5136  134.0628  155.7825 H   0  0  0  0  0  0  0  0  0  0  0  0  # atno 11005 bound_to 11000
  145.7575  140.9948  143.1217 LP  0  0  0  0  0  0  0  0  0  0  0  0  # atno 17320 bound_to 7965
  144.6900  139.9290  143.7471 LP  0  0  0  0  0  0  0  0  0  0  0  0  # atno 17321 bound_to 7965
  140.1091  144.5473  150.6937 LP  0  0  0  0  0  0  0  0  0  0  0  0  # atno 17342 bound_to 10162
  140.7035  143.2451  151.4796 LP  0  0  0  0  0  0  0  0  0  0  0  0  # atno 17343 bound_to 10162
  156.0772  130.3677  150.0654 LP  0  0  0  0  0  0  0  0  0  0  0  0  # atno 17370 bound_to 10713
  156.8804  130.9554  151.3600 LP  0  0  0  0  0  0  0  0  0  0  0  0  # atno 17371 bound_to 10713
  141.1372  133.9201  157.2407 LP  0  0  0  0  0  0  0  0  0  0  0  0  # atno 17394 bound_to 11000
  139.9645  135.0145  156.9350 LP  0  0  0  0  0  0  0  0  0  0  0  0  # atno 17395 bound_to 11000

$$$$
