AV-unprocessed.smi:249|AV-procd|sdf|1923|dock9
  -GOLD-   2262021 33D 1   1.00000     0.00000
 Structure written by MMmdl.
 64 67  0  0  0  0  0  0  0  0  2 V2000
  146.2247  127.9534  152.6703 C   0  0  0  0  0  0  0  0  0  0  0  0
  146.3897  129.3461  153.3010 C   0  0  0  0  0  0  0  0  0  0  0  0
  146.6356  130.4304  152.3059 N   0  3  1  0  0  0  0  0  0  0  0  0
  145.6532  130.3889  151.1839 C   0  0  0  0  0  0  0  0  0  0  0  0
  145.9486  131.4503  150.1122 C   0  0  0  0  0  0  0  0  0  0  0  0
  145.9479  132.8685  150.7069 C   0  0  1  0  0  0  0  0  0  0  0  0
  144.6091  133.2920  151.1498 N   0  0  0  0  0  0  0  0  0  0  0  0
  143.5039  133.0988  150.2164 C   0  0  0  0  0  0  0  0  0  0  0  0
  144.5481  134.5245  151.7017 C   0  0  0  0  0  0  0  0  0  0  0  0
  145.6737  135.2791  151.6659 N   0  0  0  0  0  0  0  0  0  0  0  0
  145.6667  136.5110  152.1849 C   0  0  0  0  0  0  0  0  0  0  0  0
  144.6622  137.1632  152.7754 N   0  0  0  0  0  0  0  0  0  0  0  0
  143.5320  136.4005  152.8183 C   0  0  0  0  0  0  0  0  0  0  0  0
  143.3878  135.0796  152.3104 C   0  0  0  0  0  0  0  0  0  0  0  0
  142.0952  134.6215  152.5343 N   0  0  0  0  0  0  0  0  0  0  0  0
  141.5068  135.6172  153.1396 C   0  0  0  0  0  0  0  0  0  0  0  0
  142.2979  136.7238  153.3527 N   0  0  0  0  0  0  0  0  0  0  0  0
  141.9045  137.9639  153.9973 C   0  0  0  0  0  0  0  0  0  0  0  0
  140.6266  138.5842  153.3744 C   0  0  2  0  0  0  0  0  0  0  0  0
  140.3911  140.0521  153.8009 C   0  0  0  0  0  0  0  0  0  0  0  0
  139.6036  140.7564  152.8628 O   0  0  0  0  0  0  0  0  0  0  0  0
  139.3510  137.7118  153.5224 C   0  0  1  0  0  0  0  0  0  0  0  0
  138.8183  137.5723  154.9500 C   0  0  0  0  0  0  0  0  0  0  0  0
  137.3180  137.8401  154.8220 C   0  0  0  0  0  0  0  0  0  0  0  0
  137.0372  137.5960  153.4538 O   0  0  0  0  0  0  0  0  0  0  0  0
  138.1174  138.1436  152.7171 C   0  0  0  0  0  0  0  0  0  0  0  0
  147.0028  132.8677  151.8343 C   0  0  0  0  0  0  0  0  0  0  0  0
  146.7241  131.7977  152.9161 C   0  0  2  0  0  0  0  0  0  0  0  0
  147.8094  131.9082  154.0065 C   0  0  0  0  0  0  0  0  0  0  0  0
  146.2169  127.1851  153.4440 H   0  0  0  0  0  0  0  0  0  0  0  0
  147.0460  127.7259  151.9901 H   0  0  0  0  0  0  0  0  0  0  0  0
  145.2881  127.8543  152.1228 H   0  0  0  0  0  0  0  0  0  0  0  0
  145.5188  129.5916  153.9104 H   0  0  0  0  0  0  0  0  0  0  0  0
  147.2333  129.2640  153.9826 H   0  0  0  0  0  0  0  0  0  0  0  0
  145.6749  129.4175  150.6929 H   0  0  0  0  0  0  0  0  0  0  0  0
  144.6439  130.5189  151.5772 H   0  0  0  0  0  0  0  0  0  0  0  0
  146.9250  131.2461  149.6701 H   0  0  0  0  0  0  0  0  0  0  0  0
  145.2373  131.3657  149.2907 H   0  0  0  0  0  0  0  0  0  0  0  0
  146.2713  133.5608  149.9290 H   0  0  0  0  0  0  0  0  0  0  0  0
  142.6222  133.6769  150.4992 H   0  0  0  0  0  0  0  0  0  0  0  0
  143.2084  132.0499  150.1951 H   0  0  0  0  0  0  0  0  0  0  0  0
  143.7937  133.3940  149.2073 H   0  0  0  0  0  0  0  0  0  0  0  0
  146.5991  137.0521  152.1172 H   0  0  0  0  0  0  0  0  0  0  0  0
  140.4743  135.5704  153.4546 H   0  0  0  0  0  0  0  0  0  0  0  0
  141.7642  137.7552  155.0575 H   0  0  0  0  0  0  0  0  0  0  0  0
  142.7444  138.6547  153.9315 H   0  0  0  0  0  0  0  0  0  0  0  0
  140.8077  138.6325  152.2995 H   0  0  0  0  0  0  0  0  0  0  0  0
  139.8941  140.0972  154.7702 H   0  0  0  0  0  0  0  0  0  0  0  0
  141.3420  140.5716  153.9215 H   0  0  0  0  0  0  0  0  0  0  0  0
  139.9378  140.5792  151.9966 H   0  0  0  0  0  0  0  0  0  0  0  0
  139.6017  136.7014  153.1953 H   0  0  0  0  0  0  0  0  0  0  0  0
  138.9945  136.5589  155.3130 H   0  0  0  0  0  0  0  0  0  0  0  0
  139.2813  138.2530  155.6640 H   0  0  0  0  0  0  0  0  0  0  0  0
  136.7186  137.2066  155.4762 H   0  0  0  0  0  0  0  0  0  0  0  0
  137.0921  138.8819  155.0549 H   0  0  0  0  0  0  0  0  0  0  0  0
  137.9999  139.2263  152.6786 H   0  0  0  0  0  0  0  0  0  0  0  0
  138.1302  137.7661  151.6945 H   0  0  0  0  0  0  0  0  0  0  0  0
  147.9839  132.6789  151.3955 H   0  0  0  0  0  0  0  0  0  0  0  0
  147.0837  133.8556  152.2890 H   0  0  0  0  0  0  0  0  0  0  0  0
  145.7624  132.0176  153.3822 H   0  0  0  0  0  0  0  0  0  0  0  0
  147.9387  132.9445  154.3209 H   0  0  0  0  0  0  0  0  0  0  0  0
  148.7752  131.5520  153.6464 H   0  0  0  0  0  0  0  0  0  0  0  0
  147.5529  131.3539  154.9084 H   0  0  0  0  0  0  0  0  0  0  0  0
  147.5421  130.2453  151.9005 H   0  0  0  0  0  0  0  0  0  0  0  0
  1  2  1  0  0  0  0
  1 30  1  0  0  0  0
  1 31  1  0  0  0  0
  1 32  1  0  0  0  0
  2  3  1  0  0  0  0
  2 33  1  0  0  0  0
  2 34  1  0  0  0  0
  3 28  1  0  0  0  0
  3  4  1  0  0  0  0
  3 64  1  0  0  0  0
  4  5  1  0  0  0  0
  4 35  1  0  0  0  0
  4 36  1  0  0  0  0
  5  6  1  0  0  0  0
  5 37  1  0  0  0  0
  5 38  1  0  0  0  0
  6  7  1  0  0  0  0
  6 27  1  0  0  0  0
  6 39  1  0  0  0  0
  7  8  1  0  0  0  0
  7  9  1  0  0  0  0
  8 40  1  0  0  0  0
  8 41  1  0  0  0  0
  8 42  1  0  0  0  0
  9 14  1  0  0  0  0
  9 10  2  0  0  0  0
 10 11  1  0  0  0  0
 11 12  2  0  0  0  0
 11 43  1  0  0  0  0
 12 13  1  0  0  0  0
 13 17  1  0  0  0  0
 13 14  2  0  0  0  0
 14 15  1  0  0  0  0
 15 16  2  0  0  0  0
 16 17  1  0  0  0  0
 16 44  1  0  0  0  0
 17 18  1  0  0  0  0
 18 19  1  0  0  0  0
 18 45  1  0  0  0  0
 18 46  1  0  0  0  0
 19 20  1  0  0  0  0
 19 22  1  0  0  0  0
 19 47  1  0  0  0  0
 20 21  1  0  0  0  0
 20 48  1  0  0  0  0
 20 49  1  0  0  0  0
 21 50  1  0  0  0  0
 22 26  1  0  0  0  0
 22 23  1  0  0  0  0
 22 51  1  0  0  0  0
 23 24  1  0  0  0  0
 23 52  1  0  0  0  0
 23 53  1  0  0  0  0
 24 25  1  0  0  0  0
 24 54  1  0  0  0  0
 24 55  1  0  0  0  0
 25 26  1  0  0  0  0
 26 56  1  0  0  0  0
 26 57  1  0  0  0  0
 27 28  1  0  0  0  0
 27 58  1  0  0  0  0
 27 59  1  0  0  0  0
 28 29  1  0  0  0  0
 28 60  1  0  0  0  0
 29 61  1  0  0  0  0
 29 62  1  0  0  0  0
 29 63  1  0  0  0  0
M  CHG  1   3   1
M  END
> <s_m_source_file>
AV-unprocessed.smi

> <i_m_source_file_index>
249

> <i_lp_mmshare_version>
43012

> <i_f3d_flags>
0

> <s_epik_input>
W0NIM11bQ0gyXU4xW0NIMl1bQ0gyXVtDQEhdKFtDSDJdW0NASF0xW0NIM10pTihbQ0gzXSljKG5bY0hdbjIpYyhjMjMpbltjSF1uM1tDSDJdW0NASF0oW0NIMl1bT0hdKVtDQEBIXTRbQ0gyXVtDSDJdT1tDSDJdNA==

> <s_epik_cmdline>
J2VwaWtfcHl0aG9uJywgJy1waCcsICc3LjAnLCAnLXRuJywgJzgnLCAnLW1hJywgJzIwMCcsICctbWV0YWxfYmluZGluZycsICctaW1hZScsICc8aW5maWxlLm1hZT4nLCAnLW9tYWUnLCAnPG91dGZpbGUubWFlPic=

> <r_lp_tautomer_probability>
1

> <r_epik_Ionization_Penalty>
0.00294688

> <r_epik_Ionization_Penalty_Charging>
0.00169971

> <r_epik_Ionization_Penalty_Neutral>
0.00124717

> <r_epik_State_Penalty>
-0

> <r_epik_Charging_Adjusted_Penalty>
0.00169971

> <i_epik_Tot_Q>
1

> <i_epik_Tot_abs_Q>
1

> <r_epik_Metal_State_Penalty>
-0

> <b_epik_Metal_Only>
0

> <s_lp_Force_Field>
OPLS_2005

> <r_lp_Energy>
58.1803

> <b_lp_Chiralities_Consistent>
1

> <s_lp_Variant>
AV-unprocessed.smi:249-26

> <Gold.Version>
5.8.1

> <Gold.Id.Protein>
6NUR|6NUR_protein|mol2

> <Gold.PLP.Fitness>
55.4741

> <Gold.PLP.PLP>
-48.5239

> <Gold.PLP.part.hbond>
-2.0000

> <Gold.PLP.part.metal>
0.0000

> <Gold.PLP.part.buried>
-5.7565

> <Gold.PLP.part.nonpolar>
-41.3729

> <Gold.PLP.part.repulsive>
0.8808

> <Gold.PLP.ligand.clash>
0.0000

> <Gold.PLP.ligand.torsion>
0.5324

> <Gold.PLP.Chemscore.Hbond>
2.0000

> <Gold.PLP.Chemscore.CHOScore>
0.4712

> <Gold.PLP.Chemscore.Metal>
0.0000

> <Gold.Chemscore.Hbonds>
donor molecule, donor type, donor heavy atom, donor atom, acceptor molecule, acceptor atom, score
      L1  H     3    64       P1 10747  0.44
      L1  H    21    50       P1 10160  0.28
      L1  C    11    43       P1  7948  1.00

> <Gold.PLP.Chemscore.Internal.Correction>
0.6013

> <Gold.Rescore>
     Score         DG    S(hbond)    S(metal)    S(lipo)     H(rot)  DE(clash)    DE(int)     intcor
     15.00     -18.34       1.99        0.00     116.54       2.90       1.37       1.97       ----

> <Gold.Chemscore.Fitness>
14.9972

> <Gold.Chemscore.DG>
-18.3388

> <Gold.Chemscore.ZeroCoef>
-5.4800

> <Gold.Chemscore.Hbond>
1.9906

> <Gold.Chemscore.Metal>
0.0000

> <Gold.Chemscore.Lipo>
116.5446

> <Gold.Chemscore.Internal_Hbond>
0.0000

> <Gold.Chemscore.DEClash>
1.3668

> <Gold.Chemscore.DEInternal>
1.9748

> <Gold.Chemscore.Rot>
2.9006

> <Gold.Chemscore.Internal.Correction>
   9.000000E+99

> <Gold.Chemscore.Hbonds>
donor molecule, donor type, donor heavy atom, donor atom, acceptor molecule, acceptor atom, score
      L1  H     3    64       P1 10747  0.42
      L1  H    21    50       P1 10160  0.29

> <Gold.Chemscore.Hbond.Weighted>
-6.6487

> <Gold.Chemscore.Metal.Weighted>
-0.0000

> <Gold.Chemscore.Lipo.Weighted>
-13.6357

> <Gold.Chemscore.Internal_Hbond.Weighted>
0.0000

> <Gold.Chemscore.DEClash.Weighted>
1.3668

> <Gold.Chemscore.DEInternal.Weighted>
1.9748

> <Gold.Chemscore.Rot.Weighted>
7.4256

> <Gold.Chemscore.Internal.Correction.Weighted>
   9.000000E+99

> <Gold.Protein.RotatedTorsions>
[ 6907 6896 6895 6894 ] final   72.33 input  -60.11 | X-H torsion
[ 7974 7965 7964 7962 ] final    4.66 input  175.53 | X-H torsion
[ 8008 7997 7996 7995 ] final -169.94 input   59.86 | X-H torsion
[ 10167 10162 10161 10158 ] final  -74.30 input  -65.29 | X-H torsion
[ 10718 10713 10712 10709 ] final -161.26 input   66.30 | X-H torsion
[ 10763 10752 10751 10750 ] final -167.82 input  -60.55 | X-H torsion
[ 11005 11000 10999 10996 ] final   25.56 input  -57.11 | X-H torsion

> <Gold.Protein.ActiveResidues>
 VAL166  LYS551  ARG553  GLY616  TRP617  ASP618  TYR619  PRO620  LYS621  CYS622 
 ASP623  PHE694  ASN695  SER759  ASP760  ASP761  ALA762  ILE779  LEU786  VAL792 
 PHE793  MET794  SER795  GLU796  ALA797  LYS798  CYS799  TRP800  GLU811  SER814 

> <Gold.Protein.RotatedAtoms>
  152.4862  134.4587  159.9597 H   0  0  0  0  0  0  0  0  0  0  0  0  # atno 6907 bound_to 6896
  151.4583  133.3593  159.2813 H   0  0  0  0  0  0  0  0  0  0  0  0  # atno 6908 bound_to 6896
  150.8974  134.8408  159.7397 H   0  0  0  0  0  0  0  0  0  0  0  0  # atno 6909 bound_to 6896
  146.2443  140.0500  142.8375 H   0  0  0  0  0  0  0  0  0  0  0  0  # atno 7974 bound_to 7965
  155.9117  140.1058  157.1274 H   0  0  0  0  0  0  0  0  0  0  0  0  # atno 8008 bound_to 7997
  154.4040  140.1273  156.4631 H   0  0  0  0  0  0  0  0  0  0  0  0  # atno 8009 bound_to 7997
  155.7302  140.3468  155.5058 H   0  0  0  0  0  0  0  0  0  0  0  0  # atno 8010 bound_to 7997
  140.5039  143.2356  151.7707 H   0  0  0  0  0  0  0  0  0  0  0  0  # atno 10167 bound_to 10162
  156.5938  130.8781  151.2896 H   0  0  0  0  0  0  0  0  0  0  0  0  # atno 10718 bound_to 10713
  154.6693  135.2937  154.9764 H   0  0  0  0  0  0  0  0  0  0  0  0  # atno 10763 bound_to 10752
  154.0796  135.6606  153.4840 H   0  0  0  0  0  0  0  0  0  0  0  0  # atno 10764 bound_to 10752
  153.0476  135.5194  154.7681 H   0  0  0  0  0  0  0  0  0  0  0  0  # atno 10765 bound_to 10752
  140.3465  134.2276  155.7684 H   0  0  0  0  0  0  0  0  0  0  0  0  # atno 11005 bound_to 11000
  145.0992  140.9335  143.4722 LP  0  0  0  0  0  0  0  0  0  0  0  0  # atno 17320 bound_to 7965
  145.0690  139.3046  143.5842 LP  0  0  0  0  0  0  0  0  0  0  0  0  # atno 17321 bound_to 7965
  139.4879  144.4484  151.9682 LP  0  0  0  0  0  0  0  0  0  0  0  0  # atno 17342 bound_to 10162
  140.3574  144.3014  150.5939 LP  0  0  0  0  0  0  0  0  0  0  0  0  # atno 17343 bound_to 10162
  157.7297  130.9675  150.1799 LP  0  0  0  0  0  0  0  0  0  0  0  0  # atno 17370 bound_to 10713
  156.2527  130.3702  149.8215 LP  0  0  0  0  0  0  0  0  0  0  0  0  # atno 17371 bound_to 10713
  141.2024  133.7938  157.0392 LP  0  0  0  0  0  0  0  0  0  0  0  0  # atno 17394 bound_to 11000
  140.0738  134.9687  157.1511 LP  0  0  0  0  0  0  0  0  0  0  0  0  # atno 17395 bound_to 11000

$$$$
