AV-unprocessed.smi:1438|AV-procd|sdf|5867|dock3
  -GOLD-   22720 5543D 1   1.00000     0.00000
 Structure written by MMmdl.
 43 44  0  0  0  0  0  0  0  0  1 V2000
  149.8374  133.5789  154.3596 C   0  0  0  0  0  0  0  0  0  0  0  0
  149.6583  134.7854  155.2957 C   0  0  2  0  0  0  0  0  0  0  0  0
  150.8492  135.7505  155.2191 C   0  0  0  0  0  0  0  0  0  0  0  0
  151.9513  135.4233  155.6599 O   0  0  0  0  0  0  0  0  0  0  0  0
  150.6121  136.9456  154.6594 N   0  0  0  0  0  0  0  0  0  0  0  0
  151.5909  138.0180  154.5551 C   0  0  0  0  0  0  0  0  0  0  0  0
  151.0275  139.3427  155.0315 C   0  0  0  0  0  0  0  0  0  0  0  0
  149.8537  139.8750  154.4592 C   0  0  0  0  0  0  0  0  0  0  0  0
  149.3707  141.1064  154.9424 C   0  0  0  0  0  0  0  0  0  0  0  0
  149.9738  141.8030  155.9289 N   0  0  0  0  0  0  0  0  0  0  0  0
  151.1014  141.2915  156.4787 C   0  0  0  0  0  0  0  0  0  0  0  0
  151.7236  142.0054  157.5124 N   0  0  0  0  0  0  0  0  0  0  0  0
  151.1107  143.2982  157.7917 C   0  0  0  0  0  0  0  0  0  0  0  0
  151.9372  144.0534  158.8469 C   0  0  0  0  0  0  0  0  0  0  0  0
  152.0620  143.2512  160.0180 O   0  0  0  0  0  0  0  0  0  0  0  0
  152.7246  142.0175  159.7538 C   0  0  0  0  0  0  0  0  0  0  0  0
  151.9220  141.2111  158.7180 C   0  0  0  0  0  0  0  0  0  0  0  0
  151.6630  140.0667  156.0611 C   0  0  0  0  0  0  0  0  0  0  0  0
  149.4281  134.2026  157.0413 S   0  0  0  0  0  0  0  0  0  0  0  0
  149.2658  135.7743  157.9902 C   0  0  0  0  0  0  0  0  0  0  0  0
  148.1454  133.4866  157.1169 O   0  0  0  0  0  0  0  0  0  0  0  0
  150.6572  133.5271  157.4857 O   0  0  0  0  0  0  0  0  0  0  0  0
  149.9997  133.8968  153.3291 H   0  0  0  0  0  0  0  0  0  0  0  0
  148.9509  132.9447  154.3708 H   0  0  0  0  0  0  0  0  0  0  0  0
  150.6854  132.9615  154.6584 H   0  0  0  0  0  0  0  0  0  0  0  0
  148.7478  135.3140  155.0109 H   0  0  0  0  0  0  0  0  0  0  0  0
  149.6844  137.1397  154.3114 H   0  0  0  0  0  0  0  0  0  0  0  0
  152.4795  137.7640  155.1358 H   0  0  0  0  0  0  0  0  0  0  0  0
  151.9052  138.1215  153.5155 H   0  0  0  0  0  0  0  0  0  0  0  0
  149.3358  139.3556  153.6661 H   0  0  0  0  0  0  0  0  0  0  0  0
  148.4748  141.5433  154.5265 H   0  0  0  0  0  0  0  0  0  0  0  0
  151.0489  143.8833  156.8733 H   0  0  0  0  0  0  0  0  0  0  0  0
  150.0918  143.1556  158.1547 H   0  0  0  0  0  0  0  0  0  0  0  0
  152.9255  144.3066  158.4599 H   0  0  0  0  0  0  0  0  0  0  0  0
  151.4472  144.9913  159.1084 H   0  0  0  0  0  0  0  0  0  0  0  0
  153.7387  142.2066  159.3981 H   0  0  0  0  0  0  0  0  0  0  0  0
  152.8125  141.4544  160.6830 H   0  0  0  0  0  0  0  0  0  0  0  0
  150.9544  140.9299  159.1365 H   0  0  0  0  0  0  0  0  0  0  0  0
  152.4479  140.2881  158.4714 H   0  0  0  0  0  0  0  0  0  0  0  0
  152.5628  139.6903  156.5263 H   0  0  0  0  0  0  0  0  0  0  0  0
  149.0369  135.5428  159.0302 H   0  0  0  0  0  0  0  0  0  0  0  0
  148.4607  136.3762  157.5697 H   0  0  0  0  0  0  0  0  0  0  0  0
  150.2008  136.3322  157.9498 H   0  0  0  0  0  0  0  0  0  0  0  0
  1  2  1  0  0  0  0
  1 23  1  0  0  0  0
  1 24  1  0  0  0  0
  1 25  1  0  0  0  0
  2  3  1  0  0  0  0
  2 19  1  0  0  0  0
  2 26  1  0  0  0  0
  3  4  2  0  0  0  0
  3  5  1  0  0  0  0
  5  6  1  0  0  0  0
  5 27  1  0  0  0  0
  6  7  1  0  0  0  0
  6 28  1  0  0  0  0
  6 29  1  0  0  0  0
  7 18  1  0  0  0  0
  7  8  2  0  0  0  0
  8  9  1  0  0  0  0
  8 30  1  0  0  0  0
  9 10  2  0  0  0  0
  9 31  1  0  0  0  0
 10 11  1  0  0  0  0
 11 12  1  0  0  0  0
 11 18  2  0  0  0  0
 12 17  1  0  0  0  0
 12 13  1  0  0  0  0
 13 14  1  0  0  0  0
 13 32  1  0  0  0  0
 13 33  1  0  0  0  0
 14 15  1  0  0  0  0
 14 34  1  0  0  0  0
 14 35  1  0  0  0  0
 15 16  1  0  0  0  0
 16 17  1  0  0  0  0
 16 36  1  0  0  0  0
 16 37  1  0  0  0  0
 17 38  1  0  0  0  0
 17 39  1  0  0  0  0
 18 40  1  0  0  0  0
 19 20  1  0  0  0  0
 19 21  2  0  0  0  0
 19 22  2  0  0  0  0
 20 41  1  0  0  0  0
 20 42  1  0  0  0  0
 20 43  1  0  0  0  0
M  END
> <s_m_source_file>
AV-unprocessed.smi

> <i_m_source_file_index>
1438

> <i_lp_mmshare_version>
43012

> <i_f3d_flags>
0

> <s_epik_input>
W0NIM11TKD1PKSg9TylbQ0BIXShbQ0gzXSlDKD1PKVtOSF1bQ0gyXWMxW2NIXVtjSF1uYyhbY0hdMSlOMltDSDJdW0NIMl1PW0NIMl1bQ0gyXTI=

> <s_epik_cmdline>
J2VwaWtfcHl0aG9uJywgJy1waCcsICc3LjAnLCAnLXRuJywgJzgnLCAnLW1hJywgJzIwMCcsICctbWV0YWxfYmluZGluZycsICctaW1hZScsICc8aW5maWxlLm1hZT4nLCAnLW9tYWUnLCAnPG91dGZpbGUubWFlPic=

> <r_lp_tautomer_probability>
1

> <r_epik_Ionization_Penalty>
0.00387635

> <r_epik_Ionization_Penalty_Charging>
0

> <r_epik_Ionization_Penalty_Neutral>
0.00387635

> <r_epik_State_Penalty>
0.0027681

> <r_epik_Charging_Adjusted_Penalty>
0.0027681

> <i_epik_Tot_Q>
0

> <i_epik_Tot_abs_Q>
0

> <r_epik_Metal_State_Penalty>
-0

> <b_epik_Metal_Only>
0

> <s_lp_Force_Field>
OPLS_2005

> <r_lp_Energy>
15.2281

> <b_lp_Chiralities_Consistent>
1

> <s_lp_Variant>
AV-unprocessed.smi:1438-1

> <Gold.Version>
5.8.1

> <Gold.Id.Protein>
6NUR|6NUR_protein|mol2

> <Gold.PLP.Fitness>
44.0252

> <Gold.PLP.PLP>
-38.3739

> <Gold.PLP.part.hbond>
-2.1084

> <Gold.PLP.part.metal>
0.0000

> <Gold.PLP.part.buried>
-1.9909

> <Gold.PLP.part.nonpolar>
-34.2420

> <Gold.PLP.part.repulsive>
0.6967

> <Gold.PLP.ligand.clash>
0.0000

> <Gold.PLP.ligand.torsion>
0.3305

> <Gold.PLP.Chemscore.Hbond>
2.0000

> <Gold.PLP.Chemscore.CHOScore>
0.0000

> <Gold.PLP.Chemscore.Metal>
0.0000

> <Gold.Chemscore.Hbonds>
donor molecule, donor type, donor heavy atom, donor atom, acceptor molecule, acceptor atom, score
      P1  H  6896  6909       L1    22  0.85
      P1  H 10752 10763       L1     4  0.47

> <Gold.PLP.Chemscore.Internal.Correction>
0.3123

> <Gold.Rescore>
     Score         DG    S(hbond)    S(metal)    S(lipo)     H(rot)  DE(clash)    DE(int)     intcor
     15.21     -16.93       1.96        0.00      87.26       2.08       0.01       1.71       ----

> <Gold.Chemscore.Fitness>
15.2124

> <Gold.Chemscore.DG>
-16.9271

> <Gold.Chemscore.ZeroCoef>
-5.4800

> <Gold.Chemscore.Hbond>
1.9620

> <Gold.Chemscore.Metal>
0.0000

> <Gold.Chemscore.Lipo>
87.2613

> <Gold.Chemscore.Internal_Hbond>
0.0000

> <Gold.Chemscore.DEClash>
0.0077

> <Gold.Chemscore.DEInternal>
1.7070

> <Gold.Chemscore.Rot>
2.0764

> <Gold.Chemscore.Internal.Correction>
   9.000000E+99

> <Gold.Chemscore.Hbonds>
donor molecule, donor type, donor heavy atom, donor atom, acceptor molecule, acceptor atom, score
      P1  H  6896  6909       L1    22  0.75
      P1  H 10752 10763       L1     4  0.47

> <Gold.Chemscore.Hbond.Weighted>
-6.5531

> <Gold.Chemscore.Metal.Weighted>
-0.0000

> <Gold.Chemscore.Lipo.Weighted>
-10.2096

> <Gold.Chemscore.Internal_Hbond.Weighted>
0.0000

> <Gold.Chemscore.DEClash.Weighted>
0.0077

> <Gold.Chemscore.DEInternal.Weighted>
1.7070

> <Gold.Chemscore.Rot.Weighted>
5.3155

> <Gold.Chemscore.Internal.Correction.Weighted>
   9.000000E+99

> <Gold.Protein.RotatedTorsions>
[ 6907 6896 6895 6894 ] final  -12.61 input  -60.11 | X-H torsion
[ 7974 7965 7964 7962 ] final  118.39 input  175.53 | X-H torsion
[ 8008 7997 7996 7995 ] final  156.90 input   59.86 | X-H torsion
[ 10167 10162 10161 10158 ] final  -86.71 input  -65.29 | X-H torsion
[ 10718 10713 10712 10709 ] final  -52.89 input   66.30 | X-H torsion
[ 10763 10752 10751 10750 ] final   80.14 input  -60.55 | X-H torsion
[ 11005 11000 10999 10996 ] final -174.40 input  -57.11 | X-H torsion

> <Gold.Protein.ActiveResidues>
 VAL166  LYS551  ARG553  GLY616  TRP617  ASP618  TYR619  PRO620  LYS621  CYS622 
 ASP623  PHE694  ASN695  SER759  ASP760  ASP761  ALA762  ILE779  LEU786  VAL792 
 PHE793  MET794  SER795  GLU796  ALA797  LYS798  CYS799  TRP800  GLU811  SER814 

> <Gold.Protein.RotatedAtoms>
  151.3679  135.0917  159.9455 H   0  0  0  0  0  0  0  0  0  0  0  0  # atno 6907 bound_to 6896
  152.5144  133.9194  159.7537 H   0  0  0  0  0  0  0  0  0  0  0  0  # atno 6908 bound_to 6896
  150.9601  133.6399  159.2785 H   0  0  0  0  0  0  0  0  0  0  0  0  # atno 6909 bound_to 6896
  145.1557  139.3184  143.4543 H   0  0  0  0  0  0  0  0  0  0  0  0  # atno 7974 bound_to 7965
  156.2395  140.1900  156.7026 H   0  0  0  0  0  0  0  0  0  0  0  0  # atno 8008 bound_to 7997
  154.6171  140.0614  156.9594 H   0  0  0  0  0  0  0  0  0  0  0  0  # atno 8009 bound_to 7997
  155.1922  140.3285  155.4359 H   0  0  0  0  0  0  0  0  0  0  0  0  # atno 8010 bound_to 7997
  140.3915  143.2703  151.9259 H   0  0  0  0  0  0  0  0  0  0  0  0  # atno 10167 bound_to 10162
  156.1582  130.4150  149.9835 H   0  0  0  0  0  0  0  0  0  0  0  0  # atno 10718 bound_to 10713
  153.1009  135.4813  154.8865 H   0  0  0  0  0  0  0  0  0  0  0  0  # atno 10763 bound_to 10752
  154.7378  135.3075  154.8784 H   0  0  0  0  0  0  0  0  0  0  0  0  # atno 10764 bound_to 10752
  153.9401  135.6835  153.4798 H   0  0  0  0  0  0  0  0  0  0  0  0  # atno 10765 bound_to 10752
  140.4750  134.6130  157.4897 H   0  0  0  0  0  0  0  0  0  0  0  0  # atno 11005 bound_to 11000
  146.3489  140.1649  142.8590 LP  0  0  0  0  0  0  0  0  0  0  0  0  # atno 17320 bound_to 7965
  145.0383  140.8926  143.5067 LP  0  0  0  0  0  0  0  0  0  0  0  0  # atno 17321 bound_to 7965
  139.4789  144.5723  151.8068 LP  0  0  0  0  0  0  0  0  0  0  0  0  # atno 17342 bound_to 10162
  140.4835  144.1415  150.5937 LP  0  0  0  0  0  0  0  0  0  0  0  0  # atno 17343 bound_to 10162
  156.7672  130.9173  151.3643 LP  0  0  0  0  0  0  0  0  0  0  0  0  # atno 17370 bound_to 10713
  157.6712  130.9052  150.0044 LP  0  0  0  0  0  0  0  0  0  0  0  0  # atno 17371 bound_to 10713
  139.9862  134.7058  155.9770 LP  0  0  0  0  0  0  0  0  0  0  0  0  # atno 17394 bound_to 11000
  141.1559  133.6543  156.4159 LP  0  0  0  0  0  0  0  0  0  0  0  0  # atno 17395 bound_to 11000

$$$$
