AV-unprocessed.smi:1983|AV-procd|sdf|8039|dock2
  -GOLD-   2272010233D 1   1.00000     0.00000
 Structure written by MMmdl.
 50 51  0  0  0  0  0  0  0  0  2 V2000
  147.3467  134.1847  155.1832 C   0  0  0  0  0  0  0  0  0  0  0  0
  147.6726  135.5774  155.7436 C   0  0  1  0  0  0  0  0  0  0  0  0
  148.7425  135.5256  156.8519 C   0  0  0  0  0  0  0  0  0  0  0  0
  148.3212  134.6874  157.9070 O   0  0  0  0  0  0  0  0  0  0  0  0
  148.1179  136.4391  154.6516 N   0  0  0  0  0  0  0  0  0  0  0  0
  148.3380  137.7581  154.7447 C   0  0  0  0  0  0  0  0  0  0  0  0
  148.1966  138.4127  155.7777 O   0  0  0  0  0  0  0  0  0  0  0  0
  148.7419  138.2796  153.5779 N   0  0  0  0  0  0  0  0  0  0  0  0
  149.0394  139.6917  153.3549 C   0  0  0  0  0  0  0  0  0  0  0  0
  149.7045  140.3980  154.5294 C   0  0  0  0  0  0  0  0  0  0  0  0
  150.7615  139.8065  155.2565 C   0  0  0  0  0  0  0  0  0  0  0  0
  151.3408  140.5030  156.3369 C   0  0  0  0  0  0  0  0  0  0  0  0
  150.8661  141.7943  156.6807 C   0  0  0  0  0  0  0  0  0  0  0  0
  151.3743  142.5614  157.7515 N   0  0  0  0  0  0  0  0  0  0  0  0
  152.2994  141.9241  158.6817 C   0  0  0  0  0  0  0  0  0  0  0  0
  152.4382  142.7633  159.9641 C   0  0  1  0  0  0  0  0  0  0  0  0
  153.5108  142.1997  160.9019 C   0  0  0  0  0  0  0  0  0  0  0  0
  152.8039  144.0994  159.6245 O   0  0  0  0  0  0  0  0  0  0  0  0
  151.8862  144.7679  158.7570 C   0  0  2  0  0  0  0  0  0  0  0  0
  150.5644  145.1200  159.4630 C   0  0  0  0  0  0  0  0  0  0  0  0
  151.6937  143.9578  157.4604 C   0  0  0  0  0  0  0  0  0  0  0  0
  149.8570  142.3202  155.9444 N   0  3  0  0  0  0  0  0  0  0  0  0
  149.2730  141.6859  154.9051 C   0  0  0  0  0  0  0  0  0  0  0  0
  146.9715  133.5230  155.9643 H   0  0  0  0  0  0  0  0  0  0  0  0
  148.2284  133.7149  154.7461 H   0  0  0  0  0  0  0  0  0  0  0  0
  146.5808  134.2421  154.4091 H   0  0  0  0  0  0  0  0  0  0  0  0
  146.7535  135.9964  156.1584 H   0  0  0  0  0  0  0  0  0  0  0  0
  149.6968  135.1715  156.4604 H   0  0  0  0  0  0  0  0  0  0  0  0
  148.9147  136.5185  157.2690 H   0  0  0  0  0  0  0  0  0  0  0  0
  148.0783  133.8484  157.5464 H   0  0  0  0  0  0  0  0  0  0  0  0
  148.2641  135.9948  153.7572 H   0  0  0  0  0  0  0  0  0  0  0  0
  148.8265  137.6627  152.7831 H   0  0  0  0  0  0  0  0  0  0  0  0
  149.7012  139.7666  152.4919 H   0  0  0  0  0  0  0  0  0  0  0  0
  148.1199  140.2140  153.0848 H   0  0  0  0  0  0  0  0  0  0  0  0
  151.1307  138.8256  154.9956 H   0  0  0  0  0  0  0  0  0  0  0  0
  152.1487  140.0328  156.8767 H   0  0  0  0  0  0  0  0  0  0  0  0
  151.9413  140.9304  158.9522 H   0  0  0  0  0  0  0  0  0  0  0  0
  153.2694  141.8056  158.1968 H   0  0  0  0  0  0  0  0  0  0  0  0
  151.4907  142.7672  160.5030 H   0  0  0  0  0  0  0  0  0  0  0  0
  153.2703  141.1810  161.2066 H   0  0  0  0  0  0  0  0  0  0  0  0
  153.5958  142.8048  161.8050 H   0  0  0  0  0  0  0  0  0  0  0  0
  154.4887  142.1831  160.4197 H   0  0  0  0  0  0  0  0  0  0  0  0
  152.3583  145.7132  158.4883 H   0  0  0  0  0  0  0  0  0  0  0  0
  149.9440  145.7515  158.8265 H   0  0  0  0  0  0  0  0  0  0  0  0
  150.7515  145.6678  160.3867 H   0  0  0  0  0  0  0  0  0  0  0  0
  149.9767  144.2364  159.7102 H   0  0  0  0  0  0  0  0  0  0  0  0
  152.6146  143.9792  156.8760 H   0  0  0  0  0  0  0  0  0  0  0  0
  150.9256  144.4348  156.8517 H   0  0  0  0  0  0  0  0  0  0  0  0
  148.4764  142.2252  154.4129 H   0  0  0  0  0  0  0  0  0  0  0  0
  149.5126  143.2476  156.1935 H   0  0  0  0  0  0  0  0  0  0  0  0
  1  2  1  0  0  0  0
  1 24  1  0  0  0  0
  1 25  1  0  0  0  0
  1 26  1  0  0  0  0
  2  3  1  0  0  0  0
  2  5  1  0  0  0  0
  2 27  1  0  0  0  0
  3  4  1  0  0  0  0
  3 28  1  0  0  0  0
  3 29  1  0  0  0  0
  4 30  1  0  0  0  0
  5  6  1  0  0  0  0
  5 31  1  0  0  0  0
  6  7  2  0  0  0  0
  6  8  1  0  0  0  0
  8  9  1  0  0  0  0
  8 32  1  0  0  0  0
  9 10  1  0  0  0  0
  9 33  1  0  0  0  0
  9 34  1  0  0  0  0
 10 23  1  0  0  0  0
 10 11  2  0  0  0  0
 11 12  1  0  0  0  0
 11 35  1  0  0  0  0
 12 13  2  0  0  0  0
 12 36  1  0  0  0  0
 13 14  1  0  0  0  0
 13 22  1  0  0  0  0
 14 21  1  0  0  0  0
 14 15  1  0  0  0  0
 15 16  1  0  0  0  0
 15 37  1  0  0  0  0
 15 38  1  0  0  0  0
 16 17  1  0  0  0  0
 16 18  1  0  0  0  0
 16 39  1  0  0  0  0
 17 40  1  0  0  0  0
 17 41  1  0  0  0  0
 17 42  1  0  0  0  0
 18 19  1  0  0  0  0
 19 20  1  0  0  0  0
 19 21  1  0  0  0  0
 19 43  1  0  0  0  0
 20 44  1  0  0  0  0
 20 45  1  0  0  0  0
 20 46  1  0  0  0  0
 21 47  1  0  0  0  0
 21 48  1  0  0  0  0
 22 23  2  0  0  0  0
 22 50  1  0  0  0  0
 23 49  1  0  0  0  0
M  CHG  1  22   1
M  END
> <s_m_source_file>
AV-unprocessed.smi

> <i_m_source_file_index>
1983

> <i_lp_mmshare_version>
43012

> <i_f3d_flags>
0

> <s_epik_input>
W09IXVtDSDJdW0NAQEhdKFtDSDNdKVtOSF1DKD1PKVtOSF1bQ0gyXWMxW2NIXVtjSF1jKG5bY0hdMSlOMltDSDJdW0NAQEhdKFtDSDNdKU9bQ0BASF0oW0NIM10pW0NIMl0y

> <s_epik_cmdline>
J2VwaWtfcHl0aG9uJywgJy1waCcsICc3LjAnLCAnLXRuJywgJzgnLCAnLW1hJywgJzIwMCcsICctbWV0YWxfYmluZGluZycsICctaW1hZScsICc8aW5maWxlLm1hZT4nLCAnLW9tYWUnLCAnPG91dGZpbGUubWFlPic=

> <r_lp_tautomer_probability>
0.999994

> <r_epik_Ionization_Penalty>
2.55677

> <r_epik_Ionization_Penalty_Charging>
2.55673

> <r_epik_Ionization_Penalty_Neutral>
3.71772e-05

> <r_epik_State_Penalty>
2.72571

> <r_epik_Charging_Adjusted_Penalty>
5.28244

> <i_epik_Tot_Q>
1

> <i_epik_Tot_abs_Q>
1

> <r_epik_Metal_State_Penalty>
2.73364

> <b_epik_Metal_Only>
0

> <s_lp_Force_Field>
OPLS_2005

> <r_lp_Energy>
21.4539

> <b_lp_Chiralities_Consistent>
1

> <s_lp_Variant>
AV-unprocessed.smi:1983-12

> <Gold.Version>
5.8.1

> <Gold.Id.Protein>
6NUR|6NUR_protein|mol2

> <Gold.PLP.Fitness>
49.8262

> <Gold.PLP.PLP>
-39.0316

> <Gold.PLP.part.hbond>
-3.9528

> <Gold.PLP.part.metal>
0.0000

> <Gold.PLP.part.buried>
3.5670

> <Gold.PLP.part.nonpolar>
-38.5315

> <Gold.PLP.part.repulsive>
0.2666

> <Gold.PLP.ligand.clash>
0.0000

> <Gold.PLP.ligand.torsion>
0.6368

> <Gold.PLP.Chemscore.Hbond>
3.8640

> <Gold.PLP.Chemscore.CHOScore>
0.0000

> <Gold.PLP.Chemscore.Metal>
0.0000

> <Gold.Chemscore.Hbonds>
donor molecule, donor type, donor heavy atom, donor atom, acceptor molecule, acceptor atom, score
      L1  H     5    31       P1  7948  0.91
      L1  H     8    32       P1  7948  1.00
      L1  H    22    50       P1  8028  1.89

> <Gold.PLP.Chemscore.Internal.Correction>
0.4762

> <Gold.Rescore>
     Score         DG    S(hbond)    S(metal)    S(lipo)     H(rot)  DE(clash)    DE(int)     intcor
     17.03     -20.84       2.80        0.00     109.77       2.66       1.90       1.91       ----

> <Gold.Chemscore.Fitness>
17.0268

> <Gold.Chemscore.DG>
-20.8443

> <Gold.Chemscore.ZeroCoef>
-5.4800

> <Gold.Chemscore.Hbond>
2.7965

> <Gold.Chemscore.Metal>
0.0000

> <Gold.Chemscore.Lipo>
109.7684

> <Gold.Chemscore.Internal_Hbond>
0.0000

> <Gold.Chemscore.DEClash>
1.9026

> <Gold.Chemscore.DEInternal>
1.9149

> <Gold.Chemscore.Rot>
2.6637

> <Gold.Chemscore.Internal.Correction>
   9.000000E+99

> <Gold.Chemscore.Hbonds>
donor molecule, donor type, donor heavy atom, donor atom, acceptor molecule, acceptor atom, score
      L1  H     5    31       P1  7948  0.84
      L1  H     8    32       P1  7948  1.00
      L1  H    22    50       P1  8028  0.92

> <Gold.Chemscore.Hbond.Weighted>
-9.3405

> <Gold.Chemscore.Metal.Weighted>
-0.0000

> <Gold.Chemscore.Lipo.Weighted>
-12.8429

> <Gold.Chemscore.Internal_Hbond.Weighted>
0.0000

> <Gold.Chemscore.DEClash.Weighted>
1.9026

> <Gold.Chemscore.DEInternal.Weighted>
1.9149

> <Gold.Chemscore.Rot.Weighted>
6.8191

> <Gold.Chemscore.Internal.Correction.Weighted>
   9.000000E+99

> <Gold.Protein.RotatedTorsions>
[ 6907 6896 6895 6894 ] final -129.37 input  -60.11 | X-H torsion
[ 7974 7965 7964 7962 ] final    6.77 input  175.53 | X-H torsion
[ 8008 7997 7996 7995 ] final  149.71 input   59.86 | X-H torsion
[ 10167 10162 10161 10158 ] final  136.98 input  -65.29 | X-H torsion
[ 10718 10713 10712 10709 ] final  -66.15 input   66.30 | X-H torsion
[ 10763 10752 10751 10750 ] final  135.38 input  -60.55 | X-H torsion
[ 11005 11000 10999 10996 ] final   32.17 input  -57.11 | X-H torsion

> <Gold.Protein.ActiveResidues>
 VAL166  LYS551  ARG553  GLY616  TRP617  ASP618  TYR619  PRO620  LYS621  CYS622 
 ASP623  PHE694  ASN695  SER759  ASP760  ASP761  ALA762  ILE779  LEU786  VAL792 
 PHE793  MET794  SER795  GLU796  ALA797  LYS798  CYS799  TRP800  GLU811  SER814 

> <Gold.Protein.RotatedAtoms>
  150.9280  133.6801  159.2816 H   0  0  0  0  0  0  0  0  0  0  0  0  # atno 6907 bound_to 6896
  151.4233  135.0999  159.9630 H   0  0  0  0  0  0  0  0  0  0  0  0  # atno 6908 bound_to 6896
  152.5012  133.8726  159.7361 H   0  0  0  0  0  0  0  0  0  0  0  0  # atno 6909 bound_to 6896
  146.2432  140.0184  142.8400 H   0  0  0  0  0  0  0  0  0  0  0  0  # atno 7974 bound_to 7965
  156.2744  140.2094  156.5901 H   0  0  0  0  0  0  0  0  0  0  0  0  # atno 8008 bound_to 7997
  154.6989  140.0523  157.0462 H   0  0  0  0  0  0  0  0  0  0  0  0  # atno 8009 bound_to 7997
  155.0762  140.3182  155.4618 H   0  0  0  0  0  0  0  0  0  0  0  0  # atno 8010 bound_to 7997
  139.5160  144.6435  151.5504 H   0  0  0  0  0  0  0  0  0  0  0  0  # atno 10167 bound_to 10162
  156.0628  130.4258  150.1668 H   0  0  0  0  0  0  0  0  0  0  0  0  # atno 10718 bound_to 10713
  153.8392  135.3093  155.3425 H   0  0  0  0  0  0  0  0  0  0  0  0  # atno 10763 bound_to 10752
  154.7940  135.4766  154.0121 H   0  0  0  0  0  0  0  0  0  0  0  0  # atno 10764 bound_to 10752
  153.1586  135.6857  153.8867 H   0  0  0  0  0  0  0  0  0  0  0  0  # atno 10765 bound_to 10752
  140.2762  134.3025  155.7813 H   0  0  0  0  0  0  0  0  0  0  0  0  # atno 11005 bound_to 11000
  145.1263  140.9492  143.4570 LP  0  0  0  0  0  0  0  0  0  0  0  0  # atno 17320 bound_to 7965
  145.0431  139.3243  143.5966 LP  0  0  0  0  0  0  0  0  0  0  0  0  # atno 17321 bound_to 7965
  140.6211  143.9257  150.6527 LP  0  0  0  0  0  0  0  0  0  0  0  0  # atno 17342 bound_to 10162
  140.2530  143.3579  152.1389 LP  0  0  0  0  0  0  0  0  0  0  0  0  # atno 17343 bound_to 10162
  156.9733  130.9841  151.3454 LP  0  0  0  0  0  0  0  0  0  0  0  0  # atno 17370 bound_to 10713
  157.5649  130.8271  149.8315 LP  0  0  0  0  0  0  0  0  0  0  0  0  # atno 17371 bound_to 10713
  141.2170  133.7497  156.9411 LP  0  0  0  0  0  0  0  0  0  0  0  0  # atno 17394 bound_to 11000
  140.1326  134.9346  157.2358 LP  0  0  0  0  0  0  0  0  0  0  0  0  # atno 17395 bound_to 11000

$$$$
