AV-unprocessed.smi:1818|AV-procd|sdf|7380|dock6
  -GOLD-   22720 9 43D 1   1.00000     0.00000
 Structure written by MMmdl.
 36 37  0  0  0  0  0  0  0  0  1 V2000
  150.8033  139.5544  154.4533 N   0  0  0  0  0  0  0  0  0  0  0  0
  150.0993  140.3309  154.9438 C   0  0  0  0  0  0  0  0  0  0  0  0
  149.2018  141.3214  155.5709 C   0  0  0  0  0  0  0  0  0  0  0  0
  149.9647  142.4982  155.9990 N   0  0  0  0  0  0  0  0  0  0  0  0
  151.0029  142.5284  156.8519 C   0  0  0  0  0  0  0  0  0  0  0  0
  151.4456  141.5347  157.4264 O   0  0  0  0  0  0  0  0  0  0  0  0
  151.6497  143.8931  157.0852 C   0  0  0  0  0  0  0  0  0  0  0  0
  151.8496  144.1326  158.5018 N   0  0  0  0  0  0  0  0  0  0  0  0
  151.4499  145.2460  159.2303 C   0  0  0  0  0  0  0  0  0  0  0  0
  151.8613  145.0354  160.5271 C   0  0  0  0  0  0  0  0  0  0  0  0
  152.5129  143.8078  160.6186 N   0  0  0  0  0  0  0  0  0  0  0  0
  152.4689  143.3323  159.3808 C   0  0  0  0  0  0  0  0  0  0  0  0
  148.2053  141.7887  154.4809 C   0  0  0  0  0  0  0  0  0  0  0  0
  146.8908  142.4103  154.9860 C   0  0  0  0  0  0  0  0  0  0  0  0
  145.7901  141.3577  155.2112 C   0  0  0  0  0  0  0  0  0  0  0  0
  145.9919  140.4616  156.4432 C   0  0  0  0  0  0  0  0  0  0  0  0
  147.3452  139.7313  156.4989 C   0  0  0  0  0  0  0  0  0  0  0  0
  148.5112  140.6859  156.8061 C   0  0  0  0  0  0  0  0  0  0  0  0
  149.6843  143.3763  155.5875 H   0  0  0  0  0  0  0  0  0  0  0  0
  152.6110  143.9568  156.5733 H   0  0  0  0  0  0  0  0  0  0  0  0
  151.0134  144.6796  156.6768 H   0  0  0  0  0  0  0  0  0  0  0  0
  150.9229  146.0739  158.7790 H   0  0  0  0  0  0  0  0  0  0  0  0
  151.7413  145.6684  161.3939 H   0  0  0  0  0  0  0  0  0  0  0  0
  152.8993  142.3801  159.1062 H   0  0  0  0  0  0  0  0  0  0  0  0
  148.7075  142.5078  153.8316 H   0  0  0  0  0  0  0  0  0  0  0  0
  147.9639  140.9537  153.8213 H   0  0  0  0  0  0  0  0  0  0  0  0
  147.0538  143.0126  155.8803 H   0  0  0  0  0  0  0  0  0  0  0  0
  146.5315  143.1024  154.2239 H   0  0  0  0  0  0  0  0  0  0  0  0
  144.8337  141.8703  155.3173 H   0  0  0  0  0  0  0  0  0  0  0  0
  145.6903  140.7356  154.3210 H   0  0  0  0  0  0  0  0  0  0  0  0
  145.8589  141.0540  157.3493 H   0  0  0  0  0  0  0  0  0  0  0  0
  145.1932  139.7193  156.4602 H   0  0  0  0  0  0  0  0  0  0  0  0
  147.2899  138.9958  157.3020 H   0  0  0  0  0  0  0  0  0  0  0  0
  147.5281  139.1628  155.5865 H   0  0  0  0  0  0  0  0  0  0  0  0
  149.2608  140.1291  157.3700 H   0  0  0  0  0  0  0  0  0  0  0  0
  148.1664  141.4621  157.4912 H   0  0  0  0  0  0  0  0  0  0  0  0
  1  2  3  0  0  0  0
  2  3  1  0  0  0  0
  3 18  1  0  0  0  0
  3  4  1  0  0  0  0
  3 13  1  0  0  0  0
  4  5  1  0  0  0  0
  4 19  1  0  0  0  0
  5  6  2  0  0  0  0
  5  7  1  0  0  0  0
  7  8  1  0  0  0  0
  7 20  1  0  0  0  0
  7 21  1  0  0  0  0
  8 12  1  0  0  0  0
  8  9  1  0  0  0  0
  9 10  2  0  0  0  0
  9 22  1  0  0  0  0
 10 11  1  0  0  0  0
 10 23  1  0  0  0  0
 11 12  2  0  0  0  0
 12 24  1  0  0  0  0
 13 14  1  0  0  0  0
 13 25  1  0  0  0  0
 13 26  1  0  0  0  0
 14 15  1  0  0  0  0
 14 27  1  0  0  0  0
 14 28  1  0  0  0  0
 15 16  1  0  0  0  0
 15 29  1  0  0  0  0
 15 30  1  0  0  0  0
 16 17  1  0  0  0  0
 16 31  1  0  0  0  0
 16 32  1  0  0  0  0
 17 18  1  0  0  0  0
 17 33  1  0  0  0  0
 17 34  1  0  0  0  0
 18 35  1  0  0  0  0
 18 36  1  0  0  0  0
M  END
> <s_m_source_file>
AV-unprocessed.smi

> <i_m_source_file_index>
1818

> <i_lp_mmshare_version>
43012

> <i_f3d_flags>
0

> <s_epik_input>
W0NIMl0xW0NIMl1bQ0gyXVtDSDJdW0NIMl1bQ0gyXUMxKEMjTilbTkhdQyg9TylbQ0gyXW4yW2NIXVtjSF1uW2NIXTI=

> <s_epik_cmdline>
J2VwaWtfcHl0aG9uJywgJy1waCcsICc3LjAnLCAnLXRuJywgJzgnLCAnLW1hJywgJzIwMCcsICctbWV0YWxfYmluZGluZycsICctaW1hZScsICc8aW5maWxlLm1hZT4nLCAnLW9tYWUnLCAnPG91dGZpbGUubWFlPic=

> <r_lp_tautomer_probability>
1

> <r_epik_Ionization_Penalty>
0.21493

> <r_epik_Ionization_Penalty_Charging>
0.214927

> <r_epik_Ionization_Penalty_Neutral>
2.56273e-06

> <r_epik_State_Penalty>
0.205117

> <r_epik_Charging_Adjusted_Penalty>
0.420044

> <i_epik_Tot_Q>
0

> <i_epik_Tot_abs_Q>
0

> <r_epik_Metal_State_Penalty>
0.148888

> <b_epik_Metal_Only>
0

> <s_lp_Force_Field>
OPLS_2005

> <r_lp_Energy>
17.7076

> <b_lp_Chiralities_Consistent>
1

> <s_lp_Variant>
AV-unprocessed.smi:1818-1

> <Gold.Version>
5.8.1

> <Gold.Id.Protein>
6NUR|6NUR_protein|mol2

> <Gold.PLP.Fitness>
40.3128

> <Gold.PLP.PLP>
-35.9486

> <Gold.PLP.part.hbond>
-1.8678

> <Gold.PLP.part.metal>
0.0000

> <Gold.PLP.part.buried>
-2.8340

> <Gold.PLP.part.nonpolar>
-31.8138

> <Gold.PLP.part.repulsive>
0.3449

> <Gold.PLP.ligand.clash>
0.0000

> <Gold.PLP.ligand.torsion>
0.2238

> <Gold.PLP.Chemscore.Hbond>
1.6000

> <Gold.PLP.Chemscore.CHOScore>
0.0000

> <Gold.PLP.Chemscore.Metal>
0.0000

> <Gold.Chemscore.Hbonds>
donor molecule, donor type, donor heavy atom, donor atom, acceptor molecule, acceptor atom, score
      L1  H     4    19       P1  8028  1.00
      P1  H  7989  7998       L1     1  0.55

> <Gold.PLP.Chemscore.Internal.Correction>
0.0118

> <Gold.Rescore>
     Score         DG    S(hbond)    S(metal)    S(lipo)     H(rot)  DE(clash)    DE(int)     intcor
      9.49     -11.72       0.90        0.00      63.84       1.65       0.22       2.01       ----

> <Gold.Chemscore.Fitness>
9.4937

> <Gold.Chemscore.DG>
-11.7216

> <Gold.Chemscore.ZeroCoef>
-5.4800

> <Gold.Chemscore.Hbond>
0.8963

> <Gold.Chemscore.Metal>
0.0000

> <Gold.Chemscore.Lipo>
63.8388

> <Gold.Chemscore.Internal_Hbond>
0.0000

> <Gold.Chemscore.DEClash>
0.2200

> <Gold.Chemscore.DEInternal>
2.0078

> <Gold.Chemscore.Rot>
1.6488

> <Gold.Chemscore.Internal.Correction>
   9.000000E+99

> <Gold.Chemscore.Hbonds>
donor molecule, donor type, donor heavy atom, donor atom, acceptor molecule, acceptor atom, score
      L1  H     4    19       P1  8028  0.92
      P1  H  7989  7998       L1     1  0.03

> <Gold.Chemscore.Hbond.Weighted>
-2.9935

> <Gold.Chemscore.Metal.Weighted>
-0.0000

> <Gold.Chemscore.Lipo.Weighted>
-7.4691

> <Gold.Chemscore.Internal_Hbond.Weighted>
0.0000

> <Gold.Chemscore.DEClash.Weighted>
0.2200

> <Gold.Chemscore.DEInternal.Weighted>
2.0078

> <Gold.Chemscore.Rot.Weighted>
4.2210

> <Gold.Chemscore.Internal.Correction.Weighted>
   9.000000E+99

> <Gold.Protein.RotatedTorsions>
[ 6907 6896 6895 6894 ] final -136.89 input  -60.11 | X-H torsion
[ 7974 7965 7964 7962 ] final  141.91 input  175.53 | X-H torsion
[ 8008 7997 7996 7995 ] final  154.53 input   59.86 | X-H torsion
[ 10167 10162 10161 10158 ] final -169.08 input  -65.29 | X-H torsion
[ 10718 10713 10712 10709 ] final  110.02 input   66.30 | X-H torsion
[ 10763 10752 10751 10750 ] final   22.05 input  -60.55 | X-H torsion
[ 11005 11000 10999 10996 ] final -107.74 input  -57.11 | X-H torsion

> <Gold.Protein.ActiveResidues>
 VAL166  LYS551  ARG553  GLY616  TRP617  ASP618  TYR619  PRO620  LYS621  CYS622 
 ASP623  PHE694  ASN695  SER759  ASP760  ASP761  ALA762  ILE779  LEU786  VAL792 
 PHE793  MET794  SER795  GLU796  ALA797  LYS798  CYS799  TRP800  GLU811  SER814 

> <Gold.Protein.RotatedAtoms>
  151.0157  133.5924  159.2677 H   0  0  0  0  0  0  0  0  0  0  0  0  # atno 6907 bound_to 6896
  151.3059  135.0780  159.9265 H   0  0  0  0  0  0  0  0  0  0  0  0  # atno 6908 bound_to 6896
  152.5311  133.9830  159.7869 H   0  0  0  0  0  0  0  0  0  0  0  0  # atno 6909 bound_to 6896
  144.9054  139.5366  143.5734 H   0  0  0  0  0  0  0  0  0  0  0  0  # atno 7974 bound_to 7965
  156.2526  140.1964  156.6661 H   0  0  0  0  0  0  0  0  0  0  0  0  # atno 8008 bound_to 7997
  154.6428  140.0581  156.9891 H   0  0  0  0  0  0  0  0  0  0  0  0  # atno 8009 bound_to 7997
  155.1536  140.3253  155.4428 H   0  0  0  0  0  0  0  0  0  0  0  0  # atno 8010 bound_to 7997
  139.5945  144.1143  152.1673 H   0  0  0  0  0  0  0  0  0  0  0  0  # atno 10167 bound_to 10162
  157.6514  131.0925  150.6540 H   0  0  0  0  0  0  0  0  0  0  0  0  # atno 10718 bound_to 10713
  153.0946  135.6656  153.9788 H   0  0  0  0  0  0  0  0  0  0  0  0  # atno 10763 bound_to 10752
  153.9376  135.2997  155.3445 H   0  0  0  0  0  0  0  0  0  0  0  0  # atno 10764 bound_to 10752
  154.7363  135.5100  153.9122 H   0  0  0  0  0  0  0  0  0  0  0  0  # atno 10765 bound_to 10752
  141.0938  133.9007  157.2012 H   0  0  0  0  0  0  0  0  0  0  0  0  # atno 11005 bound_to 11000
  146.3131  139.7817  142.9005 LP  0  0  0  0  0  0  0  0  0  0  0  0  # atno 17320 bound_to 7965
  145.3545  141.0314  143.3320 LP  0  0  0  0  0  0  0  0  0  0  0  0  # atno 17321 bound_to 7965
  140.0724  144.5768  150.7182 LP  0  0  0  0  0  0  0  0  0  0  0  0  # atno 17342 bound_to 10162
  140.7200  143.2580  151.4309 LP  0  0  0  0  0  0  0  0  0  0  0  0  # atno 17343 bound_to 10162
  156.6851  130.4578  149.5616 LP  0  0  0  0  0  0  0  0  0  0  0  0  # atno 17370 bound_to 10713
  156.1901  130.6554  151.1052 LP  0  0  0  0  0  0  0  0  0  0  0  0  # atno 17371 bound_to 10713
  139.9770  135.0110  156.9655 LP  0  0  0  0  0  0  0  0  0  0  0  0  # atno 17394 bound_to 11000
  140.5189  134.0928  155.7287 LP  0  0  0  0  0  0  0  0  0  0  0  0  # atno 17395 bound_to 11000

$$$$
