AV-unprocessed.smi:2784|AV-procd|sdf|10732|dock1
  -GOLD-   2272015173D 1   1.00000     0.00000
 Structure written by MMmdl.
 32 33  0  0  0  0  0  0  0  0  2 V2000
  148.7950  145.0390  160.6221 C   0  0  0  0  0  0  0  0  0  0  0  0
  149.3600  144.4668  159.4531 O   0  0  0  0  0  0  0  0  0  0  0  0
  150.5299  143.6900  159.6982 C   0  0  2  0  0  0  0  0  0  0  0  0
  151.6077  144.5836  160.3225 C   0  0  0  0  0  0  0  0  0  0  0  0
  152.2302  145.3043  159.1306 C   0  0  0  0  0  0  0  0  0  0  0  0
  152.2398  144.2637  158.0076 C   0  0  0  0  0  0  0  0  0  0  0  0
  151.1505  143.2311  158.3577 C   0  0  2  0  0  0  0  0  0  0  0  0
  150.1688  143.1138  157.2810 N   0  0  0  0  0  0  0  0  0  0  0  0
  149.8011  141.9602  156.7055 C   0  0  0  0  0  0  0  0  0  0  0  0
  150.2725  140.8645  157.0113 O   0  0  0  0  0  0  0  0  0  0  0  0
  148.8598  142.1522  155.7692 N   0  0  0  0  0  0  0  0  0  0  0  0
  148.2569  141.1401  154.9880 C   0  0  0  0  0  0  0  0  0  0  0  0
  148.9236  140.1278  154.4352 N   0  3  0  0  0  0  0  0  0  0  0  0
  148.0347  139.3364  153.7508 C   0  0  0  0  0  0  0  0  0  0  0  0
  146.8041  139.9242  153.9204 C   0  0  0  0  0  0  0  0  0  0  0  0
  146.9275  141.0594  154.6959 O   0  0  0  0  0  0  0  0  0  0  0  0
  147.9150  145.6224  160.3516 H   0  0  0  0  0  0  0  0  0  0  0  0
  149.4937  145.7049  161.1282 H   0  0  0  0  0  0  0  0  0  0  0  0
  148.4795  144.2655  161.3235 H   0  0  0  0  0  0  0  0  0  0  0  0
  150.2939  142.8281  160.3250 H   0  0  0  0  0  0  0  0  0  0  0  0
  151.2267  145.2730  161.0756 H   0  0  0  0  0  0  0  0  0  0  0  0
  152.3632  143.9605  160.8030 H   0  0  0  0  0  0  0  0  0  0  0  0
  151.5985  146.1467  158.8454 H   0  0  0  0  0  0  0  0  0  0  0  0
  153.2246  145.6943  159.3493 H   0  0  0  0  0  0  0  0  0  0  0  0
  152.0838  144.7374  157.0373 H   0  0  0  0  0  0  0  0  0  0  0  0
  153.2114  143.7695  157.9681 H   0  0  0  0  0  0  0  0  0  0  0  0
  151.6392  142.2659  158.5044 H   0  0  0  0  0  0  0  0  0  0  0  0
  149.7289  143.9692  156.9744 H   0  0  0  0  0  0  0  0  0  0  0  0
  149.9167  139.9381  154.4857 H   0  0  0  0  0  0  0  0  0  0  0  0
  148.3593  138.4517  153.2218 H   0  0  0  0  0  0  0  0  0  0  0  0
  145.8075  139.6814  153.5813 H   0  0  0  0  0  0  0  0  0  0  0  0
  148.5468  143.0976  155.6054 H   0  0  0  0  0  0  0  0  0  0  0  0
  1  2  1  0  0  0  0
  1 17  1  0  0  0  0
  1 18  1  0  0  0  0
  1 19  1  0  0  0  0
  2  3  1  0  0  0  0
  3  7  1  0  0  0  0
  3  4  1  0  0  0  0
  3 20  1  0  0  0  0
  4  5  1  0  0  0  0
  4 21  1  0  0  0  0
  4 22  1  0  0  0  0
  5  6  1  0  0  0  0
  5 23  1  0  0  0  0
  5 24  1  0  0  0  0
  6  7  1  0  0  0  0
  6 25  1  0  0  0  0
  6 26  1  0  0  0  0
  7  8  1  0  0  0  0
  7 27  1  0  0  0  0
  8 28  1  0  0  0  0
  8  9  1  0  0  0  0
  9 11  1  0  0  0  0
  9 10  2  0  0  0  0
 11 12  1  0  0  0  0
 11 32  1  0  0  0  0
 12 16  1  0  0  0  0
 12 13  2  0  0  0  0
 13 29  1  0  0  0  0
 13 14  1  0  0  0  0
 14 30  1  0  0  0  0
 14 15  2  0  0  0  0
 15 31  1  0  0  0  0
 15 16  1  0  0  0  0
M  CHG  1  13   1
M  END
> <s_m_source_file>
AV-unprocessed.smi

> <i_m_source_file_index>
2784

> <i_lp_mmshare_version>
43012

> <i_f3d_flags>
0

> <s_epik_input>
W0NIM11PW0NAQEhdMVtDSDJdW0NIMl1bQ0gyXVtDQEhdMVtOSF1DKD1PKVtOSF1jMm5bY0hdW2NIXW8y

> <s_epik_cmdline>
J2VwaWtfcHl0aG9uJywgJy1waCcsICc3LjAnLCAnLXRuJywgJzgnLCAnLW1hJywgJzIwMCcsICctbWV0YWxfYmluZGluZycsICctaW1hZScsICc8aW5maWxlLm1hZT4nLCAnLW9tYWUnLCAnPG91dGZpbGUubWFlPic=

> <r_epik_Ionization_Penalty>
6.73843

> <r_epik_Ionization_Penalty_Charging>
6.66704

> <r_epik_Ionization_Penalty_Neutral>
0.0713889

> <r_epik_State_Penalty>
1.94951

> <r_epik_Charging_Adjusted_Penalty>
8.61656

> <i_epik_Tot_Q>
1

> <i_epik_Tot_abs_Q>
1

> <r_epik_Metal_State_Penalty>
1.97013

> <b_epik_Metal_Only>
0

> <s_lp_Force_Field>
OPLS_2005

> <r_lp_Energy>
28.2598

> <b_lp_Chiralities_Consistent>
1

> <s_lp_Variant>
AV-unprocessed.smi:2784-7

> <Gold.Version>
5.8.1

> <Gold.Id.Protein>
6NUR|6NUR_protein|mol2

> <Gold.PLP.Fitness>
35.1305

> <Gold.PLP.PLP>
-27.2642

> <Gold.PLP.part.hbond>
-2.0000

> <Gold.PLP.part.metal>
0.0000

> <Gold.PLP.part.buried>
-4.1793

> <Gold.PLP.part.nonpolar>
-23.1007

> <Gold.PLP.part.repulsive>
1.2406

> <Gold.PLP.ligand.clash>
0.0057

> <Gold.PLP.ligand.torsion>
0.4033

> <Gold.PLP.Chemscore.Hbond>
1.8880

> <Gold.PLP.Chemscore.CHOScore>
1.0000

> <Gold.PLP.Chemscore.Metal>
0.0000

> <Gold.Chemscore.Hbonds>
donor molecule, donor type, donor heavy atom, donor atom, acceptor molecule, acceptor atom, score
      L1  H     8    28       P1  8028  0.91
      L1  H    11    32       P1  8028  0.99
      L1  C    15    31       P1 10175  1.00

> <Gold.PLP.Chemscore.Internal.Correction>
0.0145

> <Gold.Rescore>
     Score         DG    S(hbond)    S(metal)    S(lipo)     H(rot)  DE(clash)    DE(int)     intcor
     17.10     -17.49       1.94        0.00      76.53       1.34       0.11       0.28       ----

> <Gold.Chemscore.Fitness>
17.1016

> <Gold.Chemscore.DG>
-17.4937

> <Gold.Chemscore.ZeroCoef>
-5.4800

> <Gold.Chemscore.Hbond>
1.9394

> <Gold.Chemscore.Metal>
0.0000

> <Gold.Chemscore.Lipo>
76.5297

> <Gold.Chemscore.Internal_Hbond>
0.0000

> <Gold.Chemscore.DEClash>
0.1134

> <Gold.Chemscore.DEInternal>
0.2787

> <Gold.Chemscore.Rot>
1.3351

> <Gold.Chemscore.Internal.Correction>
   9.000000E+99

> <Gold.Chemscore.Hbonds>
donor molecule, donor type, donor heavy atom, donor atom, acceptor molecule, acceptor atom, score
      L1  H     8    28       P1  8028  0.79
      L1  H    11    32       P1  8028  0.93

> <Gold.Chemscore.Hbond.Weighted>
-6.4775

> <Gold.Chemscore.Metal.Weighted>
-0.0000

> <Gold.Chemscore.Lipo.Weighted>
-8.9540

> <Gold.Chemscore.Internal_Hbond.Weighted>
0.0000

> <Gold.Chemscore.DEClash.Weighted>
0.1134

> <Gold.Chemscore.DEInternal.Weighted>
0.2787

> <Gold.Chemscore.Rot.Weighted>
3.4177

> <Gold.Chemscore.Internal.Correction.Weighted>
   9.000000E+99

> <Gold.Protein.RotatedTorsions>
[ 6907 6896 6895 6894 ] final  -52.07 input  -60.11 | X-H torsion
[ 7974 7965 7964 7962 ] final -134.53 input  175.53 | X-H torsion
[ 8008 7997 7996 7995 ] final  122.38 input   59.86 | X-H torsion
[ 10167 10162 10161 10158 ] final  -85.02 input  -65.29 | X-H torsion
[ 10718 10713 10712 10709 ] final  -32.21 input   66.30 | X-H torsion
[ 10763 10752 10751 10750 ] final -115.49 input  -60.55 | X-H torsion
[ 11005 11000 10999 10996 ] final -105.81 input  -57.11 | X-H torsion

> <Gold.Protein.ActiveResidues>
 VAL166  LYS551  ARG553  GLY616  TRP617  ASP618  TYR619  PRO620  LYS621  CYS622 
 ASP623  PHE694  ASN695  SER759  ASP760  ASP761  ALA762  ILE779  LEU786  VAL792 
 PHE793  MET794  SER795  GLU796  ALA797  LYS798  CYS799  TRP800  GLU811  SER814 

> <Gold.Protein.RotatedAtoms>
  150.8552  134.7889  159.7039 H   0  0  0  0  0  0  0  0  0  0  0  0  # atno 6907 bound_to 6896
  152.4606  134.5190  159.9786 H   0  0  0  0  0  0  0  0  0  0  0  0  # atno 6908 bound_to 6896
  151.5304  133.3412  159.2953 H   0  0  0  0  0  0  0  0  0  0  0  0  # atno 6909 bound_to 6896
  144.9095  140.6876  143.5034 H   0  0  0  0  0  0  0  0  0  0  0  0  # atno 7974 bound_to 7965
  156.2725  140.2787  156.1458 H   0  0  0  0  0  0  0  0  0  0  0  0  # atno 8008 bound_to 7997
  155.0905  140.0388  157.2685 H   0  0  0  0  0  0  0  0  0  0  0  0  # atno 8009 bound_to 7997
  154.6893  140.2625  155.6835 H   0  0  0  0  0  0  0  0  0  0  0  0  # atno 8010 bound_to 7997
  140.4077  143.2635  151.9059 H   0  0  0  0  0  0  0  0  0  0  0  0  # atno 10167 bound_to 10162
  156.3777  130.4350  149.7494 H   0  0  0  0  0  0  0  0  0  0  0  0  # atno 10718 bound_to 10713
  154.8483  135.4379  154.1672 H   0  0  0  0  0  0  0  0  0  0  0  0  # atno 10763 bound_to 10752
  153.2794  135.6952  153.7406 H   0  0  0  0  0  0  0  0  0  0  0  0  # atno 10764 bound_to 10752
  153.6616  135.3434  155.3104 H   0  0  0  0  0  0  0  0  0  0  0  0  # atno 10765 bound_to 10752
  141.1035  133.8840  157.1780 H   0  0  0  0  0  0  0  0  0  0  0  0  # atno 11005 bound_to 11000
  145.3479  139.1714  143.4450 LP  0  0  0  0  0  0  0  0  0  0  0  0  # atno 17320 bound_to 7965
  146.3151  140.3527  142.8657 LP  0  0  0  0  0  0  0  0  0  0  0  0  # atno 17321 bound_to 7965
  139.4783  144.5569  151.8300 LP  0  0  0  0  0  0  0  0  0  0  0  0  # atno 17342 bound_to 10162
  140.4671  144.1639  150.5913 LP  0  0  0  0  0  0  0  0  0  0  0  0  # atno 17343 bound_to 10162
  156.4596  130.7945  151.2966 LP  0  0  0  0  0  0  0  0  0  0  0  0  # atno 17370 bound_to 10713
  157.7490  131.0070  150.3172 LP  0  0  0  0  0  0  0  0  0  0  0  0  # atno 17371 bound_to 10713
  139.9896  135.0069  156.9943 LP  0  0  0  0  0  0  0  0  0  0  0  0  # atno 17394 bound_to 11000
  140.4961  134.1144  155.7241 LP  0  0  0  0  0  0  0  0  0  0  0  0  # atno 17395 bound_to 11000

$$$$
