AV-unprocessed.smi:1905|AV-procd|sdf|7725|dock3
  -GOLD-   22720 9463D 1   1.00000     0.00000
 Structure written by MMmdl.
 38 39  0  0  0  0  0  0  0  0  1 V2000
  151.5452  138.8005  155.9465 C   0  0  0  0  0  0  0  0  0  0  0  0
  151.6771  138.4511  154.4623 C   0  0  0  0  0  0  0  0  0  0  0  0
  150.3746  138.4055  153.8880 O   0  0  0  0  0  0  0  0  0  0  0  0
  149.5267  139.4809  154.0757 C   0  0  0  0  0  0  0  0  0  0  0  0
  150.0542  140.6474  154.5247 N   0  0  0  0  0  0  0  0  0  0  0  0
  149.2287  141.6980  154.7061 C   0  0  0  0  0  0  0  0  0  0  0  0
  147.8474  141.6453  154.4458 C   0  0  0  0  0  0  0  0  0  0  0  0
  147.2980  140.4371  153.9786 C   0  0  0  0  0  0  0  0  0  0  0  0
  148.1496  139.3199  153.7943 C   0  0  0  0  0  0  0  0  0  0  0  0
  147.7149  138.0518  153.3151 N   0  0  0  0  0  0  0  0  0  0  0  0
  146.4832  137.5141  153.3170 C   0  0  0  0  0  0  0  0  0  0  0  0
  145.4711  138.0402  153.7785 O   0  0  0  0  0  0  0  0  0  0  0  0
  146.4903  136.2981  152.7532 N   0  0  0  0  0  0  0  0  0  0  0  0
  145.3205  135.4418  152.5868 C   0  0  0  0  0  0  0  0  0  0  0  0
  145.3320  134.6911  151.2412 C   0  0  2  0  0  0  0  0  0  0  0  0
  144.0891  133.8547  150.9610 C   0  0  0  0  0  0  0  0  0  0  0  0
  144.6205  132.6292  150.2090 C   0  0  0  0  0  0  0  0  0  0  0  0
  146.0152  132.8512  150.0440 O   0  0  0  0  0  0  0  0  0  0  0  0
  146.4528  133.6636  151.1193 C   0  0  0  0  0  0  0  0  0  0  0  0
  152.5237  138.8381  156.4254 H   0  0  0  0  0  0  0  0  0  0  0  0
  150.9434  138.0584  156.4718 H   0  0  0  0  0  0  0  0  0  0  0  0
  151.0704  139.7730  156.0786 H   0  0  0  0  0  0  0  0  0  0  0  0
  152.2897  139.2036  153.9635 H   0  0  0  0  0  0  0  0  0  0  0  0
  152.1733  137.4850  154.3558 H   0  0  0  0  0  0  0  0  0  0  0  0
  149.6841  142.6096  155.0643 H   0  0  0  0  0  0  0  0  0  0  0  0
  147.2236  142.5136  154.5966 H   0  0  0  0  0  0  0  0  0  0  0  0
  146.2422  140.4036  153.7632 H   0  0  0  0  0  0  0  0  0  0  0  0
  148.4495  137.4623  152.9515 H   0  0  0  0  0  0  0  0  0  0  0  0
  147.3679  135.9409  152.4049 H   0  0  0  0  0  0  0  0  0  0  0  0
  145.2607  134.7328  153.4143 H   0  0  0  0  0  0  0  0  0  0  0  0
  144.4323  136.0703  152.6566 H   0  0  0  0  0  0  0  0  0  0  0  0
  145.4514  135.4072  150.4263 H   0  0  0  0  0  0  0  0  0  0  0  0
  143.6010  133.5409  151.8846 H   0  0  0  0  0  0  0  0  0  0  0  0
  143.3602  134.4131  150.3725 H   0  0  0  0  0  0  0  0  0  0  0  0
  144.4660  131.7232  150.7963 H   0  0  0  0  0  0  0  0  0  0  0  0
  144.1370  132.4925  149.2415 H   0  0  0  0  0  0  0  0  0  0  0  0
  147.4216  134.1184  150.9118 H   0  0  0  0  0  0  0  0  0  0  0  0
  146.5397  133.0583  152.0232 H   0  0  0  0  0  0  0  0  0  0  0  0
  1  2  1  0  0  0  0
  1 20  1  0  0  0  0
  1 21  1  0  0  0  0
  1 22  1  0  0  0  0
  2  3  1  0  0  0  0
  2 23  1  0  0  0  0
  2 24  1  0  0  0  0
  3  4  1  0  0  0  0
  4  9  1  0  0  0  0
  4  5  2  0  0  0  0
  5  6  1  0  0  0  0
  6  7  2  0  0  0  0
  6 25  1  0  0  0  0
  7  8  1  0  0  0  0
  7 26  1  0  0  0  0
  8  9  2  0  0  0  0
  8 27  1  0  0  0  0
  9 10  1  0  0  0  0
 10 11  1  0  0  0  0
 10 28  1  0  0  0  0
 11 12  2  0  0  0  0
 11 13  1  0  0  0  0
 13 14  1  0  0  0  0
 13 29  1  0  0  0  0
 14 15  1  0  0  0  0
 14 30  1  0  0  0  0
 14 31  1  0  0  0  0
 15 19  1  0  0  0  0
 15 16  1  0  0  0  0
 15 32  1  0  0  0  0
 16 17  1  0  0  0  0
 16 33  1  0  0  0  0
 16 34  1  0  0  0  0
 17 18  1  0  0  0  0
 17 35  1  0  0  0  0
 17 36  1  0  0  0  0
 18 19  1  0  0  0  0
 19 37  1  0  0  0  0
 19 38  1  0  0  0  0
M  END
> <s_m_source_file>
AV-unprocessed.smi

> <i_m_source_file_index>
1905

> <i_lp_mmshare_version>
43012

> <i_f3d_flags>
0

> <s_epik_input>
W0NIM11bQ0gyXU9jMW5bY0hdW2NIXVtjSF1jMVtOSF1DKD1PKVtOSF1bQ0gyXVtDQEBIXTJbQ0gyXVtDSDJdT1tDSDJdMg==

> <s_epik_cmdline>
J2VwaWtfcHl0aG9uJywgJy1waCcsICc3LjAnLCAnLXRuJywgJzgnLCAnLW1hJywgJzIwMCcsICctbWV0YWxfYmluZGluZycsICctaW1hZScsICc8aW5maWxlLm1hZT4nLCAnLW9tYWUnLCAnPG91dGZpbGUubWFlPic=

> <r_lp_tautomer_probability>
1

> <r_epik_Ionization_Penalty>
0.000115153

> <r_epik_Ionization_Penalty_Charging>
0

> <r_epik_Ionization_Penalty_Neutral>
0.000115153

> <r_epik_State_Penalty>
-0

> <r_epik_Charging_Adjusted_Penalty>
0

> <i_epik_Tot_Q>
0

> <i_epik_Tot_abs_Q>
0

> <r_epik_Metal_State_Penalty>
-0

> <b_epik_Metal_Only>
0

> <s_lp_Force_Field>
OPLS_2005

> <r_lp_Energy>
20.8795

> <b_lp_Chiralities_Consistent>
1

> <s_lp_Variant>
AV-unprocessed.smi:1905-1

> <Gold.Version>
5.8.1

> <Gold.Id.Protein>
6NUR|6NUR_protein|mol2

> <Gold.PLP.Fitness>
41.8325

> <Gold.PLP.PLP>
-31.3063

> <Gold.PLP.part.hbond>
-3.0000

> <Gold.PLP.part.metal>
0.0000

> <Gold.PLP.part.buried>
-2.0339

> <Gold.PLP.part.nonpolar>
-25.8951

> <Gold.PLP.part.repulsive>
0.7744

> <Gold.PLP.ligand.clash>
0.0000

> <Gold.PLP.ligand.torsion>
0.4649

> <Gold.PLP.Chemscore.Hbond>
2.8000

> <Gold.PLP.Chemscore.CHOScore>
1.0000

> <Gold.PLP.Chemscore.Metal>
0.0000

> <Gold.Chemscore.Hbonds>
donor molecule, donor type, donor heavy atom, donor atom, acceptor molecule, acceptor atom, score
      L1  H    10    28       P1  7948  0.99
      L1  H    13    29       P1  7948  1.00
      P1  H  7989  7998       L1     5  0.82
      L1  C     6    25       P1  8028  1.00

> <Gold.PLP.Chemscore.Internal.Correction>
0.0560

> <Gold.Rescore>
     Score         DG    S(hbond)    S(metal)    S(lipo)     H(rot)  DE(clash)    DE(int)     intcor
     14.45     -17.47       2.45        0.00      67.93       1.61       0.15       2.87       ----

> <Gold.Chemscore.Fitness>
14.4514

> <Gold.Chemscore.DG>
-17.4700

> <Gold.Chemscore.ZeroCoef>
-5.4800

> <Gold.Chemscore.Hbond>
2.4465

> <Gold.Chemscore.Metal>
0.0000

> <Gold.Chemscore.Lipo>
67.9349

> <Gold.Chemscore.Internal_Hbond>
0.0000

> <Gold.Chemscore.DEClash>
0.1509

> <Gold.Chemscore.DEInternal>
2.8677

> <Gold.Chemscore.Rot>
1.6131

> <Gold.Chemscore.Internal.Correction>
   9.000000E+99

> <Gold.Chemscore.Hbonds>
donor molecule, donor type, donor heavy atom, donor atom, acceptor molecule, acceptor atom, score
      L1  H    10    28       P1  7948  0.94
      L1  H    13    29       P1  7948  0.94
      P1  H  7989  7998       L1     5  0.38

> <Gold.Chemscore.Hbond.Weighted>
-8.1712

> <Gold.Chemscore.Metal.Weighted>
-0.0000

> <Gold.Chemscore.Lipo.Weighted>
-7.9484

> <Gold.Chemscore.Internal_Hbond.Weighted>
0.0000

> <Gold.Chemscore.DEClash.Weighted>
0.1509

> <Gold.Chemscore.DEInternal.Weighted>
2.8677

> <Gold.Chemscore.Rot.Weighted>
4.1296

> <Gold.Chemscore.Internal.Correction.Weighted>
   9.000000E+99

> <Gold.Protein.RotatedTorsions>
[ 6907 6896 6895 6894 ] final -177.58 input  -60.11 | X-H torsion
[ 7974 7965 7964 7962 ] final  -71.07 input  175.53 | X-H torsion
[ 8008 7997 7996 7995 ] final  -24.94 input   59.86 | X-H torsion
[ 10167 10162 10161 10158 ] final  -77.69 input  -65.29 | X-H torsion
[ 10718 10713 10712 10709 ] final   64.61 input   66.30 | X-H torsion
[ 10763 10752 10751 10750 ] final  -31.90 input  -60.55 | X-H torsion
[ 11005 11000 10999 10996 ] final  124.00 input  -57.11 | X-H torsion

> <Gold.Protein.ActiveResidues>
 VAL166  LYS551  ARG553  GLY616  TRP617  ASP618  TYR619  PRO620  LYS621  CYS622 
 ASP623  PHE694  ASN695  SER759  ASP760  ASP761  ALA762  ILE779  LEU786  VAL792 
 PHE793  MET794  SER795  GLU796  ALA797  LYS798  CYS799  TRP800  GLU811  SER814 

> <Gold.Protein.RotatedAtoms>
  151.6233  133.3337  159.3092 H   0  0  0  0  0  0  0  0  0  0  0  0  # atno 6907 bound_to 6896
  150.8094  134.7244  159.6686 H   0  0  0  0  0  0  0  0  0  0  0  0  # atno 6908 bound_to 6896
  152.4191  134.5993  160.0047 H   0  0  0  0  0  0  0  0  0  0  0  0  # atno 6909 bound_to 6896
  145.6828  140.9182  143.0823 H   0  0  0  0  0  0  0  0  0  0  0  0  # atno 7974 bound_to 7965
  154.4502  140.1940  156.0541 H   0  0  0  0  0  0  0  0  0  0  0  0  # atno 8008 bound_to 7997
  156.0632  140.3294  155.7459 H   0  0  0  0  0  0  0  0  0  0  0  0  # atno 8009 bound_to 7997
  155.5380  140.0584  157.2866 H   0  0  0  0  0  0  0  0  0  0  0  0  # atno 8010 bound_to 7997
  140.4748  143.2417  151.8150 H   0  0  0  0  0  0  0  0  0  0  0  0  # atno 10167 bound_to 10162
  157.6051  130.9169  149.9868 H   0  0  0  0  0  0  0  0  0  0  0  0  # atno 10718 bound_to 10713
  153.8049  135.6887  153.4850 H   0  0  0  0  0  0  0  0  0  0  0  0  # atno 10763 bound_to 10752
  153.1665  135.4559  154.9842 H   0  0  0  0  0  0  0  0  0  0  0  0  # atno 10764 bound_to 10752
  154.7991  135.3330  154.7535 H   0  0  0  0  0  0  0  0  0  0  0  0  # atno 10765 bound_to 10752
  139.9338  134.9640  156.8344 H   0  0  0  0  0  0  0  0  0  0  0  0  # atno 11005 bound_to 11000
  144.7021  139.8718  143.7441 LP  0  0  0  0  0  0  0  0  0  0  0  0  # atno 17320 bound_to 7965
  146.0950  139.3941  143.0382 LP  0  0  0  0  0  0  0  0  0  0  0  0  # atno 17321 bound_to 7965
  139.4824  144.4847  151.9262 LP  0  0  0  0  0  0  0  0  0  0  0  0  # atno 17342 bound_to 10162
  140.3932  144.2588  150.5898 LP  0  0  0  0  0  0  0  0  0  0  0  0  # atno 17343 bound_to 10162
  156.1135  130.3649  150.0008 LP  0  0  0  0  0  0  0  0  0  0  0  0  # atno 17370 bound_to 10713
  156.8102  130.9322  151.3644 LP  0  0  0  0  0  0  0  0  0  0  0  0  # atno 17371 bound_to 10713
  140.6129  134.0066  155.7584 LP  0  0  0  0  0  0  0  0  0  0  0  0  # atno 17394 bound_to 11000
  141.0942  133.9870  157.3188 LP  0  0  0  0  0  0  0  0  0  0  0  0  # atno 17395 bound_to 11000

$$$$
