AV-unprocessed.smi:666|AV-procd|sdf|3254|dock10
  -GOLD-   22720 0203D 1   1.00000     0.00000
 Structure written by MMmdl.
 34 35  0  0  0  0  0  0  0  0  2 V2000
  150.7007  140.8695  157.5723 O   0  0  0  0  0  0  0  0  0  0  0  0
  151.8691  140.5388  157.7775 C   0  0  0  0  0  0  0  0  0  0  0  0
  152.5171  140.8701  159.1274 C   0  0  0  0  0  0  0  0  0  0  0  0
  152.3895  142.3168  159.5747 C   0  0  0  0  0  0  0  0  0  0  0  0
  152.5933  142.6941  160.8522 C   0  0  0  0  0  0  0  0  0  0  0  0
  152.4641  144.1232  161.3492 C   0  0  0  0  0  0  0  0  0  0  0  0
  151.7396  145.0295  160.3397 C   0  0  0  0  0  0  0  0  0  0  0  0
  152.2414  144.7793  158.9118 C   0  0  0  0  0  0  0  0  0  0  0  0
  152.0223  143.3165  158.4849 C   0  0  0  0  0  0  0  0  0  0  0  0
  152.7207  139.8773  156.9599 N   0  5  0  0  0  0  0  0  0  0  0  0
  152.3460  139.4592  155.4373 S   0  0  0  0  0  0  0  0  0  0  0  0
  151.1252  140.1284  154.9605 O   0  0  0  0  0  0  0  0  0  0  0  0
  153.5250  139.5230  154.5597 O   0  0  0  0  0  0  0  0  0  0  0  0
  151.9186  137.6624  155.6026 C   0  0  0  0  0  0  0  0  0  0  0  0
  151.0511  137.4239  156.8091 C   0  0  0  0  0  0  0  0  0  0  0  0
  149.7556  137.9426  157.0884 C   0  0  0  0  0  0  0  0  0  0  0  0
  149.4451  137.3954  158.2993 C   0  0  0  0  0  0  0  0  0  0  0  0
  150.4529  136.5972  158.7322 O   0  0  0  0  0  0  0  0  0  0  0  0
  151.4719  136.6187  157.7729 N   0  0  0  0  0  0  0  0  0  0  0  0
  152.1386  140.2285  159.9260 H   0  0  0  0  0  0  0  0  0  0  0  0
  153.5772  140.6301  159.0354 H   0  0  0  0  0  0  0  0  0  0  0  0
  152.8782  141.9569  161.5887 H   0  0  0  0  0  0  0  0  0  0  0  0
  151.9309  144.1268  162.3001 H   0  0  0  0  0  0  0  0  0  0  0  0
  153.4672  144.5031  161.5450 H   0  0  0  0  0  0  0  0  0  0  0  0
  150.6668  144.8364  160.3809 H   0  0  0  0  0  0  0  0  0  0  0  0
  151.8752  146.0761  160.6135 H   0  0  0  0  0  0  0  0  0  0  0  0
  151.7431  145.4495  158.2108 H   0  0  0  0  0  0  0  0  0  0  0  0
  153.3049  145.0162  158.8611 H   0  0  0  0  0  0  0  0  0  0  0  0
  152.6095  143.1105  157.5898 H   0  0  0  0  0  0  0  0  0  0  0  0
  150.9766  143.1569  158.2198 H   0  0  0  0  0  0  0  0  0  0  0  0
  151.4402  137.3125  154.6892 H   0  0  0  0  0  0  0  0  0  0  0  0
  152.8582  137.1173  155.6954 H   0  0  0  0  0  0  0  0  0  0  0  0
  149.1542  138.6162  156.4967 H   0  0  0  0  0  0  0  0  0  0  0  0
  148.5861  137.4712  158.9494 H   0  0  0  0  0  0  0  0  0  0  0  0
  1  2  2  0  0  0  0
  2  3  1  0  0  0  0
  2 10  1  0  0  0  0
  3  4  1  0  0  0  0
  3 20  1  0  0  0  0
  3 21  1  0  0  0  0
  4  9  1  0  0  0  0
  4  5  2  0  0  0  0
  5  6  1  0  0  0  0
  5 22  1  0  0  0  0
  6  7  1  0  0  0  0
  6 23  1  0  0  0  0
  6 24  1  0  0  0  0
  7  8  1  0  0  0  0
  7 25  1  0  0  0  0
  7 26  1  0  0  0  0
  8  9  1  0  0  0  0
  8 27  1  0  0  0  0
  8 28  1  0  0  0  0
  9 29  1  0  0  0  0
  9 30  1  0  0  0  0
 10 11  1  0  0  0  0
 11 12  2  0  0  0  0
 11 13  2  0  0  0  0
 11 14  1  0  0  0  0
 14 15  1  0  0  0  0
 14 31  1  0  0  0  0
 14 32  1  0  0  0  0
 15 19  2  0  0  0  0
 15 16  1  0  0  0  0
 16 17  2  0  0  0  0
 16 33  1  0  0  0  0
 17 18  1  0  0  0  0
 17 34  1  0  0  0  0
 18 19  1  0  0  0  0
M  CHG  1  10  -1
M  END
> <s_m_source_file>
AV-unprocessed.smi

> <i_m_source_file_index>
666

> <i_lp_mmshare_version>
43012

> <i_f3d_flags>
0

> <s_epik_input>
W0NIMl0xW0NIMl1bQ0gyXVtDSDJdW0NIXT1DMVtDSDJdQyg9TylbTkhdUyg9TykoPU8pW0NIMl1jMltjSF1bY0hdb24y

> <s_epik_cmdline>
J2VwaWtfcHl0aG9uJywgJy1waCcsICc3LjAnLCAnLXRuJywgJzgnLCAnLW1hJywgJzIwMCcsICctbWV0YWxfYmluZGluZycsICctaW1hZScsICc8aW5maWxlLm1hZT4nLCAnLW9tYWUnLCAnPG91dGZpbGUubWFlPic=

> <r_epik_Ionization_Penalty>
0.000833246

> <r_epik_Ionization_Penalty_Charging>
0.000833246

> <r_epik_Ionization_Penalty_Neutral>
1.62659e-10

> <r_epik_State_Penalty>
0.000536532

> <r_epik_Charging_Adjusted_Penalty>
0.00136978

> <i_epik_Tot_Q>
-1

> <i_epik_Tot_abs_Q>
1

> <r_epik_Metal_State_Penalty>
-0

> <b_epik_Metal_Only>
0

> <s_lp_Force_Field>
OPLS_2005

> <r_lp_Energy>
4.18867

> <b_lp_Chiralities_Consistent>
1

> <s_lp_Variant>
AV-unprocessed.smi:666-1

> <Gold.Version>
5.8.1

> <Gold.Id.Protein>
6NUR|6NUR_protein|mol2

> <Gold.PLP.Fitness>
51.6751

> <Gold.PLP.PLP>
-40.4381

> <Gold.PLP.part.hbond>
-5.5953

> <Gold.PLP.part.metal>
0.0000

> <Gold.PLP.part.buried>
-6.7061

> <Gold.PLP.part.nonpolar>
-29.1172

> <Gold.PLP.part.repulsive>
0.0801

> <Gold.PLP.ligand.clash>
0.0000

> <Gold.PLP.ligand.torsion>
1.1415

> <Gold.PLP.Chemscore.Hbond>
4.1620

> <Gold.PLP.Chemscore.CHOScore>
0.0000

> <Gold.PLP.Chemscore.Metal>
0.0000

> <Gold.Chemscore.Hbonds>
donor molecule, donor type, donor heavy atom, donor atom, acceptor molecule, acceptor atom, score
      P1  H  6896  6908       L1    18  0.89
      P1  H  7989  7998       L1    12  1.00
      P1  H  7997  8008       L1    10  1.92
      P1  H  7997  8009       L1    13  0.34

> <Gold.PLP.Chemscore.Internal.Correction>
1.0340

> <Gold.Rescore>
     Score         DG    S(hbond)    S(metal)    S(lipo)     H(rot)  DE(clash)    DE(int)     intcor
     15.99     -20.09       2.41        0.00      93.48       1.70       0.17       3.93       ----

> <Gold.Chemscore.Fitness>
15.9925

> <Gold.Chemscore.DG>
-20.0891

> <Gold.Chemscore.ZeroCoef>
-5.4800

> <Gold.Chemscore.Hbond>
2.4060

> <Gold.Chemscore.Metal>
0.0000

> <Gold.Chemscore.Lipo>
93.4771

> <Gold.Chemscore.Internal_Hbond>
0.0000

> <Gold.Chemscore.DEClash>
0.1712

> <Gold.Chemscore.DEInternal>
3.9253

> <Gold.Chemscore.Rot>
1.7046

> <Gold.Chemscore.Internal.Correction>
   9.000000E+99

> <Gold.Chemscore.Hbonds>
donor molecule, donor type, donor heavy atom, donor atom, acceptor molecule, acceptor atom, score
      P1  H  6896  6908       L1    18  0.24
      P1  H  7989  7998       L1    12  0.40
      P1  H  7997  8008       L1    10  0.32
      P1  H  7997  8009       L1    13  0.30

> <Gold.Chemscore.Hbond.Weighted>
-8.0361

> <Gold.Chemscore.Metal.Weighted>
-0.0000

> <Gold.Chemscore.Lipo.Weighted>
-10.9368

> <Gold.Chemscore.Internal_Hbond.Weighted>
0.0000

> <Gold.Chemscore.DEClash.Weighted>
0.1712

> <Gold.Chemscore.DEInternal.Weighted>
3.9253

> <Gold.Chemscore.Rot.Weighted>
4.3638

> <Gold.Chemscore.Internal.Correction.Weighted>
   9.000000E+99

> <Gold.Protein.RotatedTorsions>
[ 6907 6896 6895 6894 ] final -174.91 input  -60.11 | X-H torsion
[ 7974 7965 7964 7962 ] final   94.43 input  175.53 | X-H torsion
[ 8008 7997 7996 7995 ] final  -75.83 input   59.86 | X-H torsion
[ 10167 10162 10161 10158 ] final  177.66 input  -65.29 | X-H torsion
[ 10718 10713 10712 10709 ] final -171.15 input   66.30 | X-H torsion
[ 10763 10752 10751 10750 ] final  -55.57 input  -60.55 | X-H torsion
[ 11005 11000 10999 10996 ] final   13.78 input  -57.11 | X-H torsion

> <Gold.Protein.ActiveResidues>
 VAL166  LYS551  ARG553  GLY616  TRP617  ASP618  TYR619  PRO620  LYS621  CYS622 
 ASP623  PHE694  ASN695  SER759  ASP760  ASP761  ALA762  ILE779  LEU786  VAL792 
 PHE793  MET794  SER795  GLU796  ALA797  LYS798  CYS799  TRP800  GLU811  SER814 

> <Gold.Protein.RotatedAtoms>
  151.5800  133.3379  159.3006 H   0  0  0  0  0  0  0  0  0  0  0  0  # atno 6907 bound_to 6896
  150.8318  134.7578  159.6871 H   0  0  0  0  0  0  0  0  0  0  0  0  # atno 6908 bound_to 6896
  152.4401  134.5615  159.9947 H   0  0  0  0  0  0  0  0  0  0  0  0  # atno 6909 bound_to 6896
  145.4656  139.2284  143.2963 H   0  0  0  0  0  0  0  0  0  0  0  0  # atno 7974 bound_to 7965
  154.5451  140.0737  156.8575 H   0  0  0  0  0  0  0  0  0  0  0  0  # atno 8008 bound_to 7997
  155.3103  140.3390  155.4226 H   0  0  0  0  0  0  0  0  0  0  0  0  # atno 8009 bound_to 7997
  156.1911  140.1686  156.8077 H   0  0  0  0  0  0  0  0  0  0  0  0  # atno 8010 bound_to 7997
  139.5262  144.2772  152.0577 H   0  0  0  0  0  0  0  0  0  0  0  0  # atno 10167 bound_to 10162
  156.7366  130.9326  151.3108 H   0  0  0  0  0  0  0  0  0  0  0  0  # atno 10718 bound_to 10713
  154.1929  135.6424  153.5065 H   0  0  0  0  0  0  0  0  0  0  0  0  # atno 10763 bound_to 10752
  153.0030  135.5433  154.6396 H   0  0  0  0  0  0  0  0  0  0  0  0  # atno 10764 bound_to 10752
  154.5789  135.2923  155.0725 H   0  0  0  0  0  0  0  0  0  0  0  0  # atno 10765 bound_to 10752
  140.4769  134.0975  155.7743 H   0  0  0  0  0  0  0  0  0  0  0  0  # atno 11005 bound_to 11000
  146.2426  140.5429  142.8927 LP  0  0  0  0  0  0  0  0  0  0  0  0  # atno 17320 bound_to 7965
  144.7976  140.6152  143.6499 LP  0  0  0  0  0  0  0  0  0  0  0  0  # atno 17321 bound_to 7965
  140.2229  144.4448  150.6334 LP  0  0  0  0  0  0  0  0  0  0  0  0  # atno 17342 bound_to 10162
  140.6406  143.2203  151.6297 LP  0  0  0  0  0  0  0  0  0  0  0  0  # atno 17343 bound_to 10162
  157.6836  130.9164  150.0330 LP  0  0  0  0  0  0  0  0  0  0  0  0  # atno 17370 bound_to 10713
  156.1493  130.3642  149.9463 LP  0  0  0  0  0  0  0  0  0  0  0  0  # atno 17371 bound_to 10713
  141.1550  133.8899  157.2000 LP  0  0  0  0  0  0  0  0  0  0  0  0  # atno 17394 bound_to 11000
  139.9850  135.0085  156.9842 LP  0  0  0  0  0  0  0  0  0  0  0  0  # atno 17395 bound_to 11000

$$$$
