AV-unprocessed.smi:3116|AV-procd|sdf|11868|dock3
  -GOLD-   2272017253D 1   1.00000     0.00000
 Structure written by MMmdl.
 34 34  0  0  0  0  0  0  0  0  2 V2000
  146.6894  138.9468  151.5673 C   0  0  0  0  0  0  0  0  0  0  0  0
  147.1947  138.9020  153.0214 C   0  0  2  0  0  0  0  0  0  0  0  0
  148.6526  138.6484  153.0710 N   0  3  0  0  0  0  0  0  0  0  0  0
  149.3213  138.9197  154.3649 C   0  0  1  0  0  0  0  0  0  0  0  0
  150.5040  137.9487  154.5306 C   0  0  0  0  0  0  0  0  0  0  0  0
  149.6917  140.4236  154.4674 C   0  0  1  0  0  0  0  0  0  0  0  0
  148.4848  141.3506  154.2216 C   0  0  0  0  0  0  0  0  0  0  0  0
  150.3892  140.7546  155.7080 N   0  0  0  0  0  0  0  0  0  0  0  0
  150.1069  141.7802  156.5880 C   0  0  0  0  0  0  0  0  0  0  0  0
  151.0357  141.7334  157.5872 C   0  0  0  0  0  0  0  0  0  0  0  0
  151.8628  140.6338  157.2279 C   0  0  0  0  0  0  0  0  0  0  0  0
  151.4787  140.0557  156.1018 N   0  0  0  0  0  0  0  0  0  0  0  0
  146.4399  137.8228  153.8070 C   0  0  0  0  0  0  0  0  0  0  0  0
  146.6174  136.5556  153.4239 N   0  0  0  0  0  0  0  0  0  0  0  0
  145.7164  138.1226  154.7555 O   0  0  0  0  0  0  0  0  0  0  0  0
  145.6128  139.1180  151.5268 H   0  0  0  0  0  0  0  0  0  0  0  0
  146.8956  138.0116  151.0445 H   0  0  0  0  0  0  0  0  0  0  0  0
  147.1610  139.7502  151.0018 H   0  0  0  0  0  0  0  0  0  0  0  0
  147.0001  139.8608  153.5055 H   0  0  0  0  0  0  0  0  0  0  0  0
  148.8015  137.6733  152.8532 H   0  0  0  0  0  0  0  0  0  0  0  0
  148.6203  138.7045  155.1726 H   0  0  0  0  0  0  0  0  0  0  0  0
  151.0307  138.1129  155.4703 H   0  0  0  0  0  0  0  0  0  0  0  0
  151.2262  138.0448  153.7198 H   0  0  0  0  0  0  0  0  0  0  0  0
  150.1569  136.9152  154.5326 H   0  0  0  0  0  0  0  0  0  0  0  0
  150.3929  140.6363  153.6587 H   0  0  0  0  0  0  0  0  0  0  0  0
  148.0368  141.1586  153.2465 H   0  0  0  0  0  0  0  0  0  0  0  0
  148.7877  142.3981  154.2396 H   0  0  0  0  0  0  0  0  0  0  0  0
  147.7050  141.2221  154.9720 H   0  0  0  0  0  0  0  0  0  0  0  0
  149.2762  142.4529  156.4325 H   0  0  0  0  0  0  0  0  0  0  0  0
  151.1135  142.3859  158.4443 H   0  0  0  0  0  0  0  0  0  0  0  0
  152.7263  140.2435  157.7460 H   0  0  0  0  0  0  0  0  0  0  0  0
  146.1401  135.8065  153.9047 H   0  0  0  0  0  0  0  0  0  0  0  0
  147.2288  136.3490  152.6467 H   0  0  0  0  0  0  0  0  0  0  0  0
  149.0959  139.1984  152.3494 H   0  0  0  0  0  0  0  0  0  0  0  0
  1  2  1  0  0  0  0
  1 16  1  0  0  0  0
  1 17  1  0  0  0  0
  1 18  1  0  0  0  0
  2  3  1  0  0  0  0
  2 13  1  0  0  0  0
  2 19  1  0  0  0  0
  3  4  1  0  0  0  0
  3 20  1  0  0  0  0
  3 34  1  0  0  0  0
  4  5  1  0  0  0  0
  4  6  1  0  0  0  0
  4 21  1  0  0  0  0
  5 22  1  0  0  0  0
  5 23  1  0  0  0  0
  5 24  1  0  0  0  0
  6  7  1  0  0  0  0
  6  8  1  0  0  0  0
  6 25  1  0  0  0  0
  7 26  1  0  0  0  0
  7 27  1  0  0  0  0
  7 28  1  0  0  0  0
  8 12  1  0  0  0  0
  8  9  1  0  0  0  0
  9 10  2  0  0  0  0
  9 29  1  0  0  0  0
 10 11  1  0  0  0  0
 10 30  1  0  0  0  0
 11 12  2  0  0  0  0
 11 31  1  0  0  0  0
 13 14  1  0  0  0  0
 13 15  2  0  0  0  0
 14 32  1  0  0  0  0
 14 33  1  0  0  0  0
M  CHG  1   3   1
M  END
> <s_m_source_file>
AV-unprocessed.smi

> <i_m_source_file_index>
3116

> <i_lp_mmshare_version>
43012

> <i_f3d_flags>
0

> <s_epik_input>
W05IMl1DKD1PKVtDQEhdKFtDSDNdKVtOSF1bQ0BIXShbQ0gzXSlbQ0BIXShbQ0gzXSluMVtjSF1bY0hdW2NIXW4x

> <s_epik_cmdline>
J2VwaWtfcHl0aG9uJywgJy1waCcsICc3LjAnLCAnLXRuJywgJzgnLCAnLW1hJywgJzIwMCcsICctbWV0YWxfYmluZGluZycsICctaW1hZScsICc8aW5maWxlLm1hZT4nLCAnLW9tYWUnLCAnPG91dGZpbGUubWFlPic=

> <r_lp_tautomer_probability>
1

> <r_epik_Ionization_Penalty>
0.15658

> <r_epik_Ionization_Penalty_Charging>
0.156568

> <r_epik_Ionization_Penalty_Neutral>
1.19778e-05

> <r_epik_State_Penalty>
0.145866

> <r_epik_Charging_Adjusted_Penalty>
0.302434

> <i_epik_Tot_Q>
1

> <i_epik_Tot_abs_Q>
1

> <r_epik_Metal_State_Penalty>
0.146064

> <b_epik_Metal_Only>
0

> <s_lp_Force_Field>
OPLS_2005

> <r_lp_Energy>
10.9082

> <b_lp_Chiralities_Consistent>
1

> <s_lp_Variant>
AV-unprocessed.smi:3116-7

> <Gold.Version>
5.8.1

> <Gold.Id.Protein>
6NUR|6NUR_protein|mol2

> <Gold.PLP.Fitness>
43.2804

> <Gold.PLP.PLP>
-29.1193

> <Gold.PLP.part.hbond>
-3.0000

> <Gold.PLP.part.metal>
0.0000

> <Gold.PLP.part.buried>
-1.4772

> <Gold.PLP.part.nonpolar>
-25.9948

> <Gold.PLP.part.repulsive>
0.1464

> <Gold.PLP.ligand.clash>
0.0000

> <Gold.PLP.ligand.torsion>
0.5600

> <Gold.PLP.Chemscore.Hbond>
4.0000

> <Gold.PLP.Chemscore.CHOScore>
1.0000

> <Gold.PLP.Chemscore.Metal>
0.0000

> <Gold.Chemscore.Hbonds>
donor molecule, donor type, donor heavy atom, donor atom, acceptor molecule, acceptor atom, score
      L1  H     3    20       P1  7948  2.00
      L1  H     3    34       P1  7957  1.00
      L1  H    14    33       P1  7948  1.00
      L1  C     9    29       P1  8028  1.00

> <Gold.PLP.Chemscore.Internal.Correction>
0.2811

> <Gold.Rescore>
     Score         DG    S(hbond)    S(metal)    S(lipo)     H(rot)  DE(clash)    DE(int)     intcor
     13.97     -16.87       2.93        0.00      67.15       2.45       0.17       2.73       ----

> <Gold.Chemscore.Fitness>
13.9676

> <Gold.Chemscore.DG>
-16.8687

> <Gold.Chemscore.ZeroCoef>
-5.4800

> <Gold.Chemscore.Hbond>
2.9329

> <Gold.Chemscore.Metal>
0.0000

> <Gold.Chemscore.Lipo>
67.1462

> <Gold.Chemscore.Internal_Hbond>
0.0000

> <Gold.Chemscore.DEClash>
0.1745

> <Gold.Chemscore.DEInternal>
2.7266

> <Gold.Chemscore.Rot>
2.4465

> <Gold.Chemscore.Internal.Correction>
   9.000000E+99

> <Gold.Chemscore.Hbonds>
donor molecule, donor type, donor heavy atom, donor atom, acceptor molecule, acceptor atom, score
      L1  H     3    20       P1  7948  0.99
      L1  H     3    34       P1  7957  0.93
      L1  H    14    33       P1  7948  0.97

> <Gold.Chemscore.Hbond.Weighted>
-9.7957

> <Gold.Chemscore.Metal.Weighted>
-0.0000

> <Gold.Chemscore.Lipo.Weighted>
-7.8561

> <Gold.Chemscore.Internal_Hbond.Weighted>
0.0000

> <Gold.Chemscore.DEClash.Weighted>
0.1745

> <Gold.Chemscore.DEInternal.Weighted>
2.7266

> <Gold.Chemscore.Rot.Weighted>
6.2631

> <Gold.Chemscore.Internal.Correction.Weighted>
   9.000000E+99

> <Gold.Protein.RotatedTorsions>
[ 6907 6896 6895 6894 ] final  -41.74 input  -60.11 | X-H torsion
[ 7974 7965 7964 7962 ] final  -37.51 input  175.53 | X-H torsion
[ 8008 7997 7996 7995 ] final   24.70 input   59.86 | X-H torsion
[ 10167 10162 10161 10158 ] final   16.30 input  -65.29 | X-H torsion
[ 10718 10713 10712 10709 ] final  -82.04 input   66.30 | X-H torsion
[ 10763 10752 10751 10750 ] final   46.94 input  -60.55 | X-H torsion
[ 11005 11000 10999 10996 ] final -149.94 input  -57.11 | X-H torsion

> <Gold.Protein.ActiveResidues>
 VAL166  LYS551  ARG553  GLY616  TRP617  ASP618  TYR619  PRO620  LYS621  CYS622 
 ASP623  PHE694  ASN695  SER759  ASP760  ASP761  ALA762  ILE779  LEU786  VAL792 
 PHE793  MET794  SER795  GLU796  ALA797  LYS798  CYS799  TRP800  GLU811  SER814 

> <Gold.Protein.RotatedAtoms>
  150.9633  134.9017  159.7743 H   0  0  0  0  0  0  0  0  0  0  0  0  # atno 6907 bound_to 6896
  152.5164  134.3643  159.9305 H   0  0  0  0  0  0  0  0  0  0  0  0  # atno 6908 bound_to 6896
  151.3654  133.3833  159.2729 H   0  0  0  0  0  0  0  0  0  0  0  0  # atno 6909 bound_to 6896
  146.0568  140.6404  142.9016 H   0  0  0  0  0  0  0  0  0  0  0  0  # atno 7974 bound_to 7965
  155.0002  140.3124  155.4870 H   0  0  0  0  0  0  0  0  0  0  0  0  # atno 8008 bound_to 7997
  156.2926  140.2233  156.5053 H   0  0  0  0  0  0  0  0  0  0  0  0  # atno 8009 bound_to 7997
  154.7625  140.0458  157.0973 H   0  0  0  0  0  0  0  0  0  0  0  0  # atno 8010 bound_to 7997
  140.5807  143.8987  150.6787 H   0  0  0  0  0  0  0  0  0  0  0  0  # atno 10167 bound_to 10162
  156.0040  130.4622  150.4044 H   0  0  0  0  0  0  0  0  0  0  0  0  # atno 10718 bound_to 10713
  152.9805  135.5992  154.3681 H   0  0  0  0  0  0  0  0  0  0  0  0  # atno 10763 bound_to 10752
  154.3357  135.2768  155.2450 H   0  0  0  0  0  0  0  0  0  0  0  0  # atno 10764 bound_to 10752
  154.4554  135.5979  153.6275 H   0  0  0  0  0  0  0  0  0  0  0  0  # atno 10765 bound_to 10752
  140.7455  134.3466  157.5138 H   0  0  0  0  0  0  0  0  0  0  0  0  # atno 11005 bound_to 11000
  144.7153  140.4186  143.7049 LP  0  0  0  0  0  0  0  0  0  0  0  0  # atno 17320 bound_to 7965
  145.6629  139.1584  143.2798 LP  0  0  0  0  0  0  0  0  0  0  0  0  # atno 17321 bound_to 7965
  140.2485  143.3610  152.1426 LP  0  0  0  0  0  0  0  0  0  0  0  0  # atno 17342 bound_to 10162
  139.5168  144.6982  151.5569 LP  0  0  0  0  0  0  0  0  0  0  0  0  # atno 17343 bound_to 10162
  157.2111  131.0460  151.2598 LP  0  0  0  0  0  0  0  0  0  0  0  0  # atno 17370 bound_to 10713
  157.3887  130.7270  149.6682 LP  0  0  0  0  0  0  0  0  0  0  0  0  # atno 17371 bound_to 10713
  139.8797  134.9108  156.3023 LP  0  0  0  0  0  0  0  0  0  0  0  0  # atno 17394 bound_to 11000
  140.9798  133.7274  156.0656 LP  0  0  0  0  0  0  0  0  0  0  0  0  # atno 17395 bound_to 11000

$$$$
