AV-unprocessed.smi:1794|AV-procd|sdf|7236|dock7
  -GOLD-   22720 8483D 1   1.00000     0.00000
 Structure written by MMmdl.
 55 57  0  0  0  0  0  0  0  0  4 V2000
  149.8023  133.6835  154.8110 C   0  0  0  0  0  0  0  0  0  0  0  0
  148.5755  134.6005  155.0913 C   0  0  0  0  0  0  0  0  0  0  0  0
  147.8692  134.0249  156.3602 C   0  0  0  0  0  0  0  0  0  0  0  0
  149.0085  136.0842  155.3784 C   0  0  0  0  0  0  0  0  0  0  0  0
  149.8803  136.1901  156.5507 N   0  5  0  0  0  0  0  0  0  0  0  0
  150.5882  137.2995  156.8887 C   0  0  0  0  0  0  0  0  0  0  0  0
  151.6333  137.3600  157.5462 O   0  0  0  0  0  0  0  0  0  0  0  0
  150.0067  138.4222  156.4340 N   0  0  0  0  0  0  0  0  0  0  0  0
  150.4096  139.7736  156.6218 C   0  0  0  0  0  0  0  0  0  0  0  0
  151.4226  140.1108  157.5548 C   0  0  0  0  0  0  0  0  0  0  0  0
  151.7927  141.4569  157.7341 C   0  0  0  0  0  0  0  0  0  0  0  0
  151.1479  142.4459  156.9719 C   0  0  0  0  0  0  0  0  0  0  0  0
  150.2042  142.0905  156.0757 N   0  3  0  0  0  0  0  0  0  0  0  0
  149.8144  140.8110  155.8464 C   0  0  0  0  0  0  0  0  0  0  0  0
  148.8201  140.5930  154.8647 N   0  0  0  0  0  0  0  0  0  0  0  0
  147.6332  139.8051  155.1747 C   0  0  0  0  0  0  0  0  0  0  0  0
  146.6727  140.0648  154.0174 C   0  0  0  0  0  0  0  0  0  0  0  0
  146.9640  141.5215  153.6690 C   0  0  0  0  0  0  0  0  0  0  0  0
  148.4647  141.6672  153.9426 C   0  0  0  0  0  0  0  0  0  0  0  0
  147.6420  134.6264  153.8946 N   0  3  0  0  0  0  0  0  0  0  0  0
  147.3445  133.3044  153.2589 C   0  0  0  0  0  0  0  0  0  0  0  0
  146.6019  133.4950  151.9286 C   0  0  0  0  0  0  0  0  0  0  0  0
  145.3857  134.1857  152.1715 O   0  0  0  0  0  0  0  0  0  0  0  0
  145.6197  135.4815  152.7024 C   0  0  0  0  0  0  0  0  0  0  0  0
  146.3658  135.3847  154.0457 C   0  0  0  0  0  0  0  0  0  0  0  0
  150.4273  133.5523  155.6965 H   0  0  0  0  0  0  0  0  0  0  0  0
  150.4560  134.0573  154.0206 H   0  0  0  0  0  0  0  0  0  0  0  0
  149.4788  132.6845  154.5168 H   0  0  0  0  0  0  0  0  0  0  0  0
  148.5172  134.0175  157.2392 H   0  0  0  0  0  0  0  0  0  0  0  0
  147.5827  132.9822  156.2205 H   0  0  0  0  0  0  0  0  0  0  0  0
  146.9688  134.5790  156.6339 H   0  0  0  0  0  0  0  0  0  0  0  0
  149.5000  136.4848  154.4913 H   0  0  0  0  0  0  0  0  0  0  0  0
  148.1103  136.6907  155.5024 H   0  0  0  0  0  0  0  0  0  0  0  0
  149.1049  138.2919  155.9998 H   0  0  0  0  0  0  0  0  0  0  0  0
  151.9256  139.3507  158.1338 H   0  0  0  0  0  0  0  0  0  0  0  0
  152.5588  141.7246  158.4471 H   0  0  0  0  0  0  0  0  0  0  0  0
  151.3624  143.5022  157.0436 H   0  0  0  0  0  0  0  0  0  0  0  0
  147.8720  138.7455  155.2725 H   0  0  0  0  0  0  0  0  0  0  0  0
  147.1843  140.1462  156.1086 H   0  0  0  0  0  0  0  0  0  0  0  0
  146.9244  139.4228  153.1717 H   0  0  0  0  0  0  0  0  0  0  0  0
  145.6297  139.8866  154.2812 H   0  0  0  0  0  0  0  0  0  0  0  0
  146.6939  141.7773  152.6440 H   0  0  0  0  0  0  0  0  0  0  0  0
  146.4039  142.1767  154.3376 H   0  0  0  0  0  0  0  0  0  0  0  0
  148.6993  142.6525  154.3481 H   0  0  0  0  0  0  0  0  0  0  0  0
  149.0268  141.5355  153.0173 H   0  0  0  0  0  0  0  0  0  0  0  0
  148.2544  132.7359  153.0689 H   0  0  0  0  0  0  0  0  0  0  0  0
  146.7255  132.6990  153.9223 H   0  0  0  0  0  0  0  0  0  0  0  0
  147.2162  134.0394  151.2095 H   0  0  0  0  0  0  0  0  0  0  0  0
  146.3728  132.5261  151.4847 H   0  0  0  0  0  0  0  0  0  0  0  0
  146.1865  136.0807  151.9879 H   0  0  0  0  0  0  0  0  0  0  0  0
  144.6612  135.9815  152.8425 H   0  0  0  0  0  0  0  0  0  0  0  0
  145.7372  134.9002  154.7944 H   0  0  0  0  0  0  0  0  0  0  0  0
  146.5402  136.4077  154.3746 H   0  0  0  0  0  0  0  0  0  0  0  0
  148.1604  135.1472  153.2013 H   0  0  0  0  0  0  0  0  0  0  0  0
  149.7617  142.8300  155.5301 H   0  0  0  0  0  0  0  0  0  0  0  0
  1  2  1  0  0  0  0
  1 26  1  0  0  0  0
  1 27  1  0  0  0  0
  1 28  1  0  0  0  0
  2  3  1  0  0  0  0
  2  4  1  0  0  0  0
  2 20  1  0  0  0  0
  3 29  1  0  0  0  0
  3 30  1  0  0  0  0
  3 31  1  0  0  0  0
  4  5  1  0  0  0  0
  4 32  1  0  0  0  0
  4 33  1  0  0  0  0
  5  6  1  0  0  0  0
  6  7  2  0  0  0  0
  6  8  1  0  0  0  0
  8  9  1  0  0  0  0
  8 34  1  0  0  0  0
  9 14  1  0  0  0  0
  9 10  2  0  0  0  0
 10 11  1  0  0  0  0
 10 35  1  0  0  0  0
 11 12  2  0  0  0  0
 11 36  1  0  0  0  0
 12 13  1  0  0  0  0
 12 37  1  0  0  0  0
 13 14  2  0  0  0  0
 13 55  1  0  0  0  0
 14 15  1  0  0  0  0
 15 19  1  0  0  0  0
 15 16  1  0  0  0  0
 16 17  1  0  0  0  0
 16 38  1  0  0  0  0
 16 39  1  0  0  0  0
 17 18  1  0  0  0  0
 17 40  1  0  0  0  0
 17 41  1  0  0  0  0
 18 19  1  0  0  0  0
 18 42  1  0  0  0  0
 18 43  1  0  0  0  0
 19 44  1  0  0  0  0
 19 45  1  0  0  0  0
 20 25  1  0  0  0  0
 20 21  1  0  0  0  0
 20 54  1  0  0  0  0
 21 22  1  0  0  0  0
 21 46  1  0  0  0  0
 21 47  1  0  0  0  0
 22 23  1  0  0  0  0
 22 48  1  0  0  0  0
 22 49  1  0  0  0  0
 23 24  1  0  0  0  0
 24 25  1  0  0  0  0
 24 50  1  0  0  0  0
 24 51  1  0  0  0  0
 25 52  1  0  0  0  0
 25 53  1  0  0  0  0
M  CHG  1   5  -1
M  CHG  1  13   1
M  CHG  1  20   1
M  END
> <s_m_source_file>
AV-unprocessed.smi

> <i_m_source_file_index>
1794

> <i_lp_mmshare_version>
43012

> <i_f3d_flags>
0

> <s_epik_input>
W0NIMl0xW0NIMl1PW0NIMl1bQ0gyXU4xQyhbQ0gzXSkoW0NIM10pW0NIMl1bTkhdQyg9TylbTkhdYzJbY0hdW2NIXVtjSF1uYzJOM1tDSDJdW0NIMl1bQ0gyXVtDSDJdMw==

> <s_epik_cmdline>
J2VwaWtfcHl0aG9uJywgJy1waCcsICc3LjAnLCAnLXRuJywgJzgnLCAnLW1hJywgJzIwMCcsICctbWV0YWxfYmluZGluZycsICctaW1hZScsICc8aW5maWxlLm1hZT4nLCAnLW9tYWUnLCAnPG91dGZpbGUubWFlPic=

> <r_lp_tautomer_probability>
0.999994

> <r_epik_Ionization_Penalty>
8.57565

> <r_epik_Ionization_Penalty_Charging>
8.57565

> <r_epik_Ionization_Penalty_Neutral>
3.55275e-06

> <r_epik_State_Penalty>
8.56988

> <r_epik_Charging_Adjusted_Penalty>
17.1455

> <i_epik_Tot_Q>
1

> <i_epik_Tot_abs_Q>
3

> <r_epik_Metal_State_Penalty>
4.56715

> <b_epik_Metal_Only>
1

> <s_lp_Force_Field>
OPLS_2005

> <r_lp_Energy>
59.2957

> <b_lp_Chiralities_Consistent>
1

> <s_lp_Variant>
AV-unprocessed.smi:1794-5

> <Gold.Version>
5.8.1

> <Gold.Id.Protein>
6NUR|6NUR_protein|mol2

> <Gold.PLP.Fitness>
40.9967

> <Gold.PLP.PLP>
-29.6321

> <Gold.PLP.part.hbond>
-2.0000

> <Gold.PLP.part.metal>
0.0000

> <Gold.PLP.part.buried>
-4.0899

> <Gold.PLP.part.nonpolar>
-23.6084

> <Gold.PLP.part.repulsive>
0.2854

> <Gold.PLP.ligand.clash>
0.0000

> <Gold.PLP.ligand.torsion>
0.6222

> <Gold.PLP.Chemscore.Hbond>
4.0000

> <Gold.PLP.Chemscore.CHOScore>
0.0000

> <Gold.PLP.Chemscore.Metal>
0.0000

> <Gold.Chemscore.Hbonds>
donor molecule, donor type, donor heavy atom, donor atom, acceptor molecule, acceptor atom, score
      L1  H    13    55       P1  8028  1.52
      L1  H    20    54       P1  7948  2.00

> <Gold.PLP.Chemscore.Internal.Correction>
0.6089

> <Gold.Rescore>
     Score         DG    S(hbond)    S(metal)    S(lipo)     H(rot)  DE(clash)    DE(int)     intcor
     14.46     -16.59       1.96        0.00      74.07       1.60       0.02       2.10       ----

> <Gold.Chemscore.Fitness>
14.4607

> <Gold.Chemscore.DG>
-16.5879

> <Gold.Chemscore.ZeroCoef>
-5.4800

> <Gold.Chemscore.Hbond>
1.9609

> <Gold.Chemscore.Metal>
0.0000

> <Gold.Chemscore.Lipo>
74.0661

> <Gold.Chemscore.Internal_Hbond>
0.0000

> <Gold.Chemscore.DEClash>
0.0237

> <Gold.Chemscore.DEInternal>
2.1035

> <Gold.Chemscore.Rot>
1.6044

> <Gold.Chemscore.Internal.Correction>
   9.000000E+99

> <Gold.Chemscore.Hbonds>
donor molecule, donor type, donor heavy atom, donor atom, acceptor molecule, acceptor atom, score
      L1  H    13    55       P1  8028  0.73
      L1  H    20    54       P1  7948  0.98

> <Gold.Chemscore.Hbond.Weighted>
-6.5494

> <Gold.Chemscore.Metal.Weighted>
-0.0000

> <Gold.Chemscore.Lipo.Weighted>
-8.6657

> <Gold.Chemscore.Internal_Hbond.Weighted>
0.0000

> <Gold.Chemscore.DEClash.Weighted>
0.0237

> <Gold.Chemscore.DEInternal.Weighted>
2.1035

> <Gold.Chemscore.Rot.Weighted>
4.1072

> <Gold.Chemscore.Internal.Correction.Weighted>
   9.000000E+99

> <Gold.Protein.RotatedTorsions>
[ 6907 6896 6895 6894 ] final   50.64 input  -60.11 | X-H torsion
[ 7974 7965 7964 7962 ] final -155.98 input  175.53 | X-H torsion
[ 8008 7997 7996 7995 ] final   45.04 input   59.86 | X-H torsion
[ 10167 10162 10161 10158 ] final -129.57 input  -65.29 | X-H torsion
[ 10718 10713 10712 10709 ] final -101.97 input   66.30 | X-H torsion
[ 10763 10752 10751 10750 ] final  -83.66 input  -60.55 | X-H torsion
[ 11005 11000 10999 10996 ] final   26.36 input  -57.11 | X-H torsion

> <Gold.Protein.ActiveResidues>
 VAL166  LYS551  ARG553  GLY616  TRP617  ASP618  TYR619  PRO620  LYS621  CYS622 
 ASP623  PHE694  ASN695  SER759  ASP760  ASP761  ALA762  ILE779  LEU786  VAL792 
 PHE793  MET794  SER795  GLU796  ALA797  LYS798  CYS799  TRP800  GLU811  SER814 

> <Gold.Protein.RotatedAtoms>
  152.3040  134.7577  160.0351 H   0  0  0  0  0  0  0  0  0  0  0  0  # atno 6907 bound_to 6896
  151.8080  133.3373  159.3555 H   0  0  0  0  0  0  0  0  0  0  0  0  # atno 6908 bound_to 6896
  150.7287  134.5620  159.5891 H   0  0  0  0  0  0  0  0  0  0  0  0  # atno 6909 bound_to 6896
  144.7614  140.4173  143.5973 H   0  0  0  0  0  0  0  0  0  0  0  0  # atno 7974 bound_to 7965
  155.3292  140.3401  155.4240 H   0  0  0  0  0  0  0  0  0  0  0  0  # atno 8008 bound_to 7997
  156.1870  140.1684  156.8203 H   0  0  0  0  0  0  0  0  0  0  0  0  # atno 8009 bound_to 7997
  154.5398  140.0727  156.8473 H   0  0  0  0  0  0  0  0  0  0  0  0  # atno 8010 bound_to 7997
  139.9384  143.6191  152.2510 H   0  0  0  0  0  0  0  0  0  0  0  0  # atno 10167 bound_to 10162
  156.0212  130.5398  150.7040 H   0  0  0  0  0  0  0  0  0  0  0  0  # atno 10718 bound_to 10713
  154.5904  135.5548  153.7272 H   0  0  0  0  0  0  0  0  0  0  0  0  # atno 10763 bound_to 10752
  153.0114  135.6342  154.1857 H   0  0  0  0  0  0  0  0  0  0  0  0  # atno 10764 bound_to 10752
  154.1798  135.2887  155.3035 H   0  0  0  0  0  0  0  0  0  0  0  0  # atno 10765 bound_to 10752
  140.3379  134.2365  155.7693 H   0  0  0  0  0  0  0  0  0  0  0  0  # atno 11005 bound_to 11000
  145.6607  139.1581  143.2810 LP  0  0  0  0  0  0  0  0  0  0  0  0  # atno 17320 bound_to 7965
  146.1681  140.6687  142.9246 LP  0  0  0  0  0  0  0  0  0  0  0  0  # atno 17321 bound_to 7965
  139.6724  144.7660  151.1758 LP  0  0  0  0  0  0  0  0  0  0  0  0  # atno 17342 bound_to 10162
  140.7618  143.5845  150.8860 LP  0  0  0  0  0  0  0  0  0  0  0  0  # atno 17343 bound_to 10162
  157.4694  131.0891  151.0659 LP  0  0  0  0  0  0  0  0  0  0  0  0  # atno 17370 bound_to 10713
  157.1124  130.6027  149.5485 LP  0  0  0  0  0  0  0  0  0  0  0  0  # atno 17371 bound_to 10713
  141.2046  133.7881  157.0277 LP  0  0  0  0  0  0  0  0  0  0  0  0  # atno 17394 bound_to 11000
  140.0805  134.9650  157.1617 LP  0  0  0  0  0  0  0  0  0  0  0  0  # atno 17395 bound_to 11000

$$$$
