AV-unprocessed.smi:148|AV-procd|sdf|1216|dock8
  -GOLD-   2262018403D 1   1.00000     0.00000
 Structure written by MMmdl.
 63 67  0  0  0  0  0  0  0  0  1 V2000
  151.0145  140.4365  155.3724 O   0  0  0  0  0  0  0  0  0  0  0  0
  151.2238  141.5425  156.2254 C   0  0  0  0  0  0  0  0  0  0  0  0
  150.6432  141.2855  157.6364 C   0  0  2  0  0  0  0  0  0  0  0  0
  149.0958  141.1870  157.6040 C   0  0  0  0  0  0  0  0  0  0  0  0
  148.6232  139.8198  157.7286 N   0  0  0  0  0  0  0  0  0  0  0  0
  147.3709  139.3518  157.3994 C   0  0  0  0  0  0  0  0  0  0  0  0
  147.1760  138.0800  157.6193 N   0  0  0  0  0  0  0  0  0  0  0  0
  148.3876  137.6408  158.1371 C   0  0  0  0  0  0  0  0  0  0  0  0
  148.8609  136.3909  158.6131 C   0  0  0  0  0  0  0  0  0  0  0  0
  148.0721  135.2923  158.6405 N   0  0  0  0  0  0  0  0  0  0  0  0
  148.5783  134.2947  157.6975 C   0  0  0  0  0  0  0  0  0  0  0  0
  147.5967  133.1280  157.5351 C   0  0  0  0  0  0  0  0  0  0  0  0
  147.2851  132.5080  158.8998 C   0  0  0  0  0  0  0  0  0  0  0  0
  146.7399  133.5820  159.8502 C   0  0  0  0  0  0  0  0  0  0  0  0
  147.7053  134.7902  159.9786 C   0  0  2  0  0  0  0  0  0  0  0  0
  147.1600  135.9157  160.9158 C   0  0  1  0  0  0  0  0  0  0  0  0
  146.3010  137.0051  160.2435 C   0  0  0  0  0  0  0  0  0  0  0  0
  145.3267  137.5148  161.3183 C   0  0  0  0  0  0  0  0  0  0  0  0
  145.6633  136.7486  162.6013 C   0  0  0  0  0  0  0  0  0  0  0  0
  146.3141  135.4554  162.1120 C   0  0  2  0  0  0  0  0  0  0  0  0
  147.0986  134.8582  163.1236 O   0  0  0  0  0  0  0  0  0  0  0  0
  150.1445  136.3210  159.0565 N   0  0  0  0  0  0  0  0  0  0  0  0
  150.9116  137.4155  159.0491 C   0  0  0  0  0  0  0  0  0  0  0  0
  150.5997  138.6516  158.6522 N   0  0  0  0  0  0  0  0  0  0  0  0
  149.3144  138.7175  158.1993 C   0  0  0  0  0  0  0  0  0  0  0  0
  151.1716  142.3136  158.6746 C   0  0  2  0  0  0  0  0  0  0  0  0
  150.8690  143.7818  158.3703 C   0  0  0  0  0  0  0  0  0  0  0  0
  152.1942  144.5003  158.6316 C   0  0  0  0  0  0  0  0  0  0  0  0
  152.9308  143.6008  159.4450 O   0  0  0  0  0  0  0  0  0  0  0  0
  152.6817  142.3003  158.9396 C   0  0  0  0  0  0  0  0  0  0  0  0
  150.2286  139.9894  155.6476 H   0  0  0  0  0  0  0  0  0  0  0  0
  152.2900  141.7640  156.2777 H   0  0  0  0  0  0  0  0  0  0  0  0
  150.7455  142.3998  155.7529 H   0  0  0  0  0  0  0  0  0  0  0  0
  151.0139  140.3099  157.9557 H   0  0  0  0  0  0  0  0  0  0  0  0
  148.6433  141.7625  158.4103 H   0  0  0  0  0  0  0  0  0  0  0  0
  148.7011  141.6000  156.6761 H   0  0  0  0  0  0  0  0  0  0  0  0
  146.5984  139.9909  156.9967 H   0  0  0  0  0  0  0  0  0  0  0  0
  148.7542  134.7579  156.7253 H   0  0  0  0  0  0  0  0  0  0  0  0
  149.5402  133.9184  158.0490 H   0  0  0  0  0  0  0  0  0  0  0  0
  146.6760  133.4817  157.0691 H   0  0  0  0  0  0  0  0  0  0  0  0
  148.0170  132.3753  156.8676 H   0  0  0  0  0  0  0  0  0  0  0  0
  146.5614  131.6998  158.7902 H   0  0  0  0  0  0  0  0  0  0  0  0
  148.1888  132.0654  159.3207 H   0  0  0  0  0  0  0  0  0  0  0  0
  145.7657  133.9054  159.4853 H   0  0  0  0  0  0  0  0  0  0  0  0
  146.5685  133.1189  160.8206 H   0  0  0  0  0  0  0  0  0  0  0  0
  148.6224  134.4110  160.4318 H   0  0  0  0  0  0  0  0  0  0  0  0
  148.0121  136.4361  161.3563 H   0  0  0  0  0  0  0  0  0  0  0  0
  146.9260  137.8135  159.8641 H   0  0  0  0  0  0  0  0  0  0  0  0
  145.7369  136.6189  159.3959 H   0  0  0  0  0  0  0  0  0  0  0  0
  145.4045  138.5928  161.4634 H   0  0  0  0  0  0  0  0  0  0  0  0
  144.3013  137.2998  161.0150 H   0  0  0  0  0  0  0  0  0  0  0  0
  146.3776  137.3281  163.1887 H   0  0  0  0  0  0  0  0  0  0  0  0
  144.7882  136.5701  163.2269 H   0  0  0  0  0  0  0  0  0  0  0  0
  145.5278  134.7667  161.8067 H   0  0  0  0  0  0  0  0  0  0  0  0
  146.5963  134.8439  163.9239 H   0  0  0  0  0  0  0  0  0  0  0  0
  151.9178  137.2832  159.4186 H   0  0  0  0  0  0  0  0  0  0  0  0
  150.6878  142.1101  159.6307 H   0  0  0  0  0  0  0  0  0  0  0  0
  150.5162  143.9619  157.3555 H   0  0  0  0  0  0  0  0  0  0  0  0
  150.0961  144.1482  159.0468 H   0  0  0  0  0  0  0  0  0  0  0  0
  152.7331  144.6629  157.6970 H   0  0  0  0  0  0  0  0  0  0  0  0
  152.0606  145.4653  159.1207 H   0  0  0  0  0  0  0  0  0  0  0  0
  152.9749  141.5314  159.6546 H   0  0  0  0  0  0  0  0  0  0  0  0
  153.2666  142.1613  158.0307 H   0  0  0  0  0  0  0  0  0  0  0  0
  1  2  1  0  0  0  0
  1 31  1  0  0  0  0
  2  3  1  0  0  0  0
  2 32  1  0  0  0  0
  2 33  1  0  0  0  0
  3  4  1  0  0  0  0
  3 26  1  0  0  0  0
  3 34  1  0  0  0  0
  4  5  1  0  0  0  0
  4 35  1  0  0  0  0
  4 36  1  0  0  0  0
  5 25  1  0  0  0  0
  5  6  1  0  0  0  0
  6  7  2  0  0  0  0
  6 37  1  0  0  0  0
  7  8  1  0  0  0  0
  8 25  2  0  0  0  0
  8  9  1  0  0  0  0
  9 10  1  0  0  0  0
  9 22  2  0  0  0  0
 10 15  1  0  0  0  0
 10 11  1  0  0  0  0
 11 12  1  0  0  0  0
 11 38  1  0  0  0  0
 11 39  1  0  0  0  0
 12 13  1  0  0  0  0
 12 40  1  0  0  0  0
 12 41  1  0  0  0  0
 13 14  1  0  0  0  0
 13 42  1  0  0  0  0
 13 43  1  0  0  0  0
 14 15  1  0  0  0  0
 14 44  1  0  0  0  0
 14 45  1  0  0  0  0
 15 16  1  0  0  0  0
 15 46  1  0  0  0  0
 16 20  1  0  0  0  0
 16 17  1  0  0  0  0
 16 47  1  0  0  0  0
 17 18  1  0  0  0  0
 17 48  1  0  0  0  0
 17 49  1  0  0  0  0
 18 19  1  0  0  0  0
 18 50  1  0  0  0  0
 18 51  1  0  0  0  0
 19 20  1  0  0  0  0
 19 52  1  0  0  0  0
 19 53  1  0  0  0  0
 20 21  1  0  0  0  0
 20 54  1  0  0  0  0
 21 55  1  0  0  0  0
 22 23  1  0  0  0  0
 23 24  2  0  0  0  0
 23 56  1  0  0  0  0
 24 25  1  0  0  0  0
 26 30  1  0  0  0  0
 26 27  1  0  0  0  0
 26 57  1  0  0  0  0
 27 28  1  0  0  0  0
 27 58  1  0  0  0  0
 27 59  1  0  0  0  0
 28 29  1  0  0  0  0
 28 60  1  0  0  0  0
 28 61  1  0  0  0  0
 29 30  1  0  0  0  0
 30 62  1  0  0  0  0
 30 63  1  0  0  0  0
M  END
> <s_m_source_file>
AV-unprocessed.smi

> <i_m_source_file_index>
148

> <i_lp_mmshare_version>
43012

> <i_f3d_flags>
0

> <s_epik_input>
W0NIMl0xT1tDSDJdW0NIMl1bQ0BIXTFbQ0BIXShbQ0gyXVtPSF0pW0NIMl1uKFtjSF1uMiljKGMyMyluW2NIXW5jM040W0NIMl1bQ0gyXVtDSDJdW0NIMl1bQ0BIXTRbQ0BASF01W0NIMl1bQ0gyXVtDSDJdW0NASF01W09IXQ==

> <s_epik_cmdline>
J2VwaWtfcHl0aG9uJywgJy1waCcsICc3LjAnLCAnLXRuJywgJzgnLCAnLW1hJywgJzIwMCcsICctbWV0YWxfYmluZGluZycsICctaW1hZScsICc8aW5maWxlLm1hZT4nLCAnLW9tYWUnLCAnPG91dGZpbGUubWFlPic=

> <r_lp_tautomer_probability>
1

> <r_epik_Ionization_Penalty>
0.00556303

> <r_epik_Ionization_Penalty_Charging>
0

> <r_epik_Ionization_Penalty_Neutral>
0.00556303

> <r_epik_State_Penalty>
0.00401767

> <r_epik_Charging_Adjusted_Penalty>
0.00401767

> <i_epik_Tot_Q>
0

> <i_epik_Tot_abs_Q>
0

> <r_epik_Metal_State_Penalty>
-0

> <b_epik_Metal_Only>
0

> <s_lp_Force_Field>
OPLS_2005

> <r_lp_Energy>
68.7662

> <b_lp_Chiralities_Consistent>
1

> <s_lp_Variant>
AV-unprocessed.smi:148-15

> <Gold.Version>
5.8.1

> <Gold.Id.Protein>
6NUR|6NUR_protein|mol2

> <Gold.PLP.Fitness>
44.7174

> <Gold.PLP.PLP>
-41.7034

> <Gold.PLP.part.hbond>
-2.4655

> <Gold.PLP.part.metal>
0.0000

> <Gold.PLP.part.buried>
-9.3959

> <Gold.PLP.part.nonpolar>
-29.8263

> <Gold.PLP.part.repulsive>
0.0000

> <Gold.PLP.ligand.clash>
0.0000

> <Gold.PLP.ligand.torsion>
1.6890

> <Gold.PLP.Chemscore.Hbond>
1.9760

> <Gold.PLP.Chemscore.CHOScore>
0.0000

> <Gold.PLP.Chemscore.Metal>
0.0000

> <Gold.Chemscore.Hbonds>
donor molecule, donor type, donor heavy atom, donor atom, acceptor molecule, acceptor atom, score
      P1  H  6896  6908       L1    22  1.00
      P1  H  7989  7998       L1     1  0.98

> <Gold.PLP.Chemscore.Internal.Correction>
0.4640

> <Gold.Rescore>
     Score         DG    S(hbond)    S(metal)    S(lipo)     H(rot)  DE(clash)    DE(int)     intcor
     11.83     -14.63       1.78        0.00      99.93       3.32       0.09       2.71       ----

> <Gold.Chemscore.Fitness>
11.8282

> <Gold.Chemscore.DG>
-14.6263

> <Gold.Chemscore.ZeroCoef>
-5.4800

> <Gold.Chemscore.Hbond>
1.7829

> <Gold.Chemscore.Metal>
0.0000

> <Gold.Chemscore.Lipo>
99.9269

> <Gold.Chemscore.Internal_Hbond>
0.0000

> <Gold.Chemscore.DEClash>
0.0875

> <Gold.Chemscore.DEInternal>
2.7107

> <Gold.Chemscore.Rot>
3.3203

> <Gold.Chemscore.Internal.Correction>
   9.000000E+99

> <Gold.Chemscore.Hbonds>
donor molecule, donor type, donor heavy atom, donor atom, acceptor molecule, acceptor atom, score
      P1  H  6896  6908       L1    22  0.92
      P1  H  7989  7998       L1     1  0.66

> <Gold.Chemscore.Hbond.Weighted>
-5.9549

> <Gold.Chemscore.Metal.Weighted>
-0.0000

> <Gold.Chemscore.Lipo.Weighted>
-11.6914

> <Gold.Chemscore.Internal_Hbond.Weighted>
0.0000

> <Gold.Chemscore.DEClash.Weighted>
0.0875

> <Gold.Chemscore.DEInternal.Weighted>
2.7107

> <Gold.Chemscore.Rot.Weighted>
8.5000

> <Gold.Chemscore.Internal.Correction.Weighted>
   9.000000E+99

> <Gold.Protein.RotatedTorsions>
[ 6907 6896 6895 6894 ] final -168.93 input  -60.11 | X-H torsion
[ 7974 7965 7964 7962 ] final -139.38 input  175.53 | X-H torsion
[ 8008 7997 7996 7995 ] final -149.70 input   59.86 | X-H torsion
[ 10167 10162 10161 10158 ] final  -38.87 input  -65.29 | X-H torsion
[ 10718 10713 10712 10709 ] final  125.64 input   66.30 | X-H torsion
[ 10763 10752 10751 10750 ] final  -53.47 input  -60.55 | X-H torsion
[ 11005 11000 10999 10996 ] final  -68.31 input  -57.11 | X-H torsion

> <Gold.Protein.ActiveResidues>
 VAL166  LYS551  ARG553  GLY616  TRP617  ASP618  TYR619  PRO620  LYS621  CYS622 
 ASP623  PHE694  ASN695  SER759  ASP760  ASP761  ALA762  ILE779  LEU786  VAL792 
 PHE793  MET794  SER795  GLU796  ALA797  LYS798  CYS799  TRP800  GLU811  SER814 

> <Gold.Protein.RotatedAtoms>
  151.4834  133.3541  159.2841 H   0  0  0  0  0  0  0  0  0  0  0  0  # atno 6907 bound_to 6896
  150.8882  134.8284  159.7285 H   0  0  0  0  0  0  0  0  0  0  0  0  # atno 6908 bound_to 6896
  152.4806  134.4741  159.9696 H   0  0  0  0  0  0  0  0  0  0  0  0  # atno 6909 bound_to 6896
  144.8681  140.6325  143.5284 H   0  0  0  0  0  0  0  0  0  0  0  0  # atno 7974 bound_to 7965
  155.6119  140.0672  157.2703 H   0  0  0  0  0  0  0  0  0  0  0  0  # atno 8008 bound_to 7997
  154.4251  140.1800  156.1329 H   0  0  0  0  0  0  0  0  0  0  0  0  # atno 8009 bound_to 7997
  156.0078  140.3329  155.6913 H   0  0  0  0  0  0  0  0  0  0  0  0  # atno 8010 bound_to 7997
  140.7080  143.3250  151.2702 H   0  0  0  0  0  0  0  0  0  0  0  0  # atno 10167 bound_to 10162
  157.5486  131.1095  150.8740 H   0  0  0  0  0  0  0  0  0  0  0  0  # atno 10718 bound_to 10713
  154.1593  135.6477  153.4982 H   0  0  0  0  0  0  0  0  0  0  0  0  # atno 10763 bound_to 10752
  153.0115  135.5357  154.6727 H   0  0  0  0  0  0  0  0  0  0  0  0  # atno 10764 bound_to 10752
  154.6036  135.2946  155.0480 H   0  0  0  0  0  0  0  0  0  0  0  0  # atno 10765 bound_to 10752
  141.1529  133.6738  156.6426 H   0  0  0  0  0  0  0  0  0  0  0  0  # atno 11005 bound_to 11000
  145.4182  139.1568  143.4088 LP  0  0  0  0  0  0  0  0  0  0  0  0  # atno 17320 bound_to 7965
  146.2910  140.4291  142.8739 LP  0  0  0  0  0  0  0  0  0  0  0  0  # atno 17321 bound_to 7965
  139.6715  144.0012  152.2756 LP  0  0  0  0  0  0  0  0  0  0  0  0  # atno 17342 bound_to 10162
  139.9612  144.6556  150.8078 LP  0  0  0  0  0  0  0  0  0  0  0  0  # atno 17343 bound_to 10162
  156.9271  130.5336  149.5279 LP  0  0  0  0  0  0  0  0  0  0  0  0  # atno 17370 bound_to 10713
  156.0557  130.5619  150.9086 LP  0  0  0  0  0  0  0  0  0  0  0  0  # atno 17371 bound_to 10713
  140.3381  134.7872  157.4377 LP  0  0  0  0  0  0  0  0  0  0  0  0  # atno 17394 bound_to 11000
  140.0960  134.5536  155.8398 LP  0  0  0  0  0  0  0  0  0  0  0  0  # atno 17395 bound_to 11000

$$$$
