AV-unprocessed.smi:270|AV-procd|sdf|2046|dock10
  -GOLD-   2262021273D 1   1.00000     0.00000
 Structure written by MMmdl.
 54 57  0  0  0  0  0  0  0  0  1 V2000
  146.0484  135.1090  151.2304 C   0  0  0  0  0  0  0  0  0  0  0  0
  145.2587  133.8509  151.6319 C   0  0  1  0  0  0  0  0  0  0  0  0
  143.9693  133.8680  151.0214 O   0  0  0  0  0  0  0  0  0  0  0  0
  143.8347  132.7584  150.1473 C   0  0  0  0  0  0  0  0  0  0  0  0
  144.7048  131.6852  150.7863 C   0  0  0  0  0  0  0  0  0  0  0  0
  145.9012  132.4820  151.2861 C   0  0  1  0  0  0  0  0  0  0  0  0
  146.8230  132.6093  150.2151 O   0  0  0  0  0  0  0  0  0  0  0  0
  146.6152  131.7887  152.4714 C   0  0  0  0  0  0  0  0  0  0  0  0
  147.6058  132.6295  153.1246 N   0  0  0  0  0  0  0  0  0  0  0  0
  148.9739  132.4945  153.0586 C   0  0  0  0  0  0  0  0  0  0  0  0
  149.6527  133.3733  153.7431 N   0  0  0  0  0  0  0  0  0  0  0  0
  148.6816  134.1847  154.3187 C   0  0  0  0  0  0  0  0  0  0  0  0
  148.7311  135.3228  155.1754 C   0  0  0  0  0  0  0  0  0  0  0  0
  149.9406  135.9091  155.6496 N   0  0  0  0  0  0  0  0  0  0  0  0
  150.2272  137.2509  155.1629 C   0  0  0  0  0  0  0  0  0  0  0  0
  151.6711  136.7857  154.9511 C   0  0  0  0  0  0  0  0  0  0  0  0
  152.5675  137.2166  155.9637 O   0  0  0  0  0  0  0  0  0  0  0  0
  152.9186  138.5857  155.8373 C   0  0  0  0  0  0  0  0  0  0  0  0
  153.5228  139.0680  157.1610 C   0  0  0  0  0  0  0  0  0  0  0  0
  154.5049  138.4711  157.6045 O   0  0  0  0  0  0  0  0  0  0  0  0
  152.9725  140.1320  157.7916 N   0  0  0  0  0  0  0  0  0  0  0  0
  153.5141  140.7006  159.0292 C   0  0  0  0  0  0  0  0  0  0  0  0
  151.7883  140.7972  157.2421 C   0  0  0  0  0  0  0  0  0  0  0  0
  151.1986  135.3479  155.1702 C   0  0  0  0  0  0  0  0  0  0  0  0
  147.5344  135.8814  155.5016 N   0  0  0  0  0  0  0  0  0  0  0  0
  146.3850  135.3604  155.0626 C   0  0  0  0  0  0  0  0  0  0  0  0
  146.1972  134.2965  154.2816 N   0  0  0  0  0  0  0  0  0  0  0  0
  147.3875  133.7360  153.9269 C   0  0  0  0  0  0  0  0  0  0  0  0
  147.0437  135.1122  151.6747 H   0  0  0  0  0  0  0  0  0  0  0  0
  145.5344  136.0096  151.5662 H   0  0  0  0  0  0  0  0  0  0  0  0
  146.1624  135.1832  150.1487 H   0  0  0  0  0  0  0  0  0  0  0  0
  145.0683  133.8946  152.7045 H   0  0  0  0  0  0  0  0  0  0  0  0
  142.7932  132.4532  150.0447 H   0  0  0  0  0  0  0  0  0  0  0  0
  144.2131  133.0282  149.1603 H   0  0  0  0  0  0  0  0  0  0  0  0
  144.1656  131.2435  151.6257 H   0  0  0  0  0  0  0  0  0  0  0  0
  144.9678  130.8800  150.0990 H   0  0  0  0  0  0  0  0  0  0  0  0
  147.3732  131.8412  150.1983 H   0  0  0  0  0  0  0  0  0  0  0  0
  145.8861  131.4842  153.2233 H   0  0  0  0  0  0  0  0  0  0  0  0
  147.1053  130.8736  152.1362 H   0  0  0  0  0  0  0  0  0  0  0  0
  149.4570  131.7137  152.4893 H   0  0  0  0  0  0  0  0  0  0  0  0
  149.7183  137.4941  154.2289 H   0  0  0  0  0  0  0  0  0  0  0  0
  150.0988  138.0212  155.9236 H   0  0  0  0  0  0  0  0  0  0  0  0
  152.0437  136.9513  153.9389 H   0  0  0  0  0  0  0  0  0  0  0  0
  153.6539  138.7035  155.0394 H   0  0  0  0  0  0  0  0  0  0  0  0
  152.0574  139.1984  155.5681 H   0  0  0  0  0  0  0  0  0  0  0  0
  153.3941  140.0019  159.8577 H   0  0  0  0  0  0  0  0  0  0  0  0
  153.0170  141.6288  159.3118 H   0  0  0  0  0  0  0  0  0  0  0  0
  154.5738  140.9350  158.9261 H   0  0  0  0  0  0  0  0  0  0  0  0
  152.0695  141.4308  156.4005 H   0  0  0  0  0  0  0  0  0  0  0  0
  151.2841  141.4232  157.9787 H   0  0  0  0  0  0  0  0  0  0  0  0
  151.0511  140.0733  156.8909 H   0  0  0  0  0  0  0  0  0  0  0  0
  151.7509  134.8031  155.9362 H   0  0  0  0  0  0  0  0  0  0  0  0
  151.1176  134.7904  154.2359 H   0  0  0  0  0  0  0  0  0  0  0  0
  145.4884  135.8701  155.3833 H   0  0  0  0  0  0  0  0  0  0  0  0
  1  2  1  0  0  0  0
  1 29  1  0  0  0  0
  1 30  1  0  0  0  0
  1 31  1  0  0  0  0
  2  6  1  0  0  0  0
  2  3  1  0  0  0  0
  2 32  1  0  0  0  0
  3  4  1  0  0  0  0
  4  5  1  0  0  0  0
  4 33  1  0  0  0  0
  4 34  1  0  0  0  0
  5  6  1  0  0  0  0
  5 35  1  0  0  0  0
  5 36  1  0  0  0  0
  6  7  1  0  0  0  0
  6  8  1  0  0  0  0
  7 37  1  0  0  0  0
  8  9  1  0  0  0  0
  8 38  1  0  0  0  0
  8 39  1  0  0  0  0
  9 28  1  0  0  0  0
  9 10  1  0  0  0  0
 10 11  2  0  0  0  0
 10 40  1  0  0  0  0
 11 12  1  0  0  0  0
 12 28  2  0  0  0  0
 12 13  1  0  0  0  0
 13 14  1  0  0  0  0
 13 25  2  0  0  0  0
 14 24  1  0  0  0  0
 14 15  1  0  0  0  0
 15 16  1  0  0  0  0
 15 41  1  0  0  0  0
 15 42  1  0  0  0  0
 16 17  1  0  0  0  0
 16 24  1  0  0  0  0
 16 43  1  0  0  0  0
 17 18  1  0  0  0  0
 18 19  1  0  0  0  0
 18 44  1  0  0  0  0
 18 45  1  0  0  0  0
 19 20  2  0  0  0  0
 19 21  1  0  0  0  0
 21 22  1  0  0  0  0
 21 23  1  0  0  0  0
 22 46  1  0  0  0  0
 22 47  1  0  0  0  0
 22 48  1  0  0  0  0
 23 49  1  0  0  0  0
 23 50  1  0  0  0  0
 23 51  1  0  0  0  0
 24 52  1  0  0  0  0
 24 53  1  0  0  0  0
 25 26  1  0  0  0  0
 26 27  2  0  0  0  0
 26 54  1  0  0  0  0
 27 28  1  0  0  0  0
M  END
> <s_m_source_file>
AV-unprocessed.smi

> <i_m_source_file_index>
270

> <i_lp_mmshare_version>
43012

> <i_f3d_flags>
0

> <s_epik_input>
W0NIMl0xW0NIMl1PW0NAQEhdKFtDSDNdKVtDQEBdMShbT0hdKVtDSDJdbihbY0hdbjIpYyhjMjMpbltjSF1uYzNONFtDSDJdW0NIXShbQ0gyXTQpT1tDSDJdQyg9TylOKFtDSDNdKVtDSDNd

> <s_epik_cmdline>
J2VwaWtfcHl0aG9uJywgJy1waCcsICc3LjAnLCAnLXRuJywgJzgnLCAnLW1hJywgJzIwMCcsICctbWV0YWxfYmluZGluZycsICctaW1hZScsICc8aW5maWxlLm1hZT4nLCAnLW9tYWUnLCAnPG91dGZpbGUubWFlPic=

> <r_lp_tautomer_probability>
1

> <r_epik_Ionization_Penalty>
0.00375854

> <r_epik_Ionization_Penalty_Charging>
0

> <r_epik_Ionization_Penalty_Neutral>
0.00375854

> <r_epik_State_Penalty>
-0

> <r_epik_Charging_Adjusted_Penalty>
0

> <i_epik_Tot_Q>
0

> <i_epik_Tot_abs_Q>
0

> <r_epik_Metal_State_Penalty>
-0

> <b_epik_Metal_Only>
0

> <s_lp_Force_Field>
OPLS_2005

> <r_lp_Energy>
55.1289

> <b_lp_Chiralities_Consistent>
1

> <s_lp_Variant>
AV-unprocessed.smi:270-2

> <Gold.Version>
5.8.1

> <Gold.Id.Protein>
6NUR|6NUR_protein|mol2

> <Gold.PLP.Fitness>
47.5929

> <Gold.PLP.PLP>
-39.0515

> <Gold.PLP.part.hbond>
-2.0460

> <Gold.PLP.part.metal>
0.0000

> <Gold.PLP.part.buried>
-7.0602

> <Gold.PLP.part.nonpolar>
-31.1755

> <Gold.PLP.part.repulsive>
0.5638

> <Gold.PLP.ligand.clash>
0.0000

> <Gold.PLP.ligand.torsion>
0.3955

> <Gold.PLP.Chemscore.Hbond>
2.0000

> <Gold.PLP.Chemscore.CHOScore>
1.0000

> <Gold.PLP.Chemscore.Metal>
0.0000

> <Gold.Chemscore.Hbonds>
donor molecule, donor type, donor heavy atom, donor atom, acceptor molecule, acceptor atom, score
      L1  H     7    37       P1 10747  1.00
      L1  C    10    40       P1 10747  0.97

> <Gold.PLP.Chemscore.Internal.Correction>
0.3323

> <Gold.Rescore>
     Score         DG    S(hbond)    S(metal)    S(lipo)     H(rot)  DE(clash)    DE(int)     intcor
     10.64     -13.51       1.97        0.00      80.78       3.12       0.00       2.87       ----

> <Gold.Chemscore.Fitness>
10.6388

> <Gold.Chemscore.DG>
-13.5130

> <Gold.Chemscore.ZeroCoef>
-5.4800

> <Gold.Chemscore.Hbond>
1.9692

> <Gold.Chemscore.Metal>
0.0000

> <Gold.Chemscore.Lipo>
80.7822

> <Gold.Chemscore.Internal_Hbond>
0.0000

> <Gold.Chemscore.DEClash>
0.0009

> <Gold.Chemscore.DEInternal>
2.8733

> <Gold.Chemscore.Rot>
3.1234

> <Gold.Chemscore.Internal.Correction>
   9.000000E+99

> <Gold.Chemscore.Hbonds>
donor molecule, donor type, donor heavy atom, donor atom, acceptor molecule, acceptor atom, score
      L1  H     7    37       P1 10747  0.99

> <Gold.Chemscore.Hbond.Weighted>
-6.5773

> <Gold.Chemscore.Metal.Weighted>
-0.0000

> <Gold.Chemscore.Lipo.Weighted>
-9.4515

> <Gold.Chemscore.Internal_Hbond.Weighted>
0.0000

> <Gold.Chemscore.DEClash.Weighted>
0.0009

> <Gold.Chemscore.DEInternal.Weighted>
2.8733

> <Gold.Chemscore.Rot.Weighted>
7.9959

> <Gold.Chemscore.Internal.Correction.Weighted>
   9.000000E+99

> <Gold.Protein.RotatedTorsions>
[ 6907 6896 6895 6894 ] final -106.90 input  -60.11 | X-H torsion
[ 7974 7965 7964 7962 ] final   -8.76 input  175.53 | X-H torsion
[ 8008 7997 7996 7995 ] final  132.42 input   59.86 | X-H torsion
[ 10167 10162 10161 10158 ] final  -74.30 input  -65.29 | X-H torsion
[ 10718 10713 10712 10709 ] final   60.49 input   66.30 | X-H torsion
[ 10763 10752 10751 10750 ] final  174.11 input  -60.55 | X-H torsion
[ 11005 11000 10999 10996 ] final  -39.63 input  -57.11 | X-H torsion

> <Gold.Protein.ActiveResidues>
 VAL166  LYS551  ARG553  GLY616  TRP617  ASP618  TYR619  PRO620  LYS621  CYS622 
 ASP623  PHE694  ASN695  SER759  ASP760  ASP761  ALA762  ILE779  LEU786  VAL792 
 PHE793  MET794  SER795  GLU796  ALA797  LYS798  CYS799  TRP800  GLU811  SER814 

> <Gold.Protein.RotatedAtoms>
  150.7414  133.9907  159.3606 H   0  0  0  0  0  0  0  0  0  0  0  0  # atno 6907 bound_to 6896
  151.7855  135.0748  160.0389 H   0  0  0  0  0  0  0  0  0  0  0  0  # atno 6908 bound_to 6896
  152.3244  133.5852  159.5803 H   0  0  0  0  0  0  0  0  0  0  0  0  # atno 6909 bound_to 6896
  146.2271  140.2516  142.8347 H   0  0  0  0  0  0  0  0  0  0  0  0  # atno 7974 bound_to 7965
  156.2982  140.2547  156.3087 H   0  0  0  0  0  0  0  0  0  0  0  0  # atno 8008 bound_to 7997
  154.9348  140.0397  157.2085 H   0  0  0  0  0  0  0  0  0  0  0  0  # atno 8009 bound_to 7997
  154.8184  140.2856  155.5808 H   0  0  0  0  0  0  0  0  0  0  0  0  # atno 8010 bound_to 7997
  140.5038  143.2356  151.7708 H   0  0  0  0  0  0  0  0  0  0  0  0  # atno 10167 bound_to 10162
  157.5757  130.8942  149.9342 H   0  0  0  0  0  0  0  0  0  0  0  0  # atno 10718 bound_to 10713
  154.4493  135.2764  155.1792 H   0  0  0  0  0  0  0  0  0  0  0  0  # atno 10763 bound_to 10752
  154.3626  135.6126  153.5702 H   0  0  0  0  0  0  0  0  0  0  0  0  # atno 10764 bound_to 10752
  152.9846  135.5838  154.4835 H   0  0  0  0  0  0  0  0  0  0  0  0  # atno 10765 bound_to 10752
  141.0116  133.6905  156.2212 H   0  0  0  0  0  0  0  0  0  0  0  0  # atno 11005 bound_to 11000
  144.9407  140.8075  143.5632 LP  0  0  0  0  0  0  0  0  0  0  0  0  # atno 17320 bound_to 7965
  145.2467  139.2049  143.4964 LP  0  0  0  0  0  0  0  0  0  0  0  0  # atno 17321 bound_to 7965
  139.4878  144.4485  151.9681 LP  0  0  0  0  0  0  0  0  0  0  0  0  # atno 17342 bound_to 10162
  140.3575  144.3013  150.5939 LP  0  0  0  0  0  0  0  0  0  0  0  0  # atno 17343 bound_to 10162
  156.0801  130.3674  150.0597 LP  0  0  0  0  0  0  0  0  0  0  0  0  # atno 17370 bound_to 10713
  156.8744  130.9535  151.3606 LP  0  0  0  0  0  0  0  0  0  0  0  0  # atno 17371 bound_to 10713
  140.6724  134.4853  157.5587 LP  0  0  0  0  0  0  0  0  0  0  0  0  # atno 17394 bound_to 11000
  139.9093  134.8380  156.1588 LP  0  0  0  0  0  0  0  0  0  0  0  0  # atno 17395 bound_to 11000

$$$$
