AV-unprocessed.smi:1626|AV-procd|sdf|6509|dock5
  -GOLD-   22720 7173D 1   1.00000     0.00000
 Structure written by MMmdl.
 48 50  0  0  0  0  0  0  0  0  2 V2000
  152.1893  142.4069  161.2839 C   0  0  0  0  0  0  0  0  0  0  0  0
  152.0696  141.7180  159.9361 C   0  0  0  0  0  0  0  0  0  0  0  0
  151.1303  142.2024  158.9980 C   0  0  0  0  0  0  0  0  0  0  0  0
  150.9898  141.5918  157.7328 C   0  0  0  0  0  0  0  0  0  0  0  0
  150.1490  141.8959  156.6759 N   0  0  0  0  0  0  0  0  0  0  0  0
  150.4938  140.9720  155.7840 C   0  0  0  0  0  0  0  0  0  0  0  0
  151.4550  140.0984  156.1419 N   0  0  0  0  0  0  0  0  0  0  0  0
  151.9916  139.0087  155.3465 C   0  0  0  0  0  0  0  0  0  0  0  0
  150.9249  138.3544  154.4472 C   0  0  1  0  0  0  0  0  0  0  0  0
  151.4133  137.1155  153.9685 O   0  0  0  0  0  0  0  0  0  0  0  0
  149.6113  138.1032  155.2136 C   0  0  0  0  0  0  0  0  0  0  0  0
  148.4407  137.9611  154.3097 N   0  3  2  0  0  0  0  0  0  0  0  0
  147.9546  139.2571  153.7658 C   0  0  0  0  0  0  0  0  0  0  0  0
  146.8388  139.0429  152.7261 C   0  0  0  0  0  0  0  0  0  0  0  0
  145.6778  138.2075  153.2910 C   0  0  2  0  0  0  0  0  0  0  0  0
  144.9604  138.9558  154.2521 O   0  0  0  0  0  0  0  0  0  0  0  0
  146.2097  136.9106  153.9229 C   0  0  0  0  0  0  0  0  0  0  0  0
  147.3387  137.1837  154.9326 C   0  0  0  0  0  0  0  0  0  0  0  0
  151.8200  140.4731  157.4301 C   0  0  0  0  0  0  0  0  0  0  0  0
  152.7573  139.9807  158.3551 C   0  0  0  0  0  0  0  0  0  0  0  0
  152.8856  140.6036  159.6143 C   0  0  0  0  0  0  0  0  0  0  0  0
  153.9018  140.0666  160.6067 C   0  0  0  0  0  0  0  0  0  0  0  0
  151.5017  143.2494  161.3635 H   0  0  0  0  0  0  0  0  0  0  0  0
  153.2008  142.7865  161.4308 H   0  0  0  0  0  0  0  0  0  0  0  0
  151.9596  141.7103  162.0905 H   0  0  0  0  0  0  0  0  0  0  0  0
  150.5084  143.0511  159.2429 H   0  0  0  0  0  0  0  0  0  0  0  0
  150.0166  140.9240  154.8160 H   0  0  0  0  0  0  0  0  0  0  0  0
  152.8187  139.3901  154.7457 H   0  0  0  0  0  0  0  0  0  0  0  0
  152.4162  138.2693  156.0269 H   0  0  0  0  0  0  0  0  0  0  0  0
  150.7481  139.0037  153.5902 H   0  0  0  0  0  0  0  0  0  0  0  0
  151.0360  136.9532  153.1166 H   0  0  0  0  0  0  0  0  0  0  0  0
  149.7308  137.1954  155.8076 H   0  0  0  0  0  0  0  0  0  0  0  0
  149.4213  138.9074  155.9262 H   0  0  0  0  0  0  0  0  0  0  0  0
  147.5928  139.8827  154.5833 H   0  0  0  0  0  0  0  0  0  0  0  0
  148.7717  139.8021  153.2950 H   0  0  0  0  0  0  0  0  0  0  0  0
  146.4727  140.0042  152.3630 H   0  0  0  0  0  0  0  0  0  0  0  0
  147.2573  138.5310  151.8584 H   0  0  0  0  0  0  0  0  0  0  0  0
  144.9819  137.9603  152.4885 H   0  0  0  0  0  0  0  0  0  0  0  0
  144.2944  139.4588  153.8081 H   0  0  0  0  0  0  0  0  0  0  0  0
  145.3985  136.3628  154.4041 H   0  0  0  0  0  0  0  0  0  0  0  0
  146.5894  136.2589  153.1347 H   0  0  0  0  0  0  0  0  0  0  0  0
  147.7210  136.2306  155.3000 H   0  0  0  0  0  0  0  0  0  0  0  0
  146.9534  137.7244  155.7986 H   0  0  0  0  0  0  0  0  0  0  0  0
  153.3730  139.1319  158.0972 H   0  0  0  0  0  0  0  0  0  0  0  0
  154.4366  139.2060  160.2037 H   0  0  0  0  0  0  0  0  0  0  0  0
  153.4084  139.7528  161.5267 H   0  0  0  0  0  0  0  0  0  0  0  0
  154.6379  140.8326  160.8518 H   0  0  0  0  0  0  0  0  0  0  0  0
  148.7618  137.4107  153.5256 H   0  0  0  0  0  0  0  0  0  0  0  0
  1  2  1  0  0  0  0
  1 23  1  0  0  0  0
  1 24  1  0  0  0  0
  1 25  1  0  0  0  0
  2 21  1  0  0  0  0
  2  3  2  0  0  0  0
  3  4  1  0  0  0  0
  3 26  1  0  0  0  0
  4 19  2  0  0  0  0
  4  5  1  0  0  0  0
  5  6  2  0  0  0  0
  6  7  1  0  0  0  0
  6 27  1  0  0  0  0
  7  8  1  0  0  0  0
  7 19  1  0  0  0  0
  8  9  1  0  0  0  0
  8 28  1  0  0  0  0
  8 29  1  0  0  0  0
  9 10  1  0  0  0  0
  9 11  1  0  0  0  0
  9 30  1  0  0  0  0
 10 31  1  0  0  0  0
 11 12  1  0  0  0  0
 11 32  1  0  0  0  0
 11 33  1  0  0  0  0
 12 18  1  0  0  0  0
 12 13  1  0  0  0  0
 12 48  1  0  0  0  0
 13 14  1  0  0  0  0
 13 34  1  0  0  0  0
 13 35  1  0  0  0  0
 14 15  1  0  0  0  0
 14 36  1  0  0  0  0
 14 37  1  0  0  0  0
 15 16  1  0  0  0  0
 15 17  1  0  0  0  0
 15 38  1  0  0  0  0
 16 39  1  0  0  0  0
 17 18  1  0  0  0  0
 17 40  1  0  0  0  0
 17 41  1  0  0  0  0
 18 42  1  0  0  0  0
 18 43  1  0  0  0  0
 19 20  1  0  0  0  0
 20 21  2  0  0  0  0
 20 44  1  0  0  0  0
 21 22  1  0  0  0  0
 22 45  1  0  0  0  0
 22 46  1  0  0  0  0
 22 47  1  0  0  0  0
M  CHG  1  12   1
M  END
> <s_m_source_file>
AV-unprocessed.smi

> <i_m_source_file_index>
1626

> <i_lp_mmshare_version>
43012

> <i_f3d_flags>
0

> <s_epik_input>
W0NIM11jKFtjSF0xKWMoW0NIM10pW2NIXWMoYzEyKW4oW2NIXW4yKVtDSDJdW0NASF0oW09IXSlbQ0gyXU4zW0NIMl1bQ0gyXVtDSF0oW09IXSlbQ0gyXVtDSDJdMw==

> <s_epik_cmdline>
J2VwaWtfcHl0aG9uJywgJy1waCcsICc3LjAnLCAnLXRuJywgJzgnLCAnLW1hJywgJzIwMCcsICctbWV0YWxfYmluZGluZycsICctaW1hZScsICc8aW5maWxlLm1hZT4nLCAnLW9tYWUnLCAnPG91dGZpbGUubWFlPic=

> <r_epik_Ionization_Penalty>
0.106584

> <r_epik_Ionization_Penalty_Charging>
0.0185694

> <r_epik_Ionization_Penalty_Neutral>
0.0880147

> <r_epik_State_Penalty>
0.0908428

> <r_epik_Charging_Adjusted_Penalty>
0.109412

> <i_epik_Tot_Q>
1

> <i_epik_Tot_abs_Q>
1

> <r_epik_Metal_State_Penalty>
0.0153739

> <b_epik_Metal_Only>
0

> <s_lp_Force_Field>
OPLS_2005

> <r_lp_Energy>
22.63

> <b_lp_Chiralities_Consistent>
1

> <s_lp_Variant>
AV-unprocessed.smi:1626-4

> <Gold.Version>
5.8.1

> <Gold.Id.Protein>
6NUR|6NUR_protein|mol2

> <Gold.PLP.Fitness>
53.6872

> <Gold.PLP.PLP>
-40.3619

> <Gold.PLP.part.hbond>
-4.0000

> <Gold.PLP.part.metal>
0.0000

> <Gold.PLP.part.buried>
-2.7081

> <Gold.PLP.part.nonpolar>
-33.7630

> <Gold.PLP.part.repulsive>
0.3535

> <Gold.PLP.ligand.clash>
0.0000

> <Gold.PLP.ligand.torsion>
0.8654

> <Gold.PLP.Chemscore.Hbond>
5.0000

> <Gold.PLP.Chemscore.CHOScore>
0.0000

> <Gold.PLP.Chemscore.Metal>
0.0000

> <Gold.Chemscore.Hbonds>
donor molecule, donor type, donor heavy atom, donor atom, acceptor molecule, acceptor atom, score
      L1  H    10    31       P1  7949  0.93
      L1  H    12    48       P1  7948  1.98
      L1  H    16    39       P1 10175  1.00
      P1  H 10752 10763       L1    10  0.56

> <Gold.PLP.Chemscore.Internal.Correction>
0.0563

> <Gold.Rescore>
     Score         DG    S(hbond)    S(metal)    S(lipo)     H(rot)  DE(clash)    DE(int)     intcor
     20.53     -22.55       3.57        0.00     102.51       2.67       0.36       1.66       ----

> <Gold.Chemscore.Fitness>
20.5313

> <Gold.Chemscore.DG>
-22.5525

> <Gold.Chemscore.ZeroCoef>
-5.4800

> <Gold.Chemscore.Hbond>
3.5680

> <Gold.Chemscore.Metal>
0.0000

> <Gold.Chemscore.Lipo>
102.5103

> <Gold.Chemscore.Internal_Hbond>
0.0000

> <Gold.Chemscore.DEClash>
0.3635

> <Gold.Chemscore.DEInternal>
1.6576

> <Gold.Chemscore.Rot>
2.6712

> <Gold.Chemscore.Internal.Correction>
   9.000000E+99

> <Gold.Chemscore.Hbonds>
donor molecule, donor type, donor heavy atom, donor atom, acceptor molecule, acceptor atom, score
      L1  H    10    31       P1  7949  0.27
      L1  H    12    48       P1  7948  0.92
      L1  H    16    39       P1 10175  0.98
      P1  H 10752 10763       L1    10  0.43

> <Gold.Chemscore.Hbond.Weighted>
-11.9171

> <Gold.Chemscore.Metal.Weighted>
-0.0000

> <Gold.Chemscore.Lipo.Weighted>
-11.9937

> <Gold.Chemscore.Internal_Hbond.Weighted>
0.0000

> <Gold.Chemscore.DEClash.Weighted>
0.3635

> <Gold.Chemscore.DEInternal.Weighted>
1.6576

> <Gold.Chemscore.Rot.Weighted>
6.8383

> <Gold.Chemscore.Internal.Correction.Weighted>
   9.000000E+99

> <Gold.Protein.RotatedTorsions>
[ 6907 6896 6895 6894 ] final   91.34 input  -60.11 | X-H torsion
[ 7974 7965 7964 7962 ] final -173.52 input  175.53 | X-H torsion
[ 8008 7997 7996 7995 ] final   92.27 input   59.86 | X-H torsion
[ 10167 10162 10161 10158 ] final   48.97 input  -65.29 | X-H torsion
[ 10718 10713 10712 10709 ] final   67.29 input   66.30 | X-H torsion
[ 10763 10752 10751 10750 ] final   56.21 input  -60.55 | X-H torsion
[ 11005 11000 10999 10996 ] final   10.56 input  -57.11 | X-H torsion

> <Gold.Protein.ActiveResidues>
 VAL166  LYS551  ARG553  GLY616  TRP617  ASP618  TYR619  PRO620  LYS621  CYS622 
 ASP623  PHE694  ASN695  SER759  ASP760  ASP761  ALA762  ILE779  LEU786  VAL792 
 PHE793  MET794  SER795  GLU796  ALA797  LYS798  CYS799  TRP800  GLU811  SER814 

> <Gold.Protein.RotatedAtoms>
  152.5449  134.1672  159.8581 H   0  0  0  0  0  0  0  0  0  0  0  0  # atno 6907 bound_to 6896
  151.1685  133.4792  159.2601 H   0  0  0  0  0  0  0  0  0  0  0  0  # atno 6908 bound_to 6896
  151.1299  135.0136  159.8633 H   0  0  0  0  0  0  0  0  0  0  0  0  # atno 6909 bound_to 6896
  144.7137  140.1609  143.6376 H   0  0  0  0  0  0  0  0  0  0  0  0  # atno 7974 bound_to 7965
  156.0335  140.3327  155.7165 H   0  0  0  0  0  0  0  0  0  0  0  0  # atno 8008 bound_to 7997
  155.5850  140.0640  157.2791 H   0  0  0  0  0  0  0  0  0  0  0  0  # atno 8009 bound_to 7997
  154.4363  140.1837  156.1004 H   0  0  0  0  0  0  0  0  0  0  0  0  # atno 8010 bound_to 7997
  140.2878  144.3082  150.6248 H   0  0  0  0  0  0  0  0  0  0  0  0  # atno 10167 bound_to 10162
  157.6221  130.9313  150.0223 H   0  0  0  0  0  0  0  0  0  0  0  0  # atno 10718 bound_to 10713
  152.9828  135.5684  154.5191 H   0  0  0  0  0  0  0  0  0  0  0  0  # atno 10763 bound_to 10752
  154.4682  135.2784  155.1664 H   0  0  0  0  0  0  0  0  0  0  0  0  # atno 10764 bound_to 10752
  154.3223  135.6266  153.5567 H   0  0  0  0  0  0  0  0  0  0  0  0  # atno 10765 bound_to 10752
  140.5131  134.0633  155.7823 H   0  0  0  0  0  0  0  0  0  0  0  0  # atno 11005 bound_to 11000
  145.9031  139.2442  143.1482 LP  0  0  0  0  0  0  0  0  0  0  0  0  # atno 17320 bound_to 7965
  145.9791  140.8697  143.0123 LP  0  0  0  0  0  0  0  0  0  0  0  0  # atno 17321 bound_to 7965
  140.5758  143.2176  151.7518 LP  0  0  0  0  0  0  0  0  0  0  0  0  # atno 17342 bound_to 10162
  139.4946  144.4152  152.0038 LP  0  0  0  0  0  0  0  0  0  0  0  0  # atno 17343 bound_to 10162
  156.1373  130.3642  149.9637 LP  0  0  0  0  0  0  0  0  0  0  0  0  # atno 17370 bound_to 10713
  156.7686  130.9177  151.3643 LP  0  0  0  0  0  0  0  0  0  0  0  0  # atno 17371 bound_to 10713
  141.1375  133.9196  157.2401 LP  0  0  0  0  0  0  0  0  0  0  0  0  # atno 17394 bound_to 11000
  139.9648  135.0145  156.9357 LP  0  0  0  0  0  0  0  0  0  0  0  0  # atno 17395 bound_to 11000

$$$$
