AV-unprocessed.smi:2954|AV-procd|sdf|11299|dock7
  -GOLD-   2272016193D 1   1.00000     0.00000
 Structure written by MMmdl.
 43 45  0  0  0  0  0  0  0  0  2 V2000
  147.1610  128.1039  151.8464 C   0  0  0  0  0  0  0  0  0  0  0  0
  146.7473  129.0914  152.9459 C   0  0  2  0  0  0  0  0  0  0  0  0
  145.7504  128.4747  153.8128 N   0  0  0  0  0  0  0  0  0  0  0  0
  145.9360  127.3219  154.4675 C   0  0  0  0  0  0  0  0  0  0  0  0
  146.9729  126.6680  154.3943 O   0  0  0  0  0  0  0  0  0  0  0  0
  146.2524  130.3733  152.3416 C   0  0  0  0  0  0  0  0  0  0  0  0
  145.3104  130.4799  151.3607 N   0  3  0  0  0  0  0  0  0  0  0  0
  145.1268  131.8198  151.0213 C   0  0  0  0  0  0  0  0  0  0  0  0
  144.2904  132.4142  150.0816 C   0  0  0  0  0  0  0  0  0  0  0  0
  144.3570  133.8185  149.9735 C   0  0  0  0  0  0  0  0  0  0  0  0
  145.2286  134.5760  150.7822 C   0  0  0  0  0  0  0  0  0  0  0  0
  146.0681  133.9620  151.7346 C   0  0  0  0  0  0  0  0  0  0  0  0
  145.9971  132.5722  151.8360 C   0  0  0  0  0  0  0  0  0  0  0  0
  146.6688  131.6395  152.6375 N   0  0  0  0  0  0  0  0  0  0  0  0
  147.6828  132.1102  153.5953 C   0  0  0  0  0  0  0  0  0  0  0  0
  148.9653  131.2689  153.5290 C   0  0  0  0  0  0  0  0  0  0  0  0
  149.8713  131.7323  154.5210 O   0  0  0  0  0  0  0  0  0  0  0  0
  150.9389  130.9333  154.8672 C   0  0  0  0  0  0  0  0  0  0  0  0
  151.1740  129.6479  154.3169 C   0  0  0  0  0  0  0  0  0  0  0  0
  152.2897  128.8911  154.7236 C   0  0  0  0  0  0  0  0  0  0  0  0
  153.1809  129.4055  155.6830 C   0  0  0  0  0  0  0  0  0  0  0  0
  152.9551  130.6790  156.2362 C   0  0  0  0  0  0  0  0  0  0  0  0
  151.8402  131.4386  155.8308 C   0  0  0  0  0  0  0  0  0  0  0  0
  151.5889  133.0037  156.5181 Cl  0  0  0  0  0  0  0  0  0  0  0  0
  147.9398  128.5279  151.2117 H   0  0  0  0  0  0  0  0  0  0  0  0
  146.3179  127.8414  151.2062 H   0  0  0  0  0  0  0  0  0  0  0  0
  147.5536  127.1811  152.2748 H   0  0  0  0  0  0  0  0  0  0  0  0
  147.6301  129.3026  153.5505 H   0  0  0  0  0  0  0  0  0  0  0  0
  144.8643  128.9480  153.9156 H   0  0  0  0  0  0  0  0  0  0  0  0
  145.0536  127.0412  155.0640 H   0  0  0  0  0  0  0  0  0  0  0  0
  143.6251  131.8355  149.4577 H   0  0  0  0  0  0  0  0  0  0  0  0
  143.7297  134.3244  149.2536 H   0  0  0  0  0  0  0  0  0  0  0  0
  145.2574  135.6501  150.6678 H   0  0  0  0  0  0  0  0  0  0  0  0
  146.7377  134.5546  152.3399 H   0  0  0  0  0  0  0  0  0  0  0  0
  147.8982  133.1614  153.4059 H   0  0  0  0  0  0  0  0  0  0  0  0
  147.2520  132.0697  154.5957 H   0  0  0  0  0  0  0  0  0  0  0  0
  148.7282  130.2167  153.6919 H   0  0  0  0  0  0  0  0  0  0  0  0
  149.4085  131.3659  152.5367 H   0  0  0  0  0  0  0  0  0  0  0  0
  150.5099  129.2181  153.5827 H   0  0  0  0  0  0  0  0  0  0  0  0
  152.4615  127.9128  154.2991 H   0  0  0  0  0  0  0  0  0  0  0  0
  154.0361  128.8240  155.9943 H   0  0  0  0  0  0  0  0  0  0  0  0
  153.6402  131.0742  156.9720 H   0  0  0  0  0  0  0  0  0  0  0  0
  144.8335  129.6874  150.9502 H   0  0  0  0  0  0  0  0  0  0  0  0
  1  2  1  0  0  0  0
  1 25  1  0  0  0  0
  1 26  1  0  0  0  0
  1 27  1  0  0  0  0
  2  3  1  0  0  0  0
  2  6  1  0  0  0  0
  2 28  1  0  0  0  0
  3  4  1  0  0  0  0
  3 29  1  0  0  0  0
  4  5  2  0  0  0  0
  4 30  1  0  0  0  0
  6 14  1  0  0  0  0
  6  7  2  0  0  0  0
  7  8  1  0  0  0  0
  7 43  1  0  0  0  0
  8 13  2  0  0  0  0
  8  9  1  0  0  0  0
  9 10  2  0  0  0  0
  9 31  1  0  0  0  0
 10 11  1  0  0  0  0
 10 32  1  0  0  0  0
 11 12  2  0  0  0  0
 11 33  1  0  0  0  0
 12 13  1  0  0  0  0
 12 34  1  0  0  0  0
 13 14  1  0  0  0  0
 14 15  1  0  0  0  0
 15 16  1  0  0  0  0
 15 35  1  0  0  0  0
 15 36  1  0  0  0  0
 16 17  1  0  0  0  0
 16 37  1  0  0  0  0
 16 38  1  0  0  0  0
 17 18  1  0  0  0  0
 18 23  1  0  0  0  0
 18 19  2  0  0  0  0
 19 20  1  0  0  0  0
 19 39  1  0  0  0  0
 20 21  2  0  0  0  0
 20 40  1  0  0  0  0
 21 22  1  0  0  0  0
 21 41  1  0  0  0  0
 22 23  2  0  0  0  0
 22 42  1  0  0  0  0
 23 24  1  0  0  0  0
M  CHG  1   7   1
M  END
> <s_m_source_file>
AV-unprocessed.smi

> <i_m_source_file_index>
2954

> <i_lp_mmshare_version>
43012

> <i_f3d_flags>
0

> <s_epik_input>
Tz1bQ0hdW05IXVtDQEBIXShbQ0gzXSljKG4xKW4oYyhjMTIpW2NIXVtjSF1bY0hdW2NIXTIpW0NIMl1bQ0gyXU9jM1tjSF1bY0hdW2NIXVtjSF1jM0Ns

> <s_epik_cmdline>
J2VwaWtfcHl0aG9uJywgJy1waCcsICc3LjAnLCAnLXRuJywgJzgnLCAnLW1hJywgJzIwMCcsICctbWV0YWxfYmluZGluZycsICctaW1hZScsICc8aW5maWxlLm1hZT4nLCAnLW9tYWUnLCAnPG91dGZpbGUubWFlPic=

> <r_lp_tautomer_probability>
1

> <r_epik_Ionization_Penalty>
1.18508

> <r_epik_Ionization_Penalty_Charging>
1.18508

> <r_epik_Ionization_Penalty_Neutral>
5.5802e-08

> <r_epik_State_Penalty>
1.24934

> <r_epik_Charging_Adjusted_Penalty>
2.43443

> <i_epik_Tot_Q>
1

> <i_epik_Tot_abs_Q>
1

> <r_epik_Metal_State_Penalty>
1.32564

> <b_epik_Metal_Only>
0

> <s_lp_Force_Field>
OPLS_2005

> <r_lp_Energy>
16.9753

> <b_lp_Chiralities_Consistent>
1

> <s_lp_Variant>
AV-unprocessed.smi:2954-3

> <Gold.Version>
5.8.1

> <Gold.Id.Protein>
6NUR|6NUR_protein|mol2

> <Gold.PLP.Fitness>
45.7232

> <Gold.PLP.PLP>
-43.5348

> <Gold.PLP.part.hbond>
-1.2429

> <Gold.PLP.part.metal>
0.0000

> <Gold.PLP.part.buried>
-4.9021

> <Gold.PLP.part.nonpolar>
-37.2319

> <Gold.PLP.part.repulsive>
0.1650

> <Gold.PLP.ligand.clash>
0.0000

> <Gold.PLP.ligand.torsion>
0.4401

> <Gold.PLP.Chemscore.Hbond>
1.0000

> <Gold.PLP.Chemscore.CHOScore>
0.0000

> <Gold.PLP.Chemscore.Metal>
0.0000

> <Gold.Chemscore.Hbonds>
donor molecule, donor type, donor heavy atom, donor atom, acceptor molecule, acceptor atom, score
      L1  H     3    29       P1 10956  1.00

> <Gold.PLP.Chemscore.Internal.Correction>
0.0685

> <Gold.Rescore>
     Score         DG    S(hbond)    S(metal)    S(lipo)     H(rot)  DE(clash)    DE(int)     intcor
     13.76     -14.99       0.98        0.00     104.58       2.35       0.17       1.06       ----

> <Gold.Chemscore.Fitness>
13.7601

> <Gold.Chemscore.DG>
-14.9875

> <Gold.Chemscore.ZeroCoef>
-5.4800

> <Gold.Chemscore.Hbond>
0.9817

> <Gold.Chemscore.Metal>
0.0000

> <Gold.Chemscore.Lipo>
104.5847

> <Gold.Chemscore.Internal_Hbond>
0.0000

> <Gold.Chemscore.DEClash>
0.1717

> <Gold.Chemscore.DEInternal>
1.0558

> <Gold.Chemscore.Rot>
2.3467

> <Gold.Chemscore.Internal.Correction>
   9.000000E+99

> <Gold.Chemscore.Hbonds>
donor molecule, donor type, donor heavy atom, donor atom, acceptor molecule, acceptor atom, score
      L1  H     3    29       P1 10956  0.98

> <Gold.Chemscore.Hbond.Weighted>
-3.2788

> <Gold.Chemscore.Metal.Weighted>
-0.0000

> <Gold.Chemscore.Lipo.Weighted>
-12.2364

> <Gold.Chemscore.Internal_Hbond.Weighted>
0.0000

> <Gold.Chemscore.DEClash.Weighted>
0.1717

> <Gold.Chemscore.DEInternal.Weighted>
1.0558

> <Gold.Chemscore.Rot.Weighted>
6.0077

> <Gold.Chemscore.Internal.Correction.Weighted>
   9.000000E+99

> <Gold.Protein.RotatedTorsions>
[ 6907 6896 6895 6894 ] final -176.40 input  -60.11 | X-H torsion
[ 7974 7965 7964 7962 ] final  -74.42 input  175.53 | X-H torsion
[ 8008 7997 7996 7995 ] final  -93.03 input   59.86 | X-H torsion
[ 10167 10162 10161 10158 ] final  131.57 input  -65.29 | X-H torsion
[ 10718 10713 10712 10709 ] final   73.03 input   66.30 | X-H torsion
[ 10763 10752 10751 10750 ] final  130.67 input  -60.55 | X-H torsion
[ 11005 11000 10999 10996 ] final  138.64 input  -57.11 | X-H torsion

> <Gold.Protein.ActiveResidues>
 VAL166  LYS551  ARG553  GLY616  TRP617  ASP618  TYR619  PRO620  LYS621  CYS622 
 ASP623  PHE694  ASN695  SER759  ASP760  ASP761  ALA762  ILE779  LEU786  VAL792 
 PHE793  MET794  SER795  GLU796  ALA797  LYS798  CYS799  TRP800  GLU811  SER814 

> <Gold.Protein.RotatedAtoms>
  151.6042  133.3353  159.3053 H   0  0  0  0  0  0  0  0  0  0  0  0  # atno 6907 bound_to 6896
  150.8191  134.7393  159.6768 H   0  0  0  0  0  0  0  0  0  0  0  0  # atno 6908 bound_to 6896
  152.4286  134.5827  160.0004 H   0  0  0  0  0  0  0  0  0  0  0  0  # atno 6909 bound_to 6896
  145.6394  140.9315  143.1044 H   0  0  0  0  0  0  0  0  0  0  0  0  # atno 7974 bound_to 7965
  154.7306  140.0503  157.0722 H   0  0  0  0  0  0  0  0  0  0  0  0  # atno 8008 bound_to 7997
  155.0307  140.3157  155.4740 H   0  0  0  0  0  0  0  0  0  0  0  0  # atno 8009 bound_to 7997
  156.2840  140.2150  156.5428 H   0  0  0  0  0  0  0  0  0  0  0  0  # atno 8010 bound_to 7997
  139.5378  144.6700  151.4727 H   0  0  0  0  0  0  0  0  0  0  0  0  # atno 10167 bound_to 10162
  157.6529  130.9608  150.1012 H   0  0  0  0  0  0  0  0  0  0  0  0  # atno 10718 bound_to 10713
  153.7619  135.3194  155.3338 H   0  0  0  0  0  0  0  0  0  0  0  0  # atno 10763 bound_to 10752
  154.8227  135.4592  154.0829 H   0  0  0  0  0  0  0  0  0  0  0  0  # atno 10764 bound_to 10752
  153.2063  135.6929  153.8252 H   0  0  0  0  0  0  0  0  0  0  0  0  # atno 10765 bound_to 10752
  140.0198  134.9402  157.0451 H   0  0  0  0  0  0  0  0  0  0  0  0  # atno 11005 bound_to 11000
  144.7163  139.8185  143.7397 LP  0  0  0  0  0  0  0  0  0  0  0  0  # atno 17320 bound_to 7965
  146.1293  139.4325  143.0179 LP  0  0  0  0  0  0  0  0  0  0  0  0  # atno 17321 bound_to 7965
  140.6593  143.8532  150.6870 LP  0  0  0  0  0  0  0  0  0  0  0  0  # atno 17342 bound_to 10162
  140.1922  143.4027  152.1855 LP  0  0  0  0  0  0  0  0  0  0  0  0  # atno 17343 bound_to 10162
  156.1934  130.3656  149.8880 LP  0  0  0  0  0  0  0  0  0  0  0  0  # atno 17370 bound_to 10713
  156.6802  130.8855  151.3575 LP  0  0  0  0  0  0  0  0  0  0  0  0  # atno 17371 bound_to 10713
  140.4407  134.1684  155.7173 LP  0  0  0  0  0  0  0  0  0  0  0  0  # atno 17394 bound_to 11000
  141.1766  133.8500  157.1399 LP  0  0  0  0  0  0  0  0  0  0  0  0  # atno 17395 bound_to 11000

$$$$
