AV-unprocessed.smi:212|AV-procd|sdf|1630|dock2
  -GOLD-   2262019583D 1   1.00000     0.00000
 Structure written by MMmdl.
 65 68  0  0  0  0  0  0  0  0  2 V2000
  144.6980  135.3524  155.4249 C   0  0  0  0  0  0  0  0  0  0  0  0
  145.8163  136.0264  154.6120 C   0  0  1  0  0  0  0  0  0  0  0  0
  146.3949  135.0901  153.5293 C   0  0  0  0  0  0  0  0  0  0  0  0
  145.4490  134.9086  152.3976 N   0  3  2  0  0  0  0  0  0  0  0  0
  145.9158  133.9155  151.3947 C   0  0  0  0  0  0  0  0  0  0  0  0
  144.7510  133.3086  150.5780 C   0  0  0  0  0  0  0  0  0  0  0  0
  145.2410  132.0863  149.7838 C   0  0  0  0  0  0  0  0  0  0  0  0
  143.5536  132.9216  151.4661 C   0  0  0  0  0  0  0  0  0  0  0  0
  144.3109  134.2580  149.6269 O   0  0  0  0  0  0  0  0  0  0  0  0
  145.0376  136.2030  151.7968 C   0  0  0  0  0  0  0  0  0  0  0  0
  144.4540  137.1447  152.8655 C   0  0  0  0  0  0  0  0  0  0  0  0
  145.3614  137.2806  154.0063 N   0  0  0  0  0  0  0  0  0  0  0  0
  146.2513  138.3078  154.0172 C   0  0  0  0  0  0  0  0  0  0  0  0
  146.6175  138.9015  152.8500 N   0  0  0  0  0  0  0  0  0  0  0  0
  147.4994  139.9054  152.8492 C   0  0  0  0  0  0  0  0  0  0  0  0
  148.1266  140.4653  153.8849 N   0  0  0  0  0  0  0  0  0  0  0  0
  147.7560  139.8819  155.0601 C   0  0  0  0  0  0  0  0  0  0  0  0
  146.8353  138.8076  155.2157 C   0  0  0  0  0  0  0  0  0  0  0  0
  146.7061  138.4880  156.5627 N   0  0  0  0  0  0  0  0  0  0  0  0
  147.5107  139.3194  157.1671 C   0  0  0  0  0  0  0  0  0  0  0  0
  148.1756  140.1959  156.3399 N   0  0  0  0  0  0  0  0  0  0  0  0
  149.1229  141.2232  156.7348 C   0  0  0  0  0  0  0  0  0  0  0  0
  150.4301  140.6356  157.3266 C   0  0  1  0  0  0  0  0  0  0  0  0
  151.5328  140.5178  156.2494 C   0  0  0  0  0  0  0  0  0  0  0  0
  151.1022  139.7298  155.1592 O   0  0  0  0  0  0  0  0  0  0  0  0
  150.9286  141.3908  158.5892 C   0  0  1  0  0  0  0  0  0  0  0  0
  152.1294  140.7883  159.3108 C   0  0  0  0  0  0  0  0  0  0  0  0
  152.7461  142.0084  159.9800 C   0  0  0  0  0  0  0  0  0  0  0  0
  152.6120  143.0091  158.9847 O   0  0  0  0  0  0  0  0  0  0  0  0
  151.3391  142.8577  158.3652 C   0  0  0  0  0  0  0  0  0  0  0  0
  145.0655  134.4540  155.9214 H   0  0  0  0  0  0  0  0  0  0  0  0
  143.8547  135.0594  154.7994 H   0  0  0  0  0  0  0  0  0  0  0  0
  144.3223  136.0230  156.1980 H   0  0  0  0  0  0  0  0  0  0  0  0
  146.6261  136.2287  155.3126 H   0  0  0  0  0  0  0  0  0  0  0  0
  147.3281  135.5053  153.1446 H   0  0  0  0  0  0  0  0  0  0  0  0
  146.6392  134.1226  153.9703 H   0  0  0  0  0  0  0  0  0  0  0  0
  146.6545  134.3691  150.7311 H   0  0  0  0  0  0  0  0  0  0  0  0
  146.4427  133.1028  151.8975 H   0  0  0  0  0  0  0  0  0  0  0  0
  145.5923  131.2980  150.4508 H   0  0  0  0  0  0  0  0  0  0  0  0
  146.0659  132.3460  149.1190 H   0  0  0  0  0  0  0  0  0  0  0  0
  144.4448  131.6632  149.1696 H   0  0  0  0  0  0  0  0  0  0  0  0
  143.8460  132.1943  152.2242 H   0  0  0  0  0  0  0  0  0  0  0  0
  142.7509  132.4759  150.8773 H   0  0  0  0  0  0  0  0  0  0  0  0
  143.1336  133.7852  151.9827 H   0  0  0  0  0  0  0  0  0  0  0  0
  144.9393  134.2924  148.9211 H   0  0  0  0  0  0  0  0  0  0  0  0
  145.8995  136.6669  151.3153 H   0  0  0  0  0  0  0  0  0  0  0  0
  144.2952  136.0348  151.0168 H   0  0  0  0  0  0  0  0  0  0  0  0
  144.2195  138.1180  152.4321 H   0  0  0  0  0  0  0  0  0  0  0  0
  143.5056  136.7468  153.2262 H   0  0  0  0  0  0  0  0  0  0  0  0
  147.7363  140.3199  151.8804 H   0  0  0  0  0  0  0  0  0  0  0  0
  147.6358  139.3214  158.2403 H   0  0  0  0  0  0  0  0  0  0  0  0
  149.3371  141.8386  155.8610 H   0  0  0  0  0  0  0  0  0  0  0  0
  148.6188  141.8723  157.4500 H   0  0  0  0  0  0  0  0  0  0  0  0
  150.2005  139.6201  157.6534 H   0  0  0  0  0  0  0  0  0  0  0  0
  151.7975  141.4972  155.8518 H   0  0  0  0  0  0  0  0  0  0  0  0
  152.4432  140.0890  156.6690 H   0  0  0  0  0  0  0  0  0  0  0  0
  150.3654  139.2074  155.4376 H   0  0  0  0  0  0  0  0  0  0  0  0
  150.1108  141.4221  159.3107 H   0  0  0  0  0  0  0  0  0  0  0  0
  151.8513  140.0111  160.0233 H   0  0  0  0  0  0  0  0  0  0  0  0
  152.8518  140.3642  158.6150 H   0  0  0  0  0  0  0  0  0  0  0  0
  152.1833  142.2950  160.8699 H   0  0  0  0  0  0  0  0  0  0  0  0
  153.7881  141.8556  160.2614 H   0  0  0  0  0  0  0  0  0  0  0  0
  151.3989  143.1414  157.3150 H   0  0  0  0  0  0  0  0  0  0  0  0
  150.6231  143.5297  158.8406 H   0  0  0  0  0  0  0  0  0  0  0  0
  144.6138  134.5115  152.8033 H   0  0  0  0  0  0  0  0  0  0  0  0
  1  2  1  0  0  0  0
  1 31  1  0  0  0  0
  1 32  1  0  0  0  0
  1 33  1  0  0  0  0
  2 12  1  0  0  0  0
  2  3  1  0  0  0  0
  2 34  1  0  0  0  0
  3  4  1  0  0  0  0
  3 35  1  0  0  0  0
  3 36  1  0  0  0  0
  4  5  1  0  0  0  0
  4 10  1  0  0  0  0
  4 65  1  0  0  0  0
  5  6  1  0  0  0  0
  5 37  1  0  0  0  0
  5 38  1  0  0  0  0
  6  7  1  0  0  0  0
  6  8  1  0  0  0  0
  6  9  1  0  0  0  0
  7 39  1  0  0  0  0
  7 40  1  0  0  0  0
  7 41  1  0  0  0  0
  8 42  1  0  0  0  0
  8 43  1  0  0  0  0
  8 44  1  0  0  0  0
  9 45  1  0  0  0  0
 10 11  1  0  0  0  0
 10 46  1  0  0  0  0
 10 47  1  0  0  0  0
 11 12  1  0  0  0  0
 11 48  1  0  0  0  0
 11 49  1  0  0  0  0
 12 13  1  0  0  0  0
 13 18  1  0  0  0  0
 13 14  2  0  0  0  0
 14 15  1  0  0  0  0
 15 16  2  0  0  0  0
 15 50  1  0  0  0  0
 16 17  1  0  0  0  0
 17 21  1  0  0  0  0
 17 18  2  0  0  0  0
 18 19  1  0  0  0  0
 19 20  2  0  0  0  0
 20 21  1  0  0  0  0
 20 51  1  0  0  0  0
 21 22  1  0  0  0  0
 22 23  1  0  0  0  0
 22 52  1  0  0  0  0
 22 53  1  0  0  0  0
 23 24  1  0  0  0  0
 23 26  1  0  0  0  0
 23 54  1  0  0  0  0
 24 25  1  0  0  0  0
 24 55  1  0  0  0  0
 24 56  1  0  0  0  0
 25 57  1  0  0  0  0
 26 30  1  0  0  0  0
 26 27  1  0  0  0  0
 26 58  1  0  0  0  0
 27 28  1  0  0  0  0
 27 59  1  0  0  0  0
 27 60  1  0  0  0  0
 28 29  1  0  0  0  0
 28 61  1  0  0  0  0
 28 62  1  0  0  0  0
 29 30  1  0  0  0  0
 30 63  1  0  0  0  0
 30 64  1  0  0  0  0
M  CHG  1   4   1
M  END
> <s_m_source_file>
AV-unprocessed.smi

> <i_m_source_file_index>
212

> <i_lp_mmshare_version>
43012

> <i_f3d_flags>
0

> <s_epik_input>
W0NIM11bQ0BASF0xW0NIMl1OKFtDSDJdQyhbQ0gzXSkoW0NIM10pW09IXSlbQ0gyXVtDSDJdTjFjKG5bY0hdbjIpYyhjMjMpbltjSF1uM1tDSDJdW0NASF0oW0NIMl1bT0hdKVtDQEBIXTRbQ0gyXVtDSDJdT1tDSDJdNA==

> <s_epik_cmdline>
J2VwaWtfcHl0aG9uJywgJy1waCcsICc3LjAnLCAnLXRuJywgJzgnLCAnLW1hJywgJzIwMCcsICctbWV0YWxfYmluZGluZycsICctaW1hZScsICc8aW5maWxlLm1hZT4nLCAnLW9tYWUnLCAnPG91dGZpbGUubWFlPic=

> <r_lp_tautomer_probability>
1

> <r_epik_Ionization_Penalty>
0.00182193

> <r_epik_Ionization_Penalty_Charging>
0.00173996

> <r_epik_Ionization_Penalty_Neutral>
8.19718e-05

> <r_epik_State_Penalty>
-0

> <r_epik_Charging_Adjusted_Penalty>
0.00173996

> <i_epik_Tot_Q>
1

> <i_epik_Tot_abs_Q>
1

> <r_epik_Metal_State_Penalty>
-0

> <b_epik_Metal_Only>
0

> <s_lp_Force_Field>
OPLS_2005

> <r_lp_Energy>
60.3061

> <b_lp_Chiralities_Consistent>
1

> <s_lp_Variant>
AV-unprocessed.smi:212-14

> <Gold.Version>
5.8.1

> <Gold.Id.Protein>
6NUR|6NUR_protein|mol2

> <Gold.PLP.Fitness>
45.7200

> <Gold.PLP.PLP>
-39.6661

> <Gold.PLP.part.hbond>
-2.7633

> <Gold.PLP.part.metal>
0.0000

> <Gold.PLP.part.buried>
-6.7207

> <Gold.PLP.part.nonpolar>
-30.6465

> <Gold.PLP.part.repulsive>
0.4196

> <Gold.PLP.ligand.clash>
0.0000

> <Gold.PLP.ligand.torsion>
1.5706

> <Gold.PLP.Chemscore.Hbond>
2.0000

> <Gold.PLP.Chemscore.CHOScore>
0.6356

> <Gold.PLP.Chemscore.Metal>
0.0000

> <Gold.Chemscore.Hbonds>
donor molecule, donor type, donor heavy atom, donor atom, acceptor molecule, acceptor atom, score
      L1  H     9    45       P1  7921  1.00
      P1  H  7989  7998       L1    25  0.88
      L1  C    15    50       P1  7957  0.72

> <Gold.PLP.Chemscore.Internal.Correction>
1.2882

> <Gold.Rescore>
     Score         DG    S(hbond)    S(metal)    S(lipo)     H(rot)  DE(clash)    DE(int)     intcor
     11.92     -13.71       1.96        0.00      88.62       3.40       0.06       1.72       ----

> <Gold.Chemscore.Fitness>
11.9181

> <Gold.Chemscore.DG>
-13.7052

> <Gold.Chemscore.ZeroCoef>
-5.4800

> <Gold.Chemscore.Hbond>
1.9632

> <Gold.Chemscore.Metal>
0.0000

> <Gold.Chemscore.Lipo>
88.6201

> <Gold.Chemscore.Internal_Hbond>
0.0000

> <Gold.Chemscore.DEClash>
0.0630

> <Gold.Chemscore.DEInternal>
1.7241

> <Gold.Chemscore.Rot>
3.3986

> <Gold.Chemscore.Internal.Correction>
   9.000000E+99

> <Gold.Chemscore.Hbonds>
donor molecule, donor type, donor heavy atom, donor atom, acceptor molecule, acceptor atom, score
      L1  H     9    45       P1  7921  1.00
      P1  H  7989  7998       L1    25  0.34

> <Gold.Chemscore.Hbond.Weighted>
-6.5571

> <Gold.Chemscore.Metal.Weighted>
-0.0000

> <Gold.Chemscore.Lipo.Weighted>
-10.3685

> <Gold.Chemscore.Internal_Hbond.Weighted>
0.0000

> <Gold.Chemscore.DEClash.Weighted>
0.0630

> <Gold.Chemscore.DEInternal.Weighted>
1.7241

> <Gold.Chemscore.Rot.Weighted>
8.7005

> <Gold.Chemscore.Internal.Correction.Weighted>
   9.000000E+99

> <Gold.Protein.RotatedTorsions>
[ 6907 6896 6895 6894 ] final  164.22 input  -60.11 | X-H torsion
[ 7974 7965 7964 7962 ] final  173.58 input  175.53 | X-H torsion
[ 8008 7997 7996 7995 ] final  133.38 input   59.86 | X-H torsion
[ 10167 10162 10161 10158 ] final -144.30 input  -65.29 | X-H torsion
[ 10718 10713 10712 10709 ] final  102.38 input   66.30 | X-H torsion
[ 10763 10752 10751 10750 ] final -128.75 input  -60.55 | X-H torsion
[ 11005 11000 10999 10996 ] final  106.56 input  -57.11 | X-H torsion

> <Gold.Protein.ActiveResidues>
 VAL166  LYS551  ARG553  GLY616  TRP617  ASP618  TYR619  PRO620  LYS621  CYS622 
 ASP623  PHE694  ASN695  SER759  ASP760  ASP761  ALA762  ILE779  LEU786  VAL792 
 PHE793  MET794  SER795  GLU796  ALA797  LYS798  CYS799  TRP800  GLU811  SER814 

> <Gold.Protein.RotatedAtoms>
  151.9132  133.3566  159.3870 H   0  0  0  0  0  0  0  0  0  0  0  0  # atno 6907 bound_to 6896
  150.7053  134.4710  159.5435 H   0  0  0  0  0  0  0  0  0  0  0  0  # atno 6908 bound_to 6896
  152.2320  134.8312  160.0523 H   0  0  0  0  0  0  0  0  0  0  0  0  # atno 6909 bound_to 6896
  144.7240  139.9670  143.6436 H   0  0  0  0  0  0  0  0  0  0  0  0  # atno 7974 bound_to 7965
  156.2991  140.2523  156.3243 H   0  0  0  0  0  0  0  0  0  0  0  0  # atno 8008 bound_to 7997
  154.9205  140.0401  157.2014 H   0  0  0  0  0  0  0  0  0  0  0  0  # atno 8009 bound_to 7997
  154.8316  140.2876  155.5723 H   0  0  0  0  0  0  0  0  0  0  0  0  # atno 8010 bound_to 7997
  139.7912  143.7964  152.2650 H   0  0  0  0  0  0  0  0  0  0  0  0  # atno 10167 bound_to 10162
  157.6803  131.0751  150.5395 H   0  0  0  0  0  0  0  0  0  0  0  0  # atno 10718 bound_to 10713
  154.8757  135.3918  154.3808 H   0  0  0  0  0  0  0  0  0  0  0  0  # atno 10763 bound_to 10752
  153.4556  135.7028  153.6087 H   0  0  0  0  0  0  0  0  0  0  0  0  # atno 10764 bound_to 10752
  153.4608  135.3812  155.2305 H   0  0  0  0  0  0  0  0  0  0  0  0  # atno 10765 bound_to 10752
  139.8816  134.9373  156.5686 H   0  0  0  0  0  0  0  0  0  0  0  0  # atno 11005 bound_to 11000
  146.0593  139.3587  143.0591 LP  0  0  0  0  0  0  0  0  0  0  0  0  # atno 17320 bound_to 7965
  145.8113  140.9724  143.0947 LP  0  0  0  0  0  0  0  0  0  0  0  0  # atno 17321 bound_to 7965
  139.8056  144.7357  150.9766 LP  0  0  0  0  0  0  0  0  0  0  0  0  # atno 17342 bound_to 10162
  140.7820  143.4302  151.0707 LP  0  0  0  0  0  0  0  0  0  0  0  0  # atno 17343 bound_to 10162
  156.5703  130.4278  149.6022 LP  0  0  0  0  0  0  0  0  0  0  0  0  # atno 17370 bound_to 10713
  156.2746  130.7036  151.1844 LP  0  0  0  0  0  0  0  0  0  0  0  0  # atno 17371 bound_to 10713
  140.8115  133.8425  155.8814 LP  0  0  0  0  0  0  0  0  0  0  0  0  # atno 17394 bound_to 11000
  140.9501  134.1789  157.4734 LP  0  0  0  0  0  0  0  0  0  0  0  0  # atno 17395 bound_to 11000

$$$$
