AV-unprocessed.smi:1813|AV-procd|sdf|7347|dock6
  -GOLD-   22720 9 13D 1   1.00000     0.00000
 Structure written by MMmdl.
 39 40  0  0  0  0  0  0  0  0  3 V2000
  147.7583  132.9840  153.4860 C   0  0  0  0  0  0  0  0  0  0  0  0
  148.7630  134.0075  153.7311 N   0  0  0  0  0  0  0  0  0  0  0  0
  149.5847  134.0198  154.7899 C   0  0  0  0  0  0  0  0  0  0  0  0
  149.5743  133.1518  155.6635 O   0  0  0  0  0  0  0  0  0  0  0  0
  150.5818  135.1808  154.8601 C   0  0  0  0  0  0  0  0  0  0  0  0
  149.9552  136.5040  154.6085 N   0  3  2  0  0  0  0  0  0  0  0  0
  150.9506  137.6019  154.4745 C   0  0  0  0  0  0  0  0  0  0  0  0
  150.2678  138.9287  154.1000 C   0  0  0  0  0  0  0  0  0  0  0  0
  149.1766  139.3149  155.1182 C   0  0  2  0  0  0  0  0  0  0  0  0
  149.7485  139.6575  156.4200 N   0  0  0  0  0  0  0  0  0  0  0  0
  150.7142  140.5567  156.6540 C   0  0  0  0  0  0  0  0  0  0  0  0
  151.1893  141.2087  155.7217 O   0  0  0  0  0  0  0  0  0  0  0  0
  151.0731  140.6335  157.9550 N   0  5  0  0  0  0  0  0  0  0  0  0
  151.6030  141.7680  158.4405 C   0  0  0  0  0  0  0  0  0  0  0  0
  152.3645  141.8048  159.5397 N   0  0  0  0  0  0  0  0  0  0  0  0
  152.8176  143.0863  159.8582 C   0  0  0  0  0  0  0  0  0  0  0  0
  152.3979  144.0465  158.9760 C   0  0  0  0  0  0  0  0  0  0  0  0
  151.4153  143.3655  157.7112 S   0  0  0  0  0  0  0  0  0  0  0  0
  148.1882  138.1464  155.2676 C   0  0  0  0  0  0  0  0  0  0  0  0
  148.9075  136.8283  155.6108 C   0  0  0  0  0  0  0  0  0  0  0  0
  147.1802  133.2360  152.5970 H   0  0  0  0  0  0  0  0  0  0  0  0
  147.0694  132.9027  154.3279 H   0  0  0  0  0  0  0  0  0  0  0  0
  148.2275  132.0127  153.3241 H   0  0  0  0  0  0  0  0  0  0  0  0
  148.8372  134.7522  153.0526 H   0  0  0  0  0  0  0  0  0  0  0  0
  151.0089  135.1619  155.8636 H   0  0  0  0  0  0  0  0  0  0  0  0
  151.4082  135.0216  154.1650 H   0  0  0  0  0  0  0  0  0  0  0  0
  151.5030  137.7124  155.4090 H   0  0  0  0  0  0  0  0  0  0  0  0
  151.6836  137.3527  153.7069 H   0  0  0  0  0  0  0  0  0  0  0  0
  151.0129  139.7200  154.0137 H   0  0  0  0  0  0  0  0  0  0  0  0
  149.8177  138.8325  153.1111 H   0  0  0  0  0  0  0  0  0  0  0  0
  148.6305  140.1840  154.7471 H   0  0  0  0  0  0  0  0  0  0  0  0
  149.3850  139.1634  157.2217 H   0  0  0  0  0  0  0  0  0  0  0  0
  153.4364  143.2234  160.7323 H   0  0  0  0  0  0  0  0  0  0  0  0
  152.6053  145.1056  158.9915 H   0  0  0  0  0  0  0  0  0  0  0  0
  147.4441  138.3763  156.0313 H   0  0  0  0  0  0  0  0  0  0  0  0
  147.6365  138.0208  154.3350 H   0  0  0  0  0  0  0  0  0  0  0  0
  148.1735  136.0227  155.6467 H   0  0  0  0  0  0  0  0  0  0  0  0
  149.3583  136.8872  156.6029 H   0  0  0  0  0  0  0  0  0  0  0  0
  149.4827  136.4272  153.7189 H   0  0  0  0  0  0  0  0  0  0  0  0
  1  2  1  0  0  0  0
  1 21  1  0  0  0  0
  1 22  1  0  0  0  0
  1 23  1  0  0  0  0
  2  3  1  0  0  0  0
  2 24  1  0  0  0  0
  3  4  2  0  0  0  0
  3  5  1  0  0  0  0
  5  6  1  0  0  0  0
  5 25  1  0  0  0  0
  5 26  1  0  0  0  0
  6 20  1  0  0  0  0
  6  7  1  0  0  0  0
  6 39  1  0  0  0  0
  7  8  1  0  0  0  0
  7 27  1  0  0  0  0
  7 28  1  0  0  0  0
  8  9  1  0  0  0  0
  8 29  1  0  0  0  0
  8 30  1  0  0  0  0
  9 10  1  0  0  0  0
  9 19  1  0  0  0  0
  9 31  1  0  0  0  0
 10 11  1  0  0  0  0
 10 32  1  0  0  0  0
 11 12  2  0  0  0  0
 11 13  1  0  0  0  0
 13 14  1  0  0  0  0
 14 18  1  0  0  0  0
 14 15  2  0  0  0  0
 15 16  1  0  0  0  0
 16 17  2  0  0  0  0
 16 33  1  0  0  0  0
 17 18  1  0  0  0  0
 17 34  1  0  0  0  0
 19 20  1  0  0  0  0
 19 35  1  0  0  0  0
 19 36  1  0  0  0  0
 20 37  1  0  0  0  0
 20 38  1  0  0  0  0
M  CHG  1   6   1
M  CHG  1  13  -1
M  END
> <s_m_source_file>
AV-unprocessed.smi

> <i_m_source_file_index>
1813

> <i_lp_mmshare_version>
43012

> <i_f3d_flags>
0

> <s_epik_input>
W0NIM11bTkhdQyg9TylbQ0gyXU4xW0NIMl1bQ0gyXVtDSF0oW0NIMl1bQ0gyXTEpW05IXUMoPU8pW05IXWMybltjSF1bY0hdczI=

> <s_epik_cmdline>
J2VwaWtfcHl0aG9uJywgJy1waCcsICc3LjAnLCAnLXRuJywgJzgnLCAnLW1hJywgJzIwMCcsICctbWV0YWxfYmluZGluZycsICctaW1hZScsICc8aW5maWxlLm1hZT4nLCAnLW9tYWUnLCAnPG91dGZpbGUubWFlPic=

> <r_lp_tautomer_probability>
0.999

> <r_epik_Ionization_Penalty>
7.12128

> <r_epik_Ionization_Penalty_Charging>
6.25357

> <r_epik_Ionization_Penalty_Neutral>
0.867707

> <r_epik_State_Penalty>
6.33838

> <r_epik_Charging_Adjusted_Penalty>
12.592

> <i_epik_Tot_Q>
0

> <i_epik_Tot_abs_Q>
2

> <r_epik_Metal_State_Penalty>
2.34161

> <b_epik_Metal_Only>
1

> <s_lp_Force_Field>
OPLS_2005

> <r_lp_Energy>
4.26142

> <b_lp_Chiralities_Consistent>
1

> <s_lp_Variant>
AV-unprocessed.smi:1813-8

> <Gold.Version>
5.8.1

> <Gold.Id.Protein>
6NUR|6NUR_protein|mol2

> <Gold.PLP.Fitness>
41.1843

> <Gold.PLP.PLP>
-32.2402

> <Gold.PLP.part.hbond>
-3.0000

> <Gold.PLP.part.metal>
0.0000

> <Gold.PLP.part.buried>
-2.8940

> <Gold.PLP.part.nonpolar>
-26.1677

> <Gold.PLP.part.repulsive>
0.1036

> <Gold.PLP.ligand.clash>
0.0000

> <Gold.PLP.ligand.torsion>
0.4514

> <Gold.PLP.Chemscore.Hbond>
3.2740

> <Gold.PLP.Chemscore.CHOScore>
0.0000

> <Gold.PLP.Chemscore.Metal>
0.0000

> <Gold.Chemscore.Hbonds>
donor molecule, donor type, donor heavy atom, donor atom, acceptor molecule, acceptor atom, score
      L1  H     2    24       P1  7948  0.85
      L1  H     6    39       P1  7948  2.00
      P1  H  7989  7998       L1    12  0.22

> <Gold.PLP.Chemscore.Internal.Correction>
0.0248

> <Gold.Rescore>
     Score         DG    S(hbond)    S(metal)    S(lipo)     H(rot)  DE(clash)    DE(int)     intcor
     14.11     -17.51       2.45        0.00      71.25       1.76       1.36       2.04       ----

> <Gold.Chemscore.Fitness>
14.1055

> <Gold.Chemscore.DG>
-17.5052

> <Gold.Chemscore.ZeroCoef>
-5.4800

> <Gold.Chemscore.Hbond>
2.4536

> <Gold.Chemscore.Metal>
0.0000

> <Gold.Chemscore.Lipo>
71.2529

> <Gold.Chemscore.Internal_Hbond>
0.0000

> <Gold.Chemscore.DEClash>
1.3607

> <Gold.Chemscore.DEInternal>
2.0390

> <Gold.Chemscore.Rot>
1.7603

> <Gold.Chemscore.Internal.Correction>
   9.000000E+99

> <Gold.Chemscore.Hbonds>
donor molecule, donor type, donor heavy atom, donor atom, acceptor molecule, acceptor atom, score
      L1  H     2    24       P1  7948  0.15
      L1  H     6    39       P1  7948  0.74
      P1  H  7989  7998       L1    12  0.22

> <Gold.Chemscore.Hbond.Weighted>
-8.1950

> <Gold.Chemscore.Metal.Weighted>
-0.0000

> <Gold.Chemscore.Lipo.Weighted>
-8.3366

> <Gold.Chemscore.Internal_Hbond.Weighted>
0.0000

> <Gold.Chemscore.DEClash.Weighted>
1.3607

> <Gold.Chemscore.DEInternal.Weighted>
2.0390

> <Gold.Chemscore.Rot.Weighted>
4.5064

> <Gold.Chemscore.Internal.Correction.Weighted>
   9.000000E+99

> <Gold.Protein.RotatedTorsions>
[ 6907 6896 6895 6894 ] final  -89.08 input  -60.11 | X-H torsion
[ 7974 7965 7964 7962 ] final  133.30 input  175.53 | X-H torsion
[ 8008 7997 7996 7995 ] final  133.58 input   59.86 | X-H torsion
[ 10167 10162 10161 10158 ] final   48.59 input  -65.29 | X-H torsion
[ 10718 10713 10712 10709 ] final  -55.07 input   66.30 | X-H torsion
[ 10763 10752 10751 10750 ] final  106.53 input  -60.55 | X-H torsion
[ 11005 11000 10999 10996 ] final   -1.47 input  -57.11 | X-H torsion

> <Gold.Protein.ActiveResidues>
 VAL166  LYS551  ARG553  GLY616  TRP617  ASP618  TYR619  PRO620  LYS621  CYS622 
 ASP623  PHE694  ASN695  SER759  ASP760  ASP761  ALA762  ILE779  LEU786  VAL792 
 PHE793  MET794  SER795  GLU796  ALA797  LYS798  CYS799  TRP800  GLU811  SER814 

> <Gold.Protein.RotatedAtoms>
  150.6872  134.2642  159.4561 H   0  0  0  0  0  0  0  0  0  0  0  0  # atno 6907 bound_to 6896
  152.0570  134.9615  160.0584 H   0  0  0  0  0  0  0  0  0  0  0  0  # atno 6908 bound_to 6896
  152.1057  133.4239  159.4645 H   0  0  0  0  0  0  0  0  0  0  0  0  # atno 6909 bound_to 6896
  144.9880  139.4436  143.5353 H   0  0  0  0  0  0  0  0  0  0  0  0  # atno 7974 bound_to 7965
  156.2993  140.2518  156.3276 H   0  0  0  0  0  0  0  0  0  0  0  0  # atno 8008 bound_to 7997
  154.9175  140.0401  157.1999 H   0  0  0  0  0  0  0  0  0  0  0  0  # atno 8009 bound_to 7997
  154.8344  140.2881  155.5705 H   0  0  0  0  0  0  0  0  0  0  0  0  # atno 8010 bound_to 7997
  140.2917  144.3038  150.6239 H   0  0  0  0  0  0  0  0  0  0  0  0  # atno 10167 bound_to 10162
  156.1399  130.4155  150.0122 H   0  0  0  0  0  0  0  0  0  0  0  0  # atno 10718 bound_to 10713
  153.3943  135.3874  155.1944 H   0  0  0  0  0  0  0  0  0  0  0  0  # atno 10763 bound_to 10752
  154.8723  135.3756  154.4698 H   0  0  0  0  0  0  0  0  0  0  0  0  # atno 10764 bound_to 10752
  153.5188  135.7087  153.5804 H   0  0  0  0  0  0  0  0  0  0  0  0  # atno 10765 bound_to 10752
  140.6477  133.9433  155.8362 H   0  0  0  0  0  0  0  0  0  0  0  0  # atno 11005 bound_to 11000
  146.3424  139.9193  142.8769 LP  0  0  0  0  0  0  0  0  0  0  0  0  # atno 17320 bound_to 7965
  145.2326  140.9979  143.3981 LP  0  0  0  0  0  0  0  0  0  0  0  0  # atno 17321 bound_to 7965
  140.5726  143.2179  151.7571 LP  0  0  0  0  0  0  0  0  0  0  0  0  # atno 17342 bound_to 10162
  139.4936  144.4195  151.9994 LP  0  0  0  0  0  0  0  0  0  0  0  0  # atno 17343 bound_to 10162
  156.8010  130.9290  151.3646 LP  0  0  0  0  0  0  0  0  0  0  0  0  # atno 17370 bound_to 10713
  157.6566  130.8929  149.9741 LP  0  0  0  0  0  0  0  0  0  0  0  0  # atno 17371 bound_to 10713
  141.0560  134.0415  157.3721 LP  0  0  0  0  0  0  0  0  0  0  0  0  # atno 17394 bound_to 11000
  139.9057  135.0178  156.7475 LP  0  0  0  0  0  0  0  0  0  0  0  0  # atno 17395 bound_to 11000

$$$$
