AV-unprocessed.smi:264|AV-procd|sdf|2011|dock7
  -GOLD-   2262021213D 1   1.00000     0.00000
 Structure written by MMmdl.
 52 56  0  0  0  0  0  0  0  0  1 V2000
  148.3555  133.9394  154.0551 C   0  0  0  0  0  0  0  0  0  0  0  0
  149.8774  134.0742  154.2224 C   0  0  2  0  0  0  0  0  0  0  0  0
  150.3853  132.8037  154.6210 O   0  0  0  0  0  0  0  0  0  0  0  0
  151.5450  133.0045  155.4088 C   0  0  0  0  0  0  0  0  0  0  0  0
  151.1519  134.1971  156.2672 C   0  0  0  0  0  0  0  0  0  0  0  0
  150.3807  135.0843  155.2932 C   0  0  1  0  0  0  0  0  0  0  0  0
  151.3126  135.9477  154.6629 O   0  0  0  0  0  0  0  0  0  0  0  0
  149.3002  135.9630  155.9770 C   0  0  0  0  0  0  0  0  0  0  0  0
  149.8430  137.1447  156.6316 N   0  0  0  0  0  0  0  0  0  0  0  0
  150.1492  137.2797  157.9656 C   0  0  0  0  0  0  0  0  0  0  0  0
  150.6255  138.4437  158.3100 N   0  0  0  0  0  0  0  0  0  0  0  0
  150.6658  139.1703  157.1237 C   0  0  0  0  0  0  0  0  0  0  0  0
  151.0690  140.4941  156.7660 C   0  0  0  0  0  0  0  0  0  0  0  0
  151.5823  141.4247  157.6137 N   0  0  0  0  0  0  0  0  0  0  0  0
  151.0913  142.7909  157.4655 C   0  0  0  0  0  0  0  0  0  0  0  0
  152.0683  143.7735  158.1259 C   0  0  0  0  0  0  0  0  0  0  0  0
  152.2994  143.4021  159.4838 O   0  0  0  0  0  0  0  0  0  0  0  0
  152.8301  142.0842  159.6501 C   0  0  2  0  0  0  0  0  0  0  0  0
  152.9672  141.8224  161.1456 C   0  0  0  0  0  0  0  0  0  0  0  0
  154.2015  140.9381  161.2291 C   0  0  0  0  0  0  0  0  0  0  0  0
  155.0675  141.5337  160.2809 O   0  0  0  0  0  0  0  0  0  0  0  0
  154.2925  141.9547  159.1631 C   0  0  0  0  0  0  0  0  0  0  0  0
  151.8805  141.0558  158.9923 C   0  0  0  0  0  0  0  0  0  0  0  0
  150.9400  140.8487  155.4606 N   0  0  0  0  0  0  0  0  0  0  0  0
  150.4610  139.9839  154.5630 C   0  0  0  0  0  0  0  0  0  0  0  0
  150.0554  138.7280  154.7507 N   0  0  0  0  0  0  0  0  0  0  0  0
  150.1726  138.3609  156.0584 C   0  0  0  0  0  0  0  0  0  0  0  0
  147.9039  134.8809  153.7422 H   0  0  0  0  0  0  0  0  0  0  0  0
  147.8770  133.6200  154.9812 H   0  0  0  0  0  0  0  0  0  0  0  0
  148.1185  133.1957  153.2941 H   0  0  0  0  0  0  0  0  0  0  0  0
  150.3096  134.3074  153.2473 H   0  0  0  0  0  0  0  0  0  0  0  0
  151.7901  132.1211  155.9985 H   0  0  0  0  0  0  0  0  0  0  0  0
  152.3943  133.2422  154.7664 H   0  0  0  0  0  0  0  0  0  0  0  0
  150.4910  133.8483  157.0614 H   0  0  0  0  0  0  0  0  0  0  0  0
  152.0040  134.6908  156.7367 H   0  0  0  0  0  0  0  0  0  0  0  0
  150.9455  136.8181  154.6387 H   0  0  0  0  0  0  0  0  0  0  0  0
  148.5575  136.2906  155.2485 H   0  0  0  0  0  0  0  0  0  0  0  0
  148.7605  135.3878  156.7296 H   0  0  0  0  0  0  0  0  0  0  0  0
  150.0016  136.4842  158.6816 H   0  0  0  0  0  0  0  0  0  0  0  0
  150.9607  143.0667  156.4189 H   0  0  0  0  0  0  0  0  0  0  0  0
  150.1109  142.8644  157.9379 H   0  0  0  0  0  0  0  0  0  0  0  0
  153.0053  143.8116  157.5699 H   0  0  0  0  0  0  0  0  0  0  0  0
  151.6533  144.7811  158.1052 H   0  0  0  0  0  0  0  0  0  0  0  0
  153.1641  142.7560  161.6745 H   0  0  0  0  0  0  0  0  0  0  0  0
  152.0840  141.3680  161.5956 H   0  0  0  0  0  0  0  0  0  0  0  0
  154.6445  140.9218  162.2249 H   0  0  0  0  0  0  0  0  0  0  0  0
  153.9739  139.9133  160.9319 H   0  0  0  0  0  0  0  0  0  0  0  0
  154.3850  141.2245  158.3582 H   0  0  0  0  0  0  0  0  0  0  0  0
  154.6996  142.8984  158.8006 H   0  0  0  0  0  0  0  0  0  0  0  0
  150.9421  141.0091  159.5467 H   0  0  0  0  0  0  0  0  0  0  0  0
  152.3329  140.0643  159.0318 H   0  0  0  0  0  0  0  0  0  0  0  0
  150.3941  140.3507  153.5496 H   0  0  0  0  0  0  0  0  0  0  0  0
  1  2  1  0  0  0  0
  1 28  1  0  0  0  0
  1 29  1  0  0  0  0
  1 30  1  0  0  0  0
  2  6  1  0  0  0  0
  2  3  1  0  0  0  0
  2 31  1  0  0  0  0
  3  4  1  0  0  0  0
  4  5  1  0  0  0  0
  4 32  1  0  0  0  0
  4 33  1  0  0  0  0
  5  6  1  0  0  0  0
  5 34  1  0  0  0  0
  5 35  1  0  0  0  0
  6  7  1  0  0  0  0
  6  8  1  0  0  0  0
  7 36  1  0  0  0  0
  8  9  1  0  0  0  0
  8 37  1  0  0  0  0
  8 38  1  0  0  0  0
  9 27  1  0  0  0  0
  9 10  1  0  0  0  0
 10 11  2  0  0  0  0
 10 39  1  0  0  0  0
 11 12  1  0  0  0  0
 12 27  2  0  0  0  0
 12 13  1  0  0  0  0
 13 14  1  0  0  0  0
 13 24  2  0  0  0  0
 14 23  1  0  0  0  0
 14 15  1  0  0  0  0
 15 16  1  0  0  0  0
 15 40  1  0  0  0  0
 15 41  1  0  0  0  0
 16 17  1  0  0  0  0
 16 42  1  0  0  0  0
 16 43  1  0  0  0  0
 17 18  1  0  0  0  0
 18 22  1  0  0  0  0
 18 19  1  0  0  0  0
 18 23  1  0  0  0  0
 19 20  1  0  0  0  0
 19 44  1  0  0  0  0
 19 45  1  0  0  0  0
 20 21  1  0  0  0  0
 20 46  1  0  0  0  0
 20 47  1  0  0  0  0
 21 22  1  0  0  0  0
 22 48  1  0  0  0  0
 22 49  1  0  0  0  0
 23 50  1  0  0  0  0
 23 51  1  0  0  0  0
 24 25  1  0  0  0  0
 25 26  2  0  0  0  0
 25 52  1  0  0  0  0
 26 27  1  0  0  0  0
M  END
> <s_m_source_file>
AV-unprocessed.smi

> <i_m_source_file_index>
264

> <i_lp_mmshare_version>
43012

> <i_f3d_flags>
0

> <s_epik_input>
W0NIMl0xW0NIMl1PW0NAQEhdKFtDSDNdKVtDQEBdMShbT0hdKVtDSDJdbihbY0hdbjIpYyhjMjMpbltjSF1uYzNOKFtDSDJdNClbQ0gyXVtDSDJdT1tDQF00NVtDSDJdW0NIMl1PW0NIMl01

> <s_epik_cmdline>
J2VwaWtfcHl0aG9uJywgJy1waCcsICc3LjAnLCAnLXRuJywgJzgnLCAnLW1hJywgJzIwMCcsICctbWV0YWxfYmluZGluZycsICctaW1hZScsICc8aW5maWxlLm1hZT4nLCAnLW9tYWUnLCAnPG91dGZpbGUubWFlPic=

> <r_lp_tautomer_probability>
1

> <r_epik_Ionization_Penalty>
0.00539389

> <r_epik_Ionization_Penalty_Charging>
0

> <r_epik_Ionization_Penalty_Neutral>
0.00539389

> <r_epik_State_Penalty>
0.00375441

> <r_epik_Charging_Adjusted_Penalty>
0.00375441

> <i_epik_Tot_Q>
0

> <i_epik_Tot_abs_Q>
0

> <r_epik_Metal_State_Penalty>
-0

> <b_epik_Metal_Only>
0

> <s_lp_Force_Field>
OPLS_2005

> <r_lp_Energy>
55.2391

> <b_lp_Chiralities_Consistent>
1

> <s_lp_Variant>
AV-unprocessed.smi:264-5

> <Gold.Version>
5.8.1

> <Gold.Id.Protein>
6NUR|6NUR_protein|mol2

> <Gold.PLP.Fitness>
43.2293

> <Gold.PLP.PLP>
-38.7900

> <Gold.PLP.part.hbond>
-3.0000

> <Gold.PLP.part.metal>
0.0000

> <Gold.PLP.part.buried>
-3.1396

> <Gold.PLP.part.nonpolar>
-30.9118

> <Gold.PLP.part.repulsive>
0.2176

> <Gold.PLP.ligand.clash>
0.0000

> <Gold.PLP.ligand.torsion>
0.9301

> <Gold.PLP.Chemscore.Hbond>
1.0000

> <Gold.PLP.Chemscore.CHOScore>
1.0000

> <Gold.PLP.Chemscore.Metal>
0.0000

> <Gold.Chemscore.Hbonds>
donor molecule, donor type, donor heavy atom, donor atom, acceptor molecule, acceptor atom, score
      P1  H 10752 10764       L1     7  1.00
      L1  C    25    52       P1  7957  1.00

> <Gold.PLP.Chemscore.Internal.Correction>
0.2994

> <Gold.Rescore>
     Score         DG    S(hbond)    S(metal)    S(lipo)     H(rot)  DE(clash)    DE(int)     intcor
     12.44     -15.77       0.96        0.00      99.68       1.79       1.48       1.85       ----

> <Gold.Chemscore.Fitness>
12.4422

> <Gold.Chemscore.DG>
-15.7654

> <Gold.Chemscore.ZeroCoef>
-5.4800

> <Gold.Chemscore.Hbond>
0.9623

> <Gold.Chemscore.Metal>
0.0000

> <Gold.Chemscore.Lipo>
99.6810

> <Gold.Chemscore.Internal_Hbond>
0.0000

> <Gold.Chemscore.DEClash>
1.4766

> <Gold.Chemscore.DEInternal>
1.8467

> <Gold.Chemscore.Rot>
1.7935

> <Gold.Chemscore.Internal.Correction>
   9.000000E+99

> <Gold.Chemscore.Hbonds>
donor molecule, donor type, donor heavy atom, donor atom, acceptor molecule, acceptor atom, score
      P1  H 10752 10764       L1     7  0.98

> <Gold.Chemscore.Hbond.Weighted>
-3.2140

> <Gold.Chemscore.Metal.Weighted>
-0.0000

> <Gold.Chemscore.Lipo.Weighted>
-11.6627

> <Gold.Chemscore.Internal_Hbond.Weighted>
0.0000

> <Gold.Chemscore.DEClash.Weighted>
1.4766

> <Gold.Chemscore.DEInternal.Weighted>
1.8467

> <Gold.Chemscore.Rot.Weighted>
4.5913

> <Gold.Chemscore.Internal.Correction.Weighted>
   9.000000E+99

> <Gold.Protein.RotatedTorsions>
[ 6907 6896 6895 6894 ] final -134.96 input  -60.11 | X-H torsion
[ 7974 7965 7964 7962 ] final -153.13 input  175.53 | X-H torsion
[ 8008 7997 7996 7995 ] final    7.87 input   59.86 | X-H torsion
[ 10167 10162 10161 10158 ] final  132.19 input  -65.29 | X-H torsion
[ 10718 10713 10712 10709 ] final  -90.94 input   66.30 | X-H torsion
[ 10763 10752 10751 10750 ] final  -56.86 input  -60.55 | X-H torsion
[ 11005 11000 10999 10996 ] final  -83.74 input  -57.11 | X-H torsion

> <Gold.Protein.ActiveResidues>
 VAL166  LYS551  ARG553  GLY616  TRP617  ASP618  TYR619  PRO620  LYS621  CYS622 
 ASP623  PHE694  ASN695  SER759  ASP760  ASP761  ALA762  ILE779  LEU786  VAL792 
 PHE793  MET794  SER795  GLU796  ALA797  LYS798  CYS799  TRP800  GLU811  SER814 

> <Gold.Protein.RotatedAtoms>
  150.9922  133.6139  159.2706 H   0  0  0  0  0  0  0  0  0  0  0  0  # atno 6907 bound_to 6896
  151.3355  135.0850  159.9363 H   0  0  0  0  0  0  0  0  0  0  0  0  # atno 6908 bound_to 6896
  152.5249  133.9543  159.7741 H   0  0  0  0  0  0  0  0  0  0  0  0  # atno 6909 bound_to 6896
  144.7757  140.4568  143.5875 H   0  0  0  0  0  0  0  0  0  0  0  0  # atno 7974 bound_to 7965
  154.7594  140.2782  155.6226 H   0  0  0  0  0  0  0  0  0  0  0  0  # atno 8008 bound_to 7997
  156.2912  140.2663  156.2296 H   0  0  0  0  0  0  0  0  0  0  0  0  # atno 8009 bound_to 7997
  155.0036  140.0372  157.2360 H   0  0  0  0  0  0  0  0  0  0  0  0  # atno 8010 bound_to 7997
  139.5350  144.6673  151.4816 H   0  0  0  0  0  0  0  0  0  0  0  0  # atno 10167 bound_to 10162
  155.9990  130.4929  150.5399 H   0  0  0  0  0  0  0  0  0  0  0  0  # atno 10718 bound_to 10713
  154.2133  135.6390  153.5122 H   0  0  0  0  0  0  0  0  0  0  0  0  # atno 10763 bound_to 10752
  152.9985  135.5479  154.6192 H   0  0  0  0  0  0  0  0  0  0  0  0  # atno 10764 bound_to 10752
  154.5634  135.2911  155.0871 H   0  0  0  0  0  0  0  0  0  0  0  0  # atno 10765 bound_to 10752
  141.1656  133.7310  156.8765 H   0  0  0  0  0  0  0  0  0  0  0  0  # atno 11005 bound_to 11000
  145.6193  139.1522  143.3031 LP  0  0  0  0  0  0  0  0  0  0  0  0  # atno 17320 bound_to 7965
  146.1935  140.6304  142.9135 LP  0  0  0  0  0  0  0  0  0  0  0  0  # atno 17321 bound_to 7965
  140.6552  143.8614  150.6827 LP  0  0  0  0  0  0  0  0  0  0  0  0  # atno 17342 bound_to 10162
  140.1991  143.3974  152.1805 LP  0  0  0  0  0  0  0  0  0  0  0  0  # atno 17343 bound_to 10162
  157.3337  131.0704  151.1841 LP  0  0  0  0  0  0  0  0  0  0  0  0  # atno 17370 bound_to 10713
  157.2713  130.6706  149.6021 LP  0  0  0  0  0  0  0  0  0  0  0  0  # atno 17371 bound_to 10713
  140.1745  134.9077  157.2874 LP  0  0  0  0  0  0  0  0  0  0  0  0  # atno 17394 bound_to 11000
  140.2464  134.3734  155.7459 LP  0  0  0  0  0  0  0  0  0  0  0  0  # atno 17395 bound_to 11000

$$$$
