AV-unprocessed.smi:2556|AV-procd|sdf|10025|dock6
  -GOLD-   2272014 73D 1   1.00000     0.00000
 Structure written by MMmdl.
 34 36  0  0  0  0  0  0  0  0  2 V2000
  149.4343  138.1166  153.6946 C   0  0  0  0  0  0  0  0  0  0  0  0
  150.4451  138.4535  154.7009 N   0  0  0  0  0  0  0  0  0  0  0  0
  151.3312  137.5104  155.1529 C   0  0  0  0  0  0  0  0  0  0  0  0
  151.2556  136.3698  154.6937 O   0  0  0  0  0  0  0  0  0  0  0  0
  152.2745  137.8525  156.0985 N   0  5  0  0  0  0  0  0  0  0  0  0
  152.4361  139.0902  156.6650 C   0  0  0  0  0  0  0  0  0  0  0  0
  153.2741  139.4127  157.5047 O   0  0  0  0  0  0  0  0  0  0  0  0
  151.4552  140.0689  156.1490 C   0  0  0  0  0  0  0  0  0  0  0  0
  150.5067  139.7779  155.2152 C   0  0  0  0  0  0  0  0  0  0  0  0
  149.7282  140.8912  154.9166 N   0  0  0  0  0  0  0  0  0  0  0  0
  150.2619  141.8225  155.7062 C   0  0  0  0  0  0  0  0  0  0  0  0
  151.2950  141.4180  156.4719 N   0  0  0  0  0  0  0  0  0  0  0  0
  152.0382  142.2526  157.4054 C   0  0  0  0  0  0  0  0  0  0  0  0
  151.1204  143.0562  158.3497 C   0  0  2  0  0  0  0  0  0  0  0  0
  150.7818  144.3029  157.7735 O   0  0  0  0  0  0  0  0  0  0  0  0
  151.7497  143.2163  159.7245 C   0  0  0  0  0  0  0  0  0  0  0  0
  151.6025  144.4271  160.4350 C   0  0  0  0  0  0  0  0  0  0  0  0
  152.1812  144.5759  161.7107 C   0  0  0  0  0  0  0  0  0  0  0  0
  152.9079  143.5146  162.2838 C   0  0  0  0  0  0  0  0  0  0  0  0
  153.0545  142.3031  161.5814 C   0  0  0  0  0  0  0  0  0  0  0  0
  152.4760  142.1536  160.3061 C   0  0  0  0  0  0  0  0  0  0  0  0
  149.9102  137.7719  152.7756 H   0  0  0  0  0  0  0  0  0  0  0  0
  148.8000  138.9635  153.4351 H   0  0  0  0  0  0  0  0  0  0  0  0
  148.7825  137.3219  154.0596 H   0  0  0  0  0  0  0  0  0  0  0  0
  149.8897  142.8361  155.7273 H   0  0  0  0  0  0  0  0  0  0  0  0
  152.6861  141.6017  157.9941 H   0  0  0  0  0  0  0  0  0  0  0  0
  152.7081  142.9100  156.8537 H   0  0  0  0  0  0  0  0  0  0  0  0
  150.1831  142.5103  158.4653 H   0  0  0  0  0  0  0  0  0  0  0  0
  150.0538  144.1747  157.1853 H   0  0  0  0  0  0  0  0  0  0  0  0
  151.0450  145.2465  160.0053 H   0  0  0  0  0  0  0  0  0  0  0  0
  152.0665  145.5043  162.2504 H   0  0  0  0  0  0  0  0  0  0  0  0
  153.3510  143.6291  163.2620 H   0  0  0  0  0  0  0  0  0  0  0  0
  153.6097  141.4872  162.0203 H   0  0  0  0  0  0  0  0  0  0  0  0
  152.5890  141.2194  159.7750 H   0  0  0  0  0  0  0  0  0  0  0  0
  1  2  1  0  0  0  0
  1 22  1  0  0  0  0
  1 23  1  0  0  0  0
  1 24  1  0  0  0  0
  2  9  1  0  0  0  0
  2  3  1  0  0  0  0
  3  4  2  0  0  0  0
  3  5  1  0  0  0  0
  5  6  1  0  0  0  0
  6  7  2  0  0  0  0
  6  8  1  0  0  0  0
  8 12  1  0  0  0  0
  8  9  2  0  0  0  0
  9 10  1  0  0  0  0
 10 11  2  0  0  0  0
 11 12  1  0  0  0  0
 11 25  1  0  0  0  0
 12 13  1  0  0  0  0
 13 14  1  0  0  0  0
 13 26  1  0  0  0  0
 13 27  1  0  0  0  0
 14 15  1  0  0  0  0
 14 16  1  0  0  0  0
 14 28  1  0  0  0  0
 15 29  1  0  0  0  0
 16 21  1  0  0  0  0
 16 17  2  0  0  0  0
 17 18  1  0  0  0  0
 17 30  1  0  0  0  0
 18 19  2  0  0  0  0
 18 31  1  0  0  0  0
 19 20  1  0  0  0  0
 19 32  1  0  0  0  0
 20 21  2  0  0  0  0
 20 33  1  0  0  0  0
 21 34  1  0  0  0  0
M  CHG  1   5  -1
M  END
> <s_m_source_file>
AV-unprocessed.smi

> <i_m_source_file_index>
2556

> <i_lp_mmshare_version>
43012

> <i_f3d_flags>
0

> <s_epik_input>
Tz1jMVtuSF1jKD1PKW4oW0NIM10pYyhjMTIpbltjSF1uMltDSDJdW0NASF0oW09IXSljM1tjSF1bY0hdW2NIXVtjSF1bY0hdMw==

> <s_epik_cmdline>
J2VwaWtfcHl0aG9uJywgJy1waCcsICc3LjAnLCAnLXRuJywgJzgnLCAnLW1hJywgJzIwMCcsICctbWV0YWxfYmluZGluZycsICctaW1hZScsICc8aW5maWxlLm1hZT4nLCAnLW9tYWUnLCAnPG91dGZpbGUubWFlPic=

> <r_lp_tautomer_probability>
1

> <r_epik_Ionization_Penalty>
4.84872

> <r_epik_Ionization_Penalty_Charging>
0.03865

> <r_epik_Ionization_Penalty_Neutral>
4.81007

> <r_epik_State_Penalty>
4.80988

> <r_epik_Charging_Adjusted_Penalty>
4.84853

> <i_epik_Tot_Q>
-1

> <i_epik_Tot_abs_Q>
1

> <r_epik_Metal_State_Penalty>
0.994041

> <b_epik_Metal_Only>
1

> <s_lp_Force_Field>
OPLS_2005

> <r_lp_Energy>
33.4055

> <b_lp_Chiralities_Consistent>
1

> <s_lp_Variant>
AV-unprocessed.smi:2556-3

> <Gold.Version>
5.8.1

> <Gold.Id.Protein>
6NUR|6NUR_protein|mol2

> <Gold.PLP.Fitness>
47.3106

> <Gold.PLP.PLP>
-37.4013

> <Gold.PLP.part.hbond>
-3.4179

> <Gold.PLP.part.metal>
0.0000

> <Gold.PLP.part.buried>
0.1159

> <Gold.PLP.part.nonpolar>
-32.9903

> <Gold.PLP.part.repulsive>
0.2764

> <Gold.PLP.ligand.clash>
0.0000

> <Gold.PLP.ligand.torsion>
1.0604

> <Gold.PLP.Chemscore.Hbond>
3.0000

> <Gold.PLP.Chemscore.CHOScore>
1.0000

> <Gold.PLP.Chemscore.Metal>
0.0000

> <Gold.Chemscore.Hbonds>
donor molecule, donor type, donor heavy atom, donor atom, acceptor molecule, acceptor atom, score
      L1  H    15    29       P1  8028  1.00
      P1  H  7997  8008       L1     7  0.96
      P1  H 10752 10763       L1     4  1.00
      L1  C    11    25       P1  8028  1.00

> <Gold.PLP.Chemscore.Internal.Correction>
0.0300

> <Gold.Rescore>
     Score         DG    S(hbond)    S(metal)    S(lipo)     H(rot)  DE(clash)    DE(int)     intcor
     14.76     -19.25       2.39        0.00      99.43       2.28       3.27       1.21       ----

> <Gold.Chemscore.Fitness>
14.7588

> <Gold.Chemscore.DG>
-19.2456

> <Gold.Chemscore.ZeroCoef>
-5.4800

> <Gold.Chemscore.Hbond>
2.3877

> <Gold.Chemscore.Metal>
0.0000

> <Gold.Chemscore.Lipo>
99.4327

> <Gold.Chemscore.Internal_Hbond>
0.0000

> <Gold.Chemscore.DEClash>
3.2729

> <Gold.Chemscore.DEInternal>
1.2139

> <Gold.Chemscore.Rot>
2.2824

> <Gold.Chemscore.Internal.Correction>
   9.000000E+99

> <Gold.Chemscore.Hbonds>
donor molecule, donor type, donor heavy atom, donor atom, acceptor molecule, acceptor atom, score
      L1  H    15    29       P1  8028  0.70
      P1  H  7997  8008       L1     7  0.59
      P1  H 10752 10763       L1     4  0.82

> <Gold.Chemscore.Hbond.Weighted>
-7.9750

> <Gold.Chemscore.Metal.Weighted>
-0.0000

> <Gold.Chemscore.Lipo.Weighted>
-11.6336

> <Gold.Chemscore.Internal_Hbond.Weighted>
0.0000

> <Gold.Chemscore.DEClash.Weighted>
3.2729

> <Gold.Chemscore.DEInternal.Weighted>
1.2139

> <Gold.Chemscore.Rot.Weighted>
5.8431

> <Gold.Chemscore.Internal.Correction.Weighted>
   9.000000E+99

> <Gold.Protein.RotatedTorsions>
[ 6907 6896 6895 6894 ] final -166.16 input  -60.11 | X-H torsion
[ 7974 7965 7964 7962 ] final  -46.93 input  175.53 | X-H torsion
[ 8008 7997 7996 7995 ] final  -67.62 input   59.86 | X-H torsion
[ 10167 10162 10161 10158 ] final   19.85 input  -65.29 | X-H torsion
[ 10718 10713 10712 10709 ] final  -55.78 input   66.30 | X-H torsion
[ 10763 10752 10751 10750 ] final   47.79 input  -60.55 | X-H torsion
[ 11005 11000 10999 10996 ] final   83.46 input  -57.11 | X-H torsion

> <Gold.Protein.ActiveResidues>
 VAL166  LYS551  ARG553  GLY616  TRP617  ASP618  TYR619  PRO620  LYS621  CYS622 
 ASP623  PHE694  ASN695  SER759  ASP760  ASP761  ALA762  ILE779  LEU786  VAL792 
 PHE793  MET794  SER795  GLU796  ALA797  LYS798  CYS799  TRP800  GLU811  SER814 

> <Gold.Protein.RotatedAtoms>
  151.4391  133.3648  159.2779 H   0  0  0  0  0  0  0  0  0  0  0  0  # atno 6907 bound_to 6896
  150.9170  134.8589  159.7474 H   0  0  0  0  0  0  0  0  0  0  0  0  # atno 6908 bound_to 6896
  152.4962  134.4326  159.9569 H   0  0  0  0  0  0  0  0  0  0  0  0  # atno 6909 bound_to 6896
  145.9668  140.7423  142.9430 H   0  0  0  0  0  0  0  0  0  0  0  0  # atno 7974 bound_to 7965
  154.4812  140.0889  156.7381 H   0  0  0  0  0  0  0  0  0  0  0  0  # atno 8008 bound_to 7997
  155.4466  140.3456  155.4277 H   0  0  0  0  0  0  0  0  0  0  0  0  # atno 8009 bound_to 7997
  156.1194  140.1470  156.9214 H   0  0  0  0  0  0  0  0  0  0  0  0  # atno 8010 bound_to 7997
  140.5548  143.9444  150.6602 H   0  0  0  0  0  0  0  0  0  0  0  0  # atno 10167 bound_to 10162
  156.1341  130.4158  150.0216 H   0  0  0  0  0  0  0  0  0  0  0  0  # atno 10718 bound_to 10713
  152.9797  135.5965  154.3820 H   0  0  0  0  0  0  0  0  0  0  0  0  # atno 10763 bound_to 10752
  154.3483  135.2767  155.2387 H   0  0  0  0  0  0  0  0  0  0  0  0  # atno 10764 bound_to 10752
  154.4438  135.6006  153.6201 H   0  0  0  0  0  0  0  0  0  0  0  0  # atno 10765 bound_to 10752
  139.9030  134.8146  156.2313 H   0  0  0  0  0  0  0  0  0  0  0  0  # atno 11005 bound_to 11000
  144.6827  140.2683  143.7309 LP  0  0  0  0  0  0  0  0  0  0  0  0  # atno 17320 bound_to 7965
  145.7962  139.1946  143.2074 LP  0  0  0  0  0  0  0  0  0  0  0  0  # atno 17321 bound_to 7965
  140.2879  143.3344  152.1090 LP  0  0  0  0  0  0  0  0  0  0  0  0  # atno 17342 bound_to 10162
  139.5043  144.6773  151.6097 LP  0  0  0  0  0  0  0  0  0  0  0  0  # atno 17343 bound_to 10162
  156.8120  130.9328  151.3644 LP  0  0  0  0  0  0  0  0  0  0  0  0  # atno 17370 bound_to 10713
  157.6516  130.8889  149.9644 LP  0  0  0  0  0  0  0  0  0  0  0  0  # atno 17371 bound_to 10713
  141.0344  133.6971  156.1486 LP  0  0  0  0  0  0  0  0  0  0  0  0  # atno 17394 bound_to 11000
  140.7049  134.4524  157.5584 LP  0  0  0  0  0  0  0  0  0  0  0  0  # atno 17395 bound_to 11000

$$$$
