AV-unprocessed.smi:1783|AV-procd|sdf|7192|dock4
  -GOLD-   22720 8433D 1   1.00000     0.00000
 Structure written by MMmdl.
 30 31  0  0  0  0  0  0  0  0  1 V2000
  151.6956  141.7361  158.2886 O   0  0  0  0  0  0  0  0  0  0  0  0
  151.0011  142.4782  157.5941 C   0  0  0  0  0  0  0  0  0  0  0  0
  150.3924  142.1241  156.4449 N   0  0  0  0  0  0  0  0  0  0  0  0
  150.3747  140.8840  155.7834 C   0  0  0  0  0  0  0  0  0  0  0  0
  150.8944  139.7286  156.2755 C   0  0  0  0  0  0  0  0  0  0  0  0
  150.8381  138.4795  155.5347 C   0  0  0  0  0  0  0  0  0  0  0  0
  151.3768  137.1835  156.1208 C   0  0  0  0  0  0  0  0  0  0  0  0
  151.2078  136.1622  155.2797 F   0  0  0  0  0  0  0  0  0  0  0  0
  152.6801  137.3059  156.3686 F   0  0  0  0  0  0  0  0  0  0  0  0
  150.7635  136.8874  157.2668 F   0  0  0  0  0  0  0  0  0  0  0  0
  150.2158  138.5164  154.3422 C   0  0  0  0  0  0  0  0  0  0  0  0
  149.6787  139.6988  153.8289 N   0  0  0  0  0  0  0  0  0  0  0  0
  149.7115  140.8892  154.4688 C   0  0  0  0  0  0  0  0  0  0  0  0
  149.2091  141.8861  153.9510 O   0  0  0  0  0  0  0  0  0  0  0  0
  150.7873  143.9342  158.0252 C   0  0  2  0  0  0  0  0  0  0  0  0
  152.0812  144.7682  158.0926 C   0  0  0  0  0  0  0  0  0  0  0  0
  152.2589  145.0419  159.5738 C   0  0  0  0  0  0  0  0  0  0  0  0
  150.8220  145.0141  160.0731 C   0  0  0  0  0  0  0  0  0  0  0  0
  150.2577  143.9328  159.3491 O   0  0  0  0  0  0  0  0  0  0  0  0
  149.2357  139.6461  152.9230 H   0  0  0  0  0  0  0  0  0  0  0  0
  149.8994  142.8612  155.9615 H   0  0  0  0  0  0  0  0  0  0  0  0
  151.3617  139.6957  157.2455 H   0  0  0  0  0  0  0  0  0  0  0  0
  150.0783  137.6588  153.7000 H   0  0  0  0  0  0  0  0  0  0  0  0
  150.0733  144.4246  157.3613 H   0  0  0  0  0  0  0  0  0  0  0  0
  152.9547  144.2768  157.6618 H   0  0  0  0  0  0  0  0  0  0  0  0
  151.9398  145.7064  157.5547 H   0  0  0  0  0  0  0  0  0  0  0  0
  152.8299  144.2369  160.0381 H   0  0  0  0  0  0  0  0  0  0  0  0
  152.7655  145.9854  159.7782 H   0  0  0  0  0  0  0  0  0  0  0  0
  150.7500  144.8589  161.1496 H   0  0  0  0  0  0  0  0  0  0  0  0
  150.3012  145.9386  159.8189 H   0  0  0  0  0  0  0  0  0  0  0  0
  1  2  2  0  0  0  0
  2  3  1  0  0  0  0
  2 15  1  0  0  0  0
  3  4  1  0  0  0  0
  3 21  1  0  0  0  0
  4 13  1  0  0  0  0
  4  5  2  0  0  0  0
  5  6  1  0  0  0  0
  5 22  1  0  0  0  0
  6  7  1  0  0  0  0
  6 11  2  0  0  0  0
  7  8  1  0  0  0  0
  7  9  1  0  0  0  0
  7 10  1  0  0  0  0
 11 12  1  0  0  0  0
 11 23  1  0  0  0  0
 12 20  1  0  0  0  0
 12 13  1  0  0  0  0
 13 14  2  0  0  0  0
 15 19  1  0  0  0  0
 15 16  1  0  0  0  0
 15 24  1  0  0  0  0
 16 17  1  0  0  0  0
 16 25  1  0  0  0  0
 16 26  1  0  0  0  0
 17 18  1  0  0  0  0
 17 27  1  0  0  0  0
 17 28  1  0  0  0  0
 18 19  1  0  0  0  0
 18 29  1  0  0  0  0
 18 30  1  0  0  0  0
M  END
> <s_m_source_file>
AV-unprocessed.smi

> <i_m_source_file_index>
1783

> <i_lp_mmshare_version>
43012

> <i_f3d_flags>
0

> <s_epik_input>
TzFbQ0gyXVtDSDJdW0NIMl1bQ0BIXTFDKD1PKVtOSF1jMltjSF1jKEMoRikoRilGKVtjSF1bbkhdYzI9Tw==

> <s_epik_cmdline>
J2VwaWtfcHl0aG9uJywgJy1waCcsICc3LjAnLCAnLXRuJywgJzgnLCAnLW1hJywgJzIwMCcsICctbWV0YWxfYmluZGluZycsICctaW1hZScsICc8aW5maWxlLm1hZT4nLCAnLW9tYWUnLCAnPG91dGZpbGUubWFlPic=

> <r_lp_tautomer_probability>
0.999

> <r_epik_Ionization_Penalty>
0.00885957

> <r_epik_Ionization_Penalty_Charging>
0.00885947

> <r_epik_Ionization_Penalty_Neutral>
9.33956e-08

> <r_epik_State_Penalty>
0.00669851

> <r_epik_Charging_Adjusted_Penalty>
0.015558

> <i_epik_Tot_Q>
0

> <i_epik_Tot_abs_Q>
0

> <r_epik_Metal_State_Penalty>
0.320804

> <b_epik_Metal_Only>
0

> <s_lp_Force_Field>
OPLS_2005

> <r_lp_Energy>
32.169

> <b_lp_Chiralities_Consistent>
1

> <s_lp_Variant>
AV-unprocessed.smi:1783-1

> <Gold.Version>
5.8.1

> <Gold.Id.Protein>
6NUR|6NUR_protein|mol2

> <Gold.PLP.Fitness>
40.6471

> <Gold.PLP.PLP>
-32.6652

> <Gold.PLP.part.hbond>
-3.6937

> <Gold.PLP.part.metal>
0.0000

> <Gold.PLP.part.buried>
-1.0919

> <Gold.PLP.part.nonpolar>
-27.3923

> <Gold.PLP.part.repulsive>
0.5644

> <Gold.PLP.ligand.clash>
1.0404

> <Gold.PLP.ligand.torsion>
0.0491

> <Gold.PLP.Chemscore.Hbond>
2.0275

> <Gold.PLP.Chemscore.CHOScore>
1.0000

> <Gold.PLP.Chemscore.Metal>
0.0000

> <Gold.Chemscore.Hbonds>
donor molecule, donor type, donor heavy atom, donor atom, acceptor molecule, acceptor atom, score
      L1  H     3    21       P1  8028  0.73
      L1  H    12    20       P1  7957  0.78
      P1  H  8011  8017       L1    14  0.50
      L1  C    11    23       P1  7948  0.97

> <Gold.PLP.Chemscore.Internal.Correction>
0.0380

> <Gold.Rescore>
     Score         DG    S(hbond)    S(metal)    S(lipo)     H(rot)  DE(clash)    DE(int)     intcor
     16.78     -18.53       2.08        0.00      74.04       1.00       0.43       1.32       ----

> <Gold.Chemscore.Fitness>
16.7771

> <Gold.Chemscore.DG>
-18.5317

> <Gold.Chemscore.ZeroCoef>
-5.4800

> <Gold.Chemscore.Hbond>
2.0804

> <Gold.Chemscore.Metal>
0.0000

> <Gold.Chemscore.Lipo>
74.0439

> <Gold.Chemscore.Internal_Hbond>
0.0000

> <Gold.Chemscore.DEClash>
0.4302

> <Gold.Chemscore.DEInternal>
1.3245

> <Gold.Chemscore.Rot>
1.0000

> <Gold.Chemscore.Internal.Correction>
   9.000000E+99

> <Gold.Chemscore.Hbonds>
donor molecule, donor type, donor heavy atom, donor atom, acceptor molecule, acceptor atom, score
      L1  H     3    21       P1  8028  0.72
      L1  H    12    20       P1  7957  0.78
      P1  H  8011  8017       L1    14  0.48

> <Gold.Chemscore.Hbond.Weighted>
-6.9486

> <Gold.Chemscore.Metal.Weighted>
-0.0000

> <Gold.Chemscore.Lipo.Weighted>
-8.6631

> <Gold.Chemscore.Internal_Hbond.Weighted>
0.0000

> <Gold.Chemscore.DEClash.Weighted>
0.4302

> <Gold.Chemscore.DEInternal.Weighted>
1.3245

> <Gold.Chemscore.Rot.Weighted>
2.5600

> <Gold.Chemscore.Internal.Correction.Weighted>
   9.000000E+99

> <Gold.Protein.RotatedTorsions>
[ 6907 6896 6895 6894 ] final  141.52 input  -60.11 | X-H torsion
[ 7974 7965 7964 7962 ] final -169.72 input  175.53 | X-H torsion
[ 8008 7997 7996 7995 ] final -162.05 input   59.86 | X-H torsion
[ 10167 10162 10161 10158 ] final   -7.42 input  -65.29 | X-H torsion
[ 10718 10713 10712 10709 ] final  -90.58 input   66.30 | X-H torsion
[ 10763 10752 10751 10750 ] final  -64.82 input  -60.55 | X-H torsion
[ 11005 11000 10999 10996 ] final  -90.30 input  -57.11 | X-H torsion

> <Gold.Protein.ActiveResidues>
 VAL166  LYS551  ARG553  GLY616  TRP617  ASP618  TYR619  PRO620  LYS621  CYS622 
 ASP623  PHE694  ASN695  SER759  ASP760  ASP761  ALA762  ILE779  LEU786  VAL792 
 PHE793  MET794  SER795  GLU796  ALA797  LYS798  CYS799  TRP800  GLU811  SER814 

> <Gold.Protein.RotatedAtoms>
  152.2300  133.5051  159.5210 H   0  0  0  0  0  0  0  0  0  0  0  0  # atno 6907 bound_to 6896
  150.7035  134.1229  159.4050 H   0  0  0  0  0  0  0  0  0  0  0  0  # atno 6908 bound_to 6896
  151.9150  135.0322  160.0568 H   0  0  0  0  0  0  0  0  0  0  0  0  # atno 6909 bound_to 6896
  144.7181  140.2179  143.6319 H   0  0  0  0  0  0  0  0  0  0  0  0  # atno 7974 bound_to 7965
  155.8011  140.0892  157.1956 H   0  0  0  0  0  0  0  0  0  0  0  0  # atno 8008 bound_to 7997
  154.3982  140.1472  156.3335 H   0  0  0  0  0  0  0  0  0  0  0  0  # atno 8009 bound_to 7997
  155.8461  140.3436  155.5666 H   0  0  0  0  0  0  0  0  0  0  0  0  # atno 8010 bound_to 7997
  140.7028  143.6082  150.8730 H   0  0  0  0  0  0  0  0  0  0  0  0  # atno 10167 bound_to 10162
  155.9988  130.4915  150.5344 H   0  0  0  0  0  0  0  0  0  0  0  0  # atno 10718 bound_to 10713
  154.3358  135.6167  153.5573 H   0  0  0  0  0  0  0  0  0  0  0  0  # atno 10763 bound_to 10752
  152.9808  135.5757  154.4910 H   0  0  0  0  0  0  0  0  0  0  0  0  # atno 10764 bound_to 10752
  154.4604  135.2856  155.1693 H   0  0  0  0  0  0  0  0  0  0  0  0  # atno 10765 bound_to 10752
  141.1568  133.7683  156.9718 H   0  0  0  0  0  0  0  0  0  0  0  0  # atno 11005 bound_to 11000
  145.8529  139.2184  143.1762 LP  0  0  0  0  0  0  0  0  0  0  0  0  # atno 17320 bound_to 7965
  146.0244  140.8317  142.9907 LP  0  0  0  0  0  0  0  0  0  0  0  0  # atno 17321 bound_to 7965
  139.9806  143.5956  152.2944 LP  0  0  0  0  0  0  0  0  0  0  0  0  # atno 17342 bound_to 10162
  139.6575  144.7662  151.2027 LP  0  0  0  0  0  0  0  0  0  0  0  0  # atno 17343 bound_to 10162
  157.3289  131.0696  151.1876 LP  0  0  0  0  0  0  0  0  0  0  0  0  # atno 17370 bound_to 10713
  157.2763  130.6728  149.6044 LP  0  0  0  0  0  0  0  0  0  0  0  0  # atno 17371 bound_to 10713
  140.1124  134.9468  157.2085 LP  0  0  0  0  0  0  0  0  0  0  0  0  # atno 17394 bound_to 11000
  140.3176  134.2952  155.7253 LP  0  0  0  0  0  0  0  0  0  0  0  0  # atno 17395 bound_to 11000

$$$$
