AV-unprocessed.smi:3042|AV-procd|sdf|11600|dock6
  -GOLD-   2272016583D 1   1.00000     0.00000
 Structure written by MMmdl.
 33 34  0  0  0  0  0  0  0  0  2 V2000
  150.4861  143.2214  157.3525 N   0  3  0  0  0  0  0  0  0  0  0  0
  151.1422  142.3376  156.3714 C   0  0  0  0  0  0  0  0  0  0  0  0
  150.3459  141.0271  156.1414 C   0  0  1  0  0  0  0  0  0  0  0  0
  148.9512  141.3840  155.6283 C   0  0  0  0  0  0  0  0  0  0  0  0
  148.6628  141.4199  154.2459 C   0  0  0  0  0  0  0  0  0  0  0  0
  147.3625  141.7642  153.8305 C   0  0  0  0  0  0  0  0  0  0  0  0
  146.3987  142.0557  154.8157 C   0  0  0  0  0  0  0  0  0  0  0  0
  146.6610  142.0246  156.1399 N   0  0  0  0  0  0  0  0  0  0  0  0
  147.9095  141.6922  156.5305 C   0  0  0  0  0  0  0  0  0  0  0  0
  151.0152  140.0531  155.2539 N   0  0  0  0  0  0  0  0  0  0  0  0
  150.1880  138.8624  155.0237 C   0  0  0  0  0  0  0  0  0  0  0  0
  150.8701  137.8389  154.1004 C   0  0  0  0  0  0  0  0  0  0  0  0
  152.1245  137.4629  154.6539 O   0  0  0  0  0  0  0  0  0  0  0  0
  152.9882  138.5765  154.8398 C   0  0  0  0  0  0  0  0  0  0  0  0
  152.3158  139.6081  155.7629 C   0  0  0  0  0  0  0  0  0  0  0  0
  151.1822  143.7869  157.8167 H   0  0  0  0  0  0  0  0  0  0  0  0
  149.9955  142.6626  158.0359 H   0  0  0  0  0  0  0  0  0  0  0  0
  151.2693  142.8831  155.4357 H   0  0  0  0  0  0  0  0  0  0  0  0
  152.1380  142.1379  156.7640 H   0  0  0  0  0  0  0  0  0  0  0  0
  150.2182  140.5551  157.1171 H   0  0  0  0  0  0  0  0  0  0  0  0
  149.4245  141.1886  153.5158 H   0  0  0  0  0  0  0  0  0  0  0  0
  147.1086  141.8025  152.7813 H   0  0  0  0  0  0  0  0  0  0  0  0
  145.3913  142.3224  154.5324 H   0  0  0  0  0  0  0  0  0  0  0  0
  148.0832  141.6779  157.5965 H   0  0  0  0  0  0  0  0  0  0  0  0
  149.9557  138.3852  155.9770 H   0  0  0  0  0  0  0  0  0  0  0  0
  149.2336  139.1364  154.5749 H   0  0  0  0  0  0  0  0  0  0  0  0
  150.2474  136.9504  153.9955 H   0  0  0  0  0  0  0  0  0  0  0  0
  151.0114  138.2521  153.1004 H   0  0  0  0  0  0  0  0  0  0  0  0
  153.9248  138.2308  155.2771 H   0  0  0  0  0  0  0  0  0  0  0  0
  153.2317  139.0228  153.8741 H   0  0  0  0  0  0  0  0  0  0  0  0
  152.9995  140.4498  155.8573 H   0  0  0  0  0  0  0  0  0  0  0  0
  152.1973  139.1798  156.7594 H   0  0  0  0  0  0  0  0  0  0  0  0
  149.8286  143.8211  156.8744 H   0  0  0  0  0  0  0  0  0  0  0  0
  1  2  1  0  0  0  0
  1 16  1  0  0  0  0
  1 17  1  0  0  0  0
  1 33  1  0  0  0  0
  2  3  1  0  0  0  0
  2 18  1  0  0  0  0
  2 19  1  0  0  0  0
  3  4  1  0  0  0  0
  3 10  1  0  0  0  0
  3 20  1  0  0  0  0
  4  9  1  0  0  0  0
  4  5  2  0  0  0  0
  5  6  1  0  0  0  0
  5 21  1  0  0  0  0
  6  7  2  0  0  0  0
  6 22  1  0  0  0  0
  7  8  1  0  0  0  0
  7 23  1  0  0  0  0
  8  9  2  0  0  0  0
  9 24  1  0  0  0  0
 10 15  1  0  0  0  0
 10 11  1  0  0  0  0
 11 12  1  0  0  0  0
 11 25  1  0  0  0  0
 11 26  1  0  0  0  0
 12 13  1  0  0  0  0
 12 27  1  0  0  0  0
 12 28  1  0  0  0  0
 13 14  1  0  0  0  0
 14 15  1  0  0  0  0
 14 29  1  0  0  0  0
 14 30  1  0  0  0  0
 15 31  1  0  0  0  0
 15 32  1  0  0  0  0
M  CHG  1   1   1
M  END
> <s_m_source_file>
AV-unprocessed.smi

> <i_m_source_file_index>
3042

> <i_lp_mmshare_version>
43012

> <i_f3d_flags>
0

> <s_epik_input>
W0NIMl0xW0NIMl1PW0NIMl1bQ0gyXU4xW0NASF0oW0NIMl1bTkgyXSljMltjSF1bY0hdW2NIXW5bY0hdMg==

> <s_epik_cmdline>
J2VwaWtfcHl0aG9uJywgJy1waCcsICc3LjAnLCAnLXRuJywgJzgnLCAnLW1hJywgJzIwMCcsICctbWV0YWxfYmluZGluZycsICctaW1hZScsICc8aW5maWxlLm1hZT4nLCAnLW9tYWUnLCAnPG91dGZpbGUubWFlPic=

> <r_epik_Ionization_Penalty>
0.0112597

> <r_epik_Ionization_Penalty_Charging>
0.00794922

> <r_epik_Ionization_Penalty_Neutral>
0.00331052

> <r_epik_State_Penalty>
0.00596555

> <r_epik_Charging_Adjusted_Penalty>
0.0139148

> <i_epik_Tot_Q>
1

> <i_epik_Tot_abs_Q>
1

> <r_epik_Metal_State_Penalty>
0.00603286

> <b_epik_Metal_Only>
0

> <s_lp_Force_Field>
OPLS_2005

> <r_lp_Energy>
28.2789

> <b_lp_Chiralities_Consistent>
1

> <s_lp_Variant>
AV-unprocessed.smi:3042-2

> <Gold.Version>
5.8.1

> <Gold.Id.Protein>
6NUR|6NUR_protein|mol2

> <Gold.PLP.Fitness>
39.5583

> <Gold.PLP.PLP>
-29.7276

> <Gold.PLP.part.hbond>
-3.0000

> <Gold.PLP.part.metal>
0.0000

> <Gold.PLP.part.buried>
-3.4899

> <Gold.PLP.part.nonpolar>
-23.6093

> <Gold.PLP.part.repulsive>
0.2637

> <Gold.PLP.ligand.clash>
0.0000

> <Gold.PLP.ligand.torsion>
0.7470

> <Gold.PLP.Chemscore.Hbond>
3.7500

> <Gold.PLP.Chemscore.CHOScore>
0.0000

> <Gold.PLP.Chemscore.Metal>
0.0000

> <Gold.Chemscore.Hbonds>
donor molecule, donor type, donor heavy atom, donor atom, acceptor molecule, acceptor atom, score
      L1  H     1    33       P1  8028  2.00
      P1  H  7989  7998       L1    10  0.90
      P1  H 10752 10763       L1    13  0.80

> <Gold.PLP.Chemscore.Internal.Correction>
0.0748

> <Gold.Rescore>
     Score         DG    S(hbond)    S(metal)    S(lipo)     H(rot)  DE(clash)    DE(int)     intcor
     15.89     -17.45       1.99        0.00      77.96       1.48       0.84       0.72       ----

> <Gold.Chemscore.Fitness>
15.8852

> <Gold.Chemscore.DG>
-17.4499

> <Gold.Chemscore.ZeroCoef>
-5.4800

> <Gold.Chemscore.Hbond>
1.9908

> <Gold.Chemscore.Metal>
0.0000

> <Gold.Chemscore.Lipo>
77.9592

> <Gold.Chemscore.Internal_Hbond>
0.0000

> <Gold.Chemscore.DEClash>
0.8413

> <Gold.Chemscore.DEInternal>
0.7235

> <Gold.Chemscore.Rot>
1.4846

> <Gold.Chemscore.Internal.Correction>
   9.000000E+99

> <Gold.Chemscore.Hbonds>
donor molecule, donor type, donor heavy atom, donor atom, acceptor molecule, acceptor atom, score
      L1  H     1    33       P1  8028  0.98
      P1  H  7989  7998       L1    10  0.12
      P1  H 10752 10763       L1    13  0.73

> <Gold.Chemscore.Hbond.Weighted>
-6.6492

> <Gold.Chemscore.Metal.Weighted>
-0.0000

> <Gold.Chemscore.Lipo.Weighted>
-9.1212

> <Gold.Chemscore.Internal_Hbond.Weighted>
0.0000

> <Gold.Chemscore.DEClash.Weighted>
0.8413

> <Gold.Chemscore.DEInternal.Weighted>
0.7235

> <Gold.Chemscore.Rot.Weighted>
3.8005

> <Gold.Chemscore.Internal.Correction.Weighted>
   9.000000E+99

> <Gold.Protein.RotatedTorsions>
[ 6907 6896 6895 6894 ] final -170.09 input  -60.11 | X-H torsion
[ 7974 7965 7964 7962 ] final   69.45 input  175.53 | X-H torsion
[ 8008 7997 7996 7995 ] final   38.63 input   59.86 | X-H torsion
[ 10167 10162 10161 10158 ] final   91.32 input  -65.29 | X-H torsion
[ 10718 10713 10712 10709 ] final  -57.74 input   66.30 | X-H torsion
[ 10763 10752 10751 10750 ] final   42.88 input  -60.55 | X-H torsion
[ 11005 11000 10999 10996 ] final   90.68 input  -57.11 | X-H torsion

> <Gold.Protein.ActiveResidues>
 VAL166  LYS551  ARG553  GLY616  TRP617  ASP618  TYR619  PRO620  LYS621  CYS622 
 ASP623  PHE694  ASN695  SER759  ASP760  ASP761  ALA762  ILE779  LEU786  VAL792 
 PHE793  MET794  SER795  GLU796  ALA797  LYS798  CYS799  TRP800  GLU811  SER814 

> <Gold.Protein.RotatedAtoms>
  151.5020  133.3502  159.2870 H   0  0  0  0  0  0  0  0  0  0  0  0  # atno 6907 bound_to 6896
  150.8766  134.8153  159.7205 H   0  0  0  0  0  0  0  0  0  0  0  0  # atno 6908 bound_to 6896
  152.4735  134.4912  159.9748 H   0  0  0  0  0  0  0  0  0  0  0  0  # atno 6909 bound_to 6896
  145.7902  139.2930  143.1214 H   0  0  0  0  0  0  0  0  0  0  0  0  # atno 7974 bound_to 7965
  155.2234  140.3332  155.4312 H   0  0  0  0  0  0  0  0  0  0  0  0  # atno 8008 bound_to 7997
  156.2324  140.1856  156.7255 H   0  0  0  0  0  0  0  0  0  0  0  0  # atno 8009 bound_to 7997
  154.6001  140.0624  156.9341 H   0  0  0  0  0  0  0  0  0  0  0  0  # atno 8010 bound_to 7997
  139.8386  144.6652  150.9311 H   0  0  0  0  0  0  0  0  0  0  0  0  # atno 10167 bound_to 10162
  156.1188  130.4168  150.0481 H   0  0  0  0  0  0  0  0  0  0  0  0  # atno 10718 bound_to 10713
  152.9873  135.6118  154.3021 H   0  0  0  0  0  0  0  0  0  0  0  0  # atno 10763 bound_to 10752
  154.2741  135.2779  155.2727 H   0  0  0  0  0  0  0  0  0  0  0  0  # atno 10764 bound_to 10752
  154.5096  135.5844  153.6651 H   0  0  0  0  0  0  0  0  0  0  0  0  # atno 10765 bound_to 10752
  139.8852  134.8628  156.3319 H   0  0  0  0  0  0  0  0  0  0  0  0  # atno 11005 bound_to 11000
  145.9984  140.8542  143.0031 LP  0  0  0  0  0  0  0  0  0  0  0  0  # atno 17320 bound_to 7965
  144.6783  140.2317  143.7354 LP  0  0  0  0  0  0  0  0  0  0  0  0  # atno 17321 bound_to 7965
  140.7800  143.3933  151.1272 LP  0  0  0  0  0  0  0  0  0  0  0  0  # atno 17342 bound_to 10162
  139.7581  143.8676  152.3094 LP  0  0  0  0  0  0  0  0  0  0  0  0  # atno 17343 bound_to 10162
  156.8425  130.9431  151.3631 LP  0  0  0  0  0  0  0  0  0  0  0  0  # atno 17370 bound_to 10713
  157.6371  130.8776  149.9380 LP  0  0  0  0  0  0  0  0  0  0  0  0  # atno 17371 bound_to 10713
  140.9717  133.7323  156.0544 LP  0  0  0  0  0  0  0  0  0  0  0  0  # atno 17394 bound_to 11000
  140.7862  134.3669  157.5475 LP  0  0  0  0  0  0  0  0  0  0  0  0  # atno 17395 bound_to 11000

$$$$
