AV-unprocessed.smi:2931|AV-procd|sdf|11244|dock2
  -GOLD-   2272016133D 1   1.00000     0.00000
 Structure written by MMmdl.
 42 43  0  0  0  0  0  0  0  0  2 V2000
  147.1089  132.9068  152.4675 C   0  0  0  0  0  0  0  0  0  0  0  0
  146.7037  134.3169  152.2868 N   0  3  1  0  0  0  0  0  0  0  0  0
  145.8846  134.5187  151.0651 C   0  0  0  0  0  0  0  0  0  0  0  0
  145.5792  136.0102  150.8386 C   0  0  0  0  0  0  0  0  0  0  0  0
  144.9330  136.6477  152.0816 C   0  0  0  0  0  0  0  0  0  0  0  0
  145.7851  136.3921  153.3378 C   0  0  2  0  0  0  0  0  0  0  0  0
  147.0370  137.1427  153.2449 N   0  0  0  0  0  0  0  0  0  0  0  0
  147.3108  138.2801  153.8976 C   0  0  0  0  0  0  0  0  0  0  0  0
  146.5118  138.8681  154.6257 O   0  0  0  0  0  0  0  0  0  0  0  0
  148.5767  138.6697  153.6983 N   0  0  0  0  0  0  0  0  0  0  0  0
  149.2295  139.7848  154.3777 C   0  0  0  0  0  0  0  0  0  0  0  0
  150.4501  139.3511  155.2176 C   0  0  0  0  0  0  0  0  0  0  0  0
  150.8569  140.3624  156.2774 C   0  0  0  0  0  0  0  0  0  0  0  0
  150.3802  141.6896  156.2291 C   0  0  0  0  0  0  0  0  0  0  0  0
  150.7787  142.5837  157.2427 C   0  0  0  0  0  0  0  0  0  0  0  0
  151.5871  142.2335  158.2652 N   0  0  0  0  0  0  0  0  0  0  0  0
  152.0419  140.9623  158.3038 C   0  0  0  0  0  0  0  0  0  0  0  0
  151.7080  139.9911  157.3384 C   0  0  0  0  0  0  0  0  0  0  0  0
  146.0390  134.8747  153.4913 C   0  0  0  0  0  0  0  0  0  0  0  0
  146.2386  132.2633  152.6026 H   0  0  0  0  0  0  0  0  0  0  0  0
  147.7531  132.7998  153.3407 H   0  0  0  0  0  0  0  0  0  0  0  0
  147.6658  132.5533  151.5993 H   0  0  0  0  0  0  0  0  0  0  0  0
  146.4153  134.1205  150.1995 H   0  0  0  0  0  0  0  0  0  0  0  0
  144.9540  133.9556  151.1531 H   0  0  0  0  0  0  0  0  0  0  0  0
  146.5014  136.5367  150.5896 H   0  0  0  0  0  0  0  0  0  0  0  0
  144.9208  136.1276  149.9774 H   0  0  0  0  0  0  0  0  0  0  0  0
  144.7896  137.7178  151.9264 H   0  0  0  0  0  0  0  0  0  0  0  0
  143.9383  136.2242  152.2275 H   0  0  0  0  0  0  0  0  0  0  0  0
  145.2362  136.7534  154.2092 H   0  0  0  0  0  0  0  0  0  0  0  0
  147.7609  136.7466  152.6632 H   0  0  0  0  0  0  0  0  0  0  0  0
  149.1523  138.1209  153.0764 H   0  0  0  0  0  0  0  0  0  0  0  0
  149.5564  140.4795  153.6034 H   0  0  0  0  0  0  0  0  0  0  0  0
  148.5119  140.3268  154.9951 H   0  0  0  0  0  0  0  0  0  0  0  0
  150.2422  138.3967  155.7026 H   0  0  0  0  0  0  0  0  0  0  0  0
  151.2999  139.1705  154.5581 H   0  0  0  0  0  0  0  0  0  0  0  0
  149.7240  142.0173  155.4360 H   0  0  0  0  0  0  0  0  0  0  0  0
  150.4340  143.6070  157.2352 H   0  0  0  0  0  0  0  0  0  0  0  0
  152.6896  140.7105  159.1305 H   0  0  0  0  0  0  0  0  0  0  0  0
  152.0945  138.9852  157.4150 H   0  0  0  0  0  0  0  0  0  0  0  0
  145.0946  134.3536  153.6569 H   0  0  0  0  0  0  0  0  0  0  0  0
  146.6536  134.6803  154.3711 H   0  0  0  0  0  0  0  0  0  0  0  0
  147.5548  134.8456  152.1586 H   0  0  0  0  0  0  0  0  0  0  0  0
  1  2  1  0  0  0  0
  1 20  1  0  0  0  0
  1 21  1  0  0  0  0
  1 22  1  0  0  0  0
  2 19  1  0  0  0  0
  2  3  1  0  0  0  0
  2 42  1  0  0  0  0
  3  4  1  0  0  0  0
  3 23  1  0  0  0  0
  3 24  1  0  0  0  0
  4  5  1  0  0  0  0
  4 25  1  0  0  0  0
  4 26  1  0  0  0  0
  5  6  1  0  0  0  0
  5 27  1  0  0  0  0
  5 28  1  0  0  0  0
  6  7  1  0  0  0  0
  6 19  1  0  0  0  0
  6 29  1  0  0  0  0
  7  8  1  0  0  0  0
  7 30  1  0  0  0  0
  8  9  2  0  0  0  0
  8 10  1  0  0  0  0
 10 11  1  0  0  0  0
 10 31  1  0  0  0  0
 11 12  1  0  0  0  0
 11 32  1  0  0  0  0
 11 33  1  0  0  0  0
 12 13  1  0  0  0  0
 12 34  1  0  0  0  0
 12 35  1  0  0  0  0
 13 18  1  0  0  0  0
 13 14  2  0  0  0  0
 14 15  1  0  0  0  0
 14 36  1  0  0  0  0
 15 16  2  0  0  0  0
 15 37  1  0  0  0  0
 16 17  1  0  0  0  0
 17 18  2  0  0  0  0
 17 38  1  0  0  0  0
 18 39  1  0  0  0  0
 19 40  1  0  0  0  0
 19 41  1  0  0  0  0
M  CHG  1   2   1
M  END
> <s_m_source_file>
AV-unprocessed.smi

> <i_m_source_file_index>
2931

> <i_lp_mmshare_version>
43012

> <i_f3d_flags>
0

> <s_epik_input>
W0NIM11OMVtDSDJdW0NIMl1bQ0gyXVtDQEhdKFtDSDJdMSlbTkhdQyg9TylbTkhdW0NIMl1bQ0gyXWMyW2NIXVtjSF1uW2NIXVtjSF0y

> <s_epik_cmdline>
J2VwaWtfcHl0aG9uJywgJy1waCcsICc3LjAnLCAnLXRuJywgJzgnLCAnLW1hJywgJzIwMCcsICctbWV0YWxfYmluZGluZycsICctaW1hZScsICc8aW5maWxlLm1hZT4nLCAnLW9tYWUnLCAnPG91dGZpbGUubWFlPic=

> <r_epik_Ionization_Penalty>
0.0573876

> <r_epik_Ionization_Penalty_Charging>
0.00229982

> <r_epik_Ionization_Penalty_Neutral>
0.0550878

> <r_epik_State_Penalty>
0.0473925

> <r_epik_Charging_Adjusted_Penalty>
0.0496923

> <i_epik_Tot_Q>
1

> <i_epik_Tot_abs_Q>
1

> <r_epik_Metal_State_Penalty>
0.0433388

> <b_epik_Metal_Only>
0

> <s_lp_Force_Field>
OPLS_2005

> <r_lp_Energy>
20.0995

> <b_lp_Chiralities_Consistent>
1

> <s_lp_Variant>
AV-unprocessed.smi:2931-3

> <Gold.Version>
5.8.1

> <Gold.Id.Protein>
6NUR|6NUR_protein|mol2

> <Gold.PLP.Fitness>
43.3651

> <Gold.PLP.PLP>
-31.3154

> <Gold.PLP.part.hbond>
-3.8267

> <Gold.PLP.part.metal>
0.0000

> <Gold.PLP.part.buried>
-3.3274

> <Gold.PLP.part.nonpolar>
-25.3348

> <Gold.PLP.part.repulsive>
0.1916

> <Gold.PLP.ligand.clash>
0.0000

> <Gold.PLP.ligand.torsion>
0.5067

> <Gold.PLP.Chemscore.Hbond>
3.3480

> <Gold.PLP.Chemscore.CHOScore>
1.0000

> <Gold.PLP.Chemscore.Metal>
0.0000

> <Gold.Chemscore.Hbonds>
donor molecule, donor type, donor heavy atom, donor atom, acceptor molecule, acceptor atom, score
      L1  H     2    42       P1  7948  2.00
      L1  H     7    30       P1  7948  0.98
      L1  H    10    31       P1  7948  0.41
      L1  C    15    37       P1  8028  1.00

> <Gold.PLP.Chemscore.Internal.Correction>
0.0191

> <Gold.Rescore>
     Score         DG    S(hbond)    S(metal)    S(lipo)     H(rot)  DE(clash)    DE(int)     intcor
     17.57     -17.93       2.37        0.00      72.88       1.56       0.00       0.35       ----

> <Gold.Chemscore.Fitness>
17.5719

> <Gold.Chemscore.DG>
-17.9257

> <Gold.Chemscore.ZeroCoef>
-5.4800

> <Gold.Chemscore.Hbond>
2.3684

> <Gold.Chemscore.Metal>
0.0000

> <Gold.Chemscore.Lipo>
72.8791

> <Gold.Chemscore.Internal_Hbond>
0.0000

> <Gold.Chemscore.DEClash>
0.0004

> <Gold.Chemscore.DEInternal>
0.3534

> <Gold.Chemscore.Rot>
1.5592

> <Gold.Chemscore.Internal.Correction>
   9.000000E+99

> <Gold.Chemscore.Hbonds>
donor molecule, donor type, donor heavy atom, donor atom, acceptor molecule, acceptor atom, score
      L1  H     2    42       P1  7948  0.84
      L1  H     7    30       P1  7948  0.92
      L1  H    10    31       P1  7948  0.40

> <Gold.Chemscore.Hbond.Weighted>
-7.9104

> <Gold.Chemscore.Metal.Weighted>
-0.0000

> <Gold.Chemscore.Lipo.Weighted>
-8.5269

> <Gold.Chemscore.Internal_Hbond.Weighted>
0.0000

> <Gold.Chemscore.DEClash.Weighted>
0.0004

> <Gold.Chemscore.DEInternal.Weighted>
0.3534

> <Gold.Chemscore.Rot.Weighted>
3.9915

> <Gold.Chemscore.Internal.Correction.Weighted>
   9.000000E+99

> <Gold.Protein.RotatedTorsions>
[ 6907 6896 6895 6894 ] final -126.22 input  -60.11 | X-H torsion
[ 7974 7965 7964 7962 ] final  125.32 input  175.53 | X-H torsion
[ 8008 7997 7996 7995 ] final   31.28 input   59.86 | X-H torsion
[ 10167 10162 10161 10158 ] final  171.99 input  -65.29 | X-H torsion
[ 10718 10713 10712 10709 ] final -169.21 input   66.30 | X-H torsion
[ 10763 10752 10751 10750 ] final -130.45 input  -60.55 | X-H torsion
[ 11005 11000 10999 10996 ] final  149.91 input  -57.11 | X-H torsion

> <Gold.Protein.ActiveResidues>
 VAL166  LYS551  ARG553  GLY616  TRP617  ASP618  TYR619  PRO620  LYS621  CYS622 
 ASP623  PHE694  ASN695  SER759  ASP760  ASP761  ALA762  ILE779  LEU786  VAL792 
 PHE793  MET794  SER795  GLU796  ALA797  LYS798  CYS799  TRP800  GLU811  SER814 

> <Gold.Protein.RotatedAtoms>
  150.8946  133.7197  159.2894 H   0  0  0  0  0  0  0  0  0  0  0  0  # atno 6907 bound_to 6896
  151.4736  135.1046  159.9768 H   0  0  0  0  0  0  0  0  0  0  0  0  # atno 6908 bound_to 6896
  152.4841  133.8280  159.7144 H   0  0  0  0  0  0  0  0  0  0  0  0  # atno 6909 bound_to 6896
  145.0743  139.3706  143.4941 H   0  0  0  0  0  0  0  0  0  0  0  0  # atno 7974 bound_to 7965
  155.1040  140.3232  155.4539 H   0  0  0  0  0  0  0  0  0  0  0  0  # atno 8008 bound_to 7997
  156.2709  140.2056  156.6112 H   0  0  0  0  0  0  0  0  0  0  0  0  # atno 8009 bound_to 7997
  154.6807  140.0526  157.0250 H   0  0  0  0  0  0  0  0  0  0  0  0  # atno 8010 bound_to 7997
  139.5063  144.3424  152.0004 H   0  0  0  0  0  0  0  0  0  0  0  0  # atno 10167 bound_to 10162
  156.7082  130.9223  151.3086 H   0  0  0  0  0  0  0  0  0  0  0  0  # atno 10718 bound_to 10713
  154.8755  135.3862  154.4085 H   0  0  0  0  0  0  0  0  0  0  0  0  # atno 10763 bound_to 10752
  153.4801  135.7030  153.5948 H   0  0  0  0  0  0  0  0  0  0  0  0  # atno 10764 bound_to 10752
  153.4367  135.3866  155.2171 H   0  0  0  0  0  0  0  0  0  0  0  0  # atno 10765 bound_to 10752
  140.1086  134.8939  157.1902 H   0  0  0  0  0  0  0  0  0  0  0  0  # atno 11005 bound_to 11000
  146.3529  140.0503  142.8636 LP  0  0  0  0  0  0  0  0  0  0  0  0  # atno 17320 bound_to 7965
  145.1255  140.9487  143.4575 LP  0  0  0  0  0  0  0  0  0  0  0  0  # atno 17321 bound_to 7965
  140.2862  144.3805  150.6103 LP  0  0  0  0  0  0  0  0  0  0  0  0  # atno 17342 bound_to 10162
  140.5981  143.2167  151.7125 LP  0  0  0  0  0  0  0  0  0  0  0  0  # atno 17343 bound_to 10162
  157.6946  130.9269  150.0609 LP  0  0  0  0  0  0  0  0  0  0  0  0  # atno 17370 bound_to 10713
  156.1680  130.3645  149.9206 LP  0  0  0  0  0  0  0  0  0  0  0  0  # atno 17371 bound_to 10713
  140.3122  134.3010  155.7264 LP  0  0  0  0  0  0  0  0  0  0  0  0  # atno 17394 bound_to 11000
  141.2124  133.7657  156.9793 LP  0  0  0  0  0  0  0  0  0  0  0  0  # atno 17395 bound_to 11000

$$$$
