AV-unprocessed.smi:1897|AV-procd|sdf|7692|dock3
  -GOLD-   22720 9433D 1   1.00000     0.00000
 Structure written by MMmdl.
 38 40  0  0  0  0  0  0  0  0  3 V2000
  155.9595  134.3966  159.2841 C   0  0  0  0  0  0  0  0  0  0  0  0
  155.0759  135.5717  159.0414 C   0  0  0  0  0  0  0  0  0  0  0  0
  153.9750  135.8076  159.7590 N   0  0  0  0  0  0  0  0  0  0  0  0
  153.3194  136.9584  159.3475 N   0  0  0  0  0  0  0  0  0  0  0  0
  153.9236  137.5681  158.3178 C   0  0  0  0  0  0  0  0  0  0  0  0
  153.4415  138.6943  157.7601 N   0  5  0  0  0  0  0  0  0  0  0  0
  152.3648  139.3547  158.2601 C   0  0  0  0  0  0  0  0  0  0  0  0
  151.4541  138.7991  158.8728 O   0  0  0  0  0  0  0  0  0  0  0  0
  152.3017  140.6856  158.0684 N   0  0  0  0  0  0  0  0  0  0  0  0
  151.2325  141.5648  158.5247 C   0  0  2  0  0  0  0  0  0  0  0  0
  149.8247  141.0679  158.1646 C   0  0  0  0  0  0  0  0  0  0  0  0
  149.0230  142.3369  157.8138 C   0  0  0  0  0  0  0  0  0  0  0  0
  149.9350  143.4883  158.0111 N   0  3  1  0  0  0  0  0  0  0  0  0
  149.7062  144.1652  159.3173 C   0  0  0  0  0  0  0  0  0  0  0  0
  150.7951  145.1986  159.6325 C   0  0  0  0  0  0  0  0  0  0  0  0
  152.1704  144.5272  159.6424 C   0  0  0  0  0  0  0  0  0  0  0  0
  152.4301  143.8777  158.2792 C   0  0  0  0  0  0  0  0  0  0  0  0
  151.2961  142.9276  157.8327 C   0  0  1  0  0  0  0  0  0  0  0  0
  155.3930  136.7535  157.7826 S   0  0  0  0  0  0  0  0  0  0  0  0
  155.5348  133.5088  158.8157 H   0  0  0  0  0  0  0  0  0  0  0  0
  156.0622  134.2153  160.3543 H   0  0  0  0  0  0  0  0  0  0  0  0
  156.9499  134.5752  158.8652 H   0  0  0  0  0  0  0  0  0  0  0  0
  153.0604  141.1152  157.5596 H   0  0  0  0  0  0  0  0  0  0  0  0
  151.3035  141.7024  159.6052 H   0  0  0  0  0  0  0  0  0  0  0  0
  149.8501  140.3985  157.3031 H   0  0  0  0  0  0  0  0  0  0  0  0
  149.3778  140.5177  158.9932 H   0  0  0  0  0  0  0  0  0  0  0  0
  148.7288  142.3056  156.7642 H   0  0  0  0  0  0  0  0  0  0  0  0
  148.1085  142.4244  158.4021 H   0  0  0  0  0  0  0  0  0  0  0  0
  148.7299  144.6507  159.2987 H   0  0  0  0  0  0  0  0  0  0  0  0
  149.6701  143.4246  160.1179 H   0  0  0  0  0  0  0  0  0  0  0  0
  150.7747  146.0013  158.8940 H   0  0  0  0  0  0  0  0  0  0  0  0
  150.5998  145.6605  160.6008 H   0  0  0  0  0  0  0  0  0  0  0  0
  152.9470  145.2603  159.8623 H   0  0  0  0  0  0  0  0  0  0  0  0
  152.2167  143.7774  160.4330 H   0  0  0  0  0  0  0  0  0  0  0  0
  152.5351  144.6682  157.5352 H   0  0  0  0  0  0  0  0  0  0  0  0
  153.3835  143.3483  158.2901 H   0  0  0  0  0  0  0  0  0  0  0  0
  151.4208  142.7509  156.7622 H   0  0  0  0  0  0  0  0  0  0  0  0
  149.7712  144.1725  157.2866 H   0  0  0  0  0  0  0  0  0  0  0  0
  1  2  1  0  0  0  0
  1 20  1  0  0  0  0
  1 21  1  0  0  0  0
  1 22  1  0  0  0  0
  2 19  1  0  0  0  0
  2  3  2  0  0  0  0
  3  4  1  0  0  0  0
  4  5  2  0  0  0  0
  5  6  1  0  0  0  0
  5 19  1  0  0  0  0
  6  7  1  0  0  0  0
  7  8  2  0  0  0  0
  7  9  1  0  0  0  0
  9 10  1  0  0  0  0
  9 23  1  0  0  0  0
 10 18  1  0  0  0  0
 10 11  1  0  0  0  0
 10 24  1  0  0  0  0
 11 12  1  0  0  0  0
 11 25  1  0  0  0  0
 11 26  1  0  0  0  0
 12 13  1  0  0  0  0
 12 27  1  0  0  0  0
 12 28  1  0  0  0  0
 13 18  1  0  0  0  0
 13 14  1  0  0  0  0
 13 38  1  0  0  0  0
 14 15  1  0  0  0  0
 14 29  1  0  0  0  0
 14 30  1  0  0  0  0
 15 16  1  0  0  0  0
 15 31  1  0  0  0  0
 15 32  1  0  0  0  0
 16 17  1  0  0  0  0
 16 33  1  0  0  0  0
 16 34  1  0  0  0  0
 17 18  1  0  0  0  0
 17 35  1  0  0  0  0
 17 36  1  0  0  0  0
 18 37  1  0  0  0  0
M  CHG  1   6  -1
M  CHG  1  13   1
M  END
> <s_m_source_file>
AV-unprocessed.smi

> <i_m_source_file_index>
1897

> <i_lp_mmshare_version>
43012

> <i_f3d_flags>
0

> <s_epik_input>
W0NIM11jMW5uYyhzMSlbTkhdQyg9TylbTkhdW0NASF0oW0NIMl1bQ0gyXTIpW0NAQEhdKE4yMylbQ0gyXVtDSDJdW0NIMl1bQ0gyXTM=

> <s_epik_cmdline>
J2VwaWtfcHl0aG9uJywgJy1waCcsICc3LjAnLCAnLXRuJywgJzgnLCAnLW1hJywgJzIwMCcsICctbWV0YWxfYmluZGluZycsICctaW1hZScsICc8aW5maWxlLm1hZT4nLCAnLW9tYWUnLCAnPG91dGZpbGUubWFlPic=

> <r_lp_tautomer_probability>
1

> <r_epik_Ionization_Penalty>
3.77712

> <r_epik_Ionization_Penalty_Charging>
3.67739

> <r_epik_Ionization_Penalty_Neutral>
0.0997294

> <r_epik_State_Penalty>
3.67514

> <r_epik_Charging_Adjusted_Penalty>
7.35254

> <i_epik_Tot_Q>
0

> <i_epik_Tot_abs_Q>
2

> <r_epik_Metal_State_Penalty>
0.540795

> <b_epik_Metal_Only>
1

> <s_lp_Force_Field>
OPLS_2005

> <r_lp_Energy>
31.3184

> <b_lp_Chiralities_Consistent>
1

> <s_lp_Variant>
AV-unprocessed.smi:1897-9

> <Gold.Version>
5.8.1

> <Gold.Id.Protein>
6NUR|6NUR_protein|mol2

> <Gold.PLP.Fitness>
42.9725

> <Gold.PLP.PLP>
-28.6038

> <Gold.PLP.part.hbond>
-3.3022

> <Gold.PLP.part.metal>
0.0000

> <Gold.PLP.part.buried>
-5.1180

> <Gold.PLP.part.nonpolar>
-20.0190

> <Gold.PLP.part.repulsive>
0.1232

> <Gold.PLP.ligand.clash>
0.0000

> <Gold.PLP.ligand.torsion>
0.3246

> <Gold.PLP.Chemscore.Hbond>
5.0000

> <Gold.PLP.Chemscore.CHOScore>
0.0000

> <Gold.PLP.Chemscore.Metal>
0.0000

> <Gold.Chemscore.Hbonds>
donor molecule, donor type, donor heavy atom, donor atom, acceptor molecule, acceptor atom, score
      L1  H    13    38       P1  8028  2.00
      P1  H  6896  6908       L1     3  1.00
      P1  H  7997  8008       L1     6  2.00

> <Gold.PLP.Chemscore.Internal.Correction>
0.0178

> <Gold.Rescore>
     Score         DG    S(hbond)    S(metal)    S(lipo)     H(rot)  DE(clash)    DE(int)     intcor
     14.12     -17.51       1.90        0.00      70.50       1.00       0.05       3.34       ----

> <Gold.Chemscore.Fitness>
14.1224

> <Gold.Chemscore.DG>
-17.5067

> <Gold.Chemscore.ZeroCoef>
-5.4800

> <Gold.Chemscore.Hbond>
1.8976

> <Gold.Chemscore.Metal>
0.0000

> <Gold.Chemscore.Lipo>
70.5015

> <Gold.Chemscore.Internal_Hbond>
0.0000

> <Gold.Chemscore.DEClash>
0.0456

> <Gold.Chemscore.DEInternal>
3.3386

> <Gold.Chemscore.Rot>
1.0000

> <Gold.Chemscore.Internal.Correction>
   9.000000E+99

> <Gold.Chemscore.Hbonds>
donor molecule, donor type, donor heavy atom, donor atom, acceptor molecule, acceptor atom, score
      L1  H    13    38       P1  8028  0.48
      P1  H  6896  6908       L1     3  0.25
      P1  H  7997  8008       L1     6  0.59

> <Gold.Chemscore.Hbond.Weighted>
-6.3380

> <Gold.Chemscore.Metal.Weighted>
-0.0000

> <Gold.Chemscore.Lipo.Weighted>
-8.2487

> <Gold.Chemscore.Internal_Hbond.Weighted>
0.0000

> <Gold.Chemscore.DEClash.Weighted>
0.0456

> <Gold.Chemscore.DEInternal.Weighted>
3.3386

> <Gold.Chemscore.Rot.Weighted>
2.5600

> <Gold.Chemscore.Internal.Correction.Weighted>
   9.000000E+99

> <Gold.Protein.RotatedTorsions>
[ 6907 6896 6895 6894 ] final  -57.84 input  -60.11 | X-H torsion
[ 7974 7965 7964 7962 ] final   75.65 input  175.53 | X-H torsion
[ 8008 7997 7996 7995 ] final  -85.67 input   59.86 | X-H torsion
[ 10167 10162 10161 10158 ] final   86.85 input  -65.29 | X-H torsion
[ 10718 10713 10712 10709 ] final   -2.28 input   66.30 | X-H torsion
[ 10763 10752 10751 10750 ] final  168.96 input  -60.55 | X-H torsion
[ 11005 11000 10999 10996 ] final    5.17 input  -57.11 | X-H torsion

> <Gold.Protein.ActiveResidues>
 VAL166  LYS551  ARG553  GLY616  TRP617  ASP618  TYR619  PRO620  LYS621  CYS622 
 ASP623  PHE694  ASN695  SER759  ASP760  ASP761  ALA762  ILE779  LEU786  VAL792 
 PHE793  MET794  SER795  GLU796  ALA797  LYS798  CYS799  TRP800  GLU811  SER814 

> <Gold.Protein.RotatedAtoms>
  150.8054  134.7176  159.6638 H   0  0  0  0  0  0  0  0  0  0  0  0  # atno 6907 bound_to 6896
  152.4173  134.6015  160.0011 H   0  0  0  0  0  0  0  0  0  0  0  0  # atno 6908 bound_to 6896
  151.6240  133.3300  159.3130 H   0  0  0  0  0  0  0  0  0  0  0  0  # atno 6909 bound_to 6896
  145.7129  139.2621  143.1640 H   0  0  0  0  0  0  0  0  0  0  0  0  # atno 7974 bound_to 7965
  154.6433  140.0588  156.9871 H   0  0  0  0  0  0  0  0  0  0  0  0  # atno 8008 bound_to 7997
  155.1483  140.3272  155.4418 H   0  0  0  0  0  0  0  0  0  0  0  0  # atno 8009 bound_to 7997
  156.2541  140.1952  156.6596 H   0  0  0  0  0  0  0  0  0  0  0  0  # atno 8010 bound_to 7997
  139.8834  144.6427  150.8818 H   0  0  0  0  0  0  0  0  0  0  0  0  # atno 10167 bound_to 10162
  156.7931  130.5368  149.5732 H   0  0  0  0  0  0  0  0  0  0  0  0  # atno 10718 bound_to 10713
  154.3762  135.2753  155.2238 H   0  0  0  0  0  0  0  0  0  0  0  0  # atno 10763 bound_to 10752
  154.4364  135.5965  153.6104 H   0  0  0  0  0  0  0  0  0  0  0  0  # atno 10764 bound_to 10752
  152.9836  135.6008  154.4000 H   0  0  0  0  0  0  0  0  0  0  0  0  # atno 10765 bound_to 10752
  140.5737  134.0078  155.8019 H   0  0  0  0  0  0  0  0  0  0  0  0  # atno 11005 bound_to 11000
  146.0696  140.7883  142.9694 LP  0  0  0  0  0  0  0  0  0  0  0  0  # atno 17320 bound_to 7965
  144.6937  140.3322  143.7214 LP  0  0  0  0  0  0  0  0  0  0  0  0  # atno 17321 bound_to 7965
  140.7740  143.3568  151.1906 LP  0  0  0  0  0  0  0  0  0  0  0  0  # atno 17342 bound_to 10162
  139.7175  143.9276  152.2972 LP  0  0  0  0  0  0  0  0  0  0  0  0  # atno 17343 bound_to 10162
  156.1147  130.6066  151.0102 LP  0  0  0  0  0  0  0  0  0  0  0  0  # atno 17370 bound_to 10713
  157.6591  131.0884  150.7880 LP  0  0  0  0  0  0  0  0  0  0  0  0  # atno 17371 bound_to 10713
  141.1040  133.9723  157.3029 LP  0  0  0  0  0  0  0  0  0  0  0  0  # atno 17394 bound_to 11000
  139.9350  135.0197  156.8525 LP  0  0  0  0  0  0  0  0  0  0  0  0  # atno 17395 bound_to 11000

$$$$
