AV-unprocessed.smi:101|AV-procd|sdf|915|dock2
  -GOLD-   2262017413D 1   1.00000     0.00000
 Structure written by MMmdl.
 44 46  0  0  0  0  0  0  0  0  1 V2000
  145.6828  137.1154  157.5186 C   0  0  0  0  0  0  0  0  0  0  0  0
  147.1128  137.0184  158.0242 C   0  0  0  0  0  0  0  0  0  0  0  0
  148.1834  137.0268  157.1889 C   0  0  0  0  0  0  0  0  0  0  0  0
  149.5020  136.9547  157.6234 N   0  0  0  0  0  0  0  0  0  0  0  0
  150.6780  136.9853  156.6675 C   0  0  2  0  0  0  0  0  0  0  0  0
  151.3457  138.2095  156.7876 O   0  0  0  0  0  0  0  0  0  0  0  0
  151.4315  138.8564  155.5226 C   0  0  2  0  0  0  0  0  0  0  0  0
  151.4402  140.3834  155.6982 C   0  0  0  0  0  0  0  0  0  0  0  0
  151.8680  140.7165  157.0094 O   0  0  0  0  0  0  0  0  0  0  0  0
  151.4586  141.8504  157.6043 C   0  0  0  0  0  0  0  0  0  0  0  0
  150.6750  142.6506  157.0898 O   0  0  0  0  0  0  0  0  0  0  0  0
  152.0650  142.0377  158.9536 C   0  0  0  0  0  0  0  0  0  0  0  0
  151.7741  143.2102  159.6888 C   0  0  0  0  0  0  0  0  0  0  0  0
  152.3384  143.4159  160.9627 C   0  0  0  0  0  0  0  0  0  0  0  0
  153.1972  142.4498  161.5186 C   0  0  0  0  0  0  0  0  0  0  0  0
  153.4896  141.2764  160.8000 C   0  0  0  0  0  0  0  0  0  0  0  0
  152.9287  141.0700  159.5248 C   0  0  0  0  0  0  0  0  0  0  0  0
  150.2686  138.2851  154.7103 C   0  0  1  0  0  0  0  0  0  0  0  0
  150.4634  138.3889  153.3124 O   0  0  0  0  0  0  0  0  0  0  0  0
  150.1989  136.8476  155.2075 C   0  0  1  0  0  0  0  0  0  0  0  0
  151.0376  135.9683  154.4803 O   0  0  0  0  0  0  0  0  0  0  0  0
  149.7660  136.8681  159.0060 C   0  0  0  0  0  0  0  0  0  0  0  0
  150.9074  136.8047  159.4619 O   0  0  0  0  0  0  0  0  0  0  0  0
  148.6680  136.8504  159.8635 N   0  0  0  0  0  0  0  0  0  0  0  0
  147.3296  136.9180  159.4700 C   0  0  0  0  0  0  0  0  0  0  0  0
  146.4441  136.8910  160.3232 O   0  0  0  0  0  0  0  0  0  0  0  0
  148.8549  136.7849  160.8536 H   0  0  0  0  0  0  0  0  0  0  0  0
  145.6414  137.2298  156.4351 H   0  0  0  0  0  0  0  0  0  0  0  0
  145.1784  137.9752  157.9611 H   0  0  0  0  0  0  0  0  0  0  0  0
  145.1235  136.2174  157.7826 H   0  0  0  0  0  0  0  0  0  0  0  0
  147.9791  137.1005  156.1325 H   0  0  0  0  0  0  0  0  0  0  0  0
  151.3374  136.1808  157.0006 H   0  0  0  0  0  0  0  0  0  0  0  0
  152.3751  138.5410  155.0739 H   0  0  0  0  0  0  0  0  0  0  0  0
  152.0945  140.8329  154.9499 H   0  0  0  0  0  0  0  0  0  0  0  0
  150.4391  140.7860  155.5414 H   0  0  0  0  0  0  0  0  0  0  0  0
  151.1177  143.9660  159.2818 H   0  0  0  0  0  0  0  0  0  0  0  0
  152.1113  144.3165  161.5138 H   0  0  0  0  0  0  0  0  0  0  0  0
  153.6296  142.6084  162.4955 H   0  0  0  0  0  0  0  0  0  0  0  0
  154.1482  140.5337  161.2254 H   0  0  0  0  0  0  0  0  0  0  0  0
  153.1782  140.1599  158.9991 H   0  0  0  0  0  0  0  0  0  0  0  0
  149.3345  138.7820  154.9735 H   0  0  0  0  0  0  0  0  0  0  0  0
  149.9705  137.7028  152.8888 H   0  0  0  0  0  0  0  0  0  0  0  0
  149.1806  136.4605  155.1539 H   0  0  0  0  0  0  0  0  0  0  0  0
  150.9810  136.1909  153.5635 H   0  0  0  0  0  0  0  0  0  0  0  0
  1  2  1  0  0  0  0
  1 28  1  0  0  0  0
  1 29  1  0  0  0  0
  1 30  1  0  0  0  0
  2 25  1  0  0  0  0
  2  3  2  0  0  0  0
  3  4  1  0  0  0  0
  3 31  1  0  0  0  0
  4  5  1  0  0  0  0
  4 22  1  0  0  0  0
  5 20  1  0  0  0  0
  5  6  1  0  0  0  0
  5 32  1  0  0  0  0
  6  7  1  0  0  0  0
  7  8  1  0  0  0  0
  7 18  1  0  0  0  0
  7 33  1  0  0  0  0
  8  9  1  0  0  0  0
  8 34  1  0  0  0  0
  8 35  1  0  0  0  0
  9 10  1  0  0  0  0
 10 11  2  0  0  0  0
 10 12  1  0  0  0  0
 12 17  1  0  0  0  0
 12 13  2  0  0  0  0
 13 14  1  0  0  0  0
 13 36  1  0  0  0  0
 14 15  2  0  0  0  0
 14 37  1  0  0  0  0
 15 16  1  0  0  0  0
 15 38  1  0  0  0  0
 16 17  2  0  0  0  0
 16 39  1  0  0  0  0
 17 40  1  0  0  0  0
 18 19  1  0  0  0  0
 18 20  1  0  0  0  0
 18 41  1  0  0  0  0
 19 42  1  0  0  0  0
 20 21  1  0  0  0  0
 20 43  1  0  0  0  0
 21 44  1  0  0  0  0
 22 23  2  0  0  0  0
 22 24  1  0  0  0  0
 24 27  1  0  0  0  0
 24 25  1  0  0  0  0
 25 26  2  0  0  0  0
M  END
> <s_m_source_file>
AV-unprocessed.smi

> <i_m_source_file_index>
101

> <i_lp_mmshare_version>
43012

> <i_f3d_flags>
0

> <s_epik_input>
Tz1jMVtuSF1jKD1PKW4oW2NIXWMxW0NIM10pW0NAQEhdMk9bQ0BIXShbQ0BASF0oW09IXSlbQ0BIXTJbT0hdKVtDSDJdT0MoPU8pYzNbY0hdW2NIXVtjSF1bY0hdW2NIXTM=

> <s_epik_cmdline>
J2VwaWtfcHl0aG9uJywgJy1waCcsICc3LjAnLCAnLXRuJywgJzgnLCAnLW1hJywgJzIwMCcsICctbWV0YWxfYmluZGluZycsICctaW1hZScsICc8aW5maWxlLm1hZT4nLCAnLW9tYWUnLCAnPG91dGZpbGUubWFlPic=

> <r_lp_tautomer_probability>
0.999537

> <r_epik_Ionization_Penalty>
0.00263537

> <r_epik_Ionization_Penalty_Charging>
0.00263428

> <r_epik_Ionization_Penalty_Neutral>
1.09111e-06

> <r_epik_State_Penalty>
0.00183335

> <r_epik_Charging_Adjusted_Penalty>
0.00446763

> <i_epik_Tot_Q>
0

> <i_epik_Tot_abs_Q>
0

> <r_epik_Metal_State_Penalty>
1.00528

> <b_epik_Metal_Only>
0

> <s_epik_Chemistry_Notes>
This compound has an ester and may undergo hydrolysis at high or low pH. This compound contains an acetal/aminal-like group ( X-CH(R)-Y where X, Y are N, S, or O) that may be acid/base labile, releasing an aldehyde.

> <s_lp_Force_Field>
OPLS_2005

> <r_lp_Energy>
35.2309

> <b_lp_Chiralities_Consistent>
1

> <s_lp_Variant>
AV-unprocessed.smi:101-3

> <Gold.Version>
5.8.1

> <Gold.Id.Protein>
6NUR|6NUR_protein|mol2

> <Gold.PLP.Fitness>
48.7410

> <Gold.PLP.PLP>
-38.4009

> <Gold.PLP.part.hbond>
-6.4171

> <Gold.PLP.part.metal>
0.0000

> <Gold.PLP.part.buried>
-1.7041

> <Gold.PLP.part.nonpolar>
-29.0836

> <Gold.PLP.part.repulsive>
0.6630

> <Gold.PLP.ligand.clash>
0.0000

> <Gold.PLP.ligand.torsion>
0.9072

> <Gold.PLP.Chemscore.Hbond>
4.0385

> <Gold.PLP.Chemscore.CHOScore>
0.0000

> <Gold.PLP.Chemscore.Metal>
0.0000

> <Gold.Chemscore.Hbonds>
donor molecule, donor type, donor heavy atom, donor atom, acceptor molecule, acceptor atom, score
      L1  H    19    42       P1  7948  1.00
      L1  H    21    44       P1  7949  0.78
      P1  H  6896  6907       L1    23  1.00
      P1  H  6934  6947       L1    26  0.08
      P1  H 10752 10765       L1    21  0.95

> <Gold.PLP.Chemscore.Internal.Correction>
0.0390

> <Gold.Rescore>
     Score         DG    S(hbond)    S(metal)    S(lipo)     H(rot)  DE(clash)    DE(int)     intcor
     12.21     -14.05       2.04        0.00      87.66       3.32       0.13       1.71       ----

> <Gold.Chemscore.Fitness>
12.2075

> <Gold.Chemscore.DG>
-14.0478

> <Gold.Chemscore.ZeroCoef>
-5.4800

> <Gold.Chemscore.Hbond>
2.0369

> <Gold.Chemscore.Metal>
0.0000

> <Gold.Chemscore.Lipo>
87.6643

> <Gold.Chemscore.Internal_Hbond>
0.0000

> <Gold.Chemscore.DEClash>
0.1267

> <Gold.Chemscore.DEInternal>
1.7136

> <Gold.Chemscore.Rot>
3.3172

> <Gold.Chemscore.Internal.Correction>
   9.000000E+99

> <Gold.Chemscore.Hbonds>
donor molecule, donor type, donor heavy atom, donor atom, acceptor molecule, acceptor atom, score
      L1  H    19    42       P1  7948  0.24
      L1  H    21    44       P1  7949  0.15
      P1  H  6896  6907       L1    23  0.90
      P1  H 10752 10765       L1    21  0.21

> <Gold.Chemscore.Hbond.Weighted>
-6.8031

> <Gold.Chemscore.Metal.Weighted>
-0.0000

> <Gold.Chemscore.Lipo.Weighted>
-10.2567

> <Gold.Chemscore.Internal_Hbond.Weighted>
0.0000

> <Gold.Chemscore.DEClash.Weighted>
0.1267

> <Gold.Chemscore.DEInternal.Weighted>
1.7136

> <Gold.Chemscore.Rot.Weighted>
8.4920

> <Gold.Chemscore.Internal.Correction.Weighted>
   9.000000E+99

> <Gold.Protein.RotatedTorsions>
[ 6907 6896 6895 6894 ] final   -6.32 input  -60.11 | X-H torsion
[ 7974 7965 7964 7962 ] final -178.23 input  175.53 | X-H torsion
[ 8008 7997 7996 7995 ] final  -79.05 input   59.86 | X-H torsion
[ 10167 10162 10161 10158 ] final -132.95 input  -65.29 | X-H torsion
[ 10718 10713 10712 10709 ] final   25.90 input   66.30 | X-H torsion
[ 10763 10752 10751 10750 ] final  179.50 input  -60.55 | X-H torsion
[ 11005 11000 10999 10996 ] final -139.73 input  -57.11 | X-H torsion

> <Gold.Protein.ActiveResidues>
 VAL166  LYS551  ARG553  GLY616  TRP617  ASP618  TYR619  PRO620  LYS621  CYS622 
 ASP623  PHE694  ASN695  SER759  ASP760  ASP761  ALA762  ILE779  LEU786  VAL792 
 PHE793  MET794  SER795  GLU796  ALA797  LYS798  CYS799  TRP800  GLU811  SER814 

> <Gold.Protein.RotatedAtoms>
  151.4674  135.1043  159.9741 H   0  0  0  0  0  0  0  0  0  0  0  0  # atno 6907 bound_to 6896
  152.4830  133.8297  159.7107 H   0  0  0  0  0  0  0  0  0  0  0  0  # atno 6908 bound_to 6896
  150.8916  133.7175  159.2930 H   0  0  0  0  0  0  0  0  0  0  0  0  # atno 6909 bound_to 6896
  144.7130  140.0899  143.6422 H   0  0  0  0  0  0  0  0  0  0  0  0  # atno 7974 bound_to 7965
  154.5748  140.0684  156.9018 H   0  0  0  0  0  0  0  0  0  0  0  0  # atno 8008 bound_to 7997
  155.2569  140.3355  155.4258 H   0  0  0  0  0  0  0  0  0  0  0  0  # atno 8009 bound_to 7997
  156.2146  140.1773  156.7604 H   0  0  0  0  0  0  0  0  0  0  0  0  # atno 8010 bound_to 7997
  139.9033  143.6581  152.2590 H   0  0  0  0  0  0  0  0  0  0  0  0  # atno 10167 bound_to 10162
  157.1996  130.6883  149.6183 H   0  0  0  0  0  0  0  0  0  0  0  0  # atno 10718 bound_to 10713
  154.5215  135.2794  155.1258 H   0  0  0  0  0  0  0  0  0  0  0  0  # atno 10763 bound_to 10752
  154.2814  135.6284  153.5352 H   0  0  0  0  0  0  0  0  0  0  0  0  # atno 10764 bound_to 10752
  152.9938  135.5652  154.5705 H   0  0  0  0  0  0  0  0  0  0  0  0  # atno 10765 bound_to 10752
  140.8491  134.2308  157.4770 H   0  0  0  0  0  0  0  0  0  0  0  0  # atno 11005 bound_to 11000
  145.9629  139.2813  143.1145 LP  0  0  0  0  0  0  0  0  0  0  0  0  # atno 17320 bound_to 7965
  145.9201  140.9121  143.0409 LP  0  0  0  0  0  0  0  0  0  0  0  0  # atno 17321 bound_to 7965
  139.7006  144.7635  151.1280 LP  0  0  0  0  0  0  0  0  0  0  0  0  # atno 17342 bound_to 10162
  140.7702  143.5463  150.9255 LP  0  0  0  0  0  0  0  0  0  0  0  0  # atno 17343 bound_to 10162
  155.9702  130.4587  150.6010 LP  0  0  0  0  0  0  0  0  0  0  0  0  # atno 17370 bound_to 10713
  157.3780  131.0776  151.1501 LP  0  0  0  0  0  0  0  0  0  0  0  0  # atno 17371 bound_to 10713
  139.8704  134.9674  156.4596 LP  0  0  0  0  0  0  0  0  0  0  0  0  # atno 17394 bound_to 11000
  140.8810  133.7918  155.9467 LP  0  0  0  0  0  0  0  0  0  0  0  0  # atno 17395 bound_to 11000

$$$$
