AV-unprocessed.smi:203|AV-procd|sdf|1587|dock1
  -GOLD-   2262019483D 1   1.00000     0.00000
 Structure written by MMmdl.
 57 61  0  0  0  0  0  0  0  0  1 V2000
  151.4863  146.0156  159.5587 O   0  0  0  0  0  0  0  0  0  0  0  0
  151.5742  144.8792  159.0996 C   0  0  0  0  0  0  0  0  0  0  0  0
  150.7974  143.6923  159.6440 C   0  0  0  0  0  0  0  0  0  0  0  0
  151.4219  142.4840  158.9181 C   0  0  2  0  0  0  0  0  0  0  0  0
  152.2349  141.5320  159.8521 C   0  0  2  0  0  0  0  0  0  0  0  0
  153.2048  142.2969  160.7917 C   0  0  0  0  0  0  0  0  0  0  0  0
  153.9914  141.3425  161.6996 C   0  0  0  0  0  0  0  0  0  0  0  0
  154.7306  140.3034  160.8503 C   0  0  0  0  0  0  0  0  0  0  0  0
  153.7446  139.5598  159.9401 C   0  0  0  0  0  0  0  0  0  0  0  0
  152.9750  140.4912  159.1154 N   0  0  0  0  0  0  0  0  0  0  0  0
  152.2852  139.8210  158.1658 C   0  0  0  0  0  0  0  0  0  0  0  0
  152.5000  140.1794  156.8762 N   0  0  0  0  0  0  0  0  0  0  0  0
  151.8435  139.5556  155.8930 C   0  0  0  0  0  0  0  0  0  0  0  0
  150.9530  138.5649  155.9798 N   0  0  0  0  0  0  0  0  0  0  0  0
  150.7413  138.1999  157.2772 C   0  0  0  0  0  0  0  0  0  0  0  0
  151.3591  138.7716  158.4244 C   0  0  0  0  0  0  0  0  0  0  0  0
  150.8959  138.1455  159.5755 N   0  0  0  0  0  0  0  0  0  0  0  0
  150.0527  137.2527  159.1333 C   0  0  0  0  0  0  0  0  0  0  0  0
  149.9010  137.2156  157.7659 N   0  0  0  0  0  0  0  0  0  0  0  0
  149.0386  136.3227  157.0127 C   0  0  0  0  0  0  0  0  0  0  0  0
  149.8357  135.3528  156.1147 C   0  0  1  0  0  0  0  0  0  0  0  0
  150.8985  134.7641  156.8376 O   0  0  0  0  0  0  0  0  0  0  0  0
  148.9866  134.2306  155.4822 C   0  0  2  0  0  0  0  0  0  0  0  0
  149.7932  133.2014  154.6799 C   0  0  0  0  0  0  0  0  0  0  0  0
  148.8625  132.7900  153.5462 C   0  0  0  0  0  0  0  0  0  0  0  0
  147.6091  133.6359  153.7637 C   0  0  0  0  0  0  0  0  0  0  0  0
  148.0703  134.7403  154.5238 O   0  0  0  0  0  0  0  0  0  0  0  0
  152.2536  143.0969  157.7684 C   0  0  0  0  0  0  0  0  0  0  0  0
  152.3397  144.5112  158.0748 N   0  0  0  0  0  0  0  0  0  0  0  0
  150.8626  143.6297  160.7301 H   0  0  0  0  0  0  0  0  0  0  0  0
  149.7462  143.8080  159.3783 H   0  0  0  0  0  0  0  0  0  0  0  0
  150.5942  141.9251  158.4805 H   0  0  0  0  0  0  0  0  0  0  0  0
  151.5169  141.0162  160.4904 H   0  0  0  0  0  0  0  0  0  0  0  0
  153.9116  142.8868  160.2077 H   0  0  0  0  0  0  0  0  0  0  0  0
  152.6631  143.0049  161.4176 H   0  0  0  0  0  0  0  0  0  0  0  0
  154.7003  141.9021  162.3105 H   0  0  0  0  0  0  0  0  0  0  0  0
  153.3097  140.8415  162.3880 H   0  0  0  0  0  0  0  0  0  0  0  0
  155.4916  140.7958  160.2436 H   0  0  0  0  0  0  0  0  0  0  0  0
  155.2531  139.5949  161.4934 H   0  0  0  0  0  0  0  0  0  0  0  0
  154.2933  138.8636  159.3037 H   0  0  0  0  0  0  0  0  0  0  0  0
  153.0624  138.9639  160.5481 H   0  0  0  0  0  0  0  0  0  0  0  0
  152.0639  139.8989  154.8929 H   0  0  0  0  0  0  0  0  0  0  0  0
  149.5144  136.5913  159.7964 H   0  0  0  0  0  0  0  0  0  0  0  0
  148.4134  135.7712  157.7161 H   0  0  0  0  0  0  0  0  0  0  0  0
  148.3638  136.9340  156.4134 H   0  0  0  0  0  0  0  0  0  0  0  0
  150.3019  135.9207  155.3085 H   0  0  0  0  0  0  0  0  0  0  0  0
  150.9558  133.8528  156.5930 H   0  0  0  0  0  0  0  0  0  0  0  0
  148.4258  133.6999  156.2545 H   0  0  0  0  0  0  0  0  0  0  0  0
  150.7018  133.6391  154.2654 H   0  0  0  0  0  0  0  0  0  0  0  0
  150.0904  132.3550  155.2997 H   0  0  0  0  0  0  0  0  0  0  0  0
  149.3202  133.0255  152.5846 H   0  0  0  0  0  0  0  0  0  0  0  0
  148.6352  131.7237  153.5571 H   0  0  0  0  0  0  0  0  0  0  0  0
  147.1479  133.9552  152.8289 H   0  0  0  0  0  0  0  0  0  0  0  0
  146.8660  133.0847  154.3421 H   0  0  0  0  0  0  0  0  0  0  0  0
  153.2471  142.6585  157.6735 H   0  0  0  0  0  0  0  0  0  0  0  0
  151.7448  142.9709  156.8120 H   0  0  0  0  0  0  0  0  0  0  0  0
  152.9353  145.1427  157.5589 H   0  0  0  0  0  0  0  0  0  0  0  0
  1  2  2  0  0  0  0
  2 29  1  0  0  0  0
  2  3  1  0  0  0  0
  3  4  1  0  0  0  0
  3 30  1  0  0  0  0
  3 31  1  0  0  0  0
  4  5  1  0  0  0  0
  4 28  1  0  0  0  0
  4 32  1  0  0  0  0
  5 10  1  0  0  0  0
  5  6  1  0  0  0  0
  5 33  1  0  0  0  0
  6  7  1  0  0  0  0
  6 34  1  0  0  0  0
  6 35  1  0  0  0  0
  7  8  1  0  0  0  0
  7 36  1  0  0  0  0
  7 37  1  0  0  0  0
  8  9  1  0  0  0  0
  8 38  1  0  0  0  0
  8 39  1  0  0  0  0
  9 10  1  0  0  0  0
  9 40  1  0  0  0  0
  9 41  1  0  0  0  0
 10 11  1  0  0  0  0
 11 16  1  0  0  0  0
 11 12  2  0  0  0  0
 12 13  1  0  0  0  0
 13 14  2  0  0  0  0
 13 42  1  0  0  0  0
 14 15  1  0  0  0  0
 15 19  1  0  0  0  0
 15 16  2  0  0  0  0
 16 17  1  0  0  0  0
 17 18  2  0  0  0  0
 18 19  1  0  0  0  0
 18 43  1  0  0  0  0
 19 20  1  0  0  0  0
 20 21  1  0  0  0  0
 20 44  1  0  0  0  0
 20 45  1  0  0  0  0
 21 22  1  0  0  0  0
 21 23  1  0  0  0  0
 21 46  1  0  0  0  0
 22 47  1  0  0  0  0
 23 27  1  0  0  0  0
 23 24  1  0  0  0  0
 23 48  1  0  0  0  0
 24 25  1  0  0  0  0
 24 49  1  0  0  0  0
 24 50  1  0  0  0  0
 25 26  1  0  0  0  0
 25 51  1  0  0  0  0
 25 52  1  0  0  0  0
 26 27  1  0  0  0  0
 26 53  1  0  0  0  0
 26 54  1  0  0  0  0
 28 29  1  0  0  0  0
 28 55  1  0  0  0  0
 28 56  1  0  0  0  0
 29 57  1  0  0  0  0
M  END
> <s_m_source_file>
AV-unprocessed.smi

> <i_m_source_file_index>
203

> <i_lp_mmshare_version>
43012

> <i_f3d_flags>
0

> <s_epik_input>
Tz1DMVtDSDJdW0NASF0oW0NIMl1bTkhdMSlbQ0BASF0yW0NIMl1bQ0gyXVtDSDJdW0NIMl1OMmMobltjSF1uMyljKGMzNCluW2NIXW40W0NIMl1bQ0BIXShbT0hdKVtDQEBIXTVbQ0gyXVtDSDJdW0NIMl1PNQ==

> <s_epik_cmdline>
J2VwaWtfcHl0aG9uJywgJy1waCcsICc3LjAnLCAnLXRuJywgJzgnLCAnLW1hJywgJzIwMCcsICctbWV0YWxfYmluZGluZycsICctaW1hZScsICc8aW5maWxlLm1hZT4nLCAnLW9tYWUnLCAnPG91dGZpbGUubWFlPic=

> <r_lp_tautomer_probability>
1

> <r_epik_Ionization_Penalty>
0.00175146

> <r_epik_Ionization_Penalty_Charging>
0

> <r_epik_Ionization_Penalty_Neutral>
0.00175146

> <r_epik_State_Penalty>
0.00109045

> <r_epik_Charging_Adjusted_Penalty>
0.00109045

> <i_epik_Tot_Q>
0

> <i_epik_Tot_abs_Q>
0

> <r_epik_Metal_State_Penalty>
-0

> <b_epik_Metal_Only>
0

> <s_lp_Force_Field>
OPLS_2005

> <r_lp_Energy>
57.3727

> <b_lp_Chiralities_Consistent>
1

> <s_lp_Variant>
AV-unprocessed.smi:203-6

> <Gold.Version>
5.8.1

> <Gold.Id.Protein>
6NUR|6NUR_protein|mol2

> <Gold.PLP.Fitness>
46.6766

> <Gold.PLP.PLP>
-44.5068

> <Gold.PLP.part.hbond>
-3.8219

> <Gold.PLP.part.metal>
0.0000

> <Gold.PLP.part.buried>
-6.0172

> <Gold.PLP.part.nonpolar>
-34.6925

> <Gold.PLP.part.repulsive>
0.8765

> <Gold.PLP.ligand.clash>
0.0000

> <Gold.PLP.ligand.torsion>
0.5525

> <Gold.PLP.Chemscore.Hbond>
1.0000

> <Gold.PLP.Chemscore.CHOScore>
0.0000

> <Gold.PLP.Chemscore.Metal>
0.0000

> <Gold.Chemscore.Hbonds>
donor molecule, donor type, donor heavy atom, donor atom, acceptor molecule, acceptor atom, score
      P1  H  7997  8008       L1    12  1.00

> <Gold.PLP.Chemscore.Internal.Correction>
0.2749

> <Gold.Rescore>
     Score         DG    S(hbond)    S(metal)    S(lipo)     H(rot)  DE(clash)    DE(int)     intcor
     10.84     -12.35       0.67        0.00      98.92       2.72       1.04       0.46       ----

> <Gold.Chemscore.Fitness>
10.8389

> <Gold.Chemscore.DG>
-12.3455

> <Gold.Chemscore.ZeroCoef>
-5.4800

> <Gold.Chemscore.Hbond>
0.6730

> <Gold.Chemscore.Metal>
0.0000

> <Gold.Chemscore.Lipo>
98.9192

> <Gold.Chemscore.Internal_Hbond>
0.0000

> <Gold.Chemscore.DEClash>
1.0440

> <Gold.Chemscore.DEInternal>
0.4626

> <Gold.Chemscore.Rot>
2.7171

> <Gold.Chemscore.Internal.Correction>
   9.000000E+99

> <Gold.Chemscore.Hbonds>
donor molecule, donor type, donor heavy atom, donor atom, acceptor molecule, acceptor atom, score
      P1  H  7997  8008       L1    12  0.48

> <Gold.Chemscore.Hbond.Weighted>
-2.2477

> <Gold.Chemscore.Metal.Weighted>
-0.0000

> <Gold.Chemscore.Lipo.Weighted>
-11.5735

> <Gold.Chemscore.Internal_Hbond.Weighted>
0.0000

> <Gold.Chemscore.DEClash.Weighted>
1.0440

> <Gold.Chemscore.DEInternal.Weighted>
0.4626

> <Gold.Chemscore.Rot.Weighted>
6.9557

> <Gold.Chemscore.Internal.Correction.Weighted>
   9.000000E+99

> <Gold.Protein.RotatedTorsions>
[ 6907 6896 6895 6894 ] final   52.98 input  -60.11 | X-H torsion
[ 7974 7965 7964 7962 ] final  -91.29 input  175.53 | X-H torsion
[ 8008 7997 7996 7995 ] final  -47.51 input   59.86 | X-H torsion
[ 10167 10162 10161 10158 ] final -119.75 input  -65.29 | X-H torsion
[ 10718 10713 10712 10709 ] final  112.81 input   66.30 | X-H torsion
[ 10763 10752 10751 10750 ] final -148.01 input  -60.55 | X-H torsion
[ 11005 11000 10999 10996 ] final -174.00 input  -57.11 | X-H torsion

> <Gold.Protein.ActiveResidues>
 VAL166  LYS551  ARG553  GLY616  TRP617  ASP618  TYR619  PRO620  LYS621  CYS622 
 ASP623  PHE694  ASN695  SER759  ASP760  ASP761  ALA762  ILE779  LEU786  VAL792 
 PHE793  MET794  SER795  GLU796  ALA797  LYS798  CYS799  TRP800  GLU811  SER814 

> <Gold.Protein.RotatedAtoms>
  152.3289  134.7284  160.0294 H   0  0  0  0  0  0  0  0  0  0  0  0  # atno 6907 bound_to 6896
  151.7707  133.3335  159.3452 H   0  0  0  0  0  0  0  0  0  0  0  0  # atno 6908 bound_to 6896
  150.7412  134.5952  159.6053 H   0  0  0  0  0  0  0  0  0  0  0  0  # atno 6909 bound_to 6896
  145.4150  140.9547  143.2212 H   0  0  0  0  0  0  0  0  0  0  0  0  # atno 7974 bound_to 7965
  154.4017  140.1344  156.4187 H   0  0  0  0  0  0  0  0  0  0  0  0  # atno 8008 bound_to 7997
  155.7663  140.3485  155.5204 H   0  0  0  0  0  0  0  0  0  0  0  0  # atno 8009 bound_to 7997
  155.8810  140.0987  157.1475 H   0  0  0  0  0  0  0  0  0  0  0  0  # atno 8010 bound_to 7997
  140.0433  143.5132  152.2119 H   0  0  0  0  0  0  0  0  0  0  0  0  # atno 10167 bound_to 10162
  157.6373  131.0973  150.6949 H   0  0  0  0  0  0  0  0  0  0  0  0  # atno 10718 bound_to 10713
  154.8255  135.3345  154.6908 H   0  0  0  0  0  0  0  0  0  0  0  0  # atno 10763 bound_to 10752
  153.7534  135.6937  153.4945 H   0  0  0  0  0  0  0  0  0  0  0  0  # atno 10764 bound_to 10752
  153.2160  135.4465  155.0385 H   0  0  0  0  0  0  0  0  0  0  0  0  # atno 10765 bound_to 10752
  140.4794  134.6090  157.4913 H   0  0  0  0  0  0  0  0  0  0  0  0  # atno 11005 bound_to 11000
  144.8283  139.5672  143.6955 LP  0  0  0  0  0  0  0  0  0  0  0  0  # atno 17320 bound_to 7965
  146.2685  139.6578  142.9312 LP  0  0  0  0  0  0  0  0  0  0  0  0  # atno 17321 bound_to 7965
  139.6000  144.7579  151.3195 LP  0  0  0  0  0  0  0  0  0  0  0  0  # atno 17342 bound_to 10162
  140.7250  143.7028  150.7831 LP  0  0  0  0  0  0  0  0  0  0  0  0  # atno 17343 bound_to 10162
  156.7278  130.4700  149.5507 LP  0  0  0  0  0  0  0  0  0  0  0  0  # atno 17370 bound_to 10713
  156.1622  130.6381  151.0733 LP  0  0  0  0  0  0  0  0  0  0  0  0  # atno 17371 bound_to 10713
  139.9836  134.7098  155.9815 LP  0  0  0  0  0  0  0  0  0  0  0  0  # atno 17394 bound_to 11000
  141.1539  133.6545  156.4098 LP  0  0  0  0  0  0  0  0  0  0  0  0  # atno 17395 bound_to 11000

$$$$
