AV-unprocessed.smi:2023|AV-procd|sdf|8189|dock7
  -GOLD-   2272010443D 1   1.00000     0.00000
 Structure written by MMmdl.
 35 36  0  0  0  0  0  0  0  0  1 V2000
  151.0664  139.4066  154.3994 O   0  0  0  0  0  0  0  0  0  0  0  0
  151.6439  139.3619  155.7513 S   0  0  0  0  0  0  0  0  0  0  0  0
  153.0786  139.1084  155.9530 O   0  0  0  0  0  0  0  0  0  0  0  0
  151.2414  140.8191  156.5833 N   0  0  0  0  0  0  0  0  0  0  0  0
  151.8436  141.0844  157.8914 C   0  0  0  0  0  0  0  0  0  0  0  0
  151.5853  142.5346  158.3336 C   0  0  0  0  0  0  0  0  0  0  0  0
  152.0730  142.8269  159.7411 C   0  0  0  0  0  0  0  0  0  0  0  0
  152.8181  141.8719  160.4632 C   0  0  0  0  0  0  0  0  0  0  0  0
  153.2259  142.1791  161.7751 C   0  0  0  0  0  0  0  0  0  0  0  0
  152.8739  143.4348  162.3089 C   0  0  0  0  0  0  0  0  0  0  0  0
  152.1667  144.3600  161.6252 N   0  0  0  0  0  0  0  0  0  0  0  0
  151.7767  144.0554  160.3687 C   0  0  0  0  0  0  0  0  0  0  0  0
  150.7353  138.2318  156.6963 N   0  0  0  0  0  0  0  0  0  0  0  0
  151.0143  138.2110  158.1419 C   0  0  0  0  0  0  0  0  0  0  0  0
  150.0051  137.3270  158.8927 C   0  0  0  0  0  0  0  0  0  0  0  0
  149.9733  136.0286  158.3215 O   0  0  0  0  0  0  0  0  0  0  0  0
  149.5391  136.0689  156.9714 C   0  0  0  0  0  0  0  0  0  0  0  0
  150.5226  136.8903  156.1224 C   0  0  0  0  0  0  0  0  0  0  0  0
  150.2407  141.0139  156.5612 H   0  0  0  0  0  0  0  0  0  0  0  0
  151.4174  140.3915  158.6169 H   0  0  0  0  0  0  0  0  0  0  0  0
  152.9147  140.8812  157.8533 H   0  0  0  0  0  0  0  0  0  0  0  0
  152.0597  143.2260  157.6358 H   0  0  0  0  0  0  0  0  0  0  0  0
  150.5161  142.7443  158.2874 H   0  0  0  0  0  0  0  0  0  0  0  0
  153.0654  140.9165  160.0243 H   0  0  0  0  0  0  0  0  0  0  0  0
  153.7925  141.4693  162.3592 H   0  0  0  0  0  0  0  0  0  0  0  0
  153.1696  143.7038  163.3122 H   0  0  0  0  0  0  0  0  0  0  0  0
  151.2041  144.8114  159.8518 H   0  0  0  0  0  0  0  0  0  0  0  0
  152.0275  137.8396  158.2993 H   0  0  0  0  0  0  0  0  0  0  0  0
  150.9805  139.2261  158.5380 H   0  0  0  0  0  0  0  0  0  0  0  0
  150.2903  137.2433  159.9416 H   0  0  0  0  0  0  0  0  0  0  0  0
  149.0090  137.7721  158.8711 H   0  0  0  0  0  0  0  0  0  0  0  0
  149.4794  135.0495  156.5901 H   0  0  0  0  0  0  0  0  0  0  0  0
  148.5333  136.4878  156.9121 H   0  0  0  0  0  0  0  0  0  0  0  0
  150.1422  136.9743  155.1052 H   0  0  0  0  0  0  0  0  0  0  0  0
  151.4828  136.3764  156.0616 H   0  0  0  0  0  0  0  0  0  0  0  0
  1  2  2  0  0  0  0
  2  3  2  0  0  0  0
  2  4  1  0  0  0  0
  2 13  1  0  0  0  0
  4  5  1  0  0  0  0
  4 19  1  0  0  0  0
  5  6  1  0  0  0  0
  5 20  1  0  0  0  0
  5 21  1  0  0  0  0
  6  7  1  0  0  0  0
  6 22  1  0  0  0  0
  6 23  1  0  0  0  0
  7 12  1  0  0  0  0
  7  8  2  0  0  0  0
  8  9  1  0  0  0  0
  8 24  1  0  0  0  0
  9 10  2  0  0  0  0
  9 25  1  0  0  0  0
 10 11  1  0  0  0  0
 10 26  1  0  0  0  0
 11 12  2  0  0  0  0
 12 27  1  0  0  0  0
 13 18  1  0  0  0  0
 13 14  1  0  0  0  0
 14 15  1  0  0  0  0
 14 28  1  0  0  0  0
 14 29  1  0  0  0  0
 15 16  1  0  0  0  0
 15 30  1  0  0  0  0
 15 31  1  0  0  0  0
 16 17  1  0  0  0  0
 17 18  1  0  0  0  0
 17 32  1  0  0  0  0
 17 33  1  0  0  0  0
 18 34  1  0  0  0  0
 18 35  1  0  0  0  0
M  END
> <s_m_source_file>
AV-unprocessed.smi

> <i_m_source_file_index>
2023

> <i_lp_mmshare_version>
43012

> <i_f3d_flags>
0

> <s_epik_input>
W0NIMl0xW0NIMl1PW0NIMl1bQ0gyXU4xUyg9TykoPU8pW05IXVtDSDJdW0NIMl1jMltjSF1bY0hdW2NIXW5bY0hdMg==

> <s_epik_cmdline>
J2VwaWtfcHl0aG9uJywgJy1waCcsICc3LjAnLCAnLXRuJywgJzgnLCAnLW1hJywgJzIwMCcsICctbWV0YWxfYmluZGluZycsICctaW1hZScsICc8aW5maWxlLm1hZT4nLCAnLW9tYWUnLCAnPG91dGZpbGUubWFlPic=

> <r_epik_Ionization_Penalty>
0.0861056

> <r_epik_Ionization_Penalty_Charging>
0

> <r_epik_Ionization_Penalty_Neutral>
0.0861056

> <r_epik_State_Penalty>
0.0574425

> <r_epik_Charging_Adjusted_Penalty>
0.0574425

> <i_epik_Tot_Q>
0

> <i_epik_Tot_abs_Q>
0

> <r_epik_Metal_State_Penalty>
0.317425

> <b_epik_Metal_Only>
0

> <s_lp_Force_Field>
OPLS_2005

> <r_lp_Energy>
8.68862

> <b_lp_Chiralities_Consistent>
1

> <s_lp_Variant>
AV-unprocessed.smi:2023-1

> <Gold.Version>
5.8.1

> <Gold.Id.Protein>
6NUR|6NUR_protein|mol2

> <Gold.PLP.Fitness>
42.3304

> <Gold.PLP.PLP>
-33.9975

> <Gold.PLP.part.hbond>
-3.0000

> <Gold.PLP.part.metal>
0.0000

> <Gold.PLP.part.buried>
-5.8222

> <Gold.PLP.part.nonpolar>
-24.9277

> <Gold.PLP.part.repulsive>
0.3251

> <Gold.PLP.ligand.clash>
0.0000

> <Gold.PLP.ligand.torsion>
0.7037

> <Gold.PLP.Chemscore.Hbond>
3.0000

> <Gold.PLP.Chemscore.CHOScore>
0.0000

> <Gold.PLP.Chemscore.Metal>
0.0000

> <Gold.Chemscore.Hbonds>
donor molecule, donor type, donor heavy atom, donor atom, acceptor molecule, acceptor atom, score
      P1  H  6896  6909       L1    16  1.00
      P1  H  7989  7998       L1     1  1.00
      P1  H  7997  8008       L1     3  1.00

> <Gold.PLP.Chemscore.Internal.Correction>
0.7404

> <Gold.Rescore>
     Score         DG    S(hbond)    S(metal)    S(lipo)     H(rot)  DE(clash)    DE(int)     intcor
     18.24     -20.17       2.81        0.00      85.46       1.84       0.03       1.90       ----

> <Gold.Chemscore.Fitness>
18.2443

> <Gold.Chemscore.DG>
-20.1695

> <Gold.Chemscore.ZeroCoef>
-5.4800

> <Gold.Chemscore.Hbond>
2.8134

> <Gold.Chemscore.Metal>
0.0000

> <Gold.Chemscore.Lipo>
85.4563

> <Gold.Chemscore.Internal_Hbond>
0.0000

> <Gold.Chemscore.DEClash>
0.0275

> <Gold.Chemscore.DEInternal>
1.8977

> <Gold.Chemscore.Rot>
1.8382

> <Gold.Chemscore.Internal.Correction>
   9.000000E+99

> <Gold.Chemscore.Hbonds>
donor molecule, donor type, donor heavy atom, donor atom, acceptor molecule, acceptor atom, score
      P1  H  6896  6909       L1    16  0.69
      P1  H  7989  7998       L1     1  0.78
      P1  H  7997  8008       L1     3  1.00

> <Gold.Chemscore.Hbond.Weighted>
-9.3968

> <Gold.Chemscore.Metal.Weighted>
-0.0000

> <Gold.Chemscore.Lipo.Weighted>
-9.9984

> <Gold.Chemscore.Internal_Hbond.Weighted>
0.0000

> <Gold.Chemscore.DEClash.Weighted>
0.0275

> <Gold.Chemscore.DEInternal.Weighted>
1.8977

> <Gold.Chemscore.Rot.Weighted>
4.7057

> <Gold.Chemscore.Internal.Correction.Weighted>
   9.000000E+99

> <Gold.Protein.RotatedTorsions>
[ 6907 6896 6895 6894 ] final   58.11 input  -60.11 | X-H torsion
[ 7974 7965 7964 7962 ] final  157.82 input  175.53 | X-H torsion
[ 8008 7997 7996 7995 ] final  -36.83 input   59.86 | X-H torsion
[ 10167 10162 10161 10158 ] final   65.91 input  -65.29 | X-H torsion
[ 10718 10713 10712 10709 ] final  136.76 input   66.30 | X-H torsion
[ 10763 10752 10751 10750 ] final   62.64 input  -60.55 | X-H torsion
[ 11005 11000 10999 10996 ] final    6.57 input  -57.11 | X-H torsion

> <Gold.Protein.ActiveResidues>
 VAL166  LYS551  ARG553  GLY616  TRP617  ASP618  TYR619  PRO620  LYS621  CYS622 
 ASP623  PHE694  ASN695  SER759  ASP760  ASP761  ALA762  ILE779  LEU786  VAL792 
 PHE793  MET794  SER795  GLU796  ALA797  LYS798  CYS799  TRP800  GLU811  SER814 

> <Gold.Protein.RotatedAtoms>
  152.3794  134.6614  160.0148 H   0  0  0  0  0  0  0  0  0  0  0  0  # atno 6907 bound_to 6896
  151.6882  133.3306  159.3244 H   0  0  0  0  0  0  0  0  0  0  0  0  # atno 6908 bound_to 6896
  150.7735  134.6658  159.6409 H   0  0  0  0  0  0  0  0  0  0  0  0  # atno 6909 bound_to 6896
  144.7881  139.7393  143.6232 H   0  0  0  0  0  0  0  0  0  0  0  0  # atno 7974 bound_to 7965
  154.4065  140.1620  156.2439 H   0  0  0  0  0  0  0  0  0  0  0  0  # atno 8008 bound_to 7997
  155.9178  140.3423  155.6126 H   0  0  0  0  0  0  0  0  0  0  0  0  # atno 8009 bound_to 7997
  155.7259  140.0774  157.2301 H   0  0  0  0  0  0  0  0  0  0  0  0  # atno 8010 bound_to 7997
  140.1061  144.4860  150.7007 H   0  0  0  0  0  0  0  0  0  0  0  0  # atno 10167 bound_to 10162
  157.4433  131.1059  151.0119 H   0  0  0  0  0  0  0  0  0  0  0  0  # atno 10718 bound_to 10713
  152.9990  135.5458  154.6225 H   0  0  0  0  0  0  0  0  0  0  0  0  # atno 10763 bound_to 10752
  154.5521  135.2827  155.1001 H   0  0  0  0  0  0  0  0  0  0  0  0  # atno 10764 bound_to 10752
  154.2236  135.6446  153.5205 H   0  0  0  0  0  0  0  0  0  0  0  0  # atno 10765 bound_to 10752
  140.5579  134.0220  155.7961 H   0  0  0  0  0  0  0  0  0  0  0  0  # atno 11005 bound_to 11000
  146.2122  139.5485  142.9674 LP  0  0  0  0  0  0  0  0  0  0  0  0  # atno 17320 bound_to 7965
  145.5867  141.0375  143.2092 LP  0  0  0  0  0  0  0  0  0  0  0  0  # atno 17321 bound_to 7965
  140.6951  143.2399  151.5023 LP  0  0  0  0  0  0  0  0  0  0  0  0  # atno 17342 bound_to 10162
  139.5644  144.2077  152.1742 LP  0  0  0  0  0  0  0  0  0  0  0  0  # atno 17343 bound_to 10162
  157.0974  130.5967  149.5452 LP  0  0  0  0  0  0  0  0  0  0  0  0  # atno 17370 bound_to 10713
  155.9957  130.5024  150.7469 LP  0  0  0  0  0  0  0  0  0  0  0  0  # atno 17371 bound_to 10713
  141.1132  133.9583  157.2871 LP  0  0  0  0  0  0  0  0  0  0  0  0  # atno 17394 bound_to 11000
  139.9422  135.0189  156.8743 LP  0  0  0  0  0  0  0  0  0  0  0  0  # atno 17395 bound_to 11000

$$$$
