AV-unprocessed.smi:2784|AV-procd|sdf|10739|dock5
  -GOLD-   2272015173D 1   1.00000     0.00000
 Structure written by MMmdl.
 31 32  0  0  0  0  0  0  0  0  1 V2000
  157.3537  134.9414  153.1252 C   0  0  0  0  0  0  0  0  0  0  0  0
  156.4137  135.9552  153.4419 O   0  0  0  0  0  0  0  0  0  0  0  0
  156.9913  137.1008  154.0625 C   0  0  1  0  0  0  0  0  0  0  0  0
  158.0210  137.6586  153.0774 C   0  0  0  0  0  0  0  0  0  0  0  0
  157.2012  138.5185  152.1202 C   0  0  0  0  0  0  0  0  0  0  0  0
  156.1345  139.1662  153.0055 C   0  0  0  0  0  0  0  0  0  0  0  0
  155.9565  138.2404  154.2253 C   0  0  1  0  0  0  0  0  0  0  0  0
  154.5791  137.7592  154.3186 N   0  0  0  0  0  0  0  0  0  0  0  0
  153.4909  138.5307  154.4580 C   0  0  0  0  0  0  0  0  0  0  0  0
  153.5775  139.7609  154.5248 O   0  0  0  0  0  0  0  0  0  0  0  0
  152.3536  137.7385  154.5176 N   0  0  0  0  0  0  0  0  0  0  0  0
  151.1809  138.2921  154.4825 C   0  0  0  0  0  0  0  0  0  0  0  0
  149.9475  137.6622  154.5310 N   0  0  0  0  0  0  0  0  0  0  0  0
  148.9759  138.6222  154.4633 C   0  0  0  0  0  0  0  0  0  0  0  0
  149.5715  139.8082  154.3773 C   0  0  0  0  0  0  0  0  0  0  0  0
  150.9233  139.6404  154.3870 O   0  0  0  0  0  0  0  0  0  0  0  0
  156.8381  134.0906  152.6800 H   0  0  0  0  0  0  0  0  0  0  0  0
  157.8775  134.5897  154.0143 H   0  0  0  0  0  0  0  0  0  0  0  0
  158.0903  135.3026  152.4064 H   0  0  0  0  0  0  0  0  0  0  0  0
  157.4663  136.8501  155.0131 H   0  0  0  0  0  0  0  0  0  0  0  0
  158.7338  138.2890  153.6110 H   0  0  0  0  0  0  0  0  0  0  0  0
  158.5867  136.8784  152.5670 H   0  0  0  0  0  0  0  0  0  0  0  0
  157.8081  139.2525  151.5891 H   0  0  0  0  0  0  0  0  0  0  0  0
  156.7228  137.8813  151.3751 H   0  0  0  0  0  0  0  0  0  0  0  0
  156.4808  140.1445  153.3419 H   0  0  0  0  0  0  0  0  0  0  0  0
  155.2086  139.3294  152.4519 H   0  0  0  0  0  0  0  0  0  0  0  0
  156.2051  138.8205  155.1160 H   0  0  0  0  0  0  0  0  0  0  0  0
  154.4455  136.7591  154.2812 H   0  0  0  0  0  0  0  0  0  0  0  0
  149.7526  136.6740  154.6030 H   0  0  0  0  0  0  0  0  0  0  0  0
  147.9321  138.3457  154.4847 H   0  0  0  0  0  0  0  0  0  0  0  0
  149.1918  140.8167  154.3054 H   0  0  0  0  0  0  0  0  0  0  0  0
  1  2  1  0  0  0  0
  1 17  1  0  0  0  0
  1 18  1  0  0  0  0
  1 19  1  0  0  0  0
  2  3  1  0  0  0  0
  3  7  1  0  0  0  0
  3  4  1  0  0  0  0
  3 20  1  0  0  0  0
  4  5  1  0  0  0  0
  4 21  1  0  0  0  0
  4 22  1  0  0  0  0
  5  6  1  0  0  0  0
  5 23  1  0  0  0  0
  5 24  1  0  0  0  0
  6  7  1  0  0  0  0
  6 25  1  0  0  0  0
  6 26  1  0  0  0  0
  7  8  1  0  0  0  0
  7 27  1  0  0  0  0
  8 28  1  0  0  0  0
  8  9  1  0  0  0  0
  9 11  1  0  0  0  0
  9 10  2  0  0  0  0
 11 12  2  0  0  0  0
 12 16  1  0  0  0  0
 12 13  1  0  0  0  0
 13 29  1  0  0  0  0
 13 14  1  0  0  0  0
 14 30  1  0  0  0  0
 14 15  2  0  0  0  0
 15 31  1  0  0  0  0
 15 16  1  0  0  0  0
M  END
> <s_m_source_file>
AV-unprocessed.smi

> <i_m_source_file_index>
2784

> <i_lp_mmshare_version>
43012

> <i_f3d_flags>
0

> <s_epik_input>
W0NIM11PW0NAQEhdMVtDSDJdW0NIMl1bQ0gyXVtDQEhdMVtOSF1DKD1PKVtOSF1jMm5bY0hdW2NIXW8y

> <s_epik_cmdline>
J2VwaWtfcHl0aG9uJywgJy1waCcsICc3LjAnLCAnLXRuJywgJzgnLCAnLW1hJywgJzIwMCcsICctbWV0YWxfYmluZGluZycsICctaW1hZScsICc8aW5maWxlLm1hZT4nLCAnLW9tYWUnLCAnPG91dGZpbGUubWFlPic=

> <r_lp_tautomer_probability>
0.107061

> <r_epik_Ionization_Penalty>
1.29244

> <r_epik_Ionization_Penalty_Charging>
1.29208

> <r_epik_Ionization_Penalty_Neutral>
0.000359742

> <r_epik_State_Penalty>
2.59896

> <r_epik_Charging_Adjusted_Penalty>
3.89105

> <i_epik_Tot_Q>
0

> <i_epik_Tot_abs_Q>
0

> <r_epik_Metal_State_Penalty>
3.62496

> <b_epik_Metal_Only>
0

> <s_lp_Force_Field>
OPLS_2005

> <r_lp_Energy>
45.4074

> <b_lp_Chiralities_Consistent>
1

> <s_lp_Variant>
AV-unprocessed.smi:2784-14

> <Gold.Version>
5.8.1

> <Gold.Id.Protein>
6NUR|6NUR_protein|mol2

> <Gold.PLP.Fitness>
38.1581

> <Gold.PLP.PLP>
-27.0420

> <Gold.PLP.part.hbond>
-5.8843

> <Gold.PLP.part.metal>
0.0000

> <Gold.PLP.part.buried>
-2.0436

> <Gold.PLP.part.nonpolar>
-22.2803

> <Gold.PLP.part.repulsive>
4.4288

> <Gold.PLP.ligand.clash>
0.0000

> <Gold.PLP.ligand.torsion>
0.0306

> <Gold.PLP.Chemscore.Hbond>
3.7218

> <Gold.PLP.Chemscore.CHOScore>
0.0000

> <Gold.PLP.Chemscore.Metal>
0.0000

> <Gold.Chemscore.Hbonds>
donor molecule, donor type, donor heavy atom, donor atom, acceptor molecule, acceptor atom, score
      P1  H  7989  7998       L1    16  1.00
      P1  H  7997  8008       L1    10  1.00
      P1  H 10752 10763       L1    11  0.40
      P1  H 10752 10765       L1     2  1.00

> <Gold.PLP.Chemscore.Internal.Correction>
0.0120

> <Gold.Rescore>
     Score         DG    S(hbond)    S(metal)    S(lipo)     H(rot)  DE(clash)    DE(int)     intcor
     16.27     -21.15       2.88        0.00      80.73       1.32       2.22       2.65       ----

> <Gold.Chemscore.Fitness>
16.2709

> <Gold.Chemscore.DG>
-21.1453

> <Gold.Chemscore.ZeroCoef>
-5.4800

> <Gold.Chemscore.Hbond>
2.8767

> <Gold.Chemscore.Metal>
0.0000

> <Gold.Chemscore.Lipo>
80.7288

> <Gold.Chemscore.Internal_Hbond>
0.0000

> <Gold.Chemscore.DEClash>
2.2200

> <Gold.Chemscore.DEInternal>
2.6544

> <Gold.Chemscore.Rot>
1.3235

> <Gold.Chemscore.Internal.Correction>
   9.000000E+99

> <Gold.Chemscore.Hbonds>
donor molecule, donor type, donor heavy atom, donor atom, acceptor molecule, acceptor atom, score
      P1  H  7989  7998       L1    16  0.70
      P1  H  7997  8008       L1    10  0.78
      P1  H 10752 10763       L1    11  0.22
      P1  H 10752 10765       L1     2  0.95

> <Gold.Chemscore.Hbond.Weighted>
-9.6082

> <Gold.Chemscore.Metal.Weighted>
-0.0000

> <Gold.Chemscore.Lipo.Weighted>
-9.4453

> <Gold.Chemscore.Internal_Hbond.Weighted>
0.0000

> <Gold.Chemscore.DEClash.Weighted>
2.2200

> <Gold.Chemscore.DEInternal.Weighted>
2.6544

> <Gold.Chemscore.Rot.Weighted>
3.3882

> <Gold.Chemscore.Internal.Correction.Weighted>
   9.000000E+99

> <Gold.Protein.RotatedTorsions>
[ 6907 6896 6895 6894 ] final -143.16 input  -60.11 | X-H torsion
[ 7974 7965 7964 7962 ] final   89.35 input  175.53 | X-H torsion
[ 8008 7997 7996 7995 ] final   -8.31 input   59.86 | X-H torsion
[ 10167 10162 10161 10158 ] final  -84.74 input  -65.29 | X-H torsion
[ 10718 10713 10712 10709 ] final    0.48 input   66.30 | X-H torsion
[ 10763 10752 10751 10750 ] final   28.34 input  -60.55 | X-H torsion
[ 11005 11000 10999 10996 ] final  110.89 input  -57.11 | X-H torsion

> <Gold.Protein.ActiveResidues>
 VAL166  LYS551  ARG553  GLY616  TRP617  ASP618  TYR619  PRO620  LYS621  CYS622 
 ASP623  PHE694  ASN695  SER759  ASP760  ASP761  ALA762  ILE779  LEU786  VAL792 
 PHE793  MET794  SER795  GLU796  ALA797  LYS798  CYS799  TRP800  GLU811  SER814 

> <Gold.Protein.RotatedAtoms>
  151.0968  133.5274  159.2611 H   0  0  0  0  0  0  0  0  0  0  0  0  # atno 6907 bound_to 6896
  151.2120  135.0484  159.8925 H   0  0  0  0  0  0  0  0  0  0  0  0  # atno 6908 bound_to 6896
  152.5439  134.0782  159.8277 H   0  0  0  0  0  0  0  0  0  0  0  0  # atno 6909 bound_to 6896
  145.5335  139.2284  143.2605 H   0  0  0  0  0  0  0  0  0  0  0  0  # atno 7974 bound_to 7965
  154.5753  140.2384  155.8132 H   0  0  0  0  0  0  0  0  0  0  0  0  # atno 8008 bound_to 7997
  156.2138  140.3018  155.9750 H   0  0  0  0  0  0  0  0  0  0  0  0  # atno 8009 bound_to 7997
  155.2638  140.0415  157.2990 H   0  0  0  0  0  0  0  0  0  0  0  0  # atno 8010 bound_to 7997
  140.4103  143.2625  151.9026 H   0  0  0  0  0  0  0  0  0  0  0  0  # atno 10167 bound_to 10162
  156.8340  130.5498  149.5684 H   0  0  0  0  0  0  0  0  0  0  0  0  # atno 10718 bound_to 10713
  153.0498  135.6515  154.0723 H   0  0  0  0  0  0  0  0  0  0  0  0  # atno 10763 bound_to 10752
  154.0413  135.2903  155.3356 H   0  0  0  0  0  0  0  0  0  0  0  0  # atno 10764 bound_to 10752
  154.6779  135.5331  153.8291 H   0  0  0  0  0  0  0  0  0  0  0  0  # atno 10765 bound_to 10752
  139.8891  134.9495  156.6349 H   0  0  0  0  0  0  0  0  0  0  0  0  # atno 11005 bound_to 11000
  146.2028  140.6153  142.9094 LP  0  0  0  0  0  0  0  0  0  0  0  0  # atno 17320 bound_to 7965
  144.7613  140.5429  143.6733 LP  0  0  0  0  0  0  0  0  0  0  0  0  # atno 17321 bound_to 7965
  139.4782  144.5543  151.8338 LP  0  0  0  0  0  0  0  0  0  0  0  0  # atno 17342 bound_to 10162
  140.4644  144.1676  150.5910 LP  0  0  0  0  0  0  0  0  0  0  0  0  # atno 17343 bound_to 10162
  156.0918  130.5901  150.9745 LP  0  0  0  0  0  0  0  0  0  0  0  0  # atno 17370 bound_to 10713
  157.6391  131.0912  150.8288 LP  0  0  0  0  0  0  0  0  0  0  0  0  # atno 17371 bound_to 10713
  140.7638  133.8795  155.8439 LP  0  0  0  0  0  0  0  0  0  0  0  0  # atno 17394 bound_to 11000
  140.9899  134.1292  157.4417 LP  0  0  0  0  0  0  0  0  0  0  0  0  # atno 17395 bound_to 11000

$$$$
