AV-unprocessed.smi:3037|AV-procd|sdf|11586|dock4
  -GOLD-   2272016563D 1   1.00000     0.00000
 Structure written by MMmdl.
 47 48  0  0  0  0  0  0  0  0  2 V2000
  144.6133  131.1376  150.8474 C   0  0  0  0  0  0  0  0  0  0  0  0
  144.6982  132.5928  151.2082 C   0  0  0  0  0  0  0  0  0  0  0  0
  143.9536  133.2921  152.2002 C   0  0  0  0  0  0  0  0  0  0  0  0
  144.2664  134.5759  152.2677 N   0  0  0  0  0  0  0  0  0  0  0  0
  145.2193  134.7410  151.3260 N   0  0  0  0  0  0  0  0  0  0  0  0
  145.8068  136.0518  151.1135 C   0  0  0  0  0  0  0  0  0  0  0  0
  145.9924  136.8497  152.4207 C   0  0  2  0  0  0  0  0  0  0  0  0
  144.6509  137.2192  153.0850 C   0  0  0  0  0  0  0  0  0  0  0  0
  146.8004  138.0576  152.1377 N   0  3  0  0  0  0  0  0  0  0  0  0
  146.9020  139.0310  153.2458 C   0  0  0  0  0  0  0  0  0  0  0  0
  147.8853  140.1621  152.8930 C   0  0  0  0  0  0  0  0  0  0  0  0
  148.1068  141.1695  154.0354 C   0  0  0  0  0  0  0  0  0  0  0  0
  147.5918  142.2853  153.9499 O   0  0  0  0  0  0  0  0  0  0  0  0
  148.8612  140.8022  155.1004 N   0  0  0  0  0  0  0  0  0  0  0  0
  149.5174  139.4903  155.1912 C   0  0  0  0  0  0  0  0  0  0  0  0
  151.0405  139.6820  155.0719 C   0  0  0  0  0  0  0  0  0  0  0  0
  151.5578  140.6629  156.1402 C   0  0  0  0  0  0  0  0  0  0  0  0
  150.7408  141.9683  156.1537 C   0  0  0  0  0  0  0  0  0  0  0  0
  149.2317  141.6718  156.2265 C   0  0  0  0  0  0  0  0  0  0  0  0
  145.4968  133.5611  150.6687 C   0  0  0  0  0  0  0  0  0  0  0  0
  144.1238  130.5546  151.6278 H   0  0  0  0  0  0  0  0  0  0  0  0
  145.6004  130.7015  150.6934 H   0  0  0  0  0  0  0  0  0  0  0  0
  144.0461  130.9847  149.9291 H   0  0  0  0  0  0  0  0  0  0  0  0
  143.1982  132.9060  152.8687 H   0  0  0  0  0  0  0  0  0  0  0  0
  146.7692  135.9099  150.6198 H   0  0  0  0  0  0  0  0  0  0  0  0
  145.1801  136.6098  150.4152 H   0  0  0  0  0  0  0  0  0  0  0  0
  146.5590  136.2227  153.1111 H   0  0  0  0  0  0  0  0  0  0  0  0
  144.0663  136.3311  153.3248 H   0  0  0  0  0  0  0  0  0  0  0  0
  144.0453  137.8461  152.4300 H   0  0  0  0  0  0  0  0  0  0  0  0
  144.7942  137.7566  154.0218 H   0  0  0  0  0  0  0  0  0  0  0  0
  147.7387  137.7505  151.9248 H   0  0  0  0  0  0  0  0  0  0  0  0
  145.9167  139.4486  153.4535 H   0  0  0  0  0  0  0  0  0  0  0  0
  147.2342  138.5136  154.1472 H   0  0  0  0  0  0  0  0  0  0  0  0
  148.8477  139.7293  152.6159 H   0  0  0  0  0  0  0  0  0  0  0  0
  147.5067  140.7012  152.0237 H   0  0  0  0  0  0  0  0  0  0  0  0
  149.2709  139.0295  156.1489 H   0  0  0  0  0  0  0  0  0  0  0  0
  149.1737  138.7890  154.4299 H   0  0  0  0  0  0  0  0  0  0  0  0
  151.5488  138.7224  155.1689 H   0  0  0  0  0  0  0  0  0  0  0  0
  151.2826  140.0622  154.0787 H   0  0  0  0  0  0  0  0  0  0  0  0
  151.4897  140.1898  157.1207 H   0  0  0  0  0  0  0  0  0  0  0  0
  152.6135  140.8791  155.9750 H   0  0  0  0  0  0  0  0  0  0  0  0
  151.0435  142.5884  156.9978 H   0  0  0  0  0  0  0  0  0  0  0  0
  150.9563  142.5441  155.2527 H   0  0  0  0  0  0  0  0  0  0  0  0
  148.6769  142.6074  156.2637 H   0  0  0  0  0  0  0  0  0  0  0  0
  148.9988  141.1608  157.1620 H   0  0  0  0  0  0  0  0  0  0  0  0
  146.2329  133.5078  149.8800 H   0  0  0  0  0  0  0  0  0  0  0  0
  146.4226  138.5186  151.3224 H   0  0  0  0  0  0  0  0  0  0  0  0
  1  2  1  0  0  0  0
  1 21  1  0  0  0  0
  1 22  1  0  0  0  0
  1 23  1  0  0  0  0
  2 20  2  0  0  0  0
  2  3  1  0  0  0  0
  3  4  2  0  0  0  0
  3 24  1  0  0  0  0
  4  5  1  0  0  0  0
  5  6  1  0  0  0  0
  5 20  1  0  0  0  0
  6  7  1  0  0  0  0
  6 25  1  0  0  0  0
  6 26  1  0  0  0  0
  7  8  1  0  0  0  0
  7  9  1  0  0  0  0
  7 27  1  0  0  0  0
  8 28  1  0  0  0  0
  8 29  1  0  0  0  0
  8 30  1  0  0  0  0
  9 10  1  0  0  0  0
  9 31  1  0  0  0  0
  9 47  1  0  0  0  0
 10 11  1  0  0  0  0
 10 32  1  0  0  0  0
 10 33  1  0  0  0  0
 11 12  1  0  0  0  0
 11 34  1  0  0  0  0
 11 35  1  0  0  0  0
 12 13  2  0  0  0  0
 12 14  1  0  0  0  0
 14 19  1  0  0  0  0
 14 15  1  0  0  0  0
 15 16  1  0  0  0  0
 15 36  1  0  0  0  0
 15 37  1  0  0  0  0
 16 17  1  0  0  0  0
 16 38  1  0  0  0  0
 16 39  1  0  0  0  0
 17 18  1  0  0  0  0
 17 40  1  0  0  0  0
 17 41  1  0  0  0  0
 18 19  1  0  0  0  0
 18 42  1  0  0  0  0
 18 43  1  0  0  0  0
 19 44  1  0  0  0  0
 19 45  1  0  0  0  0
 20 46  1  0  0  0  0
M  CHG  1   9   1
M  END
> <s_m_source_file>
AV-unprocessed.smi

> <i_m_source_file_index>
3037

> <i_lp_mmshare_version>
43012

> <i_f3d_flags>
0

> <s_epik_input>
W0NIM11jMVtjSF1ubihbY0hdMSlbQ0gyXVtDQEhdKFtDSDNdKVtOSF1bQ0gyXVtDSDJdQyg9TylOMltDSDJdW0NIMl1bQ0gyXVtDSDJdW0NIMl0y

> <s_epik_cmdline>
J2VwaWtfcHl0aG9uJywgJy1waCcsICc3LjAnLCAnLXRuJywgJzgnLCAnLW1hJywgJzIwMCcsICctbWV0YWxfYmluZGluZycsICctaW1hZScsICc8aW5maWxlLm1hZT4nLCAnLW9tYWUnLCAnPG91dGZpbGUubWFlPic=

> <r_lp_tautomer_probability>
1

> <r_epik_Ionization_Penalty>
0.00574983

> <r_epik_Ionization_Penalty_Charging>
0.00574185

> <r_epik_Ionization_Penalty_Neutral>
7.97936e-06

> <r_epik_State_Penalty>
0.00421386

> <r_epik_Charging_Adjusted_Penalty>
0.00995571

> <i_epik_Tot_Q>
1

> <i_epik_Tot_abs_Q>
1

> <r_epik_Metal_State_Penalty>
-0

> <b_epik_Metal_Only>
0

> <s_lp_Force_Field>
OPLS_2005

> <r_lp_Energy>
27.2307

> <b_lp_Chiralities_Consistent>
1

> <s_lp_Variant>
AV-unprocessed.smi:3037-1

> <Gold.Version>
5.8.1

> <Gold.Id.Protein>
6NUR|6NUR_protein|mol2

> <Gold.PLP.Fitness>
46.6363

> <Gold.PLP.PLP>
-35.8125

> <Gold.PLP.part.hbond>
-1.6511

> <Gold.PLP.part.metal>
0.0000

> <Gold.PLP.part.buried>
2.2745

> <Gold.PLP.part.nonpolar>
-37.3501

> <Gold.PLP.part.repulsive>
0.7602

> <Gold.PLP.ligand.clash>
0.0000

> <Gold.PLP.ligand.torsion>
0.6082

> <Gold.PLP.Chemscore.Hbond>
1.9840

> <Gold.PLP.Chemscore.CHOScore>
1.9984

> <Gold.PLP.Chemscore.Metal>
0.0000

> <Gold.Chemscore.Hbonds>
donor molecule, donor type, donor heavy atom, donor atom, acceptor molecule, acceptor atom, score
      L1  H     9    31       P1  7948  1.86
      L1  C     3    24       P1 10957  1.00
      L1  C    20    46       P1  7921  0.39

> <Gold.PLP.Chemscore.Internal.Correction>
0.0931

> <Gold.Rescore>
     Score         DG    S(hbond)    S(metal)    S(lipo)     H(rot)  DE(clash)    DE(int)     intcor
     12.06     -14.62       0.97        0.00      90.68       1.84       1.63       0.93       ----

> <Gold.Chemscore.Fitness>
12.0630

> <Gold.Chemscore.DG>
-14.6214

> <Gold.Chemscore.ZeroCoef>
-5.4800

> <Gold.Chemscore.Hbond>
0.9694

> <Gold.Chemscore.Metal>
0.0000

> <Gold.Chemscore.Lipo>
90.6820

> <Gold.Chemscore.Internal_Hbond>
0.0000

> <Gold.Chemscore.DEClash>
1.6323

> <Gold.Chemscore.DEInternal>
0.9260

> <Gold.Chemscore.Rot>
1.8383

> <Gold.Chemscore.Internal.Correction>
   9.000000E+99

> <Gold.Chemscore.Hbonds>
donor molecule, donor type, donor heavy atom, donor atom, acceptor molecule, acceptor atom, score
      L1  H     9    31       P1  7948  0.91

> <Gold.Chemscore.Hbond.Weighted>
-3.2377

> <Gold.Chemscore.Metal.Weighted>
-0.0000

> <Gold.Chemscore.Lipo.Weighted>
-10.6098

> <Gold.Chemscore.Internal_Hbond.Weighted>
0.0000

> <Gold.Chemscore.DEClash.Weighted>
1.6323

> <Gold.Chemscore.DEInternal.Weighted>
0.9260

> <Gold.Chemscore.Rot.Weighted>
4.7062

> <Gold.Chemscore.Internal.Correction.Weighted>
   9.000000E+99

> <Gold.Protein.RotatedTorsions>
[ 6907 6896 6895 6894 ] final  -75.64 input  -60.11 | X-H torsion
[ 7974 7965 7964 7962 ] final -118.49 input  175.53 | X-H torsion
[ 8008 7997 7996 7995 ] final   46.40 input   59.86 | X-H torsion
[ 10167 10162 10161 10158 ] final    8.40 input  -65.29 | X-H torsion
[ 10718 10713 10712 10709 ] final  121.85 input   66.30 | X-H torsion
[ 10763 10752 10751 10750 ] final  -16.41 input  -60.55 | X-H torsion
[ 11005 11000 10999 10996 ] final   93.30 input  -57.11 | X-H torsion

> <Gold.Protein.ActiveResidues>
 VAL166  LYS551  ARG553  GLY616  TRP617  ASP618  TYR619  PRO620  LYS621  CYS622 
 ASP623  PHE694  ASN695  SER759  ASP760  ASP761  ALA762  ILE779  LEU786  VAL792 
 PHE793  MET794  SER795  GLU796  ALA797  LYS798  CYS799  TRP800  GLU811  SER814 

> <Gold.Protein.RotatedAtoms>
  150.7052  134.4691  159.5416 H   0  0  0  0  0  0  0  0  0  0  0  0  # atno 6907 bound_to 6896
  152.2351  134.8281  160.0477 H   0  0  0  0  0  0  0  0  0  0  0  0  # atno 6908 bound_to 6896
  151.9083  133.3520  159.3891 H   0  0  0  0  0  0  0  0  0  0  0  0  # atno 6909 bound_to 6896
  145.0732  140.8374  143.4083 H   0  0  0  0  0  0  0  0  0  0  0  0  # atno 7974 bound_to 7965
  155.3518  140.3414  155.4239 H   0  0  0  0  0  0  0  0  0  0  0  0  # atno 8008 bound_to 7997
  156.1760  140.1647  156.8397 H   0  0  0  0  0  0  0  0  0  0  0  0  # atno 8009 bound_to 7997
  154.5282  140.0751  156.8280 H   0  0  0  0  0  0  0  0  0  0  0  0  # atno 8010 bound_to 7997
  140.6316  143.7981  150.7303 H   0  0  0  0  0  0  0  0  0  0  0  0  # atno 10167 bound_to 10162
  157.5787  131.1077  150.8230 H   0  0  0  0  0  0  0  0  0  0  0  0  # atno 10718 bound_to 10713
  153.5581  135.7010  153.5560 H   0  0  0  0  0  0  0  0  0  0  0  0  # atno 10763 bound_to 10752
  153.3454  135.4009  155.1604 H   0  0  0  0  0  0  0  0  0  0  0  0  # atno 10764 bound_to 10752
  154.8652  135.3752  154.5097 H   0  0  0  0  0  0  0  0  0  0  0  0  # atno 10765 bound_to 10752
  139.8812  134.8782  156.3699 H   0  0  0  0  0  0  0  0  0  0  0  0  # atno 11005 bound_to 11000
  145.1267  139.2658  143.5560 LP  0  0  0  0  0  0  0  0  0  0  0  0  # atno 17320 bound_to 7965
  146.3529  140.0906  142.8613 LP  0  0  0  0  0  0  0  0  0  0  0  0  # atno 17321 bound_to 7965
  140.1593  143.4289  152.2078 LP  0  0  0  0  0  0  0  0  0  0  0  0  # atno 17342 bound_to 10162
  139.5530  144.7352  151.4379 LP  0  0  0  0  0  0  0  0  0  0  0  0  # atno 17343 bound_to 10162
  156.8682  130.5136  149.5298 LP  0  0  0  0  0  0  0  0  0  0  0  0  # atno 17370 bound_to 10713
  156.0832  130.5837  150.9601 LP  0  0  0  0  0  0  0  0  0  0  0  0  # atno 17371 bound_to 10713
  140.9472  133.7475  156.0223 LP  0  0  0  0  0  0  0  0  0  0  0  0  # atno 17394 bound_to 11000
  140.8149  134.3356  157.5400 LP  0  0  0  0  0  0  0  0  0  0  0  0  # atno 17395 bound_to 11000

$$$$
