AV-unprocessed.smi:193|AV-procd|sdf|1515|dock8
  -GOLD-   2262019353D 1   1.00000     0.00000
 Structure written by MMmdl.
 61 65  0  0  0  0  0  0  0  0  1 V2000
  152.3101  138.4526  155.9921 C   0  0  0  0  0  0  0  0  0  0  0  0
  151.7550  139.8226  156.4113 C   0  0  1  0  0  0  0  0  0  0  0  0
  150.2225  139.8317  156.2249 C   0  0  0  0  0  0  0  0  0  0  0  0
  149.6194  141.1651  156.1891 N   0  0  0  0  0  0  0  0  0  0  0  0
  148.4938  141.3452  155.4455 C   0  0  0  0  0  0  0  0  0  0  0  0
  148.4614  140.8600  154.1751 N   0  0  0  0  0  0  0  0  0  0  0  0
  147.3749  141.0143  153.4139 C   0  0  0  0  0  0  0  0  0  0  0  0
  146.2237  141.6155  153.7161 N   0  0  0  0  0  0  0  0  0  0  0  0
  146.2440  142.1083  154.9870 C   0  0  0  0  0  0  0  0  0  0  0  0
  147.3237  142.0165  155.9126 C   0  0  0  0  0  0  0  0  0  0  0  0
  146.9709  142.6467  157.1018 N   0  0  0  0  0  0  0  0  0  0  0  0
  145.7572  143.0769  156.8939 C   0  0  0  0  0  0  0  0  0  0  0  0
  145.2465  142.8061  155.6457 N   0  0  0  0  0  0  0  0  0  0  0  0
  143.9339  143.1818  155.1423 C   0  0  0  0  0  0  0  0  0  0  0  0
  143.8957  144.5831  154.4832 C   0  0  0  0  0  0  0  0  0  0  0  0
  144.5372  144.4821  153.2231 O   0  0  0  0  0  0  0  0  0  0  0  0
  142.4563  145.0966  154.2593 C   0  0  0  0  0  0  0  0  0  0  0  0
  142.4310  146.5622  153.7909 C   0  0  0  0  0  0  0  0  0  0  0  0
  143.1413  147.3836  154.7100 O   0  0  0  0  0  0  0  0  0  0  0  0
  144.5187  147.0407  154.8041 C   0  0  0  0  0  0  0  0  0  0  0  0
  144.6687  145.6055  155.3400 C   0  0  0  0  0  0  0  0  0  0  0  0
  150.2832  142.3227  156.7903 C   0  0  0  0  0  0  0  0  0  0  0  0
  150.7674  142.0476  158.2203 C   0  0  0  0  0  0  0  0  0  0  0  0
  152.1352  141.5373  158.2131 N   0  0  0  0  0  0  0  0  0  0  0  0
  152.6881  141.6931  159.5519 C   0  0  1  0  0  0  0  0  0  0  0  0
  154.1209  142.1630  159.6726 C   0  0  0  0  0  0  0  0  0  0  0  0
  152.9938  143.0923  160.0557 C   0  0  1  0  0  0  0  0  0  0  0  0
  152.7203  144.3377  159.2345 C   0  0  0  0  0  0  0  0  0  0  0  0
  152.1642  140.1160  157.8719 C   0  0  0  0  0  0  0  0  0  0  0  0
  151.9000  137.6530  156.6100 H   0  0  0  0  0  0  0  0  0  0  0  0
  153.3962  138.4213  156.0837 H   0  0  0  0  0  0  0  0  0  0  0  0
  152.0662  138.2289  154.9532 H   0  0  0  0  0  0  0  0  0  0  0  0
  152.2111  140.5582  155.7467 H   0  0  0  0  0  0  0  0  0  0  0  0
  149.9940  139.3334  155.2818 H   0  0  0  0  0  0  0  0  0  0  0  0
  149.7468  139.2437  157.0104 H   0  0  0  0  0  0  0  0  0  0  0  0
  147.4386  140.5983  152.4190 H   0  0  0  0  0  0  0  0  0  0  0  0
  145.2009  143.6172  157.6460 H   0  0  0  0  0  0  0  0  0  0  0  0
  143.6170  142.4234  154.4251 H   0  0  0  0  0  0  0  0  0  0  0  0
  143.2238  143.1312  155.9691 H   0  0  0  0  0  0  0  0  0  0  0  0
  144.0371  143.8935  152.6783 H   0  0  0  0  0  0  0  0  0  0  0  0
  141.9260  144.4735  153.5382 H   0  0  0  0  0  0  0  0  0  0  0  0
  141.8996  145.0230  155.1946 H   0  0  0  0  0  0  0  0  0  0  0  0
  142.8571  146.6625  152.7915 H   0  0  0  0  0  0  0  0  0  0  0  0
  141.4014  146.9148  153.7298 H   0  0  0  0  0  0  0  0  0  0  0  0
  144.9997  147.1512  153.8311 H   0  0  0  0  0  0  0  0  0  0  0  0
  145.0090  147.7431  155.4783 H   0  0  0  0  0  0  0  0  0  0  0  0
  144.2904  145.5785  156.3629 H   0  0  0  0  0  0  0  0  0  0  0  0
  145.7241  145.3360  155.3989 H   0  0  0  0  0  0  0  0  0  0  0  0
  151.0977  142.6674  156.1517 H   0  0  0  0  0  0  0  0  0  0  0  0
  149.5786  143.1525  156.8552 H   0  0  0  0  0  0  0  0  0  0  0  0
  150.7697  143.0038  158.7457 H   0  0  0  0  0  0  0  0  0  0  0  0
  150.0860  141.3971  158.7713 H   0  0  0  0  0  0  0  0  0  0  0  0
  152.3734  140.9877  160.3196 H   0  0  0  0  0  0  0  0  0  0  0  0
  154.7201  141.7423  160.4773 H   0  0  0  0  0  0  0  0  0  0  0  0
  154.6646  142.3792  158.7546 H   0  0  0  0  0  0  0  0  0  0  0  0
  152.8452  143.2438  161.1230 H   0  0  0  0  0  0  0  0  0  0  0  0
  152.9310  144.1671  158.1783 H   0  0  0  0  0  0  0  0  0  0  0  0
  153.3495  145.1574  159.5813 H   0  0  0  0  0  0  0  0  0  0  0  0
  151.6763  144.6332  159.3382 H   0  0  0  0  0  0  0  0  0  0  0  0
  151.5513  139.5400  158.5674 H   0  0  0  0  0  0  0  0  0  0  0  0
  153.1895  139.7712  158.0132 H   0  0  0  0  0  0  0  0  0  0  0  0
  1  2  1  0  0  0  0
  1 30  1  0  0  0  0
  1 31  1  0  0  0  0
  1 32  1  0  0  0  0
  2 29  1  0  0  0  0
  2  3  1  0  0  0  0
  2 33  1  0  0  0  0
  3  4  1  0  0  0  0
  3 34  1  0  0  0  0
  3 35  1  0  0  0  0
  4  5  1  0  0  0  0
  4 22  1  0  0  0  0
  5 10  1  0  0  0  0
  5  6  2  0  0  0  0
  6  7  1  0  0  0  0
  7  8  2  0  0  0  0
  7 36  1  0  0  0  0
  8  9  1  0  0  0  0
  9 13  1  0  0  0  0
  9 10  2  0  0  0  0
 10 11  1  0  0  0  0
 11 12  2  0  0  0  0
 12 13  1  0  0  0  0
 12 37  1  0  0  0  0
 13 14  1  0  0  0  0
 14 15  1  0  0  0  0
 14 38  1  0  0  0  0
 14 39  1  0  0  0  0
 15 21  1  0  0  0  0
 15 16  1  0  0  0  0
 15 17  1  0  0  0  0
 16 40  1  0  0  0  0
 17 18  1  0  0  0  0
 17 41  1  0  0  0  0
 17 42  1  0  0  0  0
 18 19  1  0  0  0  0
 18 43  1  0  0  0  0
 18 44  1  0  0  0  0
 19 20  1  0  0  0  0
 20 21  1  0  0  0  0
 20 45  1  0  0  0  0
 20 46  1  0  0  0  0
 21 47  1  0  0  0  0
 21 48  1  0  0  0  0
 22 23  1  0  0  0  0
 22 49  1  0  0  0  0
 22 50  1  0  0  0  0
 23 24  1  0  0  0  0
 23 51  1  0  0  0  0
 23 52  1  0  0  0  0
 24 25  1  0  0  0  0
 24 29  1  0  0  0  0
 25 27  1  0  0  0  0
 25 26  1  0  0  0  0
 25 53  1  0  0  0  0
 26 27  1  0  0  0  0
 26 54  1  0  0  0  0
 26 55  1  0  0  0  0
 27 28  1  0  0  0  0
 27 56  1  0  0  0  0
 28 57  1  0  0  0  0
 28 58  1  0  0  0  0
 28 59  1  0  0  0  0
 29 60  1  0  0  0  0
 29 61  1  0  0  0  0
M  END
> <s_m_source_file>
AV-unprocessed.smi

> <i_m_source_file_index>
193

> <i_lp_mmshare_version>
43012

> <i_f3d_flags>
0

> <s_epik_input>
W0NIM11bQ0BASF0xW0NIMl1bQ0BIXTFOKFtDSDJdMilbQ0gyXVtDSDJdTihbQ0gyXVtDQEhdMltDSDNdKWMobltjSF1uMyljKGMzNCluW2NIXW40W0NIMl1DNShbT0hdKVtDSDJdW0NIMl1PW0NIMl1bQ0gyXTU=

> <s_epik_cmdline>
J2VwaWtfcHl0aG9uJywgJy1waCcsICc3LjAnLCAnLXRuJywgJzgnLCAnLW1hJywgJzIwMCcsICctbWV0YWxfYmluZGluZycsICctaW1hZScsICc8aW5maWxlLm1hZT4nLCAnLW9tYWUnLCAnPG91dGZpbGUubWFlPic=

> <r_lp_tautomer_probability>
1

> <r_epik_Ionization_Penalty>
1.45227

> <r_epik_Ionization_Penalty_Charging>
0

> <r_epik_Ionization_Penalty_Neutral>
1.45227

> <r_epik_State_Penalty>
2.02377

> <r_epik_Charging_Adjusted_Penalty>
2.02377

> <i_epik_Tot_Q>
0

> <i_epik_Tot_abs_Q>
0

> <r_epik_Metal_State_Penalty>
2.01937

> <b_epik_Metal_Only>
0

> <s_lp_Force_Field>
OPLS_2005

> <r_lp_Energy>
52.058

> <b_lp_Chiralities_Consistent>
1

> <s_lp_Variant>
AV-unprocessed.smi:193-20

> <Gold.Version>
5.8.1

> <Gold.Id.Protein>
6NUR|6NUR_protein|mol2

> <Gold.PLP.Fitness>
49.1546

> <Gold.PLP.PLP>
-46.1481

> <Gold.PLP.part.hbond>
-1.0000

> <Gold.PLP.part.metal>
0.0000

> <Gold.PLP.part.buried>
-7.6770

> <Gold.PLP.part.nonpolar>
-40.5542

> <Gold.PLP.part.repulsive>
0.7374

> <Gold.PLP.ligand.clash>
0.0000

> <Gold.PLP.ligand.torsion>
2.0626

> <Gold.PLP.Chemscore.Hbond>
1.0000

> <Gold.PLP.Chemscore.CHOScore>
0.9782

> <Gold.PLP.Chemscore.Metal>
0.0000

> <Gold.Chemscore.Hbonds>
donor molecule, donor type, donor heavy atom, donor atom, acceptor molecule, acceptor atom, score
      L1  H    16    40       P1 10174  1.00
      L1  C     7    36       P1  7957  0.90

> <Gold.PLP.Chemscore.Internal.Correction>
1.1972

> <Gold.Rescore>
     Score         DG    S(hbond)    S(metal)    S(lipo)     H(rot)  DE(clash)    DE(int)     intcor
     14.27     -17.07       0.96        0.00     113.40       1.91       0.34       2.46       ----

> <Gold.Chemscore.Fitness>
14.2676

> <Gold.Chemscore.DG>
-17.0698

> <Gold.Chemscore.ZeroCoef>
-5.4800

> <Gold.Chemscore.Hbond>
0.9593

> <Gold.Chemscore.Metal>
0.0000

> <Gold.Chemscore.Lipo>
113.3951

> <Gold.Chemscore.Internal_Hbond>
0.0000

> <Gold.Chemscore.DEClash>
0.3417

> <Gold.Chemscore.DEInternal>
2.4604

> <Gold.Chemscore.Rot>
1.9068

> <Gold.Chemscore.Internal.Correction>
   9.000000E+99

> <Gold.Chemscore.Hbonds>
donor molecule, donor type, donor heavy atom, donor atom, acceptor molecule, acceptor atom, score
      L1  H    16    40       P1 10174  0.48

> <Gold.Chemscore.Hbond.Weighted>
-3.2040

> <Gold.Chemscore.Metal.Weighted>
-0.0000

> <Gold.Chemscore.Lipo.Weighted>
-13.2672

> <Gold.Chemscore.Internal_Hbond.Weighted>
0.0000

> <Gold.Chemscore.DEClash.Weighted>
0.3417

> <Gold.Chemscore.DEInternal.Weighted>
2.4604

> <Gold.Chemscore.Rot.Weighted>
4.8814

> <Gold.Chemscore.Internal.Correction.Weighted>
   9.000000E+99

> <Gold.Protein.RotatedTorsions>
[ 6907 6896 6895 6894 ] final  166.58 input  -60.11 | X-H torsion
[ 7974 7965 7964 7962 ] final   31.45 input  175.53 | X-H torsion
[ 8008 7997 7996 7995 ] final -134.39 input   59.86 | X-H torsion
[ 10167 10162 10161 10158 ] final  -92.51 input  -65.29 | X-H torsion
[ 10718 10713 10712 10709 ] final  117.51 input   66.30 | X-H torsion
[ 10763 10752 10751 10750 ] final  177.03 input  -60.55 | X-H torsion
[ 11005 11000 10999 10996 ] final   77.77 input  -57.11 | X-H torsion

> <Gold.Protein.ActiveResidues>
 VAL166  LYS551  ARG553  GLY616  TRP617  ASP618  TYR619  PRO620  LYS621  CYS622 
 ASP623  PHE694  ASN695  SER759  ASP760  ASP761  ALA762  ILE779  LEU786  VAL792 
 PHE793  MET794  SER795  GLU796  ALA797  LYS798  CYS799  TRP800  GLU811  SER814 

> <Gold.Protein.RotatedAtoms>
  151.8767  133.3486  159.3752 H   0  0  0  0  0  0  0  0  0  0  0  0  # atno 6907 bound_to 6896
  150.7138  134.5059  159.5593 H   0  0  0  0  0  0  0  0  0  0  0  0  # atno 6908 bound_to 6896
  152.2603  134.8041  160.0482 H   0  0  0  0  0  0  0  0  0  0  0  0  # atno 6909 bound_to 6896
  146.1549  139.6655  142.9073 H   0  0  0  0  0  0  0  0  0  0  0  0  # atno 7974 bound_to 7965
  155.3613  140.0483  157.3046 H   0  0  0  0  0  0  0  0  0  0  0  0  # atno 8008 bound_to 7997
  154.5176  140.2214  155.8999 H   0  0  0  0  0  0  0  0  0  0  0  0  # atno 8009 bound_to 7997
  156.1654  140.3107  155.8886 H   0  0  0  0  0  0  0  0  0  0  0  0  # atno 8010 bound_to 7997
  140.3341  143.2978  151.9909 H   0  0  0  0  0  0  0  0  0  0  0  0  # atno 10167 bound_to 10162
  157.6091  131.1038  150.7626 H   0  0  0  0  0  0  0  0  0  0  0  0  # atno 10718 bound_to 10713
  154.4890  135.2778  155.1511 H   0  0  0  0  0  0  0  0  0  0  0  0  # atno 10763 bound_to 10752
  154.3190  135.6213  153.5503 H   0  0  0  0  0  0  0  0  0  0  0  0  # atno 10764 bound_to 10752
  152.9885  135.5738  154.5308 H   0  0  0  0  0  0  0  0  0  0  0  0  # atno 10765 bound_to 10752
  139.9241  134.7709  156.1564 H   0  0  0  0  0  0  0  0  0  0  0  0  # atno 11005 bound_to 11000
  145.4733  141.0436  143.2686 LP  0  0  0  0  0  0  0  0  0  0  0  0  # atno 17320 bound_to 7965
  144.7950  139.6251  143.7096 LP  0  0  0  0  0  0  0  0  0  0  0  0  # atno 17321 bound_to 7965
  139.4851  144.6211  151.7253 LP  0  0  0  0  0  0  0  0  0  0  0  0  # atno 17342 bound_to 10162
  140.5370  144.0639  150.6074 LP  0  0  0  0  0  0  0  0  0  0  0  0  # atno 17343 bound_to 10162
  156.8007  130.4920  149.5370 LP  0  0  0  0  0  0  0  0  0  0  0  0  # atno 17370 bound_to 10713
  156.1188  130.6094  151.0161 LP  0  0  0  0  0  0  0  0  0  0  0  0  # atno 17371 bound_to 10713
  141.0784  133.6765  156.2285 LP  0  0  0  0  0  0  0  0  0  0  0  0  # atno 17394 bound_to 11000
  140.6389  134.5187  157.5567 LP  0  0  0  0  0  0  0  0  0  0  0  0  # atno 17395 bound_to 11000

$$$$
