AV-unprocessed.smi:54|AV-procd|sdf|542|dock10
  -GOLD-   2262016433D 1   1.00000     0.00000
 Structure written by MMmdl.
 44 46  0  0  0  0  0  0  0  0  1 V2000
  143.9075  131.9657  150.7398 C   0  0  0  0  0  0  0  0  0  0  0  0
  145.3628  132.0169  151.2322 C   0  0  0  0  0  0  0  0  0  0  0  0
  145.7107  130.7793  152.0752 C   0  0  0  0  0  0  0  0  0  0  0  0
  145.6157  133.3037  152.0259 C   0  0  0  0  0  0  0  0  0  0  0  0
  146.4699  134.1235  151.6860 O   0  0  0  0  0  0  0  0  0  0  0  0
  144.7889  133.4792  153.2071 N   0  0  0  0  0  0  0  0  0  0  0  0
  144.8230  134.5068  154.0868 C   0  0  0  0  0  0  0  0  0  0  0  0
  145.6816  135.5121  153.9917 N   0  0  0  0  0  0  0  0  0  0  0  0
  145.5688  136.4519  154.9778 C   0  0  0  0  0  0  0  0  0  0  0  0
  144.6618  136.4497  156.0163 C   0  0  0  0  0  0  0  0  0  0  0  0
  144.8484  137.5718  156.8154 N   0  0  0  0  0  0  0  0  0  0  0  0
  145.8385  138.2041  156.2491 C   0  0  0  0  0  0  0  0  0  0  0  0
  146.3454  137.5800  155.1321 N   0  0  0  0  0  0  0  0  0  0  0  0
  147.4537  138.0039  154.2169 C   0  0  1  0  0  0  0  0  0  0  0  0
  147.2322  139.3327  153.8500 O   0  0  0  0  0  0  0  0  0  0  0  0
  147.9751  140.1900  154.7099 C   0  0  2  0  0  0  0  0  0  0  0  0
  148.0993  141.6047  154.1184 C   0  0  0  0  0  0  0  0  0  0  0  0
  149.1964  142.2743  154.7020 O   0  0  0  0  0  0  0  0  0  0  0  0
  149.2882  139.4131  154.8633 C   0  0  2  0  0  0  0  0  0  0  0  0
  150.1271  139.6287  153.7396 O   0  0  0  0  0  0  0  0  0  0  0  0
  148.8005  137.9678  154.9665 C   0  0  2  0  0  0  0  0  0  0  0  0
  149.7202  137.0368  154.4270 O   0  0  0  0  0  0  0  0  0  0  0  0
  143.7157  135.3767  156.1251 C   0  0  0  0  0  0  0  0  0  0  0  0
  142.8413  135.2147  156.9735 O   0  0  0  0  0  0  0  0  0  0  0  0
  143.8691  134.4314  155.1020 N   0  0  0  0  0  0  0  0  0  0  0  0
  147.3825  137.3329  153.3598 H   0  0  0  0  0  0  0  0  0  0  0  0
  147.4869  140.2348  155.6858 H   0  0  0  0  0  0  0  0  0  0  0  0
  149.8345  139.7162  155.7571 H   0  0  0  0  0  0  0  0  0  0  0  0
  148.6277  137.7222  156.0157 H   0  0  0  0  0  0  0  0  0  0  0  0
  143.6601  132.8438  150.1418 H   0  0  0  0  0  0  0  0  0  0  0  0
  143.2031  131.9198  151.5715 H   0  0  0  0  0  0  0  0  0  0  0  0
  143.7386  131.0880  150.1156 H   0  0  0  0  0  0  0  0  0  0  0  0
  146.0154  132.0221  150.3579 H   0  0  0  0  0  0  0  0  0  0  0  0
  146.7397  130.8197  152.4347 H   0  0  0  0  0  0  0  0  0  0  0  0
  145.6061  129.8670  151.4876 H   0  0  0  0  0  0  0  0  0  0  0  0
  145.0573  130.6878  152.9440 H   0  0  0  0  0  0  0  0  0  0  0  0
  144.1414  132.7316  153.4079 H   0  0  0  0  0  0  0  0  0  0  0  0
  146.2203  139.1380  156.6356 H   0  0  0  0  0  0  0  0  0  0  0  0
  148.2840  141.5477  153.0454 H   0  0  0  0  0  0  0  0  0  0  0  0
  147.1853  142.1816  154.2625 H   0  0  0  0  0  0  0  0  0  0  0  0
  148.9619  143.1818  154.8223 H   0  0  0  0  0  0  0  0  0  0  0  0
  149.5831  139.6701  152.9675 H   0  0  0  0  0  0  0  0  0  0  0  0
  149.5887  136.9941  153.4913 H   0  0  0  0  0  0  0  0  0  0  0  0
  143.2386  133.6433  155.1190 H   0  0  0  0  0  0  0  0  0  0  0  0
  1  2  1  0  0  0  0
  1 30  1  0  0  0  0
  1 31  1  0  0  0  0
  1 32  1  0  0  0  0
  2  3  1  0  0  0  0
  2  4  1  0  0  0  0
  2 33  1  0  0  0  0
  3 34  1  0  0  0  0
  3 35  1  0  0  0  0
  3 36  1  0  0  0  0
  4  5  2  0  0  0  0
  4  6  1  0  0  0  0
  6 37  1  0  0  0  0
  6  7  1  0  0  0  0
  7 25  1  0  0  0  0
  7  8  2  0  0  0  0
  8  9  1  0  0  0  0
  9 13  1  0  0  0  0
  9 10  2  0  0  0  0
 10 11  1  0  0  0  0
 10 23  1  0  0  0  0
 11 12  2  0  0  0  0
 12 13  1  0  0  0  0
 12 38  1  0  0  0  0
 13 14  1  0  0  0  0
 14 26  1  0  0  0  0
 14 21  1  0  0  0  0
 14 15  1  0  0  0  0
 15 16  1  0  0  0  0
 16 27  1  0  0  0  0
 16 17  1  0  0  0  0
 16 19  1  0  0  0  0
 17 18  1  0  0  0  0
 17 39  1  0  0  0  0
 17 40  1  0  0  0  0
 18 41  1  0  0  0  0
 19 28  1  0  0  0  0
 19 20  1  0  0  0  0
 19 21  1  0  0  0  0
 20 42  1  0  0  0  0
 21 29  1  0  0  0  0
 21 22  1  0  0  0  0
 22 43  1  0  0  0  0
 23 24  2  0  0  0  0
 23 25  1  0  0  0  0
 25 44  1  0  0  0  0
M  END
> <s_m_source_file>
AV-unprocessed.smi

> <i_m_source_file_index>
54

> <i_lp_mmshare_version>
43012

> <i_f3d_flags>
0

> <s_epik_input>
W0NIM11bQ0hdKFtDSDNdKUMoPU8pW05IXWMobjEpW25IXWMoPU8pYyhjMTIpbltjSF1uMltDQEBIXTNPW0NASF0oW0NIMl1bT0hdKVtDQEBIXShbT0hdKVtDQEhdM1tPSF0=

> <s_epik_cmdline>
J2VwaWtfcHl0aG9uJywgJy1waCcsICc3LjAnLCAnLXRuJywgJzgnLCAnLW1hJywgJzIwMCcsICctbWV0YWxfYmluZGluZycsICctaW1hZScsICc8aW5maWxlLm1hZT4nLCAnLW9tYWUnLCAnPG91dGZpbGUubWFlPic=

> <r_lp_tautomer_probability>
0.85571

> <r_epik_Ionization_Penalty>
0.0316551

> <r_epik_Ionization_Penalty_Charging>
0.0316043

> <r_epik_Ionization_Penalty_Neutral>
5.07097e-05

> <r_epik_State_Penalty>
3.15494e-07

> <r_epik_Charging_Adjusted_Penalty>
0.0316047

> <i_epik_Tot_Q>
0

> <i_epik_Tot_abs_Q>
0

> <r_epik_Metal_State_Penalty>
0.421206

> <b_epik_Metal_Only>
0

> <s_epik_Chemistry_Notes>
This compound contains an acetal/aminal-like group ( X-CH(R)-Y where X, Y are N, S, or O) that may be acid/base labile, releasing an aldehyde.

> <s_lp_Force_Field>
OPLS_2005

> <r_lp_Energy>
43.5631

> <b_lp_Chiralities_Consistent>
1

> <s_lp_Variant>
AV-unprocessed.smi:54-14

> <Gold.Version>
5.8.1

> <Gold.Id.Protein>
6NUR|6NUR_protein|mol2

> <Gold.PLP.Fitness>
44.0406

> <Gold.PLP.PLP>
-27.8339

> <Gold.PLP.part.hbond>
-7.6976

> <Gold.PLP.part.metal>
0.0000

> <Gold.PLP.part.buried>
-6.4884

> <Gold.PLP.part.nonpolar>
-14.9446

> <Gold.PLP.part.repulsive>
0.4471

> <Gold.PLP.ligand.clash>
0.0000

> <Gold.PLP.ligand.torsion>
0.3047

> <Gold.PLP.Chemscore.Hbond>
5.5904

> <Gold.PLP.Chemscore.CHOScore>
0.0000

> <Gold.PLP.Chemscore.Metal>
0.0000

> <Gold.Chemscore.Hbonds>
donor molecule, donor type, donor heavy atom, donor atom, acceptor molecule, acceptor atom, score
      L1  H     6    37       P1 10957  0.50
      L1  H    18    41       P1  8028  1.00
      L1  H    20    42       P1  7957  0.86
      L1  H    22    43       P1  7948  1.00
      L1  H    25    44       P1 10957  1.00
      P1  H  7989  7998       L1    20  0.90
      P1  H 11000 11005       L1    24  0.28

> <Gold.PLP.Chemscore.Internal.Correction>
0.0449

> <Gold.Rescore>
     Score         DG    S(hbond)    S(metal)    S(lipo)     H(rot)  DE(clash)    DE(int)     intcor
     15.70     -17.47       5.09        0.00      45.75       4.05       0.05       1.72       ----

> <Gold.Chemscore.Fitness>
15.7010

> <Gold.Chemscore.DG>
-17.4662

> <Gold.Chemscore.ZeroCoef>
-5.4800

> <Gold.Chemscore.Hbond>
5.0898

> <Gold.Chemscore.Metal>
0.0000

> <Gold.Chemscore.Lipo>
45.7484

> <Gold.Chemscore.Internal_Hbond>
0.0000

> <Gold.Chemscore.DEClash>
0.0456

> <Gold.Chemscore.DEInternal>
1.7196

> <Gold.Chemscore.Rot>
4.0493

> <Gold.Chemscore.Internal.Correction>
   9.000000E+99

> <Gold.Chemscore.Hbonds>
donor molecule, donor type, donor heavy atom, donor atom, acceptor molecule, acceptor atom, score
      L1  H     6    37       P1 10957  0.22
      L1  H    18    41       P1  8028  0.99
      L1  H    20    42       P1  7957  0.85
      L1  H    22    43       P1  7948  0.77
      L1  H    25    44       P1 10957  0.96
      P1  H  7989  7998       L1    20  0.53
      P1  H 11000 11005       L1    24  0.27

> <Gold.Chemscore.Hbond.Weighted>
-16.9999

> <Gold.Chemscore.Metal.Weighted>
-0.0000

> <Gold.Chemscore.Lipo.Weighted>
-5.3526

> <Gold.Chemscore.Internal_Hbond.Weighted>
0.0000

> <Gold.Chemscore.DEClash.Weighted>
0.0456

> <Gold.Chemscore.DEInternal.Weighted>
1.7196

> <Gold.Chemscore.Rot.Weighted>
10.3662

> <Gold.Chemscore.Internal.Correction.Weighted>
   9.000000E+99

> <Gold.Protein.RotatedTorsions>
[ 6907 6896 6895 6894 ] final -135.95 input  -60.11 | X-H torsion
[ 7974 7965 7964 7962 ] final -133.73 input  175.53 | X-H torsion
[ 8008 7997 7996 7995 ] final  -56.01 input   59.86 | X-H torsion
[ 10167 10162 10161 10158 ] final  -46.72 input  -65.29 | X-H torsion
[ 10718 10713 10712 10709 ] final    3.69 input   66.30 | X-H torsion
[ 10763 10752 10751 10750 ] final -149.21 input  -60.55 | X-H torsion
[ 11005 11000 10999 10996 ] final -103.60 input  -57.11 | X-H torsion

> <Gold.Protein.ActiveResidues>
 VAL166  LYS551  ARG553  GLY616  TRP617  ASP618  TYR619  PRO620  LYS621  CYS622 
 ASP623  PHE694  ASN695  SER759  ASP760  ASP761  ALA762  ILE779  LEU786  VAL792 
 PHE793  MET794  SER795  GLU796  ALA797  LYS798  CYS799  TRP800  GLU811  SER814 

> <Gold.Protein.RotatedAtoms>
  151.0040  133.6028  159.2690 H   0  0  0  0  0  0  0  0  0  0  0  0  # atno 6907 bound_to 6896
  151.3204  135.0816  159.9313 H   0  0  0  0  0  0  0  0  0  0  0  0  # atno 6908 bound_to 6896
  152.5282  133.9689  159.7807 H   0  0  0  0  0  0  0  0  0  0  0  0  # atno 6909 bound_to 6896
  144.9167  140.6963  143.4991 H   0  0  0  0  0  0  0  0  0  0  0  0  # atno 7974 bound_to 7965
  154.4215  140.1140  156.5568 H   0  0  0  0  0  0  0  0  0  0  0  0  # atno 8008 bound_to 7997
  155.6353  140.3496  155.4677 H   0  0  0  0  0  0  0  0  0  0  0  0  # atno 8009 bound_to 7997
  155.9915  140.1180  157.0623 H   0  0  0  0  0  0  0  0  0  0  0  0  # atno 8010 bound_to 7997
  140.6805  143.2817  151.3823 H   0  0  0  0  0  0  0  0  0  0  0  0  # atno 10167 bound_to 10162
  156.8816  130.5655  149.5653 H   0  0  0  0  0  0  0  0  0  0  0  0  # atno 10718 bound_to 10713
  154.8190  135.3315  154.7093 H   0  0  0  0  0  0  0  0  0  0  0  0  # atno 10763 bound_to 10752
  153.7729  135.6924  153.4907 H   0  0  0  0  0  0  0  0  0  0  0  0  # atno 10764 bound_to 10752
  153.2032  135.4508  155.0240 H   0  0  0  0  0  0  0  0  0  0  0  0  # atno 10765 bound_to 10752
  141.1138  133.8654  157.1507 H   0  0  0  0  0  0  0  0  0  0  0  0  # atno 11005 bound_to 11000
  145.3364  139.1744  143.4509 LP  0  0  0  0  0  0  0  0  0  0  0  0  # atno 17320 bound_to 7965
  146.3185  140.3400  142.8647 LP  0  0  0  0  0  0  0  0  0  0  0  0  # atno 17321 bound_to 7965
  139.6125  144.1069  152.2313 LP  0  0  0  0  0  0  0  0  0  0  0  0  # atno 17342 bound_to 10162
  140.0488  144.5949  150.7353 LP  0  0  0  0  0  0  0  0  0  0  0  0  # atno 17343 bound_to 10162
  156.0674  130.5714  150.9316 LP  0  0  0  0  0  0  0  0  0  0  0  0  # atno 17370 bound_to 10713
  157.6137  131.0934  150.8749 LP  0  0  0  0  0  0  0  0  0  0  0  0  # atno 17371 bound_to 10713
  140.0048  135.0013  157.0268 LP  0  0  0  0  0  0  0  0  0  0  0  0  # atno 17394 bound_to 11000
  140.4702  134.1394  155.7202 LP  0  0  0  0  0  0  0  0  0  0  0  0  # atno 17395 bound_to 11000

$$$$
