AV-unprocessed.smi:1831|AV-procd|sdf|7460|dock5
  -GOLD-   22720 9153D 1   1.00000     0.00000
 Structure written by MMmdl.
 40 41  0  0  0  0  0  0  0  0  3 V2000
  150.9217  142.1021  157.3176 C   0  0  0  0  0  0  0  0  0  0  0  0
  151.0410  140.8158  156.5749 C   0  0  0  0  0  0  0  0  0  0  0  0
  152.0813  139.9921  156.7221 N   0  0  0  0  0  0  0  0  0  0  0  0
  151.9671  138.8587  155.9299 N   0  0  0  0  0  0  0  0  0  0  0  0
  150.8418  138.8376  155.2024 C   0  0  0  0  0  0  0  0  0  0  0  0
  150.5395  137.8276  154.3701 N   0  5  0  0  0  0  0  0  0  0  0  0
  150.7227  136.5498  154.7688 C   0  0  0  0  0  0  0  0  0  0  0  0
  151.4941  136.1628  155.6490 O   0  0  0  0  0  0  0  0  0  0  0  0
  149.9297  135.6722  154.1375 N   0  0  0  0  0  0  0  0  0  0  0  0
  149.8004  134.2460  154.4359 C   0  0  0  0  0  0  0  0  0  0  0  0
  148.3302  133.7854  154.6056 C   0  0  2  0  0  0  0  0  0  0  0  0
  147.9410  132.6139  153.6916 C   0  0  0  0  0  0  0  0  0  0  0  0
  147.0757  133.2165  152.5739 C   0  0  0  0  0  0  0  0  0  0  0  0
  147.0027  134.6744  152.8214 N   0  3  1  0  0  0  0  0  0  0  0  0
  145.7800  135.3550  152.3136 C   0  0  0  0  0  0  0  0  0  0  0  0
  145.6155  135.1466  150.7964 C   0  0  0  0  0  0  0  0  0  0  0  0
  145.8056  136.8623  152.6280 C   0  0  0  0  0  0  0  0  0  0  0  0
  147.2960  134.8618  154.2576 C   0  0  0  0  0  0  0  0  0  0  0  0
  149.8266  140.2602  155.4353 S   0  0  0  0  0  0  0  0  0  0  0  0
  150.8062  141.9080  158.3840 H   0  0  0  0  0  0  0  0  0  0  0  0
  150.0552  142.6637  156.9684 H   0  0  0  0  0  0  0  0  0  0  0  0
  151.8149  142.7082  157.1645 H   0  0  0  0  0  0  0  0  0  0  0  0
  149.3308  136.0370  153.4111 H   0  0  0  0  0  0  0  0  0  0  0  0
  150.2519  133.7009  153.6065 H   0  0  0  0  0  0  0  0  0  0  0  0
  150.3852  133.9796  155.3177 H   0  0  0  0  0  0  0  0  0  0  0  0
  148.2027  133.4945  155.6491 H   0  0  0  0  0  0  0  0  0  0  0  0
  148.8121  132.0909  153.2950 H   0  0  0  0  0  0  0  0  0  0  0  0
  147.3579  131.8806  154.2502 H   0  0  0  0  0  0  0  0  0  0  0  0
  147.5002  133.0236  151.5881 H   0  0  0  0  0  0  0  0  0  0  0  0
  146.0793  132.7731  152.6042 H   0  0  0  0  0  0  0  0  0  0  0  0
  144.9140  134.9179  152.8130 H   0  0  0  0  0  0  0  0  0  0  0  0
  144.7424  135.6804  150.4202 H   0  0  0  0  0  0  0  0  0  0  0  0
  145.4779  134.0961  150.5403 H   0  0  0  0  0  0  0  0  0  0  0  0
  146.4856  135.5111  150.2497 H   0  0  0  0  0  0  0  0  0  0  0  0
  144.9403  137.3666  152.1968 H   0  0  0  0  0  0  0  0  0  0  0  0
  146.7002  137.3367  152.2227 H   0  0  0  0  0  0  0  0  0  0  0  0
  145.7804  137.0557  153.7003 H   0  0  0  0  0  0  0  0  0  0  0  0
  146.3842  134.6923  154.8328 H   0  0  0  0  0  0  0  0  0  0  0  0
  147.6489  135.8672  154.4863 H   0  0  0  0  0  0  0  0  0  0  0  0
  147.7906  135.0760  152.3309 H   0  0  0  0  0  0  0  0  0  0  0  0
  1  2  1  0  0  0  0
  1 20  1  0  0  0  0
  1 21  1  0  0  0  0
  1 22  1  0  0  0  0
  2 19  1  0  0  0  0
  2  3  2  0  0  0  0
  3  4  1  0  0  0  0
  4  5  2  0  0  0  0
  5  6  1  0  0  0  0
  5 19  1  0  0  0  0
  6  7  1  0  0  0  0
  7  8  2  0  0  0  0
  7  9  1  0  0  0  0
  9 10  1  0  0  0  0
  9 23  1  0  0  0  0
 10 11  1  0  0  0  0
 10 24  1  0  0  0  0
 10 25  1  0  0  0  0
 11 18  1  0  0  0  0
 11 12  1  0  0  0  0
 11 26  1  0  0  0  0
 12 13  1  0  0  0  0
 12 27  1  0  0  0  0
 12 28  1  0  0  0  0
 13 14  1  0  0  0  0
 13 29  1  0  0  0  0
 13 30  1  0  0  0  0
 14 15  1  0  0  0  0
 14 18  1  0  0  0  0
 14 40  1  0  0  0  0
 15 16  1  0  0  0  0
 15 17  1  0  0  0  0
 15 31  1  0  0  0  0
 16 32  1  0  0  0  0
 16 33  1  0  0  0  0
 16 34  1  0  0  0  0
 17 35  1  0  0  0  0
 17 36  1  0  0  0  0
 17 37  1  0  0  0  0
 18 38  1  0  0  0  0
 18 39  1  0  0  0  0
M  CHG  1   6  -1
M  CHG  1  14   1
M  END
> <s_m_source_file>
AV-unprocessed.smi

> <i_m_source_file_index>
1831

> <i_lp_mmshare_version>
43012

> <i_f3d_flags>
0

> <s_epik_input>
W0NIM11jMW5uYyhzMSlbTkhdQyg9TylbTkhdW0NIMl1bQ0BASF0yW0NIMl1bQ0gyXU4oW0NIMl0yKVtDSF0oW0NIM10pW0NIM10=

> <s_epik_cmdline>
J2VwaWtfcHl0aG9uJywgJy1waCcsICc3LjAnLCAnLXRuJywgJzgnLCAnLW1hJywgJzIwMCcsICctbWV0YWxfYmluZGluZycsICctaW1hZScsICc8aW5maWxlLm1hZT4nLCAnLW9tYWUnLCAnPG91dGZpbGUubWFlPic=

> <r_lp_tautomer_probability>
1

> <r_epik_Ionization_Penalty>
4.24531

> <r_epik_Ionization_Penalty_Charging>
4.11954

> <r_epik_Ionization_Penalty_Neutral>
0.125766

> <r_epik_State_Penalty>
4.11879

> <r_epik_Charging_Adjusted_Penalty>
8.23833

> <i_epik_Tot_Q>
0

> <i_epik_Tot_abs_Q>
2

> <r_epik_Metal_State_Penalty>
0.659341

> <b_epik_Metal_Only>
1

> <s_lp_Force_Field>
OPLS_2005

> <r_lp_Energy>
22.0545

> <b_lp_Chiralities_Consistent>
1

> <s_lp_Variant>
AV-unprocessed.smi:1831-5

> <Gold.Version>
5.8.1

> <Gold.Id.Protein>
6NUR|6NUR_protein|mol2

> <Gold.PLP.Fitness>
41.2088

> <Gold.PLP.PLP>
-28.5995

> <Gold.PLP.part.hbond>
-4.9603

> <Gold.PLP.part.metal>
0.0000

> <Gold.PLP.part.buried>
-0.3192

> <Gold.PLP.part.nonpolar>
-22.5675

> <Gold.PLP.part.repulsive>
0.3625

> <Gold.PLP.ligand.clash>
0.0000

> <Gold.PLP.ligand.torsion>
1.2653

> <Gold.PLP.Chemscore.Hbond>
5.0000

> <Gold.PLP.Chemscore.CHOScore>
0.0000

> <Gold.PLP.Chemscore.Metal>
0.0000

> <Gold.Chemscore.Hbonds>
donor molecule, donor type, donor heavy atom, donor atom, acceptor molecule, acceptor atom, score
      L1  H     9    23       P1  7948  0.99
      L1  H    14    40       P1  7948  2.00
      P1  H  7997  8009       L1     3  0.27
      P1  H 10752 10765       L1     8  1.00

> <Gold.PLP.Chemscore.Internal.Correction>
0.1400

> <Gold.Rescore>
     Score         DG    S(hbond)    S(metal)    S(lipo)     H(rot)  DE(clash)    DE(int)     intcor
     16.16     -19.78       3.54        0.00      54.41       1.51       0.90       2.72       ----

> <Gold.Chemscore.Fitness>
16.1612

> <Gold.Chemscore.DG>
-19.7832

> <Gold.Chemscore.ZeroCoef>
-5.4800

> <Gold.Chemscore.Hbond>
3.5362

> <Gold.Chemscore.Metal>
0.0000

> <Gold.Chemscore.Lipo>
54.4065

> <Gold.Chemscore.Internal_Hbond>
0.0000

> <Gold.Chemscore.DEClash>
0.9017

> <Gold.Chemscore.DEInternal>
2.7203

> <Gold.Chemscore.Rot>
1.5131

> <Gold.Chemscore.Internal.Correction>
   9.000000E+99

> <Gold.Chemscore.Hbonds>
donor molecule, donor type, donor heavy atom, donor atom, acceptor molecule, acceptor atom, score
      L1  H     9    23       P1  7948  0.59
      L1  H    14    40       P1  7948  0.94
      P1  H  7997  8009       L1     3  0.03
      P1  H 10752 10765       L1     8  0.82

> <Gold.Chemscore.Hbond.Weighted>
-11.8111

> <Gold.Chemscore.Metal.Weighted>
-0.0000

> <Gold.Chemscore.Lipo.Weighted>
-6.3656

> <Gold.Chemscore.Internal_Hbond.Weighted>
0.0000

> <Gold.Chemscore.DEClash.Weighted>
0.9017

> <Gold.Chemscore.DEInternal.Weighted>
2.7203

> <Gold.Chemscore.Rot.Weighted>
3.8735

> <Gold.Chemscore.Internal.Correction.Weighted>
   9.000000E+99

> <Gold.Protein.RotatedTorsions>
[ 6907 6896 6895 6894 ] final    4.88 input  -60.11 | X-H torsion
[ 7974 7965 7964 7962 ] final -179.07 input  175.53 | X-H torsion
[ 8008 7997 7996 7995 ] final -173.93 input   59.86 | X-H torsion
[ 10167 10162 10161 10158 ] final  -53.28 input  -65.29 | X-H torsion
[ 10718 10713 10712 10709 ] final  141.12 input   66.30 | X-H torsion
[ 10763 10752 10751 10750 ] final -157.15 input  -60.55 | X-H torsion
[ 11005 11000 10999 10996 ] final -119.49 input  -57.11 | X-H torsion

> <Gold.Protein.ActiveResidues>
 VAL166  LYS551  ARG553  GLY616  TRP617  ASP618  TYR619  PRO620  LYS621  CYS622 
 ASP623  PHE694  ASN695  SER759  ASP760  ASP761  ALA762  ILE779  LEU786  VAL792 
 PHE793  MET794  SER795  GLU796  ALA797  LYS798  CYS799  TRP800  GLU811  SER814 

> <Gold.Protein.RotatedAtoms>
  151.6485  135.1004  160.0155 H   0  0  0  0  0  0  0  0  0  0  0  0  # atno 6907 bound_to 6896
  152.4014  133.6819  159.6328 H   0  0  0  0  0  0  0  0  0  0  0  0  # atno 6908 bound_to 6896
  150.7914  133.8701  159.3297 H   0  0  0  0  0  0  0  0  0  0  0  0  # atno 6909 bound_to 6896
  144.7134  140.0773  143.6427 H   0  0  0  0  0  0  0  0  0  0  0  0  # atno 7974 bound_to 7965
  155.9637  140.1149  157.0873 H   0  0  0  0  0  0  0  0  0  0  0  0  # atno 8008 bound_to 7997
  154.4138  140.1177  156.5280 H   0  0  0  0  0  0  0  0  0  0  0  0  # atno 8009 bound_to 7997
  155.6687  140.3473  155.4812 H   0  0  0  0  0  0  0  0  0  0  0  0  # atno 8010 bound_to 7997
  140.6493  143.2555  151.4769 H   0  0  0  0  0  0  0  0  0  0  0  0  # atno 10167 bound_to 10162
  157.3956  131.1010  151.0603 H   0  0  0  0  0  0  0  0  0  0  0  0  # atno 10718 bound_to 10713
  154.7658  135.3131  154.8288 H   0  0  0  0  0  0  0  0  0  0  0  0  # atno 10763 bound_to 10752
  153.9037  135.6813  153.4758 H   0  0  0  0  0  0  0  0  0  0  0  0  # atno 10764 bound_to 10752
  153.1264  135.4799  154.9212 H   0  0  0  0  0  0  0  0  0  0  0  0  # atno 10765 bound_to 10752
  141.0211  134.0122  157.3280 H   0  0  0  0  0  0  0  0  0  0  0  0  # atno 11005 bound_to 11000
  145.9732  139.2885  143.1086 LP  0  0  0  0  0  0  0  0  0  0  0  0  # atno 17320 bound_to 7965
  145.9093  140.9191  143.0462 LP  0  0  0  0  0  0  0  0  0  0  0  0  # atno 17321 bound_to 7965
  139.5707  144.1936  152.1831 LP  0  0  0  0  0  0  0  0  0  0  0  0  # atno 17342 bound_to 10162
  140.1231  144.5355  150.6850 LP  0  0  0  0  0  0  0  0  0  0  0  0  # atno 17343 bound_to 10162
  157.1621  130.6230  149.5614 LP  0  0  0  0  0  0  0  0  0  0  0  0  # atno 17370 bound_to 10713
  155.9809  130.4813  150.6800 LP  0  0  0  0  0  0  0  0  0  0  0  0  # atno 17371 bound_to 10713
  139.9147  135.0195  156.7833 LP  0  0  0  0  0  0  0  0  0  0  0  0  # atno 17394 bound_to 11000
  140.6570  133.9679  155.7785 LP  0  0  0  0  0  0  0  0  0  0  0  0  # atno 17395 bound_to 11000

$$$$
