AV-unprocessed.smi:2480|AV-procd|sdf|9769|dock2
  -GOLD-   2272013413D 1   1.00000     0.00000
 Structure written by MMmdl.
 33 34  0  0  0  0  0  0  0  0  3 V2000
  151.2800  141.2813  156.6209 O   0  0  0  0  0  0  0  0  0  0  0  0
  150.5001  142.2162  156.4527 C   0  0  0  0  0  0  0  0  0  0  0  0
  149.4117  142.1788  155.6592 N   0  0  0  0  0  0  0  0  0  0  0  0
  148.8817  141.0974  154.8991 C   0  0  0  0  0  0  0  0  0  0  0  0
  149.6490  139.9532  154.5692 C   0  0  0  0  0  0  0  0  0  0  0  0
  149.0502  138.9218  153.8219 C   0  0  0  0  0  0  0  0  0  0  0  0
  147.7742  138.9642  153.3912 N   0  0  0  0  0  0  0  0  0  0  0  0
  147.0477  140.0610  153.6883 C   0  0  0  0  0  0  0  0  0  0  0  0
  147.5429  141.1625  154.4234 C   0  0  0  0  0  0  0  0  0  0  0  0
  146.6577  142.3152  154.6773 N   0  3  0  0  0  0  0  0  0  0  0  0
  146.0697  142.8275  153.7301 O   0  0  0  0  0  0  0  0  0  0  0  0
  146.5339  142.6889  155.8386 O   0  5  0  0  0  0  0  0  0  0  0  0
  150.6813  143.3943  157.0788 N   0  0  0  0  0  0  0  0  0  0  0  0
  151.7492  143.7806  158.0048 C   0  0  2  0  0  0  0  0  0  0  0  0
  152.1379  142.6104  158.9001 C   0  0  0  0  0  0  0  0  0  0  0  0
  152.3398  142.7185  160.2243 C   0  0  0  0  0  0  0  0  0  0  0  0
  152.2157  144.0251  160.9857 C   0  0  0  0  0  0  0  0  0  0  0  0
  152.2043  145.2429  160.0451 C   0  0  0  0  0  0  0  0  0  0  0  0
  151.2984  145.0069  158.8270 C   0  0  0  0  0  0  0  0  0  0  0  0
  148.8380  143.0098  155.6746 H   0  0  0  0  0  0  0  0  0  0  0  0
  150.6812  139.8485  154.8650 H   0  0  0  0  0  0  0  0  0  0  0  0
  149.6143  138.0386  153.5606 H   0  0  0  0  0  0  0  0  0  0  0  0
  146.0346  140.0623  153.3136 H   0  0  0  0  0  0  0  0  0  0  0  0
  150.0099  144.1184  156.8671 H   0  0  0  0  0  0  0  0  0  0  0  0
  152.6409  144.0660  157.4442 H   0  0  0  0  0  0  0  0  0  0  0  0
  152.2540  141.6468  158.4254 H   0  0  0  0  0  0  0  0  0  0  0  0
  152.5934  141.8415  160.8015 H   0  0  0  0  0  0  0  0  0  0  0  0
  151.2954  143.9903  161.5697 H   0  0  0  0  0  0  0  0  0  0  0  0
  153.0400  144.1104  161.6943 H   0  0  0  0  0  0  0  0  0  0  0  0
  151.8840  146.1313  160.5899 H   0  0  0  0  0  0  0  0  0  0  0  0
  153.2193  145.4437  159.6996 H   0  0  0  0  0  0  0  0  0  0  0  0
  151.2819  145.8942  158.1932 H   0  0  0  0  0  0  0  0  0  0  0  0
  150.2756  144.8629  159.1789 H   0  0  0  0  0  0  0  0  0  0  0  0
  1  2  2  0  0  0  0
  2  3  1  0  0  0  0
  2 13  1  0  0  0  0
  3  4  1  0  0  0  0
  3 20  1  0  0  0  0
  4  9  1  0  0  0  0
  4  5  2  0  0  0  0
  5  6  1  0  0  0  0
  5 21  1  0  0  0  0
  6  7  2  0  0  0  0
  6 22  1  0  0  0  0
  7  8  1  0  0  0  0
  8  9  2  0  0  0  0
  8 23  1  0  0  0  0
  9 10  1  0  0  0  0
 10 11  2  0  0  0  0
 10 12  1  0  0  0  0
 13 14  1  0  0  0  0
 13 24  1  0  0  0  0
 14 19  1  0  0  0  0
 14 15  1  0  0  0  0
 14 25  1  0  0  0  0
 15 16  2  0  0  0  0
 15 26  1  0  0  0  0
 16 17  1  0  0  0  0
 16 27  1  0  0  0  0
 17 18  1  0  0  0  0
 17 28  1  0  0  0  0
 17 29  1  0  0  0  0
 18 19  1  0  0  0  0
 18 30  1  0  0  0  0
 18 31  1  0  0  0  0
 19 32  1  0  0  0  0
 19 33  1  0  0  0  0
M  CHG  1  10   1
M  CHG  1  12  -1
M  END
> <s_m_source_file>
AV-unprocessed.smi

> <i_m_source_file_index>
2480

> <i_lp_mmshare_version>
43012

> <i_f3d_flags>
0

> <s_epik_input>
W0NIMl0xW0NIMl1bQ0gyXVtDSF09W0NIXVtDQEhdMVtOSF1DKD1PKVtOSF1jMltjSF1bY0hdbltjSF1jMltOK10oPU8pW08tXQ==

> <s_epik_cmdline>
J2VwaWtfcHl0aG9uJywgJy1waCcsICc3LjAnLCAnLXRuJywgJzgnLCAnLW1hJywgJzIwMCcsICctbWV0YWxfYmluZGluZycsICctaW1hZScsICc8aW5maWxlLm1hZT4nLCAnLW9tYWUnLCAnPG91dGZpbGUubWFlPic=

> <r_lp_tautomer_probability>
1

> <r_epik_Ionization_Penalty>
0.000149203

> <r_epik_Ionization_Penalty_Charging>
0

> <r_epik_Ionization_Penalty_Neutral>
0.000149203

> <r_epik_State_Penalty>
-0

> <r_epik_Charging_Adjusted_Penalty>
0

> <i_epik_Tot_Q>
0

> <i_epik_Tot_abs_Q>
2

> <r_epik_Metal_State_Penalty>
-0

> <b_epik_Metal_Only>
0

> <s_lp_Force_Field>
OPLS_2005

> <r_lp_Energy>
27.2011

> <b_lp_Chiralities_Consistent>
1

> <s_lp_Variant>
AV-unprocessed.smi:2480-1

> <Gold.Version>
5.8.1

> <Gold.Id.Protein>
6NUR|6NUR_protein|mol2

> <Gold.PLP.Fitness>
47.9055

> <Gold.PLP.PLP>
-39.2337

> <Gold.PLP.part.hbond>
-2.0000

> <Gold.PLP.part.metal>
0.0000

> <Gold.PLP.part.buried>
-4.2836

> <Gold.PLP.part.nonpolar>
-34.6924

> <Gold.PLP.part.repulsive>
1.3779

> <Gold.PLP.ligand.clash>
0.0000

> <Gold.PLP.ligand.torsion>
1.2924

> <Gold.PLP.Chemscore.Hbond>
1.7920

> <Gold.PLP.Chemscore.CHOScore>
1.9571

> <Gold.PLP.Chemscore.Metal>
0.0000

> <Gold.Chemscore.Hbonds>
donor molecule, donor type, donor heavy atom, donor atom, acceptor molecule, acceptor atom, score
      L1  H     3    20       P1  8028  0.90
      L1  H    13    24       P1  8028  0.93
      L1  C     6    22       P1  7948  0.95
      L1  C     8    23       P1 10175  1.00

> <Gold.PLP.Chemscore.Internal.Correction>
0.0091

> <Gold.Rescore>
     Score         DG    S(hbond)    S(metal)    S(lipo)     H(rot)  DE(clash)    DE(int)     intcor
     15.73     -21.14       1.81        0.00     103.97       1.00       0.37       5.04       ----

> <Gold.Chemscore.Fitness>
15.7279

> <Gold.Chemscore.DG>
-21.1389

> <Gold.Chemscore.ZeroCoef>
-5.4800

> <Gold.Chemscore.Hbond>
1.8129

> <Gold.Chemscore.Metal>
0.0000

> <Gold.Chemscore.Lipo>
103.9650

> <Gold.Chemscore.Internal_Hbond>
0.0000

> <Gold.Chemscore.DEClash>
0.3731

> <Gold.Chemscore.DEInternal>
5.0379

> <Gold.Chemscore.Rot>
1.0000

> <Gold.Chemscore.Internal.Correction>
   9.000000E+99

> <Gold.Chemscore.Hbonds>
donor molecule, donor type, donor heavy atom, donor atom, acceptor molecule, acceptor atom, score
      L1  H     3    20       P1  8028  0.88
      L1  H    13    24       P1  8028  0.85

> <Gold.Chemscore.Hbond.Weighted>
-6.0550

> <Gold.Chemscore.Metal.Weighted>
-0.0000

> <Gold.Chemscore.Lipo.Weighted>
-12.1639

> <Gold.Chemscore.Internal_Hbond.Weighted>
0.0000

> <Gold.Chemscore.DEClash.Weighted>
0.3731

> <Gold.Chemscore.DEInternal.Weighted>
5.0379

> <Gold.Chemscore.Rot.Weighted>
2.5600

> <Gold.Chemscore.Internal.Correction.Weighted>
   9.000000E+99

> <Gold.Protein.RotatedTorsions>
[ 6907 6896 6895 6894 ] final -154.38 input  -60.11 | X-H torsion
[ 7974 7965 7964 7962 ] final  145.44 input  175.53 | X-H torsion
[ 8008 7997 7996 7995 ] final    4.88 input   59.86 | X-H torsion
[ 10167 10162 10161 10158 ] final -175.49 input  -65.29 | X-H torsion
[ 10718 10713 10712 10709 ] final  -76.74 input   66.30 | X-H torsion
[ 10763 10752 10751 10750 ] final  130.33 input  -60.55 | X-H torsion
[ 11005 11000 10999 10996 ] final -129.97 input  -57.11 | X-H torsion

> <Gold.Protein.ActiveResidues>
 VAL166  LYS551  ARG553  GLY616  TRP617  ASP618  TYR619  PRO620  LYS621  CYS622 
 ASP623  PHE694  ASN695  SER759  ASP760  ASP761  ALA762  ILE779  LEU786  VAL792 
 PHE793  MET794  SER795  GLU796  ALA797  LYS798  CYS799  TRP800  GLU811  SER814 

> <Gold.Protein.RotatedAtoms>
  151.2567  133.4322  159.2613 H   0  0  0  0  0  0  0  0  0  0  0  0  # atno 6907 bound_to 6896
  151.0568  134.9710  159.8250 H   0  0  0  0  0  0  0  0  0  0  0  0  # atno 6908 bound_to 6896
  152.5392  134.2519  159.8954 H   0  0  0  0  0  0  0  0  0  0  0  0  # atno 6909 bound_to 6896
  144.8752  139.5783  143.5868 H   0  0  0  0  0  0  0  0  0  0  0  0  # atno 7974 bound_to 7965
  154.7215  140.2712  155.6537 H   0  0  0  0  0  0  0  0  0  0  0  0  # atno 8008 bound_to 7997
  156.2825  140.2733  156.1812 H   0  0  0  0  0  0  0  0  0  0  0  0  # atno 8009 bound_to 7997
  155.0501  140.0371  157.2530 H   0  0  0  0  0  0  0  0  0  0  0  0  # atno 8010 bound_to 7997
  139.5578  144.1945  152.1189 H   0  0  0  0  0  0  0  0  0  0  0  0  # atno 10167 bound_to 10162
  156.0166  130.4473  150.3240 H   0  0  0  0  0  0  0  0  0  0  0  0  # atno 10718 bound_to 10713
  153.7563  135.3202  155.3329 H   0  0  0  0  0  0  0  0  0  0  0  0  # atno 10763 bound_to 10752
  154.8246  135.4579  154.0882 H   0  0  0  0  0  0  0  0  0  0  0  0  # atno 10764 bound_to 10752
  153.2099  135.6934  153.8209 H   0  0  0  0  0  0  0  0  0  0  0  0  # atno 10765 bound_to 10752
  140.9386  134.1224  157.4171 H   0  0  0  0  0  0  0  0  0  0  0  0  # atno 11005 bound_to 11000
  146.2958  139.7273  142.9128 LP  0  0  0  0  0  0  0  0  0  0  0  0  # atno 17320 bound_to 7965
  145.4056  141.0390  143.3046 LP  0  0  0  0  0  0  0  0  0  0  0  0  # atno 17321 bound_to 7965
  140.1452  144.5165  150.6720 LP  0  0  0  0  0  0  0  0  0  0  0  0  # atno 17342 bound_to 10162
  140.6854  143.2347  151.5275 LP  0  0  0  0  0  0  0  0  0  0  0  0  # atno 17343 bound_to 10162
  157.1339  131.0279  151.2957 LP  0  0  0  0  0  0  0  0  0  0  0  0  # atno 17370 bound_to 10713
  157.4527  130.7608  149.7166 LP  0  0  0  0  0  0  0  0  0  0  0  0  # atno 17371 bound_to 10713
  139.8814  135.0029  156.6154 LP  0  0  0  0  0  0  0  0  0  0  0  0  # atno 17394 bound_to 11000
  140.7765  133.8695  155.8533 LP  0  0  0  0  0  0  0  0  0  0  0  0  # atno 17395 bound_to 11000

$$$$
