AV-unprocessed.smi:1331|AV-procd|sdf|5487|dock8
  -GOLD-   22720 5 63D 1   1.00000     0.00000
 Structure written by MMmdl.
 38 39  0  0  0  0  0  0  0  0  1 V2000
  152.2459  139.1394  155.8155 C   0  0  0  0  0  0  0  0  0  0  0  0
  150.8288  139.7317  155.8292 C   0  0  2  0  0  0  0  0  0  0  0  0
  150.3345  140.0597  154.4073 C   0  0  0  0  0  0  0  0  0  0  0  0
  148.9548  140.5149  154.3969 N   0  0  0  0  0  0  0  0  0  0  0  0
  148.4313  141.6706  154.9371 C   0  0  0  0  0  0  0  0  0  0  0  0
  147.0925  141.6740  154.6691 C   0  0  0  0  0  0  0  0  0  0  0  0
  146.8884  140.4629  153.9506 C   0  0  0  0  0  0  0  0  0  0  0  0
  148.0045  139.7706  153.7901 N   0  0  0  0  0  0  0  0  0  0  0  0
  150.8033  140.9351  156.6573 N   0  0  0  0  0  0  0  0  0  0  0  0
  151.4102  141.0788  157.8450 C   0  0  0  0  0  0  0  0  0  0  0  0
  152.1088  140.2042  158.3585 O   0  0  0  0  0  0  0  0  0  0  0  0
  151.1866  142.4148  158.5650 C   0  0  0  0  0  0  0  0  0  0  0  0
  151.4881  143.6074  157.6321 C   0  0  0  0  0  0  0  0  0  0  0  0
  151.2823  144.9483  158.3553 C   0  0  0  0  0  0  0  0  0  0  0  0
  152.1335  145.0282  159.6323 C   0  0  0  0  0  0  0  0  0  0  0  0
  151.8466  143.8418  160.5665 C   0  0  0  0  0  0  0  0  0  0  0  0
  152.0488  142.5005  159.8426 C   0  0  0  0  0  0  0  0  0  0  0  0
  152.2847  138.2306  155.2149 H   0  0  0  0  0  0  0  0  0  0  0  0
  152.5747  138.8802  156.8227 H   0  0  0  0  0  0  0  0  0  0  0  0
  152.9670  139.8442  155.4002 H   0  0  0  0  0  0  0  0  0  0  0  0
  150.1547  138.9842  156.2521 H   0  0  0  0  0  0  0  0  0  0  0  0
  150.9673  140.8181  153.9432 H   0  0  0  0  0  0  0  0  0  0  0  0
  150.3974  139.1734  153.7748 H   0  0  0  0  0  0  0  0  0  0  0  0
  149.0494  142.3872  155.4580 H   0  0  0  0  0  0  0  0  0  0  0  0
  146.3693  142.4274  154.9432 H   0  0  0  0  0  0  0  0  0  0  0  0
  145.9686  140.0690  153.5438 H   0  0  0  0  0  0  0  0  0  0  0  0
  150.2471  141.7064  156.3171 H   0  0  0  0  0  0  0  0  0  0  0  0
  150.1370  142.4738  158.8598 H   0  0  0  0  0  0  0  0  0  0  0  0
  152.5155  143.5518  157.2681 H   0  0  0  0  0  0  0  0  0  0  0  0
  150.8463  143.5665  156.7512 H   0  0  0  0  0  0  0  0  0  0  0  0
  151.5348  145.7730  157.6882 H   0  0  0  0  0  0  0  0  0  0  0  0
  150.2285  145.0686  158.6100 H   0  0  0  0  0  0  0  0  0  0  0  0
  153.1910  145.0353  159.3658 H   0  0  0  0  0  0  0  0  0  0  0  0
  151.9387  145.9669  160.1517 H   0  0  0  0  0  0  0  0  0  0  0  0
  152.4951  143.8928  161.4415 H   0  0  0  0  0  0  0  0  0  0  0  0
  150.8226  143.9065  160.9362 H   0  0  0  0  0  0  0  0  0  0  0  0
  151.7997  141.6809  160.5185 H   0  0  0  0  0  0  0  0  0  0  0  0
  153.1048  142.3840  159.5931 H   0  0  0  0  0  0  0  0  0  0  0  0
  1  2  1  0  0  0  0
  1 18  1  0  0  0  0
  1 19  1  0  0  0  0
  1 20  1  0  0  0  0
  2  3  1  0  0  0  0
  2  9  1  0  0  0  0
  2 21  1  0  0  0  0
  3  4  1  0  0  0  0
  3 22  1  0  0  0  0
  3 23  1  0  0  0  0
  4  8  1  0  0  0  0
  4  5  1  0  0  0  0
  5  6  2  0  0  0  0
  5 24  1  0  0  0  0
  6  7  1  0  0  0  0
  6 25  1  0  0  0  0
  7  8  2  0  0  0  0
  7 26  1  0  0  0  0
  9 10  1  0  0  0  0
  9 27  1  0  0  0  0
 10 11  2  0  0  0  0
 10 12  1  0  0  0  0
 12 17  1  0  0  0  0
 12 13  1  0  0  0  0
 12 28  1  0  0  0  0
 13 14  1  0  0  0  0
 13 29  1  0  0  0  0
 13 30  1  0  0  0  0
 14 15  1  0  0  0  0
 14 31  1  0  0  0  0
 14 32  1  0  0  0  0
 15 16  1  0  0  0  0
 15 33  1  0  0  0  0
 15 34  1  0  0  0  0
 16 17  1  0  0  0  0
 16 35  1  0  0  0  0
 16 36  1  0  0  0  0
 17 37  1  0  0  0  0
 17 38  1  0  0  0  0
M  END
> <s_m_source_file>
AV-unprocessed.smi

> <i_m_source_file_index>
1331

> <i_lp_mmshare_version>
43012

> <i_f3d_flags>
0

> <s_epik_input>
bjFbY0hdW2NIXVtjSF1uMVtDSDJdW0NAQEhdKFtDSDNdKVtOSF1DKD1PKVtDSF0yW0NIMl1bQ0gyXVtDSDJdW0NIMl1bQ0gyXTI=

> <s_epik_cmdline>
J2VwaWtfcHl0aG9uJywgJy1waCcsICc3LjAnLCAnLXRuJywgJzgnLCAnLW1hJywgJzIwMCcsICctbWV0YWxfYmluZGluZycsICctaW1hZScsICc8aW5maWxlLm1hZT4nLCAnLW9tYWUnLCAnPG91dGZpbGUubWFlPic=

> <r_lp_tautomer_probability>
1

> <r_epik_Ionization_Penalty>
0.000326658

> <r_epik_Ionization_Penalty_Charging>
0

> <r_epik_Ionization_Penalty_Neutral>
0.000326658

> <r_epik_State_Penalty>
-0

> <r_epik_Charging_Adjusted_Penalty>
0

> <i_epik_Tot_Q>
0

> <i_epik_Tot_abs_Q>
0

> <r_epik_Metal_State_Penalty>
-0

> <b_epik_Metal_Only>
0

> <s_lp_Force_Field>
OPLS_2005

> <r_lp_Energy>
10.6365

> <b_lp_Chiralities_Consistent>
1

> <s_lp_Variant>
AV-unprocessed.smi:1331-1

> <Gold.Version>
5.8.1

> <Gold.Id.Protein>
6NUR|6NUR_protein|mol2

> <Gold.PLP.Fitness>
42.1601

> <Gold.PLP.PLP>
-36.8653

> <Gold.PLP.part.hbond>
0.0000

> <Gold.PLP.part.metal>
0.0000

> <Gold.PLP.part.buried>
-1.8825

> <Gold.PLP.part.nonpolar>
-35.8199

> <Gold.PLP.part.repulsive>
0.4659

> <Gold.PLP.ligand.clash>
0.0000

> <Gold.PLP.ligand.torsion>
0.3555

> <Gold.PLP.Chemscore.Hbond>
0.0000

> <Gold.PLP.Chemscore.CHOScore>
1.9905

> <Gold.PLP.Chemscore.Metal>
0.0000

> <Gold.Chemscore.Hbonds>
donor molecule, donor type, donor heavy atom, donor atom, acceptor molecule, acceptor atom, score
      L1  C     5    24       P1  8028  1.00
      L1  C     7    26       P1 10175  0.94

> <Gold.PLP.Chemscore.Internal.Correction>
0.0342

> <Gold.Rescore>
     Score         DG    S(hbond)    S(metal)    S(lipo)     H(rot)  DE(clash)    DE(int)     intcor
     11.59     -13.72       0.00        0.00     103.05       1.49       0.54       1.60       ----

> <Gold.Chemscore.Fitness>
11.5854

> <Gold.Chemscore.DG>
-13.7220

> <Gold.Chemscore.ZeroCoef>
-5.4800

> <Gold.Chemscore.Hbond>
0.0000

> <Gold.Chemscore.Metal>
0.0000

> <Gold.Chemscore.Lipo>
103.0502

> <Gold.Chemscore.Internal_Hbond>
0.0000

> <Gold.Chemscore.DEClash>
0.5378

> <Gold.Chemscore.DEInternal>
1.5988

> <Gold.Chemscore.Rot>
1.4902

> <Gold.Chemscore.Internal.Correction>
   9.000000E+99

> <Gold.Chemscore.Hbond.Weighted>
-0.0000

> <Gold.Chemscore.Metal.Weighted>
-0.0000

> <Gold.Chemscore.Lipo.Weighted>
-12.0569

> <Gold.Chemscore.Internal_Hbond.Weighted>
0.0000

> <Gold.Chemscore.DEClash.Weighted>
0.5378

> <Gold.Chemscore.DEInternal.Weighted>
1.5988

> <Gold.Chemscore.Rot.Weighted>
3.8149

> <Gold.Chemscore.Internal.Correction.Weighted>
   9.000000E+99

> <Gold.Protein.RotatedTorsions>
[ 6907 6896 6895 6894 ] final -161.09 input  -60.11 | X-H torsion
[ 7974 7965 7964 7962 ] final   31.10 input  175.53 | X-H torsion
[ 8008 7997 7996 7995 ] final  -89.11 input   59.86 | X-H torsion
[ 10167 10162 10161 10158 ] final -114.96 input  -65.29 | X-H torsion
[ 10718 10713 10712 10709 ] final -130.60 input   66.30 | X-H torsion
[ 10763 10752 10751 10750 ] final  120.67 input  -60.55 | X-H torsion
[ 11005 11000 10999 10996 ] final  -74.43 input  -57.11 | X-H torsion

> <Gold.Protein.ActiveResidues>
 VAL166  LYS551  ARG553  GLY616  TRP617  ASP618  TYR619  PRO620  LYS621  CYS622 
 ASP623  PHE694  ASN695  SER759  ASP760  ASP761  ALA762  ILE779  LEU786  VAL792 
 PHE793  MET794  SER795  GLU796  ALA797  LYS798  CYS799  TRP800  GLU811  SER814 

> <Gold.Protein.RotatedAtoms>
  151.3593  133.3896  159.2687 H   0  0  0  0  0  0  0  0  0  0  0  0  # atno 6907 bound_to 6896
  150.9739  134.9107  159.7814 H   0  0  0  0  0  0  0  0  0  0  0  0  # atno 6908 bound_to 6896
  152.5194  134.3555  159.9318 H   0  0  0  0  0  0  0  0  0  0  0  0  # atno 6909 bound_to 6896
  146.1571  139.6701  142.9059 H   0  0  0  0  0  0  0  0  0  0  0  0  # atno 7974 bound_to 7965
  154.6827  140.0545  157.0283 H   0  0  0  0  0  0  0  0  0  0  0  0  # atno 8008 bound_to 7997
  155.0928  140.3221  155.4550 H   0  0  0  0  0  0  0  0  0  0  0  0  # atno 8009 bound_to 7997
  156.2700  140.2045  156.6055 H   0  0  0  0  0  0  0  0  0  0  0  0  # atno 8010 bound_to 7997
  140.0953  143.4662  152.1845 H   0  0  0  0  0  0  0  0  0  0  0  0  # atno 10167 bound_to 10162
  156.2160  130.6949  151.0704 H   0  0  0  0  0  0  0  0  0  0  0  0  # atno 10718 bound_to 10713
  153.6022  135.3446  155.2949 H   0  0  0  0  0  0  0  0  0  0  0  0  # atno 10763 bound_to 10752
  154.8634  135.4230  154.2401 H   0  0  0  0  0  0  0  0  0  0  0  0  # atno 10764 bound_to 10752
  153.3232  135.7039  153.7084 H   0  0  0  0  0  0  0  0  0  0  0  0  # atno 10765 bound_to 10752
  141.1635  133.6911  156.7363 H   0  0  0  0  0  0  0  0  0  0  0  0  # atno 11005 bound_to 11000
  145.4681  141.0435  143.2714 LP  0  0  0  0  0  0  0  0  0  0  0  0  # atno 17320 bound_to 7965
  144.7978  139.6200  143.7085 LP  0  0  0  0  0  0  0  0  0  0  0  0  # atno 17321 bound_to 7965
  139.5701  144.7458  151.3913 LP  0  0  0  0  0  0  0  0  0  0  0  0  # atno 17342 bound_to 10162
  140.7007  143.7639  150.7398 LP  0  0  0  0  0  0  0  0  0  0  0  0  # atno 17343 bound_to 10162
  157.7063  131.0754  150.6654 LP  0  0  0  0  0  0  0  0  0  0  0  0  # atno 17370 bound_to 10713
  156.6715  130.4541  149.5656 LP  0  0  0  0  0  0  0  0  0  0  0  0  # atno 17371 bound_to 10713
  140.2708  134.8394  157.3845 LP  0  0  0  0  0  0  0  0  0  0  0  0  # atno 17394 bound_to 11000
  140.1523  134.4833  155.7952 LP  0  0  0  0  0  0  0  0  0  0  0  0  # atno 17395 bound_to 11000

$$$$
