AV-unprocessed.smi:1450|AV-procd|sdf|5897|dock3
  -GOLD-   22720 5583D 1   1.00000     0.00000
 Structure written by MMmdl.
 31 32  0  0  0  0  0  0  0  0  1 V2000
  151.3922  141.1941  157.3888 O   0  0  0  0  0  0  0  0  0  0  0  0
  150.7087  142.0841  156.8829 C   0  0  0  0  0  0  0  0  0  0  0  0
  149.9692  141.9112  155.7787 N   0  0  0  0  0  0  0  0  0  0  0  0
  149.8697  140.6669  155.0236 C   0  0  0  0  0  0  0  0  0  0  0  0
  148.4065  140.2952  154.7200 C   0  0  2  0  0  0  0  0  0  0  0  0
  148.2179  138.9386  154.0688 C   0  0  0  0  0  0  0  0  0  0  0  0
  146.8262  139.0723  153.4584 C   0  0  0  0  0  0  0  0  0  0  0  0
  146.6768  140.4494  153.1251 O   0  0  0  0  0  0  0  0  0  0  0  0
  147.7366  141.2110  153.6961 C   0  0  0  0  0  0  0  0  0  0  0  0
  150.6175  143.3465  157.3349 N   0  0  0  0  0  0  0  0  0  0  0  0
  151.2227  143.9180  158.4864 C   0  0  0  0  0  0  0  0  0  0  0  0
  152.0337  143.2000  159.3986 C   0  0  0  0  0  0  0  0  0  0  0  0
  152.5593  143.8752  160.5171 C   0  0  0  0  0  0  0  0  0  0  0  0
  152.2507  145.2390  160.6863 C   0  0  0  0  0  0  0  0  0  0  0  0
  151.4682  145.9320  159.8324 N   0  0  0  0  0  0  0  0  0  0  0  0
  150.9668  145.2778  158.7631 C   0  0  0  0  0  0  0  0  0  0  0  0
  149.4427  142.6986  155.4296 H   0  0  0  0  0  0  0  0  0  0  0  0
  150.4395  140.7432  154.0959 H   0  0  0  0  0  0  0  0  0  0  0  0
  150.3433  139.8788  155.6093 H   0  0  0  0  0  0  0  0  0  0  0  0
  147.8218  140.3234  155.6414 H   0  0  0  0  0  0  0  0  0  0  0  0
  148.9581  138.7870  153.2819 H   0  0  0  0  0  0  0  0  0  0  0  0
  148.2920  138.1092  154.7730 H   0  0  0  0  0  0  0  0  0  0  0  0
  146.6919  138.4337  152.5849 H   0  0  0  0  0  0  0  0  0  0  0  0
  146.0629  138.8089  154.1915 H   0  0  0  0  0  0  0  0  0  0  0  0
  147.3665  142.1342  154.1429 H   0  0  0  0  0  0  0  0  0  0  0  0
  148.4326  141.4775  152.8995 H   0  0  0  0  0  0  0  0  0  0  0  0
  150.0923  143.9881  156.7589 H   0  0  0  0  0  0  0  0  0  0  0  0
  152.2485  142.1501  159.2730 H   0  0  0  0  0  0  0  0  0  0  0  0
  153.1813  143.3578  161.2324 H   0  0  0  0  0  0  0  0  0  0  0  0
  152.6368  145.7862  161.5337 H   0  0  0  0  0  0  0  0  0  0  0  0
  150.3426  145.8628  158.1032 H   0  0  0  0  0  0  0  0  0  0  0  0
  1  2  2  0  0  0  0
  2  3  1  0  0  0  0
  2 10  1  0  0  0  0
  3  4  1  0  0  0  0
  3 17  1  0  0  0  0
  4  5  1  0  0  0  0
  4 18  1  0  0  0  0
  4 19  1  0  0  0  0
  5  9  1  0  0  0  0
  5  6  1  0  0  0  0
  5 20  1  0  0  0  0
  6  7  1  0  0  0  0
  6 21  1  0  0  0  0
  6 22  1  0  0  0  0
  7  8  1  0  0  0  0
  7 23  1  0  0  0  0
  7 24  1  0  0  0  0
  8  9  1  0  0  0  0
  9 25  1  0  0  0  0
  9 26  1  0  0  0  0
 10 11  1  0  0  0  0
 10 27  1  0  0  0  0
 11 16  1  0  0  0  0
 11 12  2  0  0  0  0
 12 13  1  0  0  0  0
 12 28  1  0  0  0  0
 13 14  2  0  0  0  0
 13 29  1  0  0  0  0
 14 15  1  0  0  0  0
 14 30  1  0  0  0  0
 15 16  2  0  0  0  0
 16 31  1  0  0  0  0
M  END
> <s_m_source_file>
AV-unprocessed.smi

> <i_m_source_file_index>
1450

> <i_lp_mmshare_version>
43012

> <i_f3d_flags>
0

> <s_epik_input>
W2NIXTFuW2NIXVtjSF1bY0hdYzFbTkhdQyg9TylbTkhdW0NIMl1bQ0BASF0yW0NIMl1bQ0gyXU9bQ0gyXTI=

> <s_epik_cmdline>
J2VwaWtfcHl0aG9uJywgJy1waCcsICc3LjAnLCAnLXRuJywgJzgnLCAnLW1hJywgJzIwMCcsICctbWV0YWxfYmluZGluZycsICctaW1hZScsICc8aW5maWxlLm1hZT4nLCAnLW9tYWUnLCAnPG91dGZpbGUubWFlPic=

> <r_epik_Ionization_Penalty>
0.00478342

> <r_epik_Ionization_Penalty_Charging>
0

> <r_epik_Ionization_Penalty_Neutral>
0.00478342

> <r_epik_State_Penalty>
0.0034384

> <r_epik_Charging_Adjusted_Penalty>
0.0034384

> <i_epik_Tot_Q>
0

> <i_epik_Tot_abs_Q>
0

> <r_epik_Metal_State_Penalty>
-0

> <b_epik_Metal_Only>
0

> <s_lp_Force_Field>
OPLS_2005

> <r_lp_Energy>
20.8722

> <b_lp_Chiralities_Consistent>
1

> <s_lp_Variant>
AV-unprocessed.smi:1450-1

> <Gold.Version>
5.8.1

> <Gold.Id.Protein>
6NUR|6NUR_protein|mol2

> <Gold.PLP.Fitness>
41.6401

> <Gold.PLP.PLP>
-32.8988

> <Gold.PLP.part.hbond>
-3.7190

> <Gold.PLP.part.metal>
0.0000

> <Gold.PLP.part.buried>
-1.9254

> <Gold.PLP.part.nonpolar>
-26.8406

> <Gold.PLP.part.repulsive>
0.6102

> <Gold.PLP.ligand.clash>
0.0000

> <Gold.PLP.ligand.torsion>
0.0969

> <Gold.PLP.Chemscore.Hbond>
1.9760

> <Gold.PLP.Chemscore.CHOScore>
1.0000

> <Gold.PLP.Chemscore.Metal>
0.0000

> <Gold.Chemscore.Hbonds>
donor molecule, donor type, donor heavy atom, donor atom, acceptor molecule, acceptor atom, score
      L1  H     3    17       P1  8028  0.79
      L1  H    10    27       P1  8028  1.00
      L1  C    16    31       P1  8029  0.93

> <Gold.PLP.Chemscore.Internal.Correction>
0.0070

> <Gold.Rescore>
     Score         DG    S(hbond)    S(metal)    S(lipo)     H(rot)  DE(clash)    DE(int)     intcor
     16.48     -19.27       1.91        0.00      90.41       1.24       1.49       1.30       ----

> <Gold.Chemscore.Fitness>
16.4778

> <Gold.Chemscore.DG>
-19.2698

> <Gold.Chemscore.ZeroCoef>
-5.4800

> <Gold.Chemscore.Hbond>
1.9113

> <Gold.Chemscore.Metal>
0.0000

> <Gold.Chemscore.Lipo>
90.4090

> <Gold.Chemscore.Internal_Hbond>
0.0000

> <Gold.Chemscore.DEClash>
1.4933

> <Gold.Chemscore.DEInternal>
1.2987

> <Gold.Chemscore.Rot>
1.2390

> <Gold.Chemscore.Internal.Correction>
   9.000000E+99

> <Gold.Chemscore.Hbonds>
donor molecule, donor type, donor heavy atom, donor atom, acceptor molecule, acceptor atom, score
      L1  H     3    17       P1  8028  0.75
      L1  H    10    27       P1  8028  0.99

> <Gold.Chemscore.Hbond.Weighted>
-6.3837

> <Gold.Chemscore.Metal.Weighted>
-0.0000

> <Gold.Chemscore.Lipo.Weighted>
-10.5779

> <Gold.Chemscore.Internal_Hbond.Weighted>
0.0000

> <Gold.Chemscore.DEClash.Weighted>
1.4933

> <Gold.Chemscore.DEInternal.Weighted>
1.2987

> <Gold.Chemscore.Rot.Weighted>
3.1718

> <Gold.Chemscore.Internal.Correction.Weighted>
   9.000000E+99

> <Gold.Protein.RotatedTorsions>
[ 6907 6896 6895 6894 ] final   75.61 input  -60.11 | X-H torsion
[ 7974 7965 7964 7962 ] final  126.34 input  175.53 | X-H torsion
[ 8008 7997 7996 7995 ] final -132.04 input   59.86 | X-H torsion
[ 10167 10162 10161 10158 ] final  -14.65 input  -65.29 | X-H torsion
[ 10718 10713 10712 10709 ] final    5.56 input   66.30 | X-H torsion
[ 10763 10752 10751 10750 ] final  -78.13 input  -60.55 | X-H torsion
[ 11005 11000 10999 10996 ] final  -79.86 input  -57.11 | X-H torsion

> <Gold.Protein.ActiveResidues>
 VAL166  LYS551  ARG553  GLY616  TRP617  ASP618  TYR619  PRO620  LYS621  CYS622 
 ASP623  PHE694  ASN695  SER759  ASP760  ASP761  ALA762  ILE779  LEU786  VAL792 
 PHE793  MET794  SER795  GLU796  ALA797  LYS798  CYS799  TRP800  GLU811  SER814 

> <Gold.Protein.RotatedAtoms>
  152.5034  134.4094  159.9443 H   0  0  0  0  0  0  0  0  0  0  0  0  # atno 6907 bound_to 6896
  151.4061  133.3736  159.2746 H   0  0  0  0  0  0  0  0  0  0  0  0  # atno 6908 bound_to 6896
  150.9325  134.8761  159.7620 H   0  0  0  0  0  0  0  0  0  0  0  0  # atno 6909 bound_to 6896
  145.0628  139.3791  143.4997 H   0  0  0  0  0  0  0  0  0  0  0  0  # atno 7974 bound_to 7965
  155.3224  140.0463  157.3040 H   0  0  0  0  0  0  0  0  0  0  0  0  # atno 8008 bound_to 7997
  154.5373  140.2276  155.8667 H   0  0  0  0  0  0  0  0  0  0  0  0  # atno 8009 bound_to 7997
  156.1847  140.3065  155.9222 H   0  0  0  0  0  0  0  0  0  0  0  0  # atno 8010 bound_to 7997
  140.7205  143.5299  150.9532 H   0  0  0  0  0  0  0  0  0  0  0  0  # atno 10167 bound_to 10162
  156.9093  130.5750  149.5647 H   0  0  0  0  0  0  0  0  0  0  0  0  # atno 10718 bound_to 10713
  154.5219  135.5740  153.6688 H   0  0  0  0  0  0  0  0  0  0  0  0  # atno 10763 bound_to 10752
  152.9919  135.6184  154.2743 H   0  0  0  0  0  0  0  0  0  0  0  0  # atno 10764 bound_to 10752
  154.2664  135.2854  155.2736 H   0  0  0  0  0  0  0  0  0  0  0  0  # atno 10765 bound_to 10752
  141.1668  133.7124  156.8186 H   0  0  0  0  0  0  0  0  0  0  0  0  # atno 11005 bound_to 11000
  146.3525  140.0335  142.8648 LP  0  0  0  0  0  0  0  0  0  0  0  0  # atno 17320 bound_to 7965
  145.1387  140.9559  143.4501 LP  0  0  0  0  0  0  0  0  0  0  0  0  # atno 17321 bound_to 7965
  139.9019  143.6825  152.3130 LP  0  0  0  0  0  0  0  0  0  0  0  0  # atno 17342 bound_to 10162
  139.7178  144.7608  151.1005 LP  0  0  0  0  0  0  0  0  0  0  0  0  # atno 17343 bound_to 10162
  156.0544  130.5608  150.9059 LP  0  0  0  0  0  0  0  0  0  0  0  0  # atno 17370 bound_to 10713
  157.5978  131.0942  150.9012 LP  0  0  0  0  0  0  0  0  0  0  0  0  # atno 17371 bound_to 10713
  140.2136  134.8809  157.3301 LP  0  0  0  0  0  0  0  0  0  0  0  0  # atno 17394 bound_to 11000
  140.2061  134.4195  155.7637 LP  0  0  0  0  0  0  0  0  0  0  0  0  # atno 17395 bound_to 11000

$$$$
