AV-unprocessed.smi:1686|AV-procd|sdf|6758|dock2
  -GOLD-   22720 7513D 1   1.00000     0.00000
 Structure written by MMmdl.
 41 43  0  0  0  0  0  0  0  0  1 V2000
  150.0812  130.3753  155.2852 C   0  0  0  0  0  0  0  0  0  0  0  0
  150.1117  131.7468  155.8958 C   0  0  0  0  0  0  0  0  0  0  0  0
  150.5175  131.8857  157.1512 N   0  0  0  0  0  0  0  0  0  0  0  0
  150.4512  133.2540  157.4381 O   0  0  0  0  0  0  0  0  0  0  0  0
  150.0001  133.8713  156.3223 C   0  0  0  0  0  0  0  0  0  0  0  0
  149.7775  135.5739  156.2385 Cl  0  0  0  0  0  0  0  0  0  0  0  0
  149.7562  132.9949  155.3044 C   0  0  0  0  0  0  0  0  0  0  0  0
  149.2495  133.2665  153.9082 C   0  0  0  0  0  0  0  0  0  0  0  0
  147.7841  132.8470  153.7411 C   0  0  0  0  0  0  0  0  0  0  0  0
  146.9185  133.2182  154.5354 O   0  0  0  0  0  0  0  0  0  0  0  0
  147.5254  132.0689  152.6784 N   0  0  0  0  0  0  0  0  0  0  0  0
  146.2161  131.5491  152.2847 C   0  0  2  0  0  0  0  0  0  0  0  0
  146.2770  130.0141  152.2882 C   0  0  0  0  0  0  0  0  0  0  0  0
  145.8216  132.1240  150.9024 C   0  0  2  0  0  0  0  0  0  0  0  0
  146.0405  133.6467  150.7396 C   0  0  0  0  0  0  0  0  0  0  0  0
  144.6986  134.1311  150.1604 C   0  0  2  0  0  0  0  0  0  0  0  0
  143.6385  134.1198  151.2767 C   0  0  0  0  0  0  0  0  0  0  0  0
  143.3716  132.6164  151.4730 C   0  0  0  0  0  0  0  0  0  0  0  0
  144.3430  131.9618  150.4690 C   0  0  1  0  0  0  0  0  0  0  0  0
  144.2685  132.9451  149.3049 C   0  0  0  0  0  0  0  0  0  0  0  0
  149.8844  130.4191  154.2141 H   0  0  0  0  0  0  0  0  0  0  0  0
  149.3043  129.7616  155.7413 H   0  0  0  0  0  0  0  0  0  0  0  0
  151.0341  129.8632  155.4213 H   0  0  0  0  0  0  0  0  0  0  0  0
  149.3346  134.3255  153.6626 H   0  0  0  0  0  0  0  0  0  0  0  0
  149.8463  132.7372  153.1647 H   0  0  0  0  0  0  0  0  0  0  0  0
  148.3028  131.8185  152.0848 H   0  0  0  0  0  0  0  0  0  0  0  0
  145.4723  131.8495  153.0228 H   0  0  0  0  0  0  0  0  0  0  0  0
  145.3032  129.5778  152.0659 H   0  0  0  0  0  0  0  0  0  0  0  0
  146.5842  129.6368  153.2643 H   0  0  0  0  0  0  0  0  0  0  0  0
  146.9863  129.6419  151.5483 H   0  0  0  0  0  0  0  0  0  0  0  0
  146.4328  131.6182  150.1521 H   0  0  0  0  0  0  0  0  0  0  0  0
  146.2728  134.1504  151.6786 H   0  0  0  0  0  0  0  0  0  0  0  0
  146.8615  133.8428  150.0491 H   0  0  0  0  0  0  0  0  0  0  0  0
  144.7674  135.0829  149.6326 H   0  0  0  0  0  0  0  0  0  0  0  0
  143.9918  134.6021  152.1887 H   0  0  0  0  0  0  0  0  0  0  0  0
  142.7300  134.6324  150.9578 H   0  0  0  0  0  0  0  0  0  0  0  0
  143.5224  132.2894  152.5008 H   0  0  0  0  0  0  0  0  0  0  0  0
  142.3397  132.3808  151.2094 H   0  0  0  0  0  0  0  0  0  0  0  0
  144.0744  130.9380  150.2070 H   0  0  0  0  0  0  0  0  0  0  0  0
  143.2646  133.0526  148.8900 H   0  0  0  0  0  0  0  0  0  0  0  0
  144.9665  132.7183  148.4970 H   0  0  0  0  0  0  0  0  0  0  0  0
  1  2  1  0  0  0  0
  1 21  1  0  0  0  0
  1 22  1  0  0  0  0
  1 23  1  0  0  0  0
  2  7  1  0  0  0  0
  2  3  2  0  0  0  0
  3  4  1  0  0  0  0
  4  5  1  0  0  0  0
  5  6  1  0  0  0  0
  5  7  2  0  0  0  0
  7  8  1  0  0  0  0
  8  9  1  0  0  0  0
  8 24  1  0  0  0  0
  8 25  1  0  0  0  0
  9 10  2  0  0  0  0
  9 11  1  0  0  0  0
 11 12  1  0  0  0  0
 11 26  1  0  0  0  0
 12 13  1  0  0  0  0
 12 14  1  0  0  0  0
 12 27  1  0  0  0  0
 13 28  1  0  0  0  0
 13 29  1  0  0  0  0
 13 30  1  0  0  0  0
 14 19  1  0  0  0  0
 14 15  1  0  0  0  0
 14 31  1  0  0  0  0
 15 16  1  0  0  0  0
 15 32  1  0  0  0  0
 15 33  1  0  0  0  0
 16 20  1  0  0  0  0
 16 17  1  0  0  0  0
 16 34  1  0  0  0  0
 17 18  1  0  0  0  0
 17 35  1  0  0  0  0
 17 36  1  0  0  0  0
 18 19  1  0  0  0  0
 18 37  1  0  0  0  0
 18 38  1  0  0  0  0
 19 20  1  0  0  0  0
 19 39  1  0  0  0  0
 20 40  1  0  0  0  0
 20 41  1  0  0  0  0
M  END
> <s_m_source_file>
AV-unprocessed.smi

> <i_m_source_file_index>
1686

> <i_lp_mmshare_version>
43012

> <i_f3d_flags>
0

> <s_epik_input>
W0NIM11jMW5vYyhDbCljMVtDSDJdQyg9TylbTkhdW0NASF0oW0NIM10pW0NASF0oW0NIMl1bQ0BIXTIzKVtDQEhdKFtDSDJdMylbQ0gyXVtDSDJdMg==

> <s_epik_cmdline>
J2VwaWtfcHl0aG9uJywgJy1waCcsICc3LjAnLCAnLXRuJywgJzgnLCAnLW1hJywgJzIwMCcsICctbWV0YWxfYmluZGluZycsICctaW1hZScsICc8aW5maWxlLm1hZT4nLCAnLW9tYWUnLCAnPG91dGZpbGUubWFlPic=

> <r_lp_tautomer_probability>
1

> <r_epik_Ionization_Penalty>
2.01576e-08

> <r_epik_Ionization_Penalty_Charging>
0

> <r_epik_Ionization_Penalty_Neutral>
2.01576e-08

> <r_epik_State_Penalty>
-0

> <r_epik_Charging_Adjusted_Penalty>
0

> <i_epik_Tot_Q>
0

> <i_epik_Tot_abs_Q>
0

> <r_epik_Metal_State_Penalty>
-0

> <b_epik_Metal_Only>
0

> <s_lp_Force_Field>
OPLS_2005

> <r_lp_Energy>
47.064

> <b_lp_Chiralities_Consistent>
1

> <s_lp_Variant>
AV-unprocessed.smi:1686-1

> <Gold.Version>
5.8.1

> <Gold.Id.Protein>
6NUR|6NUR_protein|mol2

> <Gold.PLP.Fitness>
43.1549

> <Gold.PLP.PLP>
-38.0758

> <Gold.PLP.part.hbond>
-2.0000

> <Gold.PLP.part.metal>
0.0000

> <Gold.PLP.part.buried>
-3.4961

> <Gold.PLP.part.nonpolar>
-33.1782

> <Gold.PLP.part.repulsive>
0.0406

> <Gold.PLP.ligand.clash>
0.0000

> <Gold.PLP.ligand.torsion>
0.4440

> <Gold.PLP.Chemscore.Hbond>
1.9833

> <Gold.PLP.Chemscore.CHOScore>
0.0000

> <Gold.PLP.Chemscore.Metal>
0.0000

> <Gold.Chemscore.Hbonds>
donor molecule, donor type, donor heavy atom, donor atom, acceptor molecule, acceptor atom, score
      L1  H    11    26       P1 10747  0.70
      P1  H  6896  6908       L1     4  0.98

> <Gold.PLP.Chemscore.Internal.Correction>
0.0174

> <Gold.Rescore>
     Score         DG    S(hbond)    S(metal)    S(lipo)     H(rot)  DE(clash)    DE(int)     intcor
     19.30     -19.49       1.71        0.00     103.05       1.46       0.01       0.18       ----

> <Gold.Chemscore.Fitness>
19.2950

> <Gold.Chemscore.DG>
-19.4854

> <Gold.Chemscore.ZeroCoef>
-5.4800

> <Gold.Chemscore.Hbond>
1.7060

> <Gold.Chemscore.Metal>
0.0000

> <Gold.Chemscore.Lipo>
103.0531

> <Gold.Chemscore.Internal_Hbond>
0.0000

> <Gold.Chemscore.DEClash>
0.0089

> <Gold.Chemscore.DEInternal>
0.1815

> <Gold.Chemscore.Rot>
1.4648

> <Gold.Chemscore.Internal.Correction>
   9.000000E+99

> <Gold.Chemscore.Hbonds>
donor molecule, donor type, donor heavy atom, donor atom, acceptor molecule, acceptor atom, score
      L1  H    11    26       P1 10747  0.66
      P1  H  6896  6908       L1     4  0.56

> <Gold.Chemscore.Hbond.Weighted>
-5.6981

> <Gold.Chemscore.Metal.Weighted>
-0.0000

> <Gold.Chemscore.Lipo.Weighted>
-12.0572

> <Gold.Chemscore.Internal_Hbond.Weighted>
0.0000

> <Gold.Chemscore.DEClash.Weighted>
0.0089

> <Gold.Chemscore.DEInternal.Weighted>
0.1815

> <Gold.Chemscore.Rot.Weighted>
3.7500

> <Gold.Chemscore.Internal.Correction.Weighted>
   9.000000E+99

> <Gold.Protein.RotatedTorsions>
[ 6907 6896 6895 6894 ] final   92.56 input  -60.11 | X-H torsion
[ 7974 7965 7964 7962 ] final -101.73 input  175.53 | X-H torsion
[ 8008 7997 7996 7995 ] final -125.40 input   59.86 | X-H torsion
[ 10167 10162 10161 10158 ] final   39.07 input  -65.29 | X-H torsion
[ 10718 10713 10712 10709 ] final  -35.35 input   66.30 | X-H torsion
[ 10763 10752 10751 10750 ] final  157.08 input  -60.55 | X-H torsion
[ 11005 11000 10999 10996 ] final  156.91 input  -57.11 | X-H torsion

> <Gold.Protein.ActiveResidues>
 VAL166  LYS551  ARG553  GLY616  TRP617  ASP618  TYR619  PRO620  LYS621  CYS622 
 ASP623  PHE694  ASN695  SER759  ASP760  ASP761  ALA762  ILE779  LEU786  VAL792 
 PHE793  MET794  SER795  GLU796  ALA797  LYS798  CYS799  TRP800  GLU811  SER814 

> <Gold.Protein.RotatedAtoms>
  152.5452  134.1483  159.8507 H   0  0  0  0  0  0  0  0  0  0  0  0  # atno 6907 bound_to 6896
  151.1512  133.4899  159.2602 H   0  0  0  0  0  0  0  0  0  0  0  0  # atno 6908 bound_to 6896
  151.1470  135.0219  159.8706 H   0  0  0  0  0  0  0  0  0  0  0  0  # atno 6909 bound_to 6896
  145.2778  140.9317  143.2949 H   0  0  0  0  0  0  0  0  0  0  0  0  # atno 7974 bound_to 7965
  155.2126  140.0419  157.2936 H   0  0  0  0  0  0  0  0  0  0  0  0  # atno 8008 bound_to 7997
  154.6001  140.2450  155.7775 H   0  0  0  0  0  0  0  0  0  0  0  0  # atno 8009 bound_to 7997
  156.2316  140.2936  156.0211 H   0  0  0  0  0  0  0  0  0  0  0  0  # atno 8010 bound_to 7997
  140.3875  144.1897  150.6130 H   0  0  0  0  0  0  0  0  0  0  0  0  # atno 10167 bound_to 10162
  156.3397  130.4291  149.7798 H   0  0  0  0  0  0  0  0  0  0  0  0  # atno 10718 bound_to 10713
  154.1945  135.2793  155.3011 H   0  0  0  0  0  0  0  0  0  0  0  0  # atno 10763 bound_to 10752
  154.5903  135.5562  153.7275 H   0  0  0  0  0  0  0  0  0  0  0  0  # atno 10764 bound_to 10752
  153.0103  135.6366  154.2084 H   0  0  0  0  0  0  0  0  0  0  0  0  # atno 10765 bound_to 10752
  140.1720  134.8537  157.2701 H   0  0  0  0  0  0  0  0  0  0  0  0  # atno 11005 bound_to 11000
  144.9279  139.4333  143.6509 LP  0  0  0  0  0  0  0  0  0  0  0  0  # atno 17320 bound_to 7965
  146.3226  139.8175  142.8933 LP  0  0  0  0  0  0  0  0  0  0  0  0  # atno 17321 bound_to 7965
  140.4874  143.2359  151.8869 LP  0  0  0  0  0  0  0  0  0  0  0  0  # atno 17342 bound_to 10162
  139.4791  144.5204  151.8809 LP  0  0  0  0  0  0  0  0  0  0  0  0  # atno 17343 bound_to 10162
  156.5039  130.8141  151.3143 LP  0  0  0  0  0  0  0  0  0  0  0  0  # atno 17370 bound_to 10713
  157.7445  130.9935  150.2676 LP  0  0  0  0  0  0  0  0  0  0  0  0  # atno 17371 bound_to 10713
  140.2367  134.3845  155.7498 LP  0  0  0  0  0  0  0  0  0  0  0  0  # atno 17394 bound_to 11000
  141.2218  133.7243  156.8725 LP  0  0  0  0  0  0  0  0  0  0  0  0  # atno 17395 bound_to 11000

$$$$
