AV-unprocessed.smi:439|AV-procd|sdf|2580|dock6
  -GOLD-   2262022563D 1   1.00000     0.00000
 Structure written by MMmdl.
 45 46  0  0  0  0  0  0  0  0  2 V2000
  146.2715  130.0863  152.3921 C   0  0  0  0  0  0  0  0  0  0  0  0
  146.0432  131.5705  152.7082 C   0  0  0  0  0  0  0  0  0  0  0  0
  146.9707  132.1189  153.8045 C   0  0  0  0  0  0  0  0  0  0  0  0
  148.4641  132.0768  153.4290 C   0  0  0  0  0  0  0  0  0  0  0  0
  149.2907  132.7824  154.4317 N   0  0  0  0  0  0  0  0  0  0  0  0
  149.1515  134.1891  154.5755 C   0  0  0  0  0  0  0  0  0  0  0  0
  148.2436  134.8621  153.7697 N   0  0  0  0  0  0  0  0  0  0  0  0
  149.8830  134.8537  155.5104 C   0  0  0  0  0  0  0  0  0  0  0  0
  149.7925  136.2539  155.6790 N   0  0  0  0  0  0  0  0  0  0  0  0
  148.4751  136.7667  156.0956 C   0  0  0  0  0  0  0  0  0  0  0  0
  148.5515  137.5239  157.4309 C   0  0  0  0  0  0  0  0  0  0  0  0
  150.8053  137.1308  155.4011 C   0  0  0  0  0  0  0  0  0  0  0  0
  151.9527  136.7293  155.1917 O   0  0  0  0  0  0  0  0  0  0  0  0
  150.4630  138.5553  155.3298 C   0  0  0  0  0  0  0  0  0  0  0  0
  150.0965  139.0759  154.1359 C   0  0  0  0  0  0  0  0  0  0  0  0
  149.7045  140.3793  153.9564 O   0  0  0  0  0  0  0  0  0  0  0  0
  149.4779  141.1058  155.1587 C   0  0  0  0  0  0  0  0  0  0  0  0
  150.5347  140.7461  156.2120 C   0  0  0  0  0  0  0  0  0  0  0  0
  150.5112  139.3456  156.4562 O   0  0  0  0  0  0  0  0  0  0  0  0
  150.8416  134.0969  156.3277 C   0  0  0  0  0  0  0  0  0  0  0  0
  151.5371  134.6748  157.1634 O   0  0  0  0  0  0  0  0  0  0  0  0
  150.9307  132.7570  156.1207 N   0  5  0  0  0  0  0  0  0  0  0  0
  150.1900  132.0866  155.1930 C   0  0  0  0  0  0  0  0  0  0  0  0
  150.3145  130.8729  155.0230 O   0  0  0  0  0  0  0  0  0  0  0  0
  145.5440  129.7316  151.6617 H   0  0  0  0  0  0  0  0  0  0  0  0
  146.1690  129.4730  153.2876 H   0  0  0  0  0  0  0  0  0  0  0  0
  147.2635  129.9117  151.9759 H   0  0  0  0  0  0  0  0  0  0  0  0
  146.1526  132.1633  151.7994 H   0  0  0  0  0  0  0  0  0  0  0  0
  145.0095  131.6995  153.0304 H   0  0  0  0  0  0  0  0  0  0  0  0
  146.6900  133.1526  154.0100 H   0  0  0  0  0  0  0  0  0  0  0  0
  146.8012  131.5724  154.7330 H   0  0  0  0  0  0  0  0  0  0  0  0
  148.8023  131.0484  153.3085 H   0  0  0  0  0  0  0  0  0  0  0  0
  148.5999  132.5030  152.4337 H   0  0  0  0  0  0  0  0  0  0  0  0
  147.6799  134.3799  153.0847 H   0  0  0  0  0  0  0  0  0  0  0  0
  148.1544  135.8676  153.7979 H   0  0  0  0  0  0  0  0  0  0  0  0
  148.0740  137.4434  155.3403 H   0  0  0  0  0  0  0  0  0  0  0  0
  147.7504  135.9540  156.1659 H   0  0  0  0  0  0  0  0  0  0  0  0
  147.5703  137.9039  157.7154 H   0  0  0  0  0  0  0  0  0  0  0  0
  149.2286  138.3758  157.3616 H   0  0  0  0  0  0  0  0  0  0  0  0
  148.9044  136.8824  158.2384 H   0  0  0  0  0  0  0  0  0  0  0  0
  150.0462  138.5168  153.2123 H   0  0  0  0  0  0  0  0  0  0  0  0
  149.5037  142.1739  154.9415 H   0  0  0  0  0  0  0  0  0  0  0  0
  148.4783  140.8780  155.5313 H   0  0  0  0  0  0  0  0  0  0  0  0
  151.5308  141.0364  155.8745 H   0  0  0  0  0  0  0  0  0  0  0  0
  150.3436  141.2744  157.1460 H   0  0  0  0  0  0  0  0  0  0  0  0
  1  2  1  0  0  0  0
  1 25  1  0  0  0  0
  1 26  1  0  0  0  0
  1 27  1  0  0  0  0
  2  3  1  0  0  0  0
  2 28  1  0  0  0  0
  2 29  1  0  0  0  0
  3  4  1  0  0  0  0
  3 30  1  0  0  0  0
  3 31  1  0  0  0  0
  4  5  1  0  0  0  0
  4 32  1  0  0  0  0
  4 33  1  0  0  0  0
  5 23  1  0  0  0  0
  5  6  1  0  0  0  0
  6  7  1  0  0  0  0
  6  8  2  0  0  0  0
  7 34  1  0  0  0  0
  7 35  1  0  0  0  0
  8  9  1  0  0  0  0
  8 20  1  0  0  0  0
  9 10  1  0  0  0  0
  9 12  1  0  0  0  0
 10 11  1  0  0  0  0
 10 36  1  0  0  0  0
 10 37  1  0  0  0  0
 11 38  1  0  0  0  0
 11 39  1  0  0  0  0
 11 40  1  0  0  0  0
 12 13  2  0  0  0  0
 12 14  1  0  0  0  0
 14 19  1  0  0  0  0
 14 15  2  0  0  0  0
 15 16  1  0  0  0  0
 15 41  1  0  0  0  0
 16 17  1  0  0  0  0
 17 18  1  0  0  0  0
 17 42  1  0  0  0  0
 17 43  1  0  0  0  0
 18 19  1  0  0  0  0
 18 44  1  0  0  0  0
 18 45  1  0  0  0  0
 20 21  2  0  0  0  0
 20 22  1  0  0  0  0
 22 23  1  0  0  0  0
 23 24  2  0  0  0  0
M  CHG  1  22  -1
M  END
> <s_m_source_file>
AV-unprocessed.smi

> <i_m_source_file_index>
439

> <i_lp_mmshare_version>
43012

> <i_f3d_flags>
0

> <s_epik_input>
W0NIM11bQ0gyXVtDSDJdW0NIMl1uMWMoW05IMl0pYyhjKD1PKVtuSF1jMT1PKU4oW0NIMl1bQ0gzXSlDKD1PKUMyPVtDSF1PW0NIMl1bQ0gyXU8y

> <s_epik_cmdline>
J2VwaWtfcHl0aG9uJywgJy1waCcsICc3LjAnLCAnLXRuJywgJzgnLCAnLW1hJywgJzIwMCcsICctbWV0YWxfYmluZGluZycsICctaW1hZScsICc8aW5maWxlLm1hZT4nLCAnLW9tYWUnLCAnPG91dGZpbGUubWFlPic=

> <r_lp_tautomer_probability>
1

> <r_epik_Ionization_Penalty>
6.21372

> <r_epik_Ionization_Penalty_Charging>
0.188923

> <r_epik_Ionization_Penalty_Neutral>
6.0248

> <r_epik_State_Penalty>
6.02477

> <r_epik_Charging_Adjusted_Penalty>
6.2137

> <i_epik_Tot_Q>
-1

> <i_epik_Tot_abs_Q>
1

> <r_epik_Metal_State_Penalty>
1.95433

> <b_epik_Metal_Only>
1

> <s_epik_Chemistry_Notes>
This compound has an imine and may undergo hydrolysis.

> <s_lp_Force_Field>
OPLS_2005

> <r_lp_Energy>
37.3971

> <b_lp_Chiralities_Consistent>
1

> <s_lp_Variant>
AV-unprocessed.smi:439-2

> <Gold.Version>
5.8.1

> <Gold.Id.Protein>
6NUR|6NUR_protein|mol2

> <Gold.PLP.Fitness>
40.1404

> <Gold.PLP.PLP>
-34.1955

> <Gold.PLP.part.hbond>
-3.3188

> <Gold.PLP.part.metal>
0.0000

> <Gold.PLP.part.buried>
-5.1680

> <Gold.PLP.part.nonpolar>
-28.1708

> <Gold.PLP.part.repulsive>
2.3050

> <Gold.PLP.ligand.clash>
0.0000

> <Gold.PLP.ligand.torsion>
2.8142

> <Gold.PLP.Chemscore.Hbond>
1.5863

> <Gold.PLP.Chemscore.CHOScore>
1.0818

> <Gold.PLP.Chemscore.Metal>
0.0000

> <Gold.Chemscore.Hbonds>
donor molecule, donor type, donor heavy atom, donor atom, acceptor molecule, acceptor atom, score
      P1  H  6896  6907       L1    21  0.02
      P1  H  7989  7998       L1    16  0.34
      P1  H 10752 10763       L1    13  0.96
      L1  C    15    41       P1  7948  0.27
      L1  C    15    41       P1  7957  0.59

> <Gold.PLP.Chemscore.Internal.Correction>
3.5689

> <Gold.Rescore>
     Score         DG    S(hbond)    S(metal)    S(lipo)     H(rot)  DE(clash)    DE(int)     intcor
     13.66     -17.18       2.82        0.00      55.33       1.63       0.20       3.32       ----

> <Gold.Chemscore.Fitness>
13.6567

> <Gold.Chemscore.DG>
-17.1778

> <Gold.Chemscore.ZeroCoef>
-5.4800

> <Gold.Chemscore.Hbond>
2.8155

> <Gold.Chemscore.Metal>
0.0000

> <Gold.Chemscore.Lipo>
55.3268

> <Gold.Chemscore.Internal_Hbond>
0.0000

> <Gold.Chemscore.DEClash>
0.2038

> <Gold.Chemscore.DEInternal>
3.3173

> <Gold.Chemscore.Rot>
1.6325

> <Gold.Chemscore.Internal.Correction>
   9.000000E+99

> <Gold.Chemscore.Hbonds>
donor molecule, donor type, donor heavy atom, donor atom, acceptor molecule, acceptor atom, score
      L1  H     7    35       P1  7948  0.02
      P1  H  6896  6907       L1    21  0.01
      P1  H  7989  7998       L1    16  0.01
      P1  H 10752 10763       L1    13  0.92

> <Gold.Chemscore.Hbond.Weighted>
-9.4039

> <Gold.Chemscore.Metal.Weighted>
-0.0000

> <Gold.Chemscore.Lipo.Weighted>
-6.4732

> <Gold.Chemscore.Internal_Hbond.Weighted>
0.0000

> <Gold.Chemscore.DEClash.Weighted>
0.2038

> <Gold.Chemscore.DEInternal.Weighted>
3.3173

> <Gold.Chemscore.Rot.Weighted>
4.1793

> <Gold.Chemscore.Internal.Correction.Weighted>
   9.000000E+99

> <Gold.Protein.RotatedTorsions>
[ 6907 6896 6895 6894 ] final -135.90 input  -60.11 | X-H torsion
[ 7974 7965 7964 7962 ] final -160.12 input  175.53 | X-H torsion
[ 8008 7997 7996 7995 ] final  135.98 input   59.86 | X-H torsion
[ 10167 10162 10161 10158 ] final  -36.68 input  -65.29 | X-H torsion
[ 10718 10713 10712 10709 ] final  131.32 input   66.30 | X-H torsion
[ 10763 10752 10751 10750 ] final   79.94 input  -60.55 | X-H torsion
[ 11005 11000 10999 10996 ] final  156.67 input  -57.11 | X-H torsion

> <Gold.Protein.ActiveResidues>
 VAL166  LYS551  ARG553  GLY616  TRP617  ASP618  TYR619  PRO620  LYS621  CYS622 
 ASP623  PHE694  ASN695  SER759  ASP760  ASP761  ALA762  ILE779  LEU786  VAL792 
 PHE793  MET794  SER795  GLU796  ALA797  LYS798  CYS799  TRP800  GLU811  SER814 

> <Gold.Protein.RotatedAtoms>
  151.0035  133.6033  159.2691 H   0  0  0  0  0  0  0  0  0  0  0  0  # atno 6907 bound_to 6896
  151.3211  135.0818  159.9316 H   0  0  0  0  0  0  0  0  0  0  0  0  # atno 6908 bound_to 6896
  152.5280  133.9682  159.7803 H   0  0  0  0  0  0  0  0  0  0  0  0  # atno 6909 bound_to 6896
  144.7439  140.3586  143.6101 H   0  0  0  0  0  0  0  0  0  0  0  0  # atno 7974 bound_to 7965
  156.3004  140.2457  156.3670 H   0  0  0  0  0  0  0  0  0  0  0  0  # atno 8008 bound_to 7997
  154.8824  140.0412  157.1810 H   0  0  0  0  0  0  0  0  0  0  0  0  # atno 8009 bound_to 7997
  154.8682  140.2931  155.5501 H   0  0  0  0  0  0  0  0  0  0  0  0  # atno 8010 bound_to 7997
  140.7137  143.3392  151.2394 H   0  0  0  0  0  0  0  0  0  0  0  0  # atno 10167 bound_to 10162
  157.4978  131.1093  150.9469 H   0  0  0  0  0  0  0  0  0  0  0  0  # atno 10718 bound_to 10713
  153.0993  135.4821  154.8837 H   0  0  0  0  0  0  0  0  0  0  0  0  # atno 10763 bound_to 10752
  154.7360  135.3071  154.8812 H   0  0  0  0  0  0  0  0  0  0  0  0  # atno 10764 bound_to 10752
  153.9434  135.6831  153.4797 H   0  0  0  0  0  0  0  0  0  0  0  0  # atno 10765 bound_to 10752
  140.1696  134.8552  157.2674 H   0  0  0  0  0  0  0  0  0  0  0  0  # atno 11005 bound_to 11000
  145.7200  139.1707  143.2490 LP  0  0  0  0  0  0  0  0  0  0  0  0  # atno 17320 bound_to 7965
  146.1284  140.7218  142.9424 LP  0  0  0  0  0  0  0  0  0  0  0  0  # atno 17321 bound_to 7965
  139.6896  143.9715  152.2852 LP  0  0  0  0  0  0  0  0  0  0  0  0  # atno 17342 bound_to 10162
  139.9372  144.6704  150.8303 LP  0  0  0  0  0  0  0  0  0  0  0  0  # atno 17343 bound_to 10162
  157.0149  130.5651  149.5325 LP  0  0  0  0  0  0  0  0  0  0  0  0  # atno 17370 bound_to 10713
  156.0211  130.5306  150.8277 LP  0  0  0  0  0  0  0  0  0  0  0  0  # atno 17371 bound_to 10713
  140.2393  134.3815  155.7488 LP  0  0  0  0  0  0  0  0  0  0  0  0  # atno 17394 bound_to 11000
  141.2216  133.7256  156.8763 LP  0  0  0  0  0  0  0  0  0  0  0  0  # atno 17395 bound_to 11000

$$$$
