AV-unprocessed.smi:1244|AV-procd|sdf|5234|dock6
  -GOLD-   22720 4343D 1   1.00000     0.00000
 Structure written by MMmdl.
 56 58  0  0  0  0  0  0  0  0  3 V2000
  144.3741  131.8123  150.8350 C   0  0  0  0  0  0  0  0  0  0  0  0
  145.7472  131.3051  151.2896 C   0  0  1  0  0  0  0  0  0  0  0  0
  146.6219  132.4379  151.8559 C   0  0  0  0  0  0  0  0  0  0  0  0
  147.9048  131.8991  152.3645 N   0  3  1  0  0  0  0  0  0  0  0  0
  148.8240  132.9696  152.8258 C   0  0  0  0  0  0  0  0  0  0  0  0
  148.3276  133.6582  154.1116 C   0  0  0  0  0  0  0  0  0  0  0  0
  148.5161  135.1032  154.0543 N   0  0  0  0  0  0  0  0  0  0  0  0
  149.6661  135.7386  154.3203 C   0  0  0  0  0  0  0  0  0  0  0  0
  150.7056  135.1572  154.6303 O   0  0  0  0  0  0  0  0  0  0  0  0
  149.5216  137.0709  154.2196 N   0  0  0  0  0  0  0  0  0  0  0  0
  150.4870  138.0861  154.4783 C   0  0  0  0  0  0  0  0  0  0  0  0
  151.8746  137.7922  154.5275 C   0  0  0  0  0  0  0  0  0  0  0  0
  152.8009  138.8137  154.8094 C   0  0  0  0  0  0  0  0  0  0  0  0
  152.3278  140.1173  155.0346 C   0  0  0  0  0  0  0  0  0  0  0  0
  151.0050  140.3701  154.9600 N   0  3  0  0  0  0  0  0  0  0  0  0
  150.0651  139.4336  154.6772 C   0  0  0  0  0  0  0  0  0  0  0  0
  148.7158  139.8521  154.6170 N   0  0  0  0  0  0  0  0  0  0  0  0
  148.3322  141.1818  155.0775 C   0  0  0  0  0  0  0  0  0  0  0  0
  146.9208  141.3965  154.5374 C   0  0  0  0  0  0  0  0  0  0  0  0
  146.9679  140.6702  153.1966 C   0  0  0  0  0  0  0  0  0  0  0  0
  147.9097  139.4893  153.4556 C   0  0  0  0  0  0  0  0  0  0  0  0
  147.6524  130.8509  153.3844 C   0  0  0  0  0  0  0  0  0  0  0  0
  146.7318  129.7455  152.8307 C   0  0  2  0  0  0  0  0  0  0  0  0
  147.4293  128.8082  151.8282 C   0  0  0  0  0  0  0  0  0  0  0  0
  145.5385  130.3183  152.2964 O   0  0  0  0  0  0  0  0  0  0  0  0
  144.4725  132.5651  150.0525 H   0  0  0  0  0  0  0  0  0  0  0  0
  143.8236  132.2595  151.6633 H   0  0  0  0  0  0  0  0  0  0  0  0
  143.7705  130.9967  150.4359 H   0  0  0  0  0  0  0  0  0  0  0  0
  146.2414  130.8552  150.4283 H   0  0  0  0  0  0  0  0  0  0  0  0
  146.8143  133.1734  151.0735 H   0  0  0  0  0  0  0  0  0  0  0  0
  146.0995  132.9562  152.6620 H   0  0  0  0  0  0  0  0  0  0  0  0
  149.8013  132.5282  153.0272 H   0  0  0  0  0  0  0  0  0  0  0  0
  148.9740  133.6988  152.0280 H   0  0  0  0  0  0  0  0  0  0  0  0
  147.2634  133.4812  154.2613 H   0  0  0  0  0  0  0  0  0  0  0  0
  148.8364  133.2484  154.9859 H   0  0  0  0  0  0  0  0  0  0  0  0
  147.7079  135.6580  153.8114 H   0  0  0  0  0  0  0  0  0  0  0  0
  148.5840  137.4007  154.0430 H   0  0  0  0  0  0  0  0  0  0  0  0
  152.2481  136.7959  154.3470 H   0  0  0  0  0  0  0  0  0  0  0  0
  153.8587  138.5984  154.8536 H   0  0  0  0  0  0  0  0  0  0  0  0
  152.9621  140.9620  155.2613 H   0  0  0  0  0  0  0  0  0  0  0  0
  148.3634  141.2508  156.1655 H   0  0  0  0  0  0  0  0  0  0  0  0
  149.0012  141.9381  154.6646 H   0  0  0  0  0  0  0  0  0  0  0  0
  146.1923  140.9186  155.1940 H   0  0  0  0  0  0  0  0  0  0  0  0
  146.6558  142.4501  154.4452 H   0  0  0  0  0  0  0  0  0  0  0  0
  145.9838  140.3586  152.8453 H   0  0  0  0  0  0  0  0  0  0  0  0
  147.4011  141.3268  152.4408 H   0  0  0  0  0  0  0  0  0  0  0  0
  148.5224  139.2722  152.5795 H   0  0  0  0  0  0  0  0  0  0  0  0
  147.3299  138.5979  153.6968 H   0  0  0  0  0  0  0  0  0  0  0  0
  148.5858  130.4058  153.7268 H   0  0  0  0  0  0  0  0  0  0  0  0
  147.1855  131.3105  154.2573 H   0  0  0  0  0  0  0  0  0  0  0  0
  146.4173  129.1261  153.6711 H   0  0  0  0  0  0  0  0  0  0  0  0
  148.2586  128.2834  152.3032 H   0  0  0  0  0  0  0  0  0  0  0  0
  147.8359  129.3443  150.9710 H   0  0  0  0  0  0  0  0  0  0  0  0
  146.7358  128.0549  151.4539 H   0  0  0  0  0  0  0  0  0  0  0  0
  148.3544  131.4498  151.5793 H   0  0  0  0  0  0  0  0  0  0  0  0
  150.6939  141.3287  155.1177 H   0  0  0  0  0  0  0  0  0  0  0  0
  1  2  1  0  0  0  0
  1 26  1  0  0  0  0
  1 27  1  0  0  0  0
  1 28  1  0  0  0  0
  2 25  1  0  0  0  0
  2  3  1  0  0  0  0
  2 29  1  0  0  0  0
  3  4  1  0  0  0  0
  3 30  1  0  0  0  0
  3 31  1  0  0  0  0
  4  5  1  0  0  0  0
  4 22  1  0  0  0  0
  4 55  1  0  0  0  0
  5  6  1  0  0  0  0
  5 32  1  0  0  0  0
  5 33  1  0  0  0  0
  6  7  1  0  0  0  0
  6 34  1  0  0  0  0
  6 35  1  0  0  0  0
  7  8  1  0  0  0  0
  7 36  1  0  0  0  0
  8  9  2  0  0  0  0
  8 10  1  0  0  0  0
 10 11  1  0  0  0  0
 10 37  1  0  0  0  0
 11 16  1  0  0  0  0
 11 12  2  0  0  0  0
 12 13  1  0  0  0  0
 12 38  1  0  0  0  0
 13 14  2  0  0  0  0
 13 39  1  0  0  0  0
 14 15  1  0  0  0  0
 14 40  1  0  0  0  0
 15 16  2  0  0  0  0
 15 56  1  0  0  0  0
 16 17  1  0  0  0  0
 17 21  1  0  0  0  0
 17 18  1  0  0  0  0
 18 19  1  0  0  0  0
 18 41  1  0  0  0  0
 18 42  1  0  0  0  0
 19 20  1  0  0  0  0
 19 43  1  0  0  0  0
 19 44  1  0  0  0  0
 20 21  1  0  0  0  0
 20 45  1  0  0  0  0
 20 46  1  0  0  0  0
 21 47  1  0  0  0  0
 21 48  1  0  0  0  0
 22 23  1  0  0  0  0
 22 49  1  0  0  0  0
 22 50  1  0  0  0  0
 23 24  1  0  0  0  0
 23 25  1  0  0  0  0
 23 51  1  0  0  0  0
 24 52  1  0  0  0  0
 24 53  1  0  0  0  0
 24 54  1  0  0  0  0
M  CHG  1   4   1
M  CHG  1  15   1
M  END
> <s_m_source_file>
AV-unprocessed.smi

> <i_m_source_file_index>
1244

> <i_lp_mmshare_version>
43012

> <i_f3d_flags>
0

> <s_epik_input>
W0NIM11bQ0BASF0xW0NIMl1OKFtDSDJdW0NASF0oTzEpW0NIM10pW0NIMl1bQ0gyXVtOSF1DKD1PKVtOSF1jMltjSF1bY0hdW2NIXW5jMk4zW0NIMl1bQ0gyXVtDSDJdW0NIMl0z

> <s_epik_cmdline>
J2VwaWtfcHl0aG9uJywgJy1waCcsICc3LjAnLCAnLXRuJywgJzgnLCAnLW1hJywgJzIwMCcsICctbWV0YWxfYmluZGluZycsICctaW1hZScsICc8aW5maWxlLm1hZT4nLCAnLW9tYWUnLCAnPG91dGZpbGUubWFlPic=

> <r_lp_tautomer_probability>
0.999994

> <r_epik_Ionization_Penalty>
1.81601

> <r_epik_Ionization_Penalty_Charging>
1.81599

> <r_epik_Ionization_Penalty_Neutral>
2.01972e-05

> <r_epik_State_Penalty>
1.85672

> <r_epik_Charging_Adjusted_Penalty>
3.6727

> <i_epik_Tot_Q>
2

> <i_epik_Tot_abs_Q>
2

> <r_epik_Metal_State_Penalty>
1.93796

> <b_epik_Metal_Only>
0

> <s_lp_Force_Field>
OPLS_2005

> <r_lp_Energy>
54.6365

> <b_lp_Chiralities_Consistent>
1

> <s_lp_Variant>
AV-unprocessed.smi:1244-14

> <Gold.Version>
5.8.1

> <Gold.Id.Protein>
6NUR|6NUR_protein|mol2

> <Gold.PLP.Fitness>
44.2128

> <Gold.PLP.PLP>
-42.2679

> <Gold.PLP.part.hbond>
-3.0000

> <Gold.PLP.part.metal>
0.0000

> <Gold.PLP.part.buried>
0.0160

> <Gold.PLP.part.nonpolar>
-38.9779

> <Gold.PLP.part.repulsive>
0.9793

> <Gold.PLP.ligand.clash>
0.0000

> <Gold.PLP.ligand.torsion>
0.7404

> <Gold.PLP.Chemscore.Hbond>
1.0000

> <Gold.PLP.Chemscore.CHOScore>
0.0000

> <Gold.PLP.Chemscore.Metal>
0.0000

> <Gold.Chemscore.Hbonds>
donor molecule, donor type, donor heavy atom, donor atom, acceptor molecule, acceptor atom, score
      L1  H     4    55       P1 10747  1.00

> <Gold.PLP.Chemscore.Internal.Correction>
0.4258

> <Gold.Rescore>
     Score         DG    S(hbond)    S(metal)    S(lipo)     H(rot)  DE(clash)    DE(int)     intcor
     13.97     -16.56       1.00        0.00     101.83       1.63       0.64       1.95       ----

> <Gold.Chemscore.Fitness>
13.9748

> <Gold.Chemscore.DG>
-16.5627

> <Gold.Chemscore.ZeroCoef>
-5.4800

> <Gold.Chemscore.Hbond>
1.0000

> <Gold.Chemscore.Metal>
0.0000

> <Gold.Chemscore.Lipo>
101.8255

> <Gold.Chemscore.Internal_Hbond>
0.0000

> <Gold.Chemscore.DEClash>
0.6419

> <Gold.Chemscore.DEInternal>
1.9460

> <Gold.Chemscore.Rot>
1.6293

> <Gold.Chemscore.Internal.Correction>
   9.000000E+99

> <Gold.Chemscore.Hbonds>
donor molecule, donor type, donor heavy atom, donor atom, acceptor molecule, acceptor atom, score
      L1  H     4    55       P1 10747  0.95

> <Gold.Chemscore.Hbond.Weighted>
-3.3400

> <Gold.Chemscore.Metal.Weighted>
-0.0000

> <Gold.Chemscore.Lipo.Weighted>
-11.9136

> <Gold.Chemscore.Internal_Hbond.Weighted>
0.0000

> <Gold.Chemscore.DEClash.Weighted>
0.6419

> <Gold.Chemscore.DEInternal.Weighted>
1.9460

> <Gold.Chemscore.Rot.Weighted>
4.1709

> <Gold.Chemscore.Internal.Correction.Weighted>
   9.000000E+99

> <Gold.Protein.RotatedTorsions>
[ 6907 6896 6895 6894 ] final   -6.37 input  -60.11 | X-H torsion
[ 7974 7965 7964 7962 ] final  -75.97 input  175.53 | X-H torsion
[ 8008 7997 7996 7995 ] final  -11.97 input   59.86 | X-H torsion
[ 10167 10162 10161 10158 ] final   65.75 input  -65.29 | X-H torsion
[ 10718 10713 10712 10709 ] final  122.33 input   66.30 | X-H torsion
[ 10763 10752 10751 10750 ] final  128.03 input  -60.55 | X-H torsion
[ 11005 11000 10999 10996 ] final -102.63 input  -57.11 | X-H torsion

> <Gold.Protein.ActiveResidues>
 VAL166  LYS551  ARG553  GLY616  TRP617  ASP618  TYR619  PRO620  LYS621  CYS622 
 ASP623  PHE694  ASN695  SER759  ASP760  ASP761  ALA762  ILE779  LEU786  VAL792 
 PHE793  MET794  SER795  GLU796  ALA797  LYS798  CYS799  TRP800  GLU811  SER814 

> <Gold.Protein.RotatedAtoms>
  151.4666  135.1042  159.9739 H   0  0  0  0  0  0  0  0  0  0  0  0  # atno 6907 bound_to 6896
  152.4832  133.8303  159.7110 H   0  0  0  0  0  0  0  0  0  0  0  0  # atno 6908 bound_to 6896
  150.8921  133.7169  159.2929 H   0  0  0  0  0  0  0  0  0  0  0  0  # atno 6909 bound_to 6896
  145.6190  140.9368  143.1148 H   0  0  0  0  0  0  0  0  0  0  0  0  # atno 7974 bound_to 7965
  154.5418  140.2288  155.8629 H   0  0  0  0  0  0  0  0  0  0  0  0  # atno 8008 bound_to 7997
  156.1865  140.3087  155.9211 H   0  0  0  0  0  0  0  0  0  0  0  0  # atno 8009 bound_to 7997
  155.3244  140.0442  157.3031 H   0  0  0  0  0  0  0  0  0  0  0  0  # atno 8010 bound_to 7997
  140.1079  144.4845  150.6996 H   0  0  0  0  0  0  0  0  0  0  0  0  # atno 10167 bound_to 10162
  157.5751  131.1080  150.8295 H   0  0  0  0  0  0  0  0  0  0  0  0  # atno 10718 bound_to 10713
  153.7190  135.3256  155.3262 H   0  0  0  0  0  0  0  0  0  0  0  0  # atno 10763 bound_to 10752
  154.8362  135.4495  154.1237 H   0  0  0  0  0  0  0  0  0  0  0  0  # atno 10764 bound_to 10752
  153.2352  135.6964  153.7925 H   0  0  0  0  0  0  0  0  0  0  0  0  # atno 10765 bound_to 10752
  141.1181  133.8574  157.1384 H   0  0  0  0  0  0  0  0  0  0  0  0  # atno 11005 bound_to 11000
  144.7239  139.7940  143.7372 LP  0  0  0  0  0  0  0  0  0  0  0  0  # atno 17320 bound_to 7965
  146.1446  139.4512  143.0087 LP  0  0  0  0  0  0  0  0  0  0  0  0  # atno 17321 bound_to 7965
  140.6942  143.2394  151.5047 LP  0  0  0  0  0  0  0  0  0  0  0  0  # atno 17342 bound_to 10162
  139.5635  144.2098  152.1729 LP  0  0  0  0  0  0  0  0  0  0  0  0  # atno 17343 bound_to 10162
  156.8756  130.5161  149.5294 LP  0  0  0  0  0  0  0  0  0  0  0  0  # atno 17370 bound_to 10713
  156.0795  130.5809  150.9537 LP  0  0  0  0  0  0  0  0  0  0  0  0  # atno 17371 bound_to 10713
  140.0117  134.9985  157.0409 LP  0  0  0  0  0  0  0  0  0  0  0  0  # atno 17394 bound_to 11000
  140.4588  134.1505  155.7189 LP  0  0  0  0  0  0  0  0  0  0  0  0  # atno 17395 bound_to 11000

$$$$
