AV-unprocessed.smi:1376|AV-procd|sdf|5592|dock7
  -GOLD-   22720 5193D 1   1.00000     0.00000
 Structure written by MMmdl.
 42 43  0  0  0  0  0  0  0  0  1 V2000
  148.9924  140.6311  156.9820 O   0  0  0  0  0  0  0  0  0  0  0  0
  150.2227  140.5975  156.9298 C   0  0  0  0  0  0  0  0  0  0  0  0
  151.0340  141.8599  156.6043 C   0  0  0  0  0  0  0  0  0  0  0  0
  151.6540  142.4769  157.7886 N   0  0  0  0  0  0  0  0  0  0  0  0
  151.3005  143.8106  158.0746 C   0  0  0  0  0  0  0  0  0  0  0  0
  151.8114  144.4707  159.1258 C   0  0  0  0  0  0  0  0  0  0  0  0
  152.7483  143.7771  159.9774 C   0  0  0  0  0  0  0  0  0  0  0  0
  153.0968  142.5027  159.7103 C   0  0  0  0  0  0  0  0  0  0  0  0
  152.5438  141.7787  158.5597 C   0  0  0  0  0  0  0  0  0  0  0  0
  152.8612  140.6165  158.3049 O   0  0  0  0  0  0  0  0  0  0  0  0
  150.9369  139.4867  157.1673 N   0  0  0  0  0  0  0  0  0  0  0  0
  150.3766  138.1813  157.5036 C   0  0  2  0  0  0  0  0  0  0  0  0
  149.3676  137.7306  156.4285 C   0  0  0  0  0  0  0  0  0  0  0  0
  148.7149  136.3909  156.8024 C   0  0  0  0  0  0  0  0  0  0  0  0
  148.0572  136.4599  158.1891 C   0  0  0  0  0  0  0  0  0  0  0  0
  149.0647  136.8937  159.2674 C   0  0  2  0  0  0  0  0  0  0  0  0
  148.3551  136.9874  160.4957 O   0  0  0  0  0  0  0  0  0  0  0  0
  147.9068  135.7439  161.0184 C   0  0  0  0  0  0  0  0  0  0  0  0
  147.0677  135.9965  162.2768 C   0  0  0  0  0  0  0  0  0  0  0  0
  147.7961  136.6761  163.1619 F   0  0  0  0  0  0  0  0  0  0  0  0
  145.9853  136.7126  161.9736 F   0  0  0  0  0  0  0  0  0  0  0  0
  146.6997  134.8387  162.8248 F   0  0  0  0  0  0  0  0  0  0  0  0
  149.7096  138.2441  158.8905 C   0  0  0  0  0  0  0  0  0  0  0  0
  151.7971  141.5936  155.8717 H   0  0  0  0  0  0  0  0  0  0  0  0
  150.3912  142.5811  156.0960 H   0  0  0  0  0  0  0  0  0  0  0  0
  150.6007  144.2593  157.3846 H   0  0  0  0  0  0  0  0  0  0  0  0
  151.5330  145.4950  159.3257 H   0  0  0  0  0  0  0  0  0  0  0  0
  153.1731  144.2830  160.8318 H   0  0  0  0  0  0  0  0  0  0  0  0
  153.8003  142.0000  160.3580 H   0  0  0  0  0  0  0  0  0  0  0  0
  151.9431  139.5496  157.1104 H   0  0  0  0  0  0  0  0  0  0  0  0
  151.1856  137.4500  157.5551 H   0  0  0  0  0  0  0  0  0  0  0  0
  148.5930  138.4891  156.3070 H   0  0  0  0  0  0  0  0  0  0  0  0
  149.8627  137.6375  155.4611 H   0  0  0  0  0  0  0  0  0  0  0  0
  147.9727  136.1174  156.0523 H   0  0  0  0  0  0  0  0  0  0  0  0
  149.4684  135.6023  156.7940 H   0  0  0  0  0  0  0  0  0  0  0  0
  147.2228  137.1620  158.1615 H   0  0  0  0  0  0  0  0  0  0  0  0
  147.6341  135.4880  158.4452 H   0  0  0  0  0  0  0  0  0  0  0  0
  149.8358  136.1245  159.3426 H   0  0  0  0  0  0  0  0  0  0  0  0
  147.3043  135.2193  160.2752 H   0  0  0  0  0  0  0  0  0  0  0  0
  148.7522  135.1016  161.2656 H   0  0  0  0  0  0  0  0  0  0  0  0
  150.4545  138.5309  159.6325 H   0  0  0  0  0  0  0  0  0  0  0  0
  148.9470  139.0244  158.8995 H   0  0  0  0  0  0  0  0  0  0  0  0
  1  2  2  0  0  0  0
  2  3  1  0  0  0  0
  2 11  1  0  0  0  0
  3  4  1  0  0  0  0
  3 24  1  0  0  0  0
  3 25  1  0  0  0  0
  4  9  1  0  0  0  0
  4  5  1  0  0  0  0
  5  6  2  0  0  0  0
  5 26  1  0  0  0  0
  6  7  1  0  0  0  0
  6 27  1  0  0  0  0
  7  8  2  0  0  0  0
  7 28  1  0  0  0  0
  8  9  1  0  0  0  0
  8 29  1  0  0  0  0
  9 10  2  0  0  0  0
 11 12  1  0  0  0  0
 11 30  1  0  0  0  0
 12 23  1  0  0  0  0
 12 13  1  0  0  0  0
 12 31  1  0  0  0  0
 13 14  1  0  0  0  0
 13 32  1  0  0  0  0
 13 33  1  0  0  0  0
 14 15  1  0  0  0  0
 14 34  1  0  0  0  0
 14 35  1  0  0  0  0
 15 16  1  0  0  0  0
 15 36  1  0  0  0  0
 15 37  1  0  0  0  0
 16 17  1  0  0  0  0
 16 23  1  0  0  0  0
 16 38  1  0  0  0  0
 17 18  1  0  0  0  0
 18 19  1  0  0  0  0
 18 39  1  0  0  0  0
 18 40  1  0  0  0  0
 19 20  1  0  0  0  0
 19 21  1  0  0  0  0
 19 22  1  0  0  0  0
 23 41  1  0  0  0  0
 23 42  1  0  0  0  0
M  END
> <s_m_source_file>
AV-unprocessed.smi

> <i_m_source_file_index>
1376

> <i_lp_mmshare_version>
43012

> <i_f3d_flags>
0

> <s_epik_input>
Tz1jMVtjSF1bY0hdW2NIXVtjSF1uMVtDSDJdQyg9TylbTkhdW0NAQEhdMltDSDJdW0NIMl1bQ0gyXVtDQEhdKFtDSDJdMilPW0NIMl1DKEYpKEYpRg==

> <s_epik_cmdline>
J2VwaWtfcHl0aG9uJywgJy1waCcsICc3LjAnLCAnLXRuJywgJzgnLCAnLW1hJywgJzIwMCcsICctbWV0YWxfYmluZGluZycsICctaW1hZScsICc8aW5maWxlLm1hZT4nLCAnLW9tYWUnLCAnPG91dGZpbGUubWFlPic=

> <r_lp_tautomer_probability>
1

> <r_epik_Ionization_Penalty>
4.08567e-07

> <r_epik_Ionization_Penalty_Charging>
3.90028e-07

> <r_epik_Ionization_Penalty_Neutral>
1.85393e-08

> <r_epik_State_Penalty>
-0

> <r_epik_Charging_Adjusted_Penalty>
3.90028e-07

> <i_epik_Tot_Q>
0

> <i_epik_Tot_abs_Q>
0

> <r_epik_Metal_State_Penalty>
-0

> <b_epik_Metal_Only>
0

> <s_lp_Force_Field>
OPLS_2005

> <r_lp_Energy>
18.479

> <b_lp_Chiralities_Consistent>
1

> <s_lp_Variant>
AV-unprocessed.smi:1376-3

> <Gold.Version>
5.8.1

> <Gold.Id.Protein>
6NUR|6NUR_protein|mol2

> <Gold.PLP.Fitness>
50.5059

> <Gold.PLP.PLP>
-43.9178

> <Gold.PLP.part.hbond>
-2.6329

> <Gold.PLP.part.metal>
0.0000

> <Gold.PLP.part.buried>
-4.4673

> <Gold.PLP.part.nonpolar>
-36.5153

> <Gold.PLP.part.repulsive>
0.0614

> <Gold.PLP.ligand.clash>
0.0000

> <Gold.PLP.ligand.torsion>
0.3109

> <Gold.PLP.Chemscore.Hbond>
1.3875

> <Gold.PLP.Chemscore.CHOScore>
1.0000

> <Gold.PLP.Chemscore.Metal>
0.0000

> <Gold.Chemscore.Hbonds>
donor molecule, donor type, donor heavy atom, donor atom, acceptor molecule, acceptor atom, score
      P1  H  6931  6943       L1    17  0.83
      P1  H  6934  6947       L1    17  0.08
      P1  H  7997  8009       L1    10  0.42
      L1  C     5    26       P1  8028  1.00

> <Gold.PLP.Chemscore.Internal.Correction>
0.0476

> <Gold.Rescore>
     Score         DG    S(hbond)    S(metal)    S(lipo)     H(rot)  DE(clash)    DE(int)     intcor
     13.48     -16.22       1.82        0.00      87.62       2.18       0.47       2.26       ----

> <Gold.Chemscore.Fitness>
13.4821

> <Gold.Chemscore.DG>
-16.2183

> <Gold.Chemscore.ZeroCoef>
-5.4800

> <Gold.Chemscore.Hbond>
1.8165

> <Gold.Chemscore.Metal>
0.0000

> <Gold.Chemscore.Lipo>
87.6190

> <Gold.Chemscore.Internal_Hbond>
0.0000

> <Gold.Chemscore.DEClash>
0.4750

> <Gold.Chemscore.DEInternal>
2.2612

> <Gold.Chemscore.Rot>
2.1797

> <Gold.Chemscore.Internal.Correction>
   9.000000E+99

> <Gold.Chemscore.Hbonds>
donor molecule, donor type, donor heavy atom, donor atom, acceptor molecule, acceptor atom, score
      P1  H  6931  6943       L1    17  0.66
      P1  H  6934  6947       L1    17  0.09
      P1  H  7997  8009       L1    10  0.42

> <Gold.Chemscore.Hbond.Weighted>
-6.0670

> <Gold.Chemscore.Metal.Weighted>
-0.0000

> <Gold.Chemscore.Lipo.Weighted>
-10.2514

> <Gold.Chemscore.Internal_Hbond.Weighted>
0.0000

> <Gold.Chemscore.DEClash.Weighted>
0.4750

> <Gold.Chemscore.DEInternal.Weighted>
2.2612

> <Gold.Chemscore.Rot.Weighted>
5.5802

> <Gold.Chemscore.Internal.Correction.Weighted>
   9.000000E+99

> <Gold.Protein.RotatedTorsions>
[ 6907 6896 6895 6894 ] final  -56.92 input  -60.11 | X-H torsion
[ 7974 7965 7964 7962 ] final  -37.91 input  175.53 | X-H torsion
[ 8008 7997 7996 7995 ] final  157.93 input   59.86 | X-H torsion
[ 10167 10162 10161 10158 ] final  -10.09 input  -65.29 | X-H torsion
[ 10718 10713 10712 10709 ] final   95.18 input   66.30 | X-H torsion
[ 10763 10752 10751 10750 ] final  161.32 input  -60.55 | X-H torsion
[ 11005 11000 10999 10996 ] final -179.35 input  -57.11 | X-H torsion

> <Gold.Protein.ActiveResidues>
 VAL166  LYS551  ARG553  GLY616  TRP617  ASP618  TYR619  PRO620  LYS621  CYS622 
 ASP623  PHE694  ASN695  SER759  ASP760  ASP761  ALA762  ILE779  LEU786  VAL792 
 PHE793  MET794  SER795  GLU796  ALA797  LYS798  CYS799  TRP800  GLU811  SER814 

> <Gold.Protein.RotatedAtoms>
  150.8128  134.7293  159.6703 H   0  0  0  0  0  0  0  0  0  0  0  0  # atno 6907 bound_to 6896
  152.4248  134.5886  159.9977 H   0  0  0  0  0  0  0  0  0  0  0  0  # atno 6908 bound_to 6896
  151.6091  133.3312  159.3099 H   0  0  0  0  0  0  0  0  0  0  0  0  # atno 6909 bound_to 6896
  146.0533  140.6450  142.9031 H   0  0  0  0  0  0  0  0  0  0  0  0  # atno 7974 bound_to 7965
  156.2334  140.1872  156.7183 H   0  0  0  0  0  0  0  0  0  0  0  0  # atno 8008 bound_to 7997
  154.6063  140.0628  156.9462 H   0  0  0  0  0  0  0  0  0  0  0  0  # atno 8009 bound_to 7997
  155.2091  140.3298  155.4334 H   0  0  0  0  0  0  0  0  0  0  0  0  # atno 8010 bound_to 7997
  140.7105  143.5786  150.9016 H   0  0  0  0  0  0  0  0  0  0  0  0  # atno 10167 bound_to 10162
  157.6941  131.0537  150.4300 H   0  0  0  0  0  0  0  0  0  0  0  0  # atno 10718 bound_to 10713
  154.2611  135.2768  155.2777 H   0  0  0  0  0  0  0  0  0  0  0  0  # atno 10763 bound_to 10752
  154.5383  135.5710  153.6821 H   0  0  0  0  0  0  0  0  0  0  0  0  # atno 10764 bound_to 10752
  152.9962  135.6245  154.2761 H   0  0  0  0  0  0  0  0  0  0  0  0  # atno 10765 bound_to 10752
  140.4196  134.6618  157.4657 H   0  0  0  0  0  0  0  0  0  0  0  0  # atno 11005 bound_to 11000
  144.7134  140.4124  143.7063 LP  0  0  0  0  0  0  0  0  0  0  0  0  # atno 17320 bound_to 7965
  145.6686  139.1595  143.2767 LP  0  0  0  0  0  0  0  0  0  0  0  0  # atno 17321 bound_to 7965
  139.9512  143.6270  152.3028 LP  0  0  0  0  0  0  0  0  0  0  0  0  # atno 17342 bound_to 10162
  139.6789  144.7657  151.1644 LP  0  0  0  0  0  0  0  0  0  0  0  0  # atno 17343 bound_to 10162
  156.4667  130.4044  149.6543 LP  0  0  0  0  0  0  0  0  0  0  0  0  # atno 17370 bound_to 10713
  156.3638  130.7495  151.2470 LP  0  0  0  0  0  0  0  0  0  0  0  0  # atno 17371 bound_to 10713
  140.0210  134.6548  155.9240 LP  0  0  0  0  0  0  0  0  0  0  0  0  # atno 17394 bound_to 11000
  141.1789  133.6543  156.4940 LP  0  0  0  0  0  0  0  0  0  0  0  0  # atno 17395 bound_to 11000

$$$$
