AV-unprocessed.smi:230|AV-procd|sdf|1764|dock2
  -GOLD-   2262020293D 1   1.00000     0.00000
 Structure written by MMmdl.
 56 59  0  0  0  0  0  0  0  0  1 V2000
  153.5026  139.2832  159.5041 C   0  0  0  0  0  0  0  0  0  0  0  0
  152.1153  139.3989  158.8573 C   0  0  0  0  0  0  0  0  0  0  0  0
  151.4698  140.8051  158.9808 C   0  0  1  0  0  0  0  0  0  0  0  0
  152.1010  141.6032  160.1443 C   0  0  0  0  0  0  0  0  0  0  0  0
  151.5542  142.9171  160.2311 O   0  0  0  0  0  0  0  0  0  0  0  0
  151.6740  143.7088  159.0477 C   0  0  0  0  0  0  0  0  0  0  0  0
  150.8826  144.9948  159.3318 C   0  0  0  0  0  0  0  0  0  0  0  0
  153.1467  144.0691  158.7565 C   0  0  0  0  0  0  0  0  0  0  0  0
  151.0233  142.9401  157.8808 C   0  0  0  0  0  0  0  0  0  0  0  0
  151.5846  141.5986  157.7513 N   0  0  0  0  0  0  0  0  0  0  0  0
  151.1788  140.9800  156.6189 C   0  0  0  0  0  0  0  0  0  0  0  0
  152.0175  140.1360  155.9617 N   0  0  0  0  0  0  0  0  0  0  0  0
  151.6206  139.5542  154.8255 C   0  0  0  0  0  0  0  0  0  0  0  0
  150.4578  139.6845  154.1819 N   0  0  0  0  0  0  0  0  0  0  0  0
  149.6190  140.5360  154.8401 C   0  0  0  0  0  0  0  0  0  0  0  0
  149.8964  141.2146  156.0586 C   0  0  0  0  0  0  0  0  0  0  0  0
  148.8107  141.9962  156.4306 N   0  0  0  0  0  0  0  0  0  0  0  0
  147.9403  141.7979  155.4780 C   0  0  0  0  0  0  0  0  0  0  0  0
  148.3481  140.9451  154.4765 N   0  0  0  0  0  0  0  0  0  0  0  0
  147.5913  140.5673  153.2930 C   0  0  0  0  0  0  0  0  0  0  0  0
  147.2924  139.0500  153.2028 C   0  0  0  0  0  0  0  0  0  0  0  0
  148.5318  138.3759  153.0647 O   0  0  0  0  0  0  0  0  0  0  0  0
  146.5782  138.5065  154.4602 C   0  0  0  0  0  0  0  0  0  0  0  0
  146.1055  137.0533  154.2765 C   0  0  0  0  0  0  0  0  0  0  0  0
  145.2834  136.9467  153.1206 O   0  0  0  0  0  0  0  0  0  0  0  0
  145.9753  137.2735  151.9214 C   0  0  0  0  0  0  0  0  0  0  0  0
  146.4313  138.7429  151.9614 C   0  0  0  0  0  0  0  0  0  0  0  0
  153.8552  138.2521  159.4716 H   0  0  0  0  0  0  0  0  0  0  0  0
  153.4747  139.5894  160.5501 H   0  0  0  0  0  0  0  0  0  0  0  0
  154.2447  139.8937  158.9905 H   0  0  0  0  0  0  0  0  0  0  0  0
  152.1775  139.1110  157.8071 H   0  0  0  0  0  0  0  0  0  0  0  0
  151.4856  138.6505  159.3384 H   0  0  0  0  0  0  0  0  0  0  0  0
  150.4063  140.6789  159.1900 H   0  0  0  0  0  0  0  0  0  0  0  0
  151.9022  141.1116  161.0957 H   0  0  0  0  0  0  0  0  0  0  0  0
  153.1856  141.6481  160.0453 H   0  0  0  0  0  0  0  0  0  0  0  0
  150.8867  145.6629  158.4700 H   0  0  0  0  0  0  0  0  0  0  0  0
  151.3054  145.5400  160.1763 H   0  0  0  0  0  0  0  0  0  0  0  0
  149.8425  144.7731  159.5736 H   0  0  0  0  0  0  0  0  0  0  0  0
  153.2184  144.7608  157.9168 H   0  0  0  0  0  0  0  0  0  0  0  0
  153.7469  143.1972  158.4987 H   0  0  0  0  0  0  0  0  0  0  0  0
  153.6123  144.5477  159.6184 H   0  0  0  0  0  0  0  0  0  0  0  0
  149.9485  142.8602  158.0524 H   0  0  0  0  0  0  0  0  0  0  0  0
  151.1556  143.4922  156.9487 H   0  0  0  0  0  0  0  0  0  0  0  0
  152.3399  138.8948  154.3624 H   0  0  0  0  0  0  0  0  0  0  0  0
  146.9740  142.2811  155.4722 H   0  0  0  0  0  0  0  0  0  0  0  0
  146.6588  141.1330  153.2936 H   0  0  0  0  0  0  0  0  0  0  0  0
  148.1457  140.8987  152.4135 H   0  0  0  0  0  0  0  0  0  0  0  0
  148.3991  137.6123  152.5238 H   0  0  0  0  0  0  0  0  0  0  0  0
  147.2250  138.5715  155.3361 H   0  0  0  0  0  0  0  0  0  0  0  0
  145.7080  139.1285  154.6750 H   0  0  0  0  0  0  0  0  0  0  0  0
  146.9532  136.3707  154.1984 H   0  0  0  0  0  0  0  0  0  0  0  0
  145.5283  136.7388  155.1462 H   0  0  0  0  0  0  0  0  0  0  0  0
  146.8225  136.6003  151.7809 H   0  0  0  0  0  0  0  0  0  0  0  0
  145.3051  137.1155  151.0763 H   0  0  0  0  0  0  0  0  0  0  0  0
  145.5439  139.3773  151.9736 H   0  0  0  0  0  0  0  0  0  0  0  0
  146.9720  138.9930  151.0477 H   0  0  0  0  0  0  0  0  0  0  0  0
  1  2  1  0  0  0  0
  1 28  1  0  0  0  0
  1 29  1  0  0  0  0
  1 30  1  0  0  0  0
  2  3  1  0  0  0  0
  2 31  1  0  0  0  0
  2 32  1  0  0  0  0
  3 10  1  0  0  0  0
  3  4  1  0  0  0  0
  3 33  1  0  0  0  0
  4  5  1  0  0  0  0
  4 34  1  0  0  0  0
  4 35  1  0  0  0  0
  5  6  1  0  0  0  0
  6  7  1  0  0  0  0
  6  8  1  0  0  0  0
  6  9  1  0  0  0  0
  7 36  1  0  0  0  0
  7 37  1  0  0  0  0
  7 38  1  0  0  0  0
  8 39  1  0  0  0  0
  8 40  1  0  0  0  0
  8 41  1  0  0  0  0
  9 10  1  0  0  0  0
  9 42  1  0  0  0  0
  9 43  1  0  0  0  0
 10 11  1  0  0  0  0
 11 16  1  0  0  0  0
 11 12  2  0  0  0  0
 12 13  1  0  0  0  0
 13 14  2  0  0  0  0
 13 44  1  0  0  0  0
 14 15  1  0  0  0  0
 15 19  1  0  0  0  0
 15 16  2  0  0  0  0
 16 17  1  0  0  0  0
 17 18  2  0  0  0  0
 18 19  1  0  0  0  0
 18 45  1  0  0  0  0
 19 20  1  0  0  0  0
 20 21  1  0  0  0  0
 20 46  1  0  0  0  0
 20 47  1  0  0  0  0
 21 27  1  0  0  0  0
 21 22  1  0  0  0  0
 21 23  1  0  0  0  0
 22 48  1  0  0  0  0
 23 24  1  0  0  0  0
 23 49  1  0  0  0  0
 23 50  1  0  0  0  0
 24 25  1  0  0  0  0
 24 51  1  0  0  0  0
 24 52  1  0  0  0  0
 25 26  1  0  0  0  0
 26 27  1  0  0  0  0
 26 53  1  0  0  0  0
 26 54  1  0  0  0  0
 27 55  1  0  0  0  0
 27 56  1  0  0  0  0
M  END
> <s_m_source_file>
AV-unprocessed.smi

> <i_m_source_file_index>
230

> <i_lp_mmshare_version>
43012

> <i_f3d_flags>
0

> <s_epik_input>
W0NIM11DMShbQ0gzXSlPW0NIMl1bQ0BASF0oW0NIMl1bQ0gzXSlOKFtDSDJdMSljKG5bY0hdbjIpYyhjMjMpbltjSF1uM1tDSDJdQzQoW09IXSlbQ0gyXVtDSDJdT1tDSDJdW0NIMl00

> <s_epik_cmdline>
J2VwaWtfcHl0aG9uJywgJy1waCcsICc3LjAnLCAnLXRuJywgJzgnLCAnLW1hJywgJzIwMCcsICctbWV0YWxfYmluZGluZycsICctaW1hZScsICc8aW5maWxlLm1hZT4nLCAnLW9tYWUnLCAnPG91dGZpbGUubWFlPic=

> <r_lp_tautomer_probability>
1

> <r_epik_Ionization_Penalty>
0.000120535

> <r_epik_Ionization_Penalty_Charging>
0

> <r_epik_Ionization_Penalty_Neutral>
0.000120535

> <r_epik_State_Penalty>
-0

> <r_epik_Charging_Adjusted_Penalty>
0

> <i_epik_Tot_Q>
0

> <i_epik_Tot_abs_Q>
0

> <r_epik_Metal_State_Penalty>
-0

> <b_epik_Metal_Only>
0

> <s_lp_Force_Field>
OPLS_2005

> <r_lp_Energy>
34.4524

> <b_lp_Chiralities_Consistent>
1

> <s_lp_Variant>
AV-unprocessed.smi:230-2

> <Gold.Version>
5.8.1

> <Gold.Id.Protein>
6NUR|6NUR_protein|mol2

> <Gold.PLP.Fitness>
46.8327

> <Gold.PLP.PLP>
-45.2851

> <Gold.PLP.part.hbond>
-3.6401

> <Gold.PLP.part.metal>
0.0000

> <Gold.PLP.part.buried>
-0.1481

> <Gold.PLP.part.nonpolar>
-42.9486

> <Gold.PLP.part.repulsive>
2.1992

> <Gold.PLP.ligand.clash>
0.0010

> <Gold.PLP.ligand.torsion>
1.2501

> <Gold.PLP.Chemscore.Hbond>
1.2763

> <Gold.PLP.Chemscore.CHOScore>
0.0000

> <Gold.PLP.Chemscore.Metal>
0.0000

> <Gold.Chemscore.Hbonds>
donor molecule, donor type, donor heavy atom, donor atom, acceptor molecule, acceptor atom, score
      L1  H    22    48       P1  7948  0.99
      P1  H  7997  8009       L1    12  0.23

> <Gold.PLP.Chemscore.Internal.Correction>
0.2201

> <Gold.Rescore>
     Score         DG    S(hbond)    S(metal)    S(lipo)     H(rot)  DE(clash)    DE(int)     intcor
     12.90     -18.45       1.68        0.00     111.38       2.21       1.78       3.77       ----

> <Gold.Chemscore.Fitness>
12.9023

> <Gold.Chemscore.DG>
-18.4512

> <Gold.Chemscore.ZeroCoef>
-5.4800

> <Gold.Chemscore.Hbond>
1.6764

> <Gold.Chemscore.Metal>
0.0000

> <Gold.Chemscore.Lipo>
111.3808

> <Gold.Chemscore.Internal_Hbond>
0.0000

> <Gold.Chemscore.DEClash>
1.7814

> <Gold.Chemscore.DEInternal>
3.7675

> <Gold.Chemscore.Rot>
2.2107

> <Gold.Chemscore.Internal.Correction>
   9.000000E+99

> <Gold.Chemscore.Hbonds>
donor molecule, donor type, donor heavy atom, donor atom, acceptor molecule, acceptor atom, score
      L1  H    22    48       P1  7948  0.93
      P1  H  7997  8009       L1    12  0.19

> <Gold.Chemscore.Hbond.Weighted>
-5.5992

> <Gold.Chemscore.Metal.Weighted>
-0.0000

> <Gold.Chemscore.Lipo.Weighted>
-13.0316

> <Gold.Chemscore.Internal_Hbond.Weighted>
0.0000

> <Gold.Chemscore.DEClash.Weighted>
1.7814

> <Gold.Chemscore.DEInternal.Weighted>
3.7675

> <Gold.Chemscore.Rot.Weighted>
5.6595

> <Gold.Chemscore.Internal.Correction.Weighted>
   9.000000E+99

> <Gold.Protein.RotatedTorsions>
[ 6907 6896 6895 6894 ] final  166.48 input  -60.11 | X-H torsion
[ 7974 7965 7964 7962 ] final -173.31 input  175.53 | X-H torsion
[ 8008 7997 7996 7995 ] final -150.75 input   59.86 | X-H torsion
[ 10167 10162 10161 10158 ] final  150.72 input  -65.29 | X-H torsion
[ 10718 10713 10712 10709 ] final   36.42 input   66.30 | X-H torsion
[ 10763 10752 10751 10750 ] final  -39.04 input  -60.55 | X-H torsion
[ 11005 11000 10999 10996 ] final   60.09 input  -57.11 | X-H torsion

> <Gold.Protein.ActiveResidues>
 VAL166  LYS551  ARG553  GLY616  TRP617  ASP618  TYR619  PRO620  LYS621  CYS622 
 ASP623  PHE694  ASN695  SER759  ASP760  ASP761  ALA762  ILE779  LEU786  VAL792 
 PHE793  MET794  SER795  GLU796  ALA797  LYS798  CYS799  TRP800  GLU811  SER814 

> <Gold.Protein.RotatedAtoms>
  151.8782  133.3490  159.3757 H   0  0  0  0  0  0  0  0  0  0  0  0  # atno 6907 bound_to 6896
  150.7134  134.5045  159.5586 H   0  0  0  0  0  0  0  0  0  0  0  0  # atno 6908 bound_to 6896
  152.2591  134.8053  160.0484 H   0  0  0  0  0  0  0  0  0  0  0  0  # atno 6909 bound_to 6896
  144.7139  140.1641  143.6373 H   0  0  0  0  0  0  0  0  0  0  0  0  # atno 7974 bound_to 7965
  155.6285  140.0689  157.2656 H   0  0  0  0  0  0  0  0  0  0  0  0  # atno 8008 bound_to 7997
  154.4212  140.1772  156.1495 H   0  0  0  0  0  0  0  0  0  0  0  0  # atno 8009 bound_to 7997
  155.9952  140.3341  155.6795 H   0  0  0  0  0  0  0  0  0  0  0  0  # atno 8010 bound_to 7997
  139.4847  144.5499  151.7419 H   0  0  0  0  0  0  0  0  0  0  0  0  # atno 10167 bound_to 10162
  157.3346  130.7516  149.6870 H   0  0  0  0  0  0  0  0  0  0  0  0  # atno 10718 bound_to 10713
  153.9229  135.6780  153.4747 H   0  0  0  0  0  0  0  0  0  0  0  0  # atno 10763 bound_to 10752
  153.1019  135.4824  154.8880 H   0  0  0  0  0  0  0  0  0  0  0  0  # atno 10764 bound_to 10752
  154.7468  135.3174  154.8586 H   0  0  0  0  0  0  0  0  0  0  0  0  # atno 10765 bound_to 10752
  140.0257  134.6086  155.9576 H   0  0  0  0  0  0  0  0  0  0  0  0  # atno 11005 bound_to 11000
  145.9003  139.2426  143.1497 LP  0  0  0  0  0  0  0  0  0  0  0  0  # atno 17320 bound_to 7965
  145.9817  140.8677  143.0111 LP  0  0  0  0  0  0  0  0  0  0  0  0  # atno 17321 bound_to 7965
  140.5051  144.1110  150.5980 LP  0  0  0  0  0  0  0  0  0  0  0  0  # atno 17342 bound_to 10162
  140.4016  143.2701  151.9940 LP  0  0  0  0  0  0  0  0  0  0  0  0  # atno 17343 bound_to 10162
  155.9700  130.4185  150.4331 LP  0  0  0  0  0  0  0  0  0  0  0  0  # atno 17370 bound_to 10713
  157.2369  131.0516  151.2459 LP  0  0  0  0  0  0  0  0  0  0  0  0  # atno 17371 bound_to 10713
  141.1801  133.6545  156.4985 LP  0  0  0  0  0  0  0  0  0  0  0  0  # atno 17394 bound_to 11000
  140.4311  134.7101  157.4942 LP  0  0  0  0  0  0  0  0  0  0  0  0  # atno 17395 bound_to 11000

$$$$
