AV-unprocessed.smi:1858|AV-procd|sdf|7542|dock4
  -GOLD-   22720 9253D 1   1.00000     0.00000
 Structure written by MMmdl.
 48 49  0  0  0  0  0  0  0  0  1 V2000
  155.3814  138.4122  161.8652 C   0  0  0  0  0  0  0  0  0  0  0  0
  154.6376  139.6505  161.6952 N   0  0  0  0  0  0  0  0  0  0  0  0
  154.4529  140.2775  160.5199 C   0  0  0  0  0  0  0  0  0  0  0  0
  154.9021  139.8228  159.4672 O   0  0  0  0  0  0  0  0  0  0  0  0
  153.7002  141.5311  160.6208 C   0  0  0  0  0  0  0  0  0  0  0  0
  153.5117  142.1477  161.9193 C   0  0  0  0  0  0  0  0  0  0  0  0
  152.7821  143.2737  162.0483 C   0  0  0  0  0  0  0  0  0  0  0  0
  152.1523  143.9222  160.8937 C   0  0  0  0  0  0  0  0  0  0  0  0
  151.4604  144.9336  161.0106 O   0  0  0  0  0  0  0  0  0  0  0  0
  152.3819  143.3291  159.6835 N   0  0  0  0  0  0  0  0  0  0  0  0
  151.7847  143.8486  158.4439 C   0  0  0  0  0  0  0  0  0  0  0  0
  150.4860  143.1038  158.1217 C   0  0  0  0  0  0  0  0  0  0  0  0
  149.5662  143.0751  158.9385 O   0  0  0  0  0  0  0  0  0  0  0  0
  150.4443  142.4902  156.9293 N   0  0  0  0  0  0  0  0  0  0  0  0
  149.3845  141.6092  156.4466 C   0  0  0  0  0  0  0  0  0  0  0  0
  149.6062  140.1526  156.9272 C   0  0  0  0  0  0  0  0  0  0  0  0
  150.9421  139.4788  156.5550 C   0  0  0  0  0  0  0  0  0  0  0  0
  151.2104  139.2604  155.0549 C   0  0  0  0  0  0  0  0  0  0  0  0
  150.0272  138.6731  154.2587 C   0  0  0  0  0  0  0  0  0  0  0  0
  149.2428  139.6956  153.4103 C   0  0  0  0  0  0  0  0  0  0  0  0
  148.4074  140.7460  154.1725 C   0  0  0  0  0  0  0  0  0  0  0  0
  149.2433  141.8045  154.9197 C   0  0  0  0  0  0  0  0  0  0  0  0
  153.1441  142.1505  159.5577 C   0  0  0  0  0  0  0  0  0  0  0  0
  155.3967  138.1311  162.9183 H   0  0  0  0  0  0  0  0  0  0  0  0
  156.4124  138.5298  161.5300 H   0  0  0  0  0  0  0  0  0  0  0  0
  154.9202  137.6007  161.3011 H   0  0  0  0  0  0  0  0  0  0  0  0
  154.2501  140.0722  162.5267 H   0  0  0  0  0  0  0  0  0  0  0  0
  153.9549  141.7093  162.8020 H   0  0  0  0  0  0  0  0  0  0  0  0
  152.6561  143.7107  163.0280 H   0  0  0  0  0  0  0  0  0  0  0  0
  151.5731  144.9174  158.5017 H   0  0  0  0  0  0  0  0  0  0  0  0
  152.4945  143.7421  157.6214 H   0  0  0  0  0  0  0  0  0  0  0  0
  151.2470  142.5928  156.3260 H   0  0  0  0  0  0  0  0  0  0  0  0
  148.4450  141.9437  156.8904 H   0  0  0  0  0  0  0  0  0  0  0  0
  149.5387  140.1452  158.0156 H   0  0  0  0  0  0  0  0  0  0  0  0
  148.7739  139.5234  156.6174 H   0  0  0  0  0  0  0  0  0  0  0  0
  151.7720  140.0348  156.9897 H   0  0  0  0  0  0  0  0  0  0  0  0
  150.9634  138.5045  157.0444 H   0  0  0  0  0  0  0  0  0  0  0  0
  151.5706  140.1765  154.5899 H   0  0  0  0  0  0  0  0  0  0  0  0
  152.0518  138.5707  154.9782 H   0  0  0  0  0  0  0  0  0  0  0  0
  150.4344  137.9352  153.5665 H   0  0  0  0  0  0  0  0  0  0  0  0
  149.3565  138.1077  154.9061 H   0  0  0  0  0  0  0  0  0  0  0  0
  149.9276  140.2012  152.7281 H   0  0  0  0  0  0  0  0  0  0  0  0
  148.5614  139.1358  152.7689 H   0  0  0  0  0  0  0  0  0  0  0  0
  147.8109  141.2718  153.4260 H   0  0  0  0  0  0  0  0  0  0  0  0
  147.6761  140.2732  154.8275 H   0  0  0  0  0  0  0  0  0  0  0  0
  148.7710  142.7758  154.7660 H   0  0  0  0  0  0  0  0  0  0  0  0
  150.2186  141.9060  154.4450 H   0  0  0  0  0  0  0  0  0  0  0  0
  153.2122  141.7884  158.5416 H   0  0  0  0  0  0  0  0  0  0  0  0
  1  2  1  0  0  0  0
  1 24  1  0  0  0  0
  1 25  1  0  0  0  0
  1 26  1  0  0  0  0
  2  3  1  0  0  0  0
  2 27  1  0  0  0  0
  3  4  2  0  0  0  0
  3  5  1  0  0  0  0
  5 23  2  0  0  0  0
  5  6  1  0  0  0  0
  6  7  2  0  0  0  0
  6 28  1  0  0  0  0
  7  8  1  0  0  0  0
  7 29  1  0  0  0  0
  8  9  2  0  0  0  0
  8 10  1  0  0  0  0
 10 11  1  0  0  0  0
 10 23  1  0  0  0  0
 11 12  1  0  0  0  0
 11 30  1  0  0  0  0
 11 31  1  0  0  0  0
 12 13  2  0  0  0  0
 12 14  1  0  0  0  0
 14 15  1  0  0  0  0
 14 32  1  0  0  0  0
 15 22  1  0  0  0  0
 15 16  1  0  0  0  0
 15 33  1  0  0  0  0
 16 17  1  0  0  0  0
 16 34  1  0  0  0  0
 16 35  1  0  0  0  0
 17 18  1  0  0  0  0
 17 36  1  0  0  0  0
 17 37  1  0  0  0  0
 18 19  1  0  0  0  0
 18 38  1  0  0  0  0
 18 39  1  0  0  0  0
 19 20  1  0  0  0  0
 19 40  1  0  0  0  0
 19 41  1  0  0  0  0
 20 21  1  0  0  0  0
 20 42  1  0  0  0  0
 20 43  1  0  0  0  0
 21 22  1  0  0  0  0
 21 44  1  0  0  0  0
 21 45  1  0  0  0  0
 22 46  1  0  0  0  0
 22 47  1  0  0  0  0
 23 48  1  0  0  0  0
M  END
> <s_m_source_file>
AV-unprocessed.smi

> <i_m_source_file_index>
1858

> <i_lp_mmshare_version>
43012

> <i_f3d_flags>
0

> <s_epik_input>
W0NIM11bTkhdQyg9TyljMVtjSF1bY0hdYyg9TyluKFtjSF0xKVtDSDJdQyg9TylbTkhdW0NIXTJbQ0gyXVtDSDJdW0NIMl1bQ0gyXVtDSDJdW0NIMl1bQ0gyXTI=

> <s_epik_cmdline>
J2VwaWtfcHl0aG9uJywgJy1waCcsICc3LjAnLCAnLXRuJywgJzgnLCAnLW1hJywgJzIwMCcsICctbWV0YWxfYmluZGluZycsICctaW1hZScsICc8aW5maWxlLm1hZT4nLCAnLW9tYWUnLCAnPG91dGZpbGUubWFlPic=

> <r_lp_tautomer_probability>
1

> <r_epik_Ionization_Penalty>
3.70383e-07

> <r_epik_Ionization_Penalty_Charging>
5.00098e-08

> <r_epik_Ionization_Penalty_Neutral>
3.20374e-07

> <r_epik_State_Penalty>
-0

> <r_epik_Charging_Adjusted_Penalty>
5.00098e-08

> <i_epik_Tot_Q>
0

> <i_epik_Tot_abs_Q>
0

> <r_epik_Metal_State_Penalty>
-0

> <b_epik_Metal_Only>
0

> <s_lp_Force_Field>
OPLS_2005

> <r_lp_Energy>
33.6896

> <b_lp_Chiralities_Consistent>
1

> <s_lp_Variant>
AV-unprocessed.smi:1858-1

> <Gold.Version>
5.8.1

> <Gold.Id.Protein>
6NUR|6NUR_protein|mol2

> <Gold.PLP.Fitness>
48.1479

> <Gold.PLP.PLP>
-46.7454

> <Gold.PLP.part.hbond>
-2.4650

> <Gold.PLP.part.metal>
0.0000

> <Gold.PLP.part.buried>
1.2862

> <Gold.PLP.part.nonpolar>
-46.1964

> <Gold.PLP.part.repulsive>
1.5360

> <Gold.PLP.ligand.clash>
0.0541

> <Gold.PLP.ligand.torsion>
0.8030

> <Gold.PLP.Chemscore.Hbond>
1.0000

> <Gold.PLP.Chemscore.CHOScore>
0.0000

> <Gold.PLP.Chemscore.Metal>
0.0000

> <Gold.Chemscore.Hbonds>
donor molecule, donor type, donor heavy atom, donor atom, acceptor molecule, acceptor atom, score
      P1  H  7997  8010       L1     4  0.73

> <Gold.PLP.Chemscore.Internal.Correction>
0.0626

> <Gold.Rescore>
     Score         DG    S(hbond)    S(metal)    S(lipo)     H(rot)  DE(clash)    DE(int)     intcor
     15.38     -17.76       0.99        0.00     109.10       1.48       1.69       0.68       ----

> <Gold.Chemscore.Fitness>
15.3821

> <Gold.Chemscore.DG>
-17.7561

> <Gold.Chemscore.ZeroCoef>
-5.4800

> <Gold.Chemscore.Hbond>
0.9890

> <Gold.Chemscore.Metal>
0.0000

> <Gold.Chemscore.Lipo>
109.0999

> <Gold.Chemscore.Internal_Hbond>
0.0000

> <Gold.Chemscore.DEClash>
1.6906

> <Gold.Chemscore.DEInternal>
0.6834

> <Gold.Chemscore.Rot>
1.4812

> <Gold.Chemscore.Internal.Correction>
   9.000000E+99

> <Gold.Chemscore.Hbonds>
donor molecule, donor type, donor heavy atom, donor atom, acceptor molecule, acceptor atom, score
      P1  H  7997  8010       L1     4  0.72

> <Gold.Chemscore.Hbond.Weighted>
-3.3033

> <Gold.Chemscore.Metal.Weighted>
-0.0000

> <Gold.Chemscore.Lipo.Weighted>
-12.7647

> <Gold.Chemscore.Internal_Hbond.Weighted>
0.0000

> <Gold.Chemscore.DEClash.Weighted>
1.6906

> <Gold.Chemscore.DEInternal.Weighted>
0.6834

> <Gold.Chemscore.Rot.Weighted>
3.7920

> <Gold.Chemscore.Internal.Correction.Weighted>
   9.000000E+99

> <Gold.Protein.RotatedTorsions>
[ 6907 6896 6895 6894 ] final -144.45 input  -60.11 | X-H torsion
[ 7974 7965 7964 7962 ] final  126.61 input  175.53 | X-H torsion
[ 8008 7997 7996 7995 ] final   -7.04 input   59.86 | X-H torsion
[ 10167 10162 10161 10158 ] final  -36.94 input  -65.29 | X-H torsion
[ 10718 10713 10712 10709 ] final -150.24 input   66.30 | X-H torsion
[ 10763 10752 10751 10750 ] final   92.00 input  -60.55 | X-H torsion
[ 11005 11000 10999 10996 ] final  -50.06 input  -57.11 | X-H torsion

> <Gold.Protein.ActiveResidues>
 VAL166  LYS551  ARG553  GLY616  TRP617  ASP618  TYR619  PRO620  LYS621  CYS622 
 ASP623  PHE694  ASN695  SER759  ASP760  ASP761  ALA762  ILE779  LEU786  VAL792 
 PHE793  MET794  SER795  GLU796  ALA797  LYS798  CYS799  TRP800  GLU811  SER814 

> <Gold.Protein.RotatedAtoms>
  151.1142  133.5151  159.2604 H   0  0  0  0  0  0  0  0  0  0  0  0  # atno 6907 bound_to 6896
  151.1933  135.0411  159.8851 H   0  0  0  0  0  0  0  0  0  0  0  0  # atno 6908 bound_to 6896
  152.5452  134.0980  159.8359 H   0  0  0  0  0  0  0  0  0  0  0  0  # atno 6909 bound_to 6896
  145.0598  139.3814  143.5011 H   0  0  0  0  0  0  0  0  0  0  0  0  # atno 7974 bound_to 7965
  154.5878  140.2417  155.7963 H   0  0  0  0  0  0  0  0  0  0  0  0  # atno 8008 bound_to 7997
  156.2225  140.2993  155.9942 H   0  0  0  0  0  0  0  0  0  0  0  0  # atno 8009 bound_to 7997
  155.2428  140.0407  157.2967 H   0  0  0  0  0  0  0  0  0  0  0  0  # atno 8010 bound_to 7997
  140.7130  143.3375  151.2431 H   0  0  0  0  0  0  0  0  0  0  0  0  # atno 10167 bound_to 10162
  156.4436  130.8134  151.2364 H   0  0  0  0  0  0  0  0  0  0  0  0  # atno 10718 bound_to 10713
  153.2144  135.4377  155.0417 H   0  0  0  0  0  0  0  0  0  0  0  0  # atno 10763 bound_to 10752
  154.8217  135.3341  154.7021 H   0  0  0  0  0  0  0  0  0  0  0  0  # atno 10764 bound_to 10752
  153.7456  135.7002  153.5013 H   0  0  0  0  0  0  0  0  0  0  0  0  # atno 10765 bound_to 10752
  141.0795  133.6657  156.3676 H   0  0  0  0  0  0  0  0  0  0  0  0  # atno 11005 bound_to 11000
  146.3523  140.0291  142.8652 LP  0  0  0  0  0  0  0  0  0  0  0  0  # atno 17320 bound_to 7965
  145.1423  140.9578  143.4481 LP  0  0  0  0  0  0  0  0  0  0  0  0  # atno 17321 bound_to 7965
  139.6873  143.9751  152.2841 LP  0  0  0  0  0  0  0  0  0  0  0  0  # atno 17342 bound_to 10162
  139.9401  144.6687  150.8275 LP  0  0  0  0  0  0  0  0  0  0  0  0  # atno 17343 bound_to 10162
  157.7505  131.0160  150.3528 LP  0  0  0  0  0  0  0  0  0  0  0  0  # atno 17370 bound_to 10713
  156.3891  130.3894  149.7043 LP  0  0  0  0  0  0  0  0  0  0  0  0  # atno 17371 bound_to 10713
  140.5501  134.6036  157.5405 LP  0  0  0  0  0  0  0  0  0  0  0  0  # atno 17394 bound_to 11000
  139.9608  134.7456  156.0242 LP  0  0  0  0  0  0  0  0  0  0  0  0  # atno 17395 bound_to 11000

$$$$
