AV-unprocessed.smi:1047|AV-procd|sdf|4572|dock1
  -GOLD-   22720 3 23D 1   1.00000     0.00000
 Structure written by MMmdl.
 56 58  0  0  0  0  0  0  0  0  2 V2000
  150.5365  132.3000  155.3107 C   0  0  0  0  0  0  0  0  0  0  0  0
  151.3909  133.4090  155.9411 C   0  0  0  0  0  0  0  0  0  0  0  0
  150.7516  134.0083  157.1391 N   0  3  1  0  0  0  0  0  0  0  0  0
  150.5449  133.0186  158.2226 C   0  0  0  0  0  0  0  0  0  0  0  0
  149.8363  133.6724  159.4198 C   0  0  0  0  0  0  0  0  0  0  0  0
  150.5940  134.7891  159.8664 O   0  0  0  0  0  0  0  0  0  0  0  0
  150.7122  135.7965  158.8668 C   0  0  1  0  0  0  0  0  0  0  0  0
  151.4641  136.9869  159.4803 C   0  0  0  0  0  0  0  0  0  0  0  0
  152.8779  136.6742  159.6524 N   0  0  0  0  0  0  0  0  0  0  0  0
  153.6177  137.6896  160.3987 C   0  0  0  0  0  0  0  0  0  0  0  0
  153.9052  138.9365  159.5426 C   0  0  2  0  0  0  0  0  0  0  0  0
  154.3203  138.5324  158.2519 O   0  0  0  0  0  0  0  0  0  0  0  0
  154.9130  139.9144  160.1814 C   0  0  0  0  0  0  0  0  0  0  0  0
  154.2590  140.9698  160.9334 N   0  0  0  0  0  0  0  0  0  0  0  0
  154.4586  141.2877  162.2266 C   0  0  0  0  0  0  0  0  0  0  0  0
  153.7470  142.2961  162.7221 N   0  0  0  0  0  0  0  0  0  0  0  0
  153.0017  142.6798  161.6202 C   0  0  0  0  0  0  0  0  0  0  0  0
  152.0413  143.7046  161.4745 C   0  0  0  0  0  0  0  0  0  0  0  0
  151.3950  143.9217  160.2366 C   0  0  0  0  0  0  0  0  0  0  0  0
  150.3710  145.0372  160.1241 C   0  0  0  0  0  0  0  0  0  0  0  0
  151.7063  143.1054  159.1197 C   0  0  0  0  0  0  0  0  0  0  0  0
  151.0278  143.3230  157.7787 C   0  0  0  0  0  0  0  0  0  0  0  0
  152.6606  142.0748  159.2490 C   0  0  0  0  0  0  0  0  0  0  0  0
  153.2986  141.8702  160.4852 C   0  0  0  0  0  0  0  0  0  0  0  0
  151.4643  135.2015  157.6601 C   0  0  0  0  0  0  0  0  0  0  0  0
  151.0733  131.8243  154.4897 H   0  0  0  0  0  0  0  0  0  0  0  0
  149.6013  132.6835  154.9043 H   0  0  0  0  0  0  0  0  0  0  0  0
  150.2961  131.5253  156.0394 H   0  0  0  0  0  0  0  0  0  0  0  0
  152.3460  132.9690  156.2312 H   0  0  0  0  0  0  0  0  0  0  0  0
  151.6176  134.1846  155.2082 H   0  0  0  0  0  0  0  0  0  0  0  0
  149.9471  132.1833  157.8556 H   0  0  0  0  0  0  0  0  0  0  0  0
  151.5081  132.6120  158.5352 H   0  0  0  0  0  0  0  0  0  0  0  0
  148.8250  133.9843  159.1538 H   0  0  0  0  0  0  0  0  0  0  0  0
  149.7443  132.9579  160.2379 H   0  0  0  0  0  0  0  0  0  0  0  0
  149.7197  136.1216  158.5472 H   0  0  0  0  0  0  0  0  0  0  0  0
  151.3390  137.8691  158.8512 H   0  0  0  0  0  0  0  0  0  0  0  0
  151.0310  137.2306  160.4513 H   0  0  0  0  0  0  0  0  0  0  0  0
  153.3127  136.5461  158.7436 H   0  0  0  0  0  0  0  0  0  0  0  0
  153.0597  137.9819  161.2893 H   0  0  0  0  0  0  0  0  0  0  0  0
  154.5612  137.2704  160.7502 H   0  0  0  0  0  0  0  0  0  0  0  0
  152.9608  139.4653  159.4067 H   0  0  0  0  0  0  0  0  0  0  0  0
  155.0691  137.9628  158.3432 H   0  0  0  0  0  0  0  0  0  0  0  0
  155.5818  139.3769  160.8548 H   0  0  0  0  0  0  0  0  0  0  0  0
  155.5436  140.3764  159.4214 H   0  0  0  0  0  0  0  0  0  0  0  0
  155.1646  140.7466  162.8398 H   0  0  0  0  0  0  0  0  0  0  0  0
  151.8049  144.3265  162.3254 H   0  0  0  0  0  0  0  0  0  0  0  0
  150.7055  145.7903  159.4105 H   0  0  0  0  0  0  0  0  0  0  0  0
  150.2133  145.5313  161.0831 H   0  0  0  0  0  0  0  0  0  0  0  0
  149.4108  144.6444  159.7894 H   0  0  0  0  0  0  0  0  0  0  0  0
  151.4062  142.6324  157.0246 H   0  0  0  0  0  0  0  0  0  0  0  0
  151.2048  144.3374  157.4209 H   0  0  0  0  0  0  0  0  0  0  0  0
  149.9522  143.1681  157.8654 H   0  0  0  0  0  0  0  0  0  0  0  0
  152.9044  141.4433  158.4074 H   0  0  0  0  0  0  0  0  0  0  0  0
  152.4798  134.9244  157.9485 H   0  0  0  0  0  0  0  0  0  0  0  0
  151.5486  135.9587  156.8813 H   0  0  0  0  0  0  0  0  0  0  0  0
  149.8316  134.3135  156.8549 H   0  0  0  0  0  0  0  0  0  0  0  0
  1  2  1  0  0  0  0
  1 26  1  0  0  0  0
  1 27  1  0  0  0  0
  1 28  1  0  0  0  0
  2  3  1  0  0  0  0
  2 29  1  0  0  0  0
  2 30  1  0  0  0  0
  3 25  1  0  0  0  0
  3  4  1  0  0  0  0
  3 56  1  0  0  0  0
  4  5  1  0  0  0  0
  4 31  1  0  0  0  0
  4 32  1  0  0  0  0
  5  6  1  0  0  0  0
  5 33  1  0  0  0  0
  5 34  1  0  0  0  0
  6  7  1  0  0  0  0
  7  8  1  0  0  0  0
  7 25  1  0  0  0  0
  7 35  1  0  0  0  0
  8  9  1  0  0  0  0
  8 36  1  0  0  0  0
  8 37  1  0  0  0  0
  9 10  1  0  0  0  0
  9 38  1  0  0  0  0
 10 11  1  0  0  0  0
 10 39  1  0  0  0  0
 10 40  1  0  0  0  0
 11 12  1  0  0  0  0
 11 13  1  0  0  0  0
 11 41  1  0  0  0  0
 12 42  1  0  0  0  0
 13 14  1  0  0  0  0
 13 43  1  0  0  0  0
 13 44  1  0  0  0  0
 14 24  1  0  0  0  0
 14 15  1  0  0  0  0
 15 16  2  0  0  0  0
 15 45  1  0  0  0  0
 16 17  1  0  0  0  0
 17 24  2  0  0  0  0
 17 18  1  0  0  0  0
 18 19  2  0  0  0  0
 18 46  1  0  0  0  0
 19 20  1  0  0  0  0
 19 21  1  0  0  0  0
 20 47  1  0  0  0  0
 20 48  1  0  0  0  0
 20 49  1  0  0  0  0
 21 22  1  0  0  0  0
 21 23  2  0  0  0  0
 22 50  1  0  0  0  0
 22 51  1  0  0  0  0
 22 52  1  0  0  0  0
 23 24  1  0  0  0  0
 23 53  1  0  0  0  0
 25 54  1  0  0  0  0
 25 55  1  0  0  0  0
M  CHG  1   3   1
M  END
> <s_m_source_file>
AV-unprocessed.smi

> <i_m_source_file_index>
1047

> <i_lp_mmshare_version>
43012

> <i_f3d_flags>
0

> <s_epik_input>
W0NIM11bQ0gyXU4xW0NIMl1bQ0gyXU9bQ0BIXShbQ0gyXTEpW0NIMl1bTkhdW0NIMl1bQ0BIXShbT0hdKVtDSDJdbihbY0hdbjIpYyhjMjMpW2NIXWMoW0NIM10pYyhbY0hdMylbQ0gzXQ==

> <s_epik_cmdline>
J2VwaWtfcHl0aG9uJywgJy1waCcsICc3LjAnLCAnLXRuJywgJzgnLCAnLW1hJywgJzIwMCcsICctbWV0YWxfYmluZGluZycsICctaW1hZScsICc8aW5maWxlLm1hZT4nLCAnLW9tYWUnLCAnPG91dGZpbGUubWFlPic=

> <r_epik_Ionization_Penalty>
1.19246

> <r_epik_Ionization_Penalty_Charging>
0.210041

> <r_epik_Ionization_Penalty_Neutral>
0.982415

> <r_epik_State_Penalty>
1.57595

> <r_epik_Charging_Adjusted_Penalty>
1.78599

> <i_epik_Tot_Q>
1

> <i_epik_Tot_abs_Q>
1

> <r_epik_Metal_State_Penalty>
1.46172

> <b_epik_Metal_Only>
0

> <s_lp_Force_Field>
OPLS_2005

> <r_lp_Energy>
30.4626

> <b_lp_Chiralities_Consistent>
1

> <s_lp_Variant>
AV-unprocessed.smi:1047-13

> <Gold.Version>
5.8.1

> <Gold.Id.Protein>
6NUR|6NUR_protein|mol2

> <Gold.PLP.Fitness>
59.6662

> <Gold.PLP.PLP>
-53.5908

> <Gold.PLP.part.hbond>
-3.2501

> <Gold.PLP.part.metal>
0.0000

> <Gold.PLP.part.buried>
-7.0426

> <Gold.PLP.part.nonpolar>
-44.0186

> <Gold.PLP.part.repulsive>
0.0932

> <Gold.PLP.ligand.clash>
0.0000

> <Gold.PLP.ligand.torsion>
0.7933

> <Gold.PLP.Chemscore.Hbond>
2.4010

> <Gold.PLP.Chemscore.CHOScore>
0.0000

> <Gold.PLP.Chemscore.Metal>
0.0000

> <Gold.Chemscore.Hbonds>
donor molecule, donor type, donor heavy atom, donor atom, acceptor molecule, acceptor atom, score
      P1  H  7997  8008       L1    12  1.00

> <Gold.PLP.Chemscore.Internal.Correction>
0.4590

> <Gold.Rescore>
     Score         DG    S(hbond)    S(metal)    S(lipo)     H(rot)  DE(clash)    DE(int)     intcor
     17.61     -18.59       1.05        0.00     139.39       2.62       0.06       0.92       ----

> <Gold.Chemscore.Fitness>
17.6106

> <Gold.Chemscore.DG>
-18.5937

> <Gold.Chemscore.ZeroCoef>
-5.4800

> <Gold.Chemscore.Hbond>
1.0523

> <Gold.Chemscore.Metal>
0.0000

> <Gold.Chemscore.Lipo>
139.3897

> <Gold.Chemscore.Internal_Hbond>
0.0000

> <Gold.Chemscore.DEClash>
0.0588

> <Gold.Chemscore.DEInternal>
0.9242

> <Gold.Chemscore.Rot>
2.6209

> <Gold.Chemscore.Internal.Correction>
   9.000000E+99

> <Gold.Chemscore.Hbonds>
donor molecule, donor type, donor heavy atom, donor atom, acceptor molecule, acceptor atom, score
      P1  H  7997  8008       L1    12  0.49

> <Gold.Chemscore.Hbond.Weighted>
-3.5147

> <Gold.Chemscore.Metal.Weighted>
-0.0000

> <Gold.Chemscore.Lipo.Weighted>
-16.3086

> <Gold.Chemscore.Internal_Hbond.Weighted>
0.0000

> <Gold.Chemscore.DEClash.Weighted>
0.0588

> <Gold.Chemscore.DEInternal.Weighted>
0.9242

> <Gold.Chemscore.Rot.Weighted>
6.7096

> <Gold.Chemscore.Internal.Correction.Weighted>
   9.000000E+99

> <Gold.Protein.RotatedTorsions>
[ 6907 6896 6895 6894 ] final   34.37 input  -60.11 | X-H torsion
[ 7974 7965 7964 7962 ] final -116.67 input  175.53 | X-H torsion
[ 8008 7997 7996 7995 ] final -103.97 input   59.86 | X-H torsion
[ 10167 10162 10161 10158 ] final  -87.48 input  -65.29 | X-H torsion
[ 10718 10713 10712 10709 ] final  -99.53 input   66.30 | X-H torsion
[ 10763 10752 10751 10750 ] final   44.30 input  -60.55 | X-H torsion
[ 11005 11000 10999 10996 ] final  139.49 input  -57.11 | X-H torsion

> <Gold.Protein.ActiveResidues>
 VAL166  LYS551  ARG553  GLY616  TRP617  ASP618  TYR619  PRO620  LYS621  CYS622 
 ASP623  PHE694  ASN695  SER759  ASP760  ASP761  ALA762  ILE779  LEU786  VAL792 
 PHE793  MET794  SER795  GLU796  ALA797  LYS798  CYS799  TRP800  GLU811  SER814 

> <Gold.Protein.RotatedAtoms>
  152.1015  134.9338  160.0569 H   0  0  0  0  0  0  0  0  0  0  0  0  # atno 6907 bound_to 6896
  152.0551  133.4031  159.4402 H   0  0  0  0  0  0  0  0  0  0  0  0  # atno 6908 bound_to 6896
  150.6839  134.3184  159.4820 H   0  0  0  0  0  0  0  0  0  0  0  0  # atno 6909 bound_to 6896
  145.0941  140.8509  143.3965 H   0  0  0  0  0  0  0  0  0  0  0  0  # atno 7974 bound_to 7965
  154.8786  140.0420  157.1768 H   0  0  0  0  0  0  0  0  0  0  0  0  # atno 8008 bound_to 7997
  154.8663  140.2951  155.5487 H   0  0  0  0  0  0  0  0  0  0  0  0  # atno 8009 bound_to 7997
  156.2999  140.2437  156.3645 H   0  0  0  0  0  0  0  0  0  0  0  0  # atno 8010 bound_to 7997
  140.3840  143.2735  151.9348 H   0  0  0  0  0  0  0  0  0  0  0  0  # atno 10167 bound_to 10162
  156.0137  130.5287  150.6684 H   0  0  0  0  0  0  0  0  0  0  0  0  # atno 10718 bound_to 10713
  152.9844  135.6075  154.3252 H   0  0  0  0  0  0  0  0  0  0  0  0  # atno 10763 bound_to 10752
  154.2959  135.2774  155.2635 H   0  0  0  0  0  0  0  0  0  0  0  0  # atno 10764 bound_to 10752
  154.4910  135.5892  153.6515 H   0  0  0  0  0  0  0  0  0  0  0  0  # atno 10765 bound_to 10752
  140.0258  134.9375  157.0566 H   0  0  0  0  0  0  0  0  0  0  0  0  # atno 11005 bound_to 11000
  145.1032  139.2808  143.5675 LP  0  0  0  0  0  0  0  0  0  0  0  0  # atno 17320 bound_to 7965
  146.3531  140.0605  142.8629 LP  0  0  0  0  0  0  0  0  0  0  0  0  # atno 17321 bound_to 7965
  139.4793  144.5791  151.7962 LP  0  0  0  0  0  0  0  0  0  0  0  0  # atno 17342 bound_to 10162
  140.4908  144.1312  150.5950 LP  0  0  0  0  0  0  0  0  0  0  0  0  # atno 17343 bound_to 10162
  157.4412  131.0861  151.0942 LP  0  0  0  0  0  0  0  0  0  0  0  0  # atno 17370 bound_to 10713
  157.1485  130.6174  149.5575 LP  0  0  0  0  0  0  0  0  0  0  0  0  # atno 17371 bound_to 10713
  140.4309  134.1782  155.7168 LP  0  0  0  0  0  0  0  0  0  0  0  0  # atno 17394 bound_to 11000
  141.1802  133.8430  157.1285 LP  0  0  0  0  0  0  0  0  0  0  0  0  # atno 17395 bound_to 11000

$$$$
