AV-unprocessed.smi:287|AV-procd|sdf|2208|dock10
  -GOLD-   2262022 43D 1   1.00000     0.00000
 Structure written by MMmdl.
 55 58  0  0  0  0  0  0  0  0  1 V2000
  151.2636  141.9954  157.0973 C   0  0  0  0  0  0  0  0  0  0  0  0
  149.8477  141.7775  156.6863 C   0  0  0  0  0  0  0  0  0  0  0  0
  149.2479  141.4213  155.5136 C   0  0  0  0  0  0  0  0  0  0  0  0
  147.8409  141.3823  155.7485 C   0  0  0  0  0  0  0  0  0  0  0  0
  146.7638  141.0243  154.7320 C   0  0  2  0  0  0  0  0  0  0  0  0
  147.3777  140.8234  153.3342 C   0  0  0  0  0  0  0  0  0  0  0  0
  145.8157  142.0598  154.5589 O   0  0  0  0  0  0  0  0  0  0  0  0
  145.9687  139.7650  155.1434 C   0  0  0  0  0  0  0  0  0  0  0  0
  145.2895  139.1268  154.0234 N   0  0  0  0  0  0  0  0  0  0  0  0
  145.1151  137.7891  153.9861 C   0  0  0  0  0  0  0  0  0  0  0  0
  144.8199  137.2083  155.1733 N   0  0  0  0  0  0  0  0  0  0  0  0
  144.6229  135.8894  155.2453 C   0  0  0  0  0  0  0  0  0  0  0  0
  144.6721  134.9850  154.2665 N   0  0  0  0  0  0  0  0  0  0  0  0
  144.9731  135.5587  153.0654 C   0  0  0  0  0  0  0  0  0  0  0  0
  145.2102  136.9459  152.8385 C   0  0  0  0  0  0  0  0  0  0  0  0
  145.4911  137.1467  151.4909 N   0  0  0  0  0  0  0  0  0  0  0  0
  145.4201  135.9559  150.9621 C   0  0  0  0  0  0  0  0  0  0  0  0
  145.1081  134.9416  151.8377 N   0  0  0  0  0  0  0  0  0  0  0  0
  144.9522  133.4882  151.5249 C   0  0  1  0  0  0  0  0  0  0  0  0
  143.9445  133.3536  150.5700 O   0  0  0  0  0  0  0  0  0  0  0  0
  144.3356  132.3969  149.5919 C   0  0  1  0  0  0  0  0  0  0  0  0
  143.5788  132.6593  148.2805 C   0  0  0  0  0  0  0  0  0  0  0  0
  143.4230  134.0476  148.0785 O   0  0  0  0  0  0  0  0  0  0  0  0
  145.8436  132.6322  149.4864 C   0  0  2  0  0  0  0  0  0  0  0  0
  146.5393  131.5407  148.9112 O   0  0  0  0  0  0  0  0  0  0  0  0
  146.2485  132.9130  150.9315 C   0  0  2  0  0  0  0  0  0  0  0  0
  146.6340  131.7355  151.6173 O   0  0  0  0  0  0  0  0  0  0  0  0
  147.6996  141.7115  157.0755 C   0  0  0  0  0  0  0  0  0  0  0  0
  146.5274  141.8408  157.9911 C   0  0  0  0  0  0  0  0  0  0  0  0
  148.9100  141.9574  157.6494 O   0  0  0  0  0  0  0  0  0  0  0  0
  144.6580  133.0282  152.4697 H   0  0  0  0  0  0  0  0  0  0  0  0
  144.1449  131.3906  149.9710 H   0  0  0  0  0  0  0  0  0  0  0  0
  146.0346  133.5187  148.8816 H   0  0  0  0  0  0  0  0  0  0  0  0
  147.0658  133.6339  150.9871 H   0  0  0  0  0  0  0  0  0  0  0  0
  151.9455  141.7795  156.2746 H   0  0  0  0  0  0  0  0  0  0  0  0
  151.5276  141.3483  157.9340 H   0  0  0  0  0  0  0  0  0  0  0  0
  151.4216  143.0291  157.4050 H   0  0  0  0  0  0  0  0  0  0  0  0
  149.7637  141.2126  154.5881 H   0  0  0  0  0  0  0  0  0  0  0  0
  148.0936  140.0010  153.3241 H   0  0  0  0  0  0  0  0  0  0  0  0
  147.9013  141.7192  152.9977 H   0  0  0  0  0  0  0  0  0  0  0  0
  146.6126  140.5909  152.5922 H   0  0  0  0  0  0  0  0  0  0  0  0
  146.2697  142.8372  154.2721 H   0  0  0  0  0  0  0  0  0  0  0  0
  146.6160  139.0534  155.6578 H   0  0  0  0  0  0  0  0  0  0  0  0
  145.1937  140.0608  155.8518 H   0  0  0  0  0  0  0  0  0  0  0  0
  145.0179  139.7423  153.2702 H   0  0  0  0  0  0  0  0  0  0  0  0
  144.3911  135.5041  156.2271 H   0  0  0  0  0  0  0  0  0  0  0  0
  145.5900  135.7844  149.9090 H   0  0  0  0  0  0  0  0  0  0  0  0
  144.0898  132.2051  147.4307 H   0  0  0  0  0  0  0  0  0  0  0  0
  142.5805  132.2234  148.3282 H   0  0  0  0  0  0  0  0  0  0  0  0
  144.2708  134.4214  147.8918 H   0  0  0  0  0  0  0  0  0  0  0  0
  147.3536  131.4249  149.3766 H   0  0  0  0  0  0  0  0  0  0  0  0
  147.5422  131.5630  151.4199 H   0  0  0  0  0  0  0  0  0  0  0  0
  145.9015  142.6840  157.6993 H   0  0  0  0  0  0  0  0  0  0  0  0
  146.8466  142.0007  159.0214 H   0  0  0  0  0  0  0  0  0  0  0  0
  145.9157  140.9387  157.9658 H   0  0  0  0  0  0  0  0  0  0  0  0
  1  2  1  0  0  0  0
  1 35  1  0  0  0  0
  1 36  1  0  0  0  0
  1 37  1  0  0  0  0
  2 30  1  0  0  0  0
  2  3  2  0  0  0  0
  3  4  1  0  0  0  0
  3 38  1  0  0  0  0
  4  5  1  0  0  0  0
  4 28  2  0  0  0  0
  5  6  1  0  0  0  0
  5  7  1  0  0  0  0
  5  8  1  0  0  0  0
  6 39  1  0  0  0  0
  6 40  1  0  0  0  0
  6 41  1  0  0  0  0
  7 42  1  0  0  0  0
  8  9  1  0  0  0  0
  8 43  1  0  0  0  0
  8 44  1  0  0  0  0
  9 10  1  0  0  0  0
  9 45  1  0  0  0  0
 10 15  1  0  0  0  0
 10 11  2  0  0  0  0
 11 12  1  0  0  0  0
 12 13  2  0  0  0  0
 12 46  1  0  0  0  0
 13 14  1  0  0  0  0
 14 18  1  0  0  0  0
 14 15  2  0  0  0  0
 15 16  1  0  0  0  0
 16 17  2  0  0  0  0
 17 18  1  0  0  0  0
 17 47  1  0  0  0  0
 18 19  1  0  0  0  0
 19 31  1  0  0  0  0
 19 26  1  0  0  0  0
 19 20  1  0  0  0  0
 20 21  1  0  0  0  0
 21 32  1  0  0  0  0
 21 22  1  0  0  0  0
 21 24  1  0  0  0  0
 22 23  1  0  0  0  0
 22 48  1  0  0  0  0
 22 49  1  0  0  0  0
 23 50  1  0  0  0  0
 24 33  1  0  0  0  0
 24 25  1  0  0  0  0
 24 26  1  0  0  0  0
 25 51  1  0  0  0  0
 26 34  1  0  0  0  0
 26 27  1  0  0  0  0
 27 52  1  0  0  0  0
 28 29  1  0  0  0  0
 28 30  1  0  0  0  0
 29 53  1  0  0  0  0
 29 54  1  0  0  0  0
 29 55  1  0  0  0  0
M  END
> <s_m_source_file>
AV-unprocessed.smi

> <i_m_source_file_index>
287

> <i_lp_mmshare_version>
43012

> <i_f3d_flags>
0

> <s_epik_input>
W0NIM11jMVtjSF1jKGMobzEpW0NIM10pW0NAQF0oW0NIM10pKFtPSF0pW0NIMl1bTkhdYyhuW2NIXW4yKWMoYzIzKW5bY0hdbjNbQ0BASF00T1tDQEhdKFtDSDJdW09IXSlbQ0BASF0oW09IXSlbQ0BIXTRbT0hd

> <s_epik_cmdline>
J2VwaWtfcHl0aG9uJywgJy1waCcsICc3LjAnLCAnLXRuJywgJzgnLCAnLW1hJywgJzIwMCcsICctbWV0YWxfYmluZGluZycsICctaW1hZScsICc8aW5maWxlLm1hZT4nLCAnLW9tYWUnLCAnPG91dGZpbGUubWFlPic=

> <r_lp_tautomer_probability>
1

> <r_epik_Ionization_Penalty>
0.000992612

> <r_epik_Ionization_Penalty_Charging>
0

> <r_epik_Ionization_Penalty_Neutral>
0.000992612

> <r_epik_State_Penalty>
-0

> <r_epik_Charging_Adjusted_Penalty>
0

> <i_epik_Tot_Q>
0

> <i_epik_Tot_abs_Q>
0

> <r_epik_Metal_State_Penalty>
-0

> <b_epik_Metal_Only>
0

> <s_epik_Chemistry_Notes>
This compound contains an acetal/aminal-like group ( X-CH(R)-Y where X, Y are N, S, or O) that may be acid/base labile, releasing an aldehyde.

> <s_lp_Force_Field>
OPLS_2005

> <r_lp_Energy>
44.724

> <b_lp_Chiralities_Consistent>
1

> <s_lp_Variant>
AV-unprocessed.smi:287-32

> <Gold.Version>
5.8.1

> <Gold.Id.Protein>
6NUR|6NUR_protein|mol2

> <Gold.PLP.Fitness>
57.0378

> <Gold.PLP.PLP>
-41.4668

> <Gold.PLP.part.hbond>
-6.9581

> <Gold.PLP.part.metal>
0.0000

> <Gold.PLP.part.buried>
-7.3247

> <Gold.PLP.part.nonpolar>
-30.3970

> <Gold.PLP.part.repulsive>
3.1917

> <Gold.PLP.ligand.clash>
0.0000

> <Gold.PLP.ligand.torsion>
1.0013

> <Gold.PLP.Chemscore.Hbond>
4.8320

> <Gold.PLP.Chemscore.CHOScore>
1.0000

> <Gold.PLP.Chemscore.Metal>
0.0000

> <Gold.Chemscore.Hbonds>
donor molecule, donor type, donor heavy atom, donor atom, acceptor molecule, acceptor atom, score
      L1  H     9    45       P1 10175  0.88
      L1  H    23    50       P1  7921  1.00
      L1  H    25    51       P1 10747  1.00
      L1  H    27    52       P1 10747  1.00
      P1  H 10192 10197       L1    23  1.00
      L1  C    17    47       P1  7921  1.00

> <Gold.PLP.Chemscore.Internal.Correction>
0.0776

> <Gold.Rescore>
     Score         DG    S(hbond)    S(metal)    S(lipo)     H(rot)  DE(clash)    DE(int)     intcor
     14.35     -16.64       4.22        0.00      90.09       5.27       1.38       0.91       ----

> <Gold.Chemscore.Fitness>
14.3458

> <Gold.Chemscore.DG>
-16.6363

> <Gold.Chemscore.ZeroCoef>
-5.4800

> <Gold.Chemscore.Hbond>
4.2213

> <Gold.Chemscore.Metal>
0.0000

> <Gold.Chemscore.Lipo>
90.0941

> <Gold.Chemscore.Internal_Hbond>
0.0000

> <Gold.Chemscore.DEClash>
1.3762

> <Gold.Chemscore.DEInternal>
0.9144

> <Gold.Chemscore.Rot>
5.2672

> <Gold.Chemscore.Internal.Correction>
   9.000000E+99

> <Gold.Chemscore.Hbonds>
donor molecule, donor type, donor heavy atom, donor atom, acceptor molecule, acceptor atom, score
      L1  H     9    45       P1 10175  0.87
      L1  H    23    50       P1  7921  1.00
      L1  H    25    51       P1 10747  1.00
      L1  H    27    52       P1 10747  0.95
      P1  H 10192 10197       L1    23  0.62

> <Gold.Chemscore.Hbond.Weighted>
-14.0992

> <Gold.Chemscore.Metal.Weighted>
-0.0000

> <Gold.Chemscore.Lipo.Weighted>
-10.5410

> <Gold.Chemscore.Internal_Hbond.Weighted>
0.0000

> <Gold.Chemscore.DEClash.Weighted>
1.3762

> <Gold.Chemscore.DEInternal.Weighted>
0.9144

> <Gold.Chemscore.Rot.Weighted>
13.4839

> <Gold.Chemscore.Internal.Correction.Weighted>
   9.000000E+99

> <Gold.Protein.RotatedTorsions>
[ 6907 6896 6895 6894 ] final -102.14 input  -60.11 | X-H torsion
[ 7974 7965 7964 7962 ] final  151.19 input  175.53 | X-H torsion
[ 8008 7997 7996 7995 ] final -121.05 input   59.86 | X-H torsion
[ 10167 10162 10161 10158 ] final -144.95 input  -65.29 | X-H torsion
[ 10718 10713 10712 10709 ] final -136.61 input   66.30 | X-H torsion
[ 10763 10752 10751 10750 ] final -134.51 input  -60.55 | X-H torsion
[ 11005 11000 10999 10996 ] final   -2.94 input  -57.11 | X-H torsion

> <Gold.Protein.ActiveResidues>
 VAL166  LYS551  ARG553  GLY616  TRP617  ASP618  TYR619  PRO620  LYS621  CYS622 
 ASP623  PHE694  ASN695  SER759  ASP760  ASP761  ALA762  ILE779  LEU786  VAL792 
 PHE793  MET794  SER795  GLU796  ALA797  LYS798  CYS799  TRP800  GLU811  SER814 

> <Gold.Protein.RotatedAtoms>
  150.7183  134.0627  159.3836 H   0  0  0  0  0  0  0  0  0  0  0  0  # atno 6907 bound_to 6896
  151.8607  135.0523  160.0478 H   0  0  0  0  0  0  0  0  0  0  0  0  # atno 6908 bound_to 6896
  152.2719  133.5354  159.5481 H   0  0  0  0  0  0  0  0  0  0  0  0  # atno 6909 bound_to 6896
  144.8310  139.6506  143.6059 H   0  0  0  0  0  0  0  0  0  0  0  0  # atno 7974 bound_to 7965
  155.1417  140.0402  157.2800 H   0  0  0  0  0  0  0  0  0  0  0  0  # atno 8008 bound_to 7997
  154.6468  140.2560  155.7232 H   0  0  0  0  0  0  0  0  0  0  0  0  # atno 8009 bound_to 7997
  156.2559  140.2844  156.0885 H   0  0  0  0  0  0  0  0  0  0  0  0  # atno 8010 bound_to 7997
  139.7851  143.8045  152.2643 H   0  0  0  0  0  0  0  0  0  0  0  0  # atno 10167 bound_to 10162
  156.2790  130.7309  151.1301 H   0  0  0  0  0  0  0  0  0  0  0  0  # atno 10718 bound_to 10713
  154.8718  135.3732  154.4747 H   0  0  0  0  0  0  0  0  0  0  0  0  # atno 10763 bound_to 10752
  153.5405  135.7026  153.5644 H   0  0  0  0  0  0  0  0  0  0  0  0  # atno 10764 bound_to 10752
  153.3808  135.3997  155.1820 H   0  0  0  0  0  0  0  0  0  0  0  0  # atno 10765 bound_to 10752
  140.6639  133.9296  155.8453 H   0  0  0  0  0  0  0  0  0  0  0  0  # atno 11005 bound_to 11000
  146.2613  139.6416  142.9360 LP  0  0  0  0  0  0  0  0  0  0  0  0  # atno 17320 bound_to 7965
  145.4896  141.0438  143.2600 LP  0  0  0  0  0  0  0  0  0  0  0  0  # atno 17321 bound_to 7965
  139.8120  144.7332  150.9685 LP  0  0  0  0  0  0  0  0  0  0  0  0  # atno 17342 bound_to 10162
  140.7819  143.4242  151.0795 LP  0  0  0  0  0  0  0  0  0  0  0  0  # atno 17343 bound_to 10162
  157.7308  131.0613  150.5707 LP  0  0  0  0  0  0  0  0  0  0  0  0  # atno 17370 bound_to 10713
  156.5811  130.4305  149.5977 LP  0  0  0  0  0  0  0  0  0  0  0  0  # atno 17371 bound_to 10713
  141.0444  134.0575  157.3862 LP  0  0  0  0  0  0  0  0  0  0  0  0  # atno 17394 bound_to 11000
  139.9004  135.0162  156.7239 LP  0  0  0  0  0  0  0  0  0  0  0  0  # atno 17395 bound_to 11000

$$$$
