AV-unprocessed.smi:2062|AV-procd|sdf|8401|dock2
  -GOLD-   2272011 83D 1   1.00000     0.00000
 Structure written by MMmdl.
 42 43  0  0  0  0  0  0  0  0  1 V2000
  152.6479  142.4601  160.0682 C   0  0  0  0  0  0  0  0  0  0  0  0
  152.0196  141.3223  159.2480 C   0  0  0  0  0  0  0  0  0  0  0  0
  153.0317  140.1747  159.0874 C   0  0  0  0  0  0  0  0  0  0  0  0
  151.5130  141.8386  157.8804 C   0  0  0  0  0  0  0  0  0  0  0  0
  151.0006  140.8152  156.9677 N   0  0  0  0  0  0  0  0  0  0  0  0
  152.0483  140.2034  156.1548 C   0  0  0  0  0  0  0  0  0  0  0  0
  151.4820  139.1598  155.1768 C   0  0  0  0  0  0  0  0  0  0  0  0
  150.4821  139.7619  154.3623 O   0  0  0  0  0  0  0  0  0  0  0  0
  149.4071  140.3121  155.1201 C   0  0  2  0  0  0  0  0  0  0  0  0
  148.3803  140.9144  154.1457 C   0  0  0  0  0  0  0  0  0  0  0  0
  147.9996  139.9619  153.1080 N   0  0  0  0  0  0  0  0  0  0  0  0
  146.9913  139.0838  153.2027 C   0  0  0  0  0  0  0  0  0  0  0  0
  146.2485  139.0076  154.1813 O   0  0  0  0  0  0  0  0  0  0  0  0
  146.9115  138.3141  152.1052 N   0  0  0  0  0  0  0  0  0  0  0  0
  146.0011  137.2586  151.8505 C   0  0  0  0  0  0  0  0  0  0  0  0
  146.1778  136.5014  150.7661 N   0  0  0  0  0  0  0  0  0  0  0  0
  145.2050  135.5032  150.6585 C   0  0  0  0  0  0  0  0  0  0  0  0
  144.2861  135.5157  151.6784 C   0  0  0  0  0  0  0  0  0  0  0  0
  144.6056  136.7891  152.8250 S   0  0  0  0  0  0  0  0  0  0  0  0
  149.9779  141.3692  156.0858 C   0  0  0  0  0  0  0  0  0  0  0  0
  153.5077  142.8917  159.5548 H   0  0  0  0  0  0  0  0  0  0  0  0
  152.9856  142.1043  161.0419 H   0  0  0  0  0  0  0  0  0  0  0  0
  151.9289  143.2606  160.2452 H   0  0  0  0  0  0  0  0  0  0  0  0
  151.1696  140.9525  159.8234 H   0  0  0  0  0  0  0  0  0  0  0  0
  153.9218  140.5053  158.5512 H   0  0  0  0  0  0  0  0  0  0  0  0
  152.6098  139.3346  158.5369 H   0  0  0  0  0  0  0  0  0  0  0  0
  153.3523  139.7980  160.0591 H   0  0  0  0  0  0  0  0  0  0  0  0
  150.7051  142.5472  158.0687 H   0  0  0  0  0  0  0  0  0  0  0  0
  152.2921  142.4231  157.3883 H   0  0  0  0  0  0  0  0  0  0  0  0
  152.5799  140.9737  155.5940 H   0  0  0  0  0  0  0  0  0  0  0  0
  152.7824  139.7138  156.7934 H   0  0  0  0  0  0  0  0  0  0  0  0
  152.2743  138.7689  154.5385 H   0  0  0  0  0  0  0  0  0  0  0  0
  151.0584  138.3122  155.7179 H   0  0  0  0  0  0  0  0  0  0  0  0
  148.9342  139.5176  155.7003 H   0  0  0  0  0  0  0  0  0  0  0  0
  147.4916  141.2448  154.6864 H   0  0  0  0  0  0  0  0  0  0  0  0
  148.7956  141.8000  153.6639 H   0  0  0  0  0  0  0  0  0  0  0  0
  148.5623  139.9552  152.2698 H   0  0  0  0  0  0  0  0  0  0  0  0
  147.5864  138.4924  151.3763 H   0  0  0  0  0  0  0  0  0  0  0  0
  145.2423  134.8232  149.8204 H   0  0  0  0  0  0  0  0  0  0  0  0
  143.4443  134.8553  151.8247 H   0  0  0  0  0  0  0  0  0  0  0  0
  149.1650  141.7852  156.6822 H   0  0  0  0  0  0  0  0  0  0  0  0
  150.3967  142.1971  155.5109 H   0  0  0  0  0  0  0  0  0  0  0  0
  1  2  1  0  0  0  0
  1 21  1  0  0  0  0
  1 22  1  0  0  0  0
  1 23  1  0  0  0  0
  2  3  1  0  0  0  0
  2  4  1  0  0  0  0
  2 24  1  0  0  0  0
  3 25  1  0  0  0  0
  3 26  1  0  0  0  0
  3 27  1  0  0  0  0
  4  5  1  0  0  0  0
  4 28  1  0  0  0  0
  4 29  1  0  0  0  0
  5 20  1  0  0  0  0
  5  6  1  0  0  0  0
  6  7  1  0  0  0  0
  6 30  1  0  0  0  0
  6 31  1  0  0  0  0
  7  8  1  0  0  0  0
  7 32  1  0  0  0  0
  7 33  1  0  0  0  0
  8  9  1  0  0  0  0
  9 10  1  0  0  0  0
  9 20  1  0  0  0  0
  9 34  1  0  0  0  0
 10 11  1  0  0  0  0
 10 35  1  0  0  0  0
 10 36  1  0  0  0  0
 11 12  1  0  0  0  0
 11 37  1  0  0  0  0
 12 13  2  0  0  0  0
 12 14  1  0  0  0  0
 14 15  1  0  0  0  0
 14 38  1  0  0  0  0
 15 19  1  0  0  0  0
 15 16  2  0  0  0  0
 16 17  1  0  0  0  0
 17 18  2  0  0  0  0
 17 39  1  0  0  0  0
 18 19  1  0  0  0  0
 18 40  1  0  0  0  0
 20 41  1  0  0  0  0
 20 42  1  0  0  0  0
M  END
> <s_m_source_file>
AV-unprocessed.smi

> <i_m_source_file_index>
2062

> <i_lp_mmshare_version>
43012

> <i_f3d_flags>
0

> <s_epik_input>
W0NIM11bQ0hdKFtDSDNdKVtDSDJdTjFbQ0gyXVtDSDJdT1tDQEhdKFtDSDJdMSlbQ0gyXVtOSF1DKD1PKVtOSF1jMm5bY0hdW2NIXXMy

> <s_epik_cmdline>
J2VwaWtfcHl0aG9uJywgJy1waCcsICc3LjAnLCAnLXRuJywgJzgnLCAnLW1hJywgJzIwMCcsICctbWV0YWxfYmluZGluZycsICctaW1hZScsICc8aW5maWxlLm1hZT4nLCAnLW9tYWUnLCAnPG91dGZpbGUubWFlPic=

> <r_lp_tautomer_probability>
0.999

> <r_epik_Ionization_Penalty>
1.11227

> <r_epik_Ionization_Penalty_Charging>
0

> <r_epik_Ionization_Penalty_Neutral>
1.11227

> <r_epik_State_Penalty>
1.17021

> <r_epik_Charging_Adjusted_Penalty>
1.17021

> <i_epik_Tot_Q>
0

> <i_epik_Tot_abs_Q>
0

> <r_epik_Metal_State_Penalty>
1.22349

> <b_epik_Metal_Only>
0

> <s_lp_Force_Field>
OPLS_2005

> <r_lp_Energy>
23.0648

> <b_lp_Chiralities_Consistent>
1

> <s_lp_Variant>
AV-unprocessed.smi:2062-6

> <Gold.Version>
5.8.1

> <Gold.Id.Protein>
6NUR|6NUR_protein|mol2

> <Gold.PLP.Fitness>
44.6370

> <Gold.PLP.PLP>
-37.2635

> <Gold.PLP.part.hbond>
-3.0248

> <Gold.PLP.part.metal>
0.0000

> <Gold.PLP.part.buried>
-6.1263

> <Gold.PLP.part.nonpolar>
-30.7676

> <Gold.PLP.part.repulsive>
1.3604

> <Gold.PLP.ligand.clash>
0.0000

> <Gold.PLP.ligand.torsion>
0.5942

> <Gold.PLP.Chemscore.Hbond>
1.8425

> <Gold.PLP.Chemscore.CHOScore>
0.9999

> <Gold.PLP.Chemscore.Metal>
0.0000

> <Gold.Chemscore.Hbonds>
donor molecule, donor type, donor heavy atom, donor atom, acceptor molecule, acceptor atom, score
      L1  H    11    37       P1  7957  0.98
      P1  H  7989  7998       L1     8  0.75
      L1  C    17    39       P1  7921  1.00

> <Gold.PLP.Chemscore.Internal.Correction>
0.0348

> <Gold.Rescore>
     Score         DG    S(hbond)    S(metal)    S(lipo)     H(rot)  DE(clash)    DE(int)     intcor
     19.64     -23.17       3.69        0.00      83.39       1.72       2.32       1.21       ----

> <Gold.Chemscore.Fitness>
19.6365

> <Gold.Chemscore.DG>
-23.1717

> <Gold.Chemscore.ZeroCoef>
-5.4800

> <Gold.Chemscore.Hbond>
3.6936

> <Gold.Chemscore.Metal>
0.0000

> <Gold.Chemscore.Lipo>
83.3918

> <Gold.Chemscore.Internal_Hbond>
0.0000

> <Gold.Chemscore.DEClash>
2.3206

> <Gold.Chemscore.DEInternal>
1.2146

> <Gold.Chemscore.Rot>
1.7195

> <Gold.Chemscore.Internal.Correction>
   9.000000E+99

> <Gold.Chemscore.Hbonds>
donor molecule, donor type, donor heavy atom, donor atom, acceptor molecule, acceptor atom, score
      L1  H    11    37       P1  7957  0.91
      P1  H  7989  7998       L1     8  0.09

> <Gold.Chemscore.Hbond.Weighted>
-12.3367

> <Gold.Chemscore.Metal.Weighted>
-0.0000

> <Gold.Chemscore.Lipo.Weighted>
-9.7568

> <Gold.Chemscore.Internal_Hbond.Weighted>
0.0000

> <Gold.Chemscore.DEClash.Weighted>
2.3206

> <Gold.Chemscore.DEInternal.Weighted>
1.2146

> <Gold.Chemscore.Rot.Weighted>
4.4019

> <Gold.Chemscore.Internal.Correction.Weighted>
   9.000000E+99

> <Gold.Protein.RotatedTorsions>
[ 6907 6896 6895 6894 ] final  167.19 input  -60.11 | X-H torsion
[ 7974 7965 7964 7962 ] final -120.25 input  175.53 | X-H torsion
[ 8008 7997 7996 7995 ] final  145.69 input   59.86 | X-H torsion
[ 10167 10162 10161 10158 ] final   98.74 input  -65.29 | X-H torsion
[ 10718 10713 10712 10709 ] final  -77.79 input   66.30 | X-H torsion
[ 10763 10752 10751 10750 ] final   -2.11 input  -60.55 | X-H torsion
[ 11005 11000 10999 10996 ] final  -77.14 input  -57.11 | X-H torsion

> <Gold.Protein.ActiveResidues>
 VAL166  LYS551  ARG553  GLY616  TRP617  ASP618  TYR619  PRO620  LYS621  CYS622 
 ASP623  PHE694  ASN695  SER759  ASP760  ASP761  ALA762  ILE779  LEU786  VAL792 
 PHE793  MET794  SER795  GLU796  ALA797  LYS798  CYS799  TRP800  GLU811  SER814 

> <Gold.Protein.RotatedAtoms>
  151.8671  133.3468  159.3722 H   0  0  0  0  0  0  0  0  0  0  0  0  # atno 6907 bound_to 6896
  150.7163  134.5149  159.5635 H   0  0  0  0  0  0  0  0  0  0  0  0  # atno 6908 bound_to 6896
  152.2674  134.7970  160.0471 H   0  0  0  0  0  0  0  0  0  0  0  0  # atno 6909 bound_to 6896
  145.0535  140.8236  143.4195 H   0  0  0  0  0  0  0  0  0  0  0  0  # atno 7974 bound_to 7965
  156.2876  140.2202  156.5256 H   0  0  0  0  0  0  0  0  0  0  0  0  # atno 8008 bound_to 7997
  154.7492  140.0481  157.0901 H   0  0  0  0  0  0  0  0  0  0  0  0  # atno 8009 bound_to 7997
  155.0131  140.3115  155.4825 H   0  0  0  0  0  0  0  0  0  0  0  0  # atno 8010 bound_to 7997
  139.7681  144.6932  151.0195 H   0  0  0  0  0  0  0  0  0  0  0  0  # atno 10167 bound_to 10162
  156.0135  130.4500  150.3398 H   0  0  0  0  0  0  0  0  0  0  0  0  # atno 10718 bound_to 10713
  153.3537  135.6987  153.6767 H   0  0  0  0  0  0  0  0  0  0  0  0  # atno 10763 bound_to 10752
  153.5484  135.3559  155.2749 H   0  0  0  0  0  0  0  0  0  0  0  0  # atno 10764 bound_to 10752
  154.8657  135.4220  154.2779 H   0  0  0  0  0  0  0  0  0  0  0  0  # atno 10765 bound_to 10752
  141.1658  133.7011  156.7775 H   0  0  0  0  0  0  0  0  0  0  0  0  # atno 11005 bound_to 11000
  145.1498  139.2521  143.5447 LP  0  0  0  0  0  0  0  0  0  0  0  0  # atno 17320 bound_to 7965
  146.3519  140.1197  142.8601 LP  0  0  0  0  0  0  0  0  0  0  0  0  # atno 17321 bound_to 7965
  140.7812  143.4620  151.0265 LP  0  0  0  0  0  0  0  0  0  0  0  0  # atno 17342 bound_to 10162
  139.8304  143.7699  152.3179 LP  0  0  0  0  0  0  0  0  0  0  0  0  # atno 17343 bound_to 10162
  157.1493  131.0317  151.2892 LP  0  0  0  0  0  0  0  0  0  0  0  0  # atno 17370 bound_to 10713
  157.4405  130.7541  149.7065 LP  0  0  0  0  0  0  0  0  0  0  0  0  # atno 17371 bound_to 10713
  140.2419  134.8607  157.3581 LP  0  0  0  0  0  0  0  0  0  0  0  0  # atno 17394 bound_to 11000
  140.1788  134.4516  155.7785 LP  0  0  0  0  0  0  0  0  0  0  0  0  # atno 17395 bound_to 11000

$$$$
