AV-unprocessed.smi:290|AV-procd|sdf|2232|dock10
  -GOLD-   2262022 93D 1   1.00000     0.00000
 Structure written by MMmdl.
 59 62  0  0  0  0  0  0  0  0  2 V2000
  152.1934  144.7747  159.5138 C   0  0  0  0  0  0  0  0  0  0  0  0
  152.3258  143.6485  158.4737 C   0  0  1  0  0  0  0  0  0  0  0  0
  153.0822  142.6076  159.0956 O   0  0  0  0  0  0  0  0  0  0  0  0
  152.3844  141.3715  159.0277 C   0  0  0  0  0  0  0  0  0  0  0  0
  150.9226  141.7782  158.9233 C   0  0  0  0  0  0  0  0  0  0  0  0
  150.9953  143.0001  158.0153 C   0  0  1  0  0  0  0  0  0  0  0  0
  149.8675  143.8227  158.2606 O   0  0  0  0  0  0  0  0  0  0  0  0
  151.0321  142.6638  156.5005 C   0  0  0  0  0  0  0  0  0  0  0  0
  149.9522  141.7965  156.0545 N   0  0  0  0  0  0  0  0  0  0  0  0
  148.6027  141.9864  156.2524 C   0  0  0  0  0  0  0  0  0  0  0  0
  147.8299  141.0630  155.7477 N   0  0  0  0  0  0  0  0  0  0  0  0
  148.7145  140.1735  155.1497 C   0  0  0  0  0  0  0  0  0  0  0  0
  148.5649  138.9574  154.4250 C   0  0  0  0  0  0  0  0  0  0  0  0
  147.3815  138.3676  154.1482 N   0  0  0  0  0  0  0  0  0  0  0  0
  146.8253  138.6867  152.8415 C   0  0  0  0  0  0  0  0  0  0  0  0
  146.5173  137.3528  152.1713 C   0  0  0  0  0  0  0  0  0  0  0  0
  146.3272  136.3724  153.3369 C   0  0  1  0  0  0  0  0  0  0  0  0
  146.5442  134.9635  152.8851 N   0  3  1  0  0  0  0  0  0  0  0  0
  146.5192  133.9436  153.9609 C   0  0  0  0  0  0  0  0  0  0  0  0
  145.6551  134.5805  151.7545 C   0  0  0  0  0  0  0  0  0  0  0  0
  145.9591  133.1639  151.2399 C   0  0  0  0  0  0  0  0  0  0  0  0
  147.3546  132.9760  151.1339 O   0  0  0  0  0  0  0  0  0  0  0  0
  147.3433  136.9224  154.3685 C   0  0  2  0  0  0  0  0  0  0  0  0
  146.9948  136.6456  155.8457 C   0  0  0  0  0  0  0  0  0  0  0  0
  149.6842  138.3438  153.9706 N   0  0  0  0  0  0  0  0  0  0  0  0
  150.8838  138.8838  154.2078 C   0  0  0  0  0  0  0  0  0  0  0  0
  151.1786  140.0071  154.8663 N   0  0  0  0  0  0  0  0  0  0  0  0
  150.0523  140.6243  155.3258 C   0  0  0  0  0  0  0  0  0  0  0  0
  145.3185  136.4789  153.7410 H   0  0  0  0  0  0  0  0  0  0  0  0
  148.3280  136.5061  154.1508 H   0  0  0  0  0  0  0  0  0  0  0  0
  151.6620  145.6338  159.1040 H   0  0  0  0  0  0  0  0  0  0  0  0
  153.1756  145.1222  159.8346 H   0  0  0  0  0  0  0  0  0  0  0  0
  151.6564  144.4365  160.4006 H   0  0  0  0  0  0  0  0  0  0  0  0
  152.8845  144.0294  157.6178 H   0  0  0  0  0  0  0  0  0  0  0  0
  152.7014  140.8247  158.1389 H   0  0  0  0  0  0  0  0  0  0  0  0
  152.5870  140.7497  159.8998 H   0  0  0  0  0  0  0  0  0  0  0  0
  150.2777  140.9781  158.5627 H   0  0  0  0  0  0  0  0  0  0  0  0
  150.5639  142.0621  159.9141 H   0  0  0  0  0  0  0  0  0  0  0  0
  149.4578  144.0228  157.4331 H   0  0  0  0  0  0  0  0  0  0  0  0
  150.9910  143.5828  155.9141 H   0  0  0  0  0  0  0  0  0  0  0  0
  151.9778  142.1879  156.2389 H   0  0  0  0  0  0  0  0  0  0  0  0
  148.2075  142.8370  156.7893 H   0  0  0  0  0  0  0  0  0  0  0  0
  145.9051  139.2504  152.9979 H   0  0  0  0  0  0  0  0  0  0  0  0
  147.4838  139.3019  152.2260 H   0  0  0  0  0  0  0  0  0  0  0  0
  145.6531  137.4223  151.5108 H   0  0  0  0  0  0  0  0  0  0  0  0
  147.3744  137.0518  151.5666 H   0  0  0  0  0  0  0  0  0  0  0  0
  145.5693  133.9625  154.4961 H   0  0  0  0  0  0  0  0  0  0  0  0
  147.3327  134.0959  154.6694 H   0  0  0  0  0  0  0  0  0  0  0  0
  146.6499  132.9404  153.5563 H   0  0  0  0  0  0  0  0  0  0  0  0
  144.6142  134.6485  152.0747 H   0  0  0  0  0  0  0  0  0  0  0  0
  145.7449  135.2756  150.9200 H   0  0  0  0  0  0  0  0  0  0  0  0
  145.5357  132.3958  151.8865 H   0  0  0  0  0  0  0  0  0  0  0  0
  145.5204  133.0236  150.2517 H   0  0  0  0  0  0  0  0  0  0  0  0
  147.5233  132.0747  150.9036 H   0  0  0  0  0  0  0  0  0  0  0  0
  146.9738  135.5868  156.0904 H   0  0  0  0  0  0  0  0  0  0  0  0
  146.0194  137.0599  156.1026 H   0  0  0  0  0  0  0  0  0  0  0  0
  147.7279  137.1035  156.5103 H   0  0  0  0  0  0  0  0  0  0  0  0
  151.7284  138.3382  153.8133 H   0  0  0  0  0  0  0  0  0  0  0  0
  147.4835  134.9476  152.5127 H   0  0  0  0  0  0  0  0  0  0  0  0
  1  2  1  0  0  0  0
  1 31  1  0  0  0  0
  1 32  1  0  0  0  0
  1 33  1  0  0  0  0
  2  6  1  0  0  0  0
  2  3  1  0  0  0  0
  2 34  1  0  0  0  0
  3  4  1  0  0  0  0
  4  5  1  0  0  0  0
  4 35  1  0  0  0  0
  4 36  1  0  0  0  0
  5  6  1  0  0  0  0
  5 37  1  0  0  0  0
  5 38  1  0  0  0  0
  6  7  1  0  0  0  0
  6  8  1  0  0  0  0
  7 39  1  0  0  0  0
  8  9  1  0  0  0  0
  8 40  1  0  0  0  0
  8 41  1  0  0  0  0
  9 28  1  0  0  0  0
  9 10  1  0  0  0  0
 10 11  2  0  0  0  0
 10 42  1  0  0  0  0
 11 12  1  0  0  0  0
 12 28  2  0  0  0  0
 12 13  1  0  0  0  0
 13 14  1  0  0  0  0
 13 25  2  0  0  0  0
 14 23  1  0  0  0  0
 14 15  1  0  0  0  0
 15 16  1  0  0  0  0
 15 43  1  0  0  0  0
 15 44  1  0  0  0  0
 16 17  1  0  0  0  0
 16 45  1  0  0  0  0
 16 46  1  0  0  0  0
 17 29  1  0  0  0  0
 17 18  1  0  0  0  0
 17 23  1  0  0  0  0
 18 19  1  0  0  0  0
 18 20  1  0  0  0  0
 18 59  1  0  0  0  0
 19 47  1  0  0  0  0
 19 48  1  0  0  0  0
 19 49  1  0  0  0  0
 20 21  1  0  0  0  0
 20 50  1  0  0  0  0
 20 51  1  0  0  0  0
 21 22  1  0  0  0  0
 21 52  1  0  0  0  0
 21 53  1  0  0  0  0
 22 54  1  0  0  0  0
 23 30  1  0  0  0  0
 23 24  1  0  0  0  0
 24 55  1  0  0  0  0
 24 56  1  0  0  0  0
 24 57  1  0  0  0  0
 25 26  1  0  0  0  0
 26 27  2  0  0  0  0
 26 58  1  0  0  0  0
 27 28  1  0  0  0  0
M  CHG  1  18   1
M  END
> <s_m_source_file>
AV-unprocessed.smi

> <i_m_source_file_index>
290

> <i_lp_mmshare_version>
43012

> <i_f3d_flags>
0

> <s_epik_input>
W0NIMl0xW0NIMl1PW0NAQEhdKFtDSDNdKVtDQEBdMShbT0hdKVtDSDJdbihbY0hdbjIpYyhjMjMpbltjSF1uYzNONFtDSDJdW0NIMl1bQ0BIXShbQ0BIXTRbQ0gzXSlOKFtDSDNdKVtDSDJdW0NIMl1bT0hd

> <s_epik_cmdline>
J2VwaWtfcHl0aG9uJywgJy1waCcsICc3LjAnLCAnLXRuJywgJzgnLCAnLW1hJywgJzIwMCcsICctbWV0YWxfYmluZGluZycsICctaW1hZScsICc8aW5maWxlLm1hZT4nLCAnLW9tYWUnLCAnPG91dGZpbGUubWFlPic=

> <r_lp_tautomer_probability>
1

> <r_epik_Ionization_Penalty>
0.0036983

> <r_epik_Ionization_Penalty_Charging>
0.0032725

> <r_epik_Ionization_Penalty_Neutral>
0.000425798

> <r_epik_State_Penalty>
-0

> <r_epik_Charging_Adjusted_Penalty>
0.0032725

> <i_epik_Tot_Q>
1

> <i_epik_Tot_abs_Q>
1

> <r_epik_Metal_State_Penalty>
-0

> <b_epik_Metal_Only>
0

> <s_lp_Force_Field>
OPLS_2005

> <r_lp_Energy>
64.3392

> <b_lp_Chiralities_Consistent>
1

> <s_lp_Variant>
AV-unprocessed.smi:290-18

> <Gold.Version>
5.8.1

> <Gold.Id.Protein>
6NUR|6NUR_protein|mol2

> <Gold.PLP.Fitness>
48.2356

> <Gold.PLP.PLP>
-34.9343

> <Gold.PLP.part.hbond>
-4.8953

> <Gold.PLP.part.metal>
0.0000

> <Gold.PLP.part.buried>
4.6940

> <Gold.PLP.part.nonpolar>
-34.2752

> <Gold.PLP.part.repulsive>
1.1077

> <Gold.PLP.ligand.clash>
0.0000

> <Gold.PLP.ligand.torsion>
0.7723

> <Gold.PLP.Chemscore.Hbond>
4.2900

> <Gold.PLP.Chemscore.CHOScore>
0.5621

> <Gold.PLP.Chemscore.Metal>
0.0000

> <Gold.Chemscore.Hbonds>
donor molecule, donor type, donor heavy atom, donor atom, acceptor molecule, acceptor atom, score
      L1  H     7    39       P1  8028  1.00
      L1  H    18    59       P1  7948  1.66
      L1  H    22    54       P1 10747  0.83
      P1  H  7989  7998       L1    27  0.75
      L1  C    10    42       P1  8028  0.56

> <Gold.PLP.Chemscore.Internal.Correction>
0.2895

> <Gold.Rescore>
     Score         DG    S(hbond)    S(metal)    S(lipo)     H(rot)  DE(clash)    DE(int)     intcor
      9.12     -13.18       1.87        0.00      92.68       3.67       3.18       0.88       ----

> <Gold.Chemscore.Fitness>
9.1211

> <Gold.Chemscore.DG>
-13.1839

> <Gold.Chemscore.ZeroCoef>
-5.4800

> <Gold.Chemscore.Hbond>
1.8699

> <Gold.Chemscore.Metal>
0.0000

> <Gold.Chemscore.Lipo>
92.6753

> <Gold.Chemscore.Internal_Hbond>
0.0000

> <Gold.Chemscore.DEClash>
3.1846

> <Gold.Chemscore.DEInternal>
0.8783

> <Gold.Chemscore.Rot>
3.6658

> <Gold.Chemscore.Internal.Correction>
   9.000000E+99

> <Gold.Chemscore.Hbonds>
donor molecule, donor type, donor heavy atom, donor atom, acceptor molecule, acceptor atom, score
      L1  H     7    39       P1  8028  0.25
      L1  H    18    59       P1  7948  0.76
      L1  H    22    54       P1 10747  0.80
      P1  H  7989  7998       L1    27  0.05

> <Gold.Chemscore.Hbond.Weighted>
-6.2453

> <Gold.Chemscore.Metal.Weighted>
-0.0000

> <Gold.Chemscore.Lipo.Weighted>
-10.8430

> <Gold.Chemscore.Internal_Hbond.Weighted>
0.0000

> <Gold.Chemscore.DEClash.Weighted>
3.1846

> <Gold.Chemscore.DEInternal.Weighted>
0.8783

> <Gold.Chemscore.Rot.Weighted>
9.3844

> <Gold.Chemscore.Internal.Correction.Weighted>
   9.000000E+99

> <Gold.Protein.RotatedTorsions>
[ 6907 6896 6895 6894 ] final -166.05 input  -60.11 | X-H torsion
[ 7974 7965 7964 7962 ] final   11.92 input  175.53 | X-H torsion
[ 8008 7997 7996 7995 ] final  105.90 input   59.86 | X-H torsion
[ 10167 10162 10161 10158 ] final  -22.23 input  -65.29 | X-H torsion
[ 10718 10713 10712 10709 ] final  166.41 input   66.30 | X-H torsion
[ 10763 10752 10751 10750 ] final  122.78 input  -60.55 | X-H torsion
[ 11005 11000 10999 10996 ] final   52.26 input  -57.11 | X-H torsion

> <Gold.Protein.ActiveResidues>
 VAL166  LYS551  ARG553  GLY616  TRP617  ASP618  TYR619  PRO620  LYS621  CYS622 
 ASP623  PHE694  ASN695  SER759  ASP760  ASP761  ALA762  ILE779  LEU786  VAL792 
 PHE793  MET794  SER795  GLU796  ALA797  LYS798  CYS799  TRP800  GLU811  SER814 

> <Gold.Protein.RotatedAtoms>
  151.4375  133.3653  159.2776 H   0  0  0  0  0  0  0  0  0  0  0  0  # atno 6907 bound_to 6896
  150.9181  134.8600  159.7481 H   0  0  0  0  0  0  0  0  0  0  0  0  # atno 6908 bound_to 6896
  152.4968  134.4310  159.9564 H   0  0  0  0  0  0  0  0  0  0  0  0  # atno 6909 bound_to 6896
  146.2361  139.9413  142.8483 H   0  0  0  0  0  0  0  0  0  0  0  0  # atno 7974 bound_to 7965
  156.1698  140.3122  155.8953 H   0  0  0  0  0  0  0  0  0  0  0  0  # atno 8008 bound_to 7997
  155.3610  140.0476  157.3063 H   0  0  0  0  0  0  0  0  0  0  0  0  # atno 8009 bound_to 7997
  154.5229  140.2204  155.8953 H   0  0  0  0  0  0  0  0  0  0  0  0  # atno 8010 bound_to 7997
  140.7285  143.4554  151.0456 H   0  0  0  0  0  0  0  0  0  0  0  0  # atno 10167 bound_to 10162
  157.0662  131.0354  151.2628 H   0  0  0  0  0  0  0  0  0  0  0  0  # atno 10718 bound_to 10713
  153.6352  135.3389  155.3054 H   0  0  0  0  0  0  0  0  0  0  0  0  # atno 10763 bound_to 10752
  154.8571  135.4305  154.2063 H   0  0  0  0  0  0  0  0  0  0  0  0  # atno 10764 bound_to 10752
  153.2968  135.7021  153.7314 H   0  0  0  0  0  0  0  0  0  0  0  0  # atno 10765 bound_to 10752
  140.0864  134.5268  155.8895 H   0  0  0  0  0  0  0  0  0  0  0  0  # atno 11005 bound_to 11000
  145.1950  140.9829  143.4189 LP  0  0  0  0  0  0  0  0  0  0  0  0  # atno 17320 bound_to 7965
  144.9824  139.3770  143.6255 LP  0  0  0  0  0  0  0  0  0  0  0  0  # atno 17321 bound_to 7965
  139.8234  143.7789  152.3178 LP  0  0  0  0  0  0  0  0  0  0  0  0  # atno 17342 bound_to 10162
  139.7880  144.7421  150.9995 LP  0  0  0  0  0  0  0  0  0  0  0  0  # atno 17343 bound_to 10162
  157.4914  130.7824  149.7512 LP  0  0  0  0  0  0  0  0  0  0  0  0  # atno 17370 bound_to 10713
  155.9963  130.3906  150.2782 LP  0  0  0  0  0  0  0  0  0  0  0  0  # atno 17371 bound_to 10713
  141.2064  133.6655  156.6239 LP  0  0  0  0  0  0  0  0  0  0  0  0  # atno 17394 bound_to 11000
  140.3414  134.7846  157.4400 LP  0  0  0  0  0  0  0  0  0  0  0  0  # atno 17395 bound_to 11000

$$$$
