AV-unprocessed.smi:2085|AV-procd|sdf|8517|dock2
  -GOLD-   2272011233D 1   1.00000     0.00000
 Structure written by MMmdl.
 30 31  0  0  0  0  0  0  0  0  1 V2000
  153.6036  138.5640  154.4742 C   0  0  0  0  0  0  0  0  0  0  0  0
  152.9060  139.5120  155.2748 O   0  0  0  0  0  0  0  0  0  0  0  0
  151.5596  139.7130  155.0369 C   0  0  0  0  0  0  0  0  0  0  0  0
  150.9466  138.9410  154.1045 N   0  0  0  0  0  0  0  0  0  0  0  0
  149.6312  139.1317  153.8756 C   0  0  0  0  0  0  0  0  0  0  0  0
  148.8602  140.0868  154.5630 C   0  0  0  0  0  0  0  0  0  0  0  0
  149.4935  140.8891  155.5299 C   0  0  0  0  0  0  0  0  0  0  0  0
  150.8781  140.7139  155.7685 C   0  0  0  0  0  0  0  0  0  0  0  0
  151.6107  141.4594  156.7332 N   0  0  0  0  0  0  0  0  0  0  0  0
  151.1438  142.2778  157.6937 C   0  0  0  0  0  0  0  0  0  0  0  0
  149.9519  142.5138  157.8923 O   0  0  0  0  0  0  0  0  0  0  0  0
  152.2084  142.9455  158.5719 C   0  0  1  0  0  0  0  0  0  0  0  0
  152.3114  144.4709  158.3825 C   0  0  0  0  0  0  0  0  0  0  0  0
  151.7897  145.0340  159.6902 C   0  0  0  0  0  0  0  0  0  0  0  0
  152.1404  143.9247  160.6712 C   0  0  0  0  0  0  0  0  0  0  0  0
  151.8459  142.7472  159.9371 O   0  0  0  0  0  0  0  0  0  0  0  0
  154.6458  138.5229  154.7904 H   0  0  0  0  0  0  0  0  0  0  0  0
  153.5891  138.8440  153.4198 H   0  0  0  0  0  0  0  0  0  0  0  0
  153.1845  137.5631  154.5856 H   0  0  0  0  0  0  0  0  0  0  0  0
  149.1781  138.4990  153.1268 H   0  0  0  0  0  0  0  0  0  0  0  0
  147.8059  140.1982  154.3571 H   0  0  0  0  0  0  0  0  0  0  0  0
  148.9040  141.6084  156.0770 H   0  0  0  0  0  0  0  0  0  0  0  0
  152.6150  141.4236  156.6338 H   0  0  0  0  0  0  0  0  0  0  0  0
  153.1845  142.4899  158.3957 H   0  0  0  0  0  0  0  0  0  0  0  0
  153.3562  144.7527  158.2454 H   0  0  0  0  0  0  0  0  0  0  0  0
  151.7578  144.8541  157.5237 H   0  0  0  0  0  0  0  0  0  0  0  0
  152.2350  145.9941  159.9519 H   0  0  0  0  0  0  0  0  0  0  0  0
  150.7072  145.1592  159.6400 H   0  0  0  0  0  0  0  0  0  0  0  0
  153.2023  143.9454  160.9216 H   0  0  0  0  0  0  0  0  0  0  0  0
  151.5638  143.9778  161.5947 H   0  0  0  0  0  0  0  0  0  0  0  0
  1  2  1  0  0  0  0
  1 17  1  0  0  0  0
  1 18  1  0  0  0  0
  1 19  1  0  0  0  0
  2  3  1  0  0  0  0
  3  8  1  0  0  0  0
  3  4  2  0  0  0  0
  4  5  1  0  0  0  0
  5  6  2  0  0  0  0
  5 20  1  0  0  0  0
  6  7  1  0  0  0  0
  6 21  1  0  0  0  0
  7  8  2  0  0  0  0
  7 22  1  0  0  0  0
  8  9  1  0  0  0  0
  9 10  1  0  0  0  0
  9 23  1  0  0  0  0
 10 11  2  0  0  0  0
 10 12  1  0  0  0  0
 12 16  1  0  0  0  0
 12 13  1  0  0  0  0
 12 24  1  0  0  0  0
 13 14  1  0  0  0  0
 13 25  1  0  0  0  0
 13 26  1  0  0  0  0
 14 15  1  0  0  0  0
 14 27  1  0  0  0  0
 14 28  1  0  0  0  0
 15 16  1  0  0  0  0
 15 29  1  0  0  0  0
 15 30  1  0  0  0  0
M  END
> <s_m_source_file>
AV-unprocessed.smi

> <i_m_source_file_index>
2085

> <i_lp_mmshare_version>
43012

> <i_f3d_flags>
0

> <s_epik_input>
W0NIM11PYzFuW2NIXVtjSF1bY0hdYzFbTkhdQyg9TylbQ0BASF0yW0NIMl1bQ0gyXVtDSDJdTzI=

> <s_epik_cmdline>
J2VwaWtfcHl0aG9uJywgJy1waCcsICc3LjAnLCAnLXRuJywgJzgnLCAnLW1hJywgJzIwMCcsICctbWV0YWxfYmluZGluZycsICctaW1hZScsICc8aW5maWxlLm1hZT4nLCAnLW9tYWUnLCAnPG91dGZpbGUubWFlPic=

> <r_lp_tautomer_probability>
1

> <r_epik_Ionization_Penalty>
2.59253e-05

> <r_epik_Ionization_Penalty_Charging>
0

> <r_epik_Ionization_Penalty_Neutral>
2.59253e-05

> <r_epik_State_Penalty>
-0

> <r_epik_Charging_Adjusted_Penalty>
0

> <i_epik_Tot_Q>
0

> <i_epik_Tot_abs_Q>
0

> <r_epik_Metal_State_Penalty>
-0

> <b_epik_Metal_Only>
0

> <s_lp_Force_Field>
OPLS_2005

> <r_lp_Energy>
23.5272

> <b_lp_Chiralities_Consistent>
1

> <s_lp_Variant>
AV-unprocessed.smi:2085-2

> <Gold.Version>
5.8.1

> <Gold.Id.Protein>
6NUR|6NUR_protein|mol2

> <Gold.PLP.Fitness>
39.3375

> <Gold.PLP.PLP>
-33.1318

> <Gold.PLP.part.hbond>
-1.1825

> <Gold.PLP.part.metal>
0.0000

> <Gold.PLP.part.buried>
1.0429

> <Gold.PLP.part.nonpolar>
-33.5717

> <Gold.PLP.part.repulsive>
0.4626

> <Gold.PLP.ligand.clash>
0.0000

> <Gold.PLP.ligand.torsion>
0.1949

> <Gold.PLP.Chemscore.Hbond>
1.0000

> <Gold.PLP.Chemscore.CHOScore>
1.1950

> <Gold.PLP.Chemscore.Metal>
0.0000

> <Gold.Chemscore.Hbonds>
donor molecule, donor type, donor heavy atom, donor atom, acceptor molecule, acceptor atom, score
      P1  H  7997  8008       L1     2  0.86
      L1  C     5    20       P1  7948  0.89
      L1  C     5    20       P1  7957  0.34

> <Gold.PLP.Chemscore.Internal.Correction>
0.0106

> <Gold.Rescore>
     Score         DG    S(hbond)    S(metal)    S(lipo)     H(rot)  DE(clash)    DE(int)     intcor
     11.10     -12.53       0.20        0.00      81.51       1.24       0.11       1.31       ----

> <Gold.Chemscore.Fitness>
11.1030

> <Gold.Chemscore.DG>
-12.5251

> <Gold.Chemscore.ZeroCoef>
-5.4800

> <Gold.Chemscore.Hbond>
0.2030

> <Gold.Chemscore.Metal>
0.0000

> <Gold.Chemscore.Lipo>
81.5079

> <Gold.Chemscore.Internal_Hbond>
0.0000

> <Gold.Chemscore.DEClash>
0.1124

> <Gold.Chemscore.DEInternal>
1.3098

> <Gold.Chemscore.Rot>
1.2381

> <Gold.Chemscore.Internal.Correction>
   9.000000E+99

> <Gold.Chemscore.Hbonds>
donor molecule, donor type, donor heavy atom, donor atom, acceptor molecule, acceptor atom, score
      P1  H  7997  8008       L1     2  0.22

> <Gold.Chemscore.Hbond.Weighted>
-0.6781

> <Gold.Chemscore.Metal.Weighted>
-0.0000

> <Gold.Chemscore.Lipo.Weighted>
-9.5364

> <Gold.Chemscore.Internal_Hbond.Weighted>
0.0000

> <Gold.Chemscore.DEClash.Weighted>
0.1124

> <Gold.Chemscore.DEInternal.Weighted>
1.3098

> <Gold.Chemscore.Rot.Weighted>
3.1694

> <Gold.Chemscore.Internal.Correction.Weighted>
   9.000000E+99

> <Gold.Protein.RotatedTorsions>
[ 6907 6896 6895 6894 ] final   54.55 input  -60.11 | X-H torsion
[ 7974 7965 7964 7962 ] final -135.77 input  175.53 | X-H torsion
[ 8008 7997 7996 7995 ] final  -48.34 input   59.86 | X-H torsion
[ 10167 10162 10161 10158 ] final  163.39 input  -65.29 | X-H torsion
[ 10718 10713 10712 10709 ] final   59.38 input   66.30 | X-H torsion
[ 10763 10752 10751 10750 ] final -167.01 input  -60.55 | X-H torsion
[ 11005 11000 10999 10996 ] final  -99.72 input  -57.11 | X-H torsion

> <Gold.Protein.ActiveResidues>
 VAL166  LYS551  ARG553  GLY616  TRP617  ASP618  TYR619  PRO620  LYS621  CYS622 
 ASP623  PHE694  ASN695  SER759  ASP760  ASP761  ALA762  ILE779  LEU786  VAL792 
 PHE793  MET794  SER795  GLU796  ALA797  LYS798  CYS799  TRP800  GLU811  SER814 

> <Gold.Protein.RotatedAtoms>
  152.3450  134.7083  160.0252 H   0  0  0  0  0  0  0  0  0  0  0  0  # atno 6907 bound_to 6896
  151.7456  133.3319  159.3385 H   0  0  0  0  0  0  0  0  0  0  0  0  # atno 6908 bound_to 6896
  150.7503  134.6171  159.6161 H   0  0  0  0  0  0  0  0  0  0  0  0  # atno 6909 bound_to 6896
  144.8985  140.6739  143.5100 H   0  0  0  0  0  0  0  0  0  0  0  0  # atno 7974 bound_to 7965
  154.4028  140.1324  156.4323 H   0  0  0  0  0  0  0  0  0  0  0  0  # atno 8008 bound_to 7997
  155.7539  140.3487  155.5144 H   0  0  0  0  0  0  0  0  0  0  0  0  # atno 8009 bound_to 7997
  155.8923  140.1005  157.1400 H   0  0  0  0  0  0  0  0  0  0  0  0  # atno 8010 bound_to 7997
  139.4873  144.4342  151.9033 H   0  0  0  0  0  0  0  0  0  0  0  0  # atno 10167 bound_to 10162
  157.5671  130.8879  149.9205 H   0  0  0  0  0  0  0  0  0  0  0  0  # atno 10718 bound_to 10713
  154.6775  135.2949  154.9658 H   0  0  0  0  0  0  0  0  0  0  0  0  # atno 10763 bound_to 10752
  154.0664  135.6624  153.4822 H   0  0  0  0  0  0  0  0  0  0  0  0  # atno 10764 bound_to 10752
  153.0526  135.5164  154.7801 H   0  0  0  0  0  0  0  0  0  0  0  0  # atno 10765 bound_to 10752
  141.1298  133.8343  157.1008 H   0  0  0  0  0  0  0  0  0  0  0  0  # atno 11005 bound_to 11000
  145.3658  139.1670  143.4358 LP  0  0  0  0  0  0  0  0  0  0  0  0  # atno 17320 bound_to 7965
  146.3095  140.3725  142.8675 LP  0  0  0  0  0  0  0  0  0  0  0  0  # atno 17321 bound_to 7965
  140.3790  144.2759  150.5911 LP  0  0  0  0  0  0  0  0  0  0  0  0  # atno 17342 bound_to 10162
  140.5250  143.2256  151.8329 LP  0  0  0  0  0  0  0  0  0  0  0  0  # atno 17343 bound_to 10162
  156.0719  130.3684  150.0759 LP  0  0  0  0  0  0  0  0  0  0  0  0  # atno 17370 bound_to 10713
  156.8916  130.9590  151.3587 LP  0  0  0  0  0  0  0  0  0  0  0  0  # atno 17371 bound_to 10713
  140.0334  134.9890  157.0825 LP  0  0  0  0  0  0  0  0  0  0  0  0  # atno 17394 bound_to 11000
  140.4248  134.1842  155.7165 LP  0  0  0  0  0  0  0  0  0  0  0  0  # atno 17395 bound_to 11000

$$$$
