AV-unprocessed.smi:3124|AV-procd|sdf|11904|dock3
  -GOLD-   2272017283D 1   1.00000     0.00000
 Structure written by MMmdl.
 24 24  0  0  0  0  0  0  0  0  2 V2000
  150.9018  138.6194  155.0643 C   0  0  0  0  0  0  0  0  0  0  0  0
  150.7047  139.9578  155.7136 C   0  0  0  0  0  0  0  0  0  0  0  0
  150.8752  140.3038  157.0860 C   0  0  0  0  0  0  0  0  0  0  0  0
  150.5748  141.6379  157.1418 C   0  0  0  0  0  0  0  0  0  0  0  0
  150.5419  142.6197  158.2729 C   0  0  0  0  0  0  0  0  0  0  0  0
  151.6376  143.7030  158.2278 C   0  0  2  0  0  0  0  0  0  0  0  0
  151.5095  144.6869  159.3989 C   0  0  0  0  0  0  0  0  0  0  0  0
  151.6040  144.4340  156.9471 N   0  3  0  0  0  0  0  0  0  0  0  0
  150.2434  142.0044  155.8571 N   0  0  0  0  0  0  0  0  0  0  0  0
  150.3263  140.9905  154.9767 N   0  0  0  0  0  0  0  0  0  0  0  0
  149.9635  142.9314  155.5689 H   0  0  0  0  0  0  0  0  0  0  0  0
  150.8568  137.8155  155.7992 H   0  0  0  0  0  0  0  0  0  0  0  0
  151.8721  138.5642  154.5705 H   0  0  0  0  0  0  0  0  0  0  0  0
  150.1342  138.4238  154.3147 H   0  0  0  0  0  0  0  0  0  0  0  0
  151.1717  139.6625  157.9026 H   0  0  0  0  0  0  0  0  0  0  0  0
  149.5615  143.0971  158.3070 H   0  0  0  0  0  0  0  0  0  0  0  0
  150.6324  142.0644  159.2073 H   0  0  0  0  0  0  0  0  0  0  0  0
  152.6129  143.2205  158.3035 H   0  0  0  0  0  0  0  0  0  0  0  0
  151.5768  144.1686  160.3561 H   0  0  0  0  0  0  0  0  0  0  0  0
  150.5554  145.2144  159.3736 H   0  0  0  0  0  0  0  0  0  0  0  0
  152.3039  145.4337  159.3751 H   0  0  0  0  0  0  0  0  0  0  0  0
  151.6680  145.4267  157.1219 H   0  0  0  0  0  0  0  0  0  0  0  0
  150.7370  144.2331  156.4687 H   0  0  0  0  0  0  0  0  0  0  0  0
  152.3808  144.1431  156.3712 H   0  0  0  0  0  0  0  0  0  0  0  0
  1  2  1  0  0  0  0
  1 12  1  0  0  0  0
  1 13  1  0  0  0  0
  1 14  1  0  0  0  0
  2 10  2  0  0  0  0
  2  3  1  0  0  0  0
  3  4  2  0  0  0  0
  3 15  1  0  0  0  0
  4  5  1  0  0  0  0
  4  9  1  0  0  0  0
  5  6  1  0  0  0  0
  5 16  1  0  0  0  0
  5 17  1  0  0  0  0
  6  7  1  0  0  0  0
  6  8  1  0  0  0  0
  6 18  1  0  0  0  0
  7 19  1  0  0  0  0
  7 20  1  0  0  0  0
  7 21  1  0  0  0  0
  8 22  1  0  0  0  0
  8 23  1  0  0  0  0
  8 24  1  0  0  0  0
  9 11  1  0  0  0  0
  9 10  1  0  0  0  0
M  CHG  1   8   1
M  END
> <s_m_source_file>
AV-unprocessed.smi

> <i_m_source_file_index>
3124

> <i_lp_mmshare_version>
43012

> <i_f3d_flags>
0

> <s_epik_input>
W0NIM11jMVtjSF1jKFtuSF1uMSlbQ0gyXVtDQEhdKFtDSDNdKVtOSDJd

> <s_epik_cmdline>
J2VwaWtfcHl0aG9uJywgJy1waCcsICc3LjAnLCAnLXRuJywgJzgnLCAnLW1hJywgJzIwMCcsICctbWV0YWxfYmluZGluZycsICctaW1hZScsICc8aW5maWxlLm1hZT4nLCAnLW9tYWUnLCAnPG91dGZpbGUubWFlPic=

> <r_lp_tautomer_probability>
0.5

> <r_epik_Ionization_Penalty>
0.00227197

> <r_epik_Ionization_Penalty_Charging>
0.00223142

> <r_epik_Ionization_Penalty_Neutral>
4.05538e-05

> <r_epik_State_Penalty>
0.446108

> <r_epik_Charging_Adjusted_Penalty>
0.448339

> <i_epik_Tot_Q>
1

> <i_epik_Tot_abs_Q>
1

> <r_epik_Metal_State_Penalty>
0.444886

> <b_epik_Metal_Only>
0

> <s_lp_Force_Field>
OPLS_2005

> <r_lp_Energy>
4.61412

> <b_lp_Chiralities_Consistent>
1

> <s_lp_Variant>
AV-unprocessed.smi:3124-3

> <Gold.Version>
5.8.1

> <Gold.Id.Protein>
6NUR|6NUR_protein|mol2

> <Gold.PLP.Fitness>
31.3102

> <Gold.PLP.PLP>
-20.7828

> <Gold.PLP.part.hbond>
-3.0000

> <Gold.PLP.part.metal>
0.0000

> <Gold.PLP.part.buried>
-2.0398

> <Gold.PLP.part.nonpolar>
-16.5980

> <Gold.PLP.part.repulsive>
0.2896

> <Gold.PLP.ligand.clash>
0.0000

> <Gold.PLP.ligand.torsion>
0.0872

> <Gold.PLP.Chemscore.Hbond>
3.5662

> <Gold.PLP.Chemscore.CHOScore>
0.0000

> <Gold.PLP.Chemscore.Metal>
0.0000

> <Gold.Chemscore.Hbonds>
donor molecule, donor type, donor heavy atom, donor atom, acceptor molecule, acceptor atom, score
      L1  H     8    23       P1  8028  1.89
      L1  H     9    11       P1  8028  0.86
      P1  H  7989  7998       L1    10  0.72

> <Gold.PLP.Chemscore.Internal.Correction>
0.0033

> <Gold.Rescore>
     Score         DG    S(hbond)    S(metal)    S(lipo)     H(rot)  DE(clash)    DE(int)     intcor
     14.26     -15.65       2.25        0.00      51.14       1.30       0.19       1.21       ----

> <Gold.Chemscore.Fitness>
14.2571

> <Gold.Chemscore.DG>
-15.6541

> <Gold.Chemscore.ZeroCoef>
-5.4800

> <Gold.Chemscore.Hbond>
2.2502

> <Gold.Chemscore.Metal>
0.0000

> <Gold.Chemscore.Lipo>
51.1360

> <Gold.Chemscore.Internal_Hbond>
0.0000

> <Gold.Chemscore.DEClash>
0.1865

> <Gold.Chemscore.DEInternal>
1.2104

> <Gold.Chemscore.Rot>
1.2987

> <Gold.Chemscore.Internal.Correction>
   9.000000E+99

> <Gold.Chemscore.Hbonds>
donor molecule, donor type, donor heavy atom, donor atom, acceptor molecule, acceptor atom, score
      L1  H     8    23       P1  8028  0.87
      L1  H     9    11       P1  8028  0.83
      P1  H  7989  7998       L1    10  0.21

> <Gold.Chemscore.Hbond.Weighted>
-7.5158

> <Gold.Chemscore.Metal.Weighted>
-0.0000

> <Gold.Chemscore.Lipo.Weighted>
-5.9829

> <Gold.Chemscore.Internal_Hbond.Weighted>
0.0000

> <Gold.Chemscore.DEClash.Weighted>
0.1865

> <Gold.Chemscore.DEInternal.Weighted>
1.2104

> <Gold.Chemscore.Rot.Weighted>
3.3246

> <Gold.Chemscore.Internal.Correction.Weighted>
   9.000000E+99

> <Gold.Protein.RotatedTorsions>
[ 6907 6896 6895 6894 ] final   20.18 input  -60.11 | X-H torsion
[ 7974 7965 7964 7962 ] final  147.88 input  175.53 | X-H torsion
[ 8008 7997 7996 7995 ] final -100.28 input   59.86 | X-H torsion
[ 10167 10162 10161 10158 ] final   24.55 input  -65.29 | X-H torsion
[ 10718 10713 10712 10709 ] final  149.65 input   66.30 | X-H torsion
[ 10763 10752 10751 10750 ] final  122.19 input  -60.55 | X-H torsion
[ 11005 11000 10999 10996 ] final  106.97 input  -57.11 | X-H torsion

> <Gold.Protein.ActiveResidues>
 VAL166  LYS551  ARG553  GLY616  TRP617  ASP618  TYR619  PRO620  LYS621  CYS622 
 ASP623  PHE694  ASN695  SER759  ASP760  ASP761  ALA762  ILE779  LEU786  VAL792 
 PHE793  MET794  SER795  GLU796  ALA797  LYS798  CYS799  TRP800  GLU811  SER814 

> <Gold.Protein.RotatedAtoms>
  151.8924  135.0411  160.0498 H   0  0  0  0  0  0  0  0  0  0  0  0  # atno 6907 bound_to 6896
  152.2425  133.5143  159.5287 H   0  0  0  0  0  0  0  0  0  0  0  0  # atno 6908 bound_to 6896
  150.7058  134.0986  159.4000 H   0  0  0  0  0  0  0  0  0  0  0  0  # atno 6909 bound_to 6896
  144.8557  139.6083  143.5953 H   0  0  0  0  0  0  0  0  0  0  0  0  # atno 7974 bound_to 7965
  154.8264  140.0442  157.1447 H   0  0  0  0  0  0  0  0  0  0  0  0  # atno 8008 bound_to 7997
  154.9201  140.3025  155.5200 H   0  0  0  0  0  0  0  0  0  0  0  0  # atno 8009 bound_to 7997
  156.2984  140.2342  156.4250 H   0  0  0  0  0  0  0  0  0  0  0  0  # atno 8010 bound_to 7997
  140.5179  144.0052  150.6402 H   0  0  0  0  0  0  0  0  0  0  0  0  # atno 10167 bound_to 10162
  157.2934  131.0857  151.1445 H   0  0  0  0  0  0  0  0  0  0  0  0  # atno 10718 bound_to 10713
  153.6258  135.3405  155.3026 H   0  0  0  0  0  0  0  0  0  0  0  0  # atno 10763 bound_to 10752
  154.8590  135.4284  154.2158 H   0  0  0  0  0  0  0  0  0  0  0  0  # atno 10764 bound_to 10752
  153.3042  135.7027  153.7248 H   0  0  0  0  0  0  0  0  0  0  0  0  # atno 10765 bound_to 10752
  139.8821  134.9386  156.5747 H   0  0  0  0  0  0  0  0  0  0  0  0  # atno 11005 bound_to 11000
  146.2821  139.6905  142.9221 LP  0  0  0  0  0  0  0  0  0  0  0  0  # atno 17320 bound_to 7965
  145.4411  141.0422  143.2857 LP  0  0  0  0  0  0  0  0  0  0  0  0  # atno 17321 bound_to 7965
  140.3393  143.3029  152.0605 LP  0  0  0  0  0  0  0  0  0  0  0  0  # atno 17342 bound_to 10162
  139.4914  144.6454  151.6789 LP  0  0  0  0  0  0  0  0  0  0  0  0  # atno 17343 bound_to 10162
  157.2832  130.6760  149.6076 LP  0  0  0  0  0  0  0  0  0  0  0  0  # atno 17370 bound_to 10713
  155.9668  130.4443  150.5457 LP  0  0  0  0  0  0  0  0  0  0  0  0  # atno 17371 bound_to 10713
  140.8072  133.8458  155.8778 LP  0  0  0  0  0  0  0  0  0  0  0  0  # atno 17394 bound_to 11000
  140.9539  134.1742  157.4706 LP  0  0  0  0  0  0  0  0  0  0  0  0  # atno 17395 bound_to 11000

$$$$
