AV-unprocessed.smi:283|AV-procd|sdf|2135|dock2
  -GOLD-   2262021453D 1   1.00000     0.00000
 Structure written by MMmdl.
 48 51  0  0  0  0  0  0  0  0  1 V2000
  151.1007  140.6616  156.2498 C   0  0  0  0  0  0  0  0  0  0  0  0
  150.1546  141.2542  157.3025 C   0  0  2  0  0  0  0  0  0  0  0  0
  148.9599  141.7928  156.6545 N   0  0  0  0  0  0  0  0  0  0  0  0
  147.8350  141.0502  156.5520 C   0  0  0  0  0  0  0  0  0  0  0  0
  146.9535  140.9645  157.5821 N   0  0  0  0  0  0  0  0  0  0  0  0
  145.8478  140.2262  157.4546 C   0  0  0  0  0  0  0  0  0  0  0  0
  145.4437  139.5056  156.4068 N   0  0  0  0  0  0  0  0  0  0  0  0
  146.3269  139.5820  155.3695 C   0  0  0  0  0  0  0  0  0  0  0  0
  147.5381  140.3294  155.3667 C   0  0  0  0  0  0  0  0  0  0  0  0
  148.1819  140.1808  154.1459 N   0  0  0  0  0  0  0  0  0  0  0  0
  147.3940  139.3899  153.4692 C   0  0  0  0  0  0  0  0  0  0  0  0
  146.2539  138.9825  154.1261 N   0  0  0  0  0  0  0  0  0  0  0  0
  145.1793  138.0833  153.5900 C   0  0  1  0  0  0  0  0  0  0  0  0
  145.4861  137.7106  152.2787 O   0  0  0  0  0  0  0  0  0  0  0  0
  145.6508  136.2962  152.1846 C   0  0  2  0  0  0  0  0  0  0  0  0
  145.2844  135.7886  150.7794 C   0  0  0  0  0  0  0  0  0  0  0  0
  145.7497  136.6956  149.8030 O   0  0  0  0  0  0  0  0  0  0  0  0
  144.7923  135.7499  153.3328 C   0  0  2  0  0  0  0  0  0  0  0  0
  143.4284  135.6702  152.9595 O   0  0  0  0  0  0  0  0  0  0  0  0
  144.9897  136.7962  154.4185 C   0  0  1  0  0  0  0  0  0  0  0  0
  146.1024  136.4661  155.2311 O   0  0  0  0  0  0  0  0  0  0  0  0
  150.8965  142.2628  158.1825 C   0  0  0  0  0  0  0  0  0  0  0  0
  150.5373  143.6297  158.1323 C   0  0  0  0  0  0  0  0  0  0  0  0
  151.2025  144.5770  158.9329 C   0  0  0  0  0  0  0  0  0  0  0  0
  152.2394  144.1677  159.7902 C   0  0  0  0  0  0  0  0  0  0  0  0
  152.6121  142.8118  159.8410 C   0  0  0  0  0  0  0  0  0  0  0  0
  151.9501  141.8586  159.0408 C   0  0  0  0  0  0  0  0  0  0  0  0
  152.4588  140.2088  159.1376 Cl  0  0  0  0  0  0  0  0  0  0  0  0
  144.2850  138.7074  153.5741 H   0  0  0  0  0  0  0  0  0  0  0  0
  146.6892  136.0462  152.4056 H   0  0  0  0  0  0  0  0  0  0  0  0
  145.1146  134.7558  153.6459 H   0  0  0  0  0  0  0  0  0  0  0  0
  144.1176  136.8993  155.0656 H   0  0  0  0  0  0  0  0  0  0  0  0
  151.9601  140.1840  156.7214 H   0  0  0  0  0  0  0  0  0  0  0  0
  151.4765  141.4306  155.5739 H   0  0  0  0  0  0  0  0  0  0  0  0
  150.5951  139.9062  155.6474 H   0  0  0  0  0  0  0  0  0  0  0  0
  149.8105  140.4271  157.9221 H   0  0  0  0  0  0  0  0  0  0  0  0
  148.9768  142.7843  156.4633 H   0  0  0  0  0  0  0  0  0  0  0  0
  145.1939  140.2107  158.3141 H   0  0  0  0  0  0  0  0  0  0  0  0
  147.6236  139.0804  152.4599 H   0  0  0  0  0  0  0  0  0  0  0  0
  145.7653  134.8288  150.5886 H   0  0  0  0  0  0  0  0  0  0  0  0
  144.2089  135.6418  150.6759 H   0  0  0  0  0  0  0  0  0  0  0  0
  145.1640  137.4371  149.7809 H   0  0  0  0  0  0  0  0  0  0  0  0
  143.0043  135.0273  153.5071 H   0  0  0  0  0  0  0  0  0  0  0  0
  145.9542  135.6134  155.6102 H   0  0  0  0  0  0  0  0  0  0  0  0
  149.7446  143.9599  157.4771 H   0  0  0  0  0  0  0  0  0  0  0  0
  150.9169  145.6176  158.8887 H   0  0  0  0  0  0  0  0  0  0  0  0
  152.7502  144.8930  160.4062 H   0  0  0  0  0  0  0  0  0  0  0  0
  153.4118  142.5015  160.4974 H   0  0  0  0  0  0  0  0  0  0  0  0
  1  2  1  0  0  0  0
  1 33  1  0  0  0  0
  1 34  1  0  0  0  0
  1 35  1  0  0  0  0
  2  3  1  0  0  0  0
  2 22  1  0  0  0  0
  2 36  1  0  0  0  0
  3  4  1  0  0  0  0
  3 37  1  0  0  0  0
  4  9  1  0  0  0  0
  4  5  2  0  0  0  0
  5  6  1  0  0  0  0
  6  7  2  0  0  0  0
  6 38  1  0  0  0  0
  7  8  1  0  0  0  0
  8 12  1  0  0  0  0
  8  9  2  0  0  0  0
  9 10  1  0  0  0  0
 10 11  2  0  0  0  0
 11 12  1  0  0  0  0
 11 39  1  0  0  0  0
 12 13  1  0  0  0  0
 13 29  1  0  0  0  0
 13 20  1  0  0  0  0
 13 14  1  0  0  0  0
 14 15  1  0  0  0  0
 15 30  1  0  0  0  0
 15 16  1  0  0  0  0
 15 18  1  0  0  0  0
 16 17  1  0  0  0  0
 16 40  1  0  0  0  0
 16 41  1  0  0  0  0
 17 42  1  0  0  0  0
 18 31  1  0  0  0  0
 18 19  1  0  0  0  0
 18 20  1  0  0  0  0
 19 43  1  0  0  0  0
 20 32  1  0  0  0  0
 20 21  1  0  0  0  0
 21 44  1  0  0  0  0
 22 27  1  0  0  0  0
 22 23  2  0  0  0  0
 23 24  1  0  0  0  0
 23 45  1  0  0  0  0
 24 25  2  0  0  0  0
 24 46  1  0  0  0  0
 25 26  1  0  0  0  0
 25 47  1  0  0  0  0
 26 27  2  0  0  0  0
 26 48  1  0  0  0  0
 27 28  1  0  0  0  0
M  END
> <s_m_source_file>
AV-unprocessed.smi

> <i_m_source_file_index>
283

> <i_lp_mmshare_version>
43012

> <i_f3d_flags>
0

> <s_epik_input>
Q2xjMVtjSF1bY0hdW2NIXVtjSF1jMVtDQEhdKFtDSDNdKVtOSF1jKG5bY0hdbjIpYyhjMjMpbltjSF1uM1tDQEBIXTRPW0NASF0oW0NIMl1bT0hdKVtDQEBIXShbT0hdKVtDQEhdNFtPSF0=

> <s_epik_cmdline>
J2VwaWtfcHl0aG9uJywgJy1waCcsICc3LjAnLCAnLXRuJywgJzgnLCAnLW1hJywgJzIwMCcsICctbWV0YWxfYmluZGluZycsICctaW1hZScsICc8aW5maWxlLm1hZT4nLCAnLW9tYWUnLCAnPG91dGZpbGUubWFlPic=

> <r_lp_tautomer_probability>
1

> <r_epik_Ionization_Penalty>
0.000266407

> <r_epik_Ionization_Penalty_Charging>
0

> <r_epik_Ionization_Penalty_Neutral>
0.000266407

> <r_epik_State_Penalty>
-0

> <r_epik_Charging_Adjusted_Penalty>
0

> <i_epik_Tot_Q>
0

> <i_epik_Tot_abs_Q>
0

> <r_epik_Metal_State_Penalty>
-0

> <b_epik_Metal_Only>
0

> <s_epik_Chemistry_Notes>
This compound contains an acetal/aminal-like group ( X-CH(R)-Y where X, Y are N, S, or O) that may be acid/base labile, releasing an aldehyde.

> <s_lp_Force_Field>
OPLS_2005

> <r_lp_Energy>
46.2986

> <b_lp_Chiralities_Consistent>
1

> <s_lp_Variant>
AV-unprocessed.smi:283-11

> <Gold.Version>
5.8.1

> <Gold.Id.Protein>
6NUR|6NUR_protein|mol2

> <Gold.PLP.Fitness>
43.2737

> <Gold.PLP.PLP>
-37.7110

> <Gold.PLP.part.hbond>
-3.0000

> <Gold.PLP.part.metal>
0.0000

> <Gold.PLP.part.buried>
-3.4516

> <Gold.PLP.part.nonpolar>
-31.8277

> <Gold.PLP.part.repulsive>
0.4630

> <Gold.PLP.ligand.clash>
0.0000

> <Gold.PLP.ligand.torsion>
1.3918

> <Gold.PLP.Chemscore.Hbond>
2.0000

> <Gold.PLP.Chemscore.CHOScore>
0.7663

> <Gold.PLP.Chemscore.Metal>
0.0000

> <Gold.Chemscore.Hbonds>
donor molecule, donor type, donor heavy atom, donor atom, acceptor molecule, acceptor atom, score
      L1  H     3    37       P1  8028  0.84
      L1  H    17    42       P1 10171  1.00
      L1  C    11    39       P1  7957  0.85

> <Gold.PLP.Chemscore.Internal.Correction>
0.0473

> <Gold.Rescore>
     Score         DG    S(hbond)    S(metal)    S(lipo)     H(rot)  DE(clash)    DE(int)     intcor
     12.00     -13.07       1.98        0.00      98.08       4.10       0.04       1.03       ----

> <Gold.Chemscore.Fitness>
12.0046

> <Gold.Chemscore.DG>
-13.0710

> <Gold.Chemscore.ZeroCoef>
-5.4800

> <Gold.Chemscore.Hbond>
1.9771

> <Gold.Chemscore.Metal>
0.0000

> <Gold.Chemscore.Lipo>
98.0789

> <Gold.Chemscore.Internal_Hbond>
0.0000

> <Gold.Chemscore.DEClash>
0.0404

> <Gold.Chemscore.DEInternal>
1.0259

> <Gold.Chemscore.Rot>
4.0968

> <Gold.Chemscore.Internal.Correction>
   9.000000E+99

> <Gold.Chemscore.Hbonds>
donor molecule, donor type, donor heavy atom, donor atom, acceptor molecule, acceptor atom, score
      L1  H     3    37       P1  8028  0.82
      L1  H    17    42       P1 10171  1.00

> <Gold.Chemscore.Hbond.Weighted>
-6.6037

> <Gold.Chemscore.Metal.Weighted>
-0.0000

> <Gold.Chemscore.Lipo.Weighted>
-11.4752

> <Gold.Chemscore.Internal_Hbond.Weighted>
0.0000

> <Gold.Chemscore.DEClash.Weighted>
0.0404

> <Gold.Chemscore.DEInternal.Weighted>
1.0259

> <Gold.Chemscore.Rot.Weighted>
10.4879

> <Gold.Chemscore.Internal.Correction.Weighted>
   9.000000E+99

> <Gold.Protein.RotatedTorsions>
[ 6907 6896 6895 6894 ] final   -8.86 input  -60.11 | X-H torsion
[ 7974 7965 7964 7962 ] final   77.31 input  175.53 | X-H torsion
[ 8008 7997 7996 7995 ] final  -80.12 input   59.86 | X-H torsion
[ 10167 10162 10161 10158 ] final  -77.56 input  -65.29 | X-H torsion
[ 10718 10713 10712 10709 ] final  127.12 input   66.30 | X-H torsion
[ 10763 10752 10751 10750 ] final  -93.12 input  -60.55 | X-H torsion
[ 11005 11000 10999 10996 ] final    5.30 input  -57.11 | X-H torsion

> <Gold.Protein.ActiveResidues>
 VAL166  LYS551  ARG553  GLY616  TRP617  ASP618  TYR619  PRO620  LYS621  CYS622 
 ASP623  PHE694  ASN695  SER759  ASP760  ASP761  ALA762  ILE779  LEU786  VAL792 
 PHE793  MET794  SER795  GLU796  ALA797  LYS798  CYS799  TRP800  GLU811  SER814 

> <Gold.Protein.RotatedAtoms>
  151.4269  135.1005  159.9630 H   0  0  0  0  0  0  0  0  0  0  0  0  # atno 6907 bound_to 6896
  152.4969  133.8654  159.7282 H   0  0  0  0  0  0  0  0  0  0  0  0  # atno 6908 bound_to 6896
  150.9183  133.6854  159.2866 H   0  0  0  0  0  0  0  0  0  0  0  0  # atno 6909 bound_to 6896
  145.6916  139.2554  143.1756 H   0  0  0  0  0  0  0  0  0  0  0  0  # atno 7974 bound_to 7965
  154.5852  140.0668  156.9161 H   0  0  0  0  0  0  0  0  0  0  0  0  # atno 8008 bound_to 7997
  155.2392  140.3343  155.4276 H   0  0  0  0  0  0  0  0  0  0  0  0  # atno 8009 bound_to 7997
  156.2217  140.1802  156.7445 H   0  0  0  0  0  0  0  0  0  0  0  0  # atno 8010 bound_to 7997
  140.4760  143.2414  151.8132 H   0  0  0  0  0  0  0  0  0  0  0  0  # atno 10167 bound_to 10162
  157.5360  131.1097  150.8934 H   0  0  0  0  0  0  0  0  0  0  0  0  # atno 10718 bound_to 10713
  154.6928  135.5206  153.8416 H   0  0  0  0  0  0  0  0  0  0  0  0  # atno 10763 bound_to 10752
  153.0645  135.6580  154.0396 H   0  0  0  0  0  0  0  0  0  0  0  0  # atno 10764 bound_to 10752
  154.0267  135.2989  155.3353 H   0  0  0  0  0  0  0  0  0  0  0  0  # atno 10765 bound_to 10752
  140.5722  134.0092  155.8013 H   0  0  0  0  0  0  0  0  0  0  0  0  # atno 11005 bound_to 11000
  146.0876  140.7692  142.9611 LP  0  0  0  0  0  0  0  0  0  0  0  0  # atno 17320 bound_to 7965
  144.6995  140.3587  143.7168 LP  0  0  0  0  0  0  0  0  0  0  0  0  # atno 17321 bound_to 7965
  139.4825  144.4833  151.9279 LP  0  0  0  0  0  0  0  0  0  0  0  0  # atno 17342 bound_to 10162
  140.3918  144.2606  150.5899 LP  0  0  0  0  0  0  0  0  0  0  0  0  # atno 17343 bound_to 10162
  156.9501  130.5416  149.5282 LP  0  0  0  0  0  0  0  0  0  0  0  0  # atno 17370 bound_to 10713
  156.0459  130.5536  150.8880 LP  0  0  0  0  0  0  0  0  0  0  0  0  # atno 17371 bound_to 10713
  141.1049  133.9709  157.3014 LP  0  0  0  0  0  0  0  0  0  0  0  0  # atno 17394 bound_to 11000
  139.9356  135.0196  156.8546 LP  0  0  0  0  0  0  0  0  0  0  0  0  # atno 17395 bound_to 11000

$$$$
