AV-unprocessed.smi:72|AV-procd|sdf|748|dock5
  -GOLD-   2262017 83D 1   1.00000     0.00000
 Structure written by MMmdl.
 29 30  0  0  0  0  0  0  0  0  1 V2000
  148.8327  138.8507  153.1314 N   0  0  0  0  0  0  0  0  0  0  0  0
  149.5879  139.5384  154.0583 C   0  0  0  0  0  0  0  0  0  0  0  0
  149.0142  140.7011  154.5907 N   0  0  0  0  0  0  0  0  0  0  0  0
  149.7206  141.3520  155.4602 C   0  0  0  0  0  0  0  0  0  0  0  0
  151.0399  140.8901  155.8586 N   0  0  0  0  0  0  0  0  0  0  0  0
  151.8937  141.6322  156.8734 C   0  0  1  0  0  0  0  0  0  0  0  0
  151.2569  142.8146  157.2646 O   0  0  0  0  0  0  0  0  0  0  0  0
  150.7782  142.6975  158.6012 C   0  0  2  0  0  0  0  0  0  0  0  0
  150.5847  144.0806  159.2469 C   0  0  0  0  0  0  0  0  0  0  0  0
  149.4557  144.7214  158.6923 O   0  0  0  0  0  0  0  0  0  0  0  0
  151.8294  141.7983  159.2639 C   0  0  2  0  0  0  0  0  0  0  0  0
  152.9748  142.5414  159.6418 O   0  0  0  0  0  0  0  0  0  0  0  0
  152.1766  140.8120  158.1564 C   0  0  1  0  0  0  0  0  0  0  0  0
  151.3734  139.6512  158.2857 O   0  0  0  0  0  0  0  0  0  0  0  0
  151.5579  139.6996  155.2787 C   0  0  0  0  0  0  0  0  0  0  0  0
  152.6687  139.2850  155.6102 O   0  0  0  0  0  0  0  0  0  0  0  0
  150.7551  139.0366  154.3432 N   0  0  0  0  0  0  0  0  0  0  0  0
  152.8009  141.9164  156.3380 H   0  0  0  0  0  0  0  0  0  0  0  0
  149.8312  142.1547  158.5943 H   0  0  0  0  0  0  0  0  0  0  0  0
  151.4397  141.3072  160.1568 H   0  0  0  0  0  0  0  0  0  0  0  0
  153.2247  140.5099  158.1783 H   0  0  0  0  0  0  0  0  0  0  0  0
  149.1440  138.0015  152.6825 H   0  0  0  0  0  0  0  0  0  0  0  0
  147.9128  139.1431  152.8351 H   0  0  0  0  0  0  0  0  0  0  0  0
  149.3724  142.2687  155.9357 H   0  0  0  0  0  0  0  0  0  0  0  0
  150.4046  143.9734  160.3170 H   0  0  0  0  0  0  0  0  0  0  0  0
  151.4706  144.7045  159.1254 H   0  0  0  0  0  0  0  0  0  0  0  0
  149.4443  144.5594  157.7613 H   0  0  0  0  0  0  0  0  0  0  0  0
  153.1923  142.3248  160.5355 H   0  0  0  0  0  0  0  0  0  0  0  0
  151.5025  139.1123  157.5202 H   0  0  0  0  0  0  0  0  0  0  0  0
  1  2  1  0  0  0  0
  1 22  1  0  0  0  0
  1 23  1  0  0  0  0
  2 17  2  0  0  0  0
  2  3  1  0  0  0  0
  3  4  2  0  0  0  0
  4  5  1  0  0  0  0
  4 24  1  0  0  0  0
  5  6  1  0  0  0  0
  5 15  1  0  0  0  0
  6 18  1  0  0  0  0
  6 13  1  0  0  0  0
  6  7  1  0  0  0  0
  7  8  1  0  0  0  0
  8 19  1  0  0  0  0
  8  9  1  0  0  0  0
  8 11  1  0  0  0  0
  9 10  1  0  0  0  0
  9 25  1  0  0  0  0
  9 26  1  0  0  0  0
 10 27  1  0  0  0  0
 11 20  1  0  0  0  0
 11 12  1  0  0  0  0
 11 13  1  0  0  0  0
 12 28  1  0  0  0  0
 13 21  1  0  0  0  0
 13 14  1  0  0  0  0
 14 29  1  0  0  0  0
 15 16  2  0  0  0  0
 15 17  1  0  0  0  0
M  END
> <s_m_source_file>
AV-unprocessed.smi

> <i_m_source_file_index>
72

> <i_lp_mmshare_version>
43012

> <i_f3d_flags>
0

> <s_epik_input>
W05IMl1jMW5bY0hdbihjKD1PKW4xKVtDQEBIXTJPW0NASF0oW0NIMl1bT0hdKVtDQEBIXShbT0hdKVtDQEhdMltPSF0=

> <s_epik_cmdline>
J2VwaWtfcHl0aG9uJywgJy1waCcsICc3LjAnLCAnLXRuJywgJzgnLCAnLW1hJywgJzIwMCcsICctbWV0YWxfYmluZGluZycsICctaW1hZScsICc8aW5maWxlLm1hZT4nLCAnLW9tYWUnLCAnPG91dGZpbGUubWFlPic=

> <r_lp_tautomer_probability>
4.77166e-05

> <r_epik_Ionization_Penalty>
1.3546

> <r_epik_Ionization_Penalty_Charging>
1.46833e-10

> <r_epik_Ionization_Penalty_Neutral>
1.3546

> <r_epik_State_Penalty>
3.51908

> <r_epik_Charging_Adjusted_Penalty>
3.51908

> <i_epik_Tot_Q>
0

> <i_epik_Tot_abs_Q>
0

> <r_epik_Metal_State_Penalty>
3.44088

> <b_epik_Metal_Only>
1

> <s_epik_Chemistry_Notes>
This compound contains an acetal/aminal-like group ( X-CH(R)-Y where X, Y are N, S, or O) that may be acid/base labile, releasing an aldehyde.

> <s_lp_Force_Field>
OPLS_2005

> <r_lp_Energy>
33.7939

> <b_lp_Chiralities_Consistent>
1

> <s_lp_Variant>
AV-unprocessed.smi:72-86

> <Gold.Version>
5.8.1

> <Gold.Id.Protein>
6NUR|6NUR_protein|mol2

> <Gold.PLP.Fitness>
34.2731

> <Gold.PLP.PLP>
-24.4520

> <Gold.PLP.part.hbond>
-4.7605

> <Gold.PLP.part.metal>
0.0000

> <Gold.PLP.part.buried>
-2.8758

> <Gold.PLP.part.nonpolar>
-15.7616

> <Gold.PLP.part.repulsive>
0.4626

> <Gold.PLP.ligand.clash>
0.0000

> <Gold.PLP.ligand.torsion>
0.0855

> <Gold.PLP.Chemscore.Hbond>
2.3185

> <Gold.PLP.Chemscore.CHOScore>
0.9977

> <Gold.PLP.Chemscore.Metal>
0.0000

> <Gold.Chemscore.Hbonds>
donor molecule, donor type, donor heavy atom, donor atom, acceptor molecule, acceptor atom, score
      L1  H     1    22       P1  7948  1.00
      L1  H    10    27       P1  8028  0.26
      P1  H  7997  8010       L1    16  1.00
      L1  C     4    24       P1  8028  1.00

> <Gold.PLP.Chemscore.Internal.Correction>
0.0434

> <Gold.Rescore>
     Score         DG    S(hbond)    S(metal)    S(lipo)     H(rot)  DE(clash)    DE(int)     intcor
      4.32      -5.37       1.98        0.00      31.44       4.06       0.75       0.30       ----

> <Gold.Chemscore.Fitness>
4.3166

> <Gold.Chemscore.DG>
-5.3671

> <Gold.Chemscore.ZeroCoef>
-5.4800

> <Gold.Chemscore.Hbond>
1.9767

> <Gold.Chemscore.Metal>
0.0000

> <Gold.Chemscore.Lipo>
31.4414

> <Gold.Chemscore.Internal_Hbond>
0.0000

> <Gold.Chemscore.DEClash>
0.7547

> <Gold.Chemscore.DEInternal>
0.2958

> <Gold.Chemscore.Rot>
4.0600

> <Gold.Chemscore.Internal.Correction>
   9.000000E+99

> <Gold.Chemscore.Hbonds>
donor molecule, donor type, donor heavy atom, donor atom, acceptor molecule, acceptor atom, score
      L1  H     1    22       P1  7948  0.96
      L1  H    10    27       P1  8028  0.01
      P1  H  7997  8010       L1    16  0.97

> <Gold.Chemscore.Hbond.Weighted>
-6.6021

> <Gold.Chemscore.Metal.Weighted>
-0.0000

> <Gold.Chemscore.Lipo.Weighted>
-3.6786

> <Gold.Chemscore.Internal_Hbond.Weighted>
0.0000

> <Gold.Chemscore.DEClash.Weighted>
0.7547

> <Gold.Chemscore.DEInternal.Weighted>
0.2958

> <Gold.Chemscore.Rot.Weighted>
10.3936

> <Gold.Chemscore.Internal.Correction.Weighted>
   9.000000E+99

> <Gold.Protein.RotatedTorsions>
[ 6907 6896 6895 6894 ] final -144.69 input  -60.11 | X-H torsion
[ 7974 7965 7964 7962 ] final   62.91 input  175.53 | X-H torsion
[ 8008 7997 7996 7995 ] final   80.46 input   59.86 | X-H torsion
[ 10167 10162 10161 10158 ] final   16.14 input  -65.29 | X-H torsion
[ 10718 10713 10712 10709 ] final  133.49 input   66.30 | X-H torsion
[ 10763 10752 10751 10750 ] final  -94.16 input  -60.55 | X-H torsion
[ 11005 11000 10999 10996 ] final   67.49 input  -57.11 | X-H torsion

> <Gold.Protein.ActiveResidues>
 VAL166  LYS551  ARG553  GLY616  TRP617  ASP618  TYR619  PRO620  LYS621  CYS622 
 ASP623  PHE694  ASN695  SER759  ASP760  ASP761  ALA762  ILE779  LEU786  VAL792 
 PHE793  MET794  SER795  GLU796  ALA797  LYS798  CYS799  TRP800  GLU811  SER814 

> <Gold.Protein.RotatedAtoms>
  151.1175  133.5128  159.2603 H   0  0  0  0  0  0  0  0  0  0  0  0  # atno 6907 bound_to 6896
  151.1898  135.0397  159.8838 H   0  0  0  0  0  0  0  0  0  0  0  0  # atno 6908 bound_to 6896
  152.5454  134.1017  159.8374 H   0  0  0  0  0  0  0  0  0  0  0  0  # atno 6909 bound_to 6896
  145.8679  139.3358  143.0780 H   0  0  0  0  0  0  0  0  0  0  0  0  # atno 7974 bound_to 7965
  155.8838  140.3442  155.5906 H   0  0  0  0  0  0  0  0  0  0  0  0  # atno 8008 bound_to 7997
  155.7690  140.0843  157.2137 H   0  0  0  0  0  0  0  0  0  0  0  0  # atno 8009 bound_to 7997
  154.4027  140.1522  156.2907 H   0  0  0  0  0  0  0  0  0  0  0  0  # atno 8010 bound_to 7997
  140.5818  143.8966  150.6796 H   0  0  0  0  0  0  0  0  0  0  0  0  # atno 10167 bound_to 10162
  157.4767  131.1083  150.9734 H   0  0  0  0  0  0  0  0  0  0  0  0  # atno 10718 bound_to 10713
  154.7028  135.5168  153.8552 H   0  0  0  0  0  0  0  0  0  0  0  0  # atno 10763 bound_to 10752
  153.0717  135.6603  154.0241 H   0  0  0  0  0  0  0  0  0  0  0  0  # atno 10764 bound_to 10752
  154.0097  135.3003  155.3373 H   0  0  0  0  0  0  0  0  0  0  0  0  # atno 10765 bound_to 10752
  139.9768  134.6810  156.0339 H   0  0  0  0  0  0  0  0  0  0  0  0  # atno 11005 bound_to 11000
  145.9171  140.9141  143.0424 LP  0  0  0  0  0  0  0  0  0  0  0  0  # atno 17320 bound_to 7965
  144.6726  140.1238  143.7448 LP  0  0  0  0  0  0  0  0  0  0  0  0  # atno 17321 bound_to 7965
  140.2467  143.3623  152.1440 LP  0  0  0  0  0  0  0  0  0  0  0  0  # atno 17342 bound_to 10162
  139.5174  144.6991  151.5544 LP  0  0  0  0  0  0  0  0  0  0  0  0  # atno 17343 bound_to 10162
  157.0481  130.5776  149.5366 LP  0  0  0  0  0  0  0  0  0  0  0  0  # atno 17370 bound_to 10713
  156.0100  130.5191  150.7958 LP  0  0  0  0  0  0  0  0  0  0  0  0  # atno 17371 bound_to 10713
  141.1444  133.6558  156.3824 LP  0  0  0  0  0  0  0  0  0  0  0  0  # atno 17394 bound_to 11000
  140.5179  134.6332  157.5308 LP  0  0  0  0  0  0  0  0  0  0  0  0  # atno 17395 bound_to 11000

$$$$
