AV-unprocessed.smi:562|AV-procd|sdf|2945|dock3
  -GOLD-   2262023443D 1   1.00000     0.00000
 Structure written by MMmdl.
 40 42  0  0  0  0  0  0  0  0  2 V2000
  148.5570  136.2936  160.0245 C   0  0  0  0  0  0  0  0  0  0  0  0
  149.7212  136.5373  159.2565 O   0  0  0  0  0  0  0  0  0  0  0  0
  149.4980  137.4621  158.2048 C   0  0  0  0  0  0  0  0  0  0  0  0
  150.8253  137.7608  157.4943 C   0  0  0  0  0  0  0  0  0  0  0  0
  151.3711  139.0611  157.8759 N   0  0  0  0  0  0  0  0  0  0  0  0
  151.1359  140.2695  157.3015 C   0  0  0  0  0  0  0  0  0  0  0  0
  150.2675  140.4109  156.1983 N   0  0  0  0  0  0  0  0  0  0  0  0
  149.2254  141.2691  156.2562 N   0  0  0  0  0  0  0  0  0  0  0  0
  148.6206  141.1483  155.0862 C   0  0  0  0  0  0  0  0  0  0  0  0
  147.4084  141.9819  154.7926 C   0  0  0  0  0  0  0  0  0  0  0  0
  149.2547  140.1888  154.2483 C   0  0  0  0  0  0  0  0  0  0  0  0
  150.3016  139.7280  154.9959 C   0  0  0  0  0  0  0  0  0  0  0  0
  151.3352  138.6974  154.6760 C   0  0  0  0  0  0  0  0  0  0  0  0
  151.7552  141.2997  157.8810 N   0  0  0  0  0  0  0  0  0  0  0  0
  152.4506  140.6924  158.9167 C   0  0  0  0  0  0  0  0  0  0  0  0
  152.2315  139.3498  158.9388 C   0  0  0  0  0  0  0  0  0  0  0  0
  152.8162  138.4354  159.9435 C   0  0  0  0  0  0  0  0  0  0  0  0
  152.5740  137.2303  159.9220 O   0  0  0  0  0  0  0  0  0  0  0  0
  153.6098  139.0974  160.8439 N   0  5  0  0  0  0  0  0  0  0  0  0
  153.8608  140.4529  160.8596 C   0  0  0  0  0  0  0  0  0  0  0  0
  154.5852  140.9698  161.7113 O   0  0  0  0  0  0  0  0  0  0  0  0
  153.2945  141.2618  159.9091 N   0  0  0  0  0  0  0  0  0  0  0  0
  153.5398  142.7068  159.9049 C   0  0  0  0  0  0  0  0  0  0  0  0
  148.7856  135.5821  160.8179 H   0  0  0  0  0  0  0  0  0  0  0  0
  147.7624  135.8685  159.4101 H   0  0  0  0  0  0  0  0  0  0  0  0
  148.1912  137.2107  160.4880 H   0  0  0  0  0  0  0  0  0  0  0  0
  148.7748  137.0562  157.4960 H   0  0  0  0  0  0  0  0  0  0  0  0
  149.0783  138.3855  158.6062 H   0  0  0  0  0  0  0  0  0  0  0  0
  151.5605  136.9876  157.7132 H   0  0  0  0  0  0  0  0  0  0  0  0
  150.6812  137.7202  156.4163 H   0  0  0  0  0  0  0  0  0  0  0  0
  146.9920  141.7406  153.8145 H   0  0  0  0  0  0  0  0  0  0  0  0
  147.6530  143.0444  154.7960 H   0  0  0  0  0  0  0  0  0  0  0  0
  146.6275  141.8155  155.5352 H   0  0  0  0  0  0  0  0  0  0  0  0
  148.9799  139.8815  153.2502 H   0  0  0  0  0  0  0  0  0  0  0  0
  151.3811  138.5125  153.6029 H   0  0  0  0  0  0  0  0  0  0  0  0
  151.1047  137.7544  155.1720 H   0  0  0  0  0  0  0  0  0  0  0  0
  152.3254  139.0153  155.0023 H   0  0  0  0  0  0  0  0  0  0  0  0
  154.6083  142.9144  159.8336 H   0  0  0  0  0  0  0  0  0  0  0  0
  153.1642  143.1587  160.8237 H   0  0  0  0  0  0  0  0  0  0  0  0
  153.0552  143.2134  159.0709 H   0  0  0  0  0  0  0  0  0  0  0  0
  1  2  1  0  0  0  0
  1 24  1  0  0  0  0
  1 25  1  0  0  0  0
  1 26  1  0  0  0  0
  2  3  1  0  0  0  0
  3  4  1  0  0  0  0
  3 27  1  0  0  0  0
  3 28  1  0  0  0  0
  4  5  1  0  0  0  0
  4 29  1  0  0  0  0
  4 30  1  0  0  0  0
  5 16  1  0  0  0  0
  5  6  1  0  0  0  0
  6  7  1  0  0  0  0
  6 14  2  0  0  0  0
  7 12  1  0  0  0  0
  7  8  1  0  0  0  0
  8  9  2  0  0  0  0
  9 10  1  0  0  0  0
  9 11  1  0  0  0  0
 10 31  1  0  0  0  0
 10 32  1  0  0  0  0
 10 33  1  0  0  0  0
 11 12  2  0  0  0  0
 11 34  1  0  0  0  0
 12 13  1  0  0  0  0
 13 35  1  0  0  0  0
 13 36  1  0  0  0  0
 13 37  1  0  0  0  0
 14 15  1  0  0  0  0
 15 22  1  0  0  0  0
 15 16  2  0  0  0  0
 16 17  1  0  0  0  0
 17 18  2  0  0  0  0
 17 19  1  0  0  0  0
 19 20  1  0  0  0  0
 20 21  2  0  0  0  0
 20 22  1  0  0  0  0
 22 23  1  0  0  0  0
 23 38  1  0  0  0  0
 23 39  1  0  0  0  0
 23 40  1  0  0  0  0
M  CHG  1  19  -1
M  END
> <s_m_source_file>
AV-unprocessed.smi

> <i_m_source_file_index>
562

> <i_lp_mmshare_version>
43012

> <i_f3d_flags>
0

> <s_epik_input>
W0NIM11uMWMoPU8pW25IXWMoPU8pYyhjMTIpbihbQ0gyXVtDSDJdT1tDSDNdKWMobjIpLW4zbmMoW0NIM10pW2NIXWMzW0NIM10=

> <s_epik_cmdline>
J2VwaWtfcHl0aG9uJywgJy1waCcsICc3LjAnLCAnLXRuJywgJzgnLCAnLW1hJywgJzIwMCcsICctbWV0YWxfYmluZGluZycsICctaW1hZScsICc8aW5maWxlLm1hZT4nLCAnLW9tYWUnLCAnPG91dGZpbGUubWFlPic=

> <r_lp_tautomer_probability>
1

> <r_epik_Ionization_Penalty>
3.9873

> <r_epik_Ionization_Penalty_Charging>
0.0180637

> <r_epik_Ionization_Penalty_Neutral>
3.96924

> <r_epik_State_Penalty>
3.96767

> <r_epik_Charging_Adjusted_Penalty>
3.98573

> <i_epik_Tot_Q>
-1

> <i_epik_Tot_abs_Q>
1

> <r_epik_Metal_State_Penalty>
0.612149

> <b_epik_Metal_Only>
1

> <s_lp_Force_Field>
OPLS_2005

> <r_lp_Energy>
28.5769

> <b_lp_Chiralities_Consistent>
1

> <s_lp_Variant>
AV-unprocessed.smi:562-2

> <Gold.Version>
5.8.1

> <Gold.Id.Protein>
6NUR|6NUR_protein|mol2

> <Gold.PLP.Fitness>
39.2124

> <Gold.PLP.PLP>
-39.1632

> <Gold.PLP.part.hbond>
-1.9817

> <Gold.PLP.part.metal>
0.0000

> <Gold.PLP.part.buried>
-5.2507

> <Gold.PLP.part.nonpolar>
-32.2268

> <Gold.PLP.part.repulsive>
0.0803

> <Gold.PLP.ligand.clash>
0.0000

> <Gold.PLP.ligand.torsion>
1.6601

> <Gold.PLP.Chemscore.Hbond>
1.0000

> <Gold.PLP.Chemscore.CHOScore>
0.0000

> <Gold.PLP.Chemscore.Metal>
0.0000

> <Gold.Chemscore.Hbonds>
donor molecule, donor type, donor heavy atom, donor atom, acceptor molecule, acceptor atom, score
      P1  H  6896  6909       L1     2  0.96

> <Gold.PLP.Chemscore.Internal.Correction>
0.3695

> <Gold.Rescore>
     Score         DG    S(hbond)    S(metal)    S(lipo)     H(rot)  DE(clash)    DE(int)     intcor
     10.02     -11.83       0.96        0.00      60.12       1.52       0.02       1.79       ----

> <Gold.Chemscore.Fitness>
10.0217

> <Gold.Chemscore.DG>
-11.8323

> <Gold.Chemscore.ZeroCoef>
-5.4800

> <Gold.Chemscore.Hbond>
0.9576

> <Gold.Chemscore.Metal>
0.0000

> <Gold.Chemscore.Lipo>
60.1233

> <Gold.Chemscore.Internal_Hbond>
0.0000

> <Gold.Chemscore.DEClash>
0.0182

> <Gold.Chemscore.DEInternal>
1.7923

> <Gold.Chemscore.Rot>
1.5159

> <Gold.Chemscore.Internal.Correction>
   9.000000E+99

> <Gold.Chemscore.Hbonds>
donor molecule, donor type, donor heavy atom, donor atom, acceptor molecule, acceptor atom, score
      P1  H  6896  6909       L1     2  0.32

> <Gold.Chemscore.Hbond.Weighted>
-3.1985

> <Gold.Chemscore.Metal.Weighted>
-0.0000

> <Gold.Chemscore.Lipo.Weighted>
-7.0344

> <Gold.Chemscore.Internal_Hbond.Weighted>
0.0000

> <Gold.Chemscore.DEClash.Weighted>
0.0182

> <Gold.Chemscore.DEInternal.Weighted>
1.7923

> <Gold.Chemscore.Rot.Weighted>
3.8806

> <Gold.Chemscore.Internal.Correction.Weighted>
   9.000000E+99

> <Gold.Protein.RotatedTorsions>
[ 6907 6896 6895 6894 ] final   75.80 input  -60.11 | X-H torsion
[ 7974 7965 7964 7962 ] final   19.19 input  175.53 | X-H torsion
[ 8008 7997 7996 7995 ] final -112.41 input   59.86 | X-H torsion
[ 10167 10162 10161 10158 ] final   21.73 input  -65.29 | X-H torsion
[ 10718 10713 10712 10709 ] final  170.18 input   66.30 | X-H torsion
[ 10763 10752 10751 10750 ] final  -13.29 input  -60.55 | X-H torsion
[ 11005 11000 10999 10996 ] final  127.75 input  -57.11 | X-H torsion

> <Gold.Protein.ActiveResidues>
 VAL166  LYS551  ARG553  GLY616  TRP617  ASP618  TYR619  PRO620  LYS621  CYS622 
 ASP623  PHE694  ASN695  SER759  ASP760  ASP761  ALA762  ILE779  LEU786  VAL792 
 PHE793  MET794  SER795  GLU796  ALA797  LYS798  CYS799  TRP800  GLU811  SER814 

> <Gold.Protein.RotatedAtoms>
  152.5043  134.4065  159.9434 H   0  0  0  0  0  0  0  0  0  0  0  0  # atno 6907 bound_to 6896
  151.4031  133.3745  159.2742 H   0  0  0  0  0  0  0  0  0  0  0  0  # atno 6908 bound_to 6896
  150.9346  134.8781  159.7633 H   0  0  0  0  0  0  0  0  0  0  0  0  # atno 6909 bound_to 6896
  146.2158  139.8349  142.8652 H   0  0  0  0  0  0  0  0  0  0  0  0  # atno 7974 bound_to 7965
  155.0048  140.0394  157.2375 H   0  0  0  0  0  0  0  0  0  0  0  0  # atno 8008 bound_to 7997
  154.7511  140.2767  155.6268 H   0  0  0  0  0  0  0  0  0  0  0  0  # atno 8009 bound_to 7997
  156.2885  140.2646  156.2265 H   0  0  0  0  0  0  0  0  0  0  0  0  # atno 8010 bound_to 7997
  140.5404  143.9687  150.6516 H   0  0  0  0  0  0  0  0  0  0  0  0  # atno 10167 bound_to 10162
  157.0119  131.0206  151.2801 H   0  0  0  0  0  0  0  0  0  0  0  0  # atno 10718 bound_to 10713
  153.5111  135.7016  153.5780 H   0  0  0  0  0  0  0  0  0  0  0  0  # atno 10763 bound_to 10752
  153.3870  135.3905  155.1897 H   0  0  0  0  0  0  0  0  0  0  0  0  # atno 10764 bound_to 10752
  154.8703  135.3849  154.4591 H   0  0  0  0  0  0  0  0  0  0  0  0  # atno 10765 bound_to 10752
  139.9524  134.9619  156.8900 H   0  0  0  0  0  0  0  0  0  0  0  0  # atno 11005 bound_to 11000
  145.2958  141.0180  143.3637 LP  0  0  0  0  0  0  0  0  0  0  0  0  # atno 17320 bound_to 7965
  144.9043  139.4610  143.6618 LP  0  0  0  0  0  0  0  0  0  0  0  0  # atno 17321 bound_to 7965
  140.3086  143.3213  152.0901 LP  0  0  0  0  0  0  0  0  0  0  0  0  # atno 17342 bound_to 10162
  139.4986  144.6651  151.6376 LP  0  0  0  0  0  0  0  0  0  0  0  0  # atno 17343 bound_to 10162
  157.5314  130.8061  149.7921 LP  0  0  0  0  0  0  0  0  0  0  0  0  # atno 17370 bound_to 10713
  156.0133  130.3824  150.2192 LP  0  0  0  0  0  0  0  0  0  0  0  0  # atno 17371 bound_to 10713
  140.5688  134.0463  155.7423 LP  0  0  0  0  0  0  0  0  0  0  0  0  # atno 17394 bound_to 11000
  141.1189  133.9494  157.2768 LP  0  0  0  0  0  0  0  0  0  0  0  0  # atno 17395 bound_to 11000

$$$$
