AV-unprocessed.smi:1824|AV-procd|sdf|7403|dock5
  -GOLD-   22720 9 73D 1   1.00000     0.00000
 Structure written by MMmdl.
 45 47  0  0  0  0  0  0  0  0  2 V2000
  147.6481  132.6726  154.0779 C   0  0  0  0  0  0  0  0  0  0  0  0
  147.3406  133.4773  152.8104 C   0  0  2  0  0  0  0  0  0  0  0  0
  146.4661  134.7114  153.1024 C   0  0  0  0  0  0  0  0  0  0  0  0
  146.1280  135.4182  151.8447 N   0  3  2  0  0  0  0  0  0  0  0  0
  145.3427  136.6566  152.0808 C   0  0  0  0  0  0  0  0  0  0  0  0
  146.1757  137.9366  151.8711 C   0  0  2  0  0  0  0  0  0  0  0  0
  146.4170  138.0970  150.4860 O   0  0  0  0  0  0  0  0  0  0  0  0
  147.5208  137.8702  152.6195 C   0  0  0  0  0  0  0  0  0  0  0  0
  147.7786  139.0622  153.4083 N   0  0  0  0  0  0  0  0  0  0  0  0
  146.9216  140.0724  153.6517 C   0  0  0  0  0  0  0  0  0  0  0  0
  147.3622  141.0774  154.4027 N   0  0  0  0  0  0  0  0  0  0  0  0
  148.6550  140.6710  154.6848 C   0  0  0  0  0  0  0  0  0  0  0  0
  149.6669  141.2963  155.4477 C   0  0  0  0  0  0  0  0  0  0  0  0
  150.9293  140.6851  155.5980 C   0  0  0  0  0  0  0  0  0  0  0  0
  151.8878  141.2977  156.3325 F   0  0  0  0  0  0  0  0  0  0  0  0
  151.1982  139.4416  154.9879 C   0  0  0  0  0  0  0  0  0  0  0  0
  152.4127  138.8621  155.1365 F   0  0  0  0  0  0  0  0  0  0  0  0
  150.2055  138.8001  154.2225 C   0  0  0  0  0  0  0  0  0  0  0  0
  148.9472  139.4128  154.0767 C   0  0  0  0  0  0  0  0  0  0  0  0
  145.4919  134.4835  150.8837 C   0  0  0  0  0  0  0  0  0  0  0  0
  146.3922  133.2554  150.6504 C   0  0  2  0  0  0  0  0  0  0  0  0
  145.7368  132.2245  149.7248 C   0  0  0  0  0  0  0  0  0  0  0  0
  146.6526  132.6261  151.9002 O   0  0  0  0  0  0  0  0  0  0  0  0
  148.1808  133.2804  154.8096 H   0  0  0  0  0  0  0  0  0  0  0  0
  148.2711  131.8077  153.8482 H   0  0  0  0  0  0  0  0  0  0  0  0
  146.7334  132.3084  154.5466 H   0  0  0  0  0  0  0  0  0  0  0  0
  148.2849  133.7929  152.3633 H   0  0  0  0  0  0  0  0  0  0  0  0
  145.5471  134.4139  153.6106 H   0  0  0  0  0  0  0  0  0  0  0  0
  146.9996  135.3877  153.7717 H   0  0  0  0  0  0  0  0  0  0  0  0
  144.4680  136.6565  151.4286 H   0  0  0  0  0  0  0  0  0  0  0  0
  144.9578  136.6591  153.1021 H   0  0  0  0  0  0  0  0  0  0  0  0
  145.6277  138.8099  152.2240 H   0  0  0  0  0  0  0  0  0  0  0  0
  145.6507  138.4844  150.0901 H   0  0  0  0  0  0  0  0  0  0  0  0
  147.5344  137.0102  153.2905 H   0  0  0  0  0  0  0  0  0  0  0  0
  148.3447  137.7292  151.9185 H   0  0  0  0  0  0  0  0  0  0  0  0
  145.9177  140.0711  153.2524 H   0  0  0  0  0  0  0  0  0  0  0  0
  149.4727  142.2484  155.9188 H   0  0  0  0  0  0  0  0  0  0  0  0
  150.4105  137.8490  153.7543 H   0  0  0  0  0  0  0  0  0  0  0  0
  144.5212  134.1686  151.2706 H   0  0  0  0  0  0  0  0  0  0  0  0
  145.3087  134.9822  149.9327 H   0  0  0  0  0  0  0  0  0  0  0  0
  147.3364  133.5712  150.2031 H   0  0  0  0  0  0  0  0  0  0  0  0
  145.5271  132.6534  148.7445 H   0  0  0  0  0  0  0  0  0  0  0  0
  144.7960  131.8617  150.1400 H   0  0  0  0  0  0  0  0  0  0  0  0
  146.3890  131.3635  149.5769 H   0  0  0  0  0  0  0  0  0  0  0  0
  147.0068  135.7112  151.4411 H   0  0  0  0  0  0  0  0  0  0  0  0
  1  2  1  0  0  0  0
  1 24  1  0  0  0  0
  1 25  1  0  0  0  0
  1 26  1  0  0  0  0
  2 23  1  0  0  0  0
  2  3  1  0  0  0  0
  2 27  1  0  0  0  0
  3  4  1  0  0  0  0
  3 28  1  0  0  0  0
  3 29  1  0  0  0  0
  4  5  1  0  0  0  0
  4 20  1  0  0  0  0
  4 45  1  0  0  0  0
  5  6  1  0  0  0  0
  5 30  1  0  0  0  0
  5 31  1  0  0  0  0
  6  7  1  0  0  0  0
  6  8  1  0  0  0  0
  6 32  1  0  0  0  0
  7 33  1  0  0  0  0
  8  9  1  0  0  0  0
  8 34  1  0  0  0  0
  8 35  1  0  0  0  0
  9 19  1  0  0  0  0
  9 10  1  0  0  0  0
 10 11  2  0  0  0  0
 10 36  1  0  0  0  0
 11 12  1  0  0  0  0
 12 19  2  0  0  0  0
 12 13  1  0  0  0  0
 13 14  2  0  0  0  0
 13 37  1  0  0  0  0
 14 15  1  0  0  0  0
 14 16  1  0  0  0  0
 16 17  1  0  0  0  0
 16 18  2  0  0  0  0
 18 19  1  0  0  0  0
 18 38  1  0  0  0  0
 20 21  1  0  0  0  0
 20 39  1  0  0  0  0
 20 40  1  0  0  0  0
 21 22  1  0  0  0  0
 21 23  1  0  0  0  0
 21 41  1  0  0  0  0
 22 42  1  0  0  0  0
 22 43  1  0  0  0  0
 22 44  1  0  0  0  0
M  CHG  1   4   1
M  END
> <s_m_source_file>
AV-unprocessed.smi

> <i_m_source_file_index>
1824

> <i_lp_mmshare_version>
43012

> <i_f3d_flags>
0

> <s_epik_input>
W0NIM11bQ0BASF0xW0NIMl1OKFtDSDJdW0NASF0oTzEpW0NIM10pW0NIMl1bQ0BIXShbT0hdKVtDSDJdbihbY0hdbjIpYyhjMjMpW2NIXWMoRiljKEYpW2NIXTM=

> <s_epik_cmdline>
J2VwaWtfcHl0aG9uJywgJy1waCcsICc3LjAnLCAnLXRuJywgJzgnLCAnLW1hJywgJzIwMCcsICctbWV0YWxfYmluZGluZycsICctaW1hZScsICc8aW5maWxlLm1hZT4nLCAnLW9tYWUnLCAnPG91dGZpbGUubWFlPic=

> <r_epik_Ionization_Penalty>
0.61967

> <r_epik_Ionization_Penalty_Charging>
0.608065

> <r_epik_Ionization_Penalty_Neutral>
0.0116057

> <r_epik_State_Penalty>
0.664205

> <r_epik_Charging_Adjusted_Penalty>
1.27227

> <i_epik_Tot_Q>
1

> <i_epik_Tot_abs_Q>
1

> <r_epik_Metal_State_Penalty>
0.654947

> <b_epik_Metal_Only>
0

> <s_lp_Force_Field>
OPLS_2005

> <r_lp_Energy>
19.9364

> <b_lp_Chiralities_Consistent>
1

> <s_lp_Variant>
AV-unprocessed.smi:1824-11

> <Gold.Version>
5.8.1

> <Gold.Id.Protein>
6NUR|6NUR_protein|mol2

> <Gold.PLP.Fitness>
51.4993

> <Gold.PLP.PLP>
-39.7509

> <Gold.PLP.part.hbond>
-3.0017

> <Gold.PLP.part.metal>
0.0000

> <Gold.PLP.part.buried>
1.9727

> <Gold.PLP.part.nonpolar>
-39.6109

> <Gold.PLP.part.repulsive>
0.3080

> <Gold.PLP.ligand.clash>
0.0000

> <Gold.PLP.ligand.torsion>
1.5105

> <Gold.PLP.Chemscore.Hbond>
3.9120

> <Gold.PLP.Chemscore.CHOScore>
1.0000

> <Gold.PLP.Chemscore.Metal>
0.0000

> <Gold.Chemscore.Hbonds>
donor molecule, donor type, donor heavy atom, donor atom, acceptor molecule, acceptor atom, score
      L1  H     4    45       P1  7948  1.86
      L1  H     7    33       P1 10171  1.00
      P1  H  7954  7966       L1     7  0.88
      L1  C    10    36       P1 10175  1.00

> <Gold.PLP.Chemscore.Internal.Correction>
0.0333

> <Gold.Rescore>
     Score         DG    S(hbond)    S(metal)    S(lipo)     H(rot)  DE(clash)    DE(int)     intcor
     16.54     -19.77       2.90        0.00      90.17       2.33       1.79       1.44       ----

> <Gold.Chemscore.Fitness>
16.5374

> <Gold.Chemscore.DG>
-19.7662

> <Gold.Chemscore.ZeroCoef>
-5.4800

> <Gold.Chemscore.Hbond>
2.9007

> <Gold.Chemscore.Metal>
0.0000

> <Gold.Chemscore.Lipo>
90.1720

> <Gold.Chemscore.Internal_Hbond>
0.0000

> <Gold.Chemscore.DEClash>
1.7885

> <Gold.Chemscore.DEInternal>
1.4403

> <Gold.Chemscore.Rot>
2.3251

> <Gold.Chemscore.Internal.Correction>
   9.000000E+99

> <Gold.Chemscore.Hbonds>
donor molecule, donor type, donor heavy atom, donor atom, acceptor molecule, acceptor atom, score
      L1  H     4    45       P1  7948  0.84
      L1  H     7    33       P1 10171  0.98
      P1  H  7954  7966       L1     7  0.83

> <Gold.Chemscore.Hbond.Weighted>
-9.6884

> <Gold.Chemscore.Metal.Weighted>
-0.0000

> <Gold.Chemscore.Lipo.Weighted>
-10.5501

> <Gold.Chemscore.Internal_Hbond.Weighted>
0.0000

> <Gold.Chemscore.DEClash.Weighted>
1.7885

> <Gold.Chemscore.DEInternal.Weighted>
1.4403

> <Gold.Chemscore.Rot.Weighted>
5.9523

> <Gold.Chemscore.Internal.Correction.Weighted>
   9.000000E+99

> <Gold.Protein.RotatedTorsions>
[ 6907 6896 6895 6894 ] final   93.27 input  -60.11 | X-H torsion
[ 7974 7965 7964 7962 ] final -123.67 input  175.53 | X-H torsion
[ 8008 7997 7996 7995 ] final    0.02 input   59.86 | X-H torsion
[ 10167 10162 10161 10158 ] final  -84.05 input  -65.29 | X-H torsion
[ 10718 10713 10712 10709 ] final  -98.12 input   66.30 | X-H torsion
[ 10763 10752 10751 10750 ] final   71.89 input  -60.55 | X-H torsion
[ 11005 11000 10999 10996 ] final   19.80 input  -57.11 | X-H torsion

> <Gold.Protein.ActiveResidues>
 VAL166  LYS551  ARG553  GLY616  TRP617  ASP618  TYR619  PRO620  LYS621  CYS622 
 ASP623  PHE694  ASN695  SER759  ASP760  ASP761  ALA762  ILE779  LEU786  VAL792 
 PHE793  MET794  SER795  GLU796  ALA797  LYS798  CYS799  TRP800  GLU811  SER814 

> <Gold.Protein.RotatedAtoms>
  152.5452  134.1373  159.8463 H   0  0  0  0  0  0  0  0  0  0  0  0  # atno 6907 bound_to 6896
  151.1413  133.4962  159.2604 H   0  0  0  0  0  0  0  0  0  0  0  0  # atno 6908 bound_to 6896
  151.1570  135.0265  159.8748 H   0  0  0  0  0  0  0  0  0  0  0  0  # atno 6909 bound_to 6896
  145.0162  140.7949  143.4408 H   0  0  0  0  0  0  0  0  0  0  0  0  # atno 7974 bound_to 7965
  154.6633  140.2595  155.7085 H   0  0  0  0  0  0  0  0  0  0  0  0  # atno 8008 bound_to 7997
  156.2628  140.2844  156.1036 H   0  0  0  0  0  0  0  0  0  0  0  0  # atno 8009 bound_to 7997
  155.1276  140.0378  157.2756 H   0  0  0  0  0  0  0  0  0  0  0  0  # atno 8010 bound_to 7997
  140.4169  143.2600  151.8943 H   0  0  0  0  0  0  0  0  0  0  0  0  # atno 10167 bound_to 10162
  156.0100  130.5224  150.6476 H   0  0  0  0  0  0  0  0  0  0  0  0  # atno 10718 bound_to 10713
  153.0426  135.5120  154.7661 H   0  0  0  0  0  0  0  0  0  0  0  0  # atno 10763 bound_to 10752
  154.6587  135.2935  154.9897 H   0  0  0  0  0  0  0  0  0  0  0  0  # atno 10764 bound_to 10752
  154.0756  135.6671  153.4883 H   0  0  0  0  0  0  0  0  0  0  0  0  # atno 10765 bound_to 10752
  140.4097  134.1631  155.7667 H   0  0  0  0  0  0  0  0  0  0  0  0  # atno 11005 bound_to 11000
  145.1956  139.2278  143.5220 LP  0  0  0  0  0  0  0  0  0  0  0  0  # atno 17320 bound_to 7965
  146.3478  140.1762  142.8589 LP  0  0  0  0  0  0  0  0  0  0  0  0  # atno 17321 bound_to 7965
  139.4782  144.5479  151.8431 LP  0  0  0  0  0  0  0  0  0  0  0  0  # atno 17342 bound_to 10162
  140.4577  144.1766  150.5903 LP  0  0  0  0  0  0  0  0  0  0  0  0  # atno 17343 bound_to 10162
  157.4244  131.0841  151.1100 LP  0  0  0  0  0  0  0  0  0  0  0  0  # atno 17370 bound_to 10713
  157.1692  130.6260  149.5635 LP  0  0  0  0  0  0  0  0  0  0  0  0  # atno 17371 bound_to 10713
  141.1826  133.8382  157.1205 LP  0  0  0  0  0  0  0  0  0  0  0  0  # atno 17394 bound_to 11000
  140.0276  134.9916  157.0717 LP  0  0  0  0  0  0  0  0  0  0  0  0  # atno 17395 bound_to 11000

$$$$
