AV-unprocessed.smi:2373|AV-procd|sdf|9439|dock2
  -GOLD-   2272013 63D 1   1.00000     0.00000
 Structure written by MMmdl.
 47 48  0  0  0  0  0  0  0  0  2 V2000
  146.4689  132.4888  151.9363 C   0  0  0  0  0  0  0  0  0  0  0  0
  145.0335  132.7035  151.7906 N   0  0  0  0  0  0  0  0  0  0  0  0
  144.1859  131.6561  151.2358 C   0  0  0  0  0  0  0  0  0  0  0  0
  144.4782  133.9633  152.1024 C   0  0  0  0  0  0  0  0  0  0  0  0
  144.7982  135.1485  151.3963 C   0  0  0  0  0  0  0  0  0  0  0  0
  144.2006  136.3700  151.7686 C   0  0  0  0  0  0  0  0  0  0  0  0
  143.2928  136.4093  152.8472 C   0  0  0  0  0  0  0  0  0  0  0  0
  142.7078  137.6634  153.1734 N   0  0  0  0  0  0  0  0  0  0  0  0
  141.5857  137.9133  153.8704 C   0  0  0  0  0  0  0  0  0  0  0  0
  140.8699  137.0579  154.3891 O   0  0  0  0  0  0  0  0  0  0  0  0
  141.3515  139.2345  153.9460 N   0  0  0  0  0  0  0  0  0  0  0  0
  140.2369  139.9258  154.6122 C   0  0  0  0  0  0  0  0  0  0  0  0
  140.4213  141.4728  154.5473 C   0  0  0  0  0  0  0  0  0  0  0  0
  141.6418  142.0372  155.3005 C   0  0  0  0  0  0  0  0  0  0  0  0
  142.7583  141.2021  155.0839 O   0  0  0  0  0  0  0  0  0  0  0  0
  138.9453  139.4674  153.8894 C   0  0  0  0  0  0  0  0  0  0  0  0
  137.6624  139.8271  154.6596 C   0  0  0  0  0  0  0  0  0  0  0  0
  137.7132  139.2747  155.9674 O   0  0  0  0  0  0  0  0  0  0  0  0
  138.7870  139.7958  156.7381 C   0  0  0  0  0  0  0  0  0  0  0  0
  140.1334  139.4400  156.0826 C   0  0  0  0  0  0  0  0  0  0  0  0
  142.9973  135.1968  153.5149 C   0  0  0  0  0  0  0  0  0  0  0  0
  143.5912  134.0488  153.1238 N   0  3  0  0  0  0  0  0  0  0  0  0
  146.7800  132.6616  152.9671 H   0  0  0  0  0  0  0  0  0  0  0  0
  147.0252  133.1661  151.2872 H   0  0  0  0  0  0  0  0  0  0  0  0
  146.7468  131.4683  151.6719 H   0  0  0  0  0  0  0  0  0  0  0  0
  143.7155  131.9916  150.3112 H   0  0  0  0  0  0  0  0  0  0  0  0
  143.4050  131.3799  151.9449 H   0  0  0  0  0  0  0  0  0  0  0  0
  144.7612  130.7584  151.0087 H   0  0  0  0  0  0  0  0  0  0  0  0
  145.4931  135.1423  150.5699 H   0  0  0  0  0  0  0  0  0  0  0  0
  144.4442  137.2721  151.2264 H   0  0  0  0  0  0  0  0  0  0  0  0
  143.2254  138.4742  152.8665 H   0  0  0  0  0  0  0  0  0  0  0  0
  142.0149  139.8381  153.4825 H   0  0  0  0  0  0  0  0  0  0  0  0
  140.4795  141.7955  153.5084 H   0  0  0  0  0  0  0  0  0  0  0  0
  139.5260  141.9571  154.9386 H   0  0  0  0  0  0  0  0  0  0  0  0
  141.8916  143.0414  154.9591 H   0  0  0  0  0  0  0  0  0  0  0  0
  141.4571  142.0906  156.3728 H   0  0  0  0  0  0  0  0  0  0  0  0
  142.7578  140.9259  154.1800 H   0  0  0  0  0  0  0  0  0  0  0  0
  138.8947  139.8648  152.8764 H   0  0  0  0  0  0  0  0  0  0  0  0
  138.9638  138.3821  153.7753 H   0  0  0  0  0  0  0  0  0  0  0  0
  137.5130  140.9063  154.7086 H   0  0  0  0  0  0  0  0  0  0  0  0
  136.7943  139.4160  154.1442 H   0  0  0  0  0  0  0  0  0  0  0  0
  138.6763  140.8742  156.8582 H   0  0  0  0  0  0  0  0  0  0  0  0
  138.7376  139.3648  157.7381 H   0  0  0  0  0  0  0  0  0  0  0  0
  140.2469  138.3551  156.1159 H   0  0  0  0  0  0  0  0  0  0  0  0
  140.9447  139.8462  156.6871 H   0  0  0  0  0  0  0  0  0  0  0  0
  142.3059  135.0876  154.3365 H   0  0  0  0  0  0  0  0  0  0  0  0
  143.3550  133.1938  153.6278 H   0  0  0  0  0  0  0  0  0  0  0  0
  1  2  1  0  0  0  0
  1 23  1  0  0  0  0
  1 24  1  0  0  0  0
  1 25  1  0  0  0  0
  2  3  1  0  0  0  0
  2  4  1  0  0  0  0
  3 26  1  0  0  0  0
  3 27  1  0  0  0  0
  3 28  1  0  0  0  0
  4 22  1  0  0  0  0
  4  5  2  0  0  0  0
  5  6  1  0  0  0  0
  5 29  1  0  0  0  0
  6  7  2  0  0  0  0
  6 30  1  0  0  0  0
  7  8  1  0  0  0  0
  7 21  1  0  0  0  0
  8  9  1  0  0  0  0
  8 31  1  0  0  0  0
  9 10  2  0  0  0  0
  9 11  1  0  0  0  0
 11 12  1  0  0  0  0
 11 32  1  0  0  0  0
 12 20  1  0  0  0  0
 12 13  1  0  0  0  0
 12 16  1  0  0  0  0
 13 14  1  0  0  0  0
 13 33  1  0  0  0  0
 13 34  1  0  0  0  0
 14 15  1  0  0  0  0
 14 35  1  0  0  0  0
 14 36  1  0  0  0  0
 15 37  1  0  0  0  0
 16 17  1  0  0  0  0
 16 38  1  0  0  0  0
 16 39  1  0  0  0  0
 17 18  1  0  0  0  0
 17 40  1  0  0  0  0
 17 41  1  0  0  0  0
 18 19  1  0  0  0  0
 19 20  1  0  0  0  0
 19 42  1  0  0  0  0
 19 43  1  0  0  0  0
 20 44  1  0  0  0  0
 20 45  1  0  0  0  0
 21 22  2  0  0  0  0
 21 46  1  0  0  0  0
 22 47  1  0  0  0  0
M  CHG  1  22   1
M  END
> <s_m_source_file>
AV-unprocessed.smi

> <i_m_source_file_index>
2373

> <i_lp_mmshare_version>
43012

> <i_f3d_flags>
0

> <s_epik_input>
W0NIM11OKFtDSDNdKWMxW2NIXVtjSF1jKFtjSF1uMSlbTkhdQyg9TylbTkhdQzIoW0NIMl1bQ0gyXVtPSF0pW0NIMl1bQ0gyXU9bQ0gyXVtDSDJdMg==

> <s_epik_cmdline>
J2VwaWtfcHl0aG9uJywgJy1waCcsICc3LjAnLCAnLXRuJywgJzgnLCAnLW1hJywgJzIwMCcsICctbWV0YWxfYmluZGluZycsICctaW1hZScsICc8aW5maWxlLm1hZT4nLCAnLW9tYWUnLCAnPG91dGZpbGUubWFlPic=

> <r_lp_tautomer_probability>
0.999994

> <r_epik_Ionization_Penalty>
0.250535

> <r_epik_Ionization_Penalty_Charging>
0.250515

> <r_epik_Ionization_Penalty_Neutral>
1.96065e-05

> <r_epik_State_Penalty>
0.241842

> <r_epik_Charging_Adjusted_Penalty>
0.492357

> <i_epik_Tot_Q>
1

> <i_epik_Tot_abs_Q>
1

> <r_epik_Metal_State_Penalty>
0.533268

> <b_epik_Metal_Only>
0

> <s_lp_Force_Field>
OPLS_2005

> <r_lp_Energy>
24.7544

> <b_lp_Chiralities_Consistent>
1

> <s_lp_Variant>
AV-unprocessed.smi:2373-1

> <Gold.Version>
5.8.1

> <Gold.Id.Protein>
6NUR|6NUR_protein|mol2

> <Gold.PLP.Fitness>
44.2623

> <Gold.PLP.PLP>
-32.1440

> <Gold.PLP.part.hbond>
-5.6298

> <Gold.PLP.part.metal>
0.0000

> <Gold.PLP.part.buried>
-2.9158

> <Gold.PLP.part.nonpolar>
-24.7844

> <Gold.PLP.part.repulsive>
0.1239

> <Gold.PLP.ligand.clash>
0.0000

> <Gold.PLP.ligand.torsion>
1.4617

> <Gold.PLP.Chemscore.Hbond>
5.0000

> <Gold.PLP.Chemscore.CHOScore>
0.0000

> <Gold.PLP.Chemscore.Metal>
0.0000

> <Gold.Chemscore.Hbonds>
donor molecule, donor type, donor heavy atom, donor atom, acceptor molecule, acceptor atom, score
      L1  H     8    31       P1 10175  0.98
      L1  H    11    32       P1 10175  1.00
      L1  H    15    37       P1 10175  1.00
      L1  H    22    47       P1 10957  2.00

> <Gold.PLP.Chemscore.Internal.Correction>
0.0417

> <Gold.Rescore>
     Score         DG    S(hbond)    S(metal)    S(lipo)     H(rot)  DE(clash)    DE(int)     intcor
     12.84     -17.94       3.43        0.00      54.72       2.12       0.10       5.00       ----

> <Gold.Chemscore.Fitness>
12.8434

> <Gold.Chemscore.DG>
-17.9387

> <Gold.Chemscore.ZeroCoef>
-5.4800

> <Gold.Chemscore.Hbond>
3.4349

> <Gold.Chemscore.Metal>
0.0000

> <Gold.Chemscore.Lipo>
54.7180

> <Gold.Chemscore.Internal_Hbond>
0.0000

> <Gold.Chemscore.DEClash>
0.0965

> <Gold.Chemscore.DEInternal>
4.9988

> <Gold.Chemscore.Rot>
2.1155

> <Gold.Chemscore.Internal.Correction>
   9.000000E+99

> <Gold.Chemscore.Hbonds>
donor molecule, donor type, donor heavy atom, donor atom, acceptor molecule, acceptor atom, score
      L1  H     8    31       P1 10175  0.92
      L1  H    11    32       P1 10175  0.77
      L1  H    15    37       P1 10175  0.44
      L1  H    22    47       P1 10957  0.97

> <Gold.Chemscore.Hbond.Weighted>
-11.4724

> <Gold.Chemscore.Metal.Weighted>
-0.0000

> <Gold.Chemscore.Lipo.Weighted>
-6.4020

> <Gold.Chemscore.Internal_Hbond.Weighted>
0.0000

> <Gold.Chemscore.DEClash.Weighted>
0.0965

> <Gold.Chemscore.DEInternal.Weighted>
4.9988

> <Gold.Chemscore.Rot.Weighted>
5.4158

> <Gold.Chemscore.Internal.Correction.Weighted>
   9.000000E+99

> <Gold.Protein.RotatedTorsions>
[ 6907 6896 6895 6894 ] final -149.85 input  -60.11 | X-H torsion
[ 7974 7965 7964 7962 ] final   38.03 input  175.53 | X-H torsion
[ 8008 7997 7996 7995 ] final   19.57 input   59.86 | X-H torsion
[ 10167 10162 10161 10158 ] final   -6.74 input  -65.29 | X-H torsion
[ 10718 10713 10712 10709 ] final  116.57 input   66.30 | X-H torsion
[ 10763 10752 10751 10750 ] final -105.27 input  -60.55 | X-H torsion
[ 11005 11000 10999 10996 ] final  -43.67 input  -57.11 | X-H torsion

> <Gold.Protein.ActiveResidues>
 VAL166  LYS551  ARG553  GLY616  TRP617  ASP618  TYR619  PRO620  LYS621  CYS622 
 ASP623  PHE694  ASN695  SER759  ASP760  ASP761  ALA762  ILE779  LEU786  VAL792 
 PHE793  MET794  SER795  GLU796  ALA797  LYS798  CYS799  TRP800  GLU811  SER814 

> <Gold.Protein.RotatedAtoms>
  151.1901  133.4672  159.2594 H   0  0  0  0  0  0  0  0  0  0  0  0  # atno 6907 bound_to 6896
  151.1173  135.0059  159.8532 H   0  0  0  0  0  0  0  0  0  0  0  0  # atno 6908 bound_to 6896
  152.5454  134.1815  159.8690 H   0  0  0  0  0  0  0  0  0  0  0  0  # atno 6909 bound_to 6896
  146.1093  139.5821  142.9363 H   0  0  0  0  0  0  0  0  0  0  0  0  # atno 7974 bound_to 7965
  154.9226  140.3029  155.5208 H   0  0  0  0  0  0  0  0  0  0  0  0  # atno 8008 bound_to 7997
  156.3009  140.2368  156.4214 H   0  0  0  0  0  0  0  0  0  0  0  0  # atno 8009 bound_to 7997
  154.8315  140.0418  157.1469 H   0  0  0  0  0  0  0  0  0  0  0  0  # atno 8010 bound_to 7997
  140.7006  143.6160  150.8658 H   0  0  0  0  0  0  0  0  0  0  0  0  # atno 10167 bound_to 10162
  157.6152  131.1027  150.7491 H   0  0  0  0  0  0  0  0  0  0  0  0  # atno 10718 bound_to 10713
  154.7935  135.4755  154.0107 H   0  0  0  0  0  0  0  0  0  0  0  0  # atno 10763 bound_to 10752
  153.1667  135.6818  153.8672 H   0  0  0  0  0  0  0  0  0  0  0  0  # atno 10764 bound_to 10752
  153.8268  135.3197  155.3393 H   0  0  0  0  0  0  0  0  0  0  0  0  # atno 10765 bound_to 10752
  141.0400  133.6784  156.2766 H   0  0  0  0  0  0  0  0  0  0  0  0  # atno 11005 bound_to 11000
  145.5697  141.0395  143.2181 LP  0  0  0  0  0  0  0  0  0  0  0  0  # atno 17320 bound_to 7965
  144.7497  139.7225  143.7278 LP  0  0  0  0  0  0  0  0  0  0  0  0  # atno 17321 bound_to 7965
  139.9882  143.5876  152.2919 LP  0  0  0  0  0  0  0  0  0  0  0  0  # atno 17342 bound_to 10162
  139.6522  144.7661  151.2126 LP  0  0  0  0  0  0  0  0  0  0  0  0  # atno 17343 bound_to 10162
  156.7860  130.4874  149.5393 LP  0  0  0  0  0  0  0  0  0  0  0  0  # atno 17370 bound_to 10713
  156.1271  130.6152  151.0280 LP  0  0  0  0  0  0  0  0  0  0  0  0  # atno 17371 bound_to 10713
  140.6252  134.5320  157.5553 LP  0  0  0  0  0  0  0  0  0  0  0  0  # atno 17394 bound_to 11000
  139.9268  134.8040  156.1044 LP  0  0  0  0  0  0  0  0  0  0  0  0  # atno 17395 bound_to 11000

$$$$
