AV-unprocessed.smi:3254|AV-procd|sdf|12453|dock7
  -GOLD-   2272018353D 1   1.00000     0.00000
 Structure written by MMmdl.
 37 38  0  0  0  0  0  0  0  0  2 V2000
  153.0502  131.0240  157.2609 C   0  0  0  0  0  0  0  0  0  0  0  0
  151.5739  131.2595  157.6082 C   0  0  0  0  0  0  0  0  0  0  0  0
  150.8613  131.9021  156.5077 N   0  0  0  0  0  0  0  0  0  0  0  0
  150.7394  131.2431  155.2182 C   0  0  0  0  0  0  0  0  0  0  0  0
  149.7770  132.1229  154.3908 C   0  0  1  0  0  0  0  0  0  0  0  0
  148.4122  131.4510  154.1720 C   0  0  0  0  0  0  0  0  0  0  0  0
  147.7161  131.1342  155.1370 O   0  0  0  0  0  0  0  0  0  0  0  0
  148.0490  131.2393  152.8982 N   0  0  0  0  0  0  0  0  0  0  0  0
  146.8027  130.6146  152.4644 C   0  0  0  0  0  0  0  0  0  0  0  0
  145.5950  131.5224  152.7480 C   0  0  0  0  0  0  0  0  0  0  0  0
  144.9663  132.0253  151.5224 N   0  0  0  0  0  0  0  0  0  0  0  0
  145.4639  131.9582  150.2462 C   0  0  0  0  0  0  0  0  0  0  0  0
  144.5335  132.5514  149.4322 C   0  0  0  0  0  0  0  0  0  0  0  0
  143.5063  132.9513  150.2445 N   0  3  0  0  0  0  0  0  0  0  0  0
  143.7701  132.6281  151.5147 C   0  0  0  0  0  0  0  0  0  0  0  0
  149.6402  133.4317  155.1945 C   0  0  0  0  0  0  0  0  0  0  0  0
  150.3083  133.1197  156.5234 C   0  0  0  0  0  0  0  0  0  0  0  0
  150.3099  133.9058  157.4694 O   0  0  0  0  0  0  0  0  0  0  0  0
  153.5771  130.5652  158.0976 H   0  0  0  0  0  0  0  0  0  0  0  0
  153.5527  131.9628  157.0260 H   0  0  0  0  0  0  0  0  0  0  0  0
  153.1567  130.3627  156.4005 H   0  0  0  0  0  0  0  0  0  0  0  0
  151.0916  130.3119  157.8528 H   0  0  0  0  0  0  0  0  0  0  0  0
  151.5005  131.8810  158.5014 H   0  0  0  0  0  0  0  0  0  0  0  0
  151.7206  131.1923  154.7445 H   0  0  0  0  0  0  0  0  0  0  0  0
  150.3828  130.2193  155.3455 H   0  0  0  0  0  0  0  0  0  0  0  0
  150.2274  132.3355  153.4196 H   0  0  0  0  0  0  0  0  0  0  0  0
  148.6912  131.5260  152.1741 H   0  0  0  0  0  0  0  0  0  0  0  0
  146.8722  130.3928  151.3990 H   0  0  0  0  0  0  0  0  0  0  0  0
  146.6486  129.6602  152.9705 H   0  0  0  0  0  0  0  0  0  0  0  0
  144.8336  130.9698  153.2995 H   0  0  0  0  0  0  0  0  0  0  0  0
  145.8844  132.3703  153.3711 H   0  0  0  0  0  0  0  0  0  0  0  0
  146.4184  131.5061  150.0184 H   0  0  0  0  0  0  0  0  0  0  0  0
  144.5250  132.7133  148.3642 H   0  0  0  0  0  0  0  0  0  0  0  0
  143.1405  132.8185  152.3657 H   0  0  0  0  0  0  0  0  0  0  0  0
  150.1692  134.2508  154.7062 H   0  0  0  0  0  0  0  0  0  0  0  0
  148.6067  133.7447  155.3522 H   0  0  0  0  0  0  0  0  0  0  0  0
  142.6658  133.4204  149.9307 H   0  0  0  0  0  0  0  0  0  0  0  0
  1  2  1  0  0  0  0
  1 19  1  0  0  0  0
  1 20  1  0  0  0  0
  1 21  1  0  0  0  0
  2  3  1  0  0  0  0
  2 22  1  0  0  0  0
  2 23  1  0  0  0  0
  3 17  1  0  0  0  0
  3  4  1  0  0  0  0
  4  5  1  0  0  0  0
  4 24  1  0  0  0  0
  4 25  1  0  0  0  0
  5  6  1  0  0  0  0
  5 16  1  0  0  0  0
  5 26  1  0  0  0  0
  6  7  2  0  0  0  0
  6  8  1  0  0  0  0
  8  9  1  0  0  0  0
  8 27  1  0  0  0  0
  9 10  1  0  0  0  0
  9 28  1  0  0  0  0
  9 29  1  0  0  0  0
 10 11  1  0  0  0  0
 10 30  1  0  0  0  0
 10 31  1  0  0  0  0
 11 15  1  0  0  0  0
 11 12  1  0  0  0  0
 12 13  2  0  0  0  0
 12 32  1  0  0  0  0
 13 14  1  0  0  0  0
 13 33  1  0  0  0  0
 14 15  2  0  0  0  0
 14 37  1  0  0  0  0
 15 34  1  0  0  0  0
 16 17  1  0  0  0  0
 16 35  1  0  0  0  0
 16 36  1  0  0  0  0
 17 18  2  0  0  0  0
M  CHG  1  14   1
M  END
> <s_m_source_file>
AV-unprocessed.smi

> <i_m_source_file_index>
3254

> <i_lp_mmshare_version>
43012

> <i_f3d_flags>
0

> <s_epik_input>
W0NIM11bQ0gyXU4xW0NIMl1bQ0BIXShbQ0gyXUMxPU8pQyg9TylbTkhdW0NIMl1bQ0gyXW4yW2NIXVtjSF1uW2NIXTI=

> <s_epik_cmdline>
J2VwaWtfcHl0aG9uJywgJy1waCcsICc3LjAnLCAnLXRuJywgJzgnLCAnLW1hJywgJzIwMCcsICctbWV0YWxfYmluZGluZycsICctaW1hZScsICc8aW5maWxlLm1hZT4nLCAnLW9tYWUnLCAnPG91dGZpbGUubWFlPic=

> <r_lp_tautomer_probability>
1

> <r_epik_Ionization_Penalty>
0.274742

> <r_epik_Ionization_Penalty_Charging>
0

> <r_epik_Ionization_Penalty_Neutral>
0.274742

> <r_epik_State_Penalty>
0.267046

> <r_epik_Charging_Adjusted_Penalty>
0.267046

> <i_epik_Tot_Q>
1

> <i_epik_Tot_abs_Q>
1

> <r_epik_Metal_State_Penalty>
0.550456

> <b_epik_Metal_Only>
0

> <s_lp_Force_Field>
OPLS_2005

> <r_lp_Energy>
18.3055

> <b_lp_Chiralities_Consistent>
1

> <s_lp_Variant>
AV-unprocessed.smi:3254-1

> <Gold.Version>
5.8.1

> <Gold.Id.Protein>
6NUR|6NUR_protein|mol2

> <Gold.PLP.Fitness>
45.0245

> <Gold.PLP.PLP>
-32.3422

> <Gold.PLP.part.hbond>
-3.0000

> <Gold.PLP.part.metal>
0.0000

> <Gold.PLP.part.buried>
-4.2206

> <Gold.PLP.part.nonpolar>
-24.9920

> <Gold.PLP.part.repulsive>
0.0648

> <Gold.PLP.ligand.clash>
0.0000

> <Gold.PLP.ligand.torsion>
0.5519

> <Gold.PLP.Chemscore.Hbond>
3.4880

> <Gold.PLP.Chemscore.CHOScore>
1.1007

> <Gold.PLP.Chemscore.Metal>
0.0000

> <Gold.Chemscore.Hbonds>
donor molecule, donor type, donor heavy atom, donor atom, acceptor molecule, acceptor atom, score
      L1  H     8    27       P1 10747  0.66
      L1  H    14    37       P1 10186  2.00
      P1  H  6896  6908       L1    18  0.85
      L1  C    12    32       P1 10747  0.73
      L1  C    15    34       P1 10957  0.50

> <Gold.PLP.Chemscore.Internal.Correction>
0.0199

> <Gold.Rescore>
     Score         DG    S(hbond)    S(metal)    S(lipo)     H(rot)  DE(clash)    DE(int)     intcor
     15.56     -16.06       2.78        0.00      60.91       2.28       0.00       0.50       ----

> <Gold.Chemscore.Fitness>
15.5641

> <Gold.Chemscore.DG>
-16.0629

> <Gold.Chemscore.ZeroCoef>
-5.4800

> <Gold.Chemscore.Hbond>
2.7805

> <Gold.Chemscore.Metal>
0.0000

> <Gold.Chemscore.Lipo>
60.9130

> <Gold.Chemscore.Internal_Hbond>
0.0000

> <Gold.Chemscore.DEClash>
0.0000

> <Gold.Chemscore.DEInternal>
0.4988

> <Gold.Chemscore.Rot>
2.2776

> <Gold.Chemscore.Internal.Correction>
   9.000000E+99

> <Gold.Chemscore.Hbonds>
donor molecule, donor type, donor heavy atom, donor atom, acceptor molecule, acceptor atom, score
      L1  H     8    27       P1 10747  0.58
      L1  H    14    37       P1 10186  0.98
      P1  H  6896  6908       L1    18  0.85

> <Gold.Chemscore.Hbond.Weighted>
-9.2868

> <Gold.Chemscore.Metal.Weighted>
-0.0000

> <Gold.Chemscore.Lipo.Weighted>
-7.1268

> <Gold.Chemscore.Internal_Hbond.Weighted>
0.0000

> <Gold.Chemscore.DEClash.Weighted>
0.0000

> <Gold.Chemscore.DEInternal.Weighted>
0.4988

> <Gold.Chemscore.Rot.Weighted>
5.8307

> <Gold.Chemscore.Internal.Correction.Weighted>
   9.000000E+99

> <Gold.Protein.RotatedTorsions>
[ 6907 6896 6895 6894 ] final  124.30 input  -60.11 | X-H torsion
[ 7974 7965 7964 7962 ] final   35.65 input  175.53 | X-H torsion
[ 8008 7997 7996 7995 ] final -170.89 input   59.86 | X-H torsion
[ 10167 10162 10161 10158 ] final -177.46 input  -65.29 | X-H torsion
[ 10718 10713 10712 10709 ] final  144.29 input   66.30 | X-H torsion
[ 10763 10752 10751 10750 ] final  -12.78 input  -60.55 | X-H torsion
[ 11005 11000 10999 10996 ] final -173.05 input  -57.11 | X-H torsion

> <Gold.Protein.ActiveResidues>
 VAL166  LYS551  ARG553  GLY616  TRP617  ASP618  TYR619  PRO620  LYS621  CYS622 
 ASP623  PHE694  ASN695  SER759  ASP760  ASP761  ALA762  ILE779  LEU786  VAL792 
 PHE793  MET794  SER795  GLU796  ALA797  LYS798  CYS799  TRP800  GLU811  SER814 

> <Gold.Protein.RotatedAtoms>
  152.4089  133.6933  159.6380 H   0  0  0  0  0  0  0  0  0  0  0  0  # atno 6907 bound_to 6896
  150.7971  133.8659  159.3253 H   0  0  0  0  0  0  0  0  0  0  0  0  # atno 6908 bound_to 6896
  151.6406  135.1015  160.0192 H   0  0  0  0  0  0  0  0  0  0  0  0  # atno 6909 bound_to 6896
  146.1268  139.6116  142.9253 H   0  0  0  0  0  0  0  0  0  0  0  0  # atno 7974 bound_to 7965
  155.9244  140.1080  157.1182 H   0  0  0  0  0  0  0  0  0  0  0  0  # atno 8008 bound_to 7997
  154.4059  140.1250  156.4786 H   0  0  0  0  0  0  0  0  0  0  0  0  # atno 8009 bound_to 7997
  155.7157  140.3470  155.4996 H   0  0  0  0  0  0  0  0  0  0  0  0  # atno 8010 bound_to 7997
  139.5479  144.2186  152.1023 H   0  0  0  0  0  0  0  0  0  0  0  0  # atno 10167 bound_to 10162
  157.3589  131.0962  151.0933 H   0  0  0  0  0  0  0  0  0  0  0  0  # atno 10718 bound_to 10713
  153.5036  135.7017  153.5818 H   0  0  0  0  0  0  0  0  0  0  0  0  # atno 10763 bound_to 10752
  153.3939  135.3889  155.1942 H   0  0  0  0  0  0  0  0  0  0  0  0  # atno 10764 bound_to 10752
  154.8709  135.3865  154.4509 H   0  0  0  0  0  0  0  0  0  0  0  0  # atno 10765 bound_to 10752
  140.4902  134.5992  157.4951 H   0  0  0  0  0  0  0  0  0  0  0  0  # atno 11005 bound_to 11000
  145.5348  141.0425  143.2363 LP  0  0  0  0  0  0  0  0  0  0  0  0  # atno 17320 bound_to 7965
  144.7650  139.6866  143.7218 LP  0  0  0  0  0  0  0  0  0  0  0  0  # atno 17321 bound_to 7965
  140.1676  144.4966  150.6597 LP  0  0  0  0  0  0  0  0  0  0  0  0  # atno 17342 bound_to 10162
  140.6733  143.2294  151.5570 LP  0  0  0  0  0  0  0  0  0  0  0  0  # atno 17343 bound_to 10162
  157.2080  130.6425  149.5763 LP  0  0  0  0  0  0  0  0  0  0  0  0  # atno 17370 bound_to 10713
  155.9734  130.4669  150.6306 LP  0  0  0  0  0  0  0  0  0  0  0  0  # atno 17371 bound_to 10713
  139.9774  134.7193  155.9924 LP  0  0  0  0  0  0  0  0  0  0  0  0  # atno 17394 bound_to 11000
  141.1488  133.6551  156.3949 LP  0  0  0  0  0  0  0  0  0  0  0  0  # atno 17395 bound_to 11000

$$$$
