AV-unprocessed.smi:910|AV-procd|sdf|4123|dock9
  -GOLD-   22720 2 23D 1   1.00000     0.00000
 Structure written by MMmdl.
 46 47  0  0  0  0  0  0  0  0  1 V2000
  157.7930  133.1795  164.3559 C   0  0  0  0  0  0  0  0  0  0  0  0
  157.0001  133.9732  163.3405 C   0  0  0  0  0  0  0  0  0  0  0  0
  156.8570  135.3309  163.4330 N   0  0  0  0  0  0  0  0  0  0  0  0
  156.0779  135.7584  162.3690 C   0  0  0  0  0  0  0  0  0  0  0  0
  155.7101  136.9716  162.0943 N   0  0  0  0  0  0  0  0  0  0  0  0
  154.9116  137.2090  160.9851 C   0  0  0  0  0  0  0  0  0  0  0  0
  154.2960  136.3925  160.2923 O   0  0  0  0  0  0  0  0  0  0  0  0
  154.8906  138.5209  160.7069 N   0  0  0  0  0  0  0  0  0  0  0  0
  154.1908  139.1407  159.5859 C   0  0  0  0  0  0  0  0  0  0  0  0
  154.5725  140.6198  159.4299 C   0  0  0  0  0  0  0  0  0  0  0  0
  154.0246  141.3484  160.5187 O   0  0  0  0  0  0  0  0  0  0  0  0
  153.9065  142.7477  160.2966 C   0  0  1  0  0  0  0  0  0  0  0  0
  152.7868  143.0181  159.2700 C   0  0  0  0  0  0  0  0  0  0  0  0
  152.5247  144.5223  159.1042 C   0  0  0  0  0  0  0  0  0  0  0  0
  152.2004  145.1773  160.4540 C   0  0  0  0  0  0  0  0  0  0  0  0
  153.3189  144.9193  161.4750 C   0  0  0  0  0  0  0  0  0  0  0  0
  153.5926  143.4125  161.6559 C   0  0  2  0  0  0  0  0  0  0  0  0
  154.7222  143.1835  162.6744 C   0  0  0  0  0  0  0  0  0  0  0  0
  155.7655  134.6334  161.6406 O   0  0  0  0  0  0  0  0  0  0  0  0
  156.3406  133.5653  162.2589 C   0  0  0  0  0  0  0  0  0  0  0  0
  156.1440  132.1901  161.6618 C   0  0  0  0  0  0  0  0  0  0  0  0
  157.1545  132.4374  164.8356 H   0  0  0  0  0  0  0  0  0  0  0  0
  158.2042  133.8305  165.1279 H   0  0  0  0  0  0  0  0  0  0  0  0
  158.6180  132.6606  163.8676 H   0  0  0  0  0  0  0  0  0  0  0  0
  157.2642  135.8856  164.1717 H   0  0  0  0  0  0  0  0  0  0  0  0
  155.4205  139.1372  161.3060 H   0  0  0  0  0  0  0  0  0  0  0  0
  154.4053  138.5955  158.6654 H   0  0  0  0  0  0  0  0  0  0  0  0
  153.1180  139.0505  159.7570 H   0  0  0  0  0  0  0  0  0  0  0  0
  155.6580  140.7274  159.4020 H   0  0  0  0  0  0  0  0  0  0  0  0
  154.1840  141.0017  158.4860 H   0  0  0  0  0  0  0  0  0  0  0  0
  154.8495  143.1546  159.9260 H   0  0  0  0  0  0  0  0  0  0  0  0
  153.0443  142.5901  158.3016 H   0  0  0  0  0  0  0  0  0  0  0  0
  151.8692  142.5236  159.5914 H   0  0  0  0  0  0  0  0  0  0  0  0
  153.4015  145.0002  158.6653 H   0  0  0  0  0  0  0  0  0  0  0  0
  151.7024  144.6821  158.4062 H   0  0  0  0  0  0  0  0  0  0  0  0
  152.0571  146.2501  160.3220 H   0  0  0  0  0  0  0  0  0  0  0  0
  151.2575  144.7835  160.8357 H   0  0  0  0  0  0  0  0  0  0  0  0
  154.2300  145.4227  161.1478 H   0  0  0  0  0  0  0  0  0  0  0  0
  153.0477  145.3663  162.4321 H   0  0  0  0  0  0  0  0  0  0  0  0
  152.6869  142.9542  162.0564 H   0  0  0  0  0  0  0  0  0  0  0  0
  155.6640  143.6072  162.3243 H   0  0  0  0  0  0  0  0  0  0  0  0
  154.8850  142.1209  162.8567 H   0  0  0  0  0  0  0  0  0  0  0  0
  154.4854  143.6457  163.6330 H   0  0  0  0  0  0  0  0  0  0  0  0
  156.8762  131.4868  162.0591 H   0  0  0  0  0  0  0  0  0  0  0  0
  156.2559  132.2295  160.5783 H   0  0  0  0  0  0  0  0  0  0  0  0
  155.1456  131.8193  161.8939 H   0  0  0  0  0  0  0  0  0  0  0  0
  1 22  1  0  0  0  0
  1 23  1  0  0  0  0
  1 24  1  0  0  0  0
  1  2  1  0  0  0  0
  2  3  1  0  0  0  0
  2 20  2  0  0  0  0
  3 25  1  0  0  0  0
  3  4  1  0  0  0  0
  4 19  1  0  0  0  0
  4  5  2  0  0  0  0
  5  6  1  0  0  0  0
  6  8  1  0  0  0  0
  6  7  2  0  0  0  0
  8  9  1  0  0  0  0
  8 26  1  0  0  0  0
  9 10  1  0  0  0  0
  9 27  1  0  0  0  0
  9 28  1  0  0  0  0
 10 11  1  0  0  0  0
 10 29  1  0  0  0  0
 10 30  1  0  0  0  0
 11 12  1  0  0  0  0
 12 17  1  0  0  0  0
 12 13  1  0  0  0  0
 12 31  1  0  0  0  0
 13 14  1  0  0  0  0
 13 32  1  0  0  0  0
 13 33  1  0  0  0  0
 14 15  1  0  0  0  0
 14 34  1  0  0  0  0
 14 35  1  0  0  0  0
 15 16  1  0  0  0  0
 15 36  1  0  0  0  0
 15 37  1  0  0  0  0
 16 17  1  0  0  0  0
 16 38  1  0  0  0  0
 16 39  1  0  0  0  0
 17 18  1  0  0  0  0
 17 40  1  0  0  0  0
 18 41  1  0  0  0  0
 18 42  1  0  0  0  0
 18 43  1  0  0  0  0
 19 20  1  0  0  0  0
 20 21  1  0  0  0  0
 21 44  1  0  0  0  0
 21 45  1  0  0  0  0
 21 46  1  0  0  0  0
M  END
> <s_m_source_file>
AV-unprocessed.smi

> <i_m_source_file_index>
910

> <i_lp_mmshare_version>
43012

> <i_f3d_flags>
0

> <s_epik_input>
W0NIM11jMW5jKG9jMVtDSDNdKVtOSF1DKD1PKVtOSF1bQ0gyXVtDSDJdT1tDQEBIXTJbQ0gyXVtDSDJdW0NIMl1bQ0gyXVtDQEhdMltDSDNd

> <s_epik_cmdline>
J2VwaWtfcHl0aG9uJywgJy1waCcsICc3LjAnLCAnLXRuJywgJzgnLCAnLW1hJywgJzIwMCcsICctbWV0YWxfYmluZGluZycsICctaW1hZScsICc8aW5maWxlLm1hZT4nLCAnLW9tYWUnLCAnPG91dGZpbGUubWFlPic=

> <r_lp_tautomer_probability>
0.107061

> <r_epik_Ionization_Penalty>
0.727192

> <r_epik_Ionization_Penalty_Charging>
0.726719

> <r_epik_Ionization_Penalty_Neutral>
0.000473387

> <r_epik_State_Penalty>
2.53712

> <r_epik_Charging_Adjusted_Penalty>
3.26383

> <i_epik_Tot_Q>
0

> <i_epik_Tot_abs_Q>
0

> <r_epik_Metal_State_Penalty>
3.71015

> <b_epik_Metal_Only>
0

> <s_lp_Force_Field>
OPLS_2005

> <r_lp_Energy>
30.8064

> <b_lp_Chiralities_Consistent>
1

> <s_lp_Variant>
AV-unprocessed.smi:910-8

> <Gold.Version>
5.8.1

> <Gold.Id.Protein>
6NUR|6NUR_protein|mol2

> <Gold.PLP.Fitness>
48.9075

> <Gold.PLP.PLP>
-46.3919

> <Gold.PLP.part.hbond>
-1.4269

> <Gold.PLP.part.metal>
0.0000

> <Gold.PLP.part.buried>
-6.6580

> <Gold.PLP.part.nonpolar>
-39.1515

> <Gold.PLP.part.repulsive>
0.0328

> <Gold.PLP.ligand.clash>
0.0000

> <Gold.PLP.ligand.torsion>
0.2644

> <Gold.PLP.Chemscore.Hbond>
1.0000

> <Gold.PLP.Chemscore.CHOScore>
0.0000

> <Gold.PLP.Chemscore.Metal>
0.0000

> <Gold.PLP.Chemscore.Internal.Correction>
0.0445

> <Gold.Rescore>
     Score         DG    S(hbond)    S(metal)    S(lipo)     H(rot)  DE(clash)    DE(int)     intcor
     15.99     -18.12       0.99        0.00     116.07       1.66       0.17       1.97       ----

> <Gold.Chemscore.Fitness>
15.9857

> <Gold.Chemscore.DG>
-18.1194

> <Gold.Chemscore.ZeroCoef>
-5.4800

> <Gold.Chemscore.Hbond>
0.9890

> <Gold.Chemscore.Metal>
0.0000

> <Gold.Chemscore.Lipo>
116.0660

> <Gold.Chemscore.Internal_Hbond>
0.0000

> <Gold.Chemscore.DEClash>
0.1661

> <Gold.Chemscore.DEInternal>
1.9676

> <Gold.Chemscore.Rot>
1.6576

> <Gold.Chemscore.Internal.Correction>
   9.000000E+99

> <Gold.Chemscore.Hbonds>
donor molecule, donor type, donor heavy atom, donor atom, acceptor molecule, acceptor atom, score
      P1  H  6896  6907       L1     7  0.01

> <Gold.Chemscore.Hbond.Weighted>
-3.3032

> <Gold.Chemscore.Metal.Weighted>
-0.0000

> <Gold.Chemscore.Lipo.Weighted>
-13.5797

> <Gold.Chemscore.Internal_Hbond.Weighted>
0.0000

> <Gold.Chemscore.DEClash.Weighted>
0.1661

> <Gold.Chemscore.DEInternal.Weighted>
1.9676

> <Gold.Chemscore.Rot.Weighted>
4.2436

> <Gold.Chemscore.Internal.Correction.Weighted>
   9.000000E+99

> <Gold.Protein.RotatedTorsions>
[ 6907 6896 6895 6894 ] final   47.54 input  -60.11 | X-H torsion
[ 7974 7965 7964 7962 ] final   61.88 input  175.53 | X-H torsion
[ 8008 7997 7996 7995 ] final -169.25 input   59.86 | X-H torsion
[ 10167 10162 10161 10158 ] final   18.07 input  -65.29 | X-H torsion
[ 10718 10713 10712 10709 ] final  169.81 input   66.30 | X-H torsion
[ 10763 10752 10751 10750 ] final  -16.59 input  -60.55 | X-H torsion
[ 11005 11000 10999 10996 ] final -137.54 input  -57.11 | X-H torsion

> <Gold.Protein.ActiveResidues>
 VAL166  LYS551  ARG553  GLY616  TRP617  ASP618  TYR619  PRO620  LYS621  CYS622 
 ASP623  PHE694  ASN695  SER759  ASP760  ASP761  ALA762  ILE779  LEU786  VAL792 
 PHE793  MET794  SER795  GLU796  ALA797  LYS798  CYS799  TRP800  GLU811  SER814 

> <Gold.Protein.RotatedAtoms>
  152.2693  134.7950  160.0416 H   0  0  0  0  0  0  0  0  0  0  0  0  # atno 6907 bound_to 6896
  151.8569  133.3445  159.3699 H   0  0  0  0  0  0  0  0  0  0  0  0  # atno 6908 bound_to 6896
  150.7145  134.5172  159.5680 H   0  0  0  0  0  0  0  0  0  0  0  0  # atno 6909 bound_to 6896
  145.8798  139.3435  143.0713 H   0  0  0  0  0  0  0  0  0  0  0  0  # atno 7974 bound_to 7965
  155.9025  140.1043  157.1339 H   0  0  0  0  0  0  0  0  0  0  0  0  # atno 8008 bound_to 7997
  154.4028  140.1290  156.4518 H   0  0  0  0  0  0  0  0  0  0  0  0  # atno 8009 bound_to 7997
  155.7406  140.3467  155.5105 H   0  0  0  0  0  0  0  0  0  0  0  0  # atno 8010 bound_to 7997
  140.5680  143.9214  150.6691 H   0  0  0  0  0  0  0  0  0  0  0  0  # atno 10167 bound_to 10162
  157.0173  131.0221  151.2785 H   0  0  0  0  0  0  0  0  0  0  0  0  # atno 10718 bound_to 10713
  153.5608  135.7009  153.5548 H   0  0  0  0  0  0  0  0  0  0  0  0  # atno 10763 bound_to 10752
  153.3431  135.4015  155.1587 H   0  0  0  0  0  0  0  0  0  0  0  0  # atno 10764 bound_to 10752
  154.8648  135.3747  154.5125 H   0  0  0  0  0  0  0  0  0  0  0  0  # atno 10765 bound_to 10752
  140.8701  134.2061  157.4656 H   0  0  0  0  0  0  0  0  0  0  0  0  # atno 11005 bound_to 11000
  145.9038  140.9225  143.0489 LP  0  0  0  0  0  0  0  0  0  0  0  0  # atno 17320 bound_to 7965
  144.6727  140.1068  143.7457 LP  0  0  0  0  0  0  0  0  0  0  0  0  # atno 17321 bound_to 7965
  140.2682  143.3475  152.1261 LP  0  0  0  0  0  0  0  0  0  0  0  0  # atno 17342 bound_to 10162
  139.5103  144.6881  151.5833 LP  0  0  0  0  0  0  0  0  0  0  0  0  # atno 17343 bound_to 10162
  157.5276  130.8038  149.7880 LP  0  0  0  0  0  0  0  0  0  0  0  0  # atno 17370 bound_to 10713
  156.0115  130.3831  150.2250 LP  0  0  0  0  0  0  0  0  0  0  0  0  # atno 17371 bound_to 10713
  139.8711  134.9770  156.4943 LP  0  0  0  0  0  0  0  0  0  0  0  0  # atno 17394 bound_to 11000
  140.8583  133.8079  155.9238 LP  0  0  0  0  0  0  0  0  0  0  0  0  # atno 17395 bound_to 11000

$$$$
