AV-unprocessed.smi:227|AV-procd|sdf|1742|dock3
  -GOLD-   2262020243D 1   1.00000     0.00000
 Structure written by MMmdl.
 54 58  0  0  0  0  0  0  0  0  1 V2000
  149.2741  140.1685  153.7022 O   0  0  0  0  0  0  0  0  0  0  0  0
  149.2721  138.8636  154.2452 C   0  0  0  0  0  0  0  0  0  0  0  0
  148.7687  138.8500  155.7120 C   0  0  1  0  0  0  0  0  0  0  0  0
  148.4947  137.4122  156.2277 C   0  0  0  0  0  0  0  0  0  0  0  0
  147.5975  136.6471  155.3804 N   0  0  0  0  0  0  0  0  0  0  0  0
  146.2698  136.9127  155.1438 C   0  0  0  0  0  0  0  0  0  0  0  0
  145.6743  136.0786  154.3371 N   0  0  0  0  0  0  0  0  0  0  0  0
  146.6648  135.1688  153.9810 C   0  0  0  0  0  0  0  0  0  0  0  0
  146.7194  134.0225  153.1320 C   0  0  0  0  0  0  0  0  0  0  0  0
  145.6738  133.5299  152.4104 N   0  0  0  0  0  0  0  0  0  0  0  0
  144.3558  134.1479  152.4443 C   0  0  1  0  0  0  0  0  0  0  0  0
  144.5315  135.4437  151.6279 C   0  0  0  0  0  0  0  0  0  0  0  0
  145.5498  134.9918  150.5702 C   0  0  0  0  0  0  0  0  0  0  0  0
  145.7525  133.5078  150.9553 C   0  0  2  0  0  0  0  0  0  0  0  0
  144.5193  132.6483  150.5966 C   0  0  2  0  0  0  0  0  0  0  0  0
  144.0319  132.6824  149.1359 C   0  0  0  0  0  0  0  0  0  0  0  0
  142.7753  132.0497  149.0225 O   0  0  0  0  0  0  0  0  0  0  0  0
  143.4998  133.1612  151.6286 C   0  0  0  0  0  0  0  0  0  0  0  0
  147.9066  133.3640  153.0573 N   0  0  0  0  0  0  0  0  0  0  0  0
  148.9704  133.7955  153.7394 C   0  0  0  0  0  0  0  0  0  0  0  0
  149.0678  134.8476  154.5517 N   0  0  0  0  0  0  0  0  0  0  0  0
  147.8796  135.5095  154.6447 C   0  0  0  0  0  0  0  0  0  0  0  0
  149.7659  139.5823  156.6473 C   0  0  1  0  0  0  0  0  0  0  0  0
  151.2405  139.2795  156.3764 C   0  0  0  0  0  0  0  0  0  0  0  0
  151.9663  140.6101  156.5980 C   0  0  0  0  0  0  0  0  0  0  0  0
  150.9827  141.4922  157.1145 O   0  0  0  0  0  0  0  0  0  0  0  0
  149.7406  141.1104  156.5515 C   0  0  0  0  0  0  0  0  0  0  0  0
  149.6843  140.1395  152.8512 H   0  0  0  0  0  0  0  0  0  0  0  0
  148.6648  138.2072  153.6210 H   0  0  0  0  0  0  0  0  0  0  0  0
  150.2958  138.4991  154.1710 H   0  0  0  0  0  0  0  0  0  0  0  0
  147.8294  139.4049  155.7505 H   0  0  0  0  0  0  0  0  0  0  0  0
  149.4324  136.8637  156.3253 H   0  0  0  0  0  0  0  0  0  0  0  0
  148.0508  137.4379  157.2227 H   0  0  0  0  0  0  0  0  0  0  0  0
  145.7558  137.7525  155.5882 H   0  0  0  0  0  0  0  0  0  0  0  0
  143.9350  134.3102  153.4348 H   0  0  0  0  0  0  0  0  0  0  0  0
  143.5963  135.7979  151.1930 H   0  0  0  0  0  0  0  0  0  0  0  0
  144.9438  136.2452  152.2424 H   0  0  0  0  0  0  0  0  0  0  0  0
  145.2074  135.1426  149.5478 H   0  0  0  0  0  0  0  0  0  0  0  0
  146.4813  135.5480  150.6832 H   0  0  0  0  0  0  0  0  0  0  0  0
  146.6745  133.0851  150.5546 H   0  0  0  0  0  0  0  0  0  0  0  0
  144.7549  131.6114  150.8445 H   0  0  0  0  0  0  0  0  0  0  0  0
  143.9263  133.7162  148.8065 H   0  0  0  0  0  0  0  0  0  0  0  0
  144.7414  132.2126  148.4557 H   0  0  0  0  0  0  0  0  0  0  0  0
  142.1075  132.6555  149.3056 H   0  0  0  0  0  0  0  0  0  0  0  0
  143.1439  132.3407  152.2529 H   0  0  0  0  0  0  0  0  0  0  0  0
  142.6301  133.6410  151.1778 H   0  0  0  0  0  0  0  0  0  0  0  0
  149.8725  133.2147  153.6154 H   0  0  0  0  0  0  0  0  0  0  0  0
  149.5494  139.3116  157.6821 H   0  0  0  0  0  0  0  0  0  0  0  0
  151.6097  138.5054  157.0500 H   0  0  0  0  0  0  0  0  0  0  0  0
  151.4045  138.9347  155.3545 H   0  0  0  0  0  0  0  0  0  0  0  0
  152.8073  140.5185  157.2857 H   0  0  0  0  0  0  0  0  0  0  0  0
  152.3415  141.0038  155.6524 H   0  0  0  0  0  0  0  0  0  0  0  0
  149.6902  141.4450  155.5139 H   0  0  0  0  0  0  0  0  0  0  0  0
  148.9108  141.5565  157.0999 H   0  0  0  0  0  0  0  0  0  0  0  0
  1  2  1  0  0  0  0
  1 28  1  0  0  0  0
  2  3  1  0  0  0  0
  2 29  1  0  0  0  0
  2 30  1  0  0  0  0
  3  4  1  0  0  0  0
  3 23  1  0  0  0  0
  3 31  1  0  0  0  0
  4  5  1  0  0  0  0
  4 32  1  0  0  0  0
  4 33  1  0  0  0  0
  5 22  1  0  0  0  0
  5  6  1  0  0  0  0
  6  7  2  0  0  0  0
  6 34  1  0  0  0  0
  7  8  1  0  0  0  0
  8 22  2  0  0  0  0
  8  9  1  0  0  0  0
  9 10  1  0  0  0  0
  9 19  2  0  0  0  0
 10 14  1  0  0  0  0
 10 11  1  0  0  0  0
 11 18  1  0  0  0  0
 11 12  1  0  0  0  0
 11 35  1  0  0  0  0
 12 13  1  0  0  0  0
 12 36  1  0  0  0  0
 12 37  1  0  0  0  0
 13 14  1  0  0  0  0
 13 38  1  0  0  0  0
 13 39  1  0  0  0  0
 14 15  1  0  0  0  0
 14 40  1  0  0  0  0
 15 16  1  0  0  0  0
 15 18  1  0  0  0  0
 15 41  1  0  0  0  0
 16 17  1  0  0  0  0
 16 42  1  0  0  0  0
 16 43  1  0  0  0  0
 17 44  1  0  0  0  0
 18 45  1  0  0  0  0
 18 46  1  0  0  0  0
 19 20  1  0  0  0  0
 20 21  2  0  0  0  0
 20 47  1  0  0  0  0
 21 22  1  0  0  0  0
 23 27  1  0  0  0  0
 23 24  1  0  0  0  0
 23 48  1  0  0  0  0
 24 25  1  0  0  0  0
 24 49  1  0  0  0  0
 24 50  1  0  0  0  0
 25 26  1  0  0  0  0
 25 51  1  0  0  0  0
 25 52  1  0  0  0  0
 26 27  1  0  0  0  0
 27 53  1  0  0  0  0
 27 54  1  0  0  0  0
M  END
> <s_m_source_file>
AV-unprocessed.smi

> <i_m_source_file_index>
227

> <i_lp_mmshare_version>
43012

> <i_f3d_flags>
0

> <s_epik_input>
W0NIMl0xT1tDSDJdW0NIMl1bQ0BIXTFbQ0BIXShbQ0gyXVtPSF0pW0NIMl1uKFtjSF1uMiljKGMyMyluW2NIXW5jM04oW0NASF00NSlbQ0BASF0oW0NIMl1bQ0gyXTQpW0NASF0oW0NIMl01KVtDSDJdW09IXQ==

> <s_epik_cmdline>
J2VwaWtfcHl0aG9uJywgJy1waCcsICc3LjAnLCAnLXRuJywgJzgnLCAnLW1hJywgJzIwMCcsICctbWV0YWxfYmluZGluZycsICctaW1hZScsICc8aW5maWxlLm1hZT4nLCAnLW9tYWUnLCAnPG91dGZpbGUubWFlPic=

> <r_lp_tautomer_probability>
1

> <r_epik_Ionization_Penalty>
0.0055791

> <r_epik_Ionization_Penalty_Charging>
0

> <r_epik_Ionization_Penalty_Neutral>
0.0055791

> <r_epik_State_Penalty>
0.00401299

> <r_epik_Charging_Adjusted_Penalty>
0.00401299

> <i_epik_Tot_Q>
0

> <i_epik_Tot_abs_Q>
0

> <r_epik_Metal_State_Penalty>
-0

> <b_epik_Metal_Only>
0

> <s_lp_Force_Field>
OPLS_2005

> <r_lp_Energy>
88.534

> <b_lp_Chiralities_Consistent>
1

> <s_lp_Variant>
AV-unprocessed.smi:227-16

> <Gold.Version>
5.8.1

> <Gold.Id.Protein>
6NUR|6NUR_protein|mol2

> <Gold.PLP.Fitness>
43.5898

> <Gold.PLP.PLP>
-35.3391

> <Gold.PLP.part.hbond>
-4.3844

> <Gold.PLP.part.metal>
0.0000

> <Gold.PLP.part.buried>
-6.4183

> <Gold.PLP.part.nonpolar>
-24.6890

> <Gold.PLP.part.repulsive>
0.4735

> <Gold.PLP.ligand.clash>
0.0000

> <Gold.PLP.ligand.torsion>
0.4970

> <Gold.PLP.Chemscore.Hbond>
2.9920

> <Gold.PLP.Chemscore.CHOScore>
0.0000

> <Gold.PLP.Chemscore.Metal>
0.0000

> <Gold.Chemscore.Hbonds>
donor molecule, donor type, donor heavy atom, donor atom, acceptor molecule, acceptor atom, score
      L1  H     1    28       P1  7957  1.00
      L1  H    17    44       P1 10186  0.88
      P1  H 10785 10796       L1    17  1.00

> <Gold.PLP.Chemscore.Internal.Correction>
0.2687

> <Gold.Rescore>
     Score         DG    S(hbond)    S(metal)    S(lipo)     H(rot)  DE(clash)    DE(int)     intcor
     11.48     -13.06       2.50        0.00      72.46       3.61       0.04       1.54       ----

> <Gold.Chemscore.Fitness>
11.4816

> <Gold.Chemscore.DG>
-13.0587

> <Gold.Chemscore.ZeroCoef>
-5.4800

> <Gold.Chemscore.Hbond>
2.4957

> <Gold.Chemscore.Metal>
0.0000

> <Gold.Chemscore.Lipo>
72.4558

> <Gold.Chemscore.Internal_Hbond>
0.0000

> <Gold.Chemscore.DEClash>
0.0399

> <Gold.Chemscore.DEInternal>
1.5373

> <Gold.Chemscore.Rot>
3.6071

> <Gold.Chemscore.Internal.Correction>
   9.000000E+99

> <Gold.Chemscore.Hbonds>
donor molecule, donor type, donor heavy atom, donor atom, acceptor molecule, acceptor atom, score
      L1  H     1    28       P1  7957  0.96
      L1  H    17    44       P1 10186  0.85
      P1  H 10785 10796       L1    17  0.49

> <Gold.Chemscore.Hbond.Weighted>
-8.3356

> <Gold.Chemscore.Metal.Weighted>
-0.0000

> <Gold.Chemscore.Lipo.Weighted>
-8.4773

> <Gold.Chemscore.Internal_Hbond.Weighted>
0.0000

> <Gold.Chemscore.DEClash.Weighted>
0.0399

> <Gold.Chemscore.DEInternal.Weighted>
1.5373

> <Gold.Chemscore.Rot.Weighted>
9.2342

> <Gold.Chemscore.Internal.Correction.Weighted>
   9.000000E+99

> <Gold.Protein.RotatedTorsions>
[ 6907 6896 6895 6894 ] final -140.21 input  -60.11 | X-H torsion
[ 7974 7965 7964 7962 ] final  103.19 input  175.53 | X-H torsion
[ 8008 7997 7996 7995 ] final   -3.66 input   59.86 | X-H torsion
[ 10167 10162 10161 10158 ] final  -10.32 input  -65.29 | X-H torsion
[ 10718 10713 10712 10709 ] final   91.66 input   66.30 | X-H torsion
[ 10763 10752 10751 10750 ] final   -2.77 input  -60.55 | X-H torsion
[ 11005 11000 10999 10996 ] final -142.53 input  -57.11 | X-H torsion

> <Gold.Protein.ActiveResidues>
 VAL166  LYS551  ARG553  GLY616  TRP617  ASP618  TYR619  PRO620  LYS621  CYS622 
 ASP623  PHE694  ASN695  SER759  ASP760  ASP761  ALA762  ILE779  LEU786  VAL792 
 PHE793  MET794  SER795  GLU796  ALA797  LYS798  CYS799  TRP800  GLU811  SER814 

> <Gold.Protein.RotatedAtoms>
  151.0577  133.5570  159.2636 H   0  0  0  0  0  0  0  0  0  0  0  0  # atno 6907 bound_to 6896
  151.2557  135.0636  159.9089 H   0  0  0  0  0  0  0  0  0  0  0  0  # atno 6908 bound_to 6896
  152.5392  134.0330  159.8087 H   0  0  0  0  0  0  0  0  0  0  0  0  # atno 6909 bound_to 6896
  145.3492  139.2443  143.3567 H   0  0  0  0  0  0  0  0  0  0  0  0  # atno 7974 bound_to 7965
  154.6225  140.2503  155.7531 H   0  0  0  0  0  0  0  0  0  0  0  0  # atno 8008 bound_to 7997
  156.2435  140.2923  156.0459 H   0  0  0  0  0  0  0  0  0  0  0  0  # atno 8009 bound_to 7997
  155.1873  140.0390  157.2884 H   0  0  0  0  0  0  0  0  0  0  0  0  # atno 8010 bound_to 7997
  140.7110  143.5761  150.9041 H   0  0  0  0  0  0  0  0  0  0  0  0  # atno 10167 bound_to 10162
  157.6960  131.0415  150.3764 H   0  0  0  0  0  0  0  0  0  0  0  0  # atno 10718 bound_to 10713
  153.3624  135.6991  153.6702 H   0  0  0  0  0  0  0  0  0  0  0  0  # atno 10763 bound_to 10752
  153.5385  135.3578  155.2708 H   0  0  0  0  0  0  0  0  0  0  0  0  # atno 10764 bound_to 10752
  154.8670  135.4198  154.2884 H   0  0  0  0  0  0  0  0  0  0  0  0  # atno 10765 bound_to 10752
  140.8216  134.2624  157.4898 H   0  0  0  0  0  0  0  0  0  0  0  0  # atno 11005 bound_to 11000
  146.2975  140.4105  142.8716 LP  0  0  0  0  0  0  0  0  0  0  0  0  # atno 17320 bound_to 7965
  144.8731  140.7299  143.6034 LP  0  0  0  0  0  0  0  0  0  0  0  0  # atno 17321 bound_to 7965
  139.9487  143.6297  152.3035 LP  0  0  0  0  0  0  0  0  0  0  0  0  # atno 17342 bound_to 10162
  139.6808  144.7655  151.1612 LP  0  0  0  0  0  0  0  0  0  0  0  0  # atno 17343 bound_to 10162
  156.4182  130.3947  149.6843 LP  0  0  0  0  0  0  0  0  0  0  0  0  # atno 17370 bound_to 10713
  156.4103  130.7719  151.2731 LP  0  0  0  0  0  0  0  0  0  0  0  0  # atno 17371 bound_to 10713
  139.8708  134.9538  156.4157 LP  0  0  0  0  0  0  0  0  0  0  0  0  # atno 17394 bound_to 11000
  140.9093  133.7723  155.9772 LP  0  0  0  0  0  0  0  0  0  0  0  0  # atno 17395 bound_to 11000

$$$$
