AV-unprocessed.smi:1295|AV-procd|sdf|5412|dock1
  -GOLD-   22720 4573D 1   1.00000     0.00000
 Structure written by MMmdl.
 42 43  0  0  0  0  0  0  0  0  2 V2000
  147.7633  136.3020  160.9061 C   0  0  0  0  0  0  0  0  0  0  0  0
  148.3399  136.8877  159.6352 C   0  0  0  0  0  0  0  0  0  0  0  0
  147.7354  137.8583  159.0634 N   0  0  0  0  0  0  0  0  0  0  0  0
  148.2650  138.4018  157.8806 C   0  0  0  0  0  0  0  0  0  0  0  0
  147.4826  139.5522  157.2707 C   0  0  0  0  0  0  0  0  0  0  0  0
  149.4122  137.9106  157.3300 C   0  0  0  0  0  0  0  0  0  0  0  0
  150.0260  138.4671  156.0459 C   0  0  0  0  0  0  0  0  0  0  0  0
  150.7991  139.7789  156.1964 C   0  0  0  0  0  0  0  0  0  0  0  0
  151.0508  140.4689  155.2086 O   0  0  0  0  0  0  0  0  0  0  0  0
  151.1651  140.1090  157.4449 N   0  0  0  0  0  0  0  0  0  0  0  0
  151.8680  141.3282  157.8410 C   0  0  1  0  0  0  0  0  0  0  0  0
  151.0227  142.5422  157.4081 C   0  0  0  0  0  0  0  0  0  0  0  0
  151.6595  143.8679  157.8490 C   0  0  0  0  0  0  0  0  0  0  0  0
  151.9021  143.8832  159.3639 C   0  0  0  0  0  0  0  0  0  0  0  0
  152.7641  142.6874  159.7939 C   0  0  0  0  0  0  0  0  0  0  0  0
  152.1395  141.3431  159.3679 C   0  0  2  0  0  0  0  0  0  0  0  0
  153.0261  140.1716  159.8271 C   0  0  0  0  0  0  0  0  0  0  0  0
  150.0769  136.7901  158.0193 C   0  0  0  0  0  0  0  0  0  0  0  0
  151.1089  136.3018  157.5604 O   0  0  0  0  0  0  0  0  0  0  0  0
  149.5057  136.3252  159.1668 N   0  5  0  0  0  0  0  0  0  0  0  0
  146.7548  136.6754  161.0887 H   0  0  0  0  0  0  0  0  0  0  0  0
  148.3881  136.5673  161.7590 H   0  0  0  0  0  0  0  0  0  0  0  0
  147.7154  135.2146  160.8366 H   0  0  0  0  0  0  0  0  0  0  0  0
  148.0881  140.4583  157.2495 H   0  0  0  0  0  0  0  0  0  0  0  0
  146.5811  139.7654  157.8466 H   0  0  0  0  0  0  0  0  0  0  0  0
  147.1779  139.3125  156.2517 H   0  0  0  0  0  0  0  0  0  0  0  0
  150.6924  137.7090  155.6331 H   0  0  0  0  0  0  0  0  0  0  0  0
  149.2643  138.6091  155.2791 H   0  0  0  0  0  0  0  0  0  0  0  0
  150.9154  139.4722  158.1874 H   0  0  0  0  0  0  0  0  0  0  0  0
  152.8265  141.3932  157.3226 H   0  0  0  0  0  0  0  0  0  0  0  0
  150.8971  142.5404  156.3245 H   0  0  0  0  0  0  0  0  0  0  0  0
  150.0209  142.4666  157.8341 H   0  0  0  0  0  0  0  0  0  0  0  0
  152.6048  144.0132  157.3243 H   0  0  0  0  0  0  0  0  0  0  0  0
  151.0161  144.7015  157.5666 H   0  0  0  0  0  0  0  0  0  0  0  0
  152.3885  144.8154  159.6530 H   0  0  0  0  0  0  0  0  0  0  0  0
  150.9470  143.8559  159.8901 H   0  0  0  0  0  0  0  0  0  0  0  0
  153.7596  142.7842  159.3582 H   0  0  0  0  0  0  0  0  0  0  0  0
  152.8990  142.7094  160.8758 H   0  0  0  0  0  0  0  0  0  0  0  0
  151.1818  141.2487  159.8825 H   0  0  0  0  0  0  0  0  0  0  0  0
  153.9868  140.1782  159.3114 H   0  0  0  0  0  0  0  0  0  0  0  0
  152.5530  139.2083  159.6365 H   0  0  0  0  0  0  0  0  0  0  0  0
  153.2235  140.2255  160.8980 H   0  0  0  0  0  0  0  0  0  0  0  0
  1  2  1  0  0  0  0
  1 21  1  0  0  0  0
  1 22  1  0  0  0  0
  1 23  1  0  0  0  0
  2 20  1  0  0  0  0
  2  3  2  0  0  0  0
  3  4  1  0  0  0  0
  4  5  1  0  0  0  0
  4  6  2  0  0  0  0
  5 24  1  0  0  0  0
  5 25  1  0  0  0  0
  5 26  1  0  0  0  0
  6  7  1  0  0  0  0
  6 18  1  0  0  0  0
  7  8  1  0  0  0  0
  7 27  1  0  0  0  0
  7 28  1  0  0  0  0
  8  9  2  0  0  0  0
  8 10  1  0  0  0  0
 10 11  1  0  0  0  0
 10 29  1  0  0  0  0
 11 16  1  0  0  0  0
 11 12  1  0  0  0  0
 11 30  1  0  0  0  0
 12 13  1  0  0  0  0
 12 31  1  0  0  0  0
 12 32  1  0  0  0  0
 13 14  1  0  0  0  0
 13 33  1  0  0  0  0
 13 34  1  0  0  0  0
 14 15  1  0  0  0  0
 14 35  1  0  0  0  0
 14 36  1  0  0  0  0
 15 16  1  0  0  0  0
 15 37  1  0  0  0  0
 15 38  1  0  0  0  0
 16 17  1  0  0  0  0
 16 39  1  0  0  0  0
 17 40  1  0  0  0  0
 17 41  1  0  0  0  0
 17 42  1  0  0  0  0
 18 19  2  0  0  0  0
 18 20  1  0  0  0  0
M  CHG  1  20  -1
M  END
> <s_m_source_file>
AV-unprocessed.smi

> <i_m_source_file_index>
1295

> <i_lp_mmshare_version>
43012

> <i_f3d_flags>
0

> <s_epik_input>
W0NIM11jMW5jKFtDSDNdKWMoYyg9TylbbkhdMSlbQ0gyXUMoPU8pW05IXVtDQEBIXTJbQ0gyXVtDSDJdW0NIMl1bQ0gyXVtDQEhdMltDSDNd

> <s_epik_cmdline>
J2VwaWtfcHl0aG9uJywgJy1waCcsICc3LjAnLCAnLXRuJywgJzgnLCAnLW1hJywgJzIwMCcsICctbWV0YWxfYmluZGluZycsICctaW1hZScsICc8aW5maWxlLm1hZT4nLCAnLW9tYWUnLCAnPG91dGZpbGUubWFlPic=

> <r_lp_tautomer_probability>
0.839158

> <r_epik_Ionization_Penalty>
6.67742

> <r_epik_Ionization_Penalty_Charging>
7.78154e-08

> <r_epik_Ionization_Penalty_Neutral>
6.67742

> <r_epik_State_Penalty>
4.51991

> <r_epik_Charging_Adjusted_Penalty>
4.51991

> <i_epik_Tot_Q>
-1

> <i_epik_Tot_abs_Q>
1

> <r_epik_Metal_State_Penalty>
0.853272

> <b_epik_Metal_Only>
1

> <s_lp_Force_Field>
OPLS_2005

> <r_lp_Energy>
15.3241

> <b_lp_Chiralities_Consistent>
1

> <s_lp_Variant>
AV-unprocessed.smi:1295-12

> <Gold.Version>
5.8.1

> <Gold.Id.Protein>
6NUR|6NUR_protein|mol2

> <Gold.PLP.Fitness>
43.7883

> <Gold.PLP.PLP>
-34.7831

> <Gold.PLP.part.hbond>
-3.6451

> <Gold.PLP.part.metal>
0.0000

> <Gold.PLP.part.buried>
-5.4181

> <Gold.PLP.part.nonpolar>
-26.5915

> <Gold.PLP.part.repulsive>
0.0848

> <Gold.PLP.ligand.clash>
0.0000

> <Gold.PLP.ligand.torsion>
0.4803

> <Gold.PLP.Chemscore.Hbond>
3.3203

> <Gold.PLP.Chemscore.CHOScore>
0.0000

> <Gold.PLP.Chemscore.Metal>
0.0000

> <Gold.Chemscore.Hbonds>
donor molecule, donor type, donor heavy atom, donor atom, acceptor molecule, acceptor atom, score
      P1  H  6896  6907       L1    20  1.89
      P1  H  6934  6947       L1     3  0.21
      P1  H  7989  7998       L1     9  0.99

> <Gold.PLP.Chemscore.Internal.Correction>
0.0050

> <Gold.Rescore>
     Score         DG    S(hbond)    S(metal)    S(lipo)     H(rot)  DE(clash)    DE(int)     intcor
     18.32     -18.63       2.11        0.00      83.77       1.45       0.03       0.29       ----

> <Gold.Chemscore.Fitness>
18.3184

> <Gold.Chemscore.DG>
-18.6340

> <Gold.Chemscore.ZeroCoef>
-5.4800

> <Gold.Chemscore.Hbond>
2.1115

> <Gold.Chemscore.Metal>
0.0000

> <Gold.Chemscore.Lipo>
83.7685

> <Gold.Chemscore.Internal_Hbond>
0.0000

> <Gold.Chemscore.DEClash>
0.0291

> <Gold.Chemscore.DEInternal>
0.2865

> <Gold.Chemscore.Rot>
1.4450

> <Gold.Chemscore.Internal.Correction>
   9.000000E+99

> <Gold.Chemscore.Hbonds>
donor molecule, donor type, donor heavy atom, donor atom, acceptor molecule, acceptor atom, score
      P1  H  6896  6907       L1    20  0.27
      P1  H  6934  6947       L1     3  0.05
      P1  H  7989  7998       L1     9  0.94

> <Gold.Chemscore.Hbond.Weighted>
-7.0523

> <Gold.Chemscore.Metal.Weighted>
-0.0000

> <Gold.Chemscore.Lipo.Weighted>
-9.8009

> <Gold.Chemscore.Internal_Hbond.Weighted>
0.0000

> <Gold.Chemscore.DEClash.Weighted>
0.0291

> <Gold.Chemscore.DEInternal.Weighted>
0.2865

> <Gold.Chemscore.Rot.Weighted>
3.6992

> <Gold.Chemscore.Internal.Correction.Weighted>
   9.000000E+99

> <Gold.Protein.RotatedTorsions>
[ 6907 6896 6895 6894 ] final  -56.79 input  -60.11 | X-H torsion
[ 7974 7965 7964 7962 ] final -143.75 input  175.53 | X-H torsion
[ 8008 7997 7996 7995 ] final  -36.81 input   59.86 | X-H torsion
[ 10167 10162 10161 10158 ] final -159.52 input  -65.29 | X-H torsion
[ 10718 10713 10712 10709 ] final   92.02 input   66.30 | X-H torsion
[ 10763 10752 10751 10750 ] final -136.58 input  -60.55 | X-H torsion
[ 11005 11000 10999 10996 ] final  152.90 input  -57.11 | X-H torsion

> <Gold.Protein.ActiveResidues>
 VAL166  LYS551  ARG553  GLY616  TRP617  ASP618  TYR619  PRO620  LYS621  CYS622 
 ASP623  PHE694  ASN695  SER759  ASP760  ASP761  ALA762  ILE779  LEU786  VAL792 
 PHE793  MET794  SER795  GLU796  ALA797  LYS798  CYS799  TRP800  GLU811  SER814 

> <Gold.Protein.RotatedAtoms>
  150.8138  134.7309  159.6711 H   0  0  0  0  0  0  0  0  0  0  0  0  # atno 6907 bound_to 6896
  152.4258  134.5868  159.9973 H   0  0  0  0  0  0  0  0  0  0  0  0  # atno 6908 bound_to 6896
  151.6071  133.3313  159.3095 H   0  0  0  0  0  0  0  0  0  0  0  0  # atno 6909 bound_to 6896
  144.8347  140.5796  143.5492 H   0  0  0  0  0  0  0  0  0  0  0  0  # atno 7974 bound_to 7965
  154.4065  140.1621  156.2434 H   0  0  0  0  0  0  0  0  0  0  0  0  # atno 8008 bound_to 7997
  155.9181  140.3423  155.6129 H   0  0  0  0  0  0  0  0  0  0  0  0  # atno 8009 bound_to 7997
  155.7255  140.0773  157.2303 H   0  0  0  0  0  0  0  0  0  0  0  0  # atno 8010 bound_to 7997
  139.6609  143.9914  152.2225 H   0  0  0  0  0  0  0  0  0  0  0  0  # atno 10167 bound_to 10162
  157.6959  131.0428  150.3817 H   0  0  0  0  0  0  0  0  0  0  0  0  # atno 10718 bound_to 10713
  154.8680  135.3668  154.5085 H   0  0  0  0  0  0  0  0  0  0  0  0  # atno 10763 bound_to 10752
  153.5721  135.7020  153.5505 H   0  0  0  0  0  0  0  0  0  0  0  0  # atno 10764 bound_to 10752
  153.3532  135.4066  155.1625 H   0  0  0  0  0  0  0  0  0  0  0  0  # atno 10765 bound_to 10752
  140.1349  134.8777  157.2254 H   0  0  0  0  0  0  0  0  0  0  0  0  # atno 11005 bound_to 11000
  145.4821  139.1494  143.3756 LP  0  0  0  0  0  0  0  0  0  0  0  0  # atno 17320 bound_to 7965
  146.2647  140.4957  142.8839 LP  0  0  0  0  0  0  0  0  0  0  0  0  # atno 17321 bound_to 7965
  139.9653  144.6530  150.8040 LP  0  0  0  0  0  0  0  0  0  0  0  0  # atno 17342 bound_to 10162
  140.7579  143.3097  151.2875 LP  0  0  0  0  0  0  0  0  0  0  0  0  # atno 17343 bound_to 10162
  156.4230  130.3957  149.6812 LP  0  0  0  0  0  0  0  0  0  0  0  0  # atno 17370 bound_to 10713
  156.4056  130.7696  151.2706 LP  0  0  0  0  0  0  0  0  0  0  0  0  # atno 17371 bound_to 10713
  140.2795  134.3366  155.7347 LP  0  0  0  0  0  0  0  0  0  0  0  0  # atno 17394 bound_to 11000
  141.2176  133.7470  156.9343 LP  0  0  0  0  0  0  0  0  0  0  0  0  # atno 17395 bound_to 11000

$$$$
