AV-unprocessed.smi:1543|AV-procd|sdf|6208|dock4
  -GOLD-   22720 6383D 1   1.00000     0.00000
 Structure written by MMmdl.
 49 50  0  0  0  0  0  0  0  0  2 V2000
  152.2123  139.0964  154.6239 C   0  0  0  0  0  0  0  0  0  0  0  0
  151.0549  138.1215  154.3801 C   0  0  2  0  0  0  0  0  0  0  0  0
  149.7124  138.8538  154.2051 C   0  0  0  0  0  0  0  0  0  0  0  0
  148.6008  137.8758  154.0477 N   0  3  2  0  0  0  0  0  0  0  0  0
  147.2698  138.4512  153.6348 C   0  0  0  0  0  0  0  0  0  0  0  0
  146.8649  139.5907  154.6035 C   0  0  0  0  0  0  0  0  0  0  0  0
  147.4057  139.1073  152.2374 C   0  0  0  0  0  0  0  0  0  0  0  0
  146.1612  137.3560  153.6209 C   0  0  0  0  0  0  0  0  0  0  0  0
  144.8191  137.8853  153.3802 N   0  0  0  0  0  0  0  0  0  0  0  0
  143.6702  137.2475  153.6471 C   0  0  0  0  0  0  0  0  0  0  0  0
  143.6187  136.1162  154.1288 O   0  0  0  0  0  0  0  0  0  0  0  0
  142.6084  138.0087  153.3322 N   0  0  0  0  0  0  0  0  0  0  0  0
  141.2274  137.6911  153.4401 C   0  0  0  0  0  0  0  0  0  0  0  0
  140.1786  138.5194  152.9713 C   0  0  0  0  0  0  0  0  0  0  0  0
  138.8473  138.0999  153.1566 C   0  0  0  0  0  0  0  0  0  0  0  0
  138.6122  136.8741  153.8089 C   0  0  0  0  0  0  0  0  0  0  0  0
  139.6013  136.0814  154.2723 N   0  0  0  0  0  0  0  0  0  0  0  0
  140.8751  136.4899  154.0915 C   0  0  0  0  0  0  0  0  0  0  0  0
  148.5766  136.9664  155.2285 C   0  0  0  0  0  0  0  0  0  0  0  0
  149.9386  136.2737  155.4266 C   0  0  1  0  0  0  0  0  0  0  0  0
  150.2302  135.1802  154.3833 C   0  0  0  0  0  0  0  0  0  0  0  0
  150.9794  137.2459  155.5002 O   0  0  0  0  0  0  0  0  0  0  0  0
  152.3271  139.7875  153.7885 H   0  0  0  0  0  0  0  0  0  0  0  0
  153.1545  138.5606  154.7422 H   0  0  0  0  0  0  0  0  0  0  0  0
  152.0494  139.6862  155.5265 H   0  0  0  0  0  0  0  0  0  0  0  0
  151.2808  137.5505  153.4793 H   0  0  0  0  0  0  0  0  0  0  0  0
  149.5278  139.4949  155.0678 H   0  0  0  0  0  0  0  0  0  0  0  0
  149.8018  139.5029  153.3364 H   0  0  0  0  0  0  0  0  0  0  0  0
  146.0221  140.1669  154.2197 H   0  0  0  0  0  0  0  0  0  0  0  0
  147.6859  140.2918  154.7581 H   0  0  0  0  0  0  0  0  0  0  0  0
  146.5521  139.2167  155.5781 H   0  0  0  0  0  0  0  0  0  0  0  0
  146.5395  139.7225  151.9924 H   0  0  0  0  0  0  0  0  0  0  0  0
  147.4869  138.3709  151.4384 H   0  0  0  0  0  0  0  0  0  0  0  0
  148.2803  139.7570  152.1865 H   0  0  0  0  0  0  0  0  0  0  0  0
  146.3846  136.5809  152.8875 H   0  0  0  0  0  0  0  0  0  0  0  0
  146.1193  136.8480  154.5837 H   0  0  0  0  0  0  0  0  0  0  0  0
  144.7629  138.8144  152.9887 H   0  0  0  0  0  0  0  0  0  0  0  0
  142.8109  138.9483  153.0232 H   0  0  0  0  0  0  0  0  0  0  0  0
  140.3645  139.4667  152.4899 H   0  0  0  0  0  0  0  0  0  0  0  0
  138.0241  138.7069  152.8102 H   0  0  0  0  0  0  0  0  0  0  0  0
  137.6032  136.5238  153.9674 H   0  0  0  0  0  0  0  0  0  0  0  0
  141.6399  135.8319  154.4780 H   0  0  0  0  0  0  0  0  0  0  0  0
  148.3404  137.5378  156.1263 H   0  0  0  0  0  0  0  0  0  0  0  0
  147.8147  136.1950  155.1375 H   0  0  0  0  0  0  0  0  0  0  0  0
  149.9200  135.7815  156.3995 H   0  0  0  0  0  0  0  0  0  0  0  0
  149.4905  134.3816  154.4442 H   0  0  0  0  0  0  0  0  0  0  0  0
  151.2104  134.7334  154.5519 H   0  0  0  0  0  0  0  0  0  0  0  0
  150.2080  135.5633  153.3635 H   0  0  0  0  0  0  0  0  0  0  0  0
  148.8740  137.2907  153.2710 H   0  0  0  0  0  0  0  0  0  0  0  0
  1  2  1  0  0  0  0
  1 23  1  0  0  0  0
  1 24  1  0  0  0  0
  1 25  1  0  0  0  0
  2 22  1  0  0  0  0
  2  3  1  0  0  0  0
  2 26  1  0  0  0  0
  3  4  1  0  0  0  0
  3 27  1  0  0  0  0
  3 28  1  0  0  0  0
  4  5  1  0  0  0  0
  4 19  1  0  0  0  0
  4 49  1  0  0  0  0
  5  6  1  0  0  0  0
  5  7  1  0  0  0  0
  5  8  1  0  0  0  0
  6 29  1  0  0  0  0
  6 30  1  0  0  0  0
  6 31  1  0  0  0  0
  7 32  1  0  0  0  0
  7 33  1  0  0  0  0
  7 34  1  0  0  0  0
  8  9  1  0  0  0  0
  8 35  1  0  0  0  0
  8 36  1  0  0  0  0
  9 10  1  0  0  0  0
  9 37  1  0  0  0  0
 10 11  2  0  0  0  0
 10 12  1  0  0  0  0
 12 13  1  0  0  0  0
 12 38  1  0  0  0  0
 13 18  1  0  0  0  0
 13 14  2  0  0  0  0
 14 15  1  0  0  0  0
 14 39  1  0  0  0  0
 15 16  2  0  0  0  0
 15 40  1  0  0  0  0
 16 17  1  0  0  0  0
 16 41  1  0  0  0  0
 17 18  2  0  0  0  0
 18 42  1  0  0  0  0
 19 20  1  0  0  0  0
 19 43  1  0  0  0  0
 19 44  1  0  0  0  0
 20 21  1  0  0  0  0
 20 22  1  0  0  0  0
 20 45  1  0  0  0  0
 21 46  1  0  0  0  0
 21 47  1  0  0  0  0
 21 48  1  0  0  0  0
M  CHG  1   4   1
M  END
> <s_m_source_file>
AV-unprocessed.smi

> <i_m_source_file_index>
1543

> <i_lp_mmshare_version>
43012

> <i_f3d_flags>
0

> <s_epik_input>
W0NIM11bQ0BASF0xW0NIMl1OKFtDSDJdW0NASF0oTzEpW0NIM10pQyhbQ0gzXSkoW0NIM10pW0NIMl1bTkhdQyg9TylbTkhdYzJbY0hdW2NIXVtjSF1uW2NIXTI=

> <s_epik_cmdline>
J2VwaWtfcHl0aG9uJywgJy1waCcsICc3LjAnLCAnLXRuJywgJzgnLCAnLW1hJywgJzIwMCcsICctbWV0YWxfYmluZGluZycsICctaW1hZScsICc8aW5maWxlLm1hZT4nLCAnLW9tYWUnLCAnPG91dGZpbGUubWFlPic=

> <r_epik_Ionization_Penalty>
0.60676

> <r_epik_Ionization_Penalty_Charging>
0.602531

> <r_epik_Ionization_Penalty_Neutral>
0.00422967

> <r_epik_State_Penalty>
0.607492

> <r_epik_Charging_Adjusted_Penalty>
1.21002

> <i_epik_Tot_Q>
1

> <i_epik_Tot_abs_Q>
1

> <r_epik_Metal_State_Penalty>
0.604589

> <b_epik_Metal_Only>
0

> <s_lp_Force_Field>
OPLS_2005

> <r_lp_Energy>
30.3839

> <b_lp_Chiralities_Consistent>
1

> <s_lp_Variant>
AV-unprocessed.smi:1543-4

> <Gold.Version>
5.8.1

> <Gold.Id.Protein>
6NUR|6NUR_protein|mol2

> <Gold.PLP.Fitness>
45.2987

> <Gold.PLP.PLP>
-30.9129

> <Gold.PLP.part.hbond>
-4.0000

> <Gold.PLP.part.metal>
0.0000

> <Gold.PLP.part.buried>
1.1940

> <Gold.PLP.part.nonpolar>
-29.1350

> <Gold.PLP.part.repulsive>
0.1913

> <Gold.PLP.ligand.clash>
0.0000

> <Gold.PLP.ligand.torsion>
0.3442

> <Gold.PLP.Chemscore.Hbond>
4.9825

> <Gold.PLP.Chemscore.CHOScore>
0.0000

> <Gold.PLP.Chemscore.Metal>
0.0000

> <Gold.Chemscore.Hbonds>
donor molecule, donor type, donor heavy atom, donor atom, acceptor molecule, acceptor atom, score
      L1  H     4    49       P1  7948  2.00
      L1  H     9    37       P1 10175  0.98
      L1  H    12    38       P1 10175  1.00
      P1  H 11000 11005       L1    17  0.45

> <Gold.PLP.Chemscore.Internal.Correction>
0.1267

> <Gold.Rescore>
     Score         DG    S(hbond)    S(metal)    S(lipo)     H(rot)  DE(clash)    DE(int)     intcor
     19.52     -21.86       2.95        0.00      87.81       1.46       0.63       1.72       ----

> <Gold.Chemscore.Fitness>
19.5161

> <Gold.Chemscore.DG>
-21.8591

> <Gold.Chemscore.ZeroCoef>
-5.4800

> <Gold.Chemscore.Hbond>
2.9493

> <Gold.Chemscore.Metal>
0.0000

> <Gold.Chemscore.Lipo>
87.8149

> <Gold.Chemscore.Internal_Hbond>
0.0000

> <Gold.Chemscore.DEClash>
0.6268

> <Gold.Chemscore.DEInternal>
1.7162

> <Gold.Chemscore.Rot>
1.4632

> <Gold.Chemscore.Internal.Correction>
   9.000000E+99

> <Gold.Chemscore.Hbonds>
donor molecule, donor type, donor heavy atom, donor atom, acceptor molecule, acceptor atom, score
      L1  H     4    49       P1  7948  1.00
      L1  H     9    37       P1 10175  0.87
      L1  H    12    38       P1 10175  1.00
      P1  H 11000 11005       L1    17  0.09

> <Gold.Chemscore.Hbond.Weighted>
-9.8506

> <Gold.Chemscore.Metal.Weighted>
-0.0000

> <Gold.Chemscore.Lipo.Weighted>
-10.2743

> <Gold.Chemscore.Internal_Hbond.Weighted>
0.0000

> <Gold.Chemscore.DEClash.Weighted>
0.6268

> <Gold.Chemscore.DEInternal.Weighted>
1.7162

> <Gold.Chemscore.Rot.Weighted>
3.7459

> <Gold.Chemscore.Internal.Correction.Weighted>
   9.000000E+99

> <Gold.Protein.RotatedTorsions>
[ 6907 6896 6895 6894 ] final -139.57 input  -60.11 | X-H torsion
[ 7974 7965 7964 7962 ] final -145.51 input  175.53 | X-H torsion
[ 8008 7997 7996 7995 ] final  -79.25 input   59.86 | X-H torsion
[ 10167 10162 10161 10158 ] final  -81.45 input  -65.29 | X-H torsion
[ 10718 10713 10712 10709 ] final    5.73 input   66.30 | X-H torsion
[ 10763 10752 10751 10750 ] final  116.35 input  -60.55 | X-H torsion
[ 11005 11000 10999 10996 ] final   74.28 input  -57.11 | X-H torsion

> <Gold.Protein.ActiveResidues>
 VAL166  LYS551  ARG553  GLY616  TRP617  ASP618  TYR619  PRO620  LYS621  CYS622 
 ASP623  PHE694  ASN695  SER759  ASP760  ASP761  ALA762  ILE779  LEU786  VAL792 
 PHE793  MET794  SER795  GLU796  ALA797  LYS798  CYS799  TRP800  GLU811  SER814 

> <Gold.Protein.RotatedAtoms>
  151.0495  133.5636  159.2643 H   0  0  0  0  0  0  0  0  0  0  0  0  # atno 6907 bound_to 6896
  151.2652  135.0666  159.9123 H   0  0  0  0  0  0  0  0  0  0  0  0  # atno 6908 bound_to 6896
  152.5379  134.0234  159.8046 H   0  0  0  0  0  0  0  0  0  0  0  0  # atno 6909 bound_to 6896
  144.8222  140.5574  143.5570 H   0  0  0  0  0  0  0  0  0  0  0  0  # atno 7974 bound_to 7965
  154.5767  140.0681  156.9045 H   0  0  0  0  0  0  0  0  0  0  0  0  # atno 8008 bound_to 7997
  155.2536  140.3353  155.4261 H   0  0  0  0  0  0  0  0  0  0  0  0  # atno 8009 bound_to 7997
  156.2159  140.1778  156.7574 H   0  0  0  0  0  0  0  0  0  0  0  0  # atno 8010 bound_to 7997
  140.4411  143.2514  151.8624 H   0  0  0  0  0  0  0  0  0  0  0  0  # atno 10167 bound_to 10162
  156.9118  130.5759  149.5647 H   0  0  0  0  0  0  0  0  0  0  0  0  # atno 10718 bound_to 10713
  153.5359  135.3568  155.2697 H   0  0  0  0  0  0  0  0  0  0  0  0  # atno 10763 bound_to 10752
  154.8722  135.4079  154.3099 H   0  0  0  0  0  0  0  0  0  0  0  0  # atno 10764 bound_to 10752
  153.3796  135.7067  153.6643 H   0  0  0  0  0  0  0  0  0  0  0  0  # atno 10765 bound_to 10752
  139.9399  134.7419  156.1128 H   0  0  0  0  0  0  0  0  0  0  0  0  # atno 11005 bound_to 11000
  145.5079  139.1480  143.3621 LP  0  0  0  0  0  0  0  0  0  0  0  0  # atno 17320 bound_to 7965
  146.2528  140.5219  142.8886 LP  0  0  0  0  0  0  0  0  0  0  0  0  # atno 17321 bound_to 7965
  139.4789  144.5228  151.8777 LP  0  0  0  0  0  0  0  0  0  0  0  0  # atno 17342 bound_to 10162
  140.4317  144.2106  150.5888 LP  0  0  0  0  0  0  0  0  0  0  0  0  # atno 17343 bound_to 10162
  156.0532  130.5598  150.9035 LP  0  0  0  0  0  0  0  0  0  0  0  0  # atno 17370 bound_to 10713
  157.5963  131.0943  150.9036 LP  0  0  0  0  0  0  0  0  0  0  0  0  # atno 17371 bound_to 10713
  141.1029  133.6671  156.2795 LP  0  0  0  0  0  0  0  0  0  0  0  0  # atno 17394 bound_to 11000
  140.5979  134.5584  157.5512 LP  0  0  0  0  0  0  0  0  0  0  0  0  # atno 17395 bound_to 11000

$$$$
