AV-unprocessed.smi:212|AV-procd|sdf|1620|dock2
  -GOLD-   2262019553D 1   1.00000     0.00000
 Structure written by MMmdl.
 65 68  0  0  0  0  0  0  0  0  2 V2000
  149.6115  134.5841  155.6042 C   0  0  0  0  0  0  0  0  0  0  0  0
  149.0964  135.7912  154.7967 C   0  0  1  0  0  0  0  0  0  0  0  0
  147.5563  135.8741  154.7783 C   0  0  0  0  0  0  0  0  0  0  0  0
  147.0957  137.0099  153.9374 N   0  3  1  0  0  0  0  0  0  0  0  0
  145.6170  137.0694  153.7889 C   0  0  0  0  0  0  0  0  0  0  0  0
  145.1266  136.4851  152.4429 C   0  0  0  0  0  0  0  0  0  0  0  0
  145.5765  135.0209  152.3073 C   0  0  0  0  0  0  0  0  0  0  0  0
  143.5984  136.5892  152.2824 C   0  0  0  0  0  0  0  0  0  0  0  0
  145.7346  137.1915  151.3796 O   0  0  0  0  0  0  0  0  0  0  0  0
  147.6914  138.3026  154.3618 C   0  0  0  0  0  0  0  0  0  0  0  0
  149.2304  138.2219  154.4278 C   0  0  0  0  0  0  0  0  0  0  0  0
  149.6893  137.0705  155.2004 N   0  0  0  0  0  0  0  0  0  0  0  0
  149.8585  137.3027  156.5236 C   0  0  0  0  0  0  0  0  0  0  0  0
  149.1643  136.5811  157.4412 N   0  0  0  0  0  0  0  0  0  0  0  0
  149.3438  136.8120  158.7452 C   0  0  0  0  0  0  0  0  0  0  0  0
  150.1536  137.6960  159.3315 N   0  0  0  0  0  0  0  0  0  0  0  0
  150.8562  138.4176  158.4119 C   0  0  0  0  0  0  0  0  0  0  0  0
  150.7628  138.2881  156.9983 C   0  0  0  0  0  0  0  0  0  0  0  0
  151.6135  139.1917  156.3775 N   0  0  0  0  0  0  0  0  0  0  0  0
  152.1793  139.8227  157.3700 C   0  0  0  0  0  0  0  0  0  0  0  0
  151.7980  139.4097  158.6286 N   0  0  0  0  0  0  0  0  0  0  0  0
  152.2783  139.9372  159.8994 C   0  0  0  0  0  0  0  0  0  0  0  0
  153.5541  140.8140  159.7854 C   0  0  2  0  0  0  0  0  0  0  0  0
  154.7548  140.1208  160.4732 C   0  0  0  0  0  0  0  0  0  0  0  0
  155.9894  140.6675  160.0591 O   0  0  0  0  0  0  0  0  0  0  0  0
  153.3140  142.2585  160.3056 C   0  0  2  0  0  0  0  0  0  0  0  0
  152.8464  142.3354  161.7505 C   0  0  0  0  0  0  0  0  0  0  0  0
  152.2919  143.7533  161.8435 C   0  0  0  0  0  0  0  0  0  0  0  0
  151.8237  144.0723  160.5379 O   0  0  0  0  0  0  0  0  0  0  0  0
  152.1776  143.0336  159.6317 C   0  0  0  0  0  0  0  0  0  0  0  0
  149.2329  133.6504  155.1881 H   0  0  0  0  0  0  0  0  0  0  0  0
  149.2962  134.6264  156.6473 H   0  0  0  0  0  0  0  0  0  0  0  0
  150.7006  134.5325  155.5839 H   0  0  0  0  0  0  0  0  0  0  0  0
  149.4222  135.6320  153.7677 H   0  0  0  0  0  0  0  0  0  0  0  0
  147.1477  134.9417  154.3886 H   0  0  0  0  0  0  0  0  0  0  0  0
  147.1653  135.9856  155.7905 H   0  0  0  0  0  0  0  0  0  0  0  0
  145.1337  136.5640  154.6270 H   0  0  0  0  0  0  0  0  0  0  0  0
  145.2843  138.1071  153.8496 H   0  0  0  0  0  0  0  0  0  0  0  0
  145.1416  134.4007  153.0917 H   0  0  0  0  0  0  0  0  0  0  0  0
  146.6610  134.9277  152.3792 H   0  0  0  0  0  0  0  0  0  0  0  0
  145.2737  134.5964  151.3492 H   0  0  0  0  0  0  0  0  0  0  0  0
  143.0824  136.0672  153.0892 H   0  0  0  0  0  0  0  0  0  0  0  0
  143.2670  136.1474  151.3418 H   0  0  0  0  0  0  0  0  0  0  0  0
  143.2587  137.6253  152.2901 H   0  0  0  0  0  0  0  0  0  0  0  0
  146.6650  137.0242  151.3996 H   0  0  0  0  0  0  0  0  0  0  0  0
  147.4037  139.0856  153.6592 H   0  0  0  0  0  0  0  0  0  0  0  0
  147.2805  138.5867  155.3310 H   0  0  0  0  0  0  0  0  0  0  0  0
  149.6357  138.1320  153.4194 H   0  0  0  0  0  0  0  0  0  0  0  0
  149.6397  139.1451  154.8416 H   0  0  0  0  0  0  0  0  0  0  0  0
  148.7566  136.2012  159.4149 H   0  0  0  0  0  0  0  0  0  0  0  0
  152.9017  140.6091  157.2080 H   0  0  0  0  0  0  0  0  0  0  0  0
  151.4721  140.5246  160.3407 H   0  0  0  0  0  0  0  0  0  0  0  0
  152.4389  139.1044  160.5839 H   0  0  0  0  0  0  0  0  0  0  0  0
  153.7835  140.8777  158.7203 H   0  0  0  0  0  0  0  0  0  0  0  0
  154.6744  140.1802  161.5592 H   0  0  0  0  0  0  0  0  0  0  0  0
  154.7813  139.0628  160.2114 H   0  0  0  0  0  0  0  0  0  0  0  0
  156.5976  139.9597  159.9095 H   0  0  0  0  0  0  0  0  0  0  0  0
  154.2273  142.8451  160.1968 H   0  0  0  0  0  0  0  0  0  0  0  0
  152.0478  141.6137  161.9286 H   0  0  0  0  0  0  0  0  0  0  0  0
  153.6318  142.1503  162.4815 H   0  0  0  0  0  0  0  0  0  0  0  0
  151.4968  143.8392  162.5844 H   0  0  0  0  0  0  0  0  0  0  0  0
  153.0822  144.4557  162.1102 H   0  0  0  0  0  0  0  0  0  0  0  0
  152.4645  143.4441  158.6633 H   0  0  0  0  0  0  0  0  0  0  0  0
  151.3051  142.3949  159.4871 H   0  0  0  0  0  0  0  0  0  0  0  0
  147.4571  136.8355  153.0105 H   0  0  0  0  0  0  0  0  0  0  0  0
  1  2  1  0  0  0  0
  1 31  1  0  0  0  0
  1 32  1  0  0  0  0
  1 33  1  0  0  0  0
  2 12  1  0  0  0  0
  2  3  1  0  0  0  0
  2 34  1  0  0  0  0
  3  4  1  0  0  0  0
  3 35  1  0  0  0  0
  3 36  1  0  0  0  0
  4  5  1  0  0  0  0
  4 10  1  0  0  0  0
  4 65  1  0  0  0  0
  5  6  1  0  0  0  0
  5 37  1  0  0  0  0
  5 38  1  0  0  0  0
  6  7  1  0  0  0  0
  6  8  1  0  0  0  0
  6  9  1  0  0  0  0
  7 39  1  0  0  0  0
  7 40  1  0  0  0  0
  7 41  1  0  0  0  0
  8 42  1  0  0  0  0
  8 43  1  0  0  0  0
  8 44  1  0  0  0  0
  9 45  1  0  0  0  0
 10 11  1  0  0  0  0
 10 46  1  0  0  0  0
 10 47  1  0  0  0  0
 11 12  1  0  0  0  0
 11 48  1  0  0  0  0
 11 49  1  0  0  0  0
 12 13  1  0  0  0  0
 13 18  1  0  0  0  0
 13 14  2  0  0  0  0
 14 15  1  0  0  0  0
 15 16  2  0  0  0  0
 15 50  1  0  0  0  0
 16 17  1  0  0  0  0
 17 21  1  0  0  0  0
 17 18  2  0  0  0  0
 18 19  1  0  0  0  0
 19 20  2  0  0  0  0
 20 21  1  0  0  0  0
 20 51  1  0  0  0  0
 21 22  1  0  0  0  0
 22 23  1  0  0  0  0
 22 52  1  0  0  0  0
 22 53  1  0  0  0  0
 23 24  1  0  0  0  0
 23 26  1  0  0  0  0
 23 54  1  0  0  0  0
 24 25  1  0  0  0  0
 24 55  1  0  0  0  0
 24 56  1  0  0  0  0
 25 57  1  0  0  0  0
 26 30  1  0  0  0  0
 26 27  1  0  0  0  0
 26 58  1  0  0  0  0
 27 28  1  0  0  0  0
 27 59  1  0  0  0  0
 27 60  1  0  0  0  0
 28 29  1  0  0  0  0
 28 61  1  0  0  0  0
 28 62  1  0  0  0  0
 29 30  1  0  0  0  0
 30 63  1  0  0  0  0
 30 64  1  0  0  0  0
M  CHG  1   4   1
M  END
> <s_m_source_file>
AV-unprocessed.smi

> <i_m_source_file_index>
212

> <i_lp_mmshare_version>
43012

> <i_f3d_flags>
0

> <s_epik_input>
W0NIM11bQ0BASF0xW0NIMl1OKFtDSDJdQyhbQ0gzXSkoW0NIM10pW09IXSlbQ0gyXVtDSDJdTjFjKG5bY0hdbjIpYyhjMjMpbltjSF1uM1tDSDJdW0NASF0oW0NIMl1bT0hdKVtDQEBIXTRbQ0gyXVtDSDJdT1tDSDJdNA==

> <s_epik_cmdline>
J2VwaWtfcHl0aG9uJywgJy1waCcsICc3LjAnLCAnLXRuJywgJzgnLCAnLW1hJywgJzIwMCcsICctbWV0YWxfYmluZGluZycsICctaW1hZScsICc8aW5maWxlLm1hZT4nLCAnLW9tYWUnLCAnPG91dGZpbGUubWFlPic=

> <r_lp_tautomer_probability>
1

> <r_epik_Ionization_Penalty>
0.00182193

> <r_epik_Ionization_Penalty_Charging>
0.00173996

> <r_epik_Ionization_Penalty_Neutral>
8.19718e-05

> <r_epik_State_Penalty>
-0

> <r_epik_Charging_Adjusted_Penalty>
0.00173996

> <i_epik_Tot_Q>
1

> <i_epik_Tot_abs_Q>
1

> <r_epik_Metal_State_Penalty>
-0

> <b_epik_Metal_Only>
0

> <s_lp_Force_Field>
OPLS_2005

> <r_lp_Energy>
59.7923

> <b_lp_Chiralities_Consistent>
1

> <s_lp_Variant>
AV-unprocessed.smi:212-4

> <Gold.Version>
5.8.1

> <Gold.Id.Protein>
6NUR|6NUR_protein|mol2

> <Gold.PLP.Fitness>
49.9947

> <Gold.PLP.PLP>
-43.4908

> <Gold.PLP.part.hbond>
-4.3905

> <Gold.PLP.part.metal>
0.0000

> <Gold.PLP.part.buried>
-5.2301

> <Gold.PLP.part.nonpolar>
-32.9173

> <Gold.PLP.part.repulsive>
0.2006

> <Gold.PLP.ligand.clash>
0.0000

> <Gold.PLP.ligand.torsion>
1.9267

> <Gold.PLP.Chemscore.Hbond>
3.0000

> <Gold.PLP.Chemscore.CHOScore>
0.0000

> <Gold.PLP.Chemscore.Metal>
0.0000

> <Gold.Chemscore.Hbonds>
donor molecule, donor type, donor heavy atom, donor atom, acceptor molecule, acceptor atom, score
      L1  H     4    65       P1  7948  1.98

> <Gold.PLP.Chemscore.Internal.Correction>
1.3573

> <Gold.Rescore>
     Score         DG    S(hbond)    S(metal)    S(lipo)     H(rot)  DE(clash)    DE(int)     intcor
     10.94     -14.60       1.92        0.00     103.75       3.68       0.04       3.62       ----

> <Gold.Chemscore.Fitness>
10.9378

> <Gold.Chemscore.DG>
-14.6017

> <Gold.Chemscore.ZeroCoef>
-5.4800

> <Gold.Chemscore.Hbond>
1.9183

> <Gold.Chemscore.Metal>
0.0000

> <Gold.Chemscore.Lipo>
103.7477

> <Gold.Chemscore.Internal_Hbond>
0.0000

> <Gold.Chemscore.DEClash>
0.0443

> <Gold.Chemscore.DEInternal>
3.6196

> <Gold.Chemscore.Rot>
3.6812

> <Gold.Chemscore.Internal.Correction>
   9.000000E+99

> <Gold.Chemscore.Hbonds>
donor molecule, donor type, donor heavy atom, donor atom, acceptor molecule, acceptor atom, score
      L1  H     4    65       P1  7948  0.91
      L1  H     9    45       P1  7948  0.06

> <Gold.Chemscore.Hbond.Weighted>
-6.4072

> <Gold.Chemscore.Metal.Weighted>
-0.0000

> <Gold.Chemscore.Lipo.Weighted>
-12.1385

> <Gold.Chemscore.Internal_Hbond.Weighted>
0.0000

> <Gold.Chemscore.DEClash.Weighted>
0.0443

> <Gold.Chemscore.DEInternal.Weighted>
3.6196

> <Gold.Chemscore.Rot.Weighted>
9.4239

> <Gold.Chemscore.Internal.Correction.Weighted>
   9.000000E+99

> <Gold.Protein.RotatedTorsions>
[ 6907 6896 6895 6894 ] final   58.19 input  -60.11 | X-H torsion
[ 7974 7965 7964 7962 ] final   80.03 input  175.53 | X-H torsion
[ 8008 7997 7996 7995 ] final  -82.24 input   59.86 | X-H torsion
[ 10167 10162 10161 10158 ] final   -2.32 input  -65.29 | X-H torsion
[ 10718 10713 10712 10709 ] final -113.15 input   66.30 | X-H torsion
[ 10763 10752 10751 10750 ] final  136.24 input  -60.55 | X-H torsion
[ 11005 11000 10999 10996 ] final -159.89 input  -57.11 | X-H torsion

> <Gold.Protein.ActiveResidues>
 VAL166  LYS551  ARG553  GLY616  TRP617  ASP618  TYR619  PRO620  LYS621  CYS622 
 ASP623  PHE694  ASN695  SER759  ASP760  ASP761  ALA762  ILE779  LEU786  VAL792 
 PHE793  MET794  SER795  GLU796  ALA797  LYS798  CYS799  TRP800  GLU811  SER814 

> <Gold.Protein.RotatedAtoms>
  152.3801  134.6603  160.0145 H   0  0  0  0  0  0  0  0  0  0  0  0  # atno 6907 bound_to 6896
  151.6869  133.3306  159.3241 H   0  0  0  0  0  0  0  0  0  0  0  0  # atno 6908 bound_to 6896
  150.7740  134.6668  159.6414 H   0  0  0  0  0  0  0  0  0  0  0  0  # atno 6909 bound_to 6896
  145.6565  139.2460  143.1947 H   0  0  0  0  0  0  0  0  0  0  0  0  # atno 7974 bound_to 7965
  154.6065  140.0636  156.9438 H   0  0  0  0  0  0  0  0  0  0  0  0  # atno 8008 bound_to 7997
  155.2044  140.3317  155.4320 H   0  0  0  0  0  0  0  0  0  0  0  0  # atno 8009 bound_to 7997
  156.2351  140.1859  156.7125 H   0  0  0  0  0  0  0  0  0  0  0  0  # atno 8010 bound_to 7997
  140.6846  143.6671  150.8216 H   0  0  0  0  0  0  0  0  0  0  0  0  # atno 10167 bound_to 10162
  156.0749  130.5958  150.8604 H   0  0  0  0  0  0  0  0  0  0  0  0  # atno 10718 bound_to 10713
  153.8532  135.3076  155.3433 H   0  0  0  0  0  0  0  0  0  0  0  0  # atno 10763 bound_to 10752
  154.7882  135.4798  153.9996 H   0  0  0  0  0  0  0  0  0  0  0  0  # atno 10764 bound_to 10752
  153.1506  135.6842  153.8982 H   0  0  0  0  0  0  0  0  0  0  0  0  # atno 10765 bound_to 10752
  140.6375  134.4586  157.5232 H   0  0  0  0  0  0  0  0  0  0  0  0  # atno 11005 bound_to 11000
  146.1161  140.7368  142.9480 LP  0  0  0  0  0  0  0  0  0  0  0  0  # atno 17320 bound_to 7965
  144.7104  140.4017  143.7085 LP  0  0  0  0  0  0  0  0  0  0  0  0  # atno 17321 bound_to 7965
  140.0376  143.5379  152.2732 LP  0  0  0  0  0  0  0  0  0  0  0  0  # atno 17342 bound_to 10162
  139.6194  144.7626  151.2773 LP  0  0  0  0  0  0  0  0  0  0  0  0  # atno 17343 bound_to 10162
  157.5839  131.0946  150.9227 LP  0  0  0  0  0  0  0  0  0  0  0  0  # atno 17370 bound_to 10713
  156.9417  130.5387  149.5280 LP  0  0  0  0  0  0  0  0  0  0  0  0  # atno 17371 bound_to 10713
  139.9092  134.8381  156.1589 LP  0  0  0  0  0  0  0  0  0  0  0  0  # atno 17394 bound_to 11000
  141.0631  133.6832  156.1991 LP  0  0  0  0  0  0  0  0  0  0  0  0  # atno 17395 bound_to 11000

$$$$
