AV-unprocessed.smi:3181|AV-procd|sdf|12141|dock8
  -GOLD-   2272017583D 1   1.00000     0.00000
 Structure written by MMmdl.
 42 43  0  0  0  0  0  0  0  0  2 V2000
  150.4919  140.3189  155.2940 C   0  0  0  0  0  0  0  0  0  0  0  0
  149.4264  141.3477  155.7084 C   0  0  2  0  0  0  0  0  0  0  0  0
  148.4364  141.6827  154.5684 C   0  0  0  0  0  0  0  0  0  0  0  0
  147.6074  140.5539  154.1875 N   0  0  0  0  0  0  0  0  0  0  0  0
  147.3602  140.0268  152.9872 C   0  0  0  0  0  0  0  0  0  0  0  0
  146.5411  138.9853  153.0190 N   0  0  0  0  0  0  0  0  0  0  0  0
  146.3092  138.9173  154.3638 C   0  0  0  0  0  0  0  0  0  0  0  0
  146.9265  139.8341  155.1096 N   0  0  0  0  0  0  0  0  0  0  0  0
  150.1005  142.5657  156.2156 N   0  3  0  0  0  0  0  0  0  0  0  0
  150.5075  142.5436  157.6391 C   0  0  1  0  0  0  0  0  0  0  0  0
  151.6175  141.5039  157.8516 C   0  0  0  0  0  0  0  0  0  0  0  0
  152.0682  141.4748  159.3186 C   0  0  0  0  0  0  0  0  0  0  0  0
  152.5477  142.8576  159.8058 C   0  0  2  0  0  0  0  0  0  0  0  0
  152.9855  142.7682  161.2786 C   0  0  0  0  0  0  0  0  0  0  0  0
  151.4574  143.9354  159.5629 C   0  0  1  0  0  0  0  0  0  0  0  0
  151.9147  145.3494  159.9632 C   0  0  0  0  0  0  0  0  0  0  0  0
  151.0035  143.9305  158.0881 C   0  0  0  0  0  0  0  0  0  0  0  0
  150.0453  139.3605  155.0281 H   0  0  0  0  0  0  0  0  0  0  0  0
  151.1911  140.1294  156.1092 H   0  0  0  0  0  0  0  0  0  0  0  0
  151.0679  140.6680  154.4366 H   0  0  0  0  0  0  0  0  0  0  0  0
  148.8678  140.9107  156.5376 H   0  0  0  0  0  0  0  0  0  0  0  0
  147.7674  142.4902  154.8659 H   0  0  0  0  0  0  0  0  0  0  0  0
  148.9766  142.0337  153.6873 H   0  0  0  0  0  0  0  0  0  0  0  0
  147.7853  140.4135  152.0726 H   0  0  0  0  0  0  0  0  0  0  0  0
  145.6659  138.1707  154.8060 H   0  0  0  0  0  0  0  0  0  0  0  0
  150.9451  142.6770  155.6731 H   0  0  0  0  0  0  0  0  0  0  0  0
  149.6550  142.2537  158.2559 H   0  0  0  0  0  0  0  0  0  0  0  0
  151.2648  140.5140  157.5586 H   0  0  0  0  0  0  0  0  0  0  0  0
  152.4721  141.7306  157.2122 H   0  0  0  0  0  0  0  0  0  0  0  0
  151.2435  141.1293  159.9438 H   0  0  0  0  0  0  0  0  0  0  0  0
  152.8675  140.7418  159.4348 H   0  0  0  0  0  0  0  0  0  0  0  0
  153.4270  143.1273  159.2184 H   0  0  0  0  0  0  0  0  0  0  0  0
  152.1366  142.5714  161.9343 H   0  0  0  0  0  0  0  0  0  0  0  0
  153.4650  143.6866  161.6159 H   0  0  0  0  0  0  0  0  0  0  0  0
  153.7078  141.9644  161.4234 H   0  0  0  0  0  0  0  0  0  0  0  0
  150.5901  143.6859  160.1763 H   0  0  0  0  0  0  0  0  0  0  0  0
  152.8256  145.6358  159.4367 H   0  0  0  0  0  0  0  0  0  0  0  0
  152.1069  145.4257  161.0330 H   0  0  0  0  0  0  0  0  0  0  0  0
  151.1500  146.0902  159.7276 H   0  0  0  0  0  0  0  0  0  0  0  0
  151.8321  144.2460  157.4517 H   0  0  0  0  0  0  0  0  0  0  0  0
  150.2167  144.6717  157.9486 H   0  0  0  0  0  0  0  0  0  0  0  0
  149.5132  143.3707  156.0497 H   0  0  0  0  0  0  0  0  0  0  0  0
  1  2  1  0  0  0  0
  1 18  1  0  0  0  0
  1 19  1  0  0  0  0
  1 20  1  0  0  0  0
  2  3  1  0  0  0  0
  2  9  1  0  0  0  0
  2 21  1  0  0  0  0
  3  4  1  0  0  0  0
  3 22  1  0  0  0  0
  3 23  1  0  0  0  0
  4  8  1  0  0  0  0
  4  5  1  0  0  0  0
  5  6  2  0  0  0  0
  5 24  1  0  0  0  0
  6  7  1  0  0  0  0
  7  8  2  0  0  0  0
  7 25  1  0  0  0  0
  9 10  1  0  0  0  0
  9 26  1  0  0  0  0
  9 42  1  0  0  0  0
 10 17  1  0  0  0  0
 10 11  1  0  0  0  0
 10 27  1  0  0  0  0
 11 12  1  0  0  0  0
 11 28  1  0  0  0  0
 11 29  1  0  0  0  0
 12 13  1  0  0  0  0
 12 30  1  0  0  0  0
 12 31  1  0  0  0  0
 13 14  1  0  0  0  0
 13 15  1  0  0  0  0
 13 32  1  0  0  0  0
 14 33  1  0  0  0  0
 14 34  1  0  0  0  0
 14 35  1  0  0  0  0
 15 16  1  0  0  0  0
 15 17  1  0  0  0  0
 15 36  1  0  0  0  0
 16 37  1  0  0  0  0
 16 38  1  0  0  0  0
 16 39  1  0  0  0  0
 17 40  1  0  0  0  0
 17 41  1  0  0  0  0
M  CHG  1   9   1
M  END
> <s_m_source_file>
AV-unprocessed.smi

> <i_m_source_file_index>
3181

> <i_lp_mmshare_version>
43012

> <i_f3d_flags>
0

> <s_epik_input>
bjFbY0hdbltjSF1uMVtDSDJdW0NAQEhdKFtDSDNdKVtOSF1bQ0BASF0yW0NIMl1bQ0gyXVtDQEBIXShbQ0gzXSlbQ0BASF0oW0NIM10pW0NIMl0y

> <s_epik_cmdline>
J2VwaWtfcHl0aG9uJywgJy1waCcsICc3LjAnLCAnLXRuJywgJzgnLCAnLW1hJywgJzIwMCcsICctbWV0YWxfYmluZGluZycsICctaW1hZScsICc8aW5maWxlLm1hZT4nLCAnLW9tYWUnLCAnPG91dGZpbGUubWFlPic=

> <r_lp_tautomer_probability>
1

> <r_epik_Ionization_Penalty>
0.000617007

> <r_epik_Ionization_Penalty_Charging>
0.000616215

> <r_epik_Ionization_Penalty_Neutral>
7.92544e-07

> <r_epik_State_Penalty>
0.000388807

> <r_epik_Charging_Adjusted_Penalty>
0.00100502

> <i_epik_Tot_Q>
1

> <i_epik_Tot_abs_Q>
1

> <r_epik_Metal_State_Penalty>
-0

> <b_epik_Metal_Only>
0

> <s_lp_Force_Field>
OPLS_2005

> <r_lp_Energy>
19.8131

> <b_lp_Chiralities_Consistent>
1

> <s_lp_Variant>
AV-unprocessed.smi:3181-7

> <Gold.Version>
5.8.1

> <Gold.Id.Protein>
6NUR|6NUR_protein|mol2

> <Gold.PLP.Fitness>
44.6069

> <Gold.PLP.PLP>
-36.4990

> <Gold.PLP.part.hbond>
-0.9935

> <Gold.PLP.part.metal>
0.0000

> <Gold.PLP.part.buried>
-2.3979

> <Gold.PLP.part.nonpolar>
-33.9092

> <Gold.PLP.part.repulsive>
0.4150

> <Gold.PLP.ligand.clash>
0.0000

> <Gold.PLP.ligand.torsion>
0.4549

> <Gold.PLP.Chemscore.Hbond>
2.0000

> <Gold.PLP.Chemscore.CHOScore>
1.0000

> <Gold.PLP.Chemscore.Metal>
0.0000

> <Gold.Chemscore.Hbonds>
donor molecule, donor type, donor heavy atom, donor atom, acceptor molecule, acceptor atom, score
      L1  H     9    42       P1  8028  2.00
      L1  C     5    24       P1  7957  1.00

> <Gold.PLP.Chemscore.Internal.Correction>
0.0177

> <Gold.Rescore>
     Score         DG    S(hbond)    S(metal)    S(lipo)     H(rot)  DE(clash)    DE(int)     intcor
     14.81     -15.30       1.00        0.00     101.66       2.11       0.00       0.49       ----

> <Gold.Chemscore.Fitness>
14.8095

> <Gold.Chemscore.DG>
-15.2986

> <Gold.Chemscore.ZeroCoef>
-5.4800

> <Gold.Chemscore.Hbond>
0.9953

> <Gold.Chemscore.Metal>
0.0000

> <Gold.Chemscore.Lipo>
101.6631

> <Gold.Chemscore.Internal_Hbond>
0.0000

> <Gold.Chemscore.DEClash>
0.0029

> <Gold.Chemscore.DEInternal>
0.4863

> <Gold.Chemscore.Rot>
2.1095

> <Gold.Chemscore.Internal.Correction>
   9.000000E+99

> <Gold.Chemscore.Hbonds>
donor molecule, donor type, donor heavy atom, donor atom, acceptor molecule, acceptor atom, score
      L1  H     9    42       P1  8028  0.94

> <Gold.Chemscore.Hbond.Weighted>
-3.3243

> <Gold.Chemscore.Metal.Weighted>
-0.0000

> <Gold.Chemscore.Lipo.Weighted>
-11.8946

> <Gold.Chemscore.Internal_Hbond.Weighted>
0.0000

> <Gold.Chemscore.DEClash.Weighted>
0.0029

> <Gold.Chemscore.DEInternal.Weighted>
0.4863

> <Gold.Chemscore.Rot.Weighted>
5.4003

> <Gold.Chemscore.Internal.Correction.Weighted>
   9.000000E+99

> <Gold.Protein.RotatedTorsions>
[ 6907 6896 6895 6894 ] final -148.34 input  -60.11 | X-H torsion
[ 7974 7965 7964 7962 ] final  127.09 input  175.53 | X-H torsion
[ 8008 7997 7996 7995 ] final  156.79 input   59.86 | X-H torsion
[ 10167 10162 10161 10158 ] final  -30.24 input  -65.29 | X-H torsion
[ 10718 10713 10712 10709 ] final  112.67 input   66.30 | X-H torsion
[ 10763 10752 10751 10750 ] final   63.62 input  -60.55 | X-H torsion
[ 11005 11000 10999 10996 ] final  -44.00 input  -57.11 | X-H torsion

> <Gold.Protein.ActiveResidues>
 VAL166  LYS551  ARG553  GLY616  TRP617  ASP618  TYR619  PRO620  LYS621  CYS622 
 ASP623  PHE694  ASN695  SER759  ASP760  ASP761  ALA762  ILE779  LEU786  VAL792 
 PHE793  MET794  SER795  GLU796  ALA797  LYS798  CYS799  TRP800  GLU811  SER814 

> <Gold.Protein.RotatedAtoms>
  151.1684  133.4800  159.2593 H   0  0  0  0  0  0  0  0  0  0  0  0  # atno 6907 bound_to 6896
  151.1382  135.0165  159.8623 H   0  0  0  0  0  0  0  0  0  0  0  0  # atno 6908 bound_to 6896
  152.5462  134.1580  159.8599 H   0  0  0  0  0  0  0  0  0  0  0  0  # atno 6909 bound_to 6896
  145.0544  139.3856  143.5037 H   0  0  0  0  0  0  0  0  0  0  0  0  # atno 7974 bound_to 7965
  156.2402  140.1903  156.7009 H   0  0  0  0  0  0  0  0  0  0  0  0  # atno 8008 bound_to 7997
  154.6183  140.0612  156.9609 H   0  0  0  0  0  0  0  0  0  0  0  0  # atno 8009 bound_to 7997
  155.1904  140.3284  155.4362 H   0  0  0  0  0  0  0  0  0  0  0  0  # atno 8010 bound_to 7997
  140.7251  143.3864  151.1508 H   0  0  0  0  0  0  0  0  0  0  0  0  # atno 10167 bound_to 10162
  157.6380  131.0971  150.6929 H   0  0  0  0  0  0  0  0  0  0  0  0  # atno 10718 bound_to 10713
  153.0024  135.5422  154.6381 H   0  0  0  0  0  0  0  0  0  0  0  0  # atno 10763 bound_to 10752
  154.5642  135.2836  155.0892 H   0  0  0  0  0  0  0  0  0  0  0  0  # atno 10764 bound_to 10752
  154.2082  135.6472  153.5160 H   0  0  0  0  0  0  0  0  0  0  0  0  # atno 10765 bound_to 10752
  141.0422  133.6775  156.2812 H   0  0  0  0  0  0  0  0  0  0  0  0  # atno 11005 bound_to 11000
  146.3520  140.0210  142.8658 LP  0  0  0  0  0  0  0  0  0  0  0  0  # atno 17320 bound_to 7965
  145.1487  140.9611  143.4446 LP  0  0  0  0  0  0  0  0  0  0  0  0  # atno 17321 bound_to 7965
  139.7462  143.8848  152.3064 LP  0  0  0  0  0  0  0  0  0  0  0  0  # atno 17342 bound_to 10162
  139.8686  144.7080  150.9014 LP  0  0  0  0  0  0  0  0  0  0  0  0  # atno 17343 bound_to 10162
  156.7257  130.4694  149.5512 LP  0  0  0  0  0  0  0  0  0  0  0  0  # atno 17370 bound_to 10713
  156.1636  130.6390  151.0749 LP  0  0  0  0  0  0  0  0  0  0  0  0  # atno 17371 bound_to 10713
  140.6214  134.5358  157.5548 LP  0  0  0  0  0  0  0  0  0  0  0  0  # atno 17394 bound_to 11000
  139.9284  134.8011  156.1001 LP  0  0  0  0  0  0  0  0  0  0  0  0  # atno 17395 bound_to 11000

$$$$
