AV-unprocessed.smi:2536|AV-procd|sdf|9978|dock5
  -GOLD-   2272014 23D 1   1.00000     0.00000
 Structure written by MMmdl.
 32 33  0  0  0  0  0  0  0  0  1 V2000
  150.8520  137.7743  154.1261 C   0  0  0  0  0  0  0  0  0  0  0  0
  150.8453  139.1229  154.8204 C   0  0  0  0  0  0  0  0  0  0  0  0
  149.9572  140.1417  154.4136 C   0  0  0  0  0  0  0  0  0  0  0  0
  149.9286  141.3491  155.0177 N   0  0  0  0  0  0  0  0  0  0  0  0
  150.7812  141.5436  156.0257 C   0  0  0  0  0  0  0  0  0  0  0  0
  150.7191  142.7902  156.6225 N   0  0  0  0  0  0  0  0  0  0  0  0
  151.5930  143.2516  157.6940 C   0  0  2  0  0  0  0  0  0  0  0  0
  151.4344  142.3984  158.9645 C   0  0  0  0  0  0  0  0  0  0  0  0
  152.2982  142.9773  160.0897 C   0  0  0  0  0  0  0  0  0  0  0  0
  151.9867  144.4688  160.2898 C   0  0  0  0  0  0  0  0  0  0  0  0
  152.1772  145.1721  159.0665 O   0  0  0  0  0  0  0  0  0  0  0  0
  151.3116  144.7290  158.0260 C   0  0  0  0  0  0  0  0  0  0  0  0
  151.6666  140.6562  156.4932 N   0  0  0  0  0  0  0  0  0  0  0  0
  151.7068  139.4436  155.8982 C   0  0  0  0  0  0  0  0  0  0  0  0
  152.7239  138.4722  156.4696 C   0  0  0  0  0  0  0  0  0  0  0  0
  150.0994  137.7338  153.3383 H   0  0  0  0  0  0  0  0  0  0  0  0
  150.6366  136.9780  154.8390 H   0  0  0  0  0  0  0  0  0  0  0  0
  151.8248  137.5836  153.6722 H   0  0  0  0  0  0  0  0  0  0  0  0
  149.2626  139.9898  153.6007 H   0  0  0  0  0  0  0  0  0  0  0  0
  149.9572  143.3914  156.3446 H   0  0  0  0  0  0  0  0  0  0  0  0
  152.6252  143.1800  157.3484 H   0  0  0  0  0  0  0  0  0  0  0  0
  150.3892  142.3868  159.2774 H   0  0  0  0  0  0  0  0  0  0  0  0
  151.7162  141.3621  158.7763 H   0  0  0  0  0  0  0  0  0  0  0  0
  152.1283  142.4283  161.0161 H   0  0  0  0  0  0  0  0  0  0  0  0
  153.3531  142.8552  159.8414 H   0  0  0  0  0  0  0  0  0  0  0  0
  150.9651  144.6082  160.6466 H   0  0  0  0  0  0  0  0  0  0  0  0
  152.6484  144.8917  161.0459 H   0  0  0  0  0  0  0  0  0  0  0  0
  151.4830  145.3510  157.1470 H   0  0  0  0  0  0  0  0  0  0  0  0
  150.2710  144.8757  158.3211 H   0  0  0  0  0  0  0  0  0  0  0  0
  152.7773  137.5388  155.9116 H   0  0  0  0  0  0  0  0  0  0  0  0
  152.4701  138.2324  157.5024 H   0  0  0  0  0  0  0  0  0  0  0  0
  153.7172  138.9216  156.4602 H   0  0  0  0  0  0  0  0  0  0  0  0
  1  2  1  0  0  0  0
  1 16  1  0  0  0  0
  1 17  1  0  0  0  0
  1 18  1  0  0  0  0
  2 14  1  0  0  0  0
  2  3  2  0  0  0  0
  3  4  1  0  0  0  0
  3 19  1  0  0  0  0
  4  5  2  0  0  0  0
  5  6  1  0  0  0  0
  5 13  1  0  0  0  0
  6  7  1  0  0  0  0
  6 20  1  0  0  0  0
  7 12  1  0  0  0  0
  7  8  1  0  0  0  0
  7 21  1  0  0  0  0
  8  9  1  0  0  0  0
  8 22  1  0  0  0  0
  8 23  1  0  0  0  0
  9 10  1  0  0  0  0
  9 24  1  0  0  0  0
  9 25  1  0  0  0  0
 10 11  1  0  0  0  0
 10 26  1  0  0  0  0
 10 27  1  0  0  0  0
 11 12  1  0  0  0  0
 12 28  1  0  0  0  0
 12 29  1  0  0  0  0
 13 14  2  0  0  0  0
 14 15  1  0  0  0  0
 15 30  1  0  0  0  0
 15 31  1  0  0  0  0
 15 32  1  0  0  0  0
M  END
> <s_m_source_file>
AV-unprocessed.smi

> <i_m_source_file_index>
2536

> <i_lp_mmshare_version>
43012

> <i_f3d_flags>
0

> <s_epik_input>
W0NIM11jMVtjSF1uYyhuYzFbQ0gzXSlbTkhdW0NAQEhdMltDSDJdW0NIMl1bQ0gyXU9bQ0gyXTI=

> <s_epik_cmdline>
J2VwaWtfcHl0aG9uJywgJy1waCcsICc3LjAnLCAnLXRuJywgJzgnLCAnLW1hJywgJzIwMCcsICctbWV0YWxfYmluZGluZycsICctaW1hZScsICc8aW5maWxlLm1hZT4nLCAnLW9tYWUnLCAnPG91dGZpbGUubWFlPic=

> <r_lp_tautomer_probability>
1

> <r_epik_Ionization_Penalty>
0.00982357

> <r_epik_Ionization_Penalty_Charging>
0

> <r_epik_Ionization_Penalty_Neutral>
0.00982357

> <r_epik_State_Penalty>
0.0064698

> <r_epik_Charging_Adjusted_Penalty>
0.0064698

> <i_epik_Tot_Q>
0

> <i_epik_Tot_abs_Q>
0

> <r_epik_Metal_State_Penalty>
-0

> <b_epik_Metal_Only>
0

> <s_lp_Force_Field>
OPLS_2005

> <r_lp_Energy>
1.83983

> <b_lp_Chiralities_Consistent>
1

> <s_lp_Variant>
AV-unprocessed.smi:2536-1

> <Gold.Version>
5.8.1

> <Gold.Id.Protein>
6NUR|6NUR_protein|mol2

> <Gold.PLP.Fitness>
39.0733

> <Gold.PLP.PLP>
-33.1298

> <Gold.PLP.part.hbond>
-1.9721

> <Gold.PLP.part.metal>
0.0000

> <Gold.PLP.part.buried>
-1.2998

> <Gold.PLP.part.nonpolar>
-29.2923

> <Gold.PLP.part.repulsive>
0.2386

> <Gold.PLP.ligand.clash>
0.0000

> <Gold.PLP.ligand.torsion>
0.0172

> <Gold.PLP.Chemscore.Hbond>
1.0000

> <Gold.PLP.Chemscore.CHOScore>
0.9916

> <Gold.PLP.Chemscore.Metal>
0.0000

> <Gold.Chemscore.Hbonds>
donor molecule, donor type, donor heavy atom, donor atom, acceptor molecule, acceptor atom, score
      L1  H     6    20       P1  8028  1.00
      L1  C     3    19       P1  7957  1.00

> <Gold.PLP.Chemscore.Internal.Correction>
0.0031

> <Gold.Rescore>
     Score         DG    S(hbond)    S(metal)    S(lipo)     H(rot)  DE(clash)    DE(int)     intcor
     16.85     -17.00       0.99        0.00      91.95       1.00       0.07       0.07       ----

> <Gold.Chemscore.Fitness>
16.8522

> <Gold.Chemscore.DG>
-16.9995

> <Gold.Chemscore.ZeroCoef>
-5.4800

> <Gold.Chemscore.Hbond>
0.9944

> <Gold.Chemscore.Metal>
0.0000

> <Gold.Chemscore.Lipo>
91.9514

> <Gold.Chemscore.Internal_Hbond>
0.0000

> <Gold.Chemscore.DEClash>
0.0739

> <Gold.Chemscore.DEInternal>
0.0734

> <Gold.Chemscore.Rot>
1.0000

> <Gold.Chemscore.Internal.Correction>
   9.000000E+99

> <Gold.Chemscore.Hbonds>
donor molecule, donor type, donor heavy atom, donor atom, acceptor molecule, acceptor atom, score
      L1  H     6    20       P1  8028  1.00

> <Gold.Chemscore.Hbond.Weighted>
-3.3212

> <Gold.Chemscore.Metal.Weighted>
-0.0000

> <Gold.Chemscore.Lipo.Weighted>
-10.7583

> <Gold.Chemscore.Internal_Hbond.Weighted>
0.0000

> <Gold.Chemscore.DEClash.Weighted>
0.0739

> <Gold.Chemscore.DEInternal.Weighted>
0.0734

> <Gold.Chemscore.Rot.Weighted>
2.5600

> <Gold.Chemscore.Internal.Correction.Weighted>
   9.000000E+99

> <Gold.Protein.RotatedTorsions>
[ 6907 6896 6895 6894 ] final  158.92 input  -60.11 | X-H torsion
[ 7974 7965 7964 7962 ] final -115.29 input  175.53 | X-H torsion
[ 8008 7997 7996 7995 ] final   64.90 input   59.86 | X-H torsion
[ 10167 10162 10161 10158 ] final  142.31 input  -65.29 | X-H torsion
[ 10718 10713 10712 10709 ] final   85.53 input   66.30 | X-H torsion
[ 10763 10752 10751 10750 ] final -156.73 input  -60.55 | X-H torsion
[ 11005 11000 10999 10996 ] final  -35.69 input  -57.11 | X-H torsion

> <Gold.Protein.ActiveResidues>
 VAL166  LYS551  ARG553  GLY616  TRP617  ASP618  TYR619  PRO620  LYS621  CYS622 
 ASP623  PHE694  ASN695  SER759  ASP760  ASP761  ALA762  ILE779  LEU786  VAL792 
 PHE793  MET794  SER795  GLU796  ALA797  LYS798  CYS799  TRP800  GLU811  SER814 

> <Gold.Protein.RotatedAtoms>
  151.9933  133.3799  159.4152 H   0  0  0  0  0  0  0  0  0  0  0  0  # atno 6907 bound_to 6896
  150.6919  134.3913  159.5087 H   0  0  0  0  0  0  0  0  0  0  0  0  # atno 6908 bound_to 6896
  152.1649  134.8881  160.0589 H   0  0  0  0  0  0  0  0  0  0  0  0  # atno 6909 bound_to 6896
  145.1101  140.8606  143.3875 H   0  0  0  0  0  0  0  0  0  0  0  0  # atno 7974 bound_to 7965
  155.6534  140.3497  155.4756 H   0  0  0  0  0  0  0  0  0  0  0  0  # atno 8008 bound_to 7997
  155.9829  140.1178  157.0733 H   0  0  0  0  0  0  0  0  0  0  0  0  # atno 8009 bound_to 7997
  154.4197  140.1134  156.5446 H   0  0  0  0  0  0  0  0  0  0  0  0  # atno 8010 bound_to 7997
  139.4997  144.6115  151.6260 H   0  0  0  0  0  0  0  0  0  0  0  0  # atno 10167 bound_to 10162
  157.6916  131.0178  150.2835 H   0  0  0  0  0  0  0  0  0  0  0  0  # atno 10718 bound_to 10713
  154.7690  135.3139  154.8227 H   0  0  0  0  0  0  0  0  0  0  0  0  # atno 10763 bound_to 10752
  153.8968  135.6820  153.4761 H   0  0  0  0  0  0  0  0  0  0  0  0  # atno 10764 bound_to 10752
  153.1301  135.4784  154.9269 H   0  0  0  0  0  0  0  0  0  0  0  0  # atno 10765 bound_to 10752
  140.9816  133.7053  156.1693 H   0  0  0  0  0  0  0  0  0  0  0  0  # atno 11005 bound_to 11000
  145.0857  139.2927  143.5761 LP  0  0  0  0  0  0  0  0  0  0  0  0  # atno 17320 bound_to 7965
  146.3526  140.0378  142.8645 LP  0  0  0  0  0  0  0  0  0  0  0  0  # atno 17321 bound_to 7965
  140.5791  143.9976  150.6258 LP  0  0  0  0  0  0  0  0  0  0  0  0  # atno 17342 bound_to 10162
  140.3120  143.3192  152.0870 LP  0  0  0  0  0  0  0  0  0  0  0  0  # atno 17343 bound_to 10162
  156.3378  130.3810  149.7435 LP  0  0  0  0  0  0  0  0  0  0  0  0  # atno 17370 bound_to 10713
  156.4954  130.8104  151.3111 LP  0  0  0  0  0  0  0  0  0  0  0  0  # atno 17371 bound_to 10713
  140.7178  134.4391  157.5577 LP  0  0  0  0  0  0  0  0  0  0  0  0  # atno 17394 bound_to 11000
  139.8952  134.8687  156.2140 LP  0  0  0  0  0  0  0  0  0  0  0  0  # atno 17395 bound_to 11000

$$$$
