AV-unprocessed.smi:1982|AV-procd|sdf|8021|dock10
  -GOLD-   2272010213D 1   1.00000     0.00000
 Structure written by MMmdl.
 36 37  0  0  0  0  0  0  0  0  1 V2000
  152.4950  143.3774  161.4212 C   0  0  0  0  0  0  0  0  0  0  0  0
  151.8752  143.2943  160.0163 C   0  0  1  0  0  0  0  0  0  0  0  0
  152.4608  144.3603  159.0687 C   0  0  0  0  0  0  0  0  0  0  0  0
  151.7607  144.3406  157.7011 C   0  0  0  0  0  0  0  0  0  0  0  0
  151.8000  142.9423  157.0674 C   0  0  0  0  0  0  0  0  0  0  0  0
  151.2133  141.8798  158.0169 C   0  0  1  0  0  0  0  0  0  0  0  0
  151.2495  140.5703  157.3721 N   0  0  0  0  0  0  0  0  0  0  0  0
  150.8742  140.3119  156.1096 C   0  0  0  0  0  0  0  0  0  0  0  0
  150.5006  141.1777  155.3190 O   0  0  0  0  0  0  0  0  0  0  0  0
  150.9082  138.8460  155.6790 C   0  0  0  0  0  0  0  0  0  0  0  0
  152.2767  138.3818  155.5485 N   0  0  0  0  0  0  0  0  0  0  0  0
  153.2489  138.7441  154.7090 C   0  0  0  0  0  0  0  0  0  0  0  0
  154.3562  138.0474  154.9144 N   0  0  0  0  0  0  0  0  0  0  0  0
  154.0102  137.2066  155.9593 N   0  0  0  0  0  0  0  0  0  0  0  0
  152.7773  137.4003  156.3397 N   0  0  0  0  0  0  0  0  0  0  0  0
  151.9396  141.8750  159.3911 C   0  0  1  0  0  0  0  0  0  0  0  0
  153.3712  141.2914  159.3224 C   0  0  0  0  0  0  0  0  0  0  0  0
  153.5779  143.2561  161.3954 H   0  0  0  0  0  0  0  0  0  0  0  0
  152.0850  142.6105  162.0786 H   0  0  0  0  0  0  0  0  0  0  0  0
  152.2887  144.3453  161.8788 H   0  0  0  0  0  0  0  0  0  0  0  0
  150.8175  143.5317  160.1416 H   0  0  0  0  0  0  0  0  0  0  0  0
  152.3546  145.3507  159.5127 H   0  0  0  0  0  0  0  0  0  0  0  0
  153.5311  144.2002  158.9370 H   0  0  0  0  0  0  0  0  0  0  0  0
  150.7232  144.6564  157.8195 H   0  0  0  0  0  0  0  0  0  0  0  0
  152.2284  145.0647  157.0336 H   0  0  0  0  0  0  0  0  0  0  0  0
  151.2414  142.9544  156.1307 H   0  0  0  0  0  0  0  0  0  0  0  0
  152.8280  142.6889  156.8057 H   0  0  0  0  0  0  0  0  0  0  0  0
  150.1663  142.1407  158.1851 H   0  0  0  0  0  0  0  0  0  0  0  0
  151.5417  139.7921  157.9456 H   0  0  0  0  0  0  0  0  0  0  0  0
  150.3961  138.2251  156.4152 H   0  0  0  0  0  0  0  0  0  0  0  0
  150.3864  138.7205  154.7291 H   0  0  0  0  0  0  0  0  0  0  0  0
  153.1438  139.5060  153.9507 H   0  0  0  0  0  0  0  0  0  0  0  0
  151.3750  141.2139  160.0504 H   0  0  0  0  0  0  0  0  0  0  0  0
  154.0303  141.8931  158.6975 H   0  0  0  0  0  0  0  0  0  0  0  0
  153.3742  140.2782  158.9201 H   0  0  0  0  0  0  0  0  0  0  0  0
  153.8237  141.2265  160.3111 H   0  0  0  0  0  0  0  0  0  0  0  0
  1  2  1  0  0  0  0
  1 18  1  0  0  0  0
  1 19  1  0  0  0  0
  1 20  1  0  0  0  0
  2 16  1  0  0  0  0
  2  3  1  0  0  0  0
  2 21  1  0  0  0  0
  3  4  1  0  0  0  0
  3 22  1  0  0  0  0
  3 23  1  0  0  0  0
  4  5  1  0  0  0  0
  4 24  1  0  0  0  0
  4 25  1  0  0  0  0
  5  6  1  0  0  0  0
  5 26  1  0  0  0  0
  5 27  1  0  0  0  0
  6  7  1  0  0  0  0
  6 16  1  0  0  0  0
  6 28  1  0  0  0  0
  7  8  1  0  0  0  0
  7 29  1  0  0  0  0
  8  9  2  0  0  0  0
  8 10  1  0  0  0  0
 10 11  1  0  0  0  0
 10 30  1  0  0  0  0
 10 31  1  0  0  0  0
 11 15  1  0  0  0  0
 11 12  1  0  0  0  0
 12 13  2  0  0  0  0
 12 32  1  0  0  0  0
 13 14  1  0  0  0  0
 14 15  2  0  0  0  0
 16 17  1  0  0  0  0
 16 33  1  0  0  0  0
 17 34  1  0  0  0  0
 17 35  1  0  0  0  0
 17 36  1  0  0  0  0
M  END
> <s_m_source_file>
AV-unprocessed.smi

> <i_m_source_file_index>
1982

> <i_lp_mmshare_version>
43012

> <i_f3d_flags>
0

> <s_epik_input>
W0NIM11bQ0BASF0xW0NIMl1bQ0gyXVtDSDJdW0NASF0oW0NASF0xW0NIM10pW05IXUMoPU8pW0NIMl1uMltjSF1ubm4y

> <s_epik_cmdline>
J2VwaWtfcHl0aG9uJywgJy1waCcsICc3LjAnLCAnLXRuJywgJzgnLCAnLW1hJywgJzIwMCcsICctbWV0YWxfYmluZGluZycsICctaW1hZScsICc8aW5maWxlLm1hZT4nLCAnLW9tYWUnLCAnPG91dGZpbGUubWFlPic=

> <r_lp_tautomer_probability>
1

> <r_epik_Ionization_Penalty>
5.03816e-07

> <r_epik_Ionization_Penalty_Charging>
0

> <r_epik_Ionization_Penalty_Neutral>
5.03816e-07

> <r_epik_State_Penalty>
-0

> <r_epik_Charging_Adjusted_Penalty>
0

> <i_epik_Tot_Q>
0

> <i_epik_Tot_abs_Q>
0

> <r_epik_Metal_State_Penalty>
-0

> <b_epik_Metal_Only>
0

> <s_lp_Force_Field>
OPLS_2005

> <r_lp_Energy>
14.9892

> <b_lp_Chiralities_Consistent>
1

> <s_lp_Variant>
AV-unprocessed.smi:1982-2

> <Gold.Version>
5.8.1

> <Gold.Id.Protein>
6NUR|6NUR_protein|mol2

> <Gold.PLP.Fitness>
39.1552

> <Gold.PLP.PLP>
-37.2874

> <Gold.PLP.part.hbond>
-4.7068

> <Gold.PLP.part.metal>
0.0000

> <Gold.PLP.part.buried>
-3.8893

> <Gold.PLP.part.nonpolar>
-28.7254

> <Gold.PLP.part.repulsive>
0.1470

> <Gold.PLP.ligand.clash>
0.0000

> <Gold.PLP.ligand.torsion>
0.2544

> <Gold.PLP.Chemscore.Hbond>
0.7880

> <Gold.PLP.Chemscore.CHOScore>
0.0000

> <Gold.PLP.Chemscore.Metal>
0.0000

> <Gold.Chemscore.Hbonds>
donor molecule, donor type, donor heavy atom, donor atom, acceptor molecule, acceptor atom, score
      P1  H  7989  7998       L1     9  0.45
      P1  H 10752 10765       L1    14  0.32

> <Gold.PLP.Chemscore.Internal.Correction>
0.0125

> <Gold.Rescore>
     Score         DG    S(hbond)    S(metal)    S(lipo)     H(rot)  DE(clash)    DE(int)     intcor
     10.86     -14.20       0.85        0.00      92.07       1.91       1.81       1.53       ----

> <Gold.Chemscore.Fitness>
10.8641

> <Gold.Chemscore.DG>
-14.2002

> <Gold.Chemscore.ZeroCoef>
-5.4800

> <Gold.Chemscore.Hbond>
0.8465

> <Gold.Chemscore.Metal>
0.0000

> <Gold.Chemscore.Lipo>
92.0661

> <Gold.Chemscore.Internal_Hbond>
0.0000

> <Gold.Chemscore.DEClash>
1.8068

> <Gold.Chemscore.DEInternal>
1.5293

> <Gold.Chemscore.Rot>
1.9058

> <Gold.Chemscore.Internal.Correction>
   9.000000E+99

> <Gold.Chemscore.Hbonds>
donor molecule, donor type, donor heavy atom, donor atom, acceptor molecule, acceptor atom, score
      P1  H  7989  7998       L1     9  0.27
      P1  H 10752 10765       L1    14  0.08

> <Gold.Chemscore.Hbond.Weighted>
-2.8273

> <Gold.Chemscore.Metal.Weighted>
-0.0000

> <Gold.Chemscore.Lipo.Weighted>
-10.7717

> <Gold.Chemscore.Internal_Hbond.Weighted>
0.0000

> <Gold.Chemscore.DEClash.Weighted>
1.8068

> <Gold.Chemscore.DEInternal.Weighted>
1.5293

> <Gold.Chemscore.Rot.Weighted>
4.8788

> <Gold.Chemscore.Internal.Correction.Weighted>
   9.000000E+99

> <Gold.Protein.RotatedTorsions>
[ 6907 6896 6895 6894 ] final  -28.38 input  -60.11 | X-H torsion
[ 7974 7965 7964 7962 ] final  154.87 input  175.53 | X-H torsion
[ 8008 7997 7996 7995 ] final   91.02 input   59.86 | X-H torsion
[ 10167 10162 10161 10158 ] final  -41.35 input  -65.29 | X-H torsion
[ 10718 10713 10712 10709 ] final  -72.20 input   66.30 | X-H torsion
[ 10763 10752 10751 10750 ] final -100.03 input  -60.55 | X-H torsion
[ 11005 11000 10999 10996 ] final   92.79 input  -57.11 | X-H torsion

> <Gold.Protein.ActiveResidues>
 VAL166  LYS551  ARG553  GLY616  TRP617  ASP618  TYR619  PRO620  LYS621  CYS622 
 ASP623  PHE694  ASN695  SER759  ASP760  ASP761  ALA762  ILE779  LEU786  VAL792 
 PHE793  MET794  SER795  GLU796  ALA797  LYS798  CYS799  TRP800  GLU811  SER814 

> <Gold.Protein.RotatedAtoms>
  151.1338  135.0144  159.8594 H   0  0  0  0  0  0  0  0  0  0  0  0  # atno 6907 bound_to 6896
  152.5451  134.1579  159.8556 H   0  0  0  0  0  0  0  0  0  0  0  0  # atno 6908 bound_to 6896
  151.1648  133.4776  159.2627 H   0  0  0  0  0  0  0  0  0  0  0  0  # atno 6909 bound_to 6896
  144.8060  139.6992  143.6161 H   0  0  0  0  0  0  0  0  0  0  0  0  # atno 7974 bound_to 7965
  156.0189  140.3342  155.7017 H   0  0  0  0  0  0  0  0  0  0  0  0  # atno 8008 bound_to 7997
  155.6051  140.0659  157.2739 H   0  0  0  0  0  0  0  0  0  0  0  0  # atno 8009 bound_to 7997
  154.4308  140.1803  156.1202 H   0  0  0  0  0  0  0  0  0  0  0  0  # atno 8010 bound_to 7997
  140.7005  143.3099  151.3054 H   0  0  0  0  0  0  0  0  0  0  0  0  # atno 10167 bound_to 10162
  156.0330  130.4367  150.2557 H   0  0  0  0  0  0  0  0  0  0  0  0  # atno 10718 bound_to 10713
  154.7546  135.4950  153.9351 H   0  0  0  0  0  0  0  0  0  0  0  0  # atno 10763 bound_to 10752
  153.1182  135.6725  153.9390 H   0  0  0  0  0  0  0  0  0  0  0  0  # atno 10764 bound_to 10752
  153.9130  135.3097  155.3427 H   0  0  0  0  0  0  0  0  0  0  0  0  # atno 10765 bound_to 10752
  139.8818  134.8753  156.3624 H   0  0  0  0  0  0  0  0  0  0  0  0  # atno 11005 bound_to 11000
  146.2352  139.5891  142.9528 LP  0  0  0  0  0  0  0  0  0  0  0  0  # atno 17320 bound_to 7965
  145.5436  141.0419  143.2317 LP  0  0  0  0  0  0  0  0  0  0  0  0  # atno 17321 bound_to 7965
  139.6519  144.0347  152.2632 LP  0  0  0  0  0  0  0  0  0  0  0  0  # atno 17342 bound_to 10162
  139.9886  144.6377  150.7835 LP  0  0  0  0  0  0  0  0  0  0  0  0  # atno 17343 bound_to 10162
  157.0658  131.0103  151.3207 LP  0  0  0  0  0  0  0  0  0  0  0  0  # atno 17370 bound_to 10713
  157.5036  130.7895  149.7631 LP  0  0  0  0  0  0  0  0  0  0  0  0  # atno 17371 bound_to 10713
  140.9520  133.7444  156.0285 LP  0  0  0  0  0  0  0  0  0  0  0  0  # atno 17394 bound_to 11000
  140.8094  134.3417  157.5416 LP  0  0  0  0  0  0  0  0  0  0  0  0  # atno 17395 bound_to 11000

$$$$
