AV-unprocessed.smi:578|AV-procd|sdf|2985|dock3
  -GOLD-   2262023493D 1   1.00000     0.00000
 Structure written by MMmdl.
 32 33  0  0  0  0  0  0  0  0  2 V2000
  153.3150  142.2341  162.0913 C   0  0  0  0  0  0  0  0  0  0  0  0
  153.1000  142.5892  160.6161 C   0  0  1  0  0  0  0  0  0  0  0  0
  152.5559  141.3964  159.8070 C   0  0  0  0  0  0  0  0  0  0  0  0
  152.2797  141.8068  158.4367 N   0  0  0  0  0  0  0  0  0  0  0  0
  151.8862  140.7447  157.6109 C   0  0  0  0  0  0  0  0  0  0  0  0
  151.2772  141.0195  156.3714 C   0  0  0  0  0  0  0  0  0  0  0  0
  150.8914  139.9370  155.5585 C   0  0  0  0  0  0  0  0  0  0  0  0
  151.0757  138.6468  155.9060 N   0  0  0  0  0  0  0  0  0  0  0  0
  151.6613  138.3718  157.0967 C   0  0  0  0  0  0  0  0  0  0  0  0
  151.8558  136.9242  157.4612 C   0  0  0  0  0  0  0  0  0  0  0  0
  151.8521  136.0661  156.5496 O   0  0  0  0  0  0  0  0  0  0  0  0
  152.0159  136.6181  158.6645 O   0  5  0  0  0  0  0  0  0  0  0  0
  152.0820  139.3951  157.9793 C   0  0  0  0  0  0  0  0  0  0  0  0
  151.3819  142.9524  158.3716 C   0  0  0  0  0  0  0  0  0  0  0  0
  151.9490  144.1158  159.2075 C   0  0  1  0  0  0  0  0  0  0  0  0
  150.9945  145.3135  159.2502 C   0  0  0  0  0  0  0  0  0  0  0  0
  152.1672  143.6660  160.5437 O   0  0  0  0  0  0  0  0  0  0  0  0
  154.0318  141.4194  162.1972 H   0  0  0  0  0  0  0  0  0  0  0  0
  152.3823  141.9232  162.5626 H   0  0  0  0  0  0  0  0  0  0  0  0
  153.7005  143.0897  162.6459 H   0  0  0  0  0  0  0  0  0  0  0  0
  154.0531  142.9140  160.1950 H   0  0  0  0  0  0  0  0  0  0  0  0
  153.2801  140.5807  159.8067 H   0  0  0  0  0  0  0  0  0  0  0  0
  151.6434  141.0180  160.2700 H   0  0  0  0  0  0  0  0  0  0  0  0
  151.1078  142.0359  156.0479 H   0  0  0  0  0  0  0  0  0  0  0  0
  150.4218  140.1122  154.6020 H   0  0  0  0  0  0  0  0  0  0  0  0
  152.5479  139.1522  158.9234 H   0  0  0  0  0  0  0  0  0  0  0  0
  151.2564  143.2617  157.3331 H   0  0  0  0  0  0  0  0  0  0  0  0
  150.3965  142.6719  158.7464 H   0  0  0  0  0  0  0  0  0  0  0  0
  152.8991  144.4442  158.7821 H   0  0  0  0  0  0  0  0  0  0  0  0
  150.8062  145.7001  158.2483 H   0  0  0  0  0  0  0  0  0  0  0  0
  151.4136  146.1250  159.8457 H   0  0  0  0  0  0  0  0  0  0  0  0
  150.0349  145.0385  159.6890 H   0  0  0  0  0  0  0  0  0  0  0  0
  1  2  1  0  0  0  0
  1 18  1  0  0  0  0
  1 19  1  0  0  0  0
  1 20  1  0  0  0  0
  2 17  1  0  0  0  0
  2  3  1  0  0  0  0
  2 21  1  0  0  0  0
  3  4  1  0  0  0  0
  3 22  1  0  0  0  0
  3 23  1  0  0  0  0
  4  5  1  0  0  0  0
  4 14  1  0  0  0  0
  5 13  1  0  0  0  0
  5  6  2  0  0  0  0
  6  7  1  0  0  0  0
  6 24  1  0  0  0  0
  7  8  2  0  0  0  0
  7 25  1  0  0  0  0
  8  9  1  0  0  0  0
  9 10  1  0  0  0  0
  9 13  2  0  0  0  0
 10 11  2  0  0  0  0
 10 12  1  0  0  0  0
 13 26  1  0  0  0  0
 14 15  1  0  0  0  0
 14 27  1  0  0  0  0
 14 28  1  0  0  0  0
 15 16  1  0  0  0  0
 15 17  1  0  0  0  0
 15 29  1  0  0  0  0
 16 30  1  0  0  0  0
 16 31  1  0  0  0  0
 16 32  1  0  0  0  0
M  CHG  1  12  -1
M  END
> <s_m_source_file>
AV-unprocessed.smi

> <i_m_source_file_index>
578

> <i_lp_mmshare_version>
43012

> <i_f3d_flags>
0

> <s_epik_input>
W0NIM11bQ0BASF0xW0NIMl1OKFtDSDJdW0NASF0oTzEpW0NIM10pYzJbY0hdW2NIXW5jKFtjSF0yKUMoPU8pW09IXQ==

> <s_epik_cmdline>
J2VwaWtfcHl0aG9uJywgJy1waCcsICc3LjAnLCAnLXRuJywgJzgnLCAnLW1hJywgJzIwMCcsICctbWV0YWxfYmluZGluZycsICctaW1hZScsICc8aW5maWxlLm1hZT4nLCAnLW9tYWUnLCAnPG91dGZpbGUubWFlPic=

> <r_epik_Ionization_Penalty>
2.00764

> <r_epik_Ionization_Penalty_Charging>
0.000210348

> <r_epik_Ionization_Penalty_Neutral>
2.00743

> <r_epik_State_Penalty>
2.13668

> <r_epik_Charging_Adjusted_Penalty>
2.13689

> <i_epik_Tot_Q>
-1

> <i_epik_Tot_abs_Q>
1

> <r_epik_Metal_State_Penalty>
0.0208571

> <b_epik_Metal_Only>
0

> <s_lp_Force_Field>
OPLS_2005

> <r_lp_Energy>
21.1915

> <b_lp_Chiralities_Consistent>
1

> <s_lp_Variant>
AV-unprocessed.smi:578-5

> <Gold.Version>
5.8.1

> <Gold.Id.Protein>
6NUR|6NUR_protein|mol2

> <Gold.PLP.Fitness>
42.9121

> <Gold.PLP.PLP>
-33.9747

> <Gold.PLP.part.hbond>
-2.0000

> <Gold.PLP.part.metal>
0.0000

> <Gold.PLP.part.buried>
-5.5016

> <Gold.PLP.part.nonpolar>
-27.3631

> <Gold.PLP.part.repulsive>
0.0697

> <Gold.PLP.ligand.clash>
0.0000

> <Gold.PLP.ligand.torsion>
0.7376

> <Gold.PLP.Chemscore.Hbond>
3.4400

> <Gold.PLP.Chemscore.CHOScore>
0.0000

> <Gold.PLP.Chemscore.Metal>
0.0000

> <Gold.Chemscore.Hbonds>
donor molecule, donor type, donor heavy atom, donor atom, acceptor molecule, acceptor atom, score
      P1  H  6896  6908       L1    12  1.44
      P1  H 10752 10765       L1    11  1.82

> <Gold.PLP.Chemscore.Internal.Correction>
0.0927

> <Gold.Rescore>
     Score         DG    S(hbond)    S(metal)    S(lipo)     H(rot)  DE(clash)    DE(int)     intcor
     19.00     -19.73       1.69        0.00      95.52       1.00       0.04       0.68       ----

> <Gold.Chemscore.Fitness>
19.0040

> <Gold.Chemscore.DG>
-19.7266

> <Gold.Chemscore.ZeroCoef>
-5.4800

> <Gold.Chemscore.Hbond>
1.6858

> <Gold.Chemscore.Metal>
0.0000

> <Gold.Chemscore.Lipo>
95.5201

> <Gold.Chemscore.Internal_Hbond>
0.0000

> <Gold.Chemscore.DEClash>
0.0447

> <Gold.Chemscore.DEInternal>
0.6779

> <Gold.Chemscore.Rot>
1.0000

> <Gold.Chemscore.Internal.Correction>
   9.000000E+99

> <Gold.Chemscore.Hbonds>
donor molecule, donor type, donor heavy atom, donor atom, acceptor molecule, acceptor atom, score
      P1  H  6896  6908       L1    12  0.70
      P1  H 10752 10765       L1    11  0.87

> <Gold.Chemscore.Hbond.Weighted>
-5.6307

> <Gold.Chemscore.Metal.Weighted>
-0.0000

> <Gold.Chemscore.Lipo.Weighted>
-11.1759

> <Gold.Chemscore.Internal_Hbond.Weighted>
0.0000

> <Gold.Chemscore.DEClash.Weighted>
0.0447

> <Gold.Chemscore.DEInternal.Weighted>
0.6779

> <Gold.Chemscore.Rot.Weighted>
2.5600

> <Gold.Chemscore.Internal.Correction.Weighted>
   9.000000E+99

> <Gold.Protein.RotatedTorsions>
[ 6907 6896 6895 6894 ] final -116.06 input  -60.11 | X-H torsion
[ 7974 7965 7964 7962 ] final  -31.30 input  175.53 | X-H torsion
[ 8008 7997 7996 7995 ] final -119.37 input   59.86 | X-H torsion
[ 10167 10162 10161 10158 ] final   81.82 input  -65.29 | X-H torsion
[ 10718 10713 10712 10709 ] final  -72.39 input   66.30 | X-H torsion
[ 10763 10752 10751 10750 ] final -152.94 input  -60.55 | X-H torsion
[ 11005 11000 10999 10996 ] final  174.19 input  -57.11 | X-H torsion

> <Gold.Protein.ActiveResidues>
 VAL166  LYS551  ARG553  GLY616  TRP617  ASP618  TYR619  PRO620  LYS621  CYS622 
 ASP623  PHE694  ASN695  SER759  ASP760  ASP761  ALA762  ILE779  LEU786  VAL792 
 PHE793  MET794  SER795  GLU796  ALA797  LYS798  CYS799  TRP800  GLU811  SER814 

> <Gold.Protein.RotatedAtoms>
  150.8026  133.8570  159.3221 H   0  0  0  0  0  0  0  0  0  0  0  0  # atno 6907 bound_to 6896
  151.6378  135.1014  160.0144 H   0  0  0  0  0  0  0  0  0  0  0  0  # atno 6908 bound_to 6896
  152.4114  133.6930  159.6436 H   0  0  0  0  0  0  0  0  0  0  0  0  # atno 6909 bound_to 6896
  146.1078  140.5649  142.8791 H   0  0  0  0  0  0  0  0  0  0  0  0  # atno 7974 bound_to 7965
  155.1147  140.0397  157.2733 H   0  0  0  0  0  0  0  0  0  0  0  0  # atno 8008 bound_to 7997
  154.6659  140.2601  155.7033 H   0  0  0  0  0  0  0  0  0  0  0  0  # atno 8009 bound_to 7997
  156.2638  140.2807  156.1149 H   0  0  0  0  0  0  0  0  0  0  0  0  # atno 8010 bound_to 7997
  139.9353  144.6125  150.8305 H   0  0  0  0  0  0  0  0  0  0  0  0  # atno 10167 bound_to 10162
  156.0322  130.4371  150.2586 H   0  0  0  0  0  0  0  0  0  0  0  0  # atno 10718 bound_to 10713
  154.7961  135.3224  154.7663 H   0  0  0  0  0  0  0  0  0  0  0  0  # atno 10763 bound_to 10752
  153.8341  135.6877  153.4815 H   0  0  0  0  0  0  0  0  0  0  0  0  # atno 10764 bound_to 10752
  153.1653  135.4644  154.9771 H   0  0  0  0  0  0  0  0  0  0  0  0  # atno 10765 bound_to 10752
  140.3487  134.7214  157.4252 H   0  0  0  0  0  0  0  0  0  0  0  0  # atno 11005 bound_to 11000
  144.7486  140.5132  143.6818 LP  0  0  0  0  0  0  0  0  0  0  0  0  # atno 17320 bound_to 7965
  145.5725  139.1484  143.3280 LP  0  0  0  0  0  0  0  0  0  0  0  0  # atno 17321 bound_to 7965
  140.7626  143.3202  151.2639 LP  0  0  0  0  0  0  0  0  0  0  0  0  # atno 17342 bound_to 10162
  139.6749  143.9956  152.2775 LP  0  0  0  0  0  0  0  0  0  0  0  0  # atno 17343 bound_to 10162
  157.0688  131.0111  151.3197 LP  0  0  0  0  0  0  0  0  0  0  0  0  # atno 17370 bound_to 10713
  157.5015  130.7883  149.7610 LP  0  0  0  0  0  0  0  0  0  0  0  0  # atno 17371 bound_to 10713
  140.0721  134.5848  155.8630 LP  0  0  0  0  0  0  0  0  0  0  0  0  # atno 17394 bound_to 11000
  141.2018  133.6621  156.5972 LP  0  0  0  0  0  0  0  0  0  0  0  0  # atno 17395 bound_to 11000

$$$$
