AV-unprocessed.smi:2447|AV-procd|sdf|9650|dock1
  -GOLD-   2272013283D 1   1.00000     0.00000
 Structure written by MMmdl.
 29 30  0  0  0  0  0  0  0  0  2 V2000
  149.7890  138.5224  153.1398 N   0  0  0  0  0  0  0  0  0  0  0  0
  150.2654  138.6957  154.3721 C   0  0  0  0  0  0  0  0  0  0  0  0
  150.3469  137.7099  155.1044 O   0  0  0  0  0  0  0  0  0  0  0  0
  150.6049  139.9785  154.6549 N   0  5  0  0  0  0  0  0  0  0  0  0
  150.9144  140.4397  155.8843 C   0  0  0  0  0  0  0  0  0  0  0  0
  150.6544  139.6212  156.9514 N   0  0  0  0  0  0  0  0  0  0  0  0
  151.0726  140.3803  157.9527 C   0  0  0  0  0  0  0  0  0  0  0  0
  151.5499  141.5602  157.5666 N   0  0  0  0  0  0  0  0  0  0  0  0
  152.0956  142.6578  158.3497 C   0  0  0  0  0  0  0  0  0  0  0  0
  152.0997  142.3300  159.8573 C   0  0  0  0  0  0  0  0  0  0  0  0
  152.6876  143.4894  160.6782 C   0  0  0  0  0  0  0  0  0  0  0  0
  151.9387  144.8032  160.4007 C   0  0  0  0  0  0  0  0  0  0  0  0
  151.9312  145.1345  158.8996 C   0  0  0  0  0  0  0  0  0  0  0  0
  151.3426  143.9764  158.0773 C   0  0  0  0  0  0  0  0  0  0  0  0
  151.4557  141.6198  156.2179 N   0  0  0  0  0  0  0  0  0  0  0  0
  149.5085  137.6026  152.8346 H   0  0  0  0  0  0  0  0  0  0  0  0
  149.7132  139.3165  152.5217 H   0  0  0  0  0  0  0  0  0  0  0  0
  151.0292  140.0682  158.9856 H   0  0  0  0  0  0  0  0  0  0  0  0
  153.1311  142.7900  158.0316 H   0  0  0  0  0  0  0  0  0  0  0  0
  151.0836  142.1281  160.1998 H   0  0  0  0  0  0  0  0  0  0  0  0
  152.6735  141.4210  160.0402 H   0  0  0  0  0  0  0  0  0  0  0  0
  152.6410  143.2520  161.7412 H   0  0  0  0  0  0  0  0  0  0  0  0
  153.7438  143.6115  160.4344 H   0  0  0  0  0  0  0  0  0  0  0  0
  150.9124  144.7200  160.7605 H   0  0  0  0  0  0  0  0  0  0  0  0
  152.3978  145.6188  160.9600 H   0  0  0  0  0  0  0  0  0  0  0  0
  151.3570  146.0444  158.7224 H   0  0  0  0  0  0  0  0  0  0  0  0
  152.9486  145.3407  158.5649 H   0  0  0  0  0  0  0  0  0  0  0  0
  151.3869  144.2191  157.0150 H   0  0  0  0  0  0  0  0  0  0  0  0
  150.2860  143.8628  158.3244 H   0  0  0  0  0  0  0  0  0  0  0  0
  1  2  1  0  0  0  0
  1 16  1  0  0  0  0
  1 17  1  0  0  0  0
  2  3  2  0  0  0  0
  2  4  1  0  0  0  0
  4  5  1  0  0  0  0
  5 15  2  0  0  0  0
  5  6  1  0  0  0  0
  6  7  2  0  0  0  0
  7  8  1  0  0  0  0
  7 18  1  0  0  0  0
  8  9  1  0  0  0  0
  8 15  1  0  0  0  0
  9 14  1  0  0  0  0
  9 10  1  0  0  0  0
  9 19  1  0  0  0  0
 10 11  1  0  0  0  0
 10 20  1  0  0  0  0
 10 21  1  0  0  0  0
 11 12  1  0  0  0  0
 11 22  1  0  0  0  0
 11 23  1  0  0  0  0
 12 13  1  0  0  0  0
 12 24  1  0  0  0  0
 12 25  1  0  0  0  0
 13 14  1  0  0  0  0
 13 26  1  0  0  0  0
 13 27  1  0  0  0  0
 14 28  1  0  0  0  0
 14 29  1  0  0  0  0
M  CHG  1   4  -1
M  END
> <s_m_source_file>
AV-unprocessed.smi

> <i_m_source_file_index>
2447

> <i_lp_mmshare_version>
43012

> <i_f3d_flags>
0

> <s_epik_input>
W05IMl1DKD1PKVtOSF1jMW5bY0hdbihuMSlbQ0hdMltDSDJdW0NIMl1bQ0gyXVtDSDJdW0NIMl0y

> <s_epik_cmdline>
J2VwaWtfcHl0aG9uJywgJy1waCcsICc3LjAnLCAnLXRuJywgJzgnLCAnLW1hJywgJzIwMCcsICctbWV0YWxfYmluZGluZycsICctaW1hZScsICc8aW5maWxlLm1hZT4nLCAnLW9tYWUnLCAnPG91dGZpbGUubWFlPic=

> <r_epik_Ionization_Penalty>
6.34251

> <r_epik_Ionization_Penalty_Charging>
2.59949

> <r_epik_Ionization_Penalty_Neutral>
3.74302

> <r_epik_State_Penalty>
2.59208

> <r_epik_Charging_Adjusted_Penalty>
5.19156

> <i_epik_Tot_Q>
-1

> <i_epik_Tot_abs_Q>
1

> <r_epik_Metal_State_Penalty>
0.11953

> <b_epik_Metal_Only>
1

> <s_lp_Force_Field>
OPLS_2005

> <r_lp_Energy>
9.7345

> <b_lp_Chiralities_Consistent>
1

> <s_lp_Variant>
AV-unprocessed.smi:2447-2

> <Gold.Version>
5.8.1

> <Gold.Id.Protein>
6NUR|6NUR_protein|mol2

> <Gold.PLP.Fitness>
41.9245

> <Gold.PLP.PLP>
-33.0691

> <Gold.PLP.part.hbond>
-2.9542

> <Gold.PLP.part.metal>
0.0000

> <Gold.PLP.part.buried>
-3.2484

> <Gold.PLP.part.nonpolar>
-25.9126

> <Gold.PLP.part.repulsive>
0.3523

> <Gold.PLP.ligand.clash>
0.0000

> <Gold.PLP.ligand.torsion>
0.0712

> <Gold.PLP.Chemscore.Hbond>
2.9920

> <Gold.PLP.Chemscore.CHOScore>
0.0000

> <Gold.PLP.Chemscore.Metal>
0.0000

> <Gold.Chemscore.Hbonds>
donor molecule, donor type, donor heavy atom, donor atom, acceptor molecule, acceptor atom, score
      L1  H     1    16       P1  7948  1.00
      L1  H     1    17       P1  7957  1.00
      P1  H  7989  7998       L1     4  1.00

> <Gold.PLP.Chemscore.Internal.Correction>
0.0218

> <Gold.Rescore>
     Score         DG    S(hbond)    S(metal)    S(lipo)     H(rot)  DE(clash)    DE(int)     intcor
     17.21     -18.85       2.37        0.00      68.41       1.00       0.02       1.62       ----

> <Gold.Chemscore.Fitness>
17.2104

> <Gold.Chemscore.DG>
-18.8545

> <Gold.Chemscore.ZeroCoef>
-5.4800

> <Gold.Chemscore.Hbond>
2.3744

> <Gold.Chemscore.Metal>
0.0000

> <Gold.Chemscore.Lipo>
68.4116

> <Gold.Chemscore.Internal_Hbond>
0.0000

> <Gold.Chemscore.DEClash>
0.0234

> <Gold.Chemscore.DEInternal>
1.6207

> <Gold.Chemscore.Rot>
1.0000

> <Gold.Chemscore.Internal.Correction>
   9.000000E+99

> <Gold.Chemscore.Hbonds>
donor molecule, donor type, donor heavy atom, donor atom, acceptor molecule, acceptor atom, score
      L1  H     1    16       P1  7948  0.78
      L1  H     1    17       P1  7957  0.89
      P1  H  7989  7998       L1     4  0.58

> <Gold.Chemscore.Hbond.Weighted>
-7.9304

> <Gold.Chemscore.Metal.Weighted>
-0.0000

> <Gold.Chemscore.Lipo.Weighted>
-8.0042

> <Gold.Chemscore.Internal_Hbond.Weighted>
0.0000

> <Gold.Chemscore.DEClash.Weighted>
0.0234

> <Gold.Chemscore.DEInternal.Weighted>
1.6207

> <Gold.Chemscore.Rot.Weighted>
2.5600

> <Gold.Chemscore.Internal.Correction.Weighted>
   9.000000E+99

> <Gold.Protein.RotatedTorsions>
[ 6907 6896 6895 6894 ] final   86.91 input  -60.11 | X-H torsion
[ 7974 7965 7964 7962 ] final -175.03 input  175.53 | X-H torsion
[ 8008 7997 7996 7995 ] final  -83.58 input   59.86 | X-H torsion
[ 10167 10162 10161 10158 ] final  146.29 input  -65.29 | X-H torsion
[ 10718 10713 10712 10709 ] final -147.19 input   66.30 | X-H torsion
[ 10763 10752 10751 10750 ] final -160.74 input  -60.55 | X-H torsion
[ 11005 11000 10999 10996 ] final  110.81 input  -57.11 | X-H torsion

> <Gold.Protein.ActiveResidues>
 VAL166  LYS551  ARG553  GLY616  TRP617  ASP618  TYR619  PRO620  LYS621  CYS622 
 ASP623  PHE694  ASN695  SER759  ASP760  ASP761  ALA762  ILE779  LEU786  VAL792 
 PHE793  MET794  SER795  GLU796  ALA797  LYS798  CYS799  TRP800  GLU811  SER814 

> <Gold.Protein.RotatedAtoms>
  152.5402  134.2358  159.8842 H   0  0  0  0  0  0  0  0  0  0  0  0  # atno 6907 bound_to 6896
  151.2328  133.4434  159.2612 H   0  0  0  0  0  0  0  0  0  0  0  0  # atno 6908 bound_to 6896
  151.0699  134.9805  159.8359 H   0  0  0  0  0  0  0  0  0  0  0  0  # atno 6909 bound_to 6896
  144.7129  140.1383  143.6393 H   0  0  0  0  0  0  0  0  0  0  0  0  # atno 7974 bound_to 7965
  154.6206  140.0617  156.9610 H   0  0  0  0  0  0  0  0  0  0  0  0  # atno 8008 bound_to 7997
  155.1824  140.3300  155.4354 H   0  0  0  0  0  0  0  0  0  0  0  0  # atno 8009 bound_to 7997
  156.2429  140.1895  156.6919 H   0  0  0  0  0  0  0  0  0  0  0  0  # atno 8010 bound_to 7997
  139.4910  144.5840  151.6815 H   0  0  0  0  0  0  0  0  0  0  0  0  # atno 10167 bound_to 10162
  156.4044  130.7950  151.2163 H   0  0  0  0  0  0  0  0  0  0  0  0  # atno 10718 bound_to 10713
  154.7364  135.3058  154.8803 H   0  0  0  0  0  0  0  0  0  0  0  0  # atno 10763 bound_to 10752
  153.9631  135.6750  153.4749 H   0  0  0  0  0  0  0  0  0  0  0  0  # atno 10764 bound_to 10752
  153.0967  135.4932  154.8714 H   0  0  0  0  0  0  0  0  0  0  0  0  # atno 10765 bound_to 10752
  139.8890  134.9493  156.6336 H   0  0  0  0  0  0  0  0  0  0  0  0  # atno 11005 bound_to 11000
  145.9225  139.2554  143.1373 LP  0  0  0  0  0  0  0  0  0  0  0  0  # atno 17320 bound_to 7965
  145.9606  140.8839  143.0213 LP  0  0  0  0  0  0  0  0  0  0  0  0  # atno 17321 bound_to 7965
  140.5452  144.0515  150.6104 LP  0  0  0  0  0  0  0  0  0  0  0  0  # atno 17342 bound_to 10162
  140.3550  143.2941  152.0445 LP  0  0  0  0  0  0  0  0  0  0  0  0  # atno 17343 bound_to 10162
  157.7505  131.0277  150.4016 LP  0  0  0  0  0  0  0  0  0  0  0  0  # atno 17370 bound_to 10713
  156.4302  130.3970  149.6765 LP  0  0  0  0  0  0  0  0  0  0  0  0  # atno 17371 bound_to 10713
  140.7647  133.8788  155.8445 LP  0  0  0  0  0  0  0  0  0  0  0  0  # atno 17394 bound_to 11000
  140.9892  134.1301  157.4424 LP  0  0  0  0  0  0  0  0  0  0  0  0  # atno 17395 bound_to 11000

$$$$
