AV-unprocessed.smi:1101|AV-procd|sdf|4766|dock6
  -GOLD-   22720 3303D 1   1.00000     0.00000
 Structure written by MMmdl.
 41 42  0  0  0  0  0  0  0  0  1 V2000
  147.7267  142.1201  154.3450 C   0  0  0  0  0  0  0  0  0  0  0  0
  148.8577  141.1584  153.9602 C   0  0  0  0  0  0  0  0  0  0  0  0
  150.0551  141.2250  154.9211 C   0  0  1  0  0  0  0  0  0  0  0  0
  149.6107  141.3665  156.3918 C   0  0  0  0  0  0  0  0  0  0  0  0
  150.8122  141.3836  157.2389 N   0  0  0  0  0  0  0  0  0  0  0  0
  151.3183  142.4486  157.9094 C   0  0  0  0  0  0  0  0  0  0  0  0
  151.0390  143.6156  157.6307 O   0  0  0  0  0  0  0  0  0  0  0  0
  152.1805  142.1365  158.8918 N   0  0  0  0  0  0  0  0  0  0  0  0
  152.8656  143.0968  159.7491 C   0  0  0  0  0  0  0  0  0  0  0  0
  152.2144  143.1812  161.1391 C   0  0  0  0  0  0  0  0  0  0  0  0
  153.1909  142.8315  162.2263 C   0  0  0  0  0  0  0  0  0  0  0  0
  154.0189  141.6765  162.3205 C   0  0  0  0  0  0  0  0  0  0  0  0
  154.7724  141.6708  163.4081 N   0  0  0  0  0  0  0  0  0  0  0  0
  154.4531  142.8169  164.0440 N   0  0  0  0  0  0  0  0  0  0  0  0
  155.1009  143.1423  165.2965 C   0  0  0  0  0  0  0  0  0  0  0  0
  153.5007  143.5367  163.3551 C   0  0  0  0  0  0  0  0  0  0  0  0
  151.5470  140.1247  157.0928 C   0  0  0  0  0  0  0  0  0  0  0  0
  151.9693  139.9810  155.6204 C   0  0  0  0  0  0  0  0  0  0  0  0
  150.8137  140.0228  154.7863 O   0  0  0  0  0  0  0  0  0  0  0  0
  146.8891  142.0302  153.6531 H   0  0  0  0  0  0  0  0  0  0  0  0
  148.0638  143.1568  154.3239 H   0  0  0  0  0  0  0  0  0  0  0  0
  147.3542  141.9085  155.3476 H   0  0  0  0  0  0  0  0  0  0  0  0
  148.4612  140.1426  153.9470 H   0  0  0  0  0  0  0  0  0  0  0  0
  149.1884  141.3720  152.9431 H   0  0  0  0  0  0  0  0  0  0  0  0
  150.6808  142.0772  154.6483 H   0  0  0  0  0  0  0  0  0  0  0  0
  148.9795  142.2478  156.5039 H   0  0  0  0  0  0  0  0  0  0  0  0
  148.9844  140.5201  156.6784 H   0  0  0  0  0  0  0  0  0  0  0  0
  152.3737  141.1595  159.0572 H   0  0  0  0  0  0  0  0  0  0  0  0
  153.9047  142.7805  159.8447 H   0  0  0  0  0  0  0  0  0  0  0  0
  152.8825  144.0784  159.2720 H   0  0  0  0  0  0  0  0  0  0  0  0
  151.8185  144.1851  161.2972 H   0  0  0  0  0  0  0  0  0  0  0  0
  151.3515  142.5151  161.1729 H   0  0  0  0  0  0  0  0  0  0  0  0
  154.0939  140.8469  161.6328 H   0  0  0  0  0  0  0  0  0  0  0  0
  154.8066  144.1404  165.6219 H   0  0  0  0  0  0  0  0  0  0  0  0
  156.1838  143.1162  165.1715 H   0  0  0  0  0  0  0  0  0  0  0  0
  154.8101  142.4200  166.0599 H   0  0  0  0  0  0  0  0  0  0  0  0
  153.1263  144.4823  163.7193 H   0  0  0  0  0  0  0  0  0  0  0  0
  152.4238  140.0664  157.7392 H   0  0  0  0  0  0  0  0  0  0  0  0
  150.9040  139.2928  157.3834 H   0  0  0  0  0  0  0  0  0  0  0  0
  152.6646  140.7722  155.3352 H   0  0  0  0  0  0  0  0  0  0  0  0
  152.4827  139.0321  155.4651 H   0  0  0  0  0  0  0  0  0  0  0  0
  1  2  1  0  0  0  0
  1 20  1  0  0  0  0
  1 21  1  0  0  0  0
  1 22  1  0  0  0  0
  2  3  1  0  0  0  0
  2 23  1  0  0  0  0
  2 24  1  0  0  0  0
  3 19  1  0  0  0  0
  3  4  1  0  0  0  0
  3 25  1  0  0  0  0
  4  5  1  0  0  0  0
  4 26  1  0  0  0  0
  4 27  1  0  0  0  0
  5  6  1  0  0  0  0
  5 17  1  0  0  0  0
  6  7  2  0  0  0  0
  6  8  1  0  0  0  0
  8  9  1  0  0  0  0
  8 28  1  0  0  0  0
  9 10  1  0  0  0  0
  9 29  1  0  0  0  0
  9 30  1  0  0  0  0
 10 11  1  0  0  0  0
 10 31  1  0  0  0  0
 10 32  1  0  0  0  0
 11 16  2  0  0  0  0
 11 12  1  0  0  0  0
 12 13  2  0  0  0  0
 12 33  1  0  0  0  0
 13 14  1  0  0  0  0
 14 15  1  0  0  0  0
 14 16  1  0  0  0  0
 15 34  1  0  0  0  0
 15 35  1  0  0  0  0
 15 36  1  0  0  0  0
 16 37  1  0  0  0  0
 17 18  1  0  0  0  0
 17 38  1  0  0  0  0
 17 39  1  0  0  0  0
 18 19  1  0  0  0  0
 18 40  1  0  0  0  0
 18 41  1  0  0  0  0
M  END
> <s_m_source_file>
AV-unprocessed.smi

> <i_m_source_file_index>
1101

> <i_lp_mmshare_version>
43012

> <i_f3d_flags>
0

> <s_epik_input>
W0NIM11bQ0gyXVtDQEBIXTFbQ0gyXU4oW0NIMl1bQ0gyXU8xKUMoPU8pW05IXVtDSDJdW0NIMl1jMltjSF1ubihbQ0gzXSlbY0hdMg==

> <s_epik_cmdline>
J2VwaWtfcHl0aG9uJywgJy1waCcsICc3LjAnLCAnLXRuJywgJzgnLCAnLW1hJywgJzIwMCcsICctbWV0YWxfYmluZGluZycsICctaW1hZScsICc8aW5maWxlLm1hZT4nLCAnLW9tYWUnLCAnPG91dGZpbGUubWFlPic=

> <r_lp_tautomer_probability>
1

> <r_epik_Ionization_Penalty>
0.000536373

> <r_epik_Ionization_Penalty_Charging>
0

> <r_epik_Ionization_Penalty_Neutral>
0.000536373

> <r_epik_State_Penalty>
-0

> <r_epik_Charging_Adjusted_Penalty>
0

> <i_epik_Tot_Q>
0

> <i_epik_Tot_abs_Q>
0

> <r_epik_Metal_State_Penalty>
-0

> <b_epik_Metal_Only>
0

> <s_lp_Force_Field>
OPLS_2005

> <r_lp_Energy>
24.031

> <b_lp_Chiralities_Consistent>
1

> <s_lp_Variant>
AV-unprocessed.smi:1101-2

> <Gold.Version>
5.8.1

> <Gold.Id.Protein>
6NUR|6NUR_protein|mol2

> <Gold.PLP.Fitness>
44.9813

> <Gold.PLP.PLP>
-46.1185

> <Gold.PLP.part.hbond>
-2.0000

> <Gold.PLP.part.metal>
0.0000

> <Gold.PLP.part.buried>
-1.6447

> <Gold.PLP.part.nonpolar>
-40.0189

> <Gold.PLP.part.repulsive>
0.9688

> <Gold.PLP.ligand.clash>
0.0000

> <Gold.PLP.ligand.torsion>
1.0051

> <Gold.PLP.Chemscore.Hbond>
0.2750

> <Gold.PLP.Chemscore.CHOScore>
0.0000

> <Gold.PLP.Chemscore.Metal>
0.0000

> <Gold.Chemscore.Hbonds>
donor molecule, donor type, donor heavy atom, donor atom, acceptor molecule, acceptor atom, score
      P1  H  7989  7998       L1    19  0.18

> <Gold.PLP.Chemscore.Internal.Correction>
0.0481

> <Gold.Rescore>
     Score         DG    S(hbond)    S(metal)    S(lipo)     H(rot)  DE(clash)    DE(int)     intcor
     13.30     -14.11       0.00        0.00     106.71       1.51       0.07       0.74       ----

> <Gold.Chemscore.Fitness>
13.3034

> <Gold.Chemscore.DG>
-14.1088

> <Gold.Chemscore.ZeroCoef>
-5.4800

> <Gold.Chemscore.Hbond>
0.0000

> <Gold.Chemscore.Metal>
0.0000

> <Gold.Chemscore.Lipo>
106.7062

> <Gold.Chemscore.Internal_Hbond>
0.0000

> <Gold.Chemscore.DEClash>
0.0687

> <Gold.Chemscore.DEInternal>
0.7367

> <Gold.Chemscore.Rot>
1.5062

> <Gold.Chemscore.Internal.Correction>
   9.000000E+99

> <Gold.Chemscore.Hbond.Weighted>
-0.0000

> <Gold.Chemscore.Metal.Weighted>
-0.0000

> <Gold.Chemscore.Lipo.Weighted>
-12.4846

> <Gold.Chemscore.Internal_Hbond.Weighted>
0.0000

> <Gold.Chemscore.DEClash.Weighted>
0.0687

> <Gold.Chemscore.DEInternal.Weighted>
0.7367

> <Gold.Chemscore.Rot.Weighted>
3.8558

> <Gold.Chemscore.Internal.Correction.Weighted>
   9.000000E+99

> <Gold.Protein.RotatedTorsions>
[ 6907 6896 6895 6894 ] final  169.73 input  -60.11 | X-H torsion
[ 7974 7965 7964 7962 ] final -170.85 input  175.53 | X-H torsion
[ 8008 7997 7996 7995 ] final   45.42 input   59.86 | X-H torsion
[ 10167 10162 10161 10158 ] final  102.94 input  -65.29 | X-H torsion
[ 10718 10713 10712 10709 ] final   20.81 input   66.30 | X-H torsion
[ 10763 10752 10751 10750 ] final    9.00 input  -60.55 | X-H torsion
[ 11005 11000 10999 10996 ] final   48.69 input  -57.11 | X-H torsion

> <Gold.Protein.ActiveResidues>
 VAL166  LYS551  ARG553  GLY616  TRP617  ASP618  TYR619  PRO620  LYS621  CYS622 
 ASP623  PHE694  ASN695  SER759  ASP760  ASP761  ALA762  ILE779  LEU786  VAL792 
 PHE793  MET794  SER795  GLU796  ALA797  LYS798  CYS799  TRP800  GLU811  SER814 

> <Gold.Protein.RotatedAtoms>
  151.8272  133.3403  159.3602 H   0  0  0  0  0  0  0  0  0  0  0  0  # atno 6907 bound_to 6896
  150.7275  134.5517  159.5807 H   0  0  0  0  0  0  0  0  0  0  0  0  # atno 6908 bound_to 6896
  152.2962  134.7665  160.0418 H   0  0  0  0  0  0  0  0  0  0  0  0  # atno 6909 bound_to 6896
  144.7164  140.2010  143.6338 H   0  0  0  0  0  0  0  0  0  0  0  0  # atno 7974 bound_to 7965
  155.3355  140.3405  155.4239 H   0  0  0  0  0  0  0  0  0  0  0  0  # atno 8008 bound_to 7997
  156.1840  140.1674  156.8257 H   0  0  0  0  0  0  0  0  0  0  0  0  # atno 8009 bound_to 7997
  154.5365  140.0734  156.8419 H   0  0  0  0  0  0  0  0  0  0  0  0  # atno 8010 bound_to 7997
  139.7306  144.7037  151.0728 H   0  0  0  0  0  0  0  0  0  0  0  0  # atno 10167 bound_to 10162
  157.1297  130.6585  149.5948 H   0  0  0  0  0  0  0  0  0  0  0  0  # atno 10718 bound_to 10713
  153.2188  135.6878  153.8025 H   0  0  0  0  0  0  0  0  0  0  0  0  # atno 10763 bound_to 10752
  153.7231  135.3264  155.3271 H   0  0  0  0  0  0  0  0  0  0  0  0  # atno 10764 bound_to 10752
  154.8259  135.4618  154.1027 H   0  0  0  0  0  0  0  0  0  0  0  0  # atno 10765 bound_to 10752
  140.1168  134.4882  155.8631 H   0  0  0  0  0  0  0  0  0  0  0  0  # atno 11005 bound_to 11000
  145.8680  139.2257  143.1677 LP  0  0  0  0  0  0  0  0  0  0  0  0  # atno 17320 bound_to 7965
  146.0111  140.8434  142.9970 LP  0  0  0  0  0  0  0  0  0  0  0  0  # atno 17321 bound_to 7965
  140.7770  143.5048  150.9726 LP  0  0  0  0  0  0  0  0  0  0  0  0  # atno 17342 bound_to 10162
  139.8736  143.7161  152.3164 LP  0  0  0  0  0  0  0  0  0  0  0  0  # atno 17343 bound_to 10162
  155.9810  130.4815  150.6806 LP  0  0  0  0  0  0  0  0  0  0  0  0  # atno 17370 bound_to 10713
  157.4403  131.0860  151.0950 LP  0  0  0  0  0  0  0  0  0  0  0  0  # atno 17371 bound_to 10713
  141.2143  133.6746  156.6812 LP  0  0  0  0  0  0  0  0  0  0  0  0  # atno 17394 bound_to 11000
  140.3017  134.8158  157.4103 LP  0  0  0  0  0  0  0  0  0  0  0  0  # atno 17395 bound_to 11000

$$$$
