AV-unprocessed.smi:1455|AV-procd|sdf|5916|dock9
  -GOLD-   22720 6 03D 1   1.00000     0.00000
 Structure written by MMmdl.
 31 32  0  0  0  0  0  0  0  0  2 V2000
  150.7500  141.0661  158.0413 O   0  0  0  0  0  0  0  0  0  0  0  0
  150.5260  141.9639  157.2299 C   0  0  0  0  0  0  0  0  0  0  0  0
  150.4098  141.6117  155.7366 C   0  0  0  0  0  0  0  0  0  0  0  0
  150.6723  140.1973  155.4129 N   0  0  0  0  0  0  0  0  0  0  0  0
  149.7436  139.5369  154.5891 C   0  0  0  0  0  0  0  0  0  0  0  0
  149.9033  138.2497  154.2276 C   0  0  0  0  0  0  0  0  0  0  0  0
  151.0776  137.5367  154.7149 C   0  0  0  0  0  0  0  0  0  0  0  0
  151.2386  136.3601  154.3972 O   0  0  0  0  0  0  0  0  0  0  0  0
  151.9517  138.2219  155.5088 N   0  5  0  0  0  0  0  0  0  0  0  0
  151.7783  139.5324  155.8653 C   0  0  0  0  0  0  0  0  0  0  0  0
  152.5858  140.1350  156.5725 O   0  0  0  0  0  0  0  0  0  0  0  0
  150.3657  143.2476  157.5924 N   0  0  0  0  0  0  0  0  0  0  0  0
  150.4300  143.7586  158.9573 C   0  0  0  0  0  0  0  0  0  0  0  0
  150.6429  145.2868  158.9819 C   0  0  0  0  0  0  0  0  0  0  0  0
  151.8344  145.5368  159.9087 C   0  0  0  0  0  0  0  0  0  0  0  0
  152.6697  144.2645  159.8046 C   0  0  0  0  0  0  0  0  0  0  0  0
  151.6315  143.1476  159.7002 C   0  0  0  0  0  0  0  0  0  0  0  0
  149.4185  141.9050  155.3874 H   0  0  0  0  0  0  0  0  0  0  0  0
  151.1013  142.2507  155.1857 H   0  0  0  0  0  0  0  0  0  0  0  0
  148.9067  140.1388  154.2666 H   0  0  0  0  0  0  0  0  0  0  0  0
  149.1826  137.7581  153.5909 H   0  0  0  0  0  0  0  0  0  0  0  0
  150.1912  143.9216  156.8604 H   0  0  0  0  0  0  0  0  0  0  0  0
  149.5138  143.4922  159.4874 H   0  0  0  0  0  0  0  0  0  0  0  0
  150.8846  145.6591  157.9849 H   0  0  0  0  0  0  0  0  0  0  0  0
  149.7512  145.8191  159.3145 H   0  0  0  0  0  0  0  0  0  0  0  0
  152.3958  146.4317  159.6387 H   0  0  0  0  0  0  0  0  0  0  0  0
  151.4828  145.6607  160.9337 H   0  0  0  0  0  0  0  0  0  0  0  0
  153.2724  144.2926  158.8958 H   0  0  0  0  0  0  0  0  0  0  0  0
  153.3446  144.1331  160.6505 H   0  0  0  0  0  0  0  0  0  0  0  0
  151.3208  142.8543  160.7038 H   0  0  0  0  0  0  0  0  0  0  0  0
  152.0332  142.2556  159.2169 H   0  0  0  0  0  0  0  0  0  0  0  0
  1  2  2  0  0  0  0
  2  3  1  0  0  0  0
  2 12  1  0  0  0  0
  3  4  1  0  0  0  0
  3 18  1  0  0  0  0
  3 19  1  0  0  0  0
  4 10  1  0  0  0  0
  4  5  1  0  0  0  0
  5  6  2  0  0  0  0
  5 20  1  0  0  0  0
  6  7  1  0  0  0  0
  6 21  1  0  0  0  0
  7  8  2  0  0  0  0
  7  9  1  0  0  0  0
  9 10  1  0  0  0  0
 10 11  2  0  0  0  0
 12 13  1  0  0  0  0
 12 22  1  0  0  0  0
 13 17  1  0  0  0  0
 13 14  1  0  0  0  0
 13 23  1  0  0  0  0
 14 15  1  0  0  0  0
 14 24  1  0  0  0  0
 14 25  1  0  0  0  0
 15 16  1  0  0  0  0
 15 26  1  0  0  0  0
 15 27  1  0  0  0  0
 16 17  1  0  0  0  0
 16 28  1  0  0  0  0
 16 29  1  0  0  0  0
 17 30  1  0  0  0  0
 17 31  1  0  0  0  0
M  CHG  1   9  -1
M  END
> <s_m_source_file>
AV-unprocessed.smi

> <i_m_source_file_index>
1455

> <i_lp_mmshare_version>
43012

> <i_f3d_flags>
0

> <s_epik_input>
W0NIMl0xW0NIMl1bQ0gyXVtDSDJdW0NIXTFbTkhdQyg9TylbQ0gyXW4yW2NIXVtjSF1jKD1PKVtuSF1jMj1P

> <s_epik_cmdline>
J2VwaWtfcHl0aG9uJywgJy1waCcsICc3LjAnLCAnLXRuJywgJzgnLCAnLW1hJywgJzIwMCcsICctbWV0YWxfYmluZGluZycsICctaW1hZScsICc8aW5maWxlLm1hZT4nLCAnLW9tYWUnLCAnPG91dGZpbGUubWFlPic=

> <r_lp_tautomer_probability>
0.999537

> <r_epik_Ionization_Penalty>
3.09122

> <r_epik_Ionization_Penalty_Charging>
2.83991e-08

> <r_epik_Ionization_Penalty_Neutral>
3.09122

> <r_epik_State_Penalty>
3.09028

> <r_epik_Charging_Adjusted_Penalty>
3.09028

> <i_epik_Tot_Q>
-1

> <i_epik_Tot_abs_Q>
1

> <r_epik_Metal_State_Penalty>
0.460928

> <b_epik_Metal_Only>
1

> <s_lp_Force_Field>
OPLS_2005

> <r_lp_Energy>
25.8803

> <b_lp_Chiralities_Consistent>
1

> <s_lp_Variant>
AV-unprocessed.smi:1455-2

> <Gold.Version>
5.8.1

> <Gold.Id.Protein>
6NUR|6NUR_protein|mol2

> <Gold.PLP.Fitness>
42.3225

> <Gold.PLP.PLP>
-34.2196

> <Gold.PLP.part.hbond>
-3.0000

> <Gold.PLP.part.metal>
0.0000

> <Gold.PLP.part.buried>
-4.3394

> <Gold.PLP.part.nonpolar>
-28.8550

> <Gold.PLP.part.repulsive>
1.3487

> <Gold.PLP.ligand.clash>
0.0000

> <Gold.PLP.ligand.torsion>
0.3428

> <Gold.PLP.Chemscore.Hbond>
2.9280

> <Gold.PLP.Chemscore.CHOScore>
0.0000

> <Gold.PLP.Chemscore.Metal>
0.0000

> <Gold.Chemscore.Hbonds>
donor molecule, donor type, donor heavy atom, donor atom, acceptor molecule, acceptor atom, score
      L1  H    12    22       P1  8028  0.96
      P1  H  7997  8008       L1    11  1.00
      P1  H 10752 10764       L1     8  1.00

> <Gold.PLP.Chemscore.Internal.Correction>
0.0045

> <Gold.Rescore>
     Score         DG    S(hbond)    S(metal)    S(lipo)     H(rot)  DE(clash)    DE(int)     intcor
     13.50     -19.49       2.89        0.00      74.08       1.69       0.20       5.79       ----

> <Gold.Chemscore.Fitness>
13.5004

> <Gold.Chemscore.DG>
-19.4877

> <Gold.Chemscore.ZeroCoef>
-5.4800

> <Gold.Chemscore.Hbond>
2.8924

> <Gold.Chemscore.Metal>
0.0000

> <Gold.Chemscore.Lipo>
74.0766

> <Gold.Chemscore.Internal_Hbond>
0.0000

> <Gold.Chemscore.DEClash>
0.1956

> <Gold.Chemscore.DEInternal>
5.7917

> <Gold.Chemscore.Rot>
1.6875

> <Gold.Chemscore.Internal.Correction>
   9.000000E+99

> <Gold.Chemscore.Hbonds>
donor molecule, donor type, donor heavy atom, donor atom, acceptor molecule, acceptor atom, score
      L1  H    12    22       P1  8028  0.91
      P1  H  7997  8008       L1    11  0.98
      P1  H 10752 10764       L1     8  0.98

> <Gold.Chemscore.Hbond.Weighted>
-9.6608

> <Gold.Chemscore.Metal.Weighted>
-0.0000

> <Gold.Chemscore.Lipo.Weighted>
-8.6670

> <Gold.Chemscore.Internal_Hbond.Weighted>
0.0000

> <Gold.Chemscore.DEClash.Weighted>
0.1956

> <Gold.Chemscore.DEInternal.Weighted>
5.7917

> <Gold.Chemscore.Rot.Weighted>
4.3200

> <Gold.Chemscore.Internal.Correction.Weighted>
   9.000000E+99

> <Gold.Protein.RotatedTorsions>
[ 6907 6896 6895 6894 ] final    7.70 input  -60.11 | X-H torsion
[ 7974 7965 7964 7962 ] final  125.73 input  175.53 | X-H torsion
[ 8008 7997 7996 7995 ] final  -55.08 input   59.86 | X-H torsion
[ 10167 10162 10161 10158 ] final  116.31 input  -65.29 | X-H torsion
[ 10718 10713 10712 10709 ] final   59.60 input   66.30 | X-H torsion
[ 10763 10752 10751 10750 ] final  -76.57 input  -60.55 | X-H torsion
[ 11005 11000 10999 10996 ] final  -43.34 input  -57.11 | X-H torsion

> <Gold.Protein.ActiveResidues>
 VAL166  LYS551  ARG553  GLY616  TRP617  ASP618  TYR619  PRO620  LYS621  CYS622 
 ASP623  PHE694  ASN695  SER759  ASP760  ASP761  ALA762  ILE779  LEU786  VAL792 
 PHE793  MET794  SER795  GLU796  ALA797  LYS798  CYS799  TRP800  GLU811  SER814 

> <Gold.Protein.RotatedAtoms>
  151.6941  135.0941  160.0238 H   0  0  0  0  0  0  0  0  0  0  0  0  # atno 6907 bound_to 6896
  152.3760  133.6478  159.6132 H   0  0  0  0  0  0  0  0  0  0  0  0  # atno 6908 bound_to 6896
  150.7710  133.9108  159.3410 H   0  0  0  0  0  0  0  0  0  0  0  0  # atno 6909 bound_to 6896
  145.0696  139.3740  143.4964 H   0  0  0  0  0  0  0  0  0  0  0  0  # atno 7974 bound_to 7965
  154.4183  140.1161  156.5419 H   0  0  0  0  0  0  0  0  0  0  0  0  # atno 8008 bound_to 7997
  155.6499  140.3496  155.4725 H   0  0  0  0  0  0  0  0  0  0  0  0  # atno 8009 bound_to 7997
  155.9801  140.1158  157.0724 H   0  0  0  0  0  0  0  0  0  0  0  0  # atno 8010 bound_to 7997
  139.6256  144.7108  151.2540 H   0  0  0  0  0  0  0  0  0  0  0  0  # atno 10167 bound_to 10162
  157.5688  130.8892  149.9232 H   0  0  0  0  0  0  0  0  0  0  0  0  # atno 10718 bound_to 10713
  154.5016  135.5793  153.6535 H   0  0  0  0  0  0  0  0  0  0  0  0  # atno 10763 bound_to 10752
  152.9880  135.6137  154.2995 H   0  0  0  0  0  0  0  0  0  0  0  0  # atno 10764 bound_to 10752
  154.2903  135.2849  155.2637 H   0  0  0  0  0  0  0  0  0  0  0  0  # atno 10765 bound_to 10752
  141.0377  133.6793  156.2719 H   0  0  0  0  0  0  0  0  0  0  0  0  # atno 11005 bound_to 11000
  146.3528  140.0435  142.8641 LP  0  0  0  0  0  0  0  0  0  0  0  0  # atno 17320 bound_to 7965
  145.1308  140.9517  143.4545 LP  0  0  0  0  0  0  0  0  0  0  0  0  # atno 17321 bound_to 7965
  140.7409  143.6574  150.8195 LP  0  0  0  0  0  0  0  0  0  0  0  0  # atno 17342 bound_to 10162
  140.0191  143.5561  152.2808 LP  0  0  0  0  0  0  0  0  0  0  0  0  # atno 17343 bound_to 10162
  156.0735  130.3682  150.0726 LP  0  0  0  0  0  0  0  0  0  0  0  0  # atno 17370 bound_to 10713
  156.8882  130.9579  151.3591 LP  0  0  0  0  0  0  0  0  0  0  0  0  # atno 17371 bound_to 10713
  140.6292  134.5281  157.5557 LP  0  0  0  0  0  0  0  0  0  0  0  0  # atno 17394 bound_to 11000
  139.9252  134.8069  156.1089 LP  0  0  0  0  0  0  0  0  0  0  0  0  # atno 17395 bound_to 11000

$$$$
