AV-unprocessed.smi:1110|AV-procd|sdf|4790|dock8
  -GOLD-   22720 3333D 1   1.00000     0.00000
 Structure written by MMmdl.
 44 45  0  0  0  0  0  0  0  0  2 V2000
  150.4461  132.2123  155.6806 C   0  0  0  0  0  0  0  0  0  0  0  0
  149.3354  132.3120  154.6263 C   0  0  0  0  0  0  0  0  0  0  0  0
  149.2165  133.7172  153.9829 C   0  0  2  0  0  0  0  0  0  0  0  0
  149.4513  134.8570  155.0041 C   0  0  0  0  0  0  0  0  0  0  0  0
  150.1447  135.9913  154.3982 N   0  0  0  0  0  0  0  0  0  0  0  0
  151.0316  136.7833  155.0198 C   0  0  0  0  0  0  0  0  0  0  0  0
  151.4513  136.5705  156.1572 O   0  0  0  0  0  0  0  0  0  0  0  0
  151.4936  138.0221  154.2427 C   0  0  0  0  0  0  0  0  0  0  0  0
  151.1417  139.2775  154.9289 N   0  0  0  0  0  0  0  0  0  0  0  0
  149.9864  139.9521  154.4862 C   0  0  0  0  0  0  0  0  0  0  0  0
  149.5765  141.1013  155.0462 C   0  0  0  0  0  0  0  0  0  0  0  0
  150.3537  141.6468  156.1338 C   0  0  0  0  0  0  0  0  0  0  0  0
  151.4628  141.0128  156.5631 C   0  0  0  0  0  0  0  0  0  0  0  0
  151.9170  139.7587  155.9518 C   0  0  0  0  0  0  0  0  0  0  0  0
  152.9352  139.1783  156.3322 O   0  0  0  0  0  0  0  0  0  0  0  0
  147.9436  133.9188  153.2290 N   0  3  0  0  0  0  0  0  0  0  0  0
  147.6921  132.9563  152.1318 C   0  0  0  0  0  0  0  0  0  0  0  0
  146.1731  132.8784  151.9980 C   0  0  0  0  0  0  0  0  0  0  0  0
  145.6980  133.0574  153.4352 C   0  0  0  0  0  0  0  0  0  0  0  0
  146.6946  134.0615  154.0190 C   0  0  0  0  0  0  0  0  0  0  0  0
  150.5266  131.1929  156.0588 H   0  0  0  0  0  0  0  0  0  0  0  0
  150.2517  132.8607  156.5346 H   0  0  0  0  0  0  0  0  0  0  0  0
  151.4150  132.4864  155.2624 H   0  0  0  0  0  0  0  0  0  0  0  0
  149.5366  131.5621  153.8621 H   0  0  0  0  0  0  0  0  0  0  0  0
  148.3926  132.0208  155.0886 H   0  0  0  0  0  0  0  0  0  0  0  0
  150.0091  133.8041  153.2374 H   0  0  0  0  0  0  0  0  0  0  0  0
  148.5045  135.1691  155.4483 H   0  0  0  0  0  0  0  0  0  0  0  0
  150.0682  134.5021  155.8293 H   0  0  0  0  0  0  0  0  0  0  0  0
  149.8803  136.2324  153.4535 H   0  0  0  0  0  0  0  0  0  0  0  0
  152.5705  137.9427  154.0882 H   0  0  0  0  0  0  0  0  0  0  0  0
  151.0560  138.0228  153.2423 H   0  0  0  0  0  0  0  0  0  0  0  0
  149.4622  139.4833  153.6663 H   0  0  0  0  0  0  0  0  0  0  0  0
  148.6896  141.6057  154.6916 H   0  0  0  0  0  0  0  0  0  0  0  0
  150.0436  142.5675  156.6061 H   0  0  0  0  0  0  0  0  0  0  0  0
  152.0309  141.4359  157.3788 H   0  0  0  0  0  0  0  0  0  0  0  0
  148.1736  133.2779  151.2079 H   0  0  0  0  0  0  0  0  0  0  0  0
  148.0840  131.9705  152.3822 H   0  0  0  0  0  0  0  0  0  0  0  0
  145.8103  133.7024  151.3816 H   0  0  0  0  0  0  0  0  0  0  0  0
  145.8333  131.9443  151.5500 H   0  0  0  0  0  0  0  0  0  0  0  0
  144.6644  133.3990  153.5019 H   0  0  0  0  0  0  0  0  0  0  0  0
  145.7738  132.1084  153.9684 H   0  0  0  0  0  0  0  0  0  0  0  0
  146.8233  133.9332  155.0928 H   0  0  0  0  0  0  0  0  0  0  0  0
  146.3214  135.0741  153.8642 H   0  0  0  0  0  0  0  0  0  0  0  0
  148.0524  134.8087  152.7628 H   0  0  0  0  0  0  0  0  0  0  0  0
  1  2  1  0  0  0  0
  1 21  1  0  0  0  0
  1 22  1  0  0  0  0
  1 23  1  0  0  0  0
  2  3  1  0  0  0  0
  2 24  1  0  0  0  0
  2 25  1  0  0  0  0
  3  4  1  0  0  0  0
  3 16  1  0  0  0  0
  3 26  1  0  0  0  0
  4  5  1  0  0  0  0
  4 27  1  0  0  0  0
  4 28  1  0  0  0  0
  5  6  1  0  0  0  0
  5 29  1  0  0  0  0
  6  7  2  0  0  0  0
  6  8  1  0  0  0  0
  8  9  1  0  0  0  0
  8 30  1  0  0  0  0
  8 31  1  0  0  0  0
  9 14  1  0  0  0  0
  9 10  1  0  0  0  0
 10 11  2  0  0  0  0
 10 32  1  0  0  0  0
 11 12  1  0  0  0  0
 11 33  1  0  0  0  0
 12 13  2  0  0  0  0
 12 34  1  0  0  0  0
 13 14  1  0  0  0  0
 13 35  1  0  0  0  0
 14 15  2  0  0  0  0
 16 20  1  0  0  0  0
 16 17  1  0  0  0  0
 16 44  1  0  0  0  0
 17 18  1  0  0  0  0
 17 36  1  0  0  0  0
 17 37  1  0  0  0  0
 18 19  1  0  0  0  0
 18 38  1  0  0  0  0
 18 39  1  0  0  0  0
 19 20  1  0  0  0  0
 19 40  1  0  0  0  0
 19 41  1  0  0  0  0
 20 42  1  0  0  0  0
 20 43  1  0  0  0  0
M  CHG  1  16   1
M  END
> <s_m_source_file>
AV-unprocessed.smi

> <i_m_source_file_index>
1110

> <i_lp_mmshare_version>
43012

> <i_f3d_flags>
0

> <s_epik_input>
W0NIMl0xW0NIMl1bQ0gyXVtDSDJdTjFbQ0BIXShbQ0gyXVtDSDNdKVtDSDJdW05IXUMoPU8pW0NIMl1uMltjSF1bY0hdW2NIXVtjSF1jMj1P

> <s_epik_cmdline>
J2VwaWtfcHl0aG9uJywgJy1waCcsICc3LjAnLCAnLXRuJywgJzgnLCAnLW1hJywgJzIwMCcsICctbWV0YWxfYmluZGluZycsICctaW1hZScsICc8aW5maWxlLm1hZT4nLCAnLW9tYWUnLCAnPG91dGZpbGUubWFlPic=

> <r_lp_tautomer_probability>
1

> <r_epik_Ionization_Penalty>
0.00361135

> <r_epik_Ionization_Penalty_Charging>
0.00361127

> <r_epik_Ionization_Penalty_Neutral>
7.8489e-08

> <r_epik_State_Penalty>
0.00256751

> <r_epik_Charging_Adjusted_Penalty>
0.00617878

> <i_epik_Tot_Q>
1

> <i_epik_Tot_abs_Q>
1

> <r_epik_Metal_State_Penalty>
-0

> <b_epik_Metal_Only>
0

> <s_lp_Force_Field>
OPLS_2005

> <r_lp_Energy>
45.664

> <b_lp_Chiralities_Consistent>
1

> <s_lp_Variant>
AV-unprocessed.smi:1110-1

> <Gold.Version>
5.8.1

> <Gold.Id.Protein>
6NUR|6NUR_protein|mol2

> <Gold.PLP.Fitness>
51.0917

> <Gold.PLP.PLP>
-38.6442

> <Gold.PLP.part.hbond>
-3.8109

> <Gold.PLP.part.metal>
0.0000

> <Gold.PLP.part.buried>
-0.7108

> <Gold.PLP.part.nonpolar>
-34.2505

> <Gold.PLP.part.repulsive>
0.0737

> <Gold.PLP.ligand.clash>
0.0000

> <Gold.PLP.ligand.torsion>
1.0960

> <Gold.PLP.Chemscore.Hbond>
3.8500

> <Gold.PLP.Chemscore.CHOScore>
0.9617

> <Gold.PLP.Chemscore.Metal>
0.0000

> <Gold.Chemscore.Hbonds>
donor molecule, donor type, donor heavy atom, donor atom, acceptor molecule, acceptor atom, score
      L1  H     5    29       P1  7948  0.75
      L1  H    16    44       P1  7948  2.00
      P1  H  7997  8008       L1    15  1.00
      L1  C    10    32       P1  7957  0.87

> <Gold.PLP.Chemscore.Internal.Correction>
0.2044

> <Gold.Rescore>
     Score         DG    S(hbond)    S(metal)    S(lipo)     H(rot)  DE(clash)    DE(int)     intcor
     15.82     -17.16       2.44        0.00      73.59       1.99       0.03       1.31       ----

> <Gold.Chemscore.Fitness>
15.8246

> <Gold.Chemscore.DG>
-17.1623

> <Gold.Chemscore.ZeroCoef>
-5.4800

> <Gold.Chemscore.Hbond>
2.4447

> <Gold.Chemscore.Metal>
0.0000

> <Gold.Chemscore.Lipo>
73.5864

> <Gold.Chemscore.Internal_Hbond>
0.0000

> <Gold.Chemscore.DEClash>
0.0303

> <Gold.Chemscore.DEInternal>
1.3074

> <Gold.Chemscore.Rot>
1.9893

> <Gold.Chemscore.Internal.Correction>
   9.000000E+99

> <Gold.Chemscore.Hbonds>
donor molecule, donor type, donor heavy atom, donor atom, acceptor molecule, acceptor atom, score
      L1  H     5    29       P1  7948  0.09
      L1  H    16    44       P1  7948  0.77
      P1  H  7997  8008       L1    15  0.88

> <Gold.Chemscore.Hbond.Weighted>
-8.1653

> <Gold.Chemscore.Metal.Weighted>
-0.0000

> <Gold.Chemscore.Lipo.Weighted>
-8.6096

> <Gold.Chemscore.Internal_Hbond.Weighted>
0.0000

> <Gold.Chemscore.DEClash.Weighted>
0.0303

> <Gold.Chemscore.DEInternal.Weighted>
1.3074

> <Gold.Chemscore.Rot.Weighted>
5.0927

> <Gold.Chemscore.Internal.Correction.Weighted>
   9.000000E+99

> <Gold.Protein.RotatedTorsions>
[ 6907 6896 6895 6894 ] final  157.71 input  -60.11 | X-H torsion
[ 7974 7965 7964 7962 ] final -157.45 input  175.53 | X-H torsion
[ 8008 7997 7996 7995 ] final  -38.06 input   59.86 | X-H torsion
[ 10167 10162 10161 10158 ] final    4.25 input  -65.29 | X-H torsion
[ 10718 10713 10712 10709 ] final   53.84 input   66.30 | X-H torsion
[ 10763 10752 10751 10750 ] final -173.29 input  -60.55 | X-H torsion
[ 11005 11000 10999 10996 ] final -177.30 input  -57.11 | X-H torsion

> <Gold.Protein.ActiveResidues>
 VAL166  LYS551  ARG553  GLY616  TRP617  ASP618  TYR619  PRO620  LYS621  CYS622 
 ASP623  PHE694  ASN695  SER759  ASP760  ASP761  ALA762  ILE779  LEU786  VAL792 
 PHE793  MET794  SER795  GLU796  ALA797  LYS798  CYS799  TRP800  GLU811  SER814 

> <Gold.Protein.RotatedAtoms>
  152.0111  133.3861  159.4219 H   0  0  0  0  0  0  0  0  0  0  0  0  # atno 6907 bound_to 6896
  150.6899  134.3729  159.5009 H   0  0  0  0  0  0  0  0  0  0  0  0  # atno 6908 bound_to 6896
  152.1490  134.9003  160.0600 H   0  0  0  0  0  0  0  0  0  0  0  0  # atno 6909 bound_to 6896
  144.7548  140.3967  143.6021 H   0  0  0  0  0  0  0  0  0  0  0  0  # atno 7974 bound_to 7965
  154.4043  140.1588  156.2638 H   0  0  0  0  0  0  0  0  0  0  0  0  # atno 8008 bound_to 7997
  155.9013  140.3433  155.6006 H   0  0  0  0  0  0  0  0  0  0  0  0  # atno 8009 bound_to 7997
  155.7445  140.0797  157.2221 H   0  0  0  0  0  0  0  0  0  0  0  0  # atno 8010 bound_to 7997
  140.6544  143.7463  150.7629 H   0  0  0  0  0  0  0  0  0  0  0  0  # atno 10167 bound_to 10162
  157.5203  130.8560  149.8550 H   0  0  0  0  0  0  0  0  0  0  0  0  # atno 10718 bound_to 10713
  154.6096  135.2863  155.0447 H   0  0  0  0  0  0  0  0  0  0  0  0  # atno 10763 bound_to 10752
  154.1681  135.6477  153.5006 H   0  0  0  0  0  0  0  0  0  0  0  0  # atno 10764 bound_to 10752
  153.0189  135.5394  154.6845 H   0  0  0  0  0  0  0  0  0  0  0  0  # atno 10765 bound_to 10752
  140.4425  134.6418  157.4764 H   0  0  0  0  0  0  0  0  0  0  0  0  # atno 11005 bound_to 11000
  145.6818  139.1620  143.2696 LP  0  0  0  0  0  0  0  0  0  0  0  0  # atno 17320 bound_to 7965
  146.1544  140.6879  142.9307 LP  0  0  0  0  0  0  0  0  0  0  0  0  # atno 17321 bound_to 7965
  140.1120  143.4690  152.2364 LP  0  0  0  0  0  0  0  0  0  0  0  0  # atno 17342 bound_to 10162
  139.5765  144.7490  151.3752 LP  0  0  0  0  0  0  0  0  0  0  0  0  # atno 17343 bound_to 10162
  156.0349  130.3754  150.1588 LP  0  0  0  0  0  0  0  0  0  0  0  0  # atno 17370 bound_to 10713
  156.9776  130.9854  151.3445 LP  0  0  0  0  0  0  0  0  0  0  0  0  # atno 17371 bound_to 10713
  140.0060  134.6763  155.9454 LP  0  0  0  0  0  0  0  0  0  0  0  0  # atno 17394 bound_to 11000
  141.1699  133.6537  156.4615 LP  0  0  0  0  0  0  0  0  0  0  0  0  # atno 17395 bound_to 11000

$$$$
