AV-unprocessed.smi:2107|AV-procd|sdf|8600|dock4
  -GOLD-   2272011333D 1   1.00000     0.00000
 Structure written by MMmdl.
 46 47  0  0  0  0  0  0  0  0  1 V2000
  145.1667  137.0754  160.3578 C   0  0  0  0  0  0  0  0  0  0  0  0
  146.1055  136.7349  159.1925 C   0  0  0  0  0  0  0  0  0  0  0  0
  147.3143  136.0233  159.6561 N   0  0  0  0  0  0  0  0  0  0  0  0
  147.1281  135.1914  160.8591 C   0  0  0  0  0  0  0  0  0  0  0  0
  147.3254  136.0011  162.1488 C   0  0  0  0  0  0  0  0  0  0  0  0
  148.4849  135.5107  158.4772 S   0  0  0  0  0  0  0  0  0  0  0  0
  148.9283  134.1486  158.8137 O   0  0  0  0  0  0  0  0  0  0  0  0
  147.9657  135.8373  157.1405 O   0  0  0  0  0  0  0  0  0  0  0  0
  149.7578  136.6129  158.8573 N   0  0  0  0  0  0  0  0  0  0  0  0
  149.6805  138.0042  158.4058 C   0  0  0  0  0  0  0  0  0  0  0  0
  150.5647  138.3342  157.2021 C   0  0  0  0  0  0  0  0  0  0  0  0
  150.3254  137.7231  155.9498 C   0  0  0  0  0  0  0  0  0  0  0  0
  151.1624  138.0228  154.8605 C   0  0  0  0  0  0  0  0  0  0  0  0
  152.2229  138.9223  155.0644 C   0  0  0  0  0  0  0  0  0  0  0  0
  152.4744  139.5072  156.2528 N   0  0  0  0  0  0  0  0  0  0  0  0
  151.6690  139.2228  157.3059 C   0  0  0  0  0  0  0  0  0  0  0  0
  151.9552  139.8655  158.5230 N   0  0  0  0  0  0  0  0  0  0  0  0
  151.7897  141.3115  158.4506 C   0  0  0  0  0  0  0  0  0  0  0  0
  151.9099  141.9243  159.8563 C   0  0  0  0  0  0  0  0  0  0  0  0
  153.1537  141.5458  160.4401 O   0  0  0  0  0  0  0  0  0  0  0  0
  153.2762  140.1320  160.5721 C   0  0  0  0  0  0  0  0  0  0  0  0
  153.1969  139.4765  159.1828 C   0  0  0  0  0  0  0  0  0  0  0  0
  144.2395  137.5125  159.9873 H   0  0  0  0  0  0  0  0  0  0  0  0
  145.6137  137.7988  161.0380 H   0  0  0  0  0  0  0  0  0  0  0  0
  144.9055  136.1877  160.9340 H   0  0  0  0  0  0  0  0  0  0  0  0
  145.5724  136.1324  158.4562 H   0  0  0  0  0  0  0  0  0  0  0  0
  146.3939  137.6496  158.6745 H   0  0  0  0  0  0  0  0  0  0  0  0
  146.1392  134.7322  160.8356 H   0  0  0  0  0  0  0  0  0  0  0  0
  147.8462  134.3723  160.8559 H   0  0  0  0  0  0  0  0  0  0  0  0
  147.2576  135.3528  163.0225 H   0  0  0  0  0  0  0  0  0  0  0  0
  146.5702  136.7786  162.2623 H   0  0  0  0  0  0  0  0  0  0  0  0
  148.3058  136.4781  162.1660 H   0  0  0  0  0  0  0  0  0  0  0  0
  150.1065  136.5122  159.8103 H   0  0  0  0  0  0  0  0  0  0  0  0
  148.6341  138.2393  158.2153 H   0  0  0  0  0  0  0  0  0  0  0  0
  149.9932  138.6467  159.2287 H   0  0  0  0  0  0  0  0  0  0  0  0
  149.5123  137.0279  155.8143 H   0  0  0  0  0  0  0  0  0  0  0  0
  150.9964  137.5711  153.8938 H   0  0  0  0  0  0  0  0  0  0  0  0
  152.8888  139.1768  154.2535 H   0  0  0  0  0  0  0  0  0  0  0  0
  152.5535  141.7296  157.7936 H   0  0  0  0  0  0  0  0  0  0  0  0
  150.8224  141.5629  158.0160 H   0  0  0  0  0  0  0  0  0  0  0  0
  151.8597  143.0116  159.7981 H   0  0  0  0  0  0  0  0  0  0  0  0
  151.0846  141.6002  160.4925 H   0  0  0  0  0  0  0  0  0  0  0  0
  154.2312  139.8998  161.0435 H   0  0  0  0  0  0  0  0  0  0  0  0
  152.4937  139.7484  161.2287 H   0  0  0  0  0  0  0  0  0  0  0  0
  153.2419  138.3906  159.2754 H   0  0  0  0  0  0  0  0  0  0  0  0
  154.0523  139.7881  158.5817 H   0  0  0  0  0  0  0  0  0  0  0  0
  1  2  1  0  0  0  0
  1 23  1  0  0  0  0
  1 24  1  0  0  0  0
  1 25  1  0  0  0  0
  2  3  1  0  0  0  0
  2 26  1  0  0  0  0
  2 27  1  0  0  0  0
  3  4  1  0  0  0  0
  3  6  1  0  0  0  0
  4  5  1  0  0  0  0
  4 28  1  0  0  0  0
  4 29  1  0  0  0  0
  5 30  1  0  0  0  0
  5 31  1  0  0  0  0
  5 32  1  0  0  0  0
  6  7  2  0  0  0  0
  6  8  2  0  0  0  0
  6  9  1  0  0  0  0
  9 10  1  0  0  0  0
  9 33  1  0  0  0  0
 10 11  1  0  0  0  0
 10 34  1  0  0  0  0
 10 35  1  0  0  0  0
 11 16  1  0  0  0  0
 11 12  2  0  0  0  0
 12 13  1  0  0  0  0
 12 36  1  0  0  0  0
 13 14  2  0  0  0  0
 13 37  1  0  0  0  0
 14 15  1  0  0  0  0
 14 38  1  0  0  0  0
 15 16  2  0  0  0  0
 16 17  1  0  0  0  0
 17 22  1  0  0  0  0
 17 18  1  0  0  0  0
 18 19  1  0  0  0  0
 18 39  1  0  0  0  0
 18 40  1  0  0  0  0
 19 20  1  0  0  0  0
 19 41  1  0  0  0  0
 19 42  1  0  0  0  0
 20 21  1  0  0  0  0
 21 22  1  0  0  0  0
 21 43  1  0  0  0  0
 21 44  1  0  0  0  0
 22 45  1  0  0  0  0
 22 46  1  0  0  0  0
M  END
> <s_m_source_file>
AV-unprocessed.smi

> <i_m_source_file_index>
2107

> <i_lp_mmshare_version>
43012

> <i_f3d_flags>
0

> <s_epik_input>
W0NIM11bQ0gyXU4oW0NIMl1bQ0gzXSlTKD1PKSg9TylbTkhdW0NIMl1jMVtjSF1bY0hdW2NIXW5jMU4yW0NIMl1bQ0gyXU9bQ0gyXVtDSDJdMg==

> <s_epik_cmdline>
J2VwaWtfcHl0aG9uJywgJy1waCcsICc3LjAnLCAnLXRuJywgJzgnLCAnLW1hJywgJzIwMCcsICctbWV0YWxfYmluZGluZycsICctaW1hZScsICc8aW5maWxlLm1hZT4nLCAnLW9tYWUnLCAnPG91dGZpbGUubWFlPic=

> <r_lp_tautomer_probability>
1

> <r_epik_Ionization_Penalty>
0.0173886

> <r_epik_Ionization_Penalty_Charging>
0

> <r_epik_Ionization_Penalty_Neutral>
0.0173886

> <r_epik_State_Penalty>
0.0135122

> <r_epik_Charging_Adjusted_Penalty>
0.0135122

> <i_epik_Tot_Q>
0

> <i_epik_Tot_abs_Q>
0

> <r_epik_Metal_State_Penalty>
0.283451

> <b_epik_Metal_Only>
0

> <s_lp_Force_Field>
OPLS_2005

> <r_lp_Energy>
23.0208

> <b_lp_Chiralities_Consistent>
1

> <s_lp_Variant>
AV-unprocessed.smi:2107-1

> <Gold.Version>
5.8.1

> <Gold.Id.Protein>
6NUR|6NUR_protein|mol2

> <Gold.PLP.Fitness>
37.2383

> <Gold.PLP.PLP>
-32.5144

> <Gold.PLP.part.hbond>
-2.6182

> <Gold.PLP.part.metal>
0.0000

> <Gold.PLP.part.buried>
-6.5327

> <Gold.PLP.part.nonpolar>
-24.2465

> <Gold.PLP.part.repulsive>
0.0000

> <Gold.PLP.ligand.clash>
0.0000

> <Gold.PLP.ligand.torsion>
2.1462

> <Gold.PLP.Chemscore.Hbond>
2.0000

> <Gold.PLP.Chemscore.CHOScore>
0.0000

> <Gold.PLP.Chemscore.Metal>
0.0000

> <Gold.Chemscore.Hbonds>
donor molecule, donor type, donor heavy atom, donor atom, acceptor molecule, acceptor atom, score
      P1  H  6896  6908       L1     7  1.00
      P1  H  7997  8008       L1    15  1.00

> <Gold.PLP.Chemscore.Internal.Correction>
3.0163

> <Gold.Rescore>
     Score         DG    S(hbond)    S(metal)    S(lipo)     H(rot)  DE(clash)    DE(int)     intcor
     13.91     -16.01       1.90        0.00      77.94       1.93       0.01       2.09       ----

> <Gold.Chemscore.Fitness>
13.9084

> <Gold.Chemscore.DG>
-16.0109

> <Gold.Chemscore.ZeroCoef>
-5.4800

> <Gold.Chemscore.Hbond>
1.9016

> <Gold.Chemscore.Metal>
0.0000

> <Gold.Chemscore.Lipo>
77.9397

> <Gold.Chemscore.Internal_Hbond>
0.0000

> <Gold.Chemscore.DEClash>
0.0089

> <Gold.Chemscore.DEInternal>
2.0936

> <Gold.Chemscore.Rot>
1.9295

> <Gold.Chemscore.Internal.Correction>
   9.000000E+99

> <Gold.Chemscore.Hbonds>
donor molecule, donor type, donor heavy atom, donor atom, acceptor molecule, acceptor atom, score
      P1  H  6896  6908       L1     7  0.90
      P1  H  7997  8008       L1    15  0.69

> <Gold.Chemscore.Hbond.Weighted>
-6.3515

> <Gold.Chemscore.Metal.Weighted>
-0.0000

> <Gold.Chemscore.Lipo.Weighted>
-9.1189

> <Gold.Chemscore.Internal_Hbond.Weighted>
0.0000

> <Gold.Chemscore.DEClash.Weighted>
0.0089

> <Gold.Chemscore.DEInternal.Weighted>
2.0936

> <Gold.Chemscore.Rot.Weighted>
4.9395

> <Gold.Chemscore.Internal.Correction.Weighted>
   9.000000E+99

> <Gold.Protein.RotatedTorsions>
[ 6907 6896 6895 6894 ] final  133.80 input  -60.11 | X-H torsion
[ 7974 7965 7964 7962 ] final  105.90 input  175.53 | X-H torsion
[ 8008 7997 7996 7995 ] final  -38.93 input   59.86 | X-H torsion
[ 10167 10162 10161 10158 ] final   85.91 input  -65.29 | X-H torsion
[ 10718 10713 10712 10709 ] final  174.49 input   66.30 | X-H torsion
[ 10763 10752 10751 10750 ] final   51.93 input  -60.55 | X-H torsion
[ 11005 11000 10999 10996 ] final  -10.78 input  -57.11 | X-H torsion

> <Gold.Protein.ActiveResidues>
 VAL166  LYS551  ARG553  GLY616  TRP617  ASP618  TYR619  PRO620  LYS621  CYS622 
 ASP623  PHE694  ASN695  SER759  ASP760  ASP761  ALA762  ILE779  LEU786  VAL792 
 PHE793  MET794  SER795  GLU796  ALA797  LYS798  CYS799  TRP800  GLU811  SER814 

> <Gold.Protein.RotatedAtoms>
  152.3181  133.5824  159.5725 H   0  0  0  0  0  0  0  0  0  0  0  0  # atno 6907 bound_to 6896
  150.7357  134.0052  159.3660 H   0  0  0  0  0  0  0  0  0  0  0  0  # atno 6908 bound_to 6896
  151.7939  135.0728  160.0442 H   0  0  0  0  0  0  0  0  0  0  0  0  # atno 6909 bound_to 6896
  145.3136  139.2533  143.3750 H   0  0  0  0  0  0  0  0  0  0  0  0  # atno 7974 bound_to 7965
  154.4030  140.1565  156.2780 H   0  0  0  0  0  0  0  0  0  0  0  0  # atno 8008 bound_to 7997
  155.8894  140.3439  155.5923 H   0  0  0  0  0  0  0  0  0  0  0  0  # atno 8009 bound_to 7997
  155.7575  140.0813  157.2162 H   0  0  0  0  0  0  0  0  0  0  0  0  # atno 8010 bound_to 7997
  139.8929  144.6375  150.8719 H   0  0  0  0  0  0  0  0  0  0  0  0  # atno 10167 bound_to 10162
  156.9488  131.0024  151.2953 H   0  0  0  0  0  0  0  0  0  0  0  0  # atno 10718 bound_to 10713
  152.9787  135.5829  154.4495 H   0  0  0  0  0  0  0  0  0  0  0  0  # atno 10763 bound_to 10752
  154.4086  135.2769  155.2053 H   0  0  0  0  0  0  0  0  0  0  0  0  # atno 10764 bound_to 10752
  154.3853  135.6137  153.5867 H   0  0  0  0  0  0  0  0  0  0  0  0  # atno 10765 bound_to 10752
  140.7484  133.8613  155.9024 H   0  0  0  0  0  0  0  0  0  0  0  0  # atno 11005 bound_to 11000
  146.3109  140.3678  142.8671 LP  0  0  0  0  0  0  0  0  0  0  0  0  # atno 17320 bound_to 7965
  144.8996  140.7626  143.5875 LP  0  0  0  0  0  0  0  0  0  0  0  0  # atno 17321 bound_to 7965
  140.7723  143.3496  151.2041 LP  0  0  0  0  0  0  0  0  0  0  0  0  # atno 17342 bound_to 10162
  139.7093  143.9402  152.2940 LP  0  0  0  0  0  0  0  0  0  0  0  0  # atno 17343 bound_to 10162
  157.5736  130.8327  149.8425 LP  0  0  0  0  0  0  0  0  0  0  0  0  # atno 17370 bound_to 10713
  156.0372  130.3748  150.1530 LP  0  0  0  0  0  0  0  0  0  0  0  0  # atno 17371 bound_to 10713
  140.9773  134.1452  157.4525 LP  0  0  0  0  0  0  0  0  0  0  0  0  # atno 17394 bound_to 11000
  139.8792  134.9999  156.5979 LP  0  0  0  0  0  0  0  0  0  0  0  0  # atno 17395 bound_to 11000

$$$$
