AV-unprocessed.smi:21|AV-procd|sdf|158|dock10
  -GOLD-   2262015393D 1   1.00000     0.00000
 Structure written by MMmdl.
 61 64  0  0  0  0  0  0  0  0  1 V2000
  155.3787  139.7553  161.7056 C   0  0  0  0  0  0  0  0  0  0  0  0
  155.0564  140.9958  161.0974 O   0  0  0  0  0  0  0  0  0  0  0  0
  153.6587  141.2256  160.9906 C   0  0  2  0  0  0  0  0  0  0  0  0
  152.9710  140.2933  159.9758 C   0  0  0  0  0  0  0  0  0  0  0  0
  152.3786  141.2382  158.9180 C   0  0  1  0  0  0  0  0  0  0  0  0
  151.0938  140.6929  158.2548 C   0  0  0  0  0  0  0  0  0  0  0  0
  151.0935  140.8352  156.7987 N   0  0  0  0  0  0  0  0  0  0  0  0
  150.7419  142.1401  156.2402 C   0  0  0  0  0  0  0  0  0  0  0  0
  151.0163  139.7326  155.9956 C   0  0  0  0  0  0  0  0  0  0  0  0
  150.7875  139.9171  154.6665 N   0  0  0  0  0  0  0  0  0  0  0  0
  150.6873  138.8789  153.8337 C   0  0  0  0  0  0  0  0  0  0  0  0
  150.7867  137.5793  154.1086 N   0  0  0  0  0  0  0  0  0  0  0  0
  151.0278  137.3741  155.4339 C   0  0  0  0  0  0  0  0  0  0  0  0
  151.1568  138.3792  156.4383 C   0  0  0  0  0  0  0  0  0  0  0  0
  151.4067  137.7686  157.6639 N   0  0  0  0  0  0  0  0  0  0  0  0
  151.4176  136.4914  157.4028 C   0  0  0  0  0  0  0  0  0  0  0  0
  151.2078  136.1657  156.0844 N   0  0  0  0  0  0  0  0  0  0  0  0
  151.1791  134.8267  155.5207 C   0  0  0  0  0  0  0  0  0  0  0  0
  149.8757  134.0582  155.8482 C   0  0  1  0  0  0  0  0  0  0  0  0
  148.7256  134.5098  154.9176 C   0  0  0  0  0  0  0  0  0  0  0  0
  149.0385  134.2261  153.5698 O   0  0  0  0  0  0  0  0  0  0  0  0
  150.0820  132.5173  155.8775 C   0  0  2  0  0  0  0  0  0  0  0  0
  150.6575  131.8993  154.6054 C   0  0  0  0  0  0  0  0  0  0  0  0
  150.0196  130.5173  154.5863 C   0  0  0  0  0  0  0  0  0  0  0  0
  148.7081  130.7787  155.0545 O   0  0  0  0  0  0  0  0  0  0  0  0
  148.8099  131.6908  156.1407 C   0  0  0  0  0  0  0  0  0  0  0  0
  152.2127  142.5095  159.6032 N   0  0  0  0  0  0  0  0  0  0  0  0
  152.0529  143.6440  158.7031 C   0  0  0  0  0  0  0  0  0  0  0  0
  153.4081  142.6218  160.4156 C   0  0  0  0  0  0  0  0  0  0  0  0
  153.1740  141.1473  161.9656 H   0  0  0  0  0  0  0  0  0  0  0  0
  153.1402  141.3731  158.1482 H   0  0  0  0  0  0  0  0  0  0  0  0
  156.4618  139.6442  161.7548 H   0  0  0  0  0  0  0  0  0  0  0  0
  154.9822  138.9124  161.1392 H   0  0  0  0  0  0  0  0  0  0  0  0
  154.9906  139.7041  162.7236 H   0  0  0  0  0  0  0  0  0  0  0  0
  153.6583  139.5807  159.5186 H   0  0  0  0  0  0  0  0  0  0  0  0
  152.1880  139.7234  160.4776 H   0  0  0  0  0  0  0  0  0  0  0  0
  150.9861  139.6380  158.5091 H   0  0  0  0  0  0  0  0  0  0  0  0
  150.2017  141.1614  158.6641 H   0  0  0  0  0  0  0  0  0  0  0  0
  151.3375  142.3537  155.3518 H   0  0  0  0  0  0  0  0  0  0  0  0
  150.9273  142.9397  156.9573 H   0  0  0  0  0  0  0  0  0  0  0  0
  149.6865  142.1734  155.9676 H   0  0  0  0  0  0  0  0  0  0  0  0
  150.4998  139.1255  152.7990 H   0  0  0  0  0  0  0  0  0  0  0  0
  151.5883  135.7476  158.1675 H   0  0  0  0  0  0  0  0  0  0  0  0
  151.3046  134.9230  154.4417 H   0  0  0  0  0  0  0  0  0  0  0  0
  152.0469  134.2729  155.8805 H   0  0  0  0  0  0  0  0  0  0  0  0
  149.5871  134.3371  156.8630 H   0  0  0  0  0  0  0  0  0  0  0  0
  147.7907  134.0100  155.1711 H   0  0  0  0  0  0  0  0  0  0  0  0
  148.5438  135.5811  154.9953 H   0  0  0  0  0  0  0  0  0  0  0  0
  148.9090  135.0110  153.0593 H   0  0  0  0  0  0  0  0  0  0  0  0
  150.7632  132.2730  156.6934 H   0  0  0  0  0  0  0  0  0  0  0  0
  150.3473  132.4447  153.7153 H   0  0  0  0  0  0  0  0  0  0  0  0
  151.7465  131.8580  154.6077 H   0  0  0  0  0  0  0  0  0  0  0  0
  150.0123  130.0682  153.5930 H   0  0  0  0  0  0  0  0  0  0  0  0
  150.5292  129.8388  155.2725 H   0  0  0  0  0  0  0  0  0  0  0  0
  148.9101  131.1276  157.0697 H   0  0  0  0  0  0  0  0  0  0  0  0
  147.9042  132.2912  156.2225 H   0  0  0  0  0  0  0  0  0  0  0  0
  151.9874  144.5743  159.2682 H   0  0  0  0  0  0  0  0  0  0  0  0
  151.1401  143.5522  158.1151 H   0  0  0  0  0  0  0  0  0  0  0  0
  152.8942  143.7249  158.0135 H   0  0  0  0  0  0  0  0  0  0  0  0
  153.2983  143.3778  161.1937 H   0  0  0  0  0  0  0  0  0  0  0  0
  154.2537  142.9123  159.7893 H   0  0  0  0  0  0  0  0  0  0  0  0
  1  2  1  0  0  0  0
  1 32  1  0  0  0  0
  1 33  1  0  0  0  0
  1 34  1  0  0  0  0
  2  3  1  0  0  0  0
  3 30  1  0  0  0  0
  3 29  1  0  0  0  0
  3  4  1  0  0  0  0
  4  5  1  0  0  0  0
  4 35  1  0  0  0  0
  4 36  1  0  0  0  0
  5 31  1  0  0  0  0
  5  6  1  0  0  0  0
  5 27  1  0  0  0  0
  6  7  1  0  0  0  0
  6 37  1  0  0  0  0
  6 38  1  0  0  0  0
  7  8  1  0  0  0  0
  7  9  1  0  0  0  0
  8 39  1  0  0  0  0
  8 40  1  0  0  0  0
  8 41  1  0  0  0  0
  9 14  1  0  0  0  0
  9 10  2  0  0  0  0
 10 11  1  0  0  0  0
 11 12  2  0  0  0  0
 11 42  1  0  0  0  0
 12 13  1  0  0  0  0
 13 17  1  0  0  0  0
 13 14  2  0  0  0  0
 14 15  1  0  0  0  0
 15 16  2  0  0  0  0
 16 17  1  0  0  0  0
 16 43  1  0  0  0  0
 17 18  1  0  0  0  0
 18 19  1  0  0  0  0
 18 44  1  0  0  0  0
 18 45  1  0  0  0  0
 19 20  1  0  0  0  0
 19 22  1  0  0  0  0
 19 46  1  0  0  0  0
 20 21  1  0  0  0  0
 20 47  1  0  0  0  0
 20 48  1  0  0  0  0
 21 49  1  0  0  0  0
 22 26  1  0  0  0  0
 22 23  1  0  0  0  0
 22 50  1  0  0  0  0
 23 24  1  0  0  0  0
 23 51  1  0  0  0  0
 23 52  1  0  0  0  0
 24 25  1  0  0  0  0
 24 53  1  0  0  0  0
 24 54  1  0  0  0  0
 25 26  1  0  0  0  0
 26 55  1  0  0  0  0
 26 56  1  0  0  0  0
 27 28  1  0  0  0  0
 27 29  1  0  0  0  0
 28 57  1  0  0  0  0
 28 58  1  0  0  0  0
 28 59  1  0  0  0  0
 29 60  1  0  0  0  0
 29 61  1  0  0  0  0
M  END
> <s_m_source_file>
AV-unprocessed.smi

> <i_m_source_file_index>
21

> <i_lp_mmshare_version>
43012

> <i_f3d_flags>
0

> <s_epik_input>
W0NIM11PW0NASF0xW0NIMl1bQ0BIXShOKFtDSDNdKVtDSDJdMSlbQ0gyXU4oW0NIM10pYyhuW2NIXW4yKWMoYzIzKW5bY0hdbjNbQ0gyXVtDQEhdKFtDSDJdW09IXSlbQ0BASF00W0NIMl1bQ0gyXU9bQ0gyXTQ=

> <s_epik_cmdline>
J2VwaWtfcHl0aG9uJywgJy1waCcsICc3LjAnLCAnLXRuJywgJzgnLCAnLW1hJywgJzIwMCcsICctbWV0YWxfYmluZGluZycsICctaW1hZScsICc8aW5maWxlLm1hZT4nLCAnLW9tYWUnLCAnPG91dGZpbGUubWFlPic=

> <r_lp_tautomer_probability>
1

> <r_epik_Ionization_Penalty>
2.17574

> <r_epik_Ionization_Penalty_Charging>
0

> <r_epik_Ionization_Penalty_Neutral>
2.17574

> <r_epik_State_Penalty>
2.31336

> <r_epik_Charging_Adjusted_Penalty>
2.31336

> <i_epik_Tot_Q>
0

> <i_epik_Tot_abs_Q>
0

> <r_epik_Metal_State_Penalty>
2.31025

> <b_epik_Metal_Only>
0

> <s_lp_Force_Field>
OPLS_2005

> <r_lp_Energy>
69.5253

> <b_lp_Chiralities_Consistent>
1

> <s_lp_Variant>
AV-unprocessed.smi:21-38

> <Gold.Version>
5.8.1

> <Gold.Id.Protein>
6NUR|6NUR_protein|mol2

> <Gold.PLP.Fitness>
48.0488

> <Gold.PLP.PLP>
-41.7517

> <Gold.PLP.part.hbond>
-3.0000

> <Gold.PLP.part.metal>
0.0000

> <Gold.PLP.part.buried>
-4.8013

> <Gold.PLP.part.nonpolar>
-33.4019

> <Gold.PLP.part.repulsive>
0.3199

> <Gold.PLP.ligand.clash>
0.0000

> <Gold.PLP.ligand.torsion>
1.3691

> <Gold.PLP.Chemscore.Hbond>
1.8500

> <Gold.PLP.Chemscore.CHOScore>
1.0000

> <Gold.PLP.Chemscore.Metal>
0.0000

> <Gold.Chemscore.Hbonds>
donor molecule, donor type, donor heavy atom, donor atom, acceptor molecule, acceptor atom, score
      L1  H    21    49       P1  7948  0.95
      P1  H  7989  7998       L1    10  0.60
      L1  C    11    42       P1  7957  1.00

> <Gold.PLP.Chemscore.Internal.Correction>
0.4853

> <Gold.Rescore>
     Score         DG    S(hbond)    S(metal)    S(lipo)     H(rot)  DE(clash)    DE(int)     intcor
      9.58     -12.33       0.81        0.00     101.10       3.00       0.17       2.58       ----

> <Gold.Chemscore.Fitness>
9.5779

> <Gold.Chemscore.DG>
-12.3291

> <Gold.Chemscore.ZeroCoef>
-5.4800

> <Gold.Chemscore.Hbond>
0.8109

> <Gold.Chemscore.Metal>
0.0000

> <Gold.Chemscore.Lipo>
101.1012

> <Gold.Chemscore.Internal_Hbond>
0.0000

> <Gold.Chemscore.DEClash>
0.1671

> <Gold.Chemscore.DEInternal>
2.5841

> <Gold.Chemscore.Rot>
3.0031

> <Gold.Chemscore.Internal.Correction>
   9.000000E+99

> <Gold.Chemscore.Hbonds>
donor molecule, donor type, donor heavy atom, donor atom, acceptor molecule, acceptor atom, score
      L1  H    21    49       P1  7948  0.21
      P1  H  7989  7998       L1    10  0.04

> <Gold.Chemscore.Hbond.Weighted>
-2.7083

> <Gold.Chemscore.Metal.Weighted>
-0.0000

> <Gold.Chemscore.Lipo.Weighted>
-11.8288

> <Gold.Chemscore.Internal_Hbond.Weighted>
0.0000

> <Gold.Chemscore.DEClash.Weighted>
0.1671

> <Gold.Chemscore.DEInternal.Weighted>
2.5841

> <Gold.Chemscore.Rot.Weighted>
7.6880

> <Gold.Chemscore.Internal.Correction.Weighted>
   9.000000E+99

> <Gold.Protein.RotatedTorsions>
[ 6907 6896 6895 6894 ] final   99.02 input  -60.11 | X-H torsion
[ 7974 7965 7964 7962 ] final  152.98 input  175.53 | X-H torsion
[ 8008 7997 7996 7995 ] final -153.82 input   59.86 | X-H torsion
[ 10167 10162 10161 10158 ] final -102.65 input  -65.29 | X-H torsion
[ 10718 10713 10712 10709 ] final -108.69 input   66.30 | X-H torsion
[ 10763 10752 10751 10750 ] final  162.86 input  -60.55 | X-H torsion
[ 11005 11000 10999 10996 ] final   93.62 input  -57.11 | X-H torsion

> <Gold.Protein.ActiveResidues>
 VAL166  LYS551  ARG553  GLY616  TRP617  ASP618  TYR619  PRO620  LYS621  CYS622 
 ASP623  PHE694  ASN695  SER759  ASP760  ASP761  ALA762  ILE779  LEU786  VAL792 
 PHE793  MET794  SER795  GLU796  ALA797  LYS798  CYS799  TRP800  GLU811  SER814 

> <Gold.Protein.RotatedAtoms>
  152.5399  134.0492  159.8101 H   0  0  0  0  0  0  0  0  0  0  0  0  # atno 6907 bound_to 6896
  151.0636  133.5516  159.2639 H   0  0  0  0  0  0  0  0  0  0  0  0  # atno 6908 bound_to 6896
  151.2405  135.0595  159.9077 H   0  0  0  0  0  0  0  0  0  0  0  0  # atno 6909 bound_to 6896
  144.8185  139.6740  143.6111 H   0  0  0  0  0  0  0  0  0  0  0  0  # atno 7974 bound_to 7965
  155.6768  140.0739  157.2499 H   0  0  0  0  0  0  0  0  0  0  0  0  # atno 8008 bound_to 7997
  154.4113  140.1689  156.1990 H   0  0  0  0  0  0  0  0  0  0  0  0  # atno 8009 bound_to 7997
  155.9569  140.3373  155.6459 H   0  0  0  0  0  0  0  0  0  0  0  0  # atno 8010 bound_to 7997
  140.2284  143.3625  152.0909 H   0  0  0  0  0  0  0  0  0  0  0  0  # atno 10167 bound_to 10162
  156.0498  130.5725  150.7996 H   0  0  0  0  0  0  0  0  0  0  0  0  # atno 10718 bound_to 10713
  154.2848  135.2762  155.2681 H   0  0  0  0  0  0  0  0  0  0  0  0  # atno 10763 bound_to 10752
  154.5186  135.5762  153.6665 H   0  0  0  0  0  0  0  0  0  0  0  0  # atno 10764 bound_to 10752
  152.9923  135.6199  154.3010 H   0  0  0  0  0  0  0  0  0  0  0  0  # atno 10765 bound_to 10752
  139.8808  134.8800  156.3745 H   0  0  0  0  0  0  0  0  0  0  0  0  # atno 11005 bound_to 11000
  146.2490  139.6158  142.9440 LP  0  0  0  0  0  0  0  0  0  0  0  0  # atno 17320 bound_to 7965
  145.5158  141.0434  143.2462 LP  0  0  0  0  0  0  0  0  0  0  0  0  # atno 17321 bound_to 7965
  139.5119  144.6908  151.5765 LP  0  0  0  0  0  0  0  0  0  0  0  0  # atno 17342 bound_to 10162
  140.6204  143.9270  150.6521 LP  0  0  0  0  0  0  0  0  0  0  0  0  # atno 17343 bound_to 10162
  157.5413  131.0941  150.9824 LP  0  0  0  0  0  0  0  0  0  0  0  0  # atno 17370 bound_to 10713
  157.0106  130.5635  149.5320 LP  0  0  0  0  0  0  0  0  0  0  0  0  # atno 17371 bound_to 10713
  140.9441  133.7494  156.0185 LP  0  0  0  0  0  0  0  0  0  0  0  0  # atno 17394 bound_to 11000
  140.8184  134.3318  157.5390 LP  0  0  0  0  0  0  0  0  0  0  0  0  # atno 17395 bound_to 11000

$$$$
