AV-unprocessed.smi:103|AV-procd|sdf|984|dock9
  -GOLD-   2262017553D 1   1.00000     0.00000
 Structure written by MMmdl.
 53 55  0  0  0  0  0  0  0  0  1 V2000
  153.4171  141.2629  160.1939 C   0  0  0  0  0  0  0  0  0  0  0  0
  152.0067  141.3021  159.6212 C   0  0  0  0  0  0  0  0  0  0  0  0
  151.2948  142.3009  159.7282 O   0  0  0  0  0  0  0  0  0  0  0  0
  151.6711  140.1552  159.0121 O   0  0  0  0  0  0  0  0  0  0  0  0
  150.4188  140.0477  158.3534 C   0  0  0  0  0  0  0  0  0  0  0  0
  150.3378  138.7080  157.5956 C   0  0  1  0  0  0  0  0  0  0  0  0
  150.0861  137.6765  158.5385 O   0  0  0  0  0  0  0  0  0  0  0  0
  148.7126  137.5766  158.7514 C   0  0  2  0  0  0  0  0  0  0  0  0
  148.3818  136.1390  159.0225 N   0  0  0  0  0  0  0  0  0  0  0  0
  147.7450  135.5725  160.1084 C   0  0  0  0  0  0  0  0  0  0  0  0
  147.1759  136.4251  161.5743 S   0  0  0  0  0  0  0  0  0  0  0  0
  146.3658  135.0650  162.5080 C   0  0  0  0  0  0  0  0  0  0  0  0
  148.3669  136.8741  162.3113 O   0  0  0  0  0  0  0  0  0  0  0  0
  146.1578  137.3936  161.1382 O   0  0  0  0  0  0  0  0  0  0  0  0
  147.6386  134.2713  160.1111 N   0  0  0  0  0  0  0  0  0  0  0  0
  148.1762  133.9096  158.8839 C   0  0  0  0  0  0  0  0  0  0  0  0
  148.3556  132.6739  158.2127 C   0  0  0  0  0  0  0  0  0  0  0  0
  147.9862  131.4966  158.7358 N   0  0  0  0  0  0  0  0  0  0  0  0
  148.9252  132.6816  156.9851 N   0  0  0  0  0  0  0  0  0  0  0  0
  149.3026  133.8429  156.4410 C   0  0  0  0  0  0  0  0  0  0  0  0
  149.2056  135.0744  156.9490 N   0  0  0  0  0  0  0  0  0  0  0  0
  148.6325  135.0662  158.1887 C   0  0  0  0  0  0  0  0  0  0  0  0
  148.0025  138.1346  157.4980 C   0  0  2  0  0  0  0  0  0  0  0  0
  147.2272  137.1523  156.8160 O   0  0  0  0  0  0  0  0  0  0  0  0
  146.6667  137.4242  155.6264 C   0  0  0  0  0  0  0  0  0  0  0  0
  145.8977  136.2353  155.0683 C   0  0  0  0  0  0  0  0  0  0  0  0
  146.7288  138.4927  155.0193 O   0  0  0  0  0  0  0  0  0  0  0  0
  149.1640  138.5773  156.6160 C   0  0  1  0  0  0  0  0  0  0  0  0
  148.8793  139.8045  155.9548 O   0  0  0  0  0  0  0  0  0  0  0  0
  149.7318  140.3060  155.0463 C   0  0  0  0  0  0  0  0  0  0  0  0
  149.2139  141.5930  154.4188 C   0  0  0  0  0  0  0  0  0  0  0  0
  150.8149  139.8209  154.7197 O   0  0  0  0  0  0  0  0  0  0  0  0
  154.1406  141.0736  159.4009 H   0  0  0  0  0  0  0  0  0  0  0  0
  153.5022  140.4712  160.9383 H   0  0  0  0  0  0  0  0  0  0  0  0
  153.6653  142.2123  160.6684 H   0  0  0  0  0  0  0  0  0  0  0  0
  149.6323  140.0935  159.1078 H   0  0  0  0  0  0  0  0  0  0  0  0
  150.2616  140.8837  157.6701 H   0  0  0  0  0  0  0  0  0  0  0  0
  151.2885  138.5113  157.0991 H   0  0  0  0  0  0  0  0  0  0  0  0
  148.4598  138.1159  159.6624 H   0  0  0  0  0  0  0  0  0  0  0  0
  145.9584  135.4568  163.4394 H   0  0  0  0  0  0  0  0  0  0  0  0
  147.0966  134.2874  162.7284 H   0  0  0  0  0  0  0  0  0  0  0  0
  145.5590  134.6450  161.9076 H   0  0  0  0  0  0  0  0  0  0  0  0
  147.5579  131.4638  159.6499 H   0  0  0  0  0  0  0  0  0  0  0  0
  148.1374  130.6445  158.2156 H   0  0  0  0  0  0  0  0  0  0  0  0
  149.7488  133.7758  155.4596 H   0  0  0  0  0  0  0  0  0  0  0  0
  147.4143  139.0008  157.8056 H   0  0  0  0  0  0  0  0  0  0  0  0
  145.0766  135.9712  155.7349 H   0  0  0  0  0  0  0  0  0  0  0  0
  146.5558  135.3722  154.9693 H   0  0  0  0  0  0  0  0  0  0  0  0
  145.4853  136.4708  154.0871 H   0  0  0  0  0  0  0  0  0  0  0  0
  149.4091  137.7894  155.9013 H   0  0  0  0  0  0  0  0  0  0  0  0
  149.0685  142.3551  155.1845 H   0  0  0  0  0  0  0  0  0  0  0  0
  148.2604  141.4152  153.9215 H   0  0  0  0  0  0  0  0  0  0  0  0
  149.9221  141.9727  153.6823 H   0  0  0  0  0  0  0  0  0  0  0  0
  1  2  1  0  0  0  0
  1 33  1  0  0  0  0
  1 34  1  0  0  0  0
  1 35  1  0  0  0  0
  2  3  2  0  0  0  0
  2  4  1  0  0  0  0
  4  5  1  0  0  0  0
  5  6  1  0  0  0  0
  5 36  1  0  0  0  0
  5 37  1  0  0  0  0
  6 28  1  0  0  0  0
  6  7  1  0  0  0  0
  6 38  1  0  0  0  0
  7  8  1  0  0  0  0
  8  9  1  0  0  0  0
  8 23  1  0  0  0  0
  8 39  1  0  0  0  0
  9 22  1  0  0  0  0
  9 10  1  0  0  0  0
 10 11  1  0  0  0  0
 10 15  2  0  0  0  0
 11 12  1  0  0  0  0
 11 13  2  0  0  0  0
 11 14  2  0  0  0  0
 12 40  1  0  0  0  0
 12 41  1  0  0  0  0
 12 42  1  0  0  0  0
 15 16  1  0  0  0  0
 16 22  2  0  0  0  0
 16 17  1  0  0  0  0
 17 18  1  0  0  0  0
 17 19  2  0  0  0  0
 18 43  1  0  0  0  0
 18 44  1  0  0  0  0
 19 20  1  0  0  0  0
 20 21  2  0  0  0  0
 20 45  1  0  0  0  0
 21 22  1  0  0  0  0
 23 24  1  0  0  0  0
 23 28  1  0  0  0  0
 23 46  1  0  0  0  0
 24 25  1  0  0  0  0
 25 26  1  0  0  0  0
 25 27  2  0  0  0  0
 26 47  1  0  0  0  0
 26 48  1  0  0  0  0
 26 49  1  0  0  0  0
 28 29  1  0  0  0  0
 28 50  1  0  0  0  0
 29 30  1  0  0  0  0
 30 31  1  0  0  0  0
 30 32  2  0  0  0  0
 31 51  1  0  0  0  0
 31 52  1  0  0  0  0
 31 53  1  0  0  0  0
M  END
> <s_m_source_file>
AV-unprocessed.smi

> <i_m_source_file_index>
103

> <i_lp_mmshare_version>
43012

> <i_f3d_flags>
0

> <s_epik_input>
W0NIM11DKD1PKU9bQ0gyXVtDQEBIXTFPW0NASF0oW0NAQEhdKE9DKD1PKVtDSDNdKVtDQEhdMU9DKD1PKVtDSDNdKW4oYyhuMilTKD1PKSg9TylbQ0gzXSljKGMyMyluW2NIXW5jM1tOSDJd

> <s_epik_cmdline>
J2VwaWtfcHl0aG9uJywgJy1waCcsICc3LjAnLCAnLXRuJywgJzgnLCAnLW1hJywgJzIwMCcsICctbWV0YWxfYmluZGluZycsICctaW1hZScsICc8aW5maWxlLm1hZT4nLCAnLW9tYWUnLCAnPG91dGZpbGUubWFlPic=

> <r_lp_tautomer_probability>
1

> <r_epik_Ionization_Penalty>
1.51338e-05

> <r_epik_Ionization_Penalty_Charging>
0

> <r_epik_Ionization_Penalty_Neutral>
1.51338e-05

> <r_epik_State_Penalty>
-0

> <r_epik_Charging_Adjusted_Penalty>
0

> <i_epik_Tot_Q>
0

> <i_epik_Tot_abs_Q>
0

> <r_epik_Metal_State_Penalty>
-0

> <b_epik_Metal_Only>
0

> <s_epik_Chemistry_Notes>
This compound has an ester and may undergo hydrolysis at high or low pH. This compound contains an acetal/aminal-like group ( X-CH(R)-Y where X, Y are N, S, or O) that may be acid/base labile, releasing an aldehyde.

> <s_lp_Force_Field>
OPLS_2005

> <r_lp_Energy>
18.7929

> <b_lp_Chiralities_Consistent>
1

> <s_lp_Variant>
AV-unprocessed.smi:103-8

> <Gold.Version>
5.8.1

> <Gold.Id.Protein>
6NUR|6NUR_protein|mol2

> <Gold.PLP.Fitness>
41.6609

> <Gold.PLP.PLP>
-33.3077

> <Gold.PLP.part.hbond>
-3.8151

> <Gold.PLP.part.metal>
0.0000

> <Gold.PLP.part.buried>
-5.0557

> <Gold.PLP.part.nonpolar>
-24.9668

> <Gold.PLP.part.repulsive>
0.1558

> <Gold.PLP.ligand.clash>
0.0000

> <Gold.PLP.ligand.torsion>
1.4275

> <Gold.PLP.Chemscore.Hbond>
2.9913

> <Gold.PLP.Chemscore.CHOScore>
0.0000

> <Gold.PLP.Chemscore.Metal>
0.0000

> <Gold.Chemscore.Hbonds>
donor molecule, donor type, donor heavy atom, donor atom, acceptor molecule, acceptor atom, score
      P1  H  6931  6943       L1    13  1.00
      P1  H  6934  6947       L1    14  1.00
      P1  H  7989  7998       L1    32  1.00

> <Gold.PLP.Chemscore.Internal.Correction>
2.2346

> <Gold.Rescore>
     Score         DG    S(hbond)    S(metal)    S(lipo)     H(rot)  DE(clash)    DE(int)     intcor
      1.81      -7.91       2.66        0.00      37.60       4.25       0.07       6.03       ----

> <Gold.Chemscore.Fitness>
1.8062

> <Gold.Chemscore.DG>
-7.9056

> <Gold.Chemscore.ZeroCoef>
-5.4800

> <Gold.Chemscore.Hbond>
2.6632

> <Gold.Chemscore.Metal>
0.0000

> <Gold.Chemscore.Lipo>
37.6006

> <Gold.Chemscore.Internal_Hbond>
0.0000

> <Gold.Chemscore.DEClash>
0.0671

> <Gold.Chemscore.DEInternal>
6.0323

> <Gold.Chemscore.Rot>
4.2456

> <Gold.Chemscore.Internal.Correction>
   9.000000E+99

> <Gold.Chemscore.Hbonds>
donor molecule, donor type, donor heavy atom, donor atom, acceptor molecule, acceptor atom, score
      P1  H  6931  6943       L1    13  0.94
      P1  H  6934  6947       L1    14  0.44
      P1  H  7989  7998       L1    32  0.78

> <Gold.Chemscore.Hbond.Weighted>
-8.8950

> <Gold.Chemscore.Metal.Weighted>
-0.0000

> <Gold.Chemscore.Lipo.Weighted>
-4.3993

> <Gold.Chemscore.Internal_Hbond.Weighted>
0.0000

> <Gold.Chemscore.DEClash.Weighted>
0.0671

> <Gold.Chemscore.DEInternal.Weighted>
6.0323

> <Gold.Chemscore.Rot.Weighted>
10.8687

> <Gold.Chemscore.Internal.Correction.Weighted>
   9.000000E+99

> <Gold.Protein.RotatedTorsions>
[ 6907 6896 6895 6894 ] final   53.77 input  -60.11 | X-H torsion
[ 7974 7965 7964 7962 ] final -108.94 input  175.53 | X-H torsion
[ 8008 7997 7996 7995 ] final   -0.49 input   59.86 | X-H torsion
[ 10167 10162 10161 10158 ] final -177.69 input  -65.29 | X-H torsion
[ 10718 10713 10712 10709 ] final -122.60 input   66.30 | X-H torsion
[ 10763 10752 10751 10750 ] final   74.95 input  -60.55 | X-H torsion
[ 11005 11000 10999 10996 ] final    9.74 input  -57.11 | X-H torsion

> <Gold.Protein.ActiveResidues>
 VAL166  LYS551  ARG553  GLY616  TRP617  ASP618  TYR619  PRO620  LYS621  CYS622 
 ASP623  PHE694  ASN695  SER759  ASP760  ASP761  ALA762  ILE779  LEU786  VAL792 
 PHE793  MET794  SER795  GLU796  ALA797  LYS798  CYS799  TRP800  GLU811  SER814 

> <Gold.Protein.RotatedAtoms>
  152.3370  134.7184  160.0273 H   0  0  0  0  0  0  0  0  0  0  0  0  # atno 6907 bound_to 6896
  151.7582  133.3326  159.3418 H   0  0  0  0  0  0  0  0  0  0  0  0  # atno 6908 bound_to 6896
  150.7457  134.6062  159.6107 H   0  0  0  0  0  0  0  0  0  0  0  0  # atno 6909 bound_to 6896
  145.1867  140.8996  143.3448 H   0  0  0  0  0  0  0  0  0  0  0  0  # atno 7974 bound_to 7965
  154.6575  140.2583  155.7145 H   0  0  0  0  0  0  0  0  0  0  0  0  # atno 8008 bound_to 7997
  156.2603  140.2855  156.0955 H   0  0  0  0  0  0  0  0  0  0  0  0  # atno 8009 bound_to 7997
  155.1358  140.0379  157.2776 H   0  0  0  0  0  0  0  0  0  0  0  0  # atno 8010 bound_to 7997
  139.5468  144.2214  152.1003 H   0  0  0  0  0  0  0  0  0  0  0  0  # atno 10167 bound_to 10162
  156.1432  130.6481  150.9802 H   0  0  0  0  0  0  0  0  0  0  0  0  # atno 10718 bound_to 10713
  153.0621  135.5007  154.8118 H   0  0  0  0  0  0  0  0  0  0  0  0  # atno 10763 bound_to 10752
  154.6899  135.2982  154.9497 H   0  0  0  0  0  0  0  0  0  0  0  0  # atno 10764 bound_to 10752
  154.0255  135.6736  153.4829 H   0  0  0  0  0  0  0  0  0  0  0  0  # atno 10765 bound_to 10752
  140.5224  134.0546  155.7848 H   0  0  0  0  0  0  0  0  0  0  0  0  # atno 11005 bound_to 11000
  145.0082  139.3534  143.6133 LP  0  0  0  0  0  0  0  0  0  0  0  0  # atno 17320 bound_to 7965
  146.3443  139.9334  142.8750 LP  0  0  0  0  0  0  0  0  0  0  0  0  # atno 17321 bound_to 7965
  140.1702  144.4943  150.6584 LP  0  0  0  0  0  0  0  0  0  0  0  0  # atno 17342 bound_to 10162
  140.6719  143.2289  151.5604 LP  0  0  0  0  0  0  0  0  0  0  0  0  # atno 17343 bound_to 10162
  157.6594  131.0883  150.7874 LP  0  0  0  0  0  0  0  0  0  0  0  0  # atno 17370 bound_to 10713
  156.7947  130.4901  149.5379 LP  0  0  0  0  0  0  0  0  0  0  0  0  # atno 17371 bound_to 10713
  141.1327  133.9275  157.2501 LP  0  0  0  0  0  0  0  0  0  0  0  0  # atno 17394 bound_to 11000
  139.9599  135.0157  156.9231 LP  0  0  0  0  0  0  0  0  0  0  0  0  # atno 17395 bound_to 11000

$$$$
