AV-unprocessed.smi:3250|AV-procd|sdf|12430|dock3
  -GOLD-   2272018313D 1   1.00000     0.00000
 Structure written by MMmdl.
 38 39  0  0  0  0  0  0  0  0  1 V2000
  152.4438  143.8609  161.8531 C   0  0  0  0  0  0  0  0  0  0  0  0
  151.9503  143.5828  160.4261 C   0  0  0  0  0  0  0  0  0  0  0  0
  152.1365  142.2076  159.9666 N   0  0  0  0  0  0  0  0  0  0  0  0
  153.5169  141.7510  160.1090 C   0  0  0  0  0  0  0  0  0  0  0  0
  153.7019  140.3164  159.5867 C   0  0  0  0  0  0  0  0  0  0  0  0
  153.2730  140.2449  158.2314 O   0  0  0  0  0  0  0  0  0  0  0  0
  151.9086  140.6213  158.0591 C   0  0  2  0  0  0  0  0  0  0  0  0
  151.5567  140.5024  156.5705 C   0  0  0  0  0  0  0  0  0  0  0  0
  150.2906  139.8137  156.3713 N   0  0  0  0  0  0  0  0  0  0  0  0
  149.1744  140.3963  155.8018 C   0  0  0  0  0  0  0  0  0  0  0  0
  149.1549  140.4203  154.4673 N   0  0  0  0  0  0  0  0  0  0  0  0
  148.0791  140.9875  153.8798 C   0  0  0  0  0  0  0  0  0  0  0  0
  147.0204  141.5308  154.6344 C   0  0  0  0  0  0  0  0  0  0  0  0
  147.1416  141.4493  156.0364 C   0  0  0  0  0  0  0  0  0  0  0  0
  146.1386  141.9583  156.8349 O   0  0  0  0  0  0  0  0  0  0  0  0
  144.9297  142.3743  156.2091 C   0  0  0  0  0  0  0  0  0  0  0  0
  148.2274  140.8780  156.6152 N   0  0  0  0  0  0  0  0  0  0  0  0
  151.7322  142.0642  158.5718 C   0  0  0  0  0  0  0  0  0  0  0  0
  152.1805  144.8739  162.1577 H   0  0  0  0  0  0  0  0  0  0  0  0
  153.5266  143.7708  161.9350 H   0  0  0  0  0  0  0  0  0  0  0  0
  151.9907  143.1727  162.5671 H   0  0  0  0  0  0  0  0  0  0  0  0
  150.8865  143.8218  160.3970 H   0  0  0  0  0  0  0  0  0  0  0  0
  152.4313  144.2742  159.7329 H   0  0  0  0  0  0  0  0  0  0  0  0
  154.1865  142.4209  159.5675 H   0  0  0  0  0  0  0  0  0  0  0  0
  153.8205  141.7823  161.1547 H   0  0  0  0  0  0  0  0  0  0  0  0
  154.7503  140.0234  159.6455 H   0  0  0  0  0  0  0  0  0  0  0  0
  153.1357  139.6076  160.1931 H   0  0  0  0  0  0  0  0  0  0  0  0
  151.2693  139.9517  158.6381 H   0  0  0  0  0  0  0  0  0  0  0  0
  151.4786  141.4980  156.1324 H   0  0  0  0  0  0  0  0  0  0  0  0
  152.3479  139.9761  156.0352 H   0  0  0  0  0  0  0  0  0  0  0  0
  150.2469  138.8249  156.5716 H   0  0  0  0  0  0  0  0  0  0  0  0
  148.0623  141.0080  152.8004 H   0  0  0  0  0  0  0  0  0  0  0  0
  146.1613  141.9845  154.1628 H   0  0  0  0  0  0  0  0  0  0  0  0
  144.2441  142.7558  156.9654 H   0  0  0  0  0  0  0  0  0  0  0  0
  144.4358  141.5436  155.7029 H   0  0  0  0  0  0  0  0  0  0  0  0
  145.1082  143.1754  155.4902 H   0  0  0  0  0  0  0  0  0  0  0  0
  150.6879  142.3586  158.4606 H   0  0  0  0  0  0  0  0  0  0  0  0
  152.3149  142.7441  157.9479 H   0  0  0  0  0  0  0  0  0  0  0  0
  1  2  1  0  0  0  0
  1 19  1  0  0  0  0
  1 20  1  0  0  0  0
  1 21  1  0  0  0  0
  2  3  1  0  0  0  0
  2 22  1  0  0  0  0
  2 23  1  0  0  0  0
  3 18  1  0  0  0  0
  3  4  1  0  0  0  0
  4  5  1  0  0  0  0
  4 24  1  0  0  0  0
  4 25  1  0  0  0  0
  5  6  1  0  0  0  0
  5 26  1  0  0  0  0
  5 27  1  0  0  0  0
  6  7  1  0  0  0  0
  7  8  1  0  0  0  0
  7 18  1  0  0  0  0
  7 28  1  0  0  0  0
  8  9  1  0  0  0  0
  8 29  1  0  0  0  0
  8 30  1  0  0  0  0
  9 10  1  0  0  0  0
  9 31  1  0  0  0  0
 10 17  1  0  0  0  0
 10 11  2  0  0  0  0
 11 12  1  0  0  0  0
 12 13  2  0  0  0  0
 12 32  1  0  0  0  0
 13 14  1  0  0  0  0
 13 33  1  0  0  0  0
 14 15  1  0  0  0  0
 14 17  2  0  0  0  0
 15 16  1  0  0  0  0
 16 34  1  0  0  0  0
 16 35  1  0  0  0  0
 16 36  1  0  0  0  0
 18 37  1  0  0  0  0
 18 38  1  0  0  0  0
M  END
> <s_m_source_file>
AV-unprocessed.smi

> <i_m_source_file_index>
3250

> <i_lp_mmshare_version>
43012

> <i_f3d_flags>
0

> <s_epik_input>
W0NIM11bQ0gyXU4xW0NIMl1bQ0gyXU9bQ0BIXShbQ0gyXTEpW0NIMl1bTkhdYzJuW2NIXVtjSF1jKG4yKU9bQ0gzXQ==

> <s_epik_cmdline>
J2VwaWtfcHl0aG9uJywgJy1waCcsICc3LjAnLCAnLXRuJywgJzgnLCAnLW1hJywgJzIwMCcsICctbWV0YWxfYmluZGluZycsICctaW1hZScsICc8aW5maWxlLm1hZT4nLCAnLW9tYWUnLCAnPG91dGZpbGUubWFlPic=

> <r_lp_tautomer_probability>
1

> <r_epik_Ionization_Penalty>
0.832605

> <r_epik_Ionization_Penalty_Charging>
0

> <r_epik_Ionization_Penalty_Neutral>
0.832605

> <r_epik_State_Penalty>
0.927194

> <r_epik_Charging_Adjusted_Penalty>
0.927194

> <i_epik_Tot_Q>
0

> <i_epik_Tot_abs_Q>
0

> <r_epik_Metal_State_Penalty>
0.908632

> <b_epik_Metal_Only>
0

> <s_lp_Force_Field>
OPLS_2005

> <r_lp_Energy>
15.3414

> <b_lp_Chiralities_Consistent>
1

> <s_lp_Variant>
AV-unprocessed.smi:3250-6

> <Gold.Version>
5.8.1

> <Gold.Id.Protein>
6NUR|6NUR_protein|mol2

> <Gold.PLP.Fitness>
34.8741

> <Gold.PLP.PLP>
-31.9037

> <Gold.PLP.part.hbond>
-1.0000

> <Gold.PLP.part.metal>
0.0000

> <Gold.PLP.part.buried>
-4.2252

> <Gold.PLP.part.nonpolar>
-25.4596

> <Gold.PLP.part.repulsive>
0.3910

> <Gold.PLP.ligand.clash>
0.0060

> <Gold.PLP.ligand.torsion>
1.4972

> <Gold.PLP.Chemscore.Hbond>
1.0000

> <Gold.PLP.Chemscore.CHOScore>
0.9707

> <Gold.PLP.Chemscore.Metal>
0.0000

> <Gold.Chemscore.Hbonds>
donor molecule, donor type, donor heavy atom, donor atom, acceptor molecule, acceptor atom, score
      P1  H  7997  8009       L1     6  0.93
      L1  C    12    32       P1  7957  1.00

> <Gold.PLP.Chemscore.Internal.Correction>
0.0588

> <Gold.Rescore>
     Score         DG    S(hbond)    S(metal)    S(lipo)     H(rot)  DE(clash)    DE(int)     intcor
     12.72     -14.33       1.08        0.00      81.40       1.67       0.15       1.46       ----

> <Gold.Chemscore.Fitness>
12.7189

> <Gold.Chemscore.DG>
-14.3329

> <Gold.Chemscore.ZeroCoef>
-5.4800

> <Gold.Chemscore.Hbond>
1.0758

> <Gold.Chemscore.Metal>
0.0000

> <Gold.Chemscore.Lipo>
81.4028

> <Gold.Chemscore.Internal_Hbond>
0.0000

> <Gold.Chemscore.DEClash>
0.1503

> <Gold.Chemscore.DEInternal>
1.4637

> <Gold.Chemscore.Rot>
1.6657

> <Gold.Chemscore.Internal.Correction>
   9.000000E+99

> <Gold.Chemscore.Hbonds>
donor molecule, donor type, donor heavy atom, donor atom, acceptor molecule, acceptor atom, score
      P1  H  7997  8009       L1     6  0.82

> <Gold.Chemscore.Hbond.Weighted>
-3.5931

> <Gold.Chemscore.Metal.Weighted>
-0.0000

> <Gold.Chemscore.Lipo.Weighted>
-9.5241

> <Gold.Chemscore.Internal_Hbond.Weighted>
0.0000

> <Gold.Chemscore.DEClash.Weighted>
0.1503

> <Gold.Chemscore.DEInternal.Weighted>
1.4637

> <Gold.Chemscore.Rot.Weighted>
4.2642

> <Gold.Chemscore.Internal.Correction.Weighted>
   9.000000E+99

> <Gold.Protein.RotatedTorsions>
[ 6907 6896 6895 6894 ] final -153.62 input  -60.11 | X-H torsion
[ 7974 7965 7964 7962 ] final  -12.54 input  175.53 | X-H torsion
[ 8008 7997 7996 7995 ] final  155.06 input   59.86 | X-H torsion
[ 10167 10162 10161 10158 ] final  -12.94 input  -65.29 | X-H torsion
[ 10718 10713 10712 10709 ] final -104.13 input   66.30 | X-H torsion
[ 10763 10752 10751 10750 ] final  114.68 input  -60.55 | X-H torsion
[ 11005 11000 10999 10996 ] final -123.79 input  -57.11 | X-H torsion

> <Gold.Protein.ActiveResidues>
 VAL166  LYS551  ARG553  GLY616  TRP617  ASP618  TYR619  PRO620  LYS621  CYS622 
 ASP623  PHE694  ASN695  SER759  ASP760  ASP761  ALA762  ILE779  LEU786  VAL792 
 PHE793  MET794  SER795  GLU796  ALA797  LYS798  CYS799  TRP800  GLU811  SER814 

> <Gold.Protein.RotatedAtoms>
  151.2453  133.4378  159.2608 H   0  0  0  0  0  0  0  0  0  0  0  0  # atno 6907 bound_to 6896
  151.0668  134.9772  159.8298 H   0  0  0  0  0  0  0  0  0  0  0  0  # atno 6908 bound_to 6896
  152.5406  134.2400  159.8911 H   0  0  0  0  0  0  0  0  0  0  0  0  # atno 6909 bound_to 6896
  146.2148  140.3073  142.8380 H   0  0  0  0  0  0  0  0  0  0  0  0  # atno 7974 bound_to 7965
  156.2498  140.1950  156.6742 H   0  0  0  0  0  0  0  0  0  0  0  0  # atno 8008 bound_to 7997
  154.6370  140.0588  156.9826 H   0  0  0  0  0  0  0  0  0  0  0  0  # atno 8009 bound_to 7997
  155.1622  140.3261  155.4412 H   0  0  0  0  0  0  0  0  0  0  0  0  # atno 8010 bound_to 7997
  140.7172  143.5479  150.9334 H   0  0  0  0  0  0  0  0  0  0  0  0  # atno 10167 bound_to 10162
  156.0292  130.5500  150.7352 H   0  0  0  0  0  0  0  0  0  0  0  0  # atno 10718 bound_to 10713
  153.5109  135.3618  155.2586 H   0  0  0  0  0  0  0  0  0  0  0  0  # atno 10763 bound_to 10752
  154.8742  135.4022  154.3370 H   0  0  0  0  0  0  0  0  0  0  0  0  # atno 10764 bound_to 10752
  153.4023  135.7075  153.6484 H   0  0  0  0  0  0  0  0  0  0  0  0  # atno 10765 bound_to 10752
  140.9891  134.0564  157.3675 H   0  0  0  0  0  0  0  0  0  0  0  0  # atno 11005 bound_to 11000
  144.9014  140.7647  143.5865 LP  0  0  0  0  0  0  0  0  0  0  0  0  # atno 17320 bound_to 7965
  145.2999  139.1854  143.4695 LP  0  0  0  0  0  0  0  0  0  0  0  0  # atno 17321 bound_to 7965
  139.9203  143.6614  152.3098 LP  0  0  0  0  0  0  0  0  0  0  0  0  # atno 17342 bound_to 10162
  139.7029  144.7632  151.1243 LP  0  0  0  0  0  0  0  0  0  0  0  0  # atno 17343 bound_to 10162
  157.4934  131.0913  151.0400 LP  0  0  0  0  0  0  0  0  0  0  0  0  # atno 17370 bound_to 10713
  157.0800  130.5899  149.5418 LP  0  0  0  0  0  0  0  0  0  0  0  0  # atno 17371 bound_to 10713
  139.8984  135.0154  156.7147 LP  0  0  0  0  0  0  0  0  0  0  0  0  # atno 17394 bound_to 11000
  140.7068  133.9258  155.8059 LP  0  0  0  0  0  0  0  0  0  0  0  0  # atno 17395 bound_to 11000

$$$$
