AV-unprocessed.smi:2795|AV-procd|sdf|10780|dock3
  -GOLD-   2272015213D 1   1.00000     0.00000
 Structure written by MMmdl.
 36 37  0  0  0  0  0  0  0  0  1 V2000
  152.7061  142.0777  159.9782 C   0  0  0  0  0  0  0  0  0  0  0  0
  152.1661  143.4161  159.8470 N   0  0  0  0  0  0  0  0  0  0  0  0
  152.1590  144.3755  160.7824 C   0  0  0  0  0  0  0  0  0  0  0  0
  151.5981  145.5137  160.3975 N   0  0  0  0  0  0  0  0  0  0  0  0
  151.2057  145.2616  159.0857 C   0  0  0  0  0  0  0  0  0  0  0  0
  151.5469  143.9731  158.7315 C   0  0  0  0  0  0  0  0  0  0  0  0
  151.3487  143.2216  157.4508 C   0  0  0  0  0  0  0  0  0  0  0  0
  150.4510  141.9778  157.5774 C   0  0  0  0  0  0  0  0  0  0  0  0
  149.2207  142.1250  156.8085 N   0  0  0  0  0  0  0  0  0  0  0  0
  148.3606  141.1326  156.5319 C   0  0  0  0  0  0  0  0  0  0  0  0
  148.5383  139.9677  156.8890 O   0  0  0  0  0  0  0  0  0  0  0  0
  147.1134  141.5141  155.7278 C   0  0  2  0  0  0  0  0  0  0  0  0
  147.4750  142.0278  154.3172 C   0  0  0  0  0  0  0  0  0  0  0  0
  146.2147  142.4860  153.5756 C   0  0  0  0  0  0  0  0  0  0  0  0
  145.4515  143.4979  154.4365 C   0  0  0  0  0  0  0  0  0  0  0  0
  145.1930  142.9213  155.8377 C   0  0  0  0  0  0  0  0  0  0  0  0
  146.4238  142.5369  156.4437 O   0  0  0  0  0  0  0  0  0  0  0  0
  153.2009  141.9623  160.9432 H   0  0  0  0  0  0  0  0  0  0  0  0
  153.4314  141.8930  159.1854 H   0  0  0  0  0  0  0  0  0  0  0  0
  151.8996  141.3478  159.9035 H   0  0  0  0  0  0  0  0  0  0  0  0
  152.5746  144.2373  161.7698 H   0  0  0  0  0  0  0  0  0  0  0  0
  150.7105  146.0233  158.5016 H   0  0  0  0  0  0  0  0  0  0  0  0
  150.9250  143.8999  156.7095 H   0  0  0  0  0  0  0  0  0  0  0  0
  152.3226  142.9205  157.0630 H   0  0  0  0  0  0  0  0  0  0  0  0
  150.9771  141.0993  157.2026 H   0  0  0  0  0  0  0  0  0  0  0  0
  150.2140  141.7779  158.6239 H   0  0  0  0  0  0  0  0  0  0  0  0
  149.0018  143.0503  156.4687 H   0  0  0  0  0  0  0  0  0  0  0  0
  146.4635  140.6405  155.6430 H   0  0  0  0  0  0  0  0  0  0  0  0
  148.1727  142.8641  154.3856 H   0  0  0  0  0  0  0  0  0  0  0  0
  147.9782  141.2469  153.7458 H   0  0  0  0  0  0  0  0  0  0  0  0
  146.4782  142.9259  152.6133 H   0  0  0  0  0  0  0  0  0  0  0  0
  145.5777  141.6259  153.3653 H   0  0  0  0  0  0  0  0  0  0  0  0
  146.0323  144.4170  154.5232 H   0  0  0  0  0  0  0  0  0  0  0  0
  144.5095  143.7665  153.9579 H   0  0  0  0  0  0  0  0  0  0  0  0
  144.7104  143.6694  156.4668 H   0  0  0  0  0  0  0  0  0  0  0  0
  144.5185  142.0653  155.7873 H   0  0  0  0  0  0  0  0  0  0  0  0
  1  2  1  0  0  0  0
  1 18  1  0  0  0  0
  1 19  1  0  0  0  0
  1 20  1  0  0  0  0
  2  6  1  0  0  0  0
  2  3  1  0  0  0  0
  3  4  2  0  0  0  0
  3 21  1  0  0  0  0
  4  5  1  0  0  0  0
  5  6  2  0  0  0  0
  5 22  1  0  0  0  0
  6  7  1  0  0  0  0
  7  8  1  0  0  0  0
  7 23  1  0  0  0  0
  7 24  1  0  0  0  0
  8  9  1  0  0  0  0
  8 25  1  0  0  0  0
  8 26  1  0  0  0  0
  9 10  1  0  0  0  0
  9 27  1  0  0  0  0
 10 11  2  0  0  0  0
 10 12  1  0  0  0  0
 12 17  1  0  0  0  0
 12 13  1  0  0  0  0
 12 28  1  0  0  0  0
 13 14  1  0  0  0  0
 13 29  1  0  0  0  0
 13 30  1  0  0  0  0
 14 15  1  0  0  0  0
 14 31  1  0  0  0  0
 14 32  1  0  0  0  0
 15 16  1  0  0  0  0
 15 33  1  0  0  0  0
 15 34  1  0  0  0  0
 16 17  1  0  0  0  0
 16 35  1  0  0  0  0
 16 36  1  0  0  0  0
M  END
> <s_m_source_file>
AV-unprocessed.smi

> <i_m_source_file_index>
2795

> <i_lp_mmshare_version>
43012

> <i_f3d_flags>
0

> <s_epik_input>
W0NIM11uMVtjSF1uW2NIXWMxW0NIMl1bQ0gyXVtOSF1DKD1PKVtDQEBIXTJbQ0gyXVtDSDJdW0NIMl1bQ0gyXU8y

> <s_epik_cmdline>
J2VwaWtfcHl0aG9uJywgJy1waCcsICc3LjAnLCAnLXRuJywgJzgnLCAnLW1hJywgJzIwMCcsICctbWV0YWxfYmluZGluZycsICctaW1hZScsICc8aW5maWxlLm1hZT4nLCAnLW9tYWUnLCAnPG91dGZpbGUubWFlPic=

> <r_lp_tautomer_probability>
1

> <r_epik_Ionization_Penalty>
0.870864

> <r_epik_Ionization_Penalty_Charging>
0.870864

> <r_epik_Ionization_Penalty_Neutral>
4.06047e-08

> <r_epik_State_Penalty>
0.90819

> <r_epik_Charging_Adjusted_Penalty>
1.77905

> <i_epik_Tot_Q>
0

> <i_epik_Tot_abs_Q>
0

> <r_epik_Metal_State_Penalty>
0.360563

> <b_epik_Metal_Only>
0

> <s_lp_Force_Field>
OPLS_2005

> <r_lp_Energy>
9.35516

> <b_lp_Chiralities_Consistent>
1

> <s_lp_Variant>
AV-unprocessed.smi:2795-3

> <Gold.Version>
5.8.1

> <Gold.Id.Protein>
6NUR|6NUR_protein|mol2

> <Gold.PLP.Fitness>
40.0772

> <Gold.PLP.PLP>
-37.9775

> <Gold.PLP.part.hbond>
-1.0000

> <Gold.PLP.part.metal>
0.0000

> <Gold.PLP.part.buried>
-6.6038

> <Gold.PLP.part.nonpolar>
-31.3712

> <Gold.PLP.part.repulsive>
0.3680

> <Gold.PLP.ligand.clash>
0.0000

> <Gold.PLP.ligand.torsion>
0.4627

> <Gold.PLP.Chemscore.Hbond>
1.0000

> <Gold.PLP.Chemscore.CHOScore>
0.0000

> <Gold.PLP.Chemscore.Metal>
0.0000

> <Gold.Chemscore.Hbonds>
donor molecule, donor type, donor heavy atom, donor atom, acceptor molecule, acceptor atom, score
      L1  H     9    27       P1  8028  1.00

> <Gold.PLP.Chemscore.Internal.Correction>
0.0251

> <Gold.Rescore>
     Score         DG    S(hbond)    S(metal)    S(lipo)     H(rot)  DE(clash)    DE(int)     intcor
     12.99     -13.49       1.00        0.00      78.48       1.76       0.02       0.49       ----

> <Gold.Chemscore.Fitness>
12.9908

> <Gold.Chemscore.DG>
-13.4945

> <Gold.Chemscore.ZeroCoef>
-5.4800

> <Gold.Chemscore.Hbond>
0.9984

> <Gold.Chemscore.Metal>
0.0000

> <Gold.Chemscore.Lipo>
78.4758

> <Gold.Chemscore.Internal_Hbond>
0.0000

> <Gold.Chemscore.DEClash>
0.0183

> <Gold.Chemscore.DEInternal>
0.4854

> <Gold.Chemscore.Rot>
1.7585

> <Gold.Chemscore.Internal.Correction>
   9.000000E+99

> <Gold.Chemscore.Hbonds>
donor molecule, donor type, donor heavy atom, donor atom, acceptor molecule, acceptor atom, score
      L1  H     9    27       P1  8028  0.99

> <Gold.Chemscore.Hbond.Weighted>
-3.3346

> <Gold.Chemscore.Metal.Weighted>
-0.0000

> <Gold.Chemscore.Lipo.Weighted>
-9.1817

> <Gold.Chemscore.Internal_Hbond.Weighted>
0.0000

> <Gold.Chemscore.DEClash.Weighted>
0.0183

> <Gold.Chemscore.DEInternal.Weighted>
0.4854

> <Gold.Chemscore.Rot.Weighted>
4.5018

> <Gold.Chemscore.Internal.Correction.Weighted>
   9.000000E+99

> <Gold.Protein.RotatedTorsions>
[ 6907 6896 6895 6894 ] final -139.04 input  -60.11 | X-H torsion
[ 7974 7965 7964 7962 ] final   14.77 input  175.53 | X-H torsion
[ 8008 7997 7996 7995 ] final -125.41 input   59.86 | X-H torsion
[ 10167 10162 10161 10158 ] final  141.05 input  -65.29 | X-H torsion
[ 10718 10713 10712 10709 ] final  115.10 input   66.30 | X-H torsion
[ 10763 10752 10751 10750 ] final -179.81 input  -60.55 | X-H torsion
[ 11005 11000 10999 10996 ] final  104.41 input  -57.11 | X-H torsion

> <Gold.Protein.ActiveResidues>
 VAL166  LYS551  ARG553  GLY616  TRP617  ASP618  TYR619  PRO620  LYS621  CYS622 
 ASP623  PHE694  ASN695  SER759  ASP760  ASP761  ALA762  ILE779  LEU786  VAL792 
 PHE793  MET794  SER795  GLU796  ALA797  LYS798  CYS799  TRP800  GLU811  SER814 

> <Gold.Protein.RotatedAtoms>
  151.0427  133.5692  159.2649 H   0  0  0  0  0  0  0  0  0  0  0  0  # atno 6907 bound_to 6896
  151.2732  135.0690  159.9151 H   0  0  0  0  0  0  0  0  0  0  0  0  # atno 6908 bound_to 6896
  152.5367  134.0154  159.8011 H   0  0  0  0  0  0  0  0  0  0  0  0  # atno 6909 bound_to 6896
  146.2296  139.8993  142.8542 H   0  0  0  0  0  0  0  0  0  0  0  0  # atno 7974 bound_to 7965
  155.2128  140.0419  157.2936 H   0  0  0  0  0  0  0  0  0  0  0  0  # atno 8008 bound_to 7997
  154.6000  140.2449  155.7776 H   0  0  0  0  0  0  0  0  0  0  0  0  # atno 8009 bound_to 7997
  156.2315  140.2936  156.0210 H   0  0  0  0  0  0  0  0  0  0  0  0  # atno 8010 bound_to 7997
  139.5031  144.6196  151.6082 H   0  0  0  0  0  0  0  0  0  0  0  0  # atno 10167 bound_to 10162
  157.6242  131.1008  150.7281 H   0  0  0  0  0  0  0  0  0  0  0  0  # atno 10718 bound_to 10713
  154.5303  135.2799  155.1186 H   0  0  0  0  0  0  0  0  0  0  0  0  # atno 10763 bound_to 10752
  154.2708  135.6304  153.5313 H   0  0  0  0  0  0  0  0  0  0  0  0  # atno 10764 bound_to 10752
  152.9955  135.5628  154.5815 H   0  0  0  0  0  0  0  0  0  0  0  0  # atno 10765 bound_to 10752
  139.8792  134.9299  156.5358 H   0  0  0  0  0  0  0  0  0  0  0  0  # atno 11005 bound_to 11000
  145.2339  140.9984  143.3974 LP  0  0  0  0  0  0  0  0  0  0  0  0  # atno 17320 bound_to 7965
  144.9507  139.4086  143.6404 LP  0  0  0  0  0  0  0  0  0  0  0  0  # atno 17321 bound_to 7965
  140.5894  143.9806  150.6315 LP  0  0  0  0  0  0  0  0  0  0  0  0  # atno 17342 bound_to 10162
  140.2982  143.3278  152.0998 LP  0  0  0  0  0  0  0  0  0  0  0  0  # atno 17343 bound_to 10162
  156.7633  130.4805  149.5432 LP  0  0  0  0  0  0  0  0  0  0  0  0  # atno 17370 bound_to 10713
  156.1404  130.6241  151.0459 LP  0  0  0  0  0  0  0  0  0  0  0  0  # atno 17371 bound_to 10713
  140.8347  133.8251  155.9017 LP  0  0  0  0  0  0  0  0  0  0  0  0  # atno 17394 bound_to 11000
  140.9295  134.2040  157.4873 LP  0  0  0  0  0  0  0  0  0  0  0  0  # atno 17395 bound_to 11000

$$$$
