AV-unprocessed.smi:3133|AV-procd|sdf|11940|dock6
  -GOLD-   2272017333D 1   1.00000     0.00000
 Structure written by MMmdl.
 32 33  0  0  0  0  0  0  0  0  1 V2000
  149.9479  139.1809  157.7017 C   0  0  0  0  0  0  0  0  0  0  0  0
  151.1573  139.8908  157.0598 C   0  0  1  0  0  0  0  0  0  0  0  0
  152.2258  140.2763  158.0939 C   0  0  0  0  0  0  0  0  0  0  0  0
  153.3283  139.7274  158.0904 O   0  0  0  0  0  0  0  0  0  0  0  0
  151.8855  141.2313  158.9736 N   0  0  0  0  0  0  0  0  0  0  0  0
  152.7515  141.7516  160.0252 C   0  0  0  0  0  0  0  0  0  0  0  0
  152.6604  143.2829  160.1331 C   0  0  1  0  0  0  0  0  0  0  0  0
  152.7575  144.0010  158.7905 C   0  0  0  0  0  0  0  0  0  0  0  0
  152.1307  145.3374  159.1194 C   0  0  0  0  0  0  0  0  0  0  0  0
  151.0231  144.9482  160.0984 C   0  0  0  0  0  0  0  0  0  0  0  0
  151.3916  143.6816  160.6415 O   0  0  0  0  0  0  0  0  0  0  0  0
  151.7588  139.1061  155.9881 N   0  0  0  0  0  0  0  0  0  0  0  0
  151.3910  137.9276  155.4800 C   0  0  0  0  0  0  0  0  0  0  0  0
  152.1411  137.5196  154.4659 N   0  0  0  0  0  0  0  0  0  0  0  0
  153.0064  138.5733  154.3845 C   0  0  0  0  0  0  0  0  0  0  0  0
  152.8147  139.5557  155.2645 N   0  0  0  0  0  0  0  0  0  0  0  0
  149.4844  139.8079  158.4642 H   0  0  0  0  0  0  0  0  0  0  0  0
  150.2267  138.2390  158.1760 H   0  0  0  0  0  0  0  0  0  0  0  0
  149.1859  138.9602  156.9538 H   0  0  0  0  0  0  0  0  0  0  0  0
  150.7844  140.8120  156.6083 H   0  0  0  0  0  0  0  0  0  0  0  0
  150.9581  141.6257  158.9130 H   0  0  0  0  0  0  0  0  0  0  0  0
  152.4901  141.2892  160.9785 H   0  0  0  0  0  0  0  0  0  0  0  0
  153.7766  141.4509  159.8068 H   0  0  0  0  0  0  0  0  0  0  0  0
  153.4336  143.6699  160.7992 H   0  0  0  0  0  0  0  0  0  0  0  0
  153.7814  144.0859  158.4250 H   0  0  0  0  0  0  0  0  0  0  0  0
  152.1636  143.4862  158.0337 H   0  0  0  0  0  0  0  0  0  0  0  0
  152.8615  145.9776  159.6159 H   0  0  0  0  0  0  0  0  0  0  0  0
  151.7577  145.8644  158.2410 H   0  0  0  0  0  0  0  0  0  0  0  0
  150.8985  145.6918  160.8859 H   0  0  0  0  0  0  0  0  0  0  0  0
  150.0692  144.8406  159.5815 H   0  0  0  0  0  0  0  0  0  0  0  0
  150.5541  137.3584  155.8572 H   0  0  0  0  0  0  0  0  0  0  0  0
  153.7972  138.6210  153.6501 H   0  0  0  0  0  0  0  0  0  0  0  0
  1  2  1  0  0  0  0
  1 17  1  0  0  0  0
  1 18  1  0  0  0  0
  1 19  1  0  0  0  0
  2  3  1  0  0  0  0
  2 12  1  0  0  0  0
  2 20  1  0  0  0  0
  3  4  2  0  0  0  0
  3  5  1  0  0  0  0
  5  6  1  0  0  0  0
  5 21  1  0  0  0  0
  6  7  1  0  0  0  0
  6 22  1  0  0  0  0
  6 23  1  0  0  0  0
  7 11  1  0  0  0  0
  7  8  1  0  0  0  0
  7 24  1  0  0  0  0
  8  9  1  0  0  0  0
  8 25  1  0  0  0  0
  8 26  1  0  0  0  0
  9 10  1  0  0  0  0
  9 27  1  0  0  0  0
  9 28  1  0  0  0  0
 10 11  1  0  0  0  0
 10 29  1  0  0  0  0
 10 30  1  0  0  0  0
 12 16  1  0  0  0  0
 12 13  1  0  0  0  0
 13 14  2  0  0  0  0
 13 31  1  0  0  0  0
 14 15  1  0  0  0  0
 15 16  2  0  0  0  0
 15 32  1  0  0  0  0
M  END
> <s_m_source_file>
AV-unprocessed.smi

> <i_m_source_file_index>
3133

> <i_lp_mmshare_version>
43012

> <i_f3d_flags>
0

> <s_epik_input>
bjFbY0hdbltjSF1uMVtDQEhdKFtDSDNdKUMoPU8pW05IXVtDSDJdW0NAQEhdMltDSDJdW0NIMl1bQ0gyXU8y

> <s_epik_cmdline>
J2VwaWtfcHl0aG9uJywgJy1waCcsICc3LjAnLCAnLXRuJywgJzgnLCAnLW1hJywgJzIwMCcsICctbWV0YWxfYmluZGluZycsICctaW1hZScsICc8aW5maWxlLm1hZT4nLCAnLW9tYWUnLCAnPG91dGZpbGUubWFlPic=

> <r_lp_tautomer_probability>
1

> <r_epik_Ionization_Penalty>
1.2027e-05

> <r_epik_Ionization_Penalty_Charging>
0

> <r_epik_Ionization_Penalty_Neutral>
1.2027e-05

> <r_epik_State_Penalty>
-0

> <r_epik_Charging_Adjusted_Penalty>
0

> <i_epik_Tot_Q>
0

> <i_epik_Tot_abs_Q>
0

> <r_epik_Metal_State_Penalty>
-0

> <b_epik_Metal_Only>
0

> <s_lp_Force_Field>
OPLS_2005

> <r_lp_Energy>
22.8462

> <b_lp_Chiralities_Consistent>
1

> <s_lp_Variant>
AV-unprocessed.smi:3133-4

> <Gold.Version>
5.8.1

> <Gold.Id.Protein>
6NUR|6NUR_protein|mol2

> <Gold.PLP.Fitness>
42.6450

> <Gold.PLP.PLP>
-36.4227

> <Gold.PLP.part.hbond>
-3.4026

> <Gold.PLP.part.metal>
0.0000

> <Gold.PLP.part.buried>
-6.3602

> <Gold.PLP.part.nonpolar>
-26.7575

> <Gold.PLP.part.repulsive>
0.3543

> <Gold.PLP.ligand.clash>
0.0000

> <Gold.PLP.ligand.torsion>
0.4454

> <Gold.PLP.Chemscore.Hbond>
2.3360

> <Gold.PLP.Chemscore.CHOScore>
0.0000

> <Gold.PLP.Chemscore.Metal>
0.0000

> <Gold.Chemscore.Hbonds>
donor molecule, donor type, donor heavy atom, donor atom, acceptor molecule, acceptor atom, score
      P1  H  7997  8008       L1    16  0.96
      P1  H  7997  8010       L1     4  0.54
      P1  H 10752 10764       L1    14  0.80

> <Gold.PLP.Chemscore.Internal.Correction>
0.1052

> <Gold.Rescore>
     Score         DG    S(hbond)    S(metal)    S(lipo)     H(rot)  DE(clash)    DE(int)     intcor
     12.97     -14.66       2.07        0.00      68.73       2.26       0.01       1.69       ----

> <Gold.Chemscore.Fitness>
12.9650

> <Gold.Chemscore.DG>
-14.6628

> <Gold.Chemscore.ZeroCoef>
-5.4800

> <Gold.Chemscore.Hbond>
2.0708

> <Gold.Chemscore.Metal>
0.0000

> <Gold.Chemscore.Lipo>
68.7270

> <Gold.Chemscore.Internal_Hbond>
0.0000

> <Gold.Chemscore.DEClash>
0.0088

> <Gold.Chemscore.DEInternal>
1.6890

> <Gold.Chemscore.Rot>
2.2558

> <Gold.Chemscore.Internal.Correction>
   9.000000E+99

> <Gold.Chemscore.Hbonds>
donor molecule, donor type, donor heavy atom, donor atom, acceptor molecule, acceptor atom, score
      P1  H  7997  8008       L1    16  0.50
      P1  H  7997  8010       L1     4  0.56
      P1  H 10752 10764       L1    14  0.69

> <Gold.Chemscore.Hbond.Weighted>
-6.9165

> <Gold.Chemscore.Metal.Weighted>
-0.0000

> <Gold.Chemscore.Lipo.Weighted>
-8.0411

> <Gold.Chemscore.Internal_Hbond.Weighted>
0.0000

> <Gold.Chemscore.DEClash.Weighted>
0.0088

> <Gold.Chemscore.DEInternal.Weighted>
1.6890

> <Gold.Chemscore.Rot.Weighted>
5.7747

> <Gold.Chemscore.Internal.Correction.Weighted>
   9.000000E+99

> <Gold.Protein.RotatedTorsions>
[ 6907 6896 6895 6894 ] final   35.61 input  -60.11 | X-H torsion
[ 7974 7965 7964 7962 ] final -116.35 input  175.53 | X-H torsion
[ 8008 7997 7996 7995 ] final    0.31 input   59.86 | X-H torsion
[ 10167 10162 10161 10158 ] final   98.84 input  -65.29 | X-H torsion
[ 10718 10713 10712 10709 ] final  144.73 input   66.30 | X-H torsion
[ 10763 10752 10751 10750 ] final  -74.72 input  -60.55 | X-H torsion
[ 11005 11000 10999 10996 ] final  115.57 input  -57.11 | X-H torsion

> <Gold.Protein.ActiveResidues>
 VAL166  LYS551  ARG553  GLY616  TRP617  ASP618  TYR619  PRO620  LYS621  CYS622 
 ASP623  PHE694  ASN695  SER759  ASP760  ASP761  ALA762  ILE779  LEU786  VAL792 
 PHE793  MET794  SER795  GLU796  ALA797  LYS798  CYS799  TRP800  GLU811  SER814 

> <Gold.Protein.RotatedAtoms>
  152.1184  134.9223  160.0563 H   0  0  0  0  0  0  0  0  0  0  0  0  # atno 6907 bound_to 6896
  152.0373  133.3958  159.4330 H   0  0  0  0  0  0  0  0  0  0  0  0  # atno 6908 bound_to 6896
  150.6847  134.3375  159.4897 H   0  0  0  0  0  0  0  0  0  0  0  0  # atno 6909 bound_to 6896
  145.0977  140.8532  143.3944 H   0  0  0  0  0  0  0  0  0  0  0  0  # atno 7974 bound_to 7965
  154.6666  140.2602  155.7052 H   0  0  0  0  0  0  0  0  0  0  0  0  # atno 8008 bound_to 7997
  156.2641  140.2838  156.1080 H   0  0  0  0  0  0  0  0  0  0  0  0  # atno 8009 bound_to 7997
  155.1230  140.0377  157.2745 H   0  0  0  0  0  0  0  0  0  0  0  0  # atno 8010 bound_to 7997
  139.7672  144.6935  151.0207 H   0  0  0  0  0  0  0  0  0  0  0  0  # atno 10167 bound_to 10162
  157.3537  131.0954  151.0977 H   0  0  0  0  0  0  0  0  0  0  0  0  # atno 10718 bound_to 10713
  154.4768  135.5855  153.6361 H   0  0  0  0  0  0  0  0  0  0  0  0  # atno 10763 bound_to 10752
  152.9842  135.6080  154.3296 H   0  0  0  0  0  0  0  0  0  0  0  0  # atno 10764 bound_to 10752
  154.3184  135.2844  155.2511 H   0  0  0  0  0  0  0  0  0  0  0  0  # atno 10765 bound_to 10752
  139.9014  134.9586  156.7066 H   0  0  0  0  0  0  0  0  0  0  0  0  # atno 11005 bound_to 11000
  145.0991  139.2835  143.5695 LP  0  0  0  0  0  0  0  0  0  0  0  0  # atno 17320 bound_to 7965
  146.3530  140.0553  142.8633 LP  0  0  0  0  0  0  0  0  0  0  0  0  # atno 17321 bound_to 7965
  140.7811  143.4629  151.0252 LP  0  0  0  0  0  0  0  0  0  0  0  0  # atno 17342 bound_to 10162
  139.8314  143.7686  152.3180 LP  0  0  0  0  0  0  0  0  0  0  0  0  # atno 17343 bound_to 10162
  157.2143  130.6452  149.5786 LP  0  0  0  0  0  0  0  0  0  0  0  0  # atno 17370 bound_to 10713
  155.9726  130.4650  150.6237 LP  0  0  0  0  0  0  0  0  0  0  0  0  # atno 17371 bound_to 10713
  140.7108  133.9224  155.8083 LP  0  0  0  0  0  0  0  0  0  0  0  0  # atno 17394 bound_to 11000
  141.0301  134.0768  157.4023 LP  0  0  0  0  0  0  0  0  0  0  0  0  # atno 17395 bound_to 11000

$$$$
