AV-unprocessed.smi:1016|AV-procd|sdf|4437|dock7
  -GOLD-   22720 2393D 1   1.00000     0.00000
 Structure written by MMmdl.
 39 40  0  0  0  0  0  0  0  0  2 V2000
  145.8209  134.0725  153.1022 C   0  0  0  0  0  0  0  0  0  0  0  0
  147.1939  133.8909  153.6780 C   0  0  0  0  0  0  0  0  0  0  0  0
  148.4008  133.9594  152.8765 C   0  0  0  0  0  0  0  0  0  0  0  0
  149.6008  133.7878  153.4714 C   0  0  0  0  0  0  0  0  0  0  0  0
  149.7179  133.5287  154.9047 C   0  0  0  0  0  0  0  0  0  0  0  0
  150.7957  133.3629  155.4746 O   0  0  0  0  0  0  0  0  0  0  0  0
  148.5164  133.4781  155.5535 N   0  0  0  0  0  0  0  0  0  0  0  0
  148.4379  133.1737  156.9920 C   0  0  0  0  0  0  0  0  0  0  0  0
  147.8231  134.2906  157.8549 C   0  0  0  0  0  0  0  0  0  0  0  0
  147.4244  135.3088  157.2927 O   0  0  0  0  0  0  0  0  0  0  0  0
  147.7625  134.0769  159.1849 N   0  0  0  0  0  0  0  0  0  0  0  0
  147.2684  134.8897  160.3060 C   0  0  0  0  0  0  0  0  0  0  0  0
  148.2030  136.1266  160.3395 C   0  0  0  0  0  0  0  0  0  0  0  0
  149.2232  136.1135  159.6152 O   0  0  0  0  0  0  0  0  0  0  0  0
  147.9121  137.0553  161.1271 O   0  5  0  0  0  0  0  0  0  0  0  0
  145.7681  135.3120  160.1983 C   0  0  0  0  0  0  0  0  0  0  0  0
  145.2405  136.0123  161.4660 C   0  0  0  0  0  0  0  0  0  0  0  0
  145.4388  135.1327  162.7085 C   0  0  0  0  0  0  0  0  0  0  0  0
  146.9089  134.7193  162.8650 C   0  0  0  0  0  0  0  0  0  0  0  0
  147.4325  134.0278  161.5909 C   0  0  0  0  0  0  0  0  0  0  0  0
  147.2844  133.6646  154.9473 N   0  0  0  0  0  0  0  0  0  0  0  0
  145.8639  134.2501  152.0274 H   0  0  0  0  0  0  0  0  0  0  0  0
  145.3166  134.9230  153.5616 H   0  0  0  0  0  0  0  0  0  0  0  0
  145.2099  133.1850  153.2696 H   0  0  0  0  0  0  0  0  0  0  0  0
  148.3318  134.1461  151.8151 H   0  0  0  0  0  0  0  0  0  0  0  0
  150.4988  133.8380  152.8734 H   0  0  0  0  0  0  0  0  0  0  0  0
  147.8741  132.2540  157.1570 H   0  0  0  0  0  0  0  0  0  0  0  0
  149.4381  132.9680  157.3772 H   0  0  0  0  0  0  0  0  0  0  0  0
  148.1510  133.1931  159.4814 H   0  0  0  0  0  0  0  0  0  0  0  0
  145.5978  135.9536  159.3326 H   0  0  0  0  0  0  0  0  0  0  0  0
  145.1526  134.4255  160.0410 H   0  0  0  0  0  0  0  0  0  0  0  0
  145.7440  136.9691  161.6078 H   0  0  0  0  0  0  0  0  0  0  0  0
  144.1817  136.2423  161.3446 H   0  0  0  0  0  0  0  0  0  0  0  0
  145.1034  135.6638  163.5997 H   0  0  0  0  0  0  0  0  0  0  0  0
  144.8165  134.2408  162.6268 H   0  0  0  0  0  0  0  0  0  0  0  0
  147.5152  135.5964  163.0931 H   0  0  0  0  0  0  0  0  0  0  0  0
  147.0133  134.0478  163.7174 H   0  0  0  0  0  0  0  0  0  0  0  0
  146.8896  133.0904  161.4599 H   0  0  0  0  0  0  0  0  0  0  0  0
  148.4734  133.7357  161.7381 H   0  0  0  0  0  0  0  0  0  0  0  0
  1  2  1  0  0  0  0
  1 22  1  0  0  0  0
  1 23  1  0  0  0  0
  1 24  1  0  0  0  0
  2 21  2  0  0  0  0
  2  3  1  0  0  0  0
  3  4  2  0  0  0  0
  3 25  1  0  0  0  0
  4  5  1  0  0  0  0
  4 26  1  0  0  0  0
  5  6  2  0  0  0  0
  5  7  1  0  0  0  0
  7  8  1  0  0  0  0
  7 21  1  0  0  0  0
  8  9  1  0  0  0  0
  8 27  1  0  0  0  0
  8 28  1  0  0  0  0
  9 10  2  0  0  0  0
  9 11  1  0  0  0  0
 11 12  1  0  0  0  0
 11 29  1  0  0  0  0
 12 20  1  0  0  0  0
 12 13  1  0  0  0  0
 12 16  1  0  0  0  0
 13 14  2  0  0  0  0
 13 15  1  0  0  0  0
 16 17  1  0  0  0  0
 16 30  1  0  0  0  0
 16 31  1  0  0  0  0
 17 18  1  0  0  0  0
 17 32  1  0  0  0  0
 17 33  1  0  0  0  0
 18 19  1  0  0  0  0
 18 34  1  0  0  0  0
 18 35  1  0  0  0  0
 19 20  1  0  0  0  0
 19 36  1  0  0  0  0
 19 37  1  0  0  0  0
 20 38  1  0  0  0  0
 20 39  1  0  0  0  0
M  CHG  1  15  -1
M  END
> <s_m_source_file>
AV-unprocessed.smi

> <i_m_source_file_index>
1016

> <i_lp_mmshare_version>
43012

> <i_f3d_flags>
0

> <s_epik_input>
W0NIM11jMVtjSF1bY0hdYyg9TyluKG4xKVtDSDJdQyg9TylbTkhdQzIoQyg9TylbT0hdKVtDSDJdW0NIMl1bQ0gyXVtDSDJdW0NIMl0y

> <s_epik_cmdline>
J2VwaWtfcHl0aG9uJywgJy1waCcsICc3LjAnLCAnLXRuJywgJzgnLCAnLW1hJywgJzIwMCcsICctbWV0YWxfYmluZGluZycsICctaW1hZScsICc8aW5maWxlLm1hZT4nLCAnLW9tYWUnLCAnPG91dGZpbGUubWFlPic=

> <r_lp_tautomer_probability>
1

> <r_epik_Ionization_Penalty>
0.000398047

> <r_epik_Ionization_Penalty_Charging>
0.000398029

> <r_epik_Ionization_Penalty_Neutral>
1.87077e-08

> <r_epik_State_Penalty>
0.000243291

> <r_epik_Charging_Adjusted_Penalty>
0.00064132

> <i_epik_Tot_Q>
-1

> <i_epik_Tot_abs_Q>
1

> <r_epik_Metal_State_Penalty>
-0

> <b_epik_Metal_Only>
0

> <s_lp_Force_Field>
OPLS_2005

> <r_lp_Energy>
18.8649

> <b_lp_Chiralities_Consistent>
1

> <s_lp_Variant>
AV-unprocessed.smi:1016-1

> <Gold.Version>
5.8.1

> <Gold.Id.Protein>
6NUR|6NUR_protein|mol2

> <Gold.PLP.Fitness>
42.9021

> <Gold.PLP.PLP>
-27.2195

> <Gold.PLP.part.hbond>
-3.0000

> <Gold.PLP.part.metal>
0.0000

> <Gold.PLP.part.buried>
-4.4196

> <Gold.PLP.part.nonpolar>
-20.4479

> <Gold.PLP.part.repulsive>
0.0805

> <Gold.PLP.ligand.clash>
0.0000

> <Gold.PLP.ligand.torsion>
0.4022

> <Gold.PLP.Chemscore.Hbond>
5.4784

> <Gold.PLP.Chemscore.CHOScore>
0.0000

> <Gold.PLP.Chemscore.Metal>
0.0000

> <Gold.Chemscore.Hbonds>
donor molecule, donor type, donor heavy atom, donor atom, acceptor molecule, acceptor atom, score
      P1  H  6896  6908       L1    14  1.92
      P1  H  6931  6943       L1    15  2.00
      P1  H  6934  6947       L1    15  1.30

> <Gold.PLP.Chemscore.Internal.Correction>
0.0519

> <Gold.Rescore>
     Score         DG    S(hbond)    S(metal)    S(lipo)     H(rot)  DE(clash)    DE(int)     intcor
     11.47     -15.97       2.69        0.00      58.68       2.09       0.01       4.49       ----

> <Gold.Chemscore.Fitness>
11.4712

> <Gold.Chemscore.DG>
-15.9730

> <Gold.Chemscore.ZeroCoef>
-5.4800

> <Gold.Chemscore.Hbond>
2.6894

> <Gold.Chemscore.Metal>
0.0000

> <Gold.Chemscore.Lipo>
58.6775

> <Gold.Chemscore.Internal_Hbond>
0.0000

> <Gold.Chemscore.DEClash>
0.0073

> <Gold.Chemscore.DEInternal>
4.4945

> <Gold.Chemscore.Rot>
2.0918

> <Gold.Chemscore.Internal.Correction>
   9.000000E+99

> <Gold.Chemscore.Hbonds>
donor molecule, donor type, donor heavy atom, donor atom, acceptor molecule, acceptor atom, score
      P1  H  6896  6908       L1    14  0.91
      P1  H  6931  6943       L1    15  0.96
      P1  H  6934  6947       L1    15  0.62

> <Gold.Chemscore.Hbond.Weighted>
-8.9827

> <Gold.Chemscore.Metal.Weighted>
-0.0000

> <Gold.Chemscore.Lipo.Weighted>
-6.8653

> <Gold.Chemscore.Internal_Hbond.Weighted>
0.0000

> <Gold.Chemscore.DEClash.Weighted>
0.0073

> <Gold.Chemscore.DEInternal.Weighted>
4.4945

> <Gold.Chemscore.Rot.Weighted>
5.3549

> <Gold.Chemscore.Internal.Correction.Weighted>
   9.000000E+99

> <Gold.Protein.RotatedTorsions>
[ 6907 6896 6895 6894 ] final  179.99 input  -60.11 | X-H torsion
[ 7974 7965 7964 7962 ] final  -45.86 input  175.53 | X-H torsion
[ 8008 7997 7996 7995 ] final -157.72 input   59.86 | X-H torsion
[ 10167 10162 10161 10158 ] final   50.72 input  -65.29 | X-H torsion
[ 10718 10713 10712 10709 ] final   98.46 input   66.30 | X-H torsion
[ 10763 10752 10751 10750 ] final  117.34 input  -60.55 | X-H torsion
[ 11005 11000 10999 10996 ] final   10.24 input  -57.11 | X-H torsion

> <Gold.Protein.ActiveResidues>
 VAL166  LYS551  ARG553  GLY616  TRP617  ASP618  TYR619  PRO620  LYS621  CYS622 
 ASP623  PHE694  ASN695  SER759  ASP760  ASP761  ALA762  ILE779  LEU786  VAL792 
 PHE793  MET794  SER795  GLU796  ALA797  LYS798  CYS799  TRP800  GLU811  SER814 

> <Gold.Protein.RotatedAtoms>
  151.6627  133.3316  159.3177 H   0  0  0  0  0  0  0  0  0  0  0  0  # atno 6907 bound_to 6896
  150.7906  134.6930  159.6516 H   0  0  0  0  0  0  0  0  0  0  0  0  # atno 6908 bound_to 6896
  152.3984  134.6330  160.0132 H   0  0  0  0  0  0  0  0  0  0  0  0  # atno 6909 bound_to 6896
  145.9777  140.7316  142.9379 H   0  0  0  0  0  0  0  0  0  0  0  0  # atno 7974 bound_to 7965
  155.7367  140.0809  157.2264 H   0  0  0  0  0  0  0  0  0  0  0  0  # atno 8008 bound_to 7997
  154.4026  140.1585  156.2625 H   0  0  0  0  0  0  0  0  0  0  0  0  # atno 8009 bound_to 7997
  155.9058  140.3407  155.6064 H   0  0  0  0  0  0  0  0  0  0  0  0  # atno 8010 bound_to 7997
  140.2695  144.3282  150.6294 H   0  0  0  0  0  0  0  0  0  0  0  0  # atno 10167 bound_to 10162
  157.6895  131.0640  150.4799 H   0  0  0  0  0  0  0  0  0  0  0  0  # atno 10718 bound_to 10713
  153.5509  135.3540  155.2759 H   0  0  0  0  0  0  0  0  0  0  0  0  # atno 10763 bound_to 10752
  154.8707  135.4113  154.2938 H   0  0  0  0  0  0  0  0  0  0  0  0  # atno 10764 bound_to 10752
  153.3664  135.7062  153.6741 H   0  0  0  0  0  0  0  0  0  0  0  0  # atno 10765 bound_to 10752
  140.5167  134.0599  155.7833 H   0  0  0  0  0  0  0  0  0  0  0  0  # atno 11005 bound_to 11000
  144.6853  140.2856  143.7286 LP  0  0  0  0  0  0  0  0  0  0  0  0  # atno 17320 bound_to 7965
  145.7814  139.1893  143.2155 LP  0  0  0  0  0  0  0  0  0  0  0  0  # atno 17321 bound_to 7965
  140.5901  143.2168  151.7268 LP  0  0  0  0  0  0  0  0  0  0  0  0  # atno 17342 bound_to 10162
  139.4993  144.3951  152.0239 LP  0  0  0  0  0  0  0  0  0  0  0  0  # atno 17343 bound_to 10162
  156.5131  130.4144  149.6290 LP  0  0  0  0  0  0  0  0  0  0  0  0  # atno 17370 bound_to 10713
  156.3222  130.7286  151.2200 LP  0  0  0  0  0  0  0  0  0  0  0  0  # atno 17371 bound_to 10713
  141.1357  133.9226  157.2440 LP  0  0  0  0  0  0  0  0  0  0  0  0  # atno 17394 bound_to 11000
  139.9629  135.0149  156.9308 LP  0  0  0  0  0  0  0  0  0  0  0  0  # atno 17395 bound_to 11000

$$$$
