AV-unprocessed.smi:2083|AV-procd|sdf|8507|dock9
  -GOLD-   2272011223D 1   1.00000     0.00000
 Structure written by MMmdl.
 44 45  0  0  0  0  0  0  0  0  3 V2000
  147.2052  136.3872  162.9714 C   0  0  0  0  0  0  0  0  0  0  0  0
  147.1383  136.2496  161.4890 C   0  0  0  0  0  0  0  0  0  0  0  0
  147.7074  135.3717  160.6104 C   0  0  0  0  0  0  0  0  0  0  0  0
  147.2232  135.8171  159.3516 C   0  0  0  0  0  0  0  0  0  0  0  0
  147.5966  135.1490  158.1558 N   0  0  0  0  0  0  0  0  0  0  0  0
  148.2057  133.9581  158.0097 C   0  0  0  0  0  0  0  0  0  0  0  0
  148.5143  133.2878  159.0023 O   0  0  0  0  0  0  0  0  0  0  0  0
  148.4085  133.6429  156.7012 N   0  5  0  0  0  0  0  0  0  0  0  0
  147.4466  133.8955  155.6295 C   0  0  0  0  0  0  0  0  0  0  0  0
  148.1910  134.1823  154.2857 C   0  0  1  0  0  0  0  0  0  0  0  0
  149.4561  133.3135  154.0873 C   0  0  0  0  0  0  0  0  0  0  0  0
  147.3386  134.1367  153.0478 N   0  3  1  0  0  0  0  0  0  0  0  0
  147.1109  132.8007  152.4201 C   0  0  0  0  0  0  0  0  0  0  0  0
  146.5368  132.9611  151.0041 C   0  0  0  0  0  0  0  0  0  0  0  0
  145.2454  133.7898  151.0250 C   0  0  0  0  0  0  0  0  0  0  0  0
  145.4902  135.1500  151.7015 C   0  0  1  0  0  0  0  0  0  0  0  0
  144.2064  135.9906  151.7512 C   0  0  0  0  0  0  0  0  0  0  0  0
  146.0884  134.9476  153.1084 C   0  0  0  0  0  0  0  0  0  0  0  0
  146.4298  136.8733  159.4542 N   0  0  0  0  0  0  0  0  0  0  0  0
  146.3717  137.1558  160.8241 O   0  0  0  0  0  0  0  0  0  0  0  0
  147.6196  135.4880  163.4274 H   0  0  0  0  0  0  0  0  0  0  0  0
  146.2126  136.5517  163.3909 H   0  0  0  0  0  0  0  0  0  0  0  0
  147.8361  137.2307  163.2517 H   0  0  0  0  0  0  0  0  0  0  0  0
  148.3644  134.5442  160.8337 H   0  0  0  0  0  0  0  0  0  0  0  0
  147.3790  135.6361  157.2993 H   0  0  0  0  0  0  0  0  0  0  0  0
  146.7627  133.0583  155.4835 H   0  0  0  0  0  0  0  0  0  0  0  0
  146.8155  134.7507  155.8718 H   0  0  0  0  0  0  0  0  0  0  0  0
  148.5552  135.2096  154.3409 H   0  0  0  0  0  0  0  0  0  0  0  0
  150.2015  133.4912  154.8648 H   0  0  0  0  0  0  0  0  0  0  0  0
  149.9385  133.5492  153.1384 H   0  0  0  0  0  0  0  0  0  0  0  0
  149.2410  132.2438  154.0839 H   0  0  0  0  0  0  0  0  0  0  0  0
  148.0433  132.2403  152.3612 H   0  0  0  0  0  0  0  0  0  0  0  0
  146.4219  132.2085  153.0243 H   0  0  0  0  0  0  0  0  0  0  0  0
  147.2740  133.4452  150.3624 H   0  0  0  0  0  0  0  0  0  0  0  0
  146.3433  131.9806  150.5680 H   0  0  0  0  0  0  0  0  0  0  0  0
  144.8815  133.9332  150.0070 H   0  0  0  0  0  0  0  0  0  0  0  0
  144.4677  133.2425  151.5599 H   0  0  0  0  0  0  0  0  0  0  0  0
  146.2182  135.6986  151.1017 H   0  0  0  0  0  0  0  0  0  0  0  0
  143.4335  135.4996  152.3436 H   0  0  0  0  0  0  0  0  0  0  0  0
  143.8049  136.1537  150.7506 H   0  0  0  0  0  0  0  0  0  0  0  0
  144.3940  136.9694  152.1935 H   0  0  0  0  0  0  0  0  0  0  0  0
  145.3573  134.4615  153.7560 H   0  0  0  0  0  0  0  0  0  0  0  0
  146.3032  135.9221  153.5492 H   0  0  0  0  0  0  0  0  0  0  0  0
  147.9044  134.6296  152.3727 H   0  0  0  0  0  0  0  0  0  0  0  0
  1  2  1  0  0  0  0
  1 21  1  0  0  0  0
  1 22  1  0  0  0  0
  1 23  1  0  0  0  0
  2 20  1  0  0  0  0
  2  3  2  0  0  0  0
  3  4  1  0  0  0  0
  3 24  1  0  0  0  0
  4  5  1  0  0  0  0
  4 19  2  0  0  0  0
  5  6  1  0  0  0  0
  5 25  1  0  0  0  0
  6  7  2  0  0  0  0
  6  8  1  0  0  0  0
  8  9  1  0  0  0  0
  9 10  1  0  0  0  0
  9 26  1  0  0  0  0
  9 27  1  0  0  0  0
 10 11  1  0  0  0  0
 10 12  1  0  0  0  0
 10 28  1  0  0  0  0
 11 29  1  0  0  0  0
 11 30  1  0  0  0  0
 11 31  1  0  0  0  0
 12 18  1  0  0  0  0
 12 13  1  0  0  0  0
 12 44  1  0  0  0  0
 13 14  1  0  0  0  0
 13 32  1  0  0  0  0
 13 33  1  0  0  0  0
 14 15  1  0  0  0  0
 14 34  1  0  0  0  0
 14 35  1  0  0  0  0
 15 16  1  0  0  0  0
 15 36  1  0  0  0  0
 15 37  1  0  0  0  0
 16 17  1  0  0  0  0
 16 18  1  0  0  0  0
 16 38  1  0  0  0  0
 17 39  1  0  0  0  0
 17 40  1  0  0  0  0
 17 41  1  0  0  0  0
 18 42  1  0  0  0  0
 18 43  1  0  0  0  0
 19 20  1  0  0  0  0
M  CHG  1   8  -1
M  CHG  1  12   1
M  END
> <s_m_source_file>
AV-unprocessed.smi

> <i_m_source_file_index>
2083

> <i_lp_mmshare_version>
43012

> <i_f3d_flags>
0

> <s_epik_input>
W0NIM11jMVtjSF1jKG5vMSlbTkhdQyg9TylbTkhdW0NIMl1bQ0BIXShbQ0gzXSlOMltDSDJdW0NIMl1bQ0gyXVtDQEBIXShbQ0gzXSlbQ0gyXTI=

> <s_epik_cmdline>
J2VwaWtfcHl0aG9uJywgJy1waCcsICc3LjAnLCAnLXRuJywgJzgnLCAnLW1hJywgJzIwMCcsICctbWV0YWxfYmluZGluZycsICctaW1hZScsICc8aW5maWxlLm1hZT4nLCAnLW9tYWUnLCAnPG91dGZpbGUubWFlPic=

> <r_epik_Ionization_Penalty>
6.76934

> <r_epik_Ionization_Penalty_Charging>
6.76934

> <r_epik_Ionization_Penalty_Neutral>
5.77849e-06

> <r_epik_State_Penalty>
6.79457

> <r_epik_Charging_Adjusted_Penalty>
13.5639

> <i_epik_Tot_Q>
0

> <i_epik_Tot_abs_Q>
2

> <r_epik_Metal_State_Penalty>
2.72837

> <b_epik_Metal_Only>
1

> <s_lp_Force_Field>
OPLS_2005

> <r_lp_Energy>
21.1768

> <b_lp_Chiralities_Consistent>
1

> <s_lp_Variant>
AV-unprocessed.smi:2083-18

> <Gold.Version>
5.8.1

> <Gold.Id.Protein>
6NUR|6NUR_protein|mol2

> <Gold.PLP.Fitness>
40.8610

> <Gold.PLP.PLP>
-30.4298

> <Gold.PLP.part.hbond>
-3.0000

> <Gold.PLP.part.metal>
0.0000

> <Gold.PLP.part.buried>
-3.6094

> <Gold.PLP.part.nonpolar>
-24.4721

> <Gold.PLP.part.repulsive>
0.0428

> <Gold.PLP.ligand.clash>
0.0000

> <Gold.PLP.ligand.torsion>
0.9020

> <Gold.PLP.Chemscore.Hbond>
4.0000

> <Gold.PLP.Chemscore.CHOScore>
0.0000

> <Gold.PLP.Chemscore.Metal>
0.0000

> <Gold.Chemscore.Hbonds>
donor molecule, donor type, donor heavy atom, donor atom, acceptor molecule, acceptor atom, score
      L1  H    12    44       P1  7948  2.00
      P1  H  6896  6909       L1     7  0.36
      P1  H  6934  6947       L1    20  0.99

> <Gold.PLP.Chemscore.Internal.Correction>
0.2352

> <Gold.Rescore>
     Score         DG    S(hbond)    S(metal)    S(lipo)     H(rot)  DE(clash)    DE(int)     intcor
     13.52     -16.18       2.10        0.00      64.82       1.52       0.33       2.33       ----

> <Gold.Chemscore.Fitness>
13.5234

> <Gold.Chemscore.DG>
-16.1813

> <Gold.Chemscore.ZeroCoef>
-5.4800

> <Gold.Chemscore.Hbond>
2.0975

> <Gold.Chemscore.Metal>
0.0000

> <Gold.Chemscore.Lipo>
64.8221

> <Gold.Chemscore.Internal_Hbond>
0.0000

> <Gold.Chemscore.DEClash>
0.3291

> <Gold.Chemscore.DEInternal>
2.3288

> <Gold.Chemscore.Rot>
1.5190

> <Gold.Chemscore.Internal.Correction>
   9.000000E+99

> <Gold.Chemscore.Hbonds>
donor molecule, donor type, donor heavy atom, donor atom, acceptor molecule, acceptor atom, score
      L1  H    12    44       P1  7948  0.53
      P1  H  6896  6909       L1     7  0.10
      P1  H  6934  6947       L1    20  0.30

> <Gold.Chemscore.Hbond.Weighted>
-7.0057

> <Gold.Chemscore.Metal.Weighted>
-0.0000

> <Gold.Chemscore.Lipo.Weighted>
-7.5842

> <Gold.Chemscore.Internal_Hbond.Weighted>
0.0000

> <Gold.Chemscore.DEClash.Weighted>
0.3291

> <Gold.Chemscore.DEInternal.Weighted>
2.3288

> <Gold.Chemscore.Rot.Weighted>
3.8886

> <Gold.Chemscore.Internal.Correction.Weighted>
   9.000000E+99

> <Gold.Protein.RotatedTorsions>
[ 6907 6896 6895 6894 ] final   12.47 input  -60.11 | X-H torsion
[ 7974 7965 7964 7962 ] final  118.94 input  175.53 | X-H torsion
[ 8008 7997 7996 7995 ] final -142.91 input   59.86 | X-H torsion
[ 10167 10162 10161 10158 ] final  177.93 input  -65.29 | X-H torsion
[ 10718 10713 10712 10709 ] final -137.70 input   66.30 | X-H torsion
[ 10763 10752 10751 10750 ] final  -25.65 input  -60.55 | X-H torsion
[ 11005 11000 10999 10996 ] final  -30.35 input  -57.11 | X-H torsion

> <Gold.Protein.ActiveResidues>
 VAL166  LYS551  ARG553  GLY616  TRP617  ASP618  TYR619  PRO620  LYS621  CYS622 
 ASP623  PHE694  ASN695  SER759  ASP760  ASP761  ALA762  ILE779  LEU786  VAL792 
 PHE793  MET794  SER795  GLU796  ALA797  LYS798  CYS799  TRP800  GLU811  SER814 

> <Gold.Protein.RotatedAtoms>
  151.7708  135.0787  160.0359 H   0  0  0  0  0  0  0  0  0  0  0  0  # atno 6907 bound_to 6896
  152.3290  133.5932  159.5804 H   0  0  0  0  0  0  0  0  0  0  0  0  # atno 6908 bound_to 6896
  150.7411  133.9813  159.3619 H   0  0  0  0  0  0  0  0  0  0  0  0  # atno 6909 bound_to 6896
  145.1491  139.3221  143.4576 H   0  0  0  0  0  0  0  0  0  0  0  0  # atno 7974 bound_to 7965
  155.5019  140.0576  157.2937 H   0  0  0  0  0  0  0  0  0  0  0  0  # atno 8008 bound_to 7997
  154.4584  140.1984  156.0264 H   0  0  0  0  0  0  0  0  0  0  0  0  # atno 8009 bound_to 7997
  156.0843  140.3242  155.7737 H   0  0  0  0  0  0  0  0  0  0  0  0  # atno 8010 bound_to 7997
  139.5273  144.2740  152.0603 H   0  0  0  0  0  0  0  0  0  0  0  0  # atno 10167 bound_to 10162
  156.2911  130.7375  151.1401 H   0  0  0  0  0  0  0  0  0  0  0  0  # atno 10718 bound_to 10713
  153.7032  135.6955  153.5057 H   0  0  0  0  0  0  0  0  0  0  0  0  # atno 10763 bound_to 10752
  153.2327  135.4332  155.0612 H   0  0  0  0  0  0  0  0  0  0  0  0  # atno 10764 bound_to 10752
  154.8338  135.3488  154.6571 H   0  0  0  0  0  0  0  0  0  0  0  0  # atno 10765 bound_to 10752
  140.9375  133.7299  156.1026 H   0  0  0  0  0  0  0  0  0  0  0  0  # atno 11005 bound_to 11000
  146.3496  140.1559  142.8591 LP  0  0  0  0  0  0  0  0  0  0  0  0  # atno 17320 bound_to 7965
  145.0449  140.8974  143.5030 LP  0  0  0  0  0  0  0  0  0  0  0  0  # atno 17321 bound_to 7965
  140.2199  144.4477  150.6347 LP  0  0  0  0  0  0  0  0  0  0  0  0  # atno 17342 bound_to 10162
  140.6425  143.2206  151.6258 LP  0  0  0  0  0  0  0  0  0  0  0  0  # atno 17343 bound_to 10162
  157.7342  131.0583  150.5534 LP  0  0  0  0  0  0  0  0  0  0  0  0  # atno 17370 bound_to 10713
  156.5650  130.4265  149.6045 LP  0  0  0  0  0  0  0  0  0  0  0  0  # atno 17371 bound_to 10713
  140.7779  134.3758  157.5494 LP  0  0  0  0  0  0  0  0  0  0  0  0  # atno 17394 bound_to 11000
  139.8811  134.9063  156.2920 LP  0  0  0  0  0  0  0  0  0  0  0  0  # atno 17395 bound_to 11000

$$$$
