AV-unprocessed.smi:2131|AV-procd|sdf|8690|dock4
  -GOLD-   2272011443D 1   1.00000     0.00000
 Structure written by MMmdl.
 41 43  0  0  0  0  0  0  0  0  2 V2000
  153.5044  131.5585  163.5666 N   0  0  0  0  0  0  0  0  0  0  0  0
  154.1459  132.5166  163.6623 C   0  0  0  0  0  0  0  0  0  0  0  0
  154.9612  133.7346  163.7842 C   0  0  0  0  0  0  0  0  0  0  0  0
  154.5141  134.8152  162.8217 C   0  0  0  0  0  0  0  0  0  0  0  0
  153.9577  136.0133  163.3103 C   0  0  0  0  0  0  0  0  0  0  0  0
  153.5387  137.0143  162.4131 C   0  0  0  0  0  0  0  0  0  0  0  0
  153.6657  136.8356  161.0202 C   0  0  0  0  0  0  0  0  0  0  0  0
  153.2277  137.8651  160.2151 O   0  0  0  0  0  0  0  0  0  0  0  0
  153.2431  137.6718  158.8067 C   0  0  0  0  0  0  0  0  0  0  0  0
  152.9772  139.0183  158.1183 C   0  0  1  0  0  0  0  0  0  0  0  0
  153.4596  138.9513  156.7907 O   0  0  0  0  0  0  0  0  0  0  0  0
  151.4802  139.3873  158.1070 C   0  0  0  0  0  0  0  0  0  0  0  0
  151.2480  140.8171  157.8656 N   0  0  0  0  0  0  0  0  0  0  0  0
  150.5471  141.4353  156.8768 C   0  0  0  0  0  0  0  0  0  0  0  0
  150.6336  142.7778  157.0902 N   0  3  0  0  0  0  0  0  0  0  0  0
  151.4012  143.0203  158.2317 C   0  0  0  0  0  0  0  0  0  0  0  0
  151.7704  144.2125  158.8471 C   0  0  0  0  0  0  0  0  0  0  0  0
  152.5683  144.1060  160.0054 C   0  0  0  0  0  0  0  0  0  0  0  0
  152.9673  142.8512  160.5107 C   0  0  0  0  0  0  0  0  0  0  0  0
  152.5855  141.6487  159.8800 C   0  0  0  0  0  0  0  0  0  0  0  0
  151.7985  141.7636  158.7350 C   0  0  0  0  0  0  0  0  0  0  0  0
  154.2279  135.6274  160.5354 C   0  0  0  0  0  0  0  0  0  0  0  0
  154.6482  134.6260  161.4323 C   0  0  0  0  0  0  0  0  0  0  0  0
  154.8925  134.0944  164.8112 H   0  0  0  0  0  0  0  0  0  0  0  0
  156.0029  133.4731  163.5973 H   0  0  0  0  0  0  0  0  0  0  0  0
  153.8488  136.1668  164.3739 H   0  0  0  0  0  0  0  0  0  0  0  0
  153.1114  137.9285  162.7987 H   0  0  0  0  0  0  0  0  0  0  0  0
  154.2204  137.2918  158.5041 H   0  0  0  0  0  0  0  0  0  0  0  0
  152.4879  136.9425  158.5079 H   0  0  0  0  0  0  0  0  0  0  0  0
  153.5447  139.7947  158.6323 H   0  0  0  0  0  0  0  0  0  0  0  0
  152.7626  139.2051  156.2048 H   0  0  0  0  0  0  0  0  0  0  0  0
  150.9591  138.8342  157.3241 H   0  0  0  0  0  0  0  0  0  0  0  0
  151.0009  139.1166  159.0487 H   0  0  0  0  0  0  0  0  0  0  0  0
  150.0218  140.9489  156.0674 H   0  0  0  0  0  0  0  0  0  0  0  0
  151.4663  145.1750  158.4627 H   0  0  0  0  0  0  0  0  0  0  0  0
  152.8810  145.0052  160.5163 H   0  0  0  0  0  0  0  0  0  0  0  0
  153.5794  142.8096  161.4002 H   0  0  0  0  0  0  0  0  0  0  0  0
  152.8958  140.6915  160.2727 H   0  0  0  0  0  0  0  0  0  0  0  0
  154.3487  135.4439  159.4788 H   0  0  0  0  0  0  0  0  0  0  0  0
  155.0734  133.7097  161.0498 H   0  0  0  0  0  0  0  0  0  0  0  0
  150.2014  143.4746  156.4970 H   0  0  0  0  0  0  0  0  0  0  0  0
  1  2  3  0  0  0  0
  2  3  1  0  0  0  0
  3  4  1  0  0  0  0
  3 24  1  0  0  0  0
  3 25  1  0  0  0  0
  4 23  1  0  0  0  0
  4  5  2  0  0  0  0
  5  6  1  0  0  0  0
  5 26  1  0  0  0  0
  6  7  2  0  0  0  0
  6 27  1  0  0  0  0
  7  8  1  0  0  0  0
  7 22  1  0  0  0  0
  8  9  1  0  0  0  0
  9 10  1  0  0  0  0
  9 28  1  0  0  0  0
  9 29  1  0  0  0  0
 10 11  1  0  0  0  0
 10 12  1  0  0  0  0
 10 30  1  0  0  0  0
 11 31  1  0  0  0  0
 12 13  1  0  0  0  0
 12 32  1  0  0  0  0
 12 33  1  0  0  0  0
 13 21  1  0  0  0  0
 13 14  1  0  0  0  0
 14 15  2  0  0  0  0
 14 34  1  0  0  0  0
 15 16  1  0  0  0  0
 15 41  1  0  0  0  0
 16 21  2  0  0  0  0
 16 17  1  0  0  0  0
 17 18  2  0  0  0  0
 17 35  1  0  0  0  0
 18 19  1  0  0  0  0
 18 36  1  0  0  0  0
 19 20  2  0  0  0  0
 19 37  1  0  0  0  0
 20 21  1  0  0  0  0
 20 38  1  0  0  0  0
 22 23  2  0  0  0  0
 22 39  1  0  0  0  0
 23 40  1  0  0  0  0
M  CHG  1  15   1
M  END
> <s_m_source_file>
AV-unprocessed.smi

> <i_m_source_file_index>
2131

> <i_lp_mmshare_version>
43012

> <i_f3d_flags>
0

> <s_epik_input>
TiNDW0NIMl1jMVtjSF1bY0hdYyhbY0hdW2NIXTEpT1tDSDJdW0NASF0oW09IXSlbQ0gyXW4oW2NIXW4yKWMoYzIzKVtjSF1bY0hdW2NIXVtjSF0z

> <s_epik_cmdline>
J2VwaWtfcHl0aG9uJywgJy1waCcsICc3LjAnLCAnLXRuJywgJzgnLCAnLW1hJywgJzIwMCcsICctbWV0YWxfYmluZGluZycsICctaW1hZScsICc8aW5maWxlLm1hZT4nLCAnLW9tYWUnLCAnPG91dGZpbGUubWFlPic=

> <r_lp_tautomer_probability>
1

> <r_epik_Ionization_Penalty>
1.3774

> <r_epik_Ionization_Penalty_Charging>
1.37739

> <r_epik_Ionization_Penalty_Neutral>
2.3994e-06

> <r_epik_State_Penalty>
1.45762

> <r_epik_Charging_Adjusted_Penalty>
2.83501

> <i_epik_Tot_Q>
1

> <i_epik_Tot_abs_Q>
1

> <r_epik_Metal_State_Penalty>
5.49752

> <b_epik_Metal_Only>
0

> <s_lp_Force_Field>
OPLS_2005

> <r_lp_Energy>
20.3244

> <b_lp_Chiralities_Consistent>
1

> <s_lp_Variant>
AV-unprocessed.smi:2131-4

> <Gold.Version>
5.8.1

> <Gold.Id.Protein>
6NUR|6NUR_protein|mol2

> <Gold.PLP.Fitness>
56.2431

> <Gold.PLP.PLP>
-47.9974

> <Gold.PLP.part.hbond>
-2.0000

> <Gold.PLP.part.metal>
0.0000

> <Gold.PLP.part.buried>
-5.6712

> <Gold.PLP.part.nonpolar>
-40.5726

> <Gold.PLP.part.repulsive>
0.0858

> <Gold.PLP.ligand.clash>
0.0000

> <Gold.PLP.ligand.torsion>
0.4402

> <Gold.PLP.Chemscore.Hbond>
2.9840

> <Gold.PLP.Chemscore.CHOScore>
0.0000

> <Gold.PLP.Chemscore.Metal>
0.0000

> <Gold.Chemscore.Hbonds>
donor molecule, donor type, donor heavy atom, donor atom, acceptor molecule, acceptor atom, score
      L1  H    15    41       P1  8028  2.00
      P1  H  7997  8010       L1    11  0.72

> <Gold.PLP.Chemscore.Internal.Correction>
0.1740

> <Gold.Rescore>
     Score         DG    S(hbond)    S(metal)    S(lipo)     H(rot)  DE(clash)    DE(int)     intcor
     18.83     -19.10       1.76        0.00     127.72       2.81       0.03       0.24       ----

> <Gold.Chemscore.Fitness>
18.8312

> <Gold.Chemscore.DG>
-19.0967

> <Gold.Chemscore.ZeroCoef>
-5.4800

> <Gold.Chemscore.Hbond>
1.7596

> <Gold.Chemscore.Metal>
0.0000

> <Gold.Chemscore.Lipo>
127.7218

> <Gold.Chemscore.Internal_Hbond>
0.0000

> <Gold.Chemscore.DEClash>
0.0276

> <Gold.Chemscore.DEInternal>
0.2379

> <Gold.Chemscore.Rot>
2.8140

> <Gold.Chemscore.Internal.Correction>
   9.000000E+99

> <Gold.Chemscore.Hbonds>
donor molecule, donor type, donor heavy atom, donor atom, acceptor molecule, acceptor atom, score
      L1  H    15    41       P1  8028  0.97
      P1  H  7997  8010       L1    11  0.09

> <Gold.Chemscore.Hbond.Weighted>
-5.8772

> <Gold.Chemscore.Metal.Weighted>
-0.0000

> <Gold.Chemscore.Lipo.Weighted>
-14.9435

> <Gold.Chemscore.Internal_Hbond.Weighted>
0.0000

> <Gold.Chemscore.DEClash.Weighted>
0.0276

> <Gold.Chemscore.DEInternal.Weighted>
0.2379

> <Gold.Chemscore.Rot.Weighted>
7.2039

> <Gold.Chemscore.Internal.Correction.Weighted>
   9.000000E+99

> <Gold.Protein.RotatedTorsions>
[ 6907 6896 6895 6894 ] final  127.78 input  -60.11 | X-H torsion
[ 7974 7965 7964 7962 ] final   59.52 input  175.53 | X-H torsion
[ 8008 7997 7996 7995 ] final   68.54 input   59.86 | X-H torsion
[ 10167 10162 10161 10158 ] final   92.64 input  -65.29 | X-H torsion
[ 10718 10713 10712 10709 ] final  172.12 input   66.30 | X-H torsion
[ 10763 10752 10751 10750 ] final   12.09 input  -60.55 | X-H torsion
[ 11005 11000 10999 10996 ] final -108.43 input  -57.11 | X-H torsion

> <Gold.Protein.ActiveResidues>
 VAL166  LYS551  ARG553  GLY616  TRP617  ASP618  TYR619  PRO620  LYS621  CYS622 
 ASP623  PHE694  ASN695  SER759  ASP760  ASP761  ALA762  ILE779  LEU786  VAL792 
 PHE793  MET794  SER795  GLU796  ALA797  LYS798  CYS799  TRP800  GLU811  SER814 

> <Gold.Protein.RotatedAtoms>
  152.3780  133.6508  159.6138 H   0  0  0  0  0  0  0  0  0  0  0  0  # atno 6907 bound_to 6896
  150.7719  133.9160  159.3392 H   0  0  0  0  0  0  0  0  0  0  0  0  # atno 6908 bound_to 6896
  151.6971  135.0938  160.0295 H   0  0  0  0  0  0  0  0  0  0  0  0  # atno 6909 bound_to 6896
  145.9063  139.3619  143.0562 H   0  0  0  0  0  0  0  0  0  0  0  0  # atno 7974 bound_to 7965
  155.7099  140.3494  155.4969 H   0  0  0  0  0  0  0  0  0  0  0  0  # atno 8008 bound_to 7997
  155.9365  140.1093  157.1112 H   0  0  0  0  0  0  0  0  0  0  0  0  # atno 8009 bound_to 7997
  154.4094  140.1221  156.4857 H   0  0  0  0  0  0  0  0  0  0  0  0  # atno 8010 bound_to 7997
  139.8257  144.6710  150.9462 H   0  0  0  0  0  0  0  0  0  0  0  0  # atno 10167 bound_to 10162
  156.9836  131.0126  151.2875 H   0  0  0  0  0  0  0  0  0  0  0  0  # atno 10718 bound_to 10713
  153.1858  135.6835  153.8417 H   0  0  0  0  0  0  0  0  0  0  0  0  # atno 10763 bound_to 10752
  153.7733  135.3193  155.3356 H   0  0  0  0  0  0  0  0  0  0  0  0  # atno 10764 bound_to 10752
  154.8088  135.4731  154.0558 H   0  0  0  0  0  0  0  0  0  0  0  0  # atno 10765 bound_to 10752
  141.0902  133.9068  157.2093 H   0  0  0  0  0  0  0  0  0  0  0  0  # atno 11005 bound_to 11000
  145.8728  140.9410  143.0642 LP  0  0  0  0  0  0  0  0  0  0  0  0  # atno 17320 bound_to 7965
  144.6739  140.0677  143.7474 LP  0  0  0  0  0  0  0  0  0  0  0  0  # atno 17321 bound_to 7965
  140.7810  143.4048  151.1088 LP  0  0  0  0  0  0  0  0  0  0  0  0  # atno 17342 bound_to 10162
  139.7706  143.8500  152.3119 LP  0  0  0  0  0  0  0  0  0  0  0  0  # atno 17343 bound_to 10162
  157.5509  130.8181  149.8143 LP  0  0  0  0  0  0  0  0  0  0  0  0  # atno 17370 bound_to 10713
  156.0235  130.3787  150.1893 LP  0  0  0  0  0  0  0  0  0  0  0  0  # atno 17371 bound_to 10713
  139.9726  135.0123  156.9552 LP  0  0  0  0  0  0  0  0  0  0  0  0  # atno 17394 bound_to 11000
  140.5270  134.0851  155.7306 LP  0  0  0  0  0  0  0  0  0  0  0  0  # atno 17395 bound_to 11000

$$$$
