AV-unprocessed.smi:1424|AV-procd|sdf|5799|dock5
  -GOLD-   22720 5453D 1   1.00000     0.00000
 Structure written by MMmdl.
 45 47  0  0  0  0  0  0  0  0  1 V2000
  149.2368  132.8585  155.1467 O   0  0  0  0  0  0  0  0  0  0  0  0
  149.0811  133.7364  154.2982 C   0  0  0  0  0  0  0  0  0  0  0  0
  149.6699  134.9393  154.3602 N   0  0  0  0  0  0  0  0  0  0  0  0
  150.5498  135.3992  155.4308 C   0  0  0  0  0  0  0  0  0  0  0  0
  150.6031  136.9367  155.5266 C   0  0  2  0  0  0  0  0  0  0  0  0
  151.4298  137.6084  154.4088 C   0  0  0  0  0  0  0  0  0  0  0  0
  151.6545  139.0776  154.7796 C   0  0  0  0  0  0  0  0  0  0  0  0
  151.8126  139.1062  156.6028 S   0  0  0  0  0  0  0  0  0  0  0  0
  153.2361  139.1416  156.9709 O   0  0  0  0  0  0  0  0  0  0  0  0
  150.8636  140.0865  157.1518 O   0  0  0  0  0  0  0  0  0  0  0  0
  151.1711  137.4104  156.8748 C   0  0  0  0  0  0  0  0  0  0  0  0
  148.3015  133.6359  153.2084 N   0  0  0  0  0  0  0  0  0  0  0  0
  147.4886  132.5420  152.7925 C   0  0  0  0  0  0  0  0  0  0  0  0
  147.6995  131.2164  153.2454 C   0  0  0  0  0  0  0  0  0  0  0  0
  146.8607  130.1886  152.7786 C   0  0  0  0  0  0  0  0  0  0  0  0
  145.8443  130.5195  151.8662 C   0  0  0  0  0  0  0  0  0  0  0  0
  145.6408  131.7724  151.4121 N   0  0  0  0  0  0  0  0  0  0  0  0
  146.4405  132.7708  151.8602 C   0  0  0  0  0  0  0  0  0  0  0  0
  146.2247  134.0635  151.3394 N   0  0  0  0  0  0  0  0  0  0  0  0
  145.3000  134.0872  150.2098 C   0  0  0  0  0  0  0  0  0  0  0  0
  144.5171  135.3963  150.3221 C   0  0  0  0  0  0  0  0  0  0  0  0
  144.5107  135.6600  151.8225 C   0  0  0  0  0  0  0  0  0  0  0  0
  145.8861  135.1529  152.2546 C   0  0  0  0  0  0  0  0  0  0  0  0
  149.4807  135.5963  153.6175 H   0  0  0  0  0  0  0  0  0  0  0  0
  150.1640  134.9914  156.3656 H   0  0  0  0  0  0  0  0  0  0  0  0
  151.5544  134.9880  155.3149 H   0  0  0  0  0  0  0  0  0  0  0  0
  149.5851  137.3227  155.4523 H   0  0  0  0  0  0  0  0  0  0  0  0
  152.3977  137.1116  154.3304 H   0  0  0  0  0  0  0  0  0  0  0  0
  150.9477  137.5211  153.4349 H   0  0  0  0  0  0  0  0  0  0  0  0
  152.5426  139.5071  154.3156 H   0  0  0  0  0  0  0  0  0  0  0  0
  150.7891  139.6819  154.5067 H   0  0  0  0  0  0  0  0  0  0  0  0
  150.4260  137.4143  157.6706 H   0  0  0  0  0  0  0  0  0  0  0  0
  152.0092  136.7876  157.1894 H   0  0  0  0  0  0  0  0  0  0  0  0
  148.2064  134.4742  152.6539 H   0  0  0  0  0  0  0  0  0  0  0  0
  148.4956  130.9652  153.9288 H   0  0  0  0  0  0  0  0  0  0  0  0
  146.9978  129.1697  153.1091 H   0  0  0  0  0  0  0  0  0  0  0  0
  145.1817  129.7573  151.4838 H   0  0  0  0  0  0  0  0  0  0  0  0
  145.8336  134.0234  149.2614 H   0  0  0  0  0  0  0  0  0  0  0  0
  144.6155  133.2386  150.2664 H   0  0  0  0  0  0  0  0  0  0  0  0
  145.0538  136.1958  149.8092 H   0  0  0  0  0  0  0  0  0  0  0  0
  143.5164  135.3307  149.8946 H   0  0  0  0  0  0  0  0  0  0  0  0
  144.3457  136.7081  152.0735 H   0  0  0  0  0  0  0  0  0  0  0  0
  143.7290  135.0679  152.3004 H   0  0  0  0  0  0  0  0  0  0  0  0
  145.9025  134.8785  153.3096 H   0  0  0  0  0  0  0  0  0  0  0  0
  146.6296  135.9396  152.1215 H   0  0  0  0  0  0  0  0  0  0  0  0
  1  2  2  0  0  0  0
  2  3  1  0  0  0  0
  2 12  1  0  0  0  0
  3  4  1  0  0  0  0
  3 24  1  0  0  0  0
  4  5  1  0  0  0  0
  4 25  1  0  0  0  0
  4 26  1  0  0  0  0
  5 11  1  0  0  0  0
  5  6  1  0  0  0  0
  5 27  1  0  0  0  0
  6  7  1  0  0  0  0
  6 28  1  0  0  0  0
  6 29  1  0  0  0  0
  7  8  1  0  0  0  0
  7 30  1  0  0  0  0
  7 31  1  0  0  0  0
  8  9  2  0  0  0  0
  8 10  2  0  0  0  0
  8 11  1  0  0  0  0
 11 32  1  0  0  0  0
 11 33  1  0  0  0  0
 12 13  1  0  0  0  0
 12 34  1  0  0  0  0
 13 18  1  0  0  0  0
 13 14  2  0  0  0  0
 14 15  1  0  0  0  0
 14 35  1  0  0  0  0
 15 16  2  0  0  0  0
 15 36  1  0  0  0  0
 16 17  1  0  0  0  0
 16 37  1  0  0  0  0
 17 18  2  0  0  0  0
 18 19  1  0  0  0  0
 19 23  1  0  0  0  0
 19 20  1  0  0  0  0
 20 21  1  0  0  0  0
 20 38  1  0  0  0  0
 20 39  1  0  0  0  0
 21 22  1  0  0  0  0
 21 40  1  0  0  0  0
 21 41  1  0  0  0  0
 22 23  1  0  0  0  0
 22 42  1  0  0  0  0
 22 43  1  0  0  0  0
 23 44  1  0  0  0  0
 23 45  1  0  0  0  0
M  END
> <s_m_source_file>
AV-unprocessed.smi

> <i_m_source_file_index>
1424

> <i_lp_mmshare_version>
43012

> <i_f3d_flags>
0

> <s_epik_input>
Tz1TMSg9TylbQ0gyXVtDSDJdW0NASF0oW0NIMl0xKVtDSDJdW05IXUMoPU8pW05IXWMyW2NIXVtjSF1bY0hdbmMyTjNbQ0gyXVtDSDJdW0NIMl1bQ0gyXTM=

> <s_epik_cmdline>
J2VwaWtfcHl0aG9uJywgJy1waCcsICc3LjAnLCAnLXRuJywgJzgnLCAnLW1hJywgJzIwMCcsICctbWV0YWxfYmluZGluZycsICctaW1hZScsICc8aW5maWxlLm1hZT4nLCAnLW9tYWUnLCAnPG91dGZpbGUubWFlPic=

> <r_lp_tautomer_probability>
1

> <r_epik_Ionization_Penalty>
0.0965651

> <r_epik_Ionization_Penalty_Charging>
0

> <r_epik_Ionization_Penalty_Neutral>
0.0965651

> <r_epik_State_Penalty>
0.0861592

> <r_epik_Charging_Adjusted_Penalty>
0.0861592

> <i_epik_Tot_Q>
0

> <i_epik_Tot_abs_Q>
0

> <r_epik_Metal_State_Penalty>
0.0740444

> <b_epik_Metal_Only>
0

> <s_lp_Force_Field>
OPLS_2005

> <r_lp_Energy>
33.9356

> <b_lp_Chiralities_Consistent>
1

> <s_lp_Variant>
AV-unprocessed.smi:1424-1

> <Gold.Version>
5.8.1

> <Gold.Id.Protein>
6NUR|6NUR_protein|mol2

> <Gold.PLP.Fitness>
44.2683

> <Gold.PLP.PLP>
-36.1634

> <Gold.PLP.part.hbond>
-2.7789

> <Gold.PLP.part.metal>
0.0000

> <Gold.PLP.part.buried>
-3.0534

> <Gold.PLP.part.nonpolar>
-30.2110

> <Gold.PLP.part.repulsive>
0.3442

> <Gold.PLP.ligand.clash>
0.0000

> <Gold.PLP.ligand.torsion>
0.4808

> <Gold.PLP.Chemscore.Hbond>
2.9833

> <Gold.PLP.Chemscore.CHOScore>
0.0000

> <Gold.PLP.Chemscore.Metal>
0.0000

> <Gold.Chemscore.Hbonds>
donor molecule, donor type, donor heavy atom, donor atom, acceptor molecule, acceptor atom, score
      L1  H     3    24       P1  7948  1.00
      L1  H    12    34       P1  7948  1.00
      P1  H  7997  8010       L1     9  1.00

> <Gold.PLP.Chemscore.Internal.Correction>
0.1165

> <Gold.Rescore>
     Score         DG    S(hbond)    S(metal)    S(lipo)     H(rot)  DE(clash)    DE(int)     intcor
     15.13     -18.14       2.30        0.00      74.91       1.47       0.23       2.78       ----

> <Gold.Chemscore.Fitness>
15.1316

> <Gold.Chemscore.DG>
-18.1425

> <Gold.Chemscore.ZeroCoef>
-5.4800

> <Gold.Chemscore.Hbond>
2.2973

> <Gold.Chemscore.Metal>
0.0000

> <Gold.Chemscore.Lipo>
74.9056

> <Gold.Chemscore.Internal_Hbond>
0.0000

> <Gold.Chemscore.DEClash>
0.2323

> <Gold.Chemscore.DEInternal>
2.7786

> <Gold.Chemscore.Rot>
1.4744

> <Gold.Chemscore.Internal.Correction>
   9.000000E+99

> <Gold.Chemscore.Hbonds>
donor molecule, donor type, donor heavy atom, donor atom, acceptor molecule, acceptor atom, score
      L1  H     3    24       P1  7948  0.25
      L1  H    12    34       P1  7948  0.27
      P1  H  7997  8010       L1     9  0.92

> <Gold.Chemscore.Hbond.Weighted>
-7.6730

> <Gold.Chemscore.Metal.Weighted>
-0.0000

> <Gold.Chemscore.Lipo.Weighted>
-8.7640

> <Gold.Chemscore.Internal_Hbond.Weighted>
0.0000

> <Gold.Chemscore.DEClash.Weighted>
0.2323

> <Gold.Chemscore.DEInternal.Weighted>
2.7786

> <Gold.Chemscore.Rot.Weighted>
3.7744

> <Gold.Chemscore.Internal.Correction.Weighted>
   9.000000E+99

> <Gold.Protein.RotatedTorsions>
[ 6907 6896 6895 6894 ] final  -53.31 input  -60.11 | X-H torsion
[ 7974 7965 7964 7962 ] final -171.13 input  175.53 | X-H torsion
[ 8008 7997 7996 7995 ] final   75.49 input   59.86 | X-H torsion
[ 10167 10162 10161 10158 ] final  -22.92 input  -65.29 | X-H torsion
[ 10718 10713 10712 10709 ] final  -63.98 input   66.30 | X-H torsion
[ 10763 10752 10751 10750 ] final  -35.28 input  -60.55 | X-H torsion
[ 11005 11000 10999 10996 ] final  142.90 input  -57.11 | X-H torsion

> <Gold.Protein.ActiveResidues>
 VAL166  LYS551  ARG553  GLY616  TRP617  ASP618  TYR619  PRO620  LYS621  CYS622 
 ASP623  PHE694  ASN695  SER759  ASP760  ASP761  ALA762  ILE779  LEU786  VAL792 
 PHE793  MET794  SER795  GLU796  ALA797  LYS798  CYS799  TRP800  GLU811  SER814 

> <Gold.Protein.RotatedAtoms>
  150.8439  134.7740  159.6954 H   0  0  0  0  0  0  0  0  0  0  0  0  # atno 6907 bound_to 6896
  152.4520  134.5370  159.9837 H   0  0  0  0  0  0  0  0  0  0  0  0  # atno 6908 bound_to 6896
  151.5504  133.3380  159.2988 H   0  0  0  0  0  0  0  0  0  0  0  0  # atno 6909 bound_to 6896
  144.7161  140.1969  143.6342 H   0  0  0  0  0  0  0  0  0  0  0  0  # atno 7974 bound_to 7965
  155.8136  140.3472  155.5472 H   0  0  0  0  0  0  0  0  0  0  0  0  # atno 8008 bound_to 7997
  155.8415  140.0942  157.1752 H   0  0  0  0  0  0  0  0  0  0  0  0  # atno 8009 bound_to 7997
  154.4005  140.1393  156.3722 H   0  0  0  0  0  0  0  0  0  0  0  0  # atno 8010 bound_to 7997
  140.7287  143.4490  151.0544 H   0  0  0  0  0  0  0  0  0  0  0  0  # atno 10167 bound_to 10162
  156.0757  130.4227  150.1354 H   0  0  0  0  0  0  0  0  0  0  0  0  # atno 10718 bound_to 10713
  153.8606  135.6840  153.4783 H   0  0  0  0  0  0  0  0  0  0  0  0  # atno 10763 bound_to 10752
  153.1344  135.4684  154.9397 H   0  0  0  0  0  0  0  0  0  0  0  0  # atno 10764 bound_to 10752
  154.7760  135.3253  154.8040 H   0  0  0  0  0  0  0  0  0  0  0  0  # atno 10765 bound_to 10752
  140.0512  134.9254  157.1020 H   0  0  0  0  0  0  0  0  0  0  0  0  # atno 11005 bound_to 11000
  145.8717  139.2275  143.1657 LP  0  0  0  0  0  0  0  0  0  0  0  0  # atno 17320 bound_to 7965
  146.0079  140.8462  142.9986 LP  0  0  0  0  0  0  0  0  0  0  0  0  # atno 17321 bound_to 7965
  139.8164  143.7880  152.3174 LP  0  0  0  0  0  0  0  0  0  0  0  0  # atno 17342 bound_to 10162
  139.7947  144.7397  150.9906 LP  0  0  0  0  0  0  0  0  0  0  0  0  # atno 17343 bound_to 10162
  156.9396  130.9740  151.3518 LP  0  0  0  0  0  0  0  0  0  0  0  0  # atno 17370 bound_to 10713
  157.5851  130.8404  149.8578 LP  0  0  0  0  0  0  0  0  0  0  0  0  # atno 17371 bound_to 10713
  140.3914  134.2180  155.7166 LP  0  0  0  0  0  0  0  0  0  0  0  0  # atno 17394 bound_to 11000
  141.1931  133.8158  157.0812 LP  0  0  0  0  0  0  0  0  0  0  0  0  # atno 17395 bound_to 11000

$$$$
