AV-unprocessed.smi:1190|AV-procd|sdf|4982|dock7
  -GOLD-   22720 3583D 1   1.00000     0.00000
 Structure written by MMmdl.
 44 45  0  0  0  0  0  0  0  0  2 V2000
  150.9523  141.6109  157.5180 C   0  0  0  0  0  0  0  0  0  0  0  0
  151.3459  140.8702  156.3681 O   0  0  0  0  0  0  0  0  0  0  0  0
  150.4824  139.9111  155.8800 C   0  0  0  0  0  0  0  0  0  0  0  0
  149.4252  139.4744  156.7021 C   0  0  0  0  0  0  0  0  0  0  0  0
  148.5411  138.4975  156.2076 C   0  0  0  0  0  0  0  0  0  0  0  0
  148.7314  137.9907  154.9062 C   0  0  0  0  0  0  0  0  0  0  0  0
  147.8295  136.9942  154.4437 N   0  0  0  0  0  0  0  0  0  0  0  0
  146.6198  136.6654  154.9286 C   0  0  0  0  0  0  0  0  0  0  0  0
  146.0768  137.1823  155.9037 O   0  0  0  0  0  0  0  0  0  0  0  0
  146.0700  135.6692  154.2199 N   0  0  0  0  0  0  0  0  0  0  0  0
  144.7569  135.0748  154.4682 C   0  0  0  0  0  0  0  0  0  0  0  0
  143.9729  134.7395  153.1707 C   0  0  2  0  0  0  0  0  0  0  0  0
  142.4725  135.0478  153.3689 C   0  0  0  0  0  0  0  0  0  0  0  0
  144.2156  133.3390  152.6933 N   0  3  0  0  0  0  0  0  0  0  0  0
  143.8166  133.0975  151.2791 C   0  0  0  0  0  0  0  0  0  0  0  0
  144.0758  131.6379  150.8686 C   0  0  0  0  0  0  0  0  0  0  0  0
  145.4438  131.3165  151.0700 O   0  0  0  0  0  0  0  0  0  0  0  0
  145.8076  131.4316  152.4371 C   0  0  0  0  0  0  0  0  0  0  0  0
  145.6183  132.8853  152.9006 C   0  0  0  0  0  0  0  0  0  0  0  0
  149.8316  138.4844  154.1628 C   0  0  0  0  0  0  0  0  0  0  0  0
  150.6834  139.4208  154.6319 N   0  0  0  0  0  0  0  0  0  0  0  0
  151.7382  142.3204  157.7764 H   0  0  0  0  0  0  0  0  0  0  0  0
  150.7995  140.9593  158.3794 H   0  0  0  0  0  0  0  0  0  0  0  0
  150.0404  142.1804  157.3332 H   0  0  0  0  0  0  0  0  0  0  0  0
  149.2955  139.8811  157.6942 H   0  0  0  0  0  0  0  0  0  0  0  0
  147.7247  138.1466  156.8219 H   0  0  0  0  0  0  0  0  0  0  0  0
  148.1679  136.4324  153.6766 H   0  0  0  0  0  0  0  0  0  0  0  0
  146.5873  135.3119  153.4298 H   0  0  0  0  0  0  0  0  0  0  0  0
  144.8501  134.1900  155.1004 H   0  0  0  0  0  0  0  0  0  0  0  0
  144.1897  135.7828  155.0718 H   0  0  0  0  0  0  0  0  0  0  0  0
  144.3296  135.4176  152.3936 H   0  0  0  0  0  0  0  0  0  0  0  0
  142.3298  136.0188  153.8442 H   0  0  0  0  0  0  0  0  0  0  0  0
  141.9871  134.3001  153.9964 H   0  0  0  0  0  0  0  0  0  0  0  0
  141.9363  135.0938  152.4213 H   0  0  0  0  0  0  0  0  0  0  0  0
  142.7556  133.2950  151.1336 H   0  0  0  0  0  0  0  0  0  0  0  0
  144.3662  133.7744  150.6233 H   0  0  0  0  0  0  0  0  0  0  0  0
  143.4406  130.9553  151.4354 H   0  0  0  0  0  0  0  0  0  0  0  0
  143.8328  131.4961  149.8153 H   0  0  0  0  0  0  0  0  0  0  0  0
  145.2154  130.7464  153.0461 H   0  0  0  0  0  0  0  0  0  0  0  0
  146.8507  131.1356  152.5492 H   0  0  0  0  0  0  0  0  0  0  0  0
  146.2981  133.5407  152.3540 H   0  0  0  0  0  0  0  0  0  0  0  0
  145.8962  132.9421  153.9519 H   0  0  0  0  0  0  0  0  0  0  0  0
  150.0663  138.1219  153.1746 H   0  0  0  0  0  0  0  0  0  0  0  0
  143.6298  132.7409  153.2584 H   0  0  0  0  0  0  0  0  0  0  0  0
  1  2  1  0  0  0  0
  1 22  1  0  0  0  0
  1 23  1  0  0  0  0
  1 24  1  0  0  0  0
  2  3  1  0  0  0  0
  3 21  1  0  0  0  0
  3  4  2  0  0  0  0
  4  5  1  0  0  0  0
  4 25  1  0  0  0  0
  5  6  2  0  0  0  0
  5 26  1  0  0  0  0
  6  7  1  0  0  0  0
  6 20  1  0  0  0  0
  7  8  1  0  0  0  0
  7 27  1  0  0  0  0
  8  9  2  0  0  0  0
  8 10  1  0  0  0  0
 10 11  1  0  0  0  0
 10 28  1  0  0  0  0
 11 12  1  0  0  0  0
 11 29  1  0  0  0  0
 11 30  1  0  0  0  0
 12 13  1  0  0  0  0
 12 14  1  0  0  0  0
 12 31  1  0  0  0  0
 13 32  1  0  0  0  0
 13 33  1  0  0  0  0
 13 34  1  0  0  0  0
 14 19  1  0  0  0  0
 14 15  1  0  0  0  0
 14 44  1  0  0  0  0
 15 16  1  0  0  0  0
 15 35  1  0  0  0  0
 15 36  1  0  0  0  0
 16 17  1  0  0  0  0
 16 37  1  0  0  0  0
 16 38  1  0  0  0  0
 17 18  1  0  0  0  0
 18 19  1  0  0  0  0
 18 39  1  0  0  0  0
 18 40  1  0  0  0  0
 19 41  1  0  0  0  0
 19 42  1  0  0  0  0
 20 21  2  0  0  0  0
 20 43  1  0  0  0  0
M  CHG  1  14   1
M  END
> <s_m_source_file>
AV-unprocessed.smi

> <i_m_source_file_index>
1190

> <i_lp_mmshare_version>
43012

> <i_f3d_flags>
0

> <s_epik_input>
W0NIM11PYzFbY0hdW2NIXWMoW2NIXW4xKVtOSF1DKD1PKVtOSF1bQ0gyXVtDQEhdKFtDSDNdKU4yW0NIMl1bQ0gyXU9bQ0gyXVtDSDJdMg==

> <s_epik_cmdline>
J2VwaWtfcHl0aG9uJywgJy1waCcsICc3LjAnLCAnLXRuJywgJzgnLCAnLW1hJywgJzIwMCcsICctbWV0YWxfYmluZGluZycsICctaW1hZScsICc8aW5maWxlLm1hZT4nLCAnLW9tYWUnLCAnPG91dGZpbGUubWFlPic=

> <r_lp_tautomer_probability>
1

> <r_epik_Ionization_Penalty>
0.602608

> <r_epik_Ionization_Penalty_Charging>
0.602531

> <r_epik_Ionization_Penalty_Neutral>
7.70246e-05

> <r_epik_State_Penalty>
0.617039

> <r_epik_Charging_Adjusted_Penalty>
1.21957

> <i_epik_Tot_Q>
1

> <i_epik_Tot_abs_Q>
1

> <r_epik_Metal_State_Penalty>
0.617043

> <b_epik_Metal_Only>
0

> <s_lp_Force_Field>
OPLS_2005

> <r_lp_Energy>
31.3292

> <b_lp_Chiralities_Consistent>
1

> <s_lp_Variant>
AV-unprocessed.smi:1190-3

> <Gold.Version>
5.8.1

> <Gold.Id.Protein>
6NUR|6NUR_protein|mol2

> <Gold.PLP.Fitness>
39.5912

> <Gold.PLP.PLP>
-24.8202

> <Gold.PLP.part.hbond>
-2.9862

> <Gold.PLP.part.metal>
0.0000

> <Gold.PLP.part.buried>
-5.4439

> <Gold.PLP.part.nonpolar>
-18.2172

> <Gold.PLP.part.repulsive>
0.2625

> <Gold.PLP.ligand.clash>
0.0000

> <Gold.PLP.ligand.torsion>
1.1703

> <Gold.PLP.Chemscore.Hbond>
3.9825

> <Gold.PLP.Chemscore.CHOScore>
1.6921

> <Gold.PLP.Chemscore.Metal>
0.0000

> <Gold.Chemscore.Hbonds>
donor molecule, donor type, donor heavy atom, donor atom, acceptor molecule, acceptor atom, score
      L1  H     7    27       P1  7948  1.00
      L1  H    14    44       P1 10957  1.95
      P1  H  7989  7998       L1    21  0.91
      L1  C    20    43       P1  7948  1.00
      L1  C    20    43       P1  7957  0.23

> <Gold.PLP.Chemscore.Internal.Correction>
0.0879

> <Gold.Rescore>
     Score         DG    S(hbond)    S(metal)    S(lipo)     H(rot)  DE(clash)    DE(int)     intcor
     13.87     -16.42       2.81        0.00      52.32       1.79       0.01       2.53       ----

> <Gold.Chemscore.Fitness>
13.8742

> <Gold.Chemscore.DG>
-16.4201

> <Gold.Chemscore.ZeroCoef>
-5.4800

> <Gold.Chemscore.Hbond>
2.8133

> <Gold.Chemscore.Metal>
0.0000

> <Gold.Chemscore.Lipo>
52.3171

> <Gold.Chemscore.Internal_Hbond>
0.0000

> <Gold.Chemscore.DEClash>
0.0149

> <Gold.Chemscore.DEInternal>
2.5310

> <Gold.Chemscore.Rot>
1.7881

> <Gold.Chemscore.Internal.Correction>
   9.000000E+99

> <Gold.Chemscore.Hbonds>
donor molecule, donor type, donor heavy atom, donor atom, acceptor molecule, acceptor atom, score
      L1  H     7    27       P1  7948  0.94
      L1  H    14    44       P1 10957  0.41
      P1  H  7989  7998       L1    21  0.61

> <Gold.Chemscore.Hbond.Weighted>
-9.3965

> <Gold.Chemscore.Metal.Weighted>
-0.0000

> <Gold.Chemscore.Lipo.Weighted>
-6.1211

> <Gold.Chemscore.Internal_Hbond.Weighted>
0.0000

> <Gold.Chemscore.DEClash.Weighted>
0.0149

> <Gold.Chemscore.DEInternal.Weighted>
2.5310

> <Gold.Chemscore.Rot.Weighted>
4.5775

> <Gold.Chemscore.Internal.Correction.Weighted>
   9.000000E+99

> <Gold.Protein.RotatedTorsions>
[ 6907 6896 6895 6894 ] final  -42.29 input  -60.11 | X-H torsion
[ 7974 7965 7964 7962 ] final  113.60 input  175.53 | X-H torsion
[ 8008 7997 7996 7995 ] final  -69.42 input   59.86 | X-H torsion
[ 10167 10162 10161 10158 ] final -174.16 input  -65.29 | X-H torsion
[ 10718 10713 10712 10709 ] final  -64.39 input   66.30 | X-H torsion
[ 10763 10752 10751 10750 ] final -142.74 input  -60.55 | X-H torsion
[ 11005 11000 10999 10996 ] final -126.60 input  -57.11 | X-H torsion

> <Gold.Protein.ActiveResidues>
 VAL166  LYS551  ARG553  GLY616  TRP617  ASP618  TYR619  PRO620  LYS621  CYS622 
 ASP623  PHE694  ASN695  SER759  ASP760  ASP761  ALA762  ILE779  LEU786  VAL792 
 PHE793  MET794  SER795  GLU796  ALA797  LYS798  CYS799  TRP800  GLU811  SER814 

> <Gold.Protein.RotatedAtoms>
  150.9569  134.8962  159.7706 H   0  0  0  0  0  0  0  0  0  0  0  0  # atno 6907 bound_to 6896
  152.5141  134.3728  159.9334 H   0  0  0  0  0  0  0  0  0  0  0  0  # atno 6908 bound_to 6896
  151.3741  133.3804  159.2737 H   0  0  0  0  0  0  0  0  0  0  0  0  # atno 6909 bound_to 6896
  145.2149  139.2889  143.4249 H   0  0  0  0  0  0  0  0  0  0  0  0  # atno 7974 bound_to 7965
  154.4937  140.0854  156.7650 H   0  0  0  0  0  0  0  0  0  0  0  0  # atno 8008 bound_to 7997
  155.4168  140.3444  155.4250 H   0  0  0  0  0  0  0  0  0  0  0  0  # atno 8009 bound_to 7997
  156.1365  140.1516  156.8974 H   0  0  0  0  0  0  0  0  0  0  0  0  # atno 8010 bound_to 7997
  139.5649  144.1781  152.1296 H   0  0  0  0  0  0  0  0  0  0  0  0  # atno 10167 bound_to 10162
  156.0732  130.4233  150.1414 H   0  0  0  0  0  0  0  0  0  0  0  0  # atno 10718 bound_to 10713
  154.8497  135.3487  154.6077 H   0  0  0  0  0  0  0  0  0  0  0  0  # atno 10763 bound_to 10752
  153.6685  135.6986  153.5159 H   0  0  0  0  0  0  0  0  0  0  0  0  # atno 10764 bound_to 10752
  153.2761  135.4278  155.0991 H   0  0  0  0  0  0  0  0  0  0  0  0  # atno 10765 bound_to 10752
  140.9668  134.0861  157.3912 H   0  0  0  0  0  0  0  0  0  0  0  0  # atno 11005 bound_to 11000
  146.3389  140.2437  142.8596 LP  0  0  0  0  0  0  0  0  0  0  0  0  # atno 17320 bound_to 7965
  144.9820  140.8468  143.5391 LP  0  0  0  0  0  0  0  0  0  0  0  0  # atno 17321 bound_to 7965
  140.1301  144.5295  150.6807 LP  0  0  0  0  0  0  0  0  0  0  0  0  # atno 17342 bound_to 10162
  140.6931  143.2388  151.5075 LP  0  0  0  0  0  0  0  0  0  0  0  0  # atno 17343 bound_to 10162
  156.9461  130.9760  151.3507 LP  0  0  0  0  0  0  0  0  0  0  0  0  # atno 17370 bound_to 10713
  157.5814  130.8379  149.8527 LP  0  0  0  0  0  0  0  0  0  0  0  0  # atno 17371 bound_to 10713
  139.8897  135.0107  156.6696 LP  0  0  0  0  0  0  0  0  0  0  0  0  # atno 17394 bound_to 11000
  140.7388  133.8996  155.8263 LP  0  0  0  0  0  0  0  0  0  0  0  0  # atno 17395 bound_to 11000

$$$$
