AV-unprocessed.smi:3080|AV-procd|sdf|11739|dock3
  -GOLD-   2272017133D 1   1.00000     0.00000
 Structure written by MMmdl.
 26 27  0  0  0  0  0  0  0  0  1 V2000
  151.4550  137.9560  154.7028 C   0  0  0  0  0  0  0  0  0  0  0  0
  152.0491  138.3699  155.9106 C   0  0  0  0  0  0  0  0  0  0  0  0
  151.8245  139.6852  156.3612 C   0  0  0  0  0  0  0  0  0  0  0  0
  151.0102  140.5336  155.5806 C   0  0  0  0  0  0  0  0  0  0  0  0
  150.7363  141.9606  156.0164 C   0  0  0  0  0  0  0  0  0  0  0  0
  150.3195  142.0467  157.4913 C   0  0  0  0  0  0  0  0  0  0  0  0
  150.3513  143.4321  157.9300 N   0  0  0  0  0  0  0  0  0  0  0  0
  151.7205  143.9081  157.9128 C   0  0  0  0  0  0  0  0  0  0  0  0
  152.6079  143.5337  159.0782 C   0  0  0  0  0  0  0  0  0  0  0  0
  152.0991  144.9476  158.9421 C   0  0  0  0  0  0  0  0  0  0  0  0
  150.4396  140.1439  154.4182 N   0  0  0  0  0  0  0  0  0  0  0  0
  150.6608  138.8803  153.9954 C   0  0  0  0  0  0  0  0  0  0  0  0
  151.6045  136.9545  154.3272 H   0  0  0  0  0  0  0  0  0  0  0  0
  152.6657  137.6911  156.4812 H   0  0  0  0  0  0  0  0  0  0  0  0
  152.2680  140.0323  157.2829 H   0  0  0  0  0  0  0  0  0  0  0  0
  151.6318  142.5596  155.8432 H   0  0  0  0  0  0  0  0  0  0  0  0
  149.9566  142.3841  155.3817 H   0  0  0  0  0  0  0  0  0  0  0  0
  149.3140  141.6438  157.6201 H   0  0  0  0  0  0  0  0  0  0  0  0
  150.9940  141.4516  158.1085 H   0  0  0  0  0  0  0  0  0  0  0  0
  149.7842  143.9902  157.3078 H   0  0  0  0  0  0  0  0  0  0  0  0
  152.2225  144.0083  156.9521 H   0  0  0  0  0  0  0  0  0  0  0  0
  152.1799  142.9205  159.8690 H   0  0  0  0  0  0  0  0  0  0  0  0
  153.6610  143.3567  158.8697 H   0  0  0  0  0  0  0  0  0  0  0  0
  152.8137  145.7119  158.6435 H   0  0  0  0  0  0  0  0  0  0  0  0
  151.3352  145.2742  159.6453 H   0  0  0  0  0  0  0  0  0  0  0  0
  150.1904  138.5973  153.0654 H   0  0  0  0  0  0  0  0  0  0  0  0
  1 12  1  0  0  0  0
  1  2  2  0  0  0  0
  1 13  1  0  0  0  0
  2  3  1  0  0  0  0
  2 14  1  0  0  0  0
  3  4  2  0  0  0  0
  3 15  1  0  0  0  0
  4  5  1  0  0  0  0
  4 11  1  0  0  0  0
  5  6  1  0  0  0  0
  5 16  1  0  0  0  0
  5 17  1  0  0  0  0
  6  7  1  0  0  0  0
  6 18  1  0  0  0  0
  6 19  1  0  0  0  0
  7  8  1  0  0  0  0
  7 20  1  0  0  0  0
  8 10  1  0  0  0  0
  8  9  1  0  0  0  0
  8 21  1  0  0  0  0
  9 10  1  0  0  0  0
  9 22  1  0  0  0  0
  9 23  1  0  0  0  0
 10 24  1  0  0  0  0
 10 25  1  0  0  0  0
 11 12  2  0  0  0  0
 12 26  1  0  0  0  0
M  END
> <s_m_source_file>
AV-unprocessed.smi

> <i_m_source_file_index>
3080

> <i_lp_mmshare_version>
43012

> <i_f3d_flags>
0

> <s_epik_input>
bjFbY0hdW2NIXVtjSF1bY0hdYzFbQ0gyXVtDSDJdW05IXVtDSF0yW0NIMl1bQ0gyXTI=

> <s_epik_cmdline>
J2VwaWtfcHl0aG9uJywgJy1waCcsICc3LjAnLCAnLXRuJywgJzgnLCAnLW1hJywgJzIwMCcsICctbWV0YWxfYmluZGluZycsICctaW1hZScsICc8aW5maWxlLm1hZT4nLCAnLW9tYWUnLCAnPG91dGZpbGUubWFlPic=

> <r_epik_Ionization_Penalty>
2.01082

> <r_epik_Ionization_Penalty_Charging>
0

> <r_epik_Ionization_Penalty_Neutral>
2.01082

> <r_epik_State_Penalty>
2.54051

> <r_epik_Charging_Adjusted_Penalty>
2.54051

> <i_epik_Tot_Q>
0

> <i_epik_Tot_abs_Q>
0

> <r_epik_Metal_State_Penalty>
2.42451

> <b_epik_Metal_Only>
0

> <s_lp_Force_Field>
OPLS_2005

> <r_lp_Energy>
10.6122

> <b_lp_Chiralities_Consistent>
1

> <s_lp_Variant>
AV-unprocessed.smi:3080-2

> <Gold.Version>
5.8.1

> <Gold.Id.Protein>
6NUR|6NUR_protein|mol2

> <Gold.PLP.Fitness>
40.1604

> <Gold.PLP.PLP>
-32.4747

> <Gold.PLP.part.hbond>
-2.0000

> <Gold.PLP.part.metal>
0.0000

> <Gold.PLP.part.buried>
-3.0722

> <Gold.PLP.part.nonpolar>
-27.6246

> <Gold.PLP.part.repulsive>
0.1025

> <Gold.PLP.ligand.clash>
0.0000

> <Gold.PLP.ligand.torsion>
0.4802

> <Gold.PLP.Chemscore.Hbond>
1.3800

> <Gold.PLP.Chemscore.CHOScore>
1.3044

> <Gold.PLP.Chemscore.Metal>
0.0000

> <Gold.Chemscore.Hbonds>
donor molecule, donor type, donor heavy atom, donor atom, acceptor molecule, acceptor atom, score
      L1  H     7    20       P1  8028  1.00
      P1  H  7989  7998       L1    11  0.55
      L1  C    12    26       P1  7948  0.14
      L1  C    12    26       P1  7957  0.97

> <Gold.PLP.Chemscore.Internal.Correction>
0.5930

> <Gold.Rescore>
     Score         DG    S(hbond)    S(metal)    S(lipo)     H(rot)  DE(clash)    DE(int)     intcor
     15.20     -15.67       0.93        0.00      89.75       1.33       0.06       0.41       ----

> <Gold.Chemscore.Fitness>
15.1969

> <Gold.Chemscore.DG>
-15.6671

> <Gold.Chemscore.ZeroCoef>
-5.4800

> <Gold.Chemscore.Hbond>
0.9268

> <Gold.Chemscore.Metal>
0.0000

> <Gold.Chemscore.Lipo>
89.7537

> <Gold.Chemscore.Internal_Hbond>
0.0000

> <Gold.Chemscore.DEClash>
0.0553

> <Gold.Chemscore.DEInternal>
0.4149

> <Gold.Chemscore.Rot>
1.3319

> <Gold.Chemscore.Internal.Correction>
   9.000000E+99

> <Gold.Chemscore.Hbonds>
donor molecule, donor type, donor heavy atom, donor atom, acceptor molecule, acceptor atom, score
      L1  H     7    20       P1  8028  0.63
      P1  H  7989  7998       L1    11  0.01

> <Gold.Chemscore.Hbond.Weighted>
-3.0955

> <Gold.Chemscore.Metal.Weighted>
-0.0000

> <Gold.Chemscore.Lipo.Weighted>
-10.5012

> <Gold.Chemscore.Internal_Hbond.Weighted>
0.0000

> <Gold.Chemscore.DEClash.Weighted>
0.0553

> <Gold.Chemscore.DEInternal.Weighted>
0.4149

> <Gold.Chemscore.Rot.Weighted>
3.4095

> <Gold.Chemscore.Internal.Correction.Weighted>
   9.000000E+99

> <Gold.Protein.RotatedTorsions>
[ 6907 6896 6895 6894 ] final  -16.71 input  -60.11 | X-H torsion
[ 7974 7965 7964 7962 ] final  134.77 input  175.53 | X-H torsion
[ 8008 7997 7996 7995 ] final  131.73 input   59.86 | X-H torsion
[ 10167 10162 10161 10158 ] final  -99.97 input  -65.29 | X-H torsion
[ 10718 10713 10712 10709 ] final  -82.26 input   66.30 | X-H torsion
[ 10763 10752 10751 10750 ] final  -55.71 input  -60.55 | X-H torsion
[ 11005 11000 10999 10996 ] final -113.41 input  -57.11 | X-H torsion

> <Gold.Protein.ActiveResidues>
 VAL166  LYS551  ARG553  GLY616  TRP617  ASP618  TYR619  PRO620  LYS621  CYS622 
 ASP623  PHE694  ASN695  SER759  ASP760  ASP761  ALA762  ILE779  LEU786  VAL792 
 PHE793  MET794  SER795  GLU796  ALA797  LYS798  CYS799  TRP800  GLU811  SER814 

> <Gold.Protein.RotatedAtoms>
  151.3044  135.0777  159.9249 H   0  0  0  0  0  0  0  0  0  0  0  0  # atno 6907 bound_to 6896
  152.5291  133.9800  159.7812 H   0  0  0  0  0  0  0  0  0  0  0  0  # atno 6908 bound_to 6896
  151.0093  133.5929  159.2715 H   0  0  0  0  0  0  0  0  0  0  0  0  # atno 6909 bound_to 6896
  144.9731  139.4585  143.5423 H   0  0  0  0  0  0  0  0  0  0  0  0  # atno 7974 bound_to 7965
  156.2974  140.2564  156.2973 H   0  0  0  0  0  0  0  0  0  0  0  0  # atno 8008 bound_to 7997
  154.9452  140.0395  157.2135 H   0  0  0  0  0  0  0  0  0  0  0  0  # atno 8009 bound_to 7997
  154.8088  140.2841  155.5872 H   0  0  0  0  0  0  0  0  0  0  0  0  # atno 8010 bound_to 7997
  140.2569  143.3434  152.0663 H   0  0  0  0  0  0  0  0  0  0  0  0  # atno 10167 bound_to 10162
  156.0036  130.4629  150.4078 H   0  0  0  0  0  0  0  0  0  0  0  0  # atno 10718 bound_to 10713
  154.1951  135.6420  153.5071 H   0  0  0  0  0  0  0  0  0  0  0  0  # atno 10763 bound_to 10752
  153.0025  135.5438  154.6374 H   0  0  0  0  0  0  0  0  0  0  0  0  # atno 10764 bound_to 10752
  154.5773  135.2922  155.0741 H   0  0  0  0  0  0  0  0  0  0  0  0  # atno 10765 bound_to 10752
  141.0616  133.9526  157.2657 H   0  0  0  0  0  0  0  0  0  0  0  0  # atno 11005 bound_to 11000
  146.3387  139.8955  142.8802 LP  0  0  0  0  0  0  0  0  0  0  0  0  # atno 17320 bound_to 7965
  145.2530  141.0051  143.3870 LP  0  0  0  0  0  0  0  0  0  0  0  0  # atno 17321 bound_to 7965
  139.5029  144.6744  151.6165 LP  0  0  0  0  0  0  0  0  0  0  0  0  # atno 17342 bound_to 10162
  140.5997  143.9632  150.6378 LP  0  0  0  0  0  0  0  0  0  0  0  0  # atno 17343 bound_to 10162
  157.2142  131.0467  151.2582 LP  0  0  0  0  0  0  0  0  0  0  0  0  # atno 17370 bound_to 10713
  157.3860  130.7256  149.6663 LP  0  0  0  0  0  0  0  0  0  0  0  0  # atno 17371 bound_to 10713
  139.9437  135.0187  156.8788 LP  0  0  0  0  0  0  0  0  0  0  0  0  # atno 17394 bound_to 11000
  140.5858  134.0309  155.7481 LP  0  0  0  0  0  0  0  0  0  0  0  0  # atno 17395 bound_to 11000

$$$$
