AV-unprocessed.smi:433|AV-procd|sdf|2550|dock1
  -GOLD-   2262022513D 1   1.00000     0.00000
 Structure written by MMmdl.
 36 37  0  0  0  0  0  0  0  0  1 V2000
  145.3279  141.5923  156.3937 C   0  0  0  0  0  0  0  0  0  0  0  0
  146.5461  141.1523  155.7777 N   0  0  0  0  0  0  0  0  0  0  0  0
  146.6876  141.0449  154.4080 C   0  0  0  0  0  0  0  0  0  0  0  0
  147.8271  140.6197  153.8203 C   0  0  0  0  0  0  0  0  0  0  0  0
  148.9893  140.2482  154.6198 C   0  0  0  0  0  0  0  0  0  0  0  0
  150.0373  139.8295  154.1264 O   0  0  0  0  0  0  0  0  0  0  0  0
  148.8159  140.3894  156.0200 N   0  0  0  0  0  0  0  0  0  0  0  0
  149.9236  140.0151  156.8819 C   0  0  0  0  0  0  0  0  0  0  0  0
  151.2444  140.7251  156.5070 C   0  0  2  0  0  0  0  0  0  0  0  0
  152.3176  139.8290  156.7123 O   0  0  0  0  0  0  0  0  0  0  0  0
  151.5082  141.9609  157.3799 C   0  0  0  0  0  0  0  0  0  0  0  0
  152.1547  141.5378  158.5728 O   0  0  0  0  0  0  0  0  0  0  0  0
  152.2418  142.4264  159.6220 C   0  0  0  0  0  0  0  0  0  0  0  0
  152.8106  141.9457  160.8196 C   0  0  0  0  0  0  0  0  0  0  0  0
  152.9405  142.7844  161.9432 C   0  0  0  0  0  0  0  0  0  0  0  0
  152.4991  144.1188  161.8794 C   0  0  0  0  0  0  0  0  0  0  0  0
  151.9282  144.6112  160.6910 C   0  0  0  0  0  0  0  0  0  0  0  0
  151.7986  143.7722  159.5669 C   0  0  0  0  0  0  0  0  0  0  0  0
  147.6162  140.8168  156.6354 C   0  0  0  0  0  0  0  0  0  0  0  0
  147.4991  140.8870  157.8622 O   0  0  0  0  0  0  0  0  0  0  0  0
  144.6125  141.8176  155.6020 H   0  0  0  0  0  0  0  0  0  0  0  0
  145.5562  142.4887  156.9726 H   0  0  0  0  0  0  0  0  0  0  0  0
  144.9637  140.7769  157.0213 H   0  0  0  0  0  0  0  0  0  0  0  0
  145.8521  141.3076  153.7753 H   0  0  0  0  0  0  0  0  0  0  0  0
  147.8793  140.5497  152.7438 H   0  0  0  0  0  0  0  0  0  0  0  0
  149.6176  140.2499  157.9028 H   0  0  0  0  0  0  0  0  0  0  0  0
  150.0107  138.9269  156.8824 H   0  0  0  0  0  0  0  0  0  0  0  0
  151.2443  141.0266  155.4585 H   0  0  0  0  0  0  0  0  0  0  0  0
  152.1964  139.0822  156.1457 H   0  0  0  0  0  0  0  0  0  0  0  0
  152.1234  142.6804  156.8363 H   0  0  0  0  0  0  0  0  0  0  0  0
  150.5628  142.4439  157.6335 H   0  0  0  0  0  0  0  0  0  0  0  0
  153.1524  140.9226  160.8765 H   0  0  0  0  0  0  0  0  0  0  0  0
  153.3788  142.4032  162.8538 H   0  0  0  0  0  0  0  0  0  0  0  0
  152.5979  144.7634  162.7404 H   0  0  0  0  0  0  0  0  0  0  0  0
  151.5879  145.6351  160.6411 H   0  0  0  0  0  0  0  0  0  0  0  0
  151.3541  144.1846  158.6741 H   0  0  0  0  0  0  0  0  0  0  0  0
  1  2  1  0  0  0  0
  1 21  1  0  0  0  0
  1 22  1  0  0  0  0
  1 23  1  0  0  0  0
  2 19  1  0  0  0  0
  2  3  1  0  0  0  0
  3  4  2  0  0  0  0
  3 24  1  0  0  0  0
  4  5  1  0  0  0  0
  4 25  1  0  0  0  0
  5  6  2  0  0  0  0
  5  7  1  0  0  0  0
  7  8  1  0  0  0  0
  7 19  1  0  0  0  0
  8  9  1  0  0  0  0
  8 26  1  0  0  0  0
  8 27  1  0  0  0  0
  9 10  1  0  0  0  0
  9 11  1  0  0  0  0
  9 28  1  0  0  0  0
 10 29  1  0  0  0  0
 11 12  1  0  0  0  0
 11 30  1  0  0  0  0
 11 31  1  0  0  0  0
 12 13  1  0  0  0  0
 13 18  1  0  0  0  0
 13 14  2  0  0  0  0
 14 15  1  0  0  0  0
 14 32  1  0  0  0  0
 15 16  2  0  0  0  0
 15 33  1  0  0  0  0
 16 17  1  0  0  0  0
 16 34  1  0  0  0  0
 17 18  2  0  0  0  0
 17 35  1  0  0  0  0
 18 36  1  0  0  0  0
 19 20  2  0  0  0  0
M  END
> <s_m_source_file>
AV-unprocessed.smi

> <i_m_source_file_index>
433

> <i_lp_mmshare_version>
43012

> <i_f3d_flags>
0

> <s_epik_input>
W0NIM11uMVtjSF1bY0hdYyg9TyluKGMxPU8pW0NIMl1bQ0BIXShbT0hdKVtDSDJdT2MyW2NIXVtjSF1bY0hdW2NIXVtjSF0y

> <s_epik_cmdline>
J2VwaWtfcHl0aG9uJywgJy1waCcsICc3LjAnLCAnLXRuJywgJzgnLCAnLW1hJywgJzIwMCcsICctbWV0YWxfYmluZGluZycsICctaW1hZScsICc8aW5maWxlLm1hZT4nLCAnLW9tYWUnLCAnPG91dGZpbGUubWFlPic=

> <r_lp_tautomer_probability>
1

> <r_epik_Ionization_Penalty>
2.21742e-07

> <r_epik_Ionization_Penalty_Charging>
1.04568e-07

> <r_epik_Ionization_Penalty_Neutral>
1.17174e-07

> <r_epik_State_Penalty>
-0

> <r_epik_Charging_Adjusted_Penalty>
1.04568e-07

> <i_epik_Tot_Q>
0

> <i_epik_Tot_abs_Q>
0

> <r_epik_Metal_State_Penalty>
-0

> <b_epik_Metal_Only>
0

> <s_lp_Force_Field>
OPLS_2005

> <r_lp_Energy>
22.5639

> <b_lp_Chiralities_Consistent>
1

> <s_lp_Variant>
AV-unprocessed.smi:433-1

> <Gold.Version>
5.8.1

> <Gold.Id.Protein>
6NUR|6NUR_protein|mol2

> <Gold.PLP.Fitness>
44.8705

> <Gold.PLP.PLP>
-38.7026

> <Gold.PLP.part.hbond>
-2.2865

> <Gold.PLP.part.metal>
0.0000

> <Gold.PLP.part.buried>
-6.5485

> <Gold.PLP.part.nonpolar>
-29.9791

> <Gold.PLP.part.repulsive>
1.2461

> <Gold.PLP.ligand.clash>
0.0000

> <Gold.PLP.ligand.torsion>
0.9113

> <Gold.PLP.Chemscore.Hbond>
2.0000

> <Gold.PLP.Chemscore.CHOScore>
0.6400

> <Gold.PLP.Chemscore.Metal>
0.0000

> <Gold.Chemscore.Hbonds>
donor molecule, donor type, donor heavy atom, donor atom, acceptor molecule, acceptor atom, score
      P1  H  7989  7998       L1     6  1.00
      P1  H  7997  8008       L1    10  0.84
      L1  C     3    24       P1 10175  0.70

> <Gold.PLP.Chemscore.Internal.Correction>
0.0706

> <Gold.Rescore>
     Score         DG    S(hbond)    S(metal)    S(lipo)     H(rot)  DE(clash)    DE(int)     intcor
     14.84     -17.25       1.90        0.00     100.24       2.46       0.33       2.07       ----

> <Gold.Chemscore.Fitness>
14.8430

> <Gold.Chemscore.DG>
-17.2499

> <Gold.Chemscore.ZeroCoef>
-5.4800

> <Gold.Chemscore.Hbond>
1.8986

> <Gold.Chemscore.Metal>
0.0000

> <Gold.Chemscore.Lipo>
100.2402

> <Gold.Chemscore.Internal_Hbond>
0.0000

> <Gold.Chemscore.DEClash>
0.3341

> <Gold.Chemscore.DEInternal>
2.0727

> <Gold.Chemscore.Rot>
2.4608

> <Gold.Chemscore.Internal.Correction>
   9.000000E+99

> <Gold.Chemscore.Hbonds>
donor molecule, donor type, donor heavy atom, donor atom, acceptor molecule, acceptor atom, score
      P1  H  7989  7998       L1     6  0.92
      P1  H  7997  8008       L1    10  0.32

> <Gold.Chemscore.Hbond.Weighted>
-6.3415

> <Gold.Chemscore.Metal.Weighted>
-0.0000

> <Gold.Chemscore.Lipo.Weighted>
-11.7281

> <Gold.Chemscore.Internal_Hbond.Weighted>
0.0000

> <Gold.Chemscore.DEClash.Weighted>
0.3341

> <Gold.Chemscore.DEInternal.Weighted>
2.0727

> <Gold.Chemscore.Rot.Weighted>
6.2997

> <Gold.Chemscore.Internal.Correction.Weighted>
   9.000000E+99

> <Gold.Protein.RotatedTorsions>
[ 6907 6896 6895 6894 ] final   48.17 input  -60.11 | X-H torsion
[ 7974 7965 7964 7962 ] final -158.07 input  175.53 | X-H torsion
[ 8008 7997 7996 7995 ] final  -64.45 input   59.86 | X-H torsion
[ 10167 10162 10161 10158 ] final -139.11 input  -65.29 | X-H torsion
[ 10718 10713 10712 10709 ] final  -81.85 input   66.30 | X-H torsion
[ 10763 10752 10751 10750 ] final  -51.32 input  -60.55 | X-H torsion
[ 11005 11000 10999 10996 ] final   95.23 input  -57.11 | X-H torsion

> <Gold.Protein.ActiveResidues>
 VAL166  LYS551  ARG553  GLY616  TRP617  ASP618  TYR619  PRO620  LYS621  CYS622 
 ASP623  PHE694  ASN695  SER759  ASP760  ASP761  ALA762  ILE779  LEU786  VAL792 
 PHE793  MET794  SER795  GLU796  ALA797  LYS798  CYS799  TRP800  GLU811  SER814 

> <Gold.Protein.RotatedAtoms>
  152.2764  134.7876  160.0404 H   0  0  0  0  0  0  0  0  0  0  0  0  # atno 6907 bound_to 6896
  151.8471  133.3428  159.3669 H   0  0  0  0  0  0  0  0  0  0  0  0  # atno 6908 bound_to 6896
  150.7172  134.5263  159.5723 H   0  0  0  0  0  0  0  0  0  0  0  0  # atno 6909 bound_to 6896
  144.7521  140.3879  143.6040 H   0  0  0  0  0  0  0  0  0  0  0  0  # atno 7974 bound_to 7965
  154.4612  140.0953  156.6899 H   0  0  0  0  0  0  0  0  0  0  0  0  # atno 8008 bound_to 7997
  155.4988  140.3473  155.4349 H   0  0  0  0  0  0  0  0  0  0  0  0  # atno 8009 bound_to 7997
  156.0874  140.1388  156.9624 H   0  0  0  0  0  0  0  0  0  0  0  0  # atno 8010 bound_to 7997
  139.8412  143.7319  152.2663 H   0  0  0  0  0  0  0  0  0  0  0  0  # atno 10167 bound_to 10162
  156.0043  130.4616  150.4015 H   0  0  0  0  0  0  0  0  0  0  0  0  # atno 10718 bound_to 10713
  154.1247  135.6529  153.4910 H   0  0  0  0  0  0  0  0  0  0  0  0  # atno 10763 bound_to 10752
  153.0214  135.5278  154.7062 H   0  0  0  0  0  0  0  0  0  0  0  0  # atno 10764 bound_to 10752
  154.6279  135.2972  155.0221 H   0  0  0  0  0  0  0  0  0  0  0  0  # atno 10765 bound_to 10752
  139.8791  134.8888  156.3980 H   0  0  0  0  0  0  0  0  0  0  0  0  # atno 11005 bound_to 11000
  145.6908  139.1638  143.2648 LP  0  0  0  0  0  0  0  0  0  0  0  0  # atno 17320 bound_to 7965
  146.1484  140.6959  142.9333 LP  0  0  0  0  0  0  0  0  0  0  0  0  # atno 17321 bound_to 7965
  139.7557  144.7521  151.0439 LP  0  0  0  0  0  0  0  0  0  0  0  0  # atno 17342 bound_to 10162
  140.7798  143.4808  151.0020 LP  0  0  0  0  0  0  0  0  0  0  0  0  # atno 17343 bound_to 10162
  157.2084  131.0454  151.2613 LP  0  0  0  0  0  0  0  0  0  0  0  0  # atno 17370 bound_to 10713
  157.3911  130.7283  149.6698 LP  0  0  0  0  0  0  0  0  0  0  0  0  # atno 17371 bound_to 10713
  140.9287  133.7594  155.9997 LP  0  0  0  0  0  0  0  0  0  0  0  0  # atno 17394 bound_to 11000
  140.8356  134.3127  157.5333 LP  0  0  0  0  0  0  0  0  0  0  0  0  # atno 17395 bound_to 11000

$$$$
