AV-unprocessed.smi:25|AV-procd|sdf|180|dock10
  -GOLD-   2262015443D 1   1.00000     0.00000
 Structure written by MMmdl.
 47 50  0  0  0  0  0  0  0  0  1 V2000
  149.6125  142.3993  157.5953 C   0  0  0  0  0  0  0  0  0  0  0  0
  151.1331  142.3468  157.3461 C   0  0  1  0  0  0  0  0  0  0  0  0
  151.9036  143.2054  158.3742 C   0  0  0  0  0  0  0  0  0  0  0  0
  152.7104  142.1938  159.1277 C   0  0  0  0  0  0  0  0  0  0  0  0
  153.5258  142.4536  160.2428 C   0  0  0  0  0  0  0  0  0  0  0  0
  154.1977  141.3723  160.8467 C   0  0  0  0  0  0  0  0  0  0  0  0
  154.0370  140.0651  160.3371 C   0  0  0  0  0  0  0  0  0  0  0  0
  153.2122  139.8230  159.2166 C   0  0  0  0  0  0  0  0  0  0  0  0
  152.5514  140.9131  158.6000 C   0  0  0  0  0  0  0  0  0  0  0  0
  151.6698  140.9721  157.4775 N   0  0  0  0  0  0  0  0  0  0  0  0
  151.4202  140.0391  156.5172 C   0  0  0  0  0  0  0  0  0  0  0  0
  150.7409  140.3168  155.5256 O   0  0  0  0  0  0  0  0  0  0  0  0
  151.9981  138.6140  156.6150 C   0  0  0  0  0  0  0  0  0  0  0  0
  150.9780  137.5701  156.8701 N   0  0  0  0  0  0  0  0  0  0  0  0
  150.7080  136.6187  155.8540 C   0  0  0  0  0  0  0  0  0  0  0  0
  151.2968  136.6538  154.7725 O   0  0  0  0  0  0  0  0  0  0  0  0
  149.7096  135.6082  156.1851 C   0  0  0  0  0  0  0  0  0  0  0  0
  149.3953  134.6625  155.2837 F   0  0  0  0  0  0  0  0  0  0  0  0
  149.0982  135.6037  157.3870 C   0  0  0  0  0  0  0  0  0  0  0  0
  149.3695  136.5391  158.3684 N   0  0  0  0  0  0  0  0  0  0  0  0
  148.6770  136.4909  159.7121 C   0  0  2  0  0  0  0  0  0  0  0  0
  148.0062  135.1274  159.9136 C   0  0  0  0  0  0  0  0  0  0  0  0
  146.5922  135.4032  159.4502 C   0  0  0  0  0  0  0  0  0  0  0  0
  146.3984  136.8467  159.9003 C   0  0  0  0  0  0  0  0  0  0  0  0
  147.6730  137.4647  159.7433 O   0  0  0  0  0  0  0  0  0  0  0  0
  150.3359  137.5406  158.1317 C   0  0  0  0  0  0  0  0  0  0  0  0
  150.6208  138.3597  159.0082 O   0  0  0  0  0  0  0  0  0  0  0  0
  149.2464  143.4251  157.5470 H   0  0  0  0  0  0  0  0  0  0  0  0
  149.3607  142.0032  158.5797 H   0  0  0  0  0  0  0  0  0  0  0  0
  149.0560  141.8248  156.8552 H   0  0  0  0  0  0  0  0  0  0  0  0
  151.3437  142.7329  156.3470 H   0  0  0  0  0  0  0  0  0  0  0  0
  152.5692  143.9165  157.8837 H   0  0  0  0  0  0  0  0  0  0  0  0
  151.2464  143.7546  159.0497 H   0  0  0  0  0  0  0  0  0  0  0  0
  153.6315  143.4560  160.6310 H   0  0  0  0  0  0  0  0  0  0  0  0
  154.8300  141.5421  161.7055 H   0  0  0  0  0  0  0  0  0  0  0  0
  154.5470  139.2404  160.8127 H   0  0  0  0  0  0  0  0  0  0  0  0
  153.1162  138.8040  158.8889 H   0  0  0  0  0  0  0  0  0  0  0  0
  152.5369  138.3868  155.6948 H   0  0  0  0  0  0  0  0  0  0  0  0
  152.7433  138.5988  157.4103 H   0  0  0  0  0  0  0  0  0  0  0  0
  148.3734  134.8271  157.5795 H   0  0  0  0  0  0  0  0  0  0  0  0
  149.4376  136.7260  160.4584 H   0  0  0  0  0  0  0  0  0  0  0  0
  148.5076  134.3297  159.3640 H   0  0  0  0  0  0  0  0  0  0  0  0
  148.0194  134.8870  160.9773 H   0  0  0  0  0  0  0  0  0  0  0  0
  146.5295  135.3324  158.3637 H   0  0  0  0  0  0  0  0  0  0  0  0
  145.8587  134.7205  159.8801 H   0  0  0  0  0  0  0  0  0  0  0  0
  145.6284  137.3657  159.3297 H   0  0  0  0  0  0  0  0  0  0  0  0
  146.1219  136.8806  160.9548 H   0  0  0  0  0  0  0  0  0  0  0  0
  1  2  1  0  0  0  0
  1 28  1  0  0  0  0
  1 29  1  0  0  0  0
  1 30  1  0  0  0  0
  2 10  1  0  0  0  0
  2  3  1  0  0  0  0
  2 31  1  0  0  0  0
  3  4  1  0  0  0  0
  3 32  1  0  0  0  0
  3 33  1  0  0  0  0
  4  9  2  0  0  0  0
  4  5  1  0  0  0  0
  5  6  2  0  0  0  0
  5 34  1  0  0  0  0
  6  7  1  0  0  0  0
  6 35  1  0  0  0  0
  7  8  2  0  0  0  0
  7 36  1  0  0  0  0
  8  9  1  0  0  0  0
  8 37  1  0  0  0  0
  9 10  1  0  0  0  0
 10 11  1  0  0  0  0
 11 12  2  0  0  0  0
 11 13  1  0  0  0  0
 13 14  1  0  0  0  0
 13 38  1  0  0  0  0
 13 39  1  0  0  0  0
 14 26  1  0  0  0  0
 14 15  1  0  0  0  0
 15 16  2  0  0  0  0
 15 17  1  0  0  0  0
 17 18  1  0  0  0  0
 17 19  2  0  0  0  0
 19 20  1  0  0  0  0
 19 40  1  0  0  0  0
 20 21  1  0  0  0  0
 20 26  1  0  0  0  0
 21 25  1  0  0  0  0
 21 22  1  0  0  0  0
 21 41  1  0  0  0  0
 22 23  1  0  0  0  0
 22 42  1  0  0  0  0
 22 43  1  0  0  0  0
 23 24  1  0  0  0  0
 23 44  1  0  0  0  0
 23 45  1  0  0  0  0
 24 25  1  0  0  0  0
 24 46  1  0  0  0  0
 24 47  1  0  0  0  0
 26 27  2  0  0  0  0
M  END
> <s_m_source_file>
AV-unprocessed.smi

> <i_m_source_file_index>
25

> <i_lp_mmshare_version>
43012

> <i_f3d_flags>
0

> <s_epik_input>
W2NIXTFbY0hdW2NIXVtjSF1jKGMxMilOKFtDQEhdKFtDSDNdKVtDSDJdMilDKD1PKVtDSDJdbjNjKD1PKWMoRilbY0hdbihjMz1PKVtDQEBIXTRbQ0gyXVtDSDJdW0NIMl1PNA==

> <s_epik_cmdline>
J2VwaWtfcHl0aG9uJywgJy1waCcsICc3LjAnLCAnLXRuJywgJzgnLCAnLW1hJywgJzIwMCcsICctbWV0YWxfYmluZGluZycsICctaW1hZScsICc8aW5maWxlLm1hZT4nLCAnLW9tYWUnLCAnPG91dGZpbGUubWFlPic=

> <r_lp_tautomer_probability>
1

> <r_epik_Ionization_Penalty>
1.67943e-06

> <r_epik_Ionization_Penalty_Charging>
3.79603e-09

> <r_epik_Ionization_Penalty_Neutral>
1.67563e-06

> <r_epik_State_Penalty>
-0

> <r_epik_Charging_Adjusted_Penalty>
3.79603e-09

> <i_epik_Tot_Q>
0

> <i_epik_Tot_abs_Q>
0

> <r_epik_Metal_State_Penalty>
-0

> <b_epik_Metal_Only>
0

> <s_epik_Chemistry_Notes>
This compound contains an acetal/aminal-like group ( X-CH(R)-Y where X, Y are N, S, or O) that may be acid/base labile, releasing an aldehyde.

> <s_lp_Force_Field>
OPLS_2005

> <r_lp_Energy>
55.2786

> <b_lp_Chiralities_Consistent>
1

> <s_lp_Variant>
AV-unprocessed.smi:25-2

> <Gold.Version>
5.8.1

> <Gold.Id.Protein>
6NUR|6NUR_protein|mol2

> <Gold.PLP.Fitness>
48.5683

> <Gold.PLP.PLP>
-42.9417

> <Gold.PLP.part.hbond>
-3.4180

> <Gold.PLP.part.metal>
0.0000

> <Gold.PLP.part.buried>
-4.5836

> <Gold.PLP.part.nonpolar>
-36.6230

> <Gold.PLP.part.repulsive>
0.1145

> <Gold.PLP.ligand.clash>
0.0000

> <Gold.PLP.ligand.torsion>
0.6229

> <Gold.PLP.Chemscore.Hbond>
2.2773

> <Gold.PLP.Chemscore.CHOScore>
0.0000

> <Gold.PLP.Chemscore.Metal>
0.0000

> <Gold.Chemscore.Hbonds>
donor molecule, donor type, donor heavy atom, donor atom, acceptor molecule, acceptor atom, score
      P1  H  6934  6947       L1    25  0.53
      P1  H  7989  7998       L1    12  0.37
      P1  H 10752 10765       L1    16  0.56

> <Gold.PLP.Chemscore.Internal.Correction>
0.0406

> <Gold.Rescore>
     Score         DG    S(hbond)    S(metal)    S(lipo)     H(rot)  DE(clash)    DE(int)     intcor
     18.03     -20.23       1.84        0.00     107.50       1.55       1.59       0.60       ----

> <Gold.Chemscore.Fitness>
18.0343

> <Gold.Chemscore.DG>
-20.2278

> <Gold.Chemscore.ZeroCoef>
-5.4800

> <Gold.Chemscore.Hbond>
1.8371

> <Gold.Chemscore.Metal>
0.0000

> <Gold.Chemscore.Lipo>
107.4959

> <Gold.Chemscore.Internal_Hbond>
0.0000

> <Gold.Chemscore.DEClash>
1.5918

> <Gold.Chemscore.DEInternal>
0.6017

> <Gold.Chemscore.Rot>
1.5489

> <Gold.Chemscore.Internal.Correction>
   9.000000E+99

> <Gold.Chemscore.Hbonds>
donor molecule, donor type, donor heavy atom, donor atom, acceptor molecule, acceptor atom, score
      P1  H  6934  6947       L1    25  0.05
      P1  H  7989  7998       L1    12  0.36
      P1  H 10752 10765       L1    16  0.36

> <Gold.Chemscore.Hbond.Weighted>
-6.1359

> <Gold.Chemscore.Metal.Weighted>
-0.0000

> <Gold.Chemscore.Lipo.Weighted>
-12.5770

> <Gold.Chemscore.Internal_Hbond.Weighted>
0.0000

> <Gold.Chemscore.DEClash.Weighted>
1.5918

> <Gold.Chemscore.DEInternal.Weighted>
0.6017

> <Gold.Chemscore.Rot.Weighted>
3.9651

> <Gold.Chemscore.Internal.Correction.Weighted>
   9.000000E+99

> <Gold.Protein.RotatedTorsions>
[ 6907 6896 6895 6894 ] final  171.09 input  -60.11 | X-H torsion
[ 7974 7965 7964 7962 ] final -167.56 input  175.53 | X-H torsion
[ 8008 7997 7996 7995 ] final  174.52 input   59.86 | X-H torsion
[ 10167 10162 10161 10158 ] final  -56.96 input  -65.29 | X-H torsion
[ 10718 10713 10712 10709 ] final   75.99 input   66.30 | X-H torsion
[ 10763 10752 10751 10750 ] final -154.91 input  -60.55 | X-H torsion
[ 11005 11000 10999 10996 ] final    5.35 input  -57.11 | X-H torsion

> <Gold.Protein.ActiveResidues>
 VAL166  LYS551  ARG553  GLY616  TRP617  ASP618  TYR619  PRO620  LYS621  CYS622 
 ASP623  PHE694  ASN695  SER759  ASP760  ASP761  ALA762  ILE779  LEU786  VAL792 
 PHE793  MET794  SER795  GLU796  ALA797  LYS798  CYS799  TRP800  GLU811  SER814 

> <Gold.Protein.RotatedAtoms>
  151.8057  133.3375  159.3539 H   0  0  0  0  0  0  0  0  0  0  0  0  # atno 6907 bound_to 6896
  150.7343  134.5712  159.5900 H   0  0  0  0  0  0  0  0  0  0  0  0  # atno 6908 bound_to 6896
  152.3111  134.7497  160.0387 H   0  0  0  0  0  0  0  0  0  0  0  0  # atno 6909 bound_to 6896
  144.7221  140.2501  143.6279 H   0  0  0  0  0  0  0  0  0  0  0  0  # atno 7974 bound_to 7965
  156.0965  140.1432  156.9524 H   0  0  0  0  0  0  0  0  0  0  0  0  # atno 8008 bound_to 7997
  154.4675  140.0921  156.7104 H   0  0  0  0  0  0  0  0  0  0  0  0  # atno 8009 bound_to 7997
  155.4832  140.3445  155.4345 H   0  0  0  0  0  0  0  0  0  0  0  0  # atno 8010 bound_to 7997
  140.6286  143.2449  151.5299 H   0  0  0  0  0  0  0  0  0  0  0  0  # atno 10167 bound_to 10162
  157.6656  130.9753  150.1433 H   0  0  0  0  0  0  0  0  0  0  0  0  # atno 10718 bound_to 10713
  154.7825  135.3179  154.7959 H   0  0  0  0  0  0  0  0  0  0  0  0  # atno 10763 bound_to 10752
  153.8667  135.6848  153.4782 H   0  0  0  0  0  0  0  0  0  0  0  0  # atno 10764 bound_to 10752
  153.1466  135.4717  154.9513 H   0  0  0  0  0  0  0  0  0  0  0  0  # atno 10765 bound_to 10752
  140.5717  134.0096  155.8011 H   0  0  0  0  0  0  0  0  0  0  0  0  # atno 11005 bound_to 11000
  145.8236  139.2054  143.1923 LP  0  0  0  0  0  0  0  0  0  0  0  0  # atno 17320 bound_to 7965
  146.0492  140.8086  142.9790 LP  0  0  0  0  0  0  0  0  0  0  0  0  # atno 17321 bound_to 7965
  139.5503  144.2413  152.1518 LP  0  0  0  0  0  0  0  0  0  0  0  0  # atno 17342 bound_to 10162
  140.1651  144.4989  150.6611 LP  0  0  0  0  0  0  0  0  0  0  0  0  # atno 17343 bound_to 10162
  156.2250  130.3677  149.8511 LP  0  0  0  0  0  0  0  0  0  0  0  0  # atno 17370 bound_to 10713
  156.6354  130.8683  151.3503 LP  0  0  0  0  0  0  0  0  0  0  0  0  # atno 17371 bound_to 10713
  141.1052  133.9705  157.3009 LP  0  0  0  0  0  0  0  0  0  0  0  0  # atno 17394 bound_to 11000
  139.9359  135.0196  156.8553 LP  0  0  0  0  0  0  0  0  0  0  0  0  # atno 17395 bound_to 11000

$$$$
