AV-unprocessed.smi:2087|AV-procd|sdf|8523|dock1
  -GOLD-   2272011243D 1   1.00000     0.00000
 Structure written by MMmdl.
 51 52  0  0  0  0  0  0  0  0  2 V2000
  144.2044  132.3424  151.0391 C   0  0  0  0  0  0  0  0  0  0  0  0
  145.1724  133.5273  151.1991 C   0  0  0  0  0  0  0  0  0  0  0  0
  144.6491  134.7523  150.4343 C   0  0  0  0  0  0  0  0  0  0  0  0
  146.6014  133.1687  150.7373 C   0  0  0  0  0  0  0  0  0  0  0  0
  147.4272  132.5701  151.8171 N   0  3  2  0  0  0  0  0  0  0  0  0
  146.8431  131.3378  152.4029 C   0  0  0  0  0  0  0  0  0  0  0  0
  147.7756  130.7613  153.4817 C   0  0  0  0  0  0  0  0  0  0  0  0
  148.0314  131.7523  154.4686 O   0  0  0  0  0  0  0  0  0  0  0  0
  148.6902  132.8927  153.9260 C   0  0  2  0  0  0  0  0  0  0  0  0
  149.0440  133.8504  155.0788 C   0  0  0  0  0  0  0  0  0  0  0  0
  149.4179  135.1661  154.5736 N   0  0  0  0  0  0  0  0  0  0  0  0
  150.5374  135.8259  154.9050 C   0  0  0  0  0  0  0  0  0  0  0  0
  151.4267  135.3399  155.6049 O   0  0  0  0  0  0  0  0  0  0  0  0
  150.6635  137.2580  154.3708 C   0  0  0  0  0  0  0  0  0  0  0  0
  150.7994  138.2477  155.4482 N   0  0  0  0  0  0  0  0  0  0  0  0
  151.0989  137.8278  156.7318 C   0  0  0  0  0  0  0  0  0  0  0  0
  151.2382  138.6710  157.7780 C   0  0  0  0  0  0  0  0  0  0  0  0
  151.0700  140.1087  157.6070 C   0  0  0  0  0  0  0  0  0  0  0  0
  151.2025  140.9187  158.5254 O   0  0  0  0  0  0  0  0  0  0  0  0
  150.7501  140.5116  156.2896 N   0  0  0  0  0  0  0  0  0  0  0  0
  150.5771  141.9312  156.0586 C   0  0  0  0  0  0  0  0  0  0  0  0
  150.6275  139.6273  155.1932 C   0  0  0  0  0  0  0  0  0  0  0  0
  150.3825  140.0252  154.0512 O   0  0  0  0  0  0  0  0  0  0  0  0
  147.7609  133.5428  152.8848 C   0  0  0  0  0  0  0  0  0  0  0  0
  144.1428  132.0186  149.9996 H   0  0  0  0  0  0  0  0  0  0  0  0
  143.1982  132.6113  151.3625 H   0  0  0  0  0  0  0  0  0  0  0  0
  144.5170  131.4858  151.6367 H   0  0  0  0  0  0  0  0  0  0  0  0
  145.1952  133.8022  152.2533 H   0  0  0  0  0  0  0  0  0  0  0  0
  144.5856  134.5544  149.3638 H   0  0  0  0  0  0  0  0  0  0  0  0
  145.3022  135.6141  150.5753 H   0  0  0  0  0  0  0  0  0  0  0  0
  143.6543  135.0363  150.7795 H   0  0  0  0  0  0  0  0  0  0  0  0
  146.5244  132.4643  149.9077 H   0  0  0  0  0  0  0  0  0  0  0  0
  147.1117  134.0484  150.3411 H   0  0  0  0  0  0  0  0  0  0  0  0
  145.8687  131.5654  152.8378 H   0  0  0  0  0  0  0  0  0  0  0  0
  146.6806  130.5863  151.6312 H   0  0  0  0  0  0  0  0  0  0  0  0
  147.3103  129.8990  153.9598 H   0  0  0  0  0  0  0  0  0  0  0  0
  148.7132  130.4143  153.0446 H   0  0  0  0  0  0  0  0  0  0  0  0
  149.6097  132.5756  153.4302 H   0  0  0  0  0  0  0  0  0  0  0  0
  148.2037  133.9463  155.7685 H   0  0  0  0  0  0  0  0  0  0  0  0
  149.8782  133.4526  155.6574 H   0  0  0  0  0  0  0  0  0  0  0  0
  148.7462  135.6366  153.9840 H   0  0  0  0  0  0  0  0  0  0  0  0
  151.5266  137.2972  153.7050 H   0  0  0  0  0  0  0  0  0  0  0  0
  149.7989  137.5089  153.7533 H   0  0  0  0  0  0  0  0  0  0  0  0
  151.2302  136.7708  156.9123 H   0  0  0  0  0  0  0  0  0  0  0  0
  151.4771  138.2766  158.7549 H   0  0  0  0  0  0  0  0  0  0  0  0
  150.0090  142.1047  155.1446 H   0  0  0  0  0  0  0  0  0  0  0  0
  151.5755  142.3654  155.9911 H   0  0  0  0  0  0  0  0  0  0  0  0
  150.0141  142.3524  156.8933 H   0  0  0  0  0  0  0  0  0  0  0  0
  148.2534  134.4128  152.4485 H   0  0  0  0  0  0  0  0  0  0  0  0
  146.8441  133.8957  153.3602 H   0  0  0  0  0  0  0  0  0  0  0  0
  148.3061  132.3086  151.3931 H   0  0  0  0  0  0  0  0  0  0  0  0
  1  2  1  0  0  0  0
  1 25  1  0  0  0  0
  1 26  1  0  0  0  0
  1 27  1  0  0  0  0
  2  3  1  0  0  0  0
  2  4  1  0  0  0  0
  2 28  1  0  0  0  0
  3 29  1  0  0  0  0
  3 30  1  0  0  0  0
  3 31  1  0  0  0  0
  4  5  1  0  0  0  0
  4 32  1  0  0  0  0
  4 33  1  0  0  0  0
  5 24  1  0  0  0  0
  5  6  1  0  0  0  0
  5 51  1  0  0  0  0
  6  7  1  0  0  0  0
  6 34  1  0  0  0  0
  6 35  1  0  0  0  0
  7  8  1  0  0  0  0
  7 36  1  0  0  0  0
  7 37  1  0  0  0  0
  8  9  1  0  0  0  0
  9 10  1  0  0  0  0
  9 24  1  0  0  0  0
  9 38  1  0  0  0  0
 10 11  1  0  0  0  0
 10 39  1  0  0  0  0
 10 40  1  0  0  0  0
 11 12  1  0  0  0  0
 11 41  1  0  0  0  0
 12 13  2  0  0  0  0
 12 14  1  0  0  0  0
 14 15  1  0  0  0  0
 14 42  1  0  0  0  0
 14 43  1  0  0  0  0
 15 22  1  0  0  0  0
 15 16  1  0  0  0  0
 16 17  2  0  0  0  0
 16 44  1  0  0  0  0
 17 18  1  0  0  0  0
 17 45  1  0  0  0  0
 18 19  2  0  0  0  0
 18 20  1  0  0  0  0
 20 21  1  0  0  0  0
 20 22  1  0  0  0  0
 21 46  1  0  0  0  0
 21 47  1  0  0  0  0
 21 48  1  0  0  0  0
 22 23  2  0  0  0  0
 24 49  1  0  0  0  0
 24 50  1  0  0  0  0
M  CHG  1   5   1
M  END
> <s_m_source_file>
AV-unprocessed.smi

> <i_m_source_file_index>
2087

> <i_lp_mmshare_version>
43012

> <i_f3d_flags>
0

> <s_epik_input>
W0NIM11bQ0hdKFtDSDNdKVtDSDJdTjFbQ0gyXVtDSDJdT1tDQEhdKFtDSDJdMSlbQ0gyXVtOSF1DKD1PKVtDSDJdbjJbY0hdW2NIXWMoPU8pbihbQ0gzXSljMj1P

> <s_epik_cmdline>
J2VwaWtfcHl0aG9uJywgJy1waCcsICc3LjAnLCAnLXRuJywgJzgnLCAnLW1hJywgJzIwMCcsICctbWV0YWxfYmluZGluZycsICctaW1hZScsICc8aW5maWxlLm1hZT4nLCAnLW9tYWUnLCAnPG91dGZpbGUubWFlPic=

> <r_lp_tautomer_probability>
1

> <r_epik_Ionization_Penalty>
0.097593

> <r_epik_Ionization_Penalty_Charging>
0.097593

> <r_epik_Ionization_Penalty_Neutral>
6.27044e-08

> <r_epik_State_Penalty>
0.0877056

> <r_epik_Charging_Adjusted_Penalty>
0.185299

> <i_epik_Tot_Q>
1

> <i_epik_Tot_abs_Q>
1

> <r_epik_Metal_State_Penalty>
0.0877109

> <b_epik_Metal_Only>
0

> <s_lp_Force_Field>
OPLS_2005

> <r_lp_Energy>
25.7141

> <b_lp_Chiralities_Consistent>
1

> <s_lp_Variant>
AV-unprocessed.smi:2087-4

> <Gold.Version>
5.8.1

> <Gold.Id.Protein>
6NUR|6NUR_protein|mol2

> <Gold.PLP.Fitness>
47.1437

> <Gold.PLP.PLP>
-38.9961

> <Gold.PLP.part.hbond>
-3.9094

> <Gold.PLP.part.metal>
0.0000

> <Gold.PLP.part.buried>
-2.3482

> <Gold.PLP.part.nonpolar>
-32.5244

> <Gold.PLP.part.repulsive>
0.7405

> <Gold.PLP.ligand.clash>
0.0000

> <Gold.PLP.ligand.torsion>
0.6919

> <Gold.PLP.Chemscore.Hbond>
3.0492

> <Gold.PLP.Chemscore.CHOScore>
0.0000

> <Gold.PLP.Chemscore.Metal>
0.0000

> <Gold.Chemscore.Hbonds>
donor molecule, donor type, donor heavy atom, donor atom, acceptor molecule, acceptor atom, score
      L1  H     5    51       P1 10747  0.77
      L1  H    11    41       P1  7948  0.32
      P1  H  7989  7998       L1    23  1.00
      P1  H 10752 10764       L1    13  1.00

> <Gold.PLP.Chemscore.Internal.Correction>
0.3839

> <Gold.Rescore>
     Score         DG    S(hbond)    S(metal)    S(lipo)     H(rot)  DE(clash)    DE(int)     intcor
     15.72     -18.26       2.78        0.00      78.63       2.22       0.32       2.22       ----

> <Gold.Chemscore.Fitness>
15.7170

> <Gold.Chemscore.DG>
-18.2637

> <Gold.Chemscore.ZeroCoef>
-5.4800

> <Gold.Chemscore.Hbond>
2.7783

> <Gold.Chemscore.Metal>
0.0000

> <Gold.Chemscore.Lipo>
78.6319

> <Gold.Chemscore.Internal_Hbond>
0.0000

> <Gold.Chemscore.DEClash>
0.3238

> <Gold.Chemscore.DEInternal>
2.2229

> <Gold.Chemscore.Rot>
2.2249

> <Gold.Chemscore.Internal.Correction>
   9.000000E+99

> <Gold.Chemscore.Hbonds>
donor molecule, donor type, donor heavy atom, donor atom, acceptor molecule, acceptor atom, score
      L1  H     5    51       P1 10747  0.75
      L1  H    11    41       P1  7948  0.31
      P1  H  7989  7998       L1    23  0.75
      P1  H 10752 10764       L1    13  0.73

> <Gold.Chemscore.Hbond.Weighted>
-9.2795

> <Gold.Chemscore.Metal.Weighted>
-0.0000

> <Gold.Chemscore.Lipo.Weighted>
-9.1999

> <Gold.Chemscore.Internal_Hbond.Weighted>
0.0000

> <Gold.Chemscore.DEClash.Weighted>
0.3238

> <Gold.Chemscore.DEInternal.Weighted>
2.2229

> <Gold.Chemscore.Rot.Weighted>
5.6957

> <Gold.Chemscore.Internal.Correction.Weighted>
   9.000000E+99

> <Gold.Protein.RotatedTorsions>
[ 6907 6896 6895 6894 ] final   91.70 input  -60.11 | X-H torsion
[ 7974 7965 7964 7962 ] final  -71.89 input  175.53 | X-H torsion
[ 8008 7997 7996 7995 ] final   28.22 input   59.86 | X-H torsion
[ 10167 10162 10161 10158 ] final   72.42 input  -65.29 | X-H torsion
[ 10718 10713 10712 10709 ] final -126.96 input   66.30 | X-H torsion
[ 10763 10752 10751 10750 ] final  -46.95 input  -60.55 | X-H torsion
[ 11005 11000 10999 10996 ] final  104.91 input  -57.11 | X-H torsion

> <Gold.Protein.ActiveResidues>
 VAL166  LYS551  ARG553  GLY616  TRP617  ASP618  TYR619  PRO620  LYS621  CYS622 
 ASP623  PHE694  ASN695  SER759  ASP760  ASP761  ALA762  ILE779  LEU786  VAL792 
 PHE793  MET794  SER795  GLU796  ALA797  LYS798  CYS799  TRP800  GLU811  SER814 

> <Gold.Protein.RotatedAtoms>
  152.5451  134.1616  159.8559 H   0  0  0  0  0  0  0  0  0  0  0  0  # atno 6907 bound_to 6896
  151.1634  133.4823  159.2601 H   0  0  0  0  0  0  0  0  0  0  0  0  # atno 6908 bound_to 6896
  151.1349  135.0160  159.8654 H   0  0  0  0  0  0  0  0  0  0  0  0  # atno 6909 bound_to 6896
  145.6722  140.9217  143.0877 H   0  0  0  0  0  0  0  0  0  0  0  0  # atno 7974 bound_to 7965
  155.0552  140.3184  155.4678 H   0  0  0  0  0  0  0  0  0  0  0  0  # atno 8008 bound_to 7997
  156.2825  140.2139  156.5623 H   0  0  0  0  0  0  0  0  0  0  0  0  # atno 8009 bound_to 7997
  154.7177  140.0492  157.0598 H   0  0  0  0  0  0  0  0  0  0  0  0  # atno 8010 bound_to 7997
  140.0355  144.5431  150.7474 H   0  0  0  0  0  0  0  0  0  0  0  0  # atno 10167 bound_to 10162
  156.1813  130.6734  151.0308 H   0  0  0  0  0  0  0  0  0  0  0  0  # atno 10718 bound_to 10713
  154.0534  135.6628  153.4803 H   0  0  0  0  0  0  0  0  0  0  0  0  # atno 10763 bound_to 10752
  153.0455  135.5117  154.7729 H   0  0  0  0  0  0  0  0  0  0  0  0  # atno 10764 bound_to 10752
  154.6742  135.3034  154.9667 H   0  0  0  0  0  0  0  0  0  0  0  0  # atno 10765 bound_to 10752
  139.8796  134.9317  156.5433 H   0  0  0  0  0  0  0  0  0  0  0  0  # atno 11005 bound_to 11000
  144.7053  139.8587  143.7432 LP  0  0  0  0  0  0  0  0  0  0  0  0  # atno 17320 bound_to 7965
  146.1036  139.4033  143.0332 LP  0  0  0  0  0  0  0  0  0  0  0  0  # atno 17321 bound_to 7965
  140.7283  143.2661  151.4042 LP  0  0  0  0  0  0  0  0  0  0  0  0  # atno 17342 bound_to 10162
  139.6048  144.1220  152.2237 LP  0  0  0  0  0  0  0  0  0  0  0  0  # atno 17343 bound_to 10162
  157.6870  131.0822  150.7215 LP  0  0  0  0  0  0  0  0  0  0  0  0  # atno 17370 bound_to 10713
  156.7272  130.4698  149.5508 LP  0  0  0  0  0  0  0  0  0  0  0  0  # atno 17371 bound_to 10713
  140.8294  133.8291  155.8969 LP  0  0  0  0  0  0  0  0  0  0  0  0  # atno 17394 bound_to 11000
  140.9343  134.1982  157.4842 LP  0  0  0  0  0  0  0  0  0  0  0  0  # atno 17395 bound_to 11000

$$$$
