AV-unprocessed.smi:3341|AV-procd|sdf|12883|dock1
  -GOLD-   2272019283D 1   1.00000     0.00000
 Structure written by MMmdl.
 46 47  0  0  0  0  0  0  0  0  2 V2000
  151.0674  141.3228  157.2933 C   0  0  0  0  0  0  0  0  0  0  0  0
  150.2926  141.7113  156.0284 C   0  0  0  0  0  0  0  0  0  0  0  0
  150.0071  140.5581  155.1972 N   0  0  0  0  0  0  0  0  0  0  0  0
  148.7764  140.0847  154.7871 C   0  0  0  0  0  0  0  0  0  0  0  0
  149.0406  138.9823  154.0240 C   0  0  0  0  0  0  0  0  0  0  0  0
  148.1410  138.1118  153.3581 N   0  0  0  0  0  0  0  0  0  0  0  0
  146.7999  138.1801  153.3448 C   0  0  0  0  0  0  0  0  0  0  0  0
  146.1278  139.0459  153.9060 O   0  0  0  0  0  0  0  0  0  0  0  0
  146.2660  137.1784  152.6319 N   0  0  0  0  0  0  0  0  0  0  0  0
  144.8366  136.9621  152.4385 C   0  0  0  0  0  0  0  0  0  0  0  0
  144.4227  135.5302  152.8298 C   0  0  0  0  0  0  0  0  0  0  0  0
  144.9624  134.5077  151.8980 N   0  3  1  0  0  0  0  0  0  0  0  0
  145.4720  133.3109  152.6167 C   0  0  0  0  0  0  0  0  0  0  0  0
  146.1499  132.3283  151.6486 C   0  0  0  0  0  0  0  0  0  0  0  0
  145.1926  131.9193  150.5225 C   0  0  0  0  0  0  0  0  0  0  0  0
  144.6525  133.1671  149.8041 C   0  0  1  0  0  0  0  0  0  0  0  0
  143.6710  132.7893  148.6856 C   0  0  0  0  0  0  0  0  0  0  0  0
  144.0076  134.1317  150.8201 C   0  0  0  0  0  0  0  0  0  0  0  0
  150.4533  138.8468  154.0156 C   0  0  0  0  0  0  0  0  0  0  0  0
  151.0306  139.8033  154.7265 N   0  0  0  0  0  0  0  0  0  0  0  0
  151.2792  142.2013  157.9028 H   0  0  0  0  0  0  0  0  0  0  0  0
  152.0194  140.8533  157.0431 H   0  0  0  0  0  0  0  0  0  0  0  0
  150.4989  140.6222  157.9060 H   0  0  0  0  0  0  0  0  0  0  0  0
  149.3517  142.1958  156.2927 H   0  0  0  0  0  0  0  0  0  0  0  0
  150.8656  142.4309  155.4423 H   0  0  0  0  0  0  0  0  0  0  0  0
  147.8528  140.5667  155.0718 H   0  0  0  0  0  0  0  0  0  0  0  0
  148.5646  137.3517  152.8462 H   0  0  0  0  0  0  0  0  0  0  0  0
  146.8922  136.5108  152.2052 H   0  0  0  0  0  0  0  0  0  0  0  0
  144.3159  137.6993  153.0481 H   0  0  0  0  0  0  0  0  0  0  0  0
  144.5658  137.1689  151.4016 H   0  0  0  0  0  0  0  0  0  0  0  0
  144.8015  135.3274  153.8326 H   0  0  0  0  0  0  0  0  0  0  0  0
  143.3368  135.4418  152.8890 H   0  0  0  0  0  0  0  0  0  0  0  0
  146.1931  133.6141  153.3770 H   0  0  0  0  0  0  0  0  0  0  0  0
  144.6483  132.8198  153.1377 H   0  0  0  0  0  0  0  0  0  0  0  0
  147.0424  132.7889  151.2229 H   0  0  0  0  0  0  0  0  0  0  0  0
  146.4868  131.4441  152.1906 H   0  0  0  0  0  0  0  0  0  0  0  0
  145.7079  131.2675  149.8161 H   0  0  0  0  0  0  0  0  0  0  0  0
  144.3660  131.3397  150.9361 H   0  0  0  0  0  0  0  0  0  0  0  0
  145.4958  133.6812  149.3402 H   0  0  0  0  0  0  0  0  0  0  0  0
  142.7978  132.2696  149.0813 H   0  0  0  0  0  0  0  0  0  0  0  0
  144.1441  132.1345  147.9532 H   0  0  0  0  0  0  0  0  0  0  0  0
  143.3192  133.6746  148.1552 H   0  0  0  0  0  0  0  0  0  0  0  0
  143.1210  133.6756  151.2638 H   0  0  0  0  0  0  0  0  0  0  0  0
  143.6707  135.0228  150.2916 H   0  0  0  0  0  0  0  0  0  0  0  0
  151.0663  138.1028  153.5289 H   0  0  0  0  0  0  0  0  0  0  0  0
  145.7646  134.9265  151.4491 H   0  0  0  0  0  0  0  0  0  0  0  0
  1  2  1  0  0  0  0
  1 21  1  0  0  0  0
  1 22  1  0  0  0  0
  1 23  1  0  0  0  0
  2  3  1  0  0  0  0
  2 24  1  0  0  0  0
  2 25  1  0  0  0  0
  3 20  1  0  0  0  0
  3  4  1  0  0  0  0
  4  5  2  0  0  0  0
  4 26  1  0  0  0  0
  5  6  1  0  0  0  0
  5 19  1  0  0  0  0
  6  7  1  0  0  0  0
  6 27  1  0  0  0  0
  7  8  2  0  0  0  0
  7  9  1  0  0  0  0
  9 10  1  0  0  0  0
  9 28  1  0  0  0  0
 10 11  1  0  0  0  0
 10 29  1  0  0  0  0
 10 30  1  0  0  0  0
 11 12  1  0  0  0  0
 11 31  1  0  0  0  0
 11 32  1  0  0  0  0
 12 18  1  0  0  0  0
 12 13  1  0  0  0  0
 12 46  1  0  0  0  0
 13 14  1  0  0  0  0
 13 33  1  0  0  0  0
 13 34  1  0  0  0  0
 14 15  1  0  0  0  0
 14 35  1  0  0  0  0
 14 36  1  0  0  0  0
 15 16  1  0  0  0  0
 15 37  1  0  0  0  0
 15 38  1  0  0  0  0
 16 17  1  0  0  0  0
 16 18  1  0  0  0  0
 16 39  1  0  0  0  0
 17 40  1  0  0  0  0
 17 41  1  0  0  0  0
 17 42  1  0  0  0  0
 18 43  1  0  0  0  0
 18 44  1  0  0  0  0
 19 20  2  0  0  0  0
 19 45  1  0  0  0  0
M  CHG  1  12   1
M  END
> <s_m_source_file>
AV-unprocessed.smi

> <i_m_source_file_index>
3341

> <i_lp_mmshare_version>
43012

> <i_f3d_flags>
0

> <s_epik_input>
W0NIM11bQ0gyXW4xW2NIXWMoW2NIXW4xKVtOSF1DKD1PKVtOSF1bQ0gyXVtDSDJdTjJbQ0gyXVtDSDJdW0NIMl1bQ0BASF0oW0NIM10pW0NIMl0y

> <s_epik_cmdline>
J2VwaWtfcHl0aG9uJywgJy1waCcsICc3LjAnLCAnLXRuJywgJzgnLCAnLW1hJywgJzIwMCcsICctbWV0YWxfYmluZGluZycsICctaW1hZScsICc8aW5maWxlLm1hZT4nLCAnLW9tYWUnLCAnPG91dGZpbGUubWFlPic=

> <r_lp_tautomer_probability>
1

> <r_epik_Ionization_Penalty>
0.00203389

> <r_epik_Ionization_Penalty_Charging>
0.00188267

> <r_epik_Ionization_Penalty_Neutral>
0.000151224

> <r_epik_State_Penalty>
0.0012808

> <r_epik_Charging_Adjusted_Penalty>
0.00316346

> <i_epik_Tot_Q>
1

> <i_epik_Tot_abs_Q>
1

> <r_epik_Metal_State_Penalty>
-0

> <b_epik_Metal_Only>
0

> <s_lp_Force_Field>
OPLS_2005

> <r_lp_Energy>
20.2182

> <b_lp_Chiralities_Consistent>
1

> <s_lp_Variant>
AV-unprocessed.smi:3341-1

> <Gold.Version>
5.8.1

> <Gold.Id.Protein>
6NUR|6NUR_protein|mol2

> <Gold.PLP.Fitness>
43.3325

> <Gold.PLP.PLP>
-35.9655

> <Gold.PLP.part.hbond>
-3.1208

> <Gold.PLP.part.metal>
0.0000

> <Gold.PLP.part.buried>
-4.7972

> <Gold.PLP.part.nonpolar>
-28.6058

> <Gold.PLP.part.repulsive>
0.2732

> <Gold.PLP.ligand.clash>
0.0000

> <Gold.PLP.ligand.torsion>
0.5782

> <Gold.PLP.Chemscore.Hbond>
2.8320

> <Gold.PLP.Chemscore.CHOScore>
0.0000

> <Gold.PLP.Chemscore.Metal>
0.0000

> <Gold.Chemscore.Hbonds>
donor molecule, donor type, donor heavy atom, donor atom, acceptor molecule, acceptor atom, score
      L1  H     6    27       P1  7948  0.99
      L1  H     9    28       P1  7948  0.69
      P1  H  7989  7998       L1    20  1.00

> <Gold.PLP.Chemscore.Internal.Correction>
0.0274

> <Gold.Rescore>
     Score         DG    S(hbond)    S(metal)    S(lipo)     H(rot)  DE(clash)    DE(int)     intcor
     16.36     -18.14       1.88        0.00      89.42       1.59       0.13       1.65       ----

> <Gold.Chemscore.Fitness>
16.3591

> <Gold.Chemscore.DG>
-18.1403

> <Gold.Chemscore.ZeroCoef>
-5.4800

> <Gold.Chemscore.Hbond>
1.8775

> <Gold.Chemscore.Metal>
0.0000

> <Gold.Chemscore.Lipo>
89.4193

> <Gold.Chemscore.Internal_Hbond>
0.0000

> <Gold.Chemscore.DEClash>
0.1277

> <Gold.Chemscore.DEInternal>
1.6534

> <Gold.Chemscore.Rot>
1.5909

> <Gold.Chemscore.Internal.Correction>
   9.000000E+99

> <Gold.Chemscore.Hbonds>
donor molecule, donor type, donor heavy atom, donor atom, acceptor molecule, acceptor atom, score
      L1  H     6    27       P1  7948  0.92
      L1  H     9    28       P1  7948  0.65
      P1  H  7989  7998       L1    20  0.09

> <Gold.Chemscore.Hbond.Weighted>
-6.2710

> <Gold.Chemscore.Metal.Weighted>
-0.0000

> <Gold.Chemscore.Lipo.Weighted>
-10.4621

> <Gold.Chemscore.Internal_Hbond.Weighted>
0.0000

> <Gold.Chemscore.DEClash.Weighted>
0.1277

> <Gold.Chemscore.DEInternal.Weighted>
1.6534

> <Gold.Chemscore.Rot.Weighted>
4.0728

> <Gold.Chemscore.Internal.Correction.Weighted>
   9.000000E+99

> <Gold.Protein.RotatedTorsions>
[ 6907 6896 6895 6894 ] final   98.25 input  -60.11 | X-H torsion
[ 7974 7965 7964 7962 ] final  -17.35 input  175.53 | X-H torsion
[ 8008 7997 7996 7995 ] final -103.57 input   59.86 | X-H torsion
[ 10167 10162 10161 10158 ] final -167.75 input  -65.29 | X-H torsion
[ 10718 10713 10712 10709 ] final  -39.87 input   66.30 | X-H torsion
[ 10763 10752 10751 10750 ] final  116.74 input  -60.55 | X-H torsion
[ 11005 11000 10999 10996 ] final  -44.63 input  -57.11 | X-H torsion

> <Gold.Protein.ActiveResidues>
 VAL166  LYS551  ARG553  GLY616  TRP617  ASP618  TYR619  PRO620  LYS621  CYS622 
 ASP623  PHE694  ASN695  SER759  ASP760  ASP761  ALA762  ILE779  LEU786  VAL792 
 PHE793  MET794  SER795  GLU796  ALA797  LYS798  CYS799  TRP800  GLU811  SER814 

> <Gold.Protein.RotatedAtoms>
  152.5412  134.0610  159.8151 H   0  0  0  0  0  0  0  0  0  0  0  0  # atno 6907 bound_to 6896
  151.0738  133.5437  159.2632 H   0  0  0  0  0  0  0  0  0  0  0  0  # atno 6908 bound_to 6896
  151.2291  135.0556  159.9034 H   0  0  0  0  0  0  0  0  0  0  0  0  # atno 6909 bound_to 6896
  146.1945  140.3767  142.8446 H   0  0  0  0  0  0  0  0  0  0  0  0  # atno 7974 bound_to 7965
  154.8729  140.0422  157.1735 H   0  0  0  0  0  0  0  0  0  0  0  0  # atno 8008 bound_to 7997
  154.8720  140.2960  155.5455 H   0  0  0  0  0  0  0  0  0  0  0  0  # atno 8009 bound_to 7997
  156.2999  140.2427  156.3710 H   0  0  0  0  0  0  0  0  0  0  0  0  # atno 8010 bound_to 7997
  139.6029  144.0973  152.1762 H   0  0  0  0  0  0  0  0  0  0  0  0  # atno 10167 bound_to 10162
  156.2876  130.4224  149.8271 H   0  0  0  0  0  0  0  0  0  0  0  0  # atno 10718 bound_to 10713
  153.5418  135.3557  155.2721 H   0  0  0  0  0  0  0  0  0  0  0  0  # atno 10763 bound_to 10752
  154.8716  135.4093  154.3035 H   0  0  0  0  0  0  0  0  0  0  0  0  # atno 10764 bound_to 10752
  153.3744  135.7065  153.6681 H   0  0  0  0  0  0  0  0  0  0  0  0  # atno 10765 bound_to 10752
  141.0463  133.6760  156.2900 H   0  0  0  0  0  0  0  0  0  0  0  0  # atno 11005 bound_to 11000
  144.8552  140.7060  143.6143 LP  0  0  0  0  0  0  0  0  0  0  0  0  # atno 17320 bound_to 7965
  145.3688  139.1663  143.4343 LP  0  0  0  0  0  0  0  0  0  0  0  0  # atno 17321 bound_to 7965
  140.0574  144.5884  150.7289 LP  0  0  0  0  0  0  0  0  0  0  0  0  # atno 17342 bound_to 10162
  140.7263  143.2640  151.4108 LP  0  0  0  0  0  0  0  0  0  0  0  0  # atno 17343 bound_to 10162
  156.5696  130.8419  151.3352 LP  0  0  0  0  0  0  0  0  0  0  0  0  # atno 17370 bound_to 10713
  157.7333  130.9728  150.1971 LP  0  0  0  0  0  0  0  0  0  0  0  0  # atno 17371 bound_to 10713
  140.6140  134.5429  157.5538 LP  0  0  0  0  0  0  0  0  0  0  0  0  # atno 17394 bound_to 11000
  139.9314  134.7956  156.0920 LP  0  0  0  0  0  0  0  0  0  0  0  0  # atno 17395 bound_to 11000

$$$$
