AV-unprocessed.smi:49|AV-procd|sdf|468|dock5
  -GOLD-   2262016333D 1   1.00000     0.00000
 Structure written by MMmdl.
 28 29  0  0  0  0  0  0  0  0  2 V2000
  138.6665  137.2491  153.5034 C   0  0  0  0  0  0  0  0  0  0  0  0
  140.0701  137.5003  154.0658 C   0  0  0  0  0  0  0  0  0  0  0  0
  140.9835  136.3407  153.8426 C   0  0  0  0  0  0  0  0  0  0  0  0
  142.1771  136.4552  153.1859 N   0  0  0  0  0  0  0  0  0  0  0  0
  142.5803  135.1863  153.2013 C   0  0  0  0  0  0  0  0  0  0  0  0
  143.8495  134.6564  152.6035 C   0  0  1  0  0  0  0  0  0  0  0  0
  143.6564  133.6030  151.5105 C   0  0  0  0  0  0  0  0  0  0  0  0
  144.8594  133.8537  150.6064 C   0  0  1  0  0  0  0  0  0  0  0  0
  144.6521  133.3654  149.2982 O   0  0  0  0  0  0  0  0  0  0  0  0
  145.0116  135.3790  150.6384 C   0  0  0  0  0  0  0  0  0  0  0  0
  144.4925  135.8162  151.9501 N   0  3  0  0  0  0  0  0  0  0  0  0
  141.6982  134.3830  153.8007 N   0  0  0  0  0  0  0  0  0  0  0  0
  140.6434  135.1106  154.2235 N   0  0  0  0  0  0  0  0  0  0  0  0
  144.5138  134.2824  153.3844 H   0  0  0  0  0  0  0  0  0  0  0  0
  145.7461  133.3842  151.0352 H   0  0  0  0  0  0  0  0  0  0  0  0
  141.7633  133.3832  153.9300 H   0  0  0  0  0  0  0  0  0  0  0  0
  138.0194  138.1089  153.6768 H   0  0  0  0  0  0  0  0  0  0  0  0
  138.2028  136.3825  153.9757 H   0  0  0  0  0  0  0  0  0  0  0  0
  138.6997  137.0679  152.4286 H   0  0  0  0  0  0  0  0  0  0  0  0
  140.5008  138.3880  153.6010 H   0  0  0  0  0  0  0  0  0  0  0  0
  140.0089  137.7098  155.1345 H   0  0  0  0  0  0  0  0  0  0  0  0
  143.6009  132.5854  151.8986 H   0  0  0  0  0  0  0  0  0  0  0  0
  142.7371  133.8020  150.9560 H   0  0  0  0  0  0  0  0  0  0  0  0
  145.0533  133.9615  148.6838 H   0  0  0  0  0  0  0  0  0  0  0  0
  146.0427  135.6988  150.4864 H   0  0  0  0  0  0  0  0  0  0  0  0
  144.3974  135.8457  149.8668 H   0  0  0  0  0  0  0  0  0  0  0  0
  143.8024  136.5400  151.8042 H   0  0  0  0  0  0  0  0  0  0  0  0
  145.2390  136.1683  152.5318 H   0  0  0  0  0  0  0  0  0  0  0  0
  1  2  1  0  0  0  0
  1 17  1  0  0  0  0
  1 18  1  0  0  0  0
  1 19  1  0  0  0  0
  2 20  1  0  0  0  0
  2 21  1  0  0  0  0
  2  3  1  0  0  0  0
  3  4  1  0  0  0  0
  3 13  2  0  0  0  0
  4  5  2  0  0  0  0
  5  6  1  0  0  0  0
  5 12  1  0  0  0  0
  6 14  1  0  0  0  0
  6 11  1  0  0  0  0
  6  7  1  0  0  0  0
  7  8  1  0  0  0  0
  7 22  1  0  0  0  0
  7 23  1  0  0  0  0
  8 15  1  0  0  0  0
  8  9  1  0  0  0  0
  8 10  1  0  0  0  0
  9 24  1  0  0  0  0
 10 11  1  0  0  0  0
 10 25  1  0  0  0  0
 10 26  1  0  0  0  0
 11 27  1  0  0  0  0
 11 28  1  0  0  0  0
 12 13  1  0  0  0  0
 12 16  1  0  0  0  0
M  CHG  1  11   1
M  END
> <s_m_source_file>
AV-unprocessed.smi

> <i_m_source_file_index>
49

> <i_lp_mmshare_version>
43012

> <i_f3d_flags>
0

> <s_epik_input>
W0NIM11bQ0gyXWMxbmMobltuSF0xKVtDQEBIXTJbQ0gyXVtDQEBIXShbT0hdKVtDSDJdW05IXTI=

> <s_epik_cmdline>
J2VwaWtfcHl0aG9uJywgJy1waCcsICc3LjAnLCAnLXRuJywgJzgnLCAnLW1hJywgJzIwMCcsICctbWV0YWxfYmluZGluZycsICctaW1hZScsICc8aW5maWxlLm1hZT4nLCAnLW9tYWUnLCAnPG91dGZpbGUubWFlPic=

> <r_epik_Ionization_Penalty>
0.372103

> <r_epik_Ionization_Penalty_Charging>
0.0688988

> <r_epik_Ionization_Penalty_Neutral>
0.303204

> <r_epik_State_Penalty>
0.737493

> <r_epik_Charging_Adjusted_Penalty>
0.806392

> <i_epik_Tot_Q>
1

> <i_epik_Tot_abs_Q>
1

> <r_epik_Metal_State_Penalty>
1.01235

> <b_epik_Metal_Only>
0

> <s_lp_Force_Field>
OPLS_2005

> <r_lp_Energy>
17.828

> <b_lp_Chiralities_Consistent>
1

> <s_lp_Variant>
AV-unprocessed.smi:49-6

> <Gold.Version>
5.8.1

> <Gold.Id.Protein>
6NUR|6NUR_protein|mol2

> <Gold.PLP.Fitness>
35.9147

> <Gold.PLP.PLP>
-26.9869

> <Gold.PLP.part.hbond>
-4.4883

> <Gold.PLP.part.metal>
0.0000

> <Gold.PLP.part.buried>
-6.1476

> <Gold.PLP.part.nonpolar>
-16.4244

> <Gold.PLP.part.repulsive>
0.4127

> <Gold.PLP.ligand.clash>
0.0000

> <Gold.PLP.ligand.torsion>
0.0458

> <Gold.PLP.Chemscore.Hbond>
3.0000

> <Gold.PLP.Chemscore.CHOScore>
0.0000

> <Gold.PLP.Chemscore.Metal>
0.0000

> <Gold.Chemscore.Hbonds>
donor molecule, donor type, donor heavy atom, donor atom, acceptor molecule, acceptor atom, score
      L1  H     9    24       P1  7921  1.00
      L1  H    12    16       P1 10957  1.00
      P1  H 11000 11005       L1    13  1.00

> <Gold.PLP.Chemscore.Internal.Correction>
0.0195

> <Gold.Rescore>
     Score         DG    S(hbond)    S(metal)    S(lipo)     H(rot)  DE(clash)    DE(int)     intcor
     14.80     -14.83       2.87        0.00      39.29       1.89       0.02       0.01       ----

> <Gold.Chemscore.Fitness>
14.7980

> <Gold.Chemscore.DG>
-14.8252

> <Gold.Chemscore.ZeroCoef>
-5.4800

> <Gold.Chemscore.Hbond>
2.8691

> <Gold.Chemscore.Metal>
0.0000

> <Gold.Chemscore.Lipo>
39.2859

> <Gold.Chemscore.Internal_Hbond>
0.0000

> <Gold.Chemscore.DEClash>
0.0174

> <Gold.Chemscore.DEInternal>
0.0098

> <Gold.Chemscore.Rot>
1.8883

> <Gold.Chemscore.Internal.Correction>
   9.000000E+99

> <Gold.Chemscore.Hbonds>
donor molecule, donor type, donor heavy atom, donor atom, acceptor molecule, acceptor atom, score
      L1  H     9    24       P1  7921  0.98
      L1  H    12    16       P1 10957  0.91
      P1  H 11000 11005       L1    13  0.30

> <Gold.Chemscore.Hbond.Weighted>
-9.5827

> <Gold.Chemscore.Metal.Weighted>
-0.0000

> <Gold.Chemscore.Lipo.Weighted>
-4.5965

> <Gold.Chemscore.Internal_Hbond.Weighted>
0.0000

> <Gold.Chemscore.DEClash.Weighted>
0.0174

> <Gold.Chemscore.DEInternal.Weighted>
0.0098

> <Gold.Chemscore.Rot.Weighted>
4.8340

> <Gold.Chemscore.Internal.Correction.Weighted>
   9.000000E+99

> <Gold.Protein.RotatedTorsions>
[ 6907 6896 6895 6894 ] final  -55.02 input  -60.11 | X-H torsion
[ 7974 7965 7964 7962 ] final -154.92 input  175.53 | X-H torsion
[ 8008 7997 7996 7995 ] final  -62.86 input   59.86 | X-H torsion
[ 10167 10162 10161 10158 ] final  -98.55 input  -65.29 | X-H torsion
[ 10718 10713 10712 10709 ] final   19.05 input   66.30 | X-H torsion
[ 10763 10752 10751 10750 ] final  -30.25 input  -60.55 | X-H torsion
[ 11005 11000 10999 10996 ] final   32.16 input  -57.11 | X-H torsion

> <Gold.Protein.ActiveResidues>
 VAL166  LYS551  ARG553  GLY616  TRP617  ASP618  TYR619  PRO620  LYS621  CYS622 
 ASP623  PHE694  ASN695  SER759  ASP760  ASP761  ALA762  ILE779  LEU786  VAL792 
 PHE793  MET794  SER795  GLU796  ALA797  LYS798  CYS799  TRP800  GLU811  SER814 

> <Gold.Protein.RotatedAtoms>
  150.8287  134.7530  159.6834 H   0  0  0  0  0  0  0  0  0  0  0  0  # atno 6907 bound_to 6896
  152.4394  134.5617  159.9906 H   0  0  0  0  0  0  0  0  0  0  0  0  # atno 6908 bound_to 6896
  151.5783  133.3343  159.3039 H   0  0  0  0  0  0  0  0  0  0  0  0  # atno 6909 bound_to 6896
  144.7665  140.4321  143.5938 H   0  0  0  0  0  0  0  0  0  0  0  0  # atno 7974 bound_to 7965
  154.4522  140.0987  156.6652 H   0  0  0  0  0  0  0  0  0  0  0  0  # atno 8008 bound_to 7997
  155.5249  140.3480  155.4396 H   0  0  0  0  0  0  0  0  0  0  0  0  # atno 8009 bound_to 7997
  156.0705  140.1348  156.9823 H   0  0  0  0  0  0  0  0  0  0  0  0  # atno 8010 bound_to 7997
  140.2718  143.3339  152.0527 H   0  0  0  0  0  0  0  0  0  0  0  0  # atno 10167 bound_to 10162
  157.1050  130.6484  149.5882 H   0  0  0  0  0  0  0  0  0  0  0  0  # atno 10718 bound_to 10713
  153.7779  135.6907  153.4894 H   0  0  0  0  0  0  0  0  0  0  0  0  # atno 10763 bound_to 10752
  153.1831  135.4499  155.0052 H   0  0  0  0  0  0  0  0  0  0  0  0  # atno 10764 bound_to 10752
  154.8093  135.3370  154.7284 H   0  0  0  0  0  0  0  0  0  0  0  0  # atno 10765 bound_to 10752
  140.2764  134.3023  155.7813 H   0  0  0  0  0  0  0  0  0  0  0  0  # atno 11005 bound_to 11000
  145.6454  139.1556  143.2892 LP  0  0  0  0  0  0  0  0  0  0  0  0  # atno 17320 bound_to 7965
  146.1777  140.6547  142.9204 LP  0  0  0  0  0  0  0  0  0  0  0  0  # atno 17321 bound_to 7965
  139.4987  144.6651  151.6374 LP  0  0  0  0  0  0  0  0  0  0  0  0  # atno 17342 bound_to 10162
  140.5883  143.9824  150.6309 LP  0  0  0  0  0  0  0  0  0  0  0  0  # atno 17343 bound_to 10162
  155.9864  130.4899  150.7078 LP  0  0  0  0  0  0  0  0  0  0  0  0  # atno 17370 bound_to 10713
  157.4609  131.0883  151.0747 LP  0  0  0  0  0  0  0  0  0  0  0  0  # atno 17371 bound_to 10713
  141.2169  133.7498  156.9413 LP  0  0  0  0  0  0  0  0  0  0  0  0  # atno 17394 bound_to 11000
  140.1325  134.9347  157.2356 LP  0  0  0  0  0  0  0  0  0  0  0  0  # atno 17395 bound_to 11000

$$$$
