AV-unprocessed.smi:3234|AV-procd|sdf|12354|dock1
  -GOLD-   2272018213D 1   1.00000     0.00000
 Structure written by MMmdl.
 38 40  0  0  0  0  0  0  0  0  3 V2000
  145.2462  138.5379  152.7920 O   0  0  0  0  0  0  0  0  0  0  0  0
  146.3093  137.9978  152.4880 C   0  0  0  0  0  0  0  0  0  0  0  0
  147.5333  138.4735  152.7770 N   0  0  0  0  0  0  0  0  0  0  0  0
  147.8777  139.6772  153.4517 C   0  0  0  0  0  0  0  0  0  0  0  0
  149.1015  139.7048  154.1570 C   0  0  0  0  0  0  0  0  0  0  0  0
  149.4917  140.8816  154.8283 C   0  0  0  0  0  0  0  0  0  0  0  0
  148.7006  141.9748  154.7836 N   0  3  0  0  0  0  0  0  0  0  0  0
  147.5299  142.0017  154.1111 C   0  0  0  0  0  0  0  0  0  0  0  0
  147.0870  140.8545  153.4215 C   0  0  0  0  0  0  0  0  0  0  0  0
  146.3796  136.8295  151.8335 N   0  0  0  0  0  0  0  0  0  0  0  0
  145.2224  136.0557  151.3943 C   0  0  2  0  0  0  0  0  0  0  0  0
  144.2643  135.6552  152.5197 C   0  0  0  0  0  0  0  0  0  0  0  0
  143.6430  134.3299  152.0453 C   0  0  0  0  0  0  0  0  0  0  0  0
  144.3817  133.9206  150.8277 N   0  3  2  0  0  0  0  0  0  0  0  0
  144.5846  132.4620  150.6990 C   0  0  0  0  0  0  0  0  0  0  0  0
  145.9234  131.9907  151.2148 C   0  0  0  0  0  0  0  0  0  0  0  0
  145.6758  132.0872  149.7249 C   0  0  0  0  0  0  0  0  0  0  0  0
  145.6276  134.7073  150.8065 C   0  0  0  0  0  0  0  0  0  0  0  0
  148.3101  137.8747  152.5374 H   0  0  0  0  0  0  0  0  0  0  0  0
  149.7368  138.8314  154.1913 H   0  0  0  0  0  0  0  0  0  0  0  0
  150.4068  140.9809  155.3936 H   0  0  0  0  0  0  0  0  0  0  0  0
  146.9880  142.9358  154.1394 H   0  0  0  0  0  0  0  0  0  0  0  0
  146.1579  140.9053  152.8746 H   0  0  0  0  0  0  0  0  0  0  0  0
  147.2921  136.4504  151.6254 H   0  0  0  0  0  0  0  0  0  0  0  0
  144.6726  136.6147  150.6340 H   0  0  0  0  0  0  0  0  0  0  0  0
  144.8137  135.4875  153.4474 H   0  0  0  0  0  0  0  0  0  0  0  0
  143.5136  136.4219  152.7139 H   0  0  0  0  0  0  0  0  0  0  0  0
  143.7229  133.5760  152.8300 H   0  0  0  0  0  0  0  0  0  0  0  0
  142.5860  134.4454  151.8041 H   0  0  0  0  0  0  0  0  0  0  0  0
  143.6998  131.8365  150.8045 H   0  0  0  0  0  0  0  0  0  0  0  0
  146.5919  132.7247  151.6615 H   0  0  0  0  0  0  0  0  0  0  0  0
  145.9722  130.9936  151.6479 H   0  0  0  0  0  0  0  0  0  0  0  0
  145.5623  131.1534  149.1778 H   0  0  0  0  0  0  0  0  0  0  0  0
  146.1796  132.8853  149.1822 H   0  0  0  0  0  0  0  0  0  0  0  0
  146.0300  134.7932  149.7965 H   0  0  0  0  0  0  0  0  0  0  0  0
  146.3788  134.2245  151.4349 H   0  0  0  0  0  0  0  0  0  0  0  0
  143.8319  134.2293  150.0386 H   0  0  0  0  0  0  0  0  0  0  0  0
  149.0019  142.8173  155.2745 H   0  0  0  0  0  0  0  0  0  0  0  0
  1  2  2  0  0  0  0
  2  3  1  0  0  0  0
  2 10  1  0  0  0  0
  3  4  1  0  0  0  0
  3 19  1  0  0  0  0
  4  9  1  0  0  0  0
  4  5  2  0  0  0  0
  5  6  1  0  0  0  0
  5 20  1  0  0  0  0
  6  7  2  0  0  0  0
  6 21  1  0  0  0  0
  7  8  1  0  0  0  0
  7 38  1  0  0  0  0
  8  9  2  0  0  0  0
  8 22  1  0  0  0  0
  9 23  1  0  0  0  0
 10 11  1  0  0  0  0
 10 24  1  0  0  0  0
 11 18  1  0  0  0  0
 11 12  1  0  0  0  0
 11 25  1  0  0  0  0
 12 13  1  0  0  0  0
 12 26  1  0  0  0  0
 12 27  1  0  0  0  0
 13 14  1  0  0  0  0
 13 28  1  0  0  0  0
 13 29  1  0  0  0  0
 14 15  1  0  0  0  0
 14 18  1  0  0  0  0
 14 37  1  0  0  0  0
 15 17  1  0  0  0  0
 15 16  1  0  0  0  0
 15 30  1  0  0  0  0
 16 17  1  0  0  0  0
 16 31  1  0  0  0  0
 16 32  1  0  0  0  0
 17 33  1  0  0  0  0
 17 34  1  0  0  0  0
 18 35  1  0  0  0  0
 18 36  1  0  0  0  0
M  CHG  1   7   1
M  CHG  1  14   1
M  END
> <s_m_source_file>
AV-unprocessed.smi

> <i_m_source_file_index>
3234

> <i_lp_mmshare_version>
43012

> <i_f3d_flags>
0

> <s_epik_input>
W2NIXTFbY0hdbltjSF1bY0hdYzFbTkhdQyg9TylbTkhdW0NAQEhdMltDSDJdW0NIMl1OKFtDSDJdMilbQ0hdM1tDSDJdW0NIMl0z

> <s_epik_cmdline>
J2VwaWtfcHl0aG9uJywgJy1waCcsICc3LjAnLCAnLXRuJywgJzgnLCAnLW1hJywgJzIwMCcsICctbWV0YWxfYmluZGluZycsICctaW1hZScsICc8aW5maWxlLm1hZT4nLCAnLW9tYWUnLCAnPG91dGZpbGUubWFlPic=

> <r_epik_Ionization_Penalty>
1.14489

> <r_epik_Ionization_Penalty_Charging>
1.14487

> <r_epik_Ionization_Penalty_Neutral>
1.95212e-05

> <r_epik_State_Penalty>
1.205

> <r_epik_Charging_Adjusted_Penalty>
2.34987

> <i_epik_Tot_Q>
2

> <i_epik_Tot_abs_Q>
2

> <r_epik_Metal_State_Penalty>
1.28709

> <b_epik_Metal_Only>
0

> <s_lp_Force_Field>
OPLS_2005

> <r_lp_Energy>
48.7284

> <b_lp_Chiralities_Consistent>
1

> <s_lp_Variant>
AV-unprocessed.smi:3234-7

> <Gold.Version>
5.8.1

> <Gold.Id.Protein>
6NUR|6NUR_protein|mol2

> <Gold.PLP.Fitness>
45.2202

> <Gold.PLP.PLP>
-33.6139

> <Gold.PLP.part.hbond>
-3.9866

> <Gold.PLP.part.metal>
0.0000

> <Gold.PLP.part.buried>
-2.6663

> <Gold.PLP.part.nonpolar>
-31.4087

> <Gold.PLP.part.repulsive>
4.5429

> <Gold.PLP.ligand.clash>
0.0000

> <Gold.PLP.ligand.torsion>
0.8294

> <Gold.PLP.Chemscore.Hbond>
4.0000

> <Gold.PLP.Chemscore.CHOScore>
0.0000

> <Gold.PLP.Chemscore.Metal>
0.0000

> <Gold.Chemscore.Hbonds>
donor molecule, donor type, donor heavy atom, donor atom, acceptor molecule, acceptor atom, score
      L1  H     3    19       P1  7948  1.00
      L1  H     7    38       P1  8028  2.00
      L1  H    10    24       P1  7948  1.00

> <Gold.PLP.Chemscore.Internal.Correction>
1.2650

> <Gold.Rescore>
     Score         DG    S(hbond)    S(metal)    S(lipo)     H(rot)  DE(clash)    DE(int)     intcor
     18.67     -21.95       2.92        0.00      84.08       1.22       1.60       1.69       ----

> <Gold.Chemscore.Fitness>
18.6657

> <Gold.Chemscore.DG>
-21.9471

> <Gold.Chemscore.ZeroCoef>
-5.4800

> <Gold.Chemscore.Hbond>
2.9236

> <Gold.Chemscore.Metal>
0.0000

> <Gold.Chemscore.Lipo>
84.0824

> <Gold.Chemscore.Internal_Hbond>
0.0000

> <Gold.Chemscore.DEClash>
1.5953

> <Gold.Chemscore.DEInternal>
1.6861

> <Gold.Chemscore.Rot>
1.2248

> <Gold.Chemscore.Internal.Correction>
   9.000000E+99

> <Gold.Chemscore.Hbonds>
donor molecule, donor type, donor heavy atom, donor atom, acceptor molecule, acceptor atom, score
      L1  H     3    19       P1  7948  0.94
      L1  H     7    38       P1  8028  0.95
      L1  H    10    24       P1  7948  0.99

> <Gold.Chemscore.Hbond.Weighted>
-9.7649

> <Gold.Chemscore.Metal.Weighted>
-0.0000

> <Gold.Chemscore.Lipo.Weighted>
-9.8376

> <Gold.Chemscore.Internal_Hbond.Weighted>
0.0000

> <Gold.Chemscore.DEClash.Weighted>
1.5953

> <Gold.Chemscore.DEInternal.Weighted>
1.6861

> <Gold.Chemscore.Rot.Weighted>
3.1355

> <Gold.Chemscore.Internal.Correction.Weighted>
   9.000000E+99

> <Gold.Protein.RotatedTorsions>
[ 6907 6896 6895 6894 ] final  -30.72 input  -60.11 | X-H torsion
[ 7974 7965 7964 7962 ] final -149.06 input  175.53 | X-H torsion
[ 8008 7997 7996 7995 ] final -154.01 input   59.86 | X-H torsion
[ 10167 10162 10161 10158 ] final   24.14 input  -65.29 | X-H torsion
[ 10718 10713 10712 10709 ] final -178.60 input   66.30 | X-H torsion
[ 10763 10752 10751 10750 ] final  -75.32 input  -60.55 | X-H torsion
[ 11005 11000 10999 10996 ] final -114.10 input  -57.11 | X-H torsion

> <Gold.Protein.ActiveResidues>
 VAL166  LYS551  ARG553  GLY616  TRP617  ASP618  TYR619  PRO620  LYS621  CYS622 
 ASP623  PHE694  ASN695  SER759  ASP760  ASP761  ALA762  ILE779  LEU786  VAL792 
 PHE793  MET794  SER795  GLU796  ALA797  LYS798  CYS799  TRP800  GLU811  SER814 

> <Gold.Protein.RotatedAtoms>
  151.1017  134.9976  159.8451 H   0  0  0  0  0  0  0  0  0  0  0  0  # atno 6907 bound_to 6896
  152.5437  134.1942  159.8696 H   0  0  0  0  0  0  0  0  0  0  0  0  # atno 6908 bound_to 6896
  151.1986  133.4580  159.2629 H   0  0  0  0  0  0  0  0  0  0  0  0  # atno 6909 bound_to 6896
  144.7991  140.5115  143.5720 H   0  0  0  0  0  0  0  0  0  0  0  0  # atno 7974 bound_to 7965
  155.6797  140.0743  157.2489 H   0  0  0  0  0  0  0  0  0  0  0  0  # atno 8008 bound_to 7997
  154.4108  140.1684  156.2021 H   0  0  0  0  0  0  0  0  0  0  0  0  # atno 8009 bound_to 7997
  155.9545  140.3375  155.6439 H   0  0  0  0  0  0  0  0  0  0  0  0  # atno 8010 bound_to 7997
  140.5212  143.9999  150.6418 H   0  0  0  0  0  0  0  0  0  0  0  0  # atno 10167 bound_to 10162
  156.8467  130.9705  151.3096 H   0  0  0  0  0  0  0  0  0  0  0  0  # atno 10718 bound_to 10713
  154.4850  135.5835  153.6417 H   0  0  0  0  0  0  0  0  0  0  0  0  # atno 10763 bound_to 10752
  152.9853  135.6099  154.3198 H   0  0  0  0  0  0  0  0  0  0  0  0  # atno 10764 bound_to 10752
  154.3093  135.2845  155.2553 H   0  0  0  0  0  0  0  0  0  0  0  0  # atno 10765 bound_to 10752
  141.0573  133.9592  157.2731 H   0  0  0  0  0  0  0  0  0  0  0  0  # atno 11005 bound_to 11000
  145.5599  139.1479  143.3347 LP  0  0  0  0  0  0  0  0  0  0  0  0  # atno 17320 bound_to 7965
  146.2267  140.5735  142.8993 LP  0  0  0  0  0  0  0  0  0  0  0  0  # atno 17321 bound_to 7965
  140.3349  143.3055  152.0649 LP  0  0  0  0  0  0  0  0  0  0  0  0  # atno 17342 bound_to 10162
  139.4924  144.6483  151.6730 LP  0  0  0  0  0  0  0  0  0  0  0  0  # atno 17343 bound_to 10162
  157.6326  130.8741  149.9301 LP  0  0  0  0  0  0  0  0  0  0  0  0  # atno 17370 bound_to 10713
  156.0851  130.3669  150.0504 LP  0  0  0  0  0  0  0  0  0  0  0  0  # atno 17371 bound_to 10713
  139.9401  135.0192  156.8681 LP  0  0  0  0  0  0  0  0  0  0  0  0  # atno 17394 bound_to 11000
  140.5939  134.0236  155.7510 LP  0  0  0  0  0  0  0  0  0  0  0  0  # atno 17395 bound_to 11000

$$$$
