AV-unprocessed.smi:1753|AV-procd|sdf|7063|dock10
  -GOLD-   22720 8283D 1   1.00000     0.00000
 Structure written by MMmdl.
 37 38  0  0  0  0  0  0  0  0  1 V2000
  143.4910  132.4006  149.5858 C   0  0  0  0  0  0  0  0  0  0  0  0
  144.5533  133.1216  150.3619 C   0  0  0  0  0  0  0  0  0  0  0  0
  144.7577  134.5275  150.4726 C   0  0  0  0  0  0  0  0  0  0  0  0
  145.8496  134.6106  151.2932 C   0  0  0  0  0  0  0  0  0  0  0  0
  146.4946  135.7199  151.7433 N   0  0  0  0  0  0  0  0  0  0  0  0
  145.9755  136.8321  152.2924 C   0  0  0  0  0  0  0  0  0  0  0  0
  144.7792  137.0348  152.5007 O   0  0  0  0  0  0  0  0  0  0  0  0
  146.9391  137.7131  152.5982 N   0  0  0  0  0  0  0  0  0  0  0  0
  146.7299  139.0239  153.2064 C   0  0  0  0  0  0  0  0  0  0  0  0
  148.0614  139.7145  153.5581 C   0  0  1  0  0  0  0  0  0  0  0  0
  147.8533  141.1391  154.1077 C   0  0  0  0  0  0  0  0  0  0  0  0
  149.1860  141.6485  154.6652 C   0  0  0  0  0  0  0  0  0  0  0  0
  150.0200  140.1765  155.3646 S   0  0  0  0  0  0  0  0  0  0  0  0
  151.3673  140.0693  154.7850 O   0  0  0  0  0  0  0  0  0  0  0  0
  149.8163  140.1429  156.8206 O   0  0  0  0  0  0  0  0  0  0  0  0
  148.9140  138.9424  154.5804 C   0  0  0  0  0  0  0  0  0  0  0  0
  146.2492  133.3350  151.6313 N   0  0  0  0  0  0  0  0  0  0  0  0
  147.3449  132.8871  152.4694 C   0  0  0  0  0  0  0  0  0  0  0  0
  145.4424  132.4189  151.0543 N   0  0  0  0  0  0  0  0  0  0  0  0
  142.9442  133.0854  148.9372 H   0  0  0  0  0  0  0  0  0  0  0  0
  142.7699  131.9298  150.2542 H   0  0  0  0  0  0  0  0  0  0  0  0
  143.9220  131.6217  148.9562 H   0  0  0  0  0  0  0  0  0  0  0  0
  144.1867  135.3226  150.0176 H   0  0  0  0  0  0  0  0  0  0  0  0
  147.4989  135.7002  151.6467 H   0  0  0  0  0  0  0  0  0  0  0  0
  147.8943  137.4591  152.3923 H   0  0  0  0  0  0  0  0  0  0  0  0
  146.1813  139.6344  152.4885 H   0  0  0  0  0  0  0  0  0  0  0  0
  146.0921  138.9495  154.0892 H   0  0  0  0  0  0  0  0  0  0  0  0
  148.6515  139.8083  152.6450 H   0  0  0  0  0  0  0  0  0  0  0  0
  147.4577  141.8129  153.3471 H   0  0  0  0  0  0  0  0  0  0  0  0
  147.1222  141.1080  154.9170 H   0  0  0  0  0  0  0  0  0  0  0  0
  149.8136  142.0447  153.8666 H   0  0  0  0  0  0  0  0  0  0  0  0
  149.0660  142.4159  155.4299 H   0  0  0  0  0  0  0  0  0  0  0  0
  148.2910  138.5108  155.3645 H   0  0  0  0  0  0  0  0  0  0  0  0
  149.5030  138.1441  154.1286 H   0  0  0  0  0  0  0  0  0  0  0  0
  147.9469  133.7324  152.8027 H   0  0  0  0  0  0  0  0  0  0  0  0
  147.9820  132.2031  151.9078 H   0  0  0  0  0  0  0  0  0  0  0  0
  146.9495  132.3694  153.3437 H   0  0  0  0  0  0  0  0  0  0  0  0
  1  2  1  0  0  0  0
  1 20  1  0  0  0  0
  1 21  1  0  0  0  0
  1 22  1  0  0  0  0
  2 19  2  0  0  0  0
  2  3  1  0  0  0  0
  3  4  2  0  0  0  0
  3 23  1  0  0  0  0
  4  5  1  0  0  0  0
  4 17  1  0  0  0  0
  5  6  1  0  0  0  0
  5 24  1  0  0  0  0
  6  7  2  0  0  0  0
  6  8  1  0  0  0  0
  8  9  1  0  0  0  0
  8 25  1  0  0  0  0
  9 10  1  0  0  0  0
  9 26  1  0  0  0  0
  9 27  1  0  0  0  0
 10 16  1  0  0  0  0
 10 11  1  0  0  0  0
 10 28  1  0  0  0  0
 11 12  1  0  0  0  0
 11 29  1  0  0  0  0
 11 30  1  0  0  0  0
 12 13  1  0  0  0  0
 12 31  1  0  0  0  0
 12 32  1  0  0  0  0
 13 14  2  0  0  0  0
 13 15  2  0  0  0  0
 13 16  1  0  0  0  0
 16 33  1  0  0  0  0
 16 34  1  0  0  0  0
 17 18  1  0  0  0  0
 17 19  1  0  0  0  0
 18 35  1  0  0  0  0
 18 36  1  0  0  0  0
 18 37  1  0  0  0  0
M  END
> <s_m_source_file>
AV-unprocessed.smi

> <i_m_source_file_index>
1753

> <i_lp_mmshare_version>
43012

> <i_f3d_flags>
0

> <s_epik_input>
W0NIM11jMVtjSF1jKG4objEpW0NIM10pW05IXUMoPU8pW05IXVtDSDJdW0NAQEhdKFtDSDJdMilbQ0gyXVtDSDJdUzIoPU8pPU8=

> <s_epik_cmdline>
J2VwaWtfcHl0aG9uJywgJy1waCcsICc3LjAnLCAnLXRuJywgJzgnLCAnLW1hJywgJzIwMCcsICctbWV0YWxfYmluZGluZycsICctaW1hZScsICc8aW5maWxlLm1hZT4nLCAnLW9tYWUnLCAnPG91dGZpbGUubWFlPic=

> <r_lp_tautomer_probability>
1

> <r_epik_Ionization_Penalty>
9.06651e-05

> <r_epik_Ionization_Penalty_Charging>
0

> <r_epik_Ionization_Penalty_Neutral>
9.06651e-05

> <r_epik_State_Penalty>
-0

> <r_epik_Charging_Adjusted_Penalty>
0

> <i_epik_Tot_Q>
0

> <i_epik_Tot_abs_Q>
0

> <r_epik_Metal_State_Penalty>
-0

> <b_epik_Metal_Only>
0

> <s_lp_Force_Field>
OPLS_2005

> <r_lp_Energy>
6.63642

> <b_lp_Chiralities_Consistent>
1

> <s_lp_Variant>
AV-unprocessed.smi:1753-2

> <Gold.Version>
5.8.1

> <Gold.Id.Protein>
6NUR|6NUR_protein|mol2

> <Gold.PLP.Fitness>
39.9383

> <Gold.PLP.PLP>
-32.0051

> <Gold.PLP.part.hbond>
-2.7651

> <Gold.PLP.part.metal>
0.0000

> <Gold.PLP.part.buried>
-0.7082

> <Gold.PLP.part.nonpolar>
-29.3081

> <Gold.PLP.part.repulsive>
0.5163

> <Gold.PLP.ligand.clash>
0.0000

> <Gold.PLP.ligand.torsion>
0.4380

> <Gold.PLP.Chemscore.Hbond>
2.9353

> <Gold.PLP.Chemscore.CHOScore>
0.0000

> <Gold.PLP.Chemscore.Metal>
0.0000

> <Gold.Chemscore.Hbonds>
donor molecule, donor type, donor heavy atom, donor atom, acceptor molecule, acceptor atom, score
      L1  H     5    24       P1  7948  0.98
      L1  H     8    25       P1  7948  0.94
      P1  H  7989  7998       L1    14  1.00

> <Gold.PLP.Chemscore.Internal.Correction>
0.0035

> <Gold.Rescore>
     Score         DG    S(hbond)    S(metal)    S(lipo)     H(rot)  DE(clash)    DE(int)     intcor
     18.80     -19.15       2.94        0.00      61.52       1.31       0.05       0.31       ----

> <Gold.Chemscore.Fitness>
18.7978

> <Gold.Chemscore.DG>
-19.1548

> <Gold.Chemscore.ZeroCoef>
-5.4800

> <Gold.Chemscore.Hbond>
2.9417

> <Gold.Chemscore.Metal>
0.0000

> <Gold.Chemscore.Lipo>
61.5207

> <Gold.Chemscore.Internal_Hbond>
0.0000

> <Gold.Chemscore.DEClash>
0.0488

> <Gold.Chemscore.DEInternal>
0.3082

> <Gold.Chemscore.Rot>
1.3080

> <Gold.Chemscore.Internal.Correction>
   9.000000E+99

> <Gold.Chemscore.Hbonds>
donor molecule, donor type, donor heavy atom, donor atom, acceptor molecule, acceptor atom, score
      L1  H     5    24       P1  7948  0.91
      L1  H     8    25       P1  7948  0.91
      P1  H  7989  7998       L1    14  0.88

> <Gold.Chemscore.Hbond.Weighted>
-9.8254

> <Gold.Chemscore.Metal.Weighted>
-0.0000

> <Gold.Chemscore.Lipo.Weighted>
-7.1979

> <Gold.Chemscore.Internal_Hbond.Weighted>
0.0000

> <Gold.Chemscore.DEClash.Weighted>
0.0488

> <Gold.Chemscore.DEInternal.Weighted>
0.3082

> <Gold.Chemscore.Rot.Weighted>
3.3485

> <Gold.Chemscore.Internal.Correction.Weighted>
   9.000000E+99

> <Gold.Protein.RotatedTorsions>
[ 6907 6896 6895 6894 ] final  -56.68 input  -60.11 | X-H torsion
[ 7974 7965 7964 7962 ] final  -75.32 input  175.53 | X-H torsion
[ 8008 7997 7996 7995 ] final -156.66 input   59.86 | X-H torsion
[ 10167 10162 10161 10158 ] final  -96.33 input  -65.29 | X-H torsion
[ 10718 10713 10712 10709 ] final  138.66 input   66.30 | X-H torsion
[ 10763 10752 10751 10750 ] final   45.80 input  -60.55 | X-H torsion
[ 11005 11000 10999 10996 ] final   74.43 input  -57.11 | X-H torsion

> <Gold.Protein.ActiveResidues>
 VAL166  LYS551  ARG553  GLY616  TRP617  ASP618  TYR619  PRO620  LYS621  CYS622 
 ASP623  PHE694  ASN695  SER759  ASP760  ASP761  ALA762  ILE779  LEU786  VAL792 
 PHE793  MET794  SER795  GLU796  ALA797  LYS798  CYS799  TRP800  GLU811  SER814 

> <Gold.Protein.RotatedAtoms>
  150.8147  134.7323  159.6719 H   0  0  0  0  0  0  0  0  0  0  0  0  # atno 6907 bound_to 6896
  152.4266  134.5853  159.9969 H   0  0  0  0  0  0  0  0  0  0  0  0  # atno 6908 bound_to 6896
  151.6053  133.3315  159.3092 H   0  0  0  0  0  0  0  0  0  0  0  0  # atno 6909 bound_to 6896
  145.6275  140.9346  143.1105 H   0  0  0  0  0  0  0  0  0  0  0  0  # atno 7974 bound_to 7965
  155.7206  140.0789  157.2332 H   0  0  0  0  0  0  0  0  0  0  0  0  # atno 8008 bound_to 7997
  154.4045  140.1613  156.2452 H   0  0  0  0  0  0  0  0  0  0  0  0  # atno 8009 bound_to 7997
  155.9200  140.3398  155.6168 H   0  0  0  0  0  0  0  0  0  0  0  0  # atno 8010 bound_to 7997
  140.2949  143.3198  152.0308 H   0  0  0  0  0  0  0  0  0  0  0  0  # atno 10167 bound_to 10162
  157.4228  131.1040  151.0335 H   0  0  0  0  0  0  0  0  0  0  0  0  # atno 10718 bound_to 10713
  152.9819  135.6028  154.3496 H   0  0  0  0  0  0  0  0  0  0  0  0  # atno 10763 bound_to 10752
  154.3187  135.2770  155.2532 H   0  0  0  0  0  0  0  0  0  0  0  0  # atno 10764 bound_to 10752
  154.4709  135.5942  153.6376 H   0  0  0  0  0  0  0  0  0  0  0  0  # atno 10765 bound_to 10752
  139.9391  134.7432  156.1147 H   0  0  0  0  0  0  0  0  0  0  0  0  # atno 11005 bound_to 11000
  144.7206  139.8042  143.7383 LP  0  0  0  0  0  0  0  0  0  0  0  0  # atno 17320 bound_to 7965
  146.1383  139.4433  143.0125 LP  0  0  0  0  0  0  0  0  0  0  0  0  # atno 17321 bound_to 7965
  139.4929  144.6498  151.6700 LP  0  0  0  0  0  0  0  0  0  0  0  0  # atno 17342 bound_to 10162
  140.5701  144.0124  150.6212 LP  0  0  0  0  0  0  0  0  0  0  0  0  # atno 17343 bound_to 10162
  157.1259  130.6081  149.5517 LP  0  0  0  0  0  0  0  0  0  0  0  0  # atno 17370 bound_to 10713
  155.9886  130.4931  150.7179 LP  0  0  0  0  0  0  0  0  0  0  0  0  # atno 17371 bound_to 10713
  141.1018  133.6674  156.2772 LP  0  0  0  0  0  0  0  0  0  0  0  0  # atno 17394 bound_to 11000
  140.5997  134.5567  157.5515 LP  0  0  0  0  0  0  0  0  0  0  0  0  # atno 17395 bound_to 11000

$$$$
