AV-unprocessed.smi:2025|AV-procd|sdf|8198|dock1
  -GOLD-   2272010453D 1   1.00000     0.00000
 Structure written by MMmdl.
 39 40  0  0  0  0  0  0  0  0  1 V2000
  150.2351  133.3536  155.3537 C   0  0  0  0  0  0  0  0  0  0  0  0
  149.1795  134.3015  154.7661 C   0  0  1  0  0  0  0  0  0  0  0  0
  149.8476  135.5121  154.2913 N   0  0  0  0  0  0  0  0  0  0  0  0
  150.8493  136.1556  154.9106 C   0  0  0  0  0  0  0  0  0  0  0  0
  151.3191  135.7999  155.9921 O   0  0  0  0  0  0  0  0  0  0  0  0
  151.3774  137.4117  154.2051 C   0  0  0  0  0  0  0  0  0  0  0  0
  150.5827  138.6107  154.5005 N   0  0  0  0  0  0  0  0  0  0  0  0
  149.3022  138.7275  153.9913 C   0  0  0  0  0  0  0  0  0  0  0  0
  148.4995  139.7872  154.2309 C   0  0  0  0  0  0  0  0  0  0  0  0
  148.9530  140.8983  155.0587 C   0  0  0  0  0  0  0  0  0  0  0  0
  148.2468  141.8729  155.3190 O   0  0  0  0  0  0  0  0  0  0  0  0
  150.2722  140.7610  155.5533 N   0  0  0  0  0  0  0  0  0  0  0  0
  150.8044  141.8078  156.4010 C   0  0  0  0  0  0  0  0  0  0  0  0
  151.0999  139.6413  155.3145 C   0  0  0  0  0  0  0  0  0  0  0  0
  152.2312  139.5511  155.7979 O   0  0  0  0  0  0  0  0  0  0  0  0
  148.3855  133.6406  153.6208 C   0  0  2  0  0  0  0  0  0  0  0  0
  147.0201  134.2691  153.3355 C   0  0  0  0  0  0  0  0  0  0  0  0
  146.2980  133.1318  152.6512 C   0  0  0  0  0  0  0  0  0  0  0  0
  146.8022  131.9232  153.4348 C   0  0  0  0  0  0  0  0  0  0  0  0
  148.0882  132.2821  153.9351 O   0  0  0  0  0  0  0  0  0  0  0  0
  149.7738  132.4523  155.7583 H   0  0  0  0  0  0  0  0  0  0  0  0
  150.7826  133.8326  156.1661 H   0  0  0  0  0  0  0  0  0  0  0  0
  150.9595  133.0462  154.5989 H   0  0  0  0  0  0  0  0  0  0  0  0
  148.4818  134.5513  155.5671 H   0  0  0  0  0  0  0  0  0  0  0  0
  149.5248  135.8871  153.4112 H   0  0  0  0  0  0  0  0  0  0  0  0
  152.4217  137.5795  154.4743 H   0  0  0  0  0  0  0  0  0  0  0  0
  151.3779  137.2214  153.1312 H   0  0  0  0  0  0  0  0  0  0  0  0
  148.9180  137.9276  153.3754 H   0  0  0  0  0  0  0  0  0  0  0  0
  147.5063  139.8122  153.8070 H   0  0  0  0  0  0  0  0  0  0  0  0
  151.8547  141.9620  156.1484 H   0  0  0  0  0  0  0  0  0  0  0  0
  150.6860  141.4712  157.4318 H   0  0  0  0  0  0  0  0  0  0  0  0
  150.2741  142.7445  156.2276 H   0  0  0  0  0  0  0  0  0  0  0  0
  148.9759  133.6466  152.7030 H   0  0  0  0  0  0  0  0  0  0  0  0
  146.5126  134.5267  154.2664 H   0  0  0  0  0  0  0  0  0  0  0  0
  147.0829  135.1666  152.7194 H   0  0  0  0  0  0  0  0  0  0  0  0
  145.2129  133.2337  152.6752 H   0  0  0  0  0  0  0  0  0  0  0  0
  146.6129  133.0634  151.6091 H   0  0  0  0  0  0  0  0  0  0  0  0
  146.1480  131.7168  154.2825 H   0  0  0  0  0  0  0  0  0  0  0  0
  146.8524  131.0251  152.8193 H   0  0  0  0  0  0  0  0  0  0  0  0
  1  2  1  0  0  0  0
  1 21  1  0  0  0  0
  1 22  1  0  0  0  0
  1 23  1  0  0  0  0
  2  3  1  0  0  0  0
  2 16  1  0  0  0  0
  2 24  1  0  0  0  0
  3  4  1  0  0  0  0
  3 25  1  0  0  0  0
  4  5  2  0  0  0  0
  4  6  1  0  0  0  0
  6  7  1  0  0  0  0
  6 26  1  0  0  0  0
  6 27  1  0  0  0  0
  7 14  1  0  0  0  0
  7  8  1  0  0  0  0
  8  9  2  0  0  0  0
  8 28  1  0  0  0  0
  9 10  1  0  0  0  0
  9 29  1  0  0  0  0
 10 11  2  0  0  0  0
 10 12  1  0  0  0  0
 12 13  1  0  0  0  0
 12 14  1  0  0  0  0
 13 30  1  0  0  0  0
 13 31  1  0  0  0  0
 13 32  1  0  0  0  0
 14 15  2  0  0  0  0
 16 20  1  0  0  0  0
 16 17  1  0  0  0  0
 16 33  1  0  0  0  0
 17 18  1  0  0  0  0
 17 34  1  0  0  0  0
 17 35  1  0  0  0  0
 18 19  1  0  0  0  0
 18 36  1  0  0  0  0
 18 37  1  0  0  0  0
 19 20  1  0  0  0  0
 19 38  1  0  0  0  0
 19 39  1  0  0  0  0
M  END
> <s_m_source_file>
AV-unprocessed.smi

> <i_m_source_file_index>
2025

> <i_lp_mmshare_version>
43012

> <i_f3d_flags>
0

> <s_epik_input>
TzFbQ0gyXVtDSDJdW0NIMl1bQ0BIXTFbQ0BIXShbQ0gzXSlbTkhdQyg9TylbQ0gyXW4yW2NIXVtjSF1jKD1PKW4oW0NIM10pYzI9Tw==

> <s_epik_cmdline>
J2VwaWtfcHl0aG9uJywgJy1waCcsICc3LjAnLCAnLXRuJywgJzgnLCAnLW1hJywgJzIwMCcsICctbWV0YWxfYmluZGluZycsICctaW1hZScsICc8aW5maWxlLm1hZT4nLCAnLW9tYWUnLCAnPG91dGZpbGUubWFlPic=

> <r_lp_tautomer_probability>
1

> <r_epik_Ionization_Penalty>
3.54787e-08

> <r_epik_Ionization_Penalty_Charging>
1.24654e-08

> <r_epik_Ionization_Penalty_Neutral>
2.30132e-08

> <r_epik_State_Penalty>
-0

> <r_epik_Charging_Adjusted_Penalty>
1.24654e-08

> <i_epik_Tot_Q>
0

> <i_epik_Tot_abs_Q>
0

> <r_epik_Metal_State_Penalty>
-0

> <b_epik_Metal_Only>
0

> <s_lp_Force_Field>
OPLS_2005

> <r_lp_Energy>
25.7305

> <b_lp_Chiralities_Consistent>
1

> <s_lp_Variant>
AV-unprocessed.smi:2025-2

> <Gold.Version>
5.8.1

> <Gold.Id.Protein>
6NUR|6NUR_protein|mol2

> <Gold.PLP.Fitness>
41.1076

> <Gold.PLP.PLP>
-31.8449

> <Gold.PLP.part.hbond>
-3.5987

> <Gold.PLP.part.metal>
0.0000

> <Gold.PLP.part.buried>
1.2383

> <Gold.PLP.part.nonpolar>
-30.0138

> <Gold.PLP.part.repulsive>
1.9169

> <Gold.PLP.ligand.clash>
0.0000

> <Gold.PLP.ligand.torsion>
1.0691

> <Gold.PLP.Chemscore.Hbond>
2.7925

> <Gold.PLP.Chemscore.CHOScore>
1.0000

> <Gold.PLP.Chemscore.Metal>
0.0000

> <Gold.Chemscore.Hbonds>
donor molecule, donor type, donor heavy atom, donor atom, acceptor molecule, acceptor atom, score
      L1  H     3    25       P1  7948  1.00
      P1  H  7997  8008       L1    15  0.49
      P1  H 10752 10764       L1     5  0.47
      L1  C     8    28       P1  7948  1.00

> <Gold.PLP.Chemscore.Internal.Correction>
0.0234

> <Gold.Rescore>
     Score         DG    S(hbond)    S(metal)    S(lipo)     H(rot)  DE(clash)    DE(int)     intcor
     11.42     -14.40       2.37        0.00      48.57       1.82       0.39       2.60       ----

> <Gold.Chemscore.Fitness>
11.4185

> <Gold.Chemscore.DG>
-14.4049

> <Gold.Chemscore.ZeroCoef>
-5.4800

> <Gold.Chemscore.Hbond>
2.3679

> <Gold.Chemscore.Metal>
0.0000

> <Gold.Chemscore.Lipo>
48.5701

> <Gold.Chemscore.Internal_Hbond>
0.0000

> <Gold.Chemscore.DEClash>
0.3871

> <Gold.Chemscore.DEInternal>
2.5993

> <Gold.Chemscore.Rot>
1.8228

> <Gold.Chemscore.Internal.Correction>
   9.000000E+99

> <Gold.Chemscore.Hbonds>
donor molecule, donor type, donor heavy atom, donor atom, acceptor molecule, acceptor atom, score
      L1  H     3    25       P1  7948  0.26
      P1  H  7997  8008       L1    15  0.50
      P1  H 10752 10764       L1     5  0.05

> <Gold.Chemscore.Hbond.Weighted>
-7.9087

> <Gold.Chemscore.Metal.Weighted>
-0.0000

> <Gold.Chemscore.Lipo.Weighted>
-5.6827

> <Gold.Chemscore.Internal_Hbond.Weighted>
0.0000

> <Gold.Chemscore.DEClash.Weighted>
0.3871

> <Gold.Chemscore.DEInternal.Weighted>
2.5993

> <Gold.Chemscore.Rot.Weighted>
4.6665

> <Gold.Chemscore.Internal.Correction.Weighted>
   9.000000E+99

> <Gold.Protein.RotatedTorsions>
[ 6907 6896 6895 6894 ] final  -83.72 input  -60.11 | X-H torsion
[ 7974 7965 7964 7962 ] final -132.04 input  175.53 | X-H torsion
[ 8008 7997 7996 7995 ] final  -35.86 input   59.86 | X-H torsion
[ 10167 10162 10161 10158 ] final  -94.59 input  -65.29 | X-H torsion
[ 10718 10713 10712 10709 ] final  -83.80 input   66.30 | X-H torsion
[ 10763 10752 10751 10750 ] final  -17.39 input  -60.55 | X-H torsion
[ 11005 11000 10999 10996 ] final  146.02 input  -57.11 | X-H torsion

> <Gold.Protein.ActiveResidues>
 VAL166  LYS551  ARG553  GLY616  TRP617  ASP618  TYR619  PRO620  LYS621  CYS622 
 ASP623  PHE694  ASN695  SER759  ASP760  ASP761  ALA762  ILE779  LEU786  VAL792 
 PHE793  MET794  SER795  GLU796  ALA797  LYS798  CYS799  TRP800  GLU811  SER814 

> <Gold.Protein.RotatedAtoms>
  150.6883  134.3469  159.4891 H   0  0  0  0  0  0  0  0  0  0  0  0  # atno 6907 bound_to 6896
  152.1315  134.9129  160.0567 H   0  0  0  0  0  0  0  0  0  0  0  0  # atno 6908 bound_to 6896
  152.0297  133.3897  159.4329 H   0  0  0  0  0  0  0  0  0  0  0  0  # atno 6909 bound_to 6896
  144.9322  140.7142  143.4898 H   0  0  0  0  0  0  0  0  0  0  0  0  # atno 7974 bound_to 7965
  154.4086  140.1646  156.2280 H   0  0  0  0  0  0  0  0  0  0  0  0  # atno 8008 bound_to 7997
  155.9307  140.3415  155.6224 H   0  0  0  0  0  0  0  0  0  0  0  0  # atno 8009 bound_to 7997
  155.7110  140.0756  157.2362 H   0  0  0  0  0  0  0  0  0  0  0  0  # atno 8010 bound_to 7997
  140.3129  143.3094  152.0129 H   0  0  0  0  0  0  0  0  0  0  0  0  # atno 10167 bound_to 10162
  156.0014  130.4677  150.4313 H   0  0  0  0  0  0  0  0  0  0  0  0  # atno 10718 bound_to 10713
  153.5731  135.7007  153.5496 H   0  0  0  0  0  0  0  0  0  0  0  0  # atno 10763 bound_to 10752
  153.3327  135.4043  155.1508 H   0  0  0  0  0  0  0  0  0  0  0  0  # atno 10764 bound_to 10752
  154.8630  135.3722  154.5255 H   0  0  0  0  0  0  0  0  0  0  0  0  # atno 10765 bound_to 10752
  140.0759  134.9125  157.1422 H   0  0  0  0  0  0  0  0  0  0  0  0  # atno 11005 bound_to 11000
  145.3123  139.1814  143.4632 LP  0  0  0  0  0  0  0  0  0  0  0  0  # atno 17320 bound_to 7965
  146.3252  140.3129  142.8628 LP  0  0  0  0  0  0  0  0  0  0  0  0  # atno 17321 bound_to 7965
  139.4890  144.6370  151.6954 LP  0  0  0  0  0  0  0  0  0  0  0  0  # atno 17342 bound_to 10162
  140.5552  144.0360  150.6144 LP  0  0  0  0  0  0  0  0  0  0  0  0  # atno 17343 bound_to 10162
  157.2362  131.0515  151.2463 LP  0  0  0  0  0  0  0  0  0  0  0  0  # atno 17370 bound_to 10713
  157.3664  130.7158  149.6536 LP  0  0  0  0  0  0  0  0  0  0  0  0  # atno 17371 bound_to 10713
  140.3559  134.2548  155.7193 LP  0  0  0  0  0  0  0  0  0  0  0  0  # atno 17394 bound_to 11000
  141.2029  133.7925  157.0366 LP  0  0  0  0  0  0  0  0  0  0  0  0  # atno 17395 bound_to 11000

$$$$
