AV-unprocessed.smi:1445|AV-procd|sdf|5888|dock1
  -GOLD-   22720 5573D 1   1.00000     0.00000
 Structure written by MMmdl.
 46 47  0  0  0  0  0  0  0  0  2 V2000
  148.6237  131.6482  153.1094 C   0  0  0  0  0  0  0  0  0  0  0  0
  147.8979  132.7458  152.5668 O   0  0  0  0  0  0  0  0  0  0  0  0
  146.7470  132.4849  151.8474 C   0  0  0  0  0  0  0  0  0  0  0  0
  146.3746  131.1923  151.6712 N   0  0  0  0  0  0  0  0  0  0  0  0
  145.2500  130.9371  150.9714 C   0  0  0  0  0  0  0  0  0  0  0  0
  144.4398  131.9467  150.4200 C   0  0  0  0  0  0  0  0  0  0  0  0
  144.8238  133.2880  150.6015 C   0  0  0  0  0  0  0  0  0  0  0  0
  146.0102  133.5714  151.3207 C   0  0  0  0  0  0  0  0  0  0  0  0
  146.4779  134.8892  151.5772 N   0  0  0  0  0  0  0  0  0  0  0  0
  145.7583  136.0055  151.7795 C   0  0  0  0  0  0  0  0  0  0  0  0
  144.5293  136.0734  151.7726 O   0  0  0  0  0  0  0  0  0  0  0  0
  146.5536  137.0676  151.9697 N   0  0  0  0  0  0  0  0  0  0  0  0
  146.0856  138.4296  152.1984 C   0  0  0  0  0  0  0  0  0  0  0  0
  146.9775  139.1694  153.2142 C   0  0  0  0  0  0  0  0  0  0  0  0
  146.2447  140.2357  153.9425 N   0  3  2  0  0  0  0  0  0  0  0  0
  146.9973  141.5168  153.9647 C   0  0  0  0  0  0  0  0  0  0  0  0
  146.1619  142.6399  154.5987 C   0  0  0  0  0  0  0  0  0  0  0  0
  145.7071  142.2542  156.0116 C   0  0  0  0  0  0  0  0  0  0  0  0
  144.9543  140.9136  155.9809 C   0  0  2  0  0  0  0  0  0  0  0  0
  144.5112  140.4873  157.3876 C   0  0  0  0  0  0  0  0  0  0  0  0
  145.8205  139.8284  155.3096 C   0  0  0  0  0  0  0  0  0  0  0  0
  149.4966  132.0226  153.6441 H   0  0  0  0  0  0  0  0  0  0  0  0
  148.9790  130.9789  152.3246 H   0  0  0  0  0  0  0  0  0  0  0  0
  148.0199  131.0809  153.8191 H   0  0  0  0  0  0  0  0  0  0  0  0
  144.9846  129.8970  150.8529 H   0  0  0  0  0  0  0  0  0  0  0  0
  143.5413  131.6979  149.8749 H   0  0  0  0  0  0  0  0  0  0  0  0
  144.1969  134.0695  150.2004 H   0  0  0  0  0  0  0  0  0  0  0  0
  147.4792  135.0076  151.5233 H   0  0  0  0  0  0  0  0  0  0  0  0
  147.5529  136.9223  151.9565 H   0  0  0  0  0  0  0  0  0  0  0  0
  146.0483  138.9745  151.2534 H   0  0  0  0  0  0  0  0  0  0  0  0
  145.0596  138.3602  152.5575 H   0  0  0  0  0  0  0  0  0  0  0  0
  147.4187  138.4698  153.9258 H   0  0  0  0  0  0  0  0  0  0  0  0
  147.8101  139.6210  152.6725 H   0  0  0  0  0  0  0  0  0  0  0  0
  147.9298  141.3828  154.5156 H   0  0  0  0  0  0  0  0  0  0  0  0
  147.2677  141.8061  152.9483 H   0  0  0  0  0  0  0  0  0  0  0  0
  146.7422  143.5624  154.6331 H   0  0  0  0  0  0  0  0  0  0  0  0
  145.2904  142.8458  153.9756 H   0  0  0  0  0  0  0  0  0  0  0  0
  146.5745  142.1806  156.6693 H   0  0  0  0  0  0  0  0  0  0  0  0
  145.0695  143.0377  156.4228 H   0  0  0  0  0  0  0  0  0  0  0  0
  144.0533  141.0459  155.3795 H   0  0  0  0  0  0  0  0  0  0  0  0
  145.3685  140.3280  158.0427 H   0  0  0  0  0  0  0  0  0  0  0  0
  143.9399  139.5591  157.3552 H   0  0  0  0  0  0  0  0  0  0  0  0
  143.8780  141.2470  157.8471 H   0  0  0  0  0  0  0  0  0  0  0  0
  145.2491  138.9023  155.2636 H   0  0  0  0  0  0  0  0  0  0  0  0
  146.7042  139.6217  155.9160 H   0  0  0  0  0  0  0  0  0  0  0  0
  145.4036  140.4150  153.4124 H   0  0  0  0  0  0  0  0  0  0  0  0
  1  2  1  0  0  0  0
  1 22  1  0  0  0  0
  1 23  1  0  0  0  0
  1 24  1  0  0  0  0
  2  3  1  0  0  0  0
  3  8  1  0  0  0  0
  3  4  2  0  0  0  0
  4  5  1  0  0  0  0
  5  6  2  0  0  0  0
  5 25  1  0  0  0  0
  6  7  1  0  0  0  0
  6 26  1  0  0  0  0
  7  8  2  0  0  0  0
  7 27  1  0  0  0  0
  8  9  1  0  0  0  0
  9 10  1  0  0  0  0
  9 28  1  0  0  0  0
 10 11  2  0  0  0  0
 10 12  1  0  0  0  0
 12 13  1  0  0  0  0
 12 29  1  0  0  0  0
 13 14  1  0  0  0  0
 13 30  1  0  0  0  0
 13 31  1  0  0  0  0
 14 15  1  0  0  0  0
 14 32  1  0  0  0  0
 14 33  1  0  0  0  0
 15 21  1  0  0  0  0
 15 16  1  0  0  0  0
 15 46  1  0  0  0  0
 16 17  1  0  0  0  0
 16 34  1  0  0  0  0
 16 35  1  0  0  0  0
 17 18  1  0  0  0  0
 17 36  1  0  0  0  0
 17 37  1  0  0  0  0
 18 19  1  0  0  0  0
 18 38  1  0  0  0  0
 18 39  1  0  0  0  0
 19 20  1  0  0  0  0
 19 21  1  0  0  0  0
 19 40  1  0  0  0  0
 20 41  1  0  0  0  0
 20 42  1  0  0  0  0
 20 43  1  0  0  0  0
 21 44  1  0  0  0  0
 21 45  1  0  0  0  0
M  CHG  1  15   1
M  END
> <s_m_source_file>
AV-unprocessed.smi

> <i_m_source_file_index>
1445

> <i_lp_mmshare_version>
43012

> <i_f3d_flags>
0

> <s_epik_input>
W0NIM11PYzFuW2NIXVtjSF1bY0hdYzFbTkhdQyg9TylbTkhdW0NIMl1bQ0gyXU4yW0NIMl1bQ0gyXVtDSDJdW0NAQEhdKFtDSDNdKVtDSDJdMg==

> <s_epik_cmdline>
J2VwaWtfcHl0aG9uJywgJy1waCcsICc3LjAnLCAnLXRuJywgJzgnLCAnLW1hJywgJzIwMCcsICctbWV0YWxfYmluZGluZycsICctaW1hZScsICc8aW5maWxlLm1hZT4nLCAnLW9tYWUnLCAnPG91dGZpbGUubWFlPic=

> <r_lp_tautomer_probability>
1

> <r_epik_Ionization_Penalty>
0.00179544

> <r_epik_Ionization_Penalty_Charging>
0.00171832

> <r_epik_Ionization_Penalty_Neutral>
7.71118e-05

> <r_epik_State_Penalty>
0.0011618

> <r_epik_Charging_Adjusted_Penalty>
0.00288012

> <i_epik_Tot_Q>
1

> <i_epik_Tot_abs_Q>
1

> <r_epik_Metal_State_Penalty>
-0

> <b_epik_Metal_Only>
0

> <s_lp_Force_Field>
OPLS_2005

> <r_lp_Energy>
18.8635

> <b_lp_Chiralities_Consistent>
1

> <s_lp_Variant>
AV-unprocessed.smi:1445-4

> <Gold.Version>
5.8.1

> <Gold.Id.Protein>
6NUR|6NUR_protein|mol2

> <Gold.PLP.Fitness>
44.9934

> <Gold.PLP.PLP>
-35.5454

> <Gold.PLP.part.hbond>
-2.9169

> <Gold.PLP.part.metal>
0.0000

> <Gold.PLP.part.buried>
-5.6259

> <Gold.PLP.part.nonpolar>
-28.5029

> <Gold.PLP.part.repulsive>
1.0400

> <Gold.PLP.ligand.clash>
0.0000

> <Gold.PLP.ligand.torsion>
1.1795

> <Gold.PLP.Chemscore.Hbond>
3.9033

> <Gold.PLP.Chemscore.CHOScore>
0.0000

> <Gold.PLP.Chemscore.Metal>
0.0000

> <Gold.Chemscore.Hbonds>
donor molecule, donor type, donor heavy atom, donor atom, acceptor molecule, acceptor atom, score
      L1  H     9    28       P1  7948  0.93
      L1  H    12    29       P1  7948  1.00
      L1  H    15    46       P1 10175  2.00

> <Gold.PLP.Chemscore.Internal.Correction>
0.0972

> <Gold.Rescore>
     Score         DG    S(hbond)    S(metal)    S(lipo)     H(rot)  DE(clash)    DE(int)     intcor
     17.32     -18.97       2.74        0.00      74.60       1.71       0.21       1.44       ----

> <Gold.Chemscore.Fitness>
17.3211

> <Gold.Chemscore.DG>
-18.9737

> <Gold.Chemscore.ZeroCoef>
-5.4800

> <Gold.Chemscore.Hbond>
2.7381

> <Gold.Chemscore.Metal>
0.0000

> <Gold.Chemscore.Lipo>
74.5965

> <Gold.Chemscore.Internal_Hbond>
0.0000

> <Gold.Chemscore.DEClash>
0.2104

> <Gold.Chemscore.DEInternal>
1.4422

> <Gold.Chemscore.Rot>
1.7107

> <Gold.Chemscore.Internal.Correction>
   9.000000E+99

> <Gold.Chemscore.Hbonds>
donor molecule, donor type, donor heavy atom, donor atom, acceptor molecule, acceptor atom, score
      L1  H     9    28       P1  7948  0.54
      L1  H    12    29       P1  7948  0.94
      L1  H    15    46       P1 10175  0.97

> <Gold.Chemscore.Hbond.Weighted>
-9.1453

> <Gold.Chemscore.Metal.Weighted>
-0.0000

> <Gold.Chemscore.Lipo.Weighted>
-8.7278

> <Gold.Chemscore.Internal_Hbond.Weighted>
0.0000

> <Gold.Chemscore.DEClash.Weighted>
0.2104

> <Gold.Chemscore.DEInternal.Weighted>
1.4422

> <Gold.Chemscore.Rot.Weighted>
4.3794

> <Gold.Chemscore.Internal.Correction.Weighted>
   9.000000E+99

> <Gold.Protein.RotatedTorsions>
[ 6907 6896 6895 6894 ] final  -51.70 input  -60.11 | X-H torsion
[ 7974 7965 7964 7962 ] final  -38.67 input  175.53 | X-H torsion
[ 8008 7997 7996 7995 ] final -169.71 input   59.86 | X-H torsion
[ 10167 10162 10161 10158 ] final  171.58 input  -65.29 | X-H torsion
[ 10718 10713 10712 10709 ] final   77.69 input   66.30 | X-H torsion
[ 10763 10752 10751 10750 ] final -119.91 input  -60.55 | X-H torsion
[ 11005 11000 10999 10996 ] final  -25.36 input  -57.11 | X-H torsion

> <Gold.Protein.ActiveResidues>
 VAL166  LYS551  ARG553  GLY616  TRP617  ASP618  TYR619  PRO620  LYS621  CYS622 
 ASP623  PHE694  ASN695  SER759  ASP760  ASP761  ALA762  ILE779  LEU786  VAL792 
 PHE793  MET794  SER795  GLU796  ALA797  LYS798  CYS799  TRP800  GLU811  SER814 

> <Gold.Protein.RotatedAtoms>
  150.8587  134.7932  159.7065 H   0  0  0  0  0  0  0  0  0  0  0  0  # atno 6907 bound_to 6896
  152.4630  134.5136  159.9771 H   0  0  0  0  0  0  0  0  0  0  0  0  # atno 6908 bound_to 6896
  151.5244  133.3422  159.2942 H   0  0  0  0  0  0  0  0  0  0  0  0  # atno 6909 bound_to 6896
  146.0465  140.6538  142.9062 H   0  0  0  0  0  0  0  0  0  0  0  0  # atno 7974 bound_to 7965
  155.9087  140.1053  157.1296 H   0  0  0  0  0  0  0  0  0  0  0  0  # atno 8008 bound_to 7997
  154.4036  140.1278  156.4593 H   0  0  0  0  0  0  0  0  0  0  0  0  # atno 8009 bound_to 7997
  155.7337  140.3468  155.5073 H   0  0  0  0  0  0  0  0  0  0  0  0  # atno 8010 bound_to 7997
  139.5051  144.3469  151.9961 H   0  0  0  0  0  0  0  0  0  0  0  0  # atno 10167 bound_to 10162
  157.6719  130.9833  150.1678 H   0  0  0  0  0  0  0  0  0  0  0  0  # atno 10718 bound_to 10713
  154.8630  135.4221  154.2375 H   0  0  0  0  0  0  0  0  0  0  0  0  # atno 10763 bound_to 10752
  153.3347  135.6990  153.6923 H   0  0  0  0  0  0  0  0  0  0  0  0  # atno 10764 bound_to 10752
  153.5926  135.3552  155.2889 H   0  0  0  0  0  0  0  0  0  0  0  0  # atno 10765 bound_to 10752
  140.8930  133.7575  156.0446 H   0  0  0  0  0  0  0  0  0  0  0  0  # atno 11005 bound_to 11000
  144.7101  140.4004  143.7087 LP  0  0  0  0  0  0  0  0  0  0  0  0  # atno 17320 bound_to 7965
  145.6796  139.1615  143.2708 LP  0  0  0  0  0  0  0  0  0  0  0  0  # atno 17321 bound_to 7965
  140.2907  144.3757  150.6089 LP  0  0  0  0  0  0  0  0  0  0  0  0  # atno 17342 bound_to 10162
  140.5949  143.2167  151.7183 LP  0  0  0  0  0  0  0  0  0  0  0  0  # atno 17343 bound_to 10162
  156.2439  130.3693  149.8306 LP  0  0  0  0  0  0  0  0  0  0  0  0  # atno 17370 bound_to 10713
  156.6098  130.8582  151.3451 LP  0  0  0  0  0  0  0  0  0  0  0  0  # atno 17371 bound_to 10713
  140.8323  134.3163  157.5344 LP  0  0  0  0  0  0  0  0  0  0  0  0  # atno 17394 bound_to 11000
  139.8732  134.9370  156.3676 LP  0  0  0  0  0  0  0  0  0  0  0  0  # atno 17395 bound_to 11000

$$$$
