AV-unprocessed.smi:3342|AV-procd|sdf|12887|dock8
  -GOLD-   2272019293D 1   1.00000     0.00000
 Structure written by MMmdl.
 42 43  0  0  0  0  0  0  0  0  2 V2000
  154.1648  141.1616  160.9664 C   0  0  0  0  0  0  0  0  0  0  0  0
  153.3997  141.9540  159.8943 C   0  0  2  0  0  0  0  0  0  0  0  0
  152.7968  143.2715  160.4290 C   0  0  0  0  0  0  0  0  0  0  0  0
  152.1494  144.0698  159.3842 N   0  0  0  0  0  0  0  0  0  0  0  0
  152.7118  144.5130  158.2150 C   0  0  0  0  0  0  0  0  0  0  0  0
  151.7341  145.2062  157.5491 C   0  0  0  0  0  0  0  0  0  0  0  0
  150.6161  145.1535  158.3380 N   0  3  0  0  0  0  0  0  0  0  0  0
  150.8696  144.4594  159.4522 C   0  0  0  0  0  0  0  0  0  0  0  0
  152.3440  141.1133  159.3374 N   0  0  0  0  0  0  0  0  0  0  0  0
  152.5320  139.9463  158.6967 C   0  0  0  0  0  0  0  0  0  0  0  0
  153.6518  139.4521  158.5561 O   0  0  0  0  0  0  0  0  0  0  0  0
  151.3986  139.3673  158.2258 N   0  0  0  0  0  0  0  0  0  0  0  0
  150.0530  139.9646  158.2201 C   0  0  0  0  0  0  0  0  0  0  0  0
  149.7346  140.4398  156.7910 C   0  0  0  0  0  0  0  0  0  0  0  0
  149.8443  139.2739  155.7785 C   0  0  0  0  0  0  0  0  0  0  0  0
  149.6722  139.7764  154.3388 C   0  0  0  0  0  0  0  0  0  0  0  0
  149.4973  138.8546  153.3889 N   0  0  0  0  0  0  0  0  0  0  0  0
  149.6951  140.9795  154.0855 O   0  0  0  0  0  0  0  0  0  0  0  0
  151.1850  138.5193  155.9451 C   0  0  0  0  0  0  0  0  0  0  0  0
  151.4331  138.1429  157.4176 C   0  0  0  0  0  0  0  0  0  0  0  0
  155.0184  141.7233  161.3462 H   0  0  0  0  0  0  0  0  0  0  0  0
  154.5501  140.2255  160.5605 H   0  0  0  0  0  0  0  0  0  0  0  0
  153.5224  140.9172  161.8130 H   0  0  0  0  0  0  0  0  0  0  0  0
  154.1077  142.1908  159.0979 H   0  0  0  0  0  0  0  0  0  0  0  0
  152.0423  143.0700  161.1907 H   0  0  0  0  0  0  0  0  0  0  0  0
  153.5670  143.8817  160.9036 H   0  0  0  0  0  0  0  0  0  0  0  0
  153.7397  144.3068  157.9521 H   0  0  0  0  0  0  0  0  0  0  0  0
  151.7491  145.7178  156.5977 H   0  0  0  0  0  0  0  0  0  0  0  0
  150.1770  144.2562  160.2497 H   0  0  0  0  0  0  0  0  0  0  0  0
  151.3971  141.4531  159.4236 H   0  0  0  0  0  0  0  0  0  0  0  0
  149.3253  139.2138  158.5316 H   0  0  0  0  0  0  0  0  0  0  0  0
  149.9312  140.7883  158.9236 H   0  0  0  0  0  0  0  0  0  0  0  0
  148.7315  140.8673  156.7611 H   0  0  0  0  0  0  0  0  0  0  0  0
  150.4210  141.2448  156.5228 H   0  0  0  0  0  0  0  0  0  0  0  0
  149.0395  138.5698  155.9977 H   0  0  0  0  0  0  0  0  0  0  0  0
  149.3781  139.1365  152.4269 H   0  0  0  0  0  0  0  0  0  0  0  0
  149.4835  137.8763  153.6380 H   0  0  0  0  0  0  0  0  0  0  0  0
  151.1861  137.6179  155.3311 H   0  0  0  0  0  0  0  0  0  0  0  0
  152.0140  139.1342  155.5903 H   0  0  0  0  0  0  0  0  0  0  0  0
  152.3755  137.6014  157.5117 H   0  0  0  0  0  0  0  0  0  0  0  0
  150.6623  137.4535  157.7650 H   0  0  0  0  0  0  0  0  0  0  0  0
  149.7243  145.5760  158.1117 H   0  0  0  0  0  0  0  0  0  0  0  0
  1  2  1  0  0  0  0
  1 21  1  0  0  0  0
  1 22  1  0  0  0  0
  1 23  1  0  0  0  0
  2  3  1  0  0  0  0
  2  9  1  0  0  0  0
  2 24  1  0  0  0  0
  3  4  1  0  0  0  0
  3 25  1  0  0  0  0
  3 26  1  0  0  0  0
  4  8  1  0  0  0  0
  4  5  1  0  0  0  0
  5  6  2  0  0  0  0
  5 27  1  0  0  0  0
  6  7  1  0  0  0  0
  6 28  1  0  0  0  0
  7  8  2  0  0  0  0
  7 42  1  0  0  0  0
  8 29  1  0  0  0  0
  9 10  1  0  0  0  0
  9 30  1  0  0  0  0
 10 11  2  0  0  0  0
 10 12  1  0  0  0  0
 12 20  1  0  0  0  0
 12 13  1  0  0  0  0
 13 14  1  0  0  0  0
 13 31  1  0  0  0  0
 13 32  1  0  0  0  0
 14 15  1  0  0  0  0
 14 33  1  0  0  0  0
 14 34  1  0  0  0  0
 15 16  1  0  0  0  0
 15 19  1  0  0  0  0
 15 35  1  0  0  0  0
 16 17  1  0  0  0  0
 16 18  2  0  0  0  0
 17 36  1  0  0  0  0
 17 37  1  0  0  0  0
 19 20  1  0  0  0  0
 19 38  1  0  0  0  0
 19 39  1  0  0  0  0
 20 40  1  0  0  0  0
 20 41  1  0  0  0  0
M  CHG  1   7   1
M  END
> <s_m_source_file>
AV-unprocessed.smi

> <i_m_source_file_index>
3342

> <i_lp_mmshare_version>
43012

> <i_f3d_flags>
0

> <s_epik_input>
W2NIXTFuW2NIXVtjSF1uMVtDSDJdW0NAQEhdKFtDSDNdKVtOSF1DKD1PKU4yW0NIMl1bQ0gyXVtDSF0oQyg9TylbTkgyXSlbQ0gyXVtDSDJdMg==

> <s_epik_cmdline>
J2VwaWtfcHl0aG9uJywgJy1waCcsICc3LjAnLCAnLXRuJywgJzgnLCAnLW1hJywgJzIwMCcsICctbWV0YWxfYmluZGluZycsICctaW1hZScsICc8aW5maWxlLm1hZT4nLCAnLW9tYWUnLCAnPG91dGZpbGUubWFlPic=

> <r_lp_tautomer_probability>
1

> <r_epik_Ionization_Penalty>
0.254015

> <r_epik_Ionization_Penalty_Charging>
0

> <r_epik_Ionization_Penalty_Neutral>
0.254015

> <r_epik_State_Penalty>
0.245417

> <r_epik_Charging_Adjusted_Penalty>
0.245417

> <i_epik_Tot_Q>
1

> <i_epik_Tot_abs_Q>
1

> <r_epik_Metal_State_Penalty>
0.535589

> <b_epik_Metal_Only>
0

> <s_lp_Force_Field>
OPLS_2005

> <r_lp_Energy>
30.9276

> <b_lp_Chiralities_Consistent>
1

> <s_lp_Variant>
AV-unprocessed.smi:3342-1

> <Gold.Version>
5.8.1

> <Gold.Id.Protein>
6NUR|6NUR_protein|mol2

> <Gold.PLP.Fitness>
53.8112

> <Gold.PLP.PLP>
-40.4289

> <Gold.PLP.part.hbond>
-6.0237

> <Gold.PLP.part.metal>
0.0000

> <Gold.PLP.part.buried>
-5.1872

> <Gold.PLP.part.nonpolar>
-30.0585

> <Gold.PLP.part.repulsive>
1.0570

> <Gold.PLP.ligand.clash>
0.0000

> <Gold.PLP.ligand.torsion>
0.2428

> <Gold.PLP.Chemscore.Hbond>
4.5872

> <Gold.PLP.Chemscore.CHOScore>
0.0000

> <Gold.PLP.Chemscore.Metal>
0.0000

> <Gold.Chemscore.Hbonds>
donor molecule, donor type, donor heavy atom, donor atom, acceptor molecule, acceptor atom, score
      L1  H     7    42       P1  8029  2.00
      L1  H    17    36       P1  7957  1.00
      P1  H  7989  7998       L1    18  0.31
      P1  H  7997  8008       L1    11  1.00
      P1  H  8011  8017       L1    18  0.36

> <Gold.PLP.Chemscore.Internal.Correction>
0.1065

> <Gold.Rescore>
     Score         DG    S(hbond)    S(metal)    S(lipo)     H(rot)  DE(clash)    DE(int)     intcor
     16.21     -19.32       3.08        0.00      81.55       2.34       1.55       1.56       ----

> <Gold.Chemscore.Fitness>
16.2073

> <Gold.Chemscore.DG>
-19.3238

> <Gold.Chemscore.ZeroCoef>
-5.4800

> <Gold.Chemscore.Hbond>
3.0818

> <Gold.Chemscore.Metal>
0.0000

> <Gold.Chemscore.Lipo>
81.5470

> <Gold.Chemscore.Internal_Hbond>
0.0000

> <Gold.Chemscore.DEClash>
1.5535

> <Gold.Chemscore.DEInternal>
1.5629

> <Gold.Chemscore.Rot>
2.3400

> <Gold.Chemscore.Internal.Correction>
   9.000000E+99

> <Gold.Chemscore.Hbonds>
donor molecule, donor type, donor heavy atom, donor atom, acceptor molecule, acceptor atom, score
      L1  H     7    42       P1  8029  0.37
      L1  H    17    36       P1  7957  0.92
      L1  H    17    37       P1  7948  0.02
      P1  H  7989  7998       L1    18  0.03
      P1  H  7997  8008       L1    11  0.98
      P1  H  8011  8017       L1    18  0.34

> <Gold.Chemscore.Hbond.Weighted>
-10.2932

> <Gold.Chemscore.Metal.Weighted>
-0.0000

> <Gold.Chemscore.Lipo.Weighted>
-9.5410

> <Gold.Chemscore.Internal_Hbond.Weighted>
0.0000

> <Gold.Chemscore.DEClash.Weighted>
1.5535

> <Gold.Chemscore.DEInternal.Weighted>
1.5629

> <Gold.Chemscore.Rot.Weighted>
5.9904

> <Gold.Chemscore.Internal.Correction.Weighted>
   9.000000E+99

> <Gold.Protein.RotatedTorsions>
[ 6907 6896 6895 6894 ] final   66.53 input  -60.11 | X-H torsion
[ 7974 7965 7964 7962 ] final  122.80 input  175.53 | X-H torsion
[ 8008 7997 7996 7995 ] final -111.32 input   59.86 | X-H torsion
[ 10167 10162 10161 10158 ] final -114.00 input  -65.29 | X-H torsion
[ 10718 10713 10712 10709 ] final  -65.12 input   66.30 | X-H torsion
[ 10763 10752 10751 10750 ] final -166.42 input  -60.55 | X-H torsion
[ 11005 11000 10999 10996 ] final  -78.18 input  -57.11 | X-H torsion

> <Gold.Protein.ActiveResidues>
 VAL166  LYS551  ARG553  GLY616  TRP617  ASP618  TYR619  PRO620  LYS621  CYS622 
 ASP623  PHE694  ASN695  SER759  ASP760  ASP761  ALA762  ILE779  LEU786  VAL792 
 PHE793  MET794  SER795  GLU796  ALA797  LYS798  CYS799  TRP800  GLU811  SER814 

> <Gold.Protein.RotatedAtoms>
  152.4487  134.5439  159.9846 H   0  0  0  0  0  0  0  0  0  0  0  0  # atno 6907 bound_to 6896
  151.5517  133.3410  159.2962 H   0  0  0  0  0  0  0  0  0  0  0  0  # atno 6908 bound_to 6896
  150.8410  134.7735  159.6996 H   0  0  0  0  0  0  0  0  0  0  0  0  # atno 6909 bound_to 6896
  145.1033  139.3503  143.4800 H   0  0  0  0  0  0  0  0  0  0  0  0  # atno 7974 bound_to 7965
  154.9880  140.0395  157.2307 H   0  0  0  0  0  0  0  0  0  0  0  0  # atno 8008 bound_to 7997
  154.7654  140.2792  155.6158 H   0  0  0  0  0  0  0  0  0  0  0  0  # atno 8009 bound_to 7997
  156.2911  140.2620  156.2443 H   0  0  0  0  0  0  0  0  0  0  0  0  # atno 8010 bound_to 7997
  140.1057  143.4572  152.1784 H   0  0  0  0  0  0  0  0  0  0  0  0  # atno 10167 bound_to 10162
  156.0688  130.4243  150.1518 H   0  0  0  0  0  0  0  0  0  0  0  0  # atno 10718 bound_to 10713
  154.6835  135.2958  154.9580 H   0  0  0  0  0  0  0  0  0  0  0  0  # atno 10763 bound_to 10752
  154.0567  135.6637  153.4811 H   0  0  0  0  0  0  0  0  0  0  0  0  # atno 10764 bound_to 10752
  153.0563  135.5142  154.7890 H   0  0  0  0  0  0  0  0  0  0  0  0  # atno 10765 bound_to 10752
  141.1664  133.7053  156.7933 H   0  0  0  0  0  0  0  0  0  0  0  0  # atno 11005 bound_to 11000
  146.3529  140.0920  142.8612 LP  0  0  0  0  0  0  0  0  0  0  0  0  # atno 17320 bound_to 7965
  145.0930  140.9297  143.4757 LP  0  0  0  0  0  0  0  0  0  0  0  0  # atno 17321 bound_to 7965
  139.5646  144.7427  151.4057 LP  0  0  0  0  0  0  0  0  0  0  0  0  # atno 17342 bound_to 10162
  140.6953  143.7763  150.7317 LP  0  0  0  0  0  0  0  0  0  0  0  0  # atno 17343 bound_to 10162
  156.9573  130.9793  151.3486 LP  0  0  0  0  0  0  0  0  0  0  0  0  # atno 17370 bound_to 10713
  157.5747  130.8334  149.8439 LP  0  0  0  0  0  0  0  0  0  0  0  0  # atno 17371 bound_to 10713
  140.2309  134.8686  157.3476 LP  0  0  0  0  0  0  0  0  0  0  0  0  # atno 17394 bound_to 11000
  140.1892  134.4393  155.7726 LP  0  0  0  0  0  0  0  0  0  0  0  0  # atno 17395 bound_to 11000

$$$$
