AV-unprocessed.smi:1895|AV-procd|sdf|7680|dock2
  -GOLD-   22720 9423D 1   1.00000     0.00000
 Structure written by MMmdl.
 36 37  0  0  0  0  0  0  0  0  1 V2000
  154.1229  141.2010  161.0516 C   0  0  0  0  0  0  0  0  0  0  0  0
  153.2509  142.2675  160.4580 C   0  0  0  0  0  0  0  0  0  0  0  0
  152.6812  143.4006  161.1029 C   0  0  0  0  0  0  0  0  0  0  0  0
  151.9773  144.0323  160.1166 C   0  0  0  0  0  0  0  0  0  0  0  0
  151.1507  145.2752  160.1693 C   0  0  0  0  0  0  0  0  0  0  0  0
  152.1453  143.2863  158.9629 N   0  0  0  0  0  0  0  0  0  0  0  0
  151.5885  143.5073  157.6358 C   0  0  0  0  0  0  0  0  0  0  0  0
  151.0474  142.2036  157.0469 C   0  0  0  0  0  0  0  0  0  0  0  0
  151.3823  141.1223  157.5301 O   0  0  0  0  0  0  0  0  0  0  0  0
  150.2351  142.3218  155.9857 N   0  0  0  0  0  0  0  0  0  0  0  0
  149.7448  141.2132  155.1771 C   0  0  0  0  0  0  0  0  0  0  0  0
  148.2091  141.2278  155.0770 C   0  0  2  0  0  0  0  0  0  0  0  0
  147.6524  141.9797  153.8663 C   0  0  0  0  0  0  0  0  0  0  0  0
  146.2773  142.4382  154.3285 C   0  0  0  0  0  0  0  0  0  0  0  0
  146.2819  142.1827  155.8387 C   0  0  0  0  0  0  0  0  0  0  0  0
  147.6411  141.9338  156.1672 O   0  0  0  0  0  0  0  0  0  0  0  0
  152.9272  142.2052  159.1771 N   0  0  0  0  0  0  0  0  0  0  0  0
  154.3939  141.4410  162.0798 H   0  0  0  0  0  0  0  0  0  0  0  0
  155.0465  141.0856  160.4840 H   0  0  0  0  0  0  0  0  0  0  0  0
  153.6119  140.2378  161.0601 H   0  0  0  0  0  0  0  0  0  0  0  0
  152.7717  143.7018  162.1360 H   0  0  0  0  0  0  0  0  0  0  0  0
  151.2149  145.7439  161.1513 H   0  0  0  0  0  0  0  0  0  0  0  0
  150.1018  145.0524  159.9732 H   0  0  0  0  0  0  0  0  0  0  0  0
  151.4888  146.0009  159.4297 H   0  0  0  0  0  0  0  0  0  0  0  0
  150.7937  144.2510  157.7035 H   0  0  0  0  0  0  0  0  0  0  0  0
  152.3561  143.9187  156.9783 H   0  0  0  0  0  0  0  0  0  0  0  0
  150.0109  143.2532  155.6656 H   0  0  0  0  0  0  0  0  0  0  0  0
  150.1926  141.2414  154.1826 H   0  0  0  0  0  0  0  0  0  0  0  0
  150.0784  140.2848  155.6415 H   0  0  0  0  0  0  0  0  0  0  0  0
  147.8204  140.2076  155.0864 H   0  0  0  0  0  0  0  0  0  0  0  0
  148.2708  142.8503  153.6436 H   0  0  0  0  0  0  0  0  0  0  0  0
  147.6140  141.3583  152.9705 H   0  0  0  0  0  0  0  0  0  0  0  0
  146.1296  143.4950  154.1036 H   0  0  0  0  0  0  0  0  0  0  0  0
  145.4789  141.8765  153.8428 H   0  0  0  0  0  0  0  0  0  0  0  0
  145.8852  143.0234  156.4082 H   0  0  0  0  0  0  0  0  0  0  0  0
  145.6885  141.2992  156.0789 H   0  0  0  0  0  0  0  0  0  0  0  0
  1  2  1  0  0  0  0
  1 18  1  0  0  0  0
  1 19  1  0  0  0  0
  1 20  1  0  0  0  0
  2 17  2  0  0  0  0
  2  3  1  0  0  0  0
  3  4  2  0  0  0  0
  3 21  1  0  0  0  0
  4  5  1  0  0  0  0
  4  6  1  0  0  0  0
  5 22  1  0  0  0  0
  5 23  1  0  0  0  0
  5 24  1  0  0  0  0
  6  7  1  0  0  0  0
  6 17  1  0  0  0  0
  7  8  1  0  0  0  0
  7 25  1  0  0  0  0
  7 26  1  0  0  0  0
  8  9  2  0  0  0  0
  8 10  1  0  0  0  0
 10 11  1  0  0  0  0
 10 27  1  0  0  0  0
 11 12  1  0  0  0  0
 11 28  1  0  0  0  0
 11 29  1  0  0  0  0
 12 16  1  0  0  0  0
 12 13  1  0  0  0  0
 12 30  1  0  0  0  0
 13 14  1  0  0  0  0
 13 31  1  0  0  0  0
 13 32  1  0  0  0  0
 14 15  1  0  0  0  0
 14 33  1  0  0  0  0
 14 34  1  0  0  0  0
 15 16  1  0  0  0  0
 15 35  1  0  0  0  0
 15 36  1  0  0  0  0
M  END
> <s_m_source_file>
AV-unprocessed.smi

> <i_m_source_file_index>
1895

> <i_lp_mmshare_version>
43012

> <i_f3d_flags>
0

> <s_epik_input>
W0NIM11jMVtjSF1jKFtDSDNdKW4objEpW0NIMl1DKD1PKVtOSF1bQ0gyXVtDQEBIXTJbQ0gyXVtDSDJdW0NIMl1PMg==

> <s_epik_cmdline>
J2VwaWtfcHl0aG9uJywgJy1waCcsICc3LjAnLCAnLXRuJywgJzgnLCAnLW1hJywgJzIwMCcsICctbWV0YWxfYmluZGluZycsICctaW1hZScsICc8aW5maWxlLm1hZT4nLCAnLW9tYWUnLCAnPG91dGZpbGUubWFlPic=

> <r_lp_tautomer_probability>
1

> <r_epik_Ionization_Penalty>
0.000408438

> <r_epik_Ionization_Penalty_Charging>
0

> <r_epik_Ionization_Penalty_Neutral>
0.000408438

> <r_epik_State_Penalty>
-0

> <r_epik_Charging_Adjusted_Penalty>
0

> <i_epik_Tot_Q>
0

> <i_epik_Tot_abs_Q>
0

> <r_epik_Metal_State_Penalty>
-0

> <b_epik_Metal_Only>
0

> <s_lp_Force_Field>
OPLS_2005

> <r_lp_Energy>
14.7864

> <b_lp_Chiralities_Consistent>
1

> <s_lp_Variant>
AV-unprocessed.smi:1895-1

> <Gold.Version>
5.8.1

> <Gold.Id.Protein>
6NUR|6NUR_protein|mol2

> <Gold.PLP.Fitness>
44.0785

> <Gold.PLP.PLP>
-42.9990

> <Gold.PLP.part.hbond>
-1.0000

> <Gold.PLP.part.metal>
0.0000

> <Gold.PLP.part.buried>
-6.5074

> <Gold.PLP.part.nonpolar>
-36.1101

> <Gold.PLP.part.repulsive>
1.0774

> <Gold.PLP.ligand.clash>
0.0000

> <Gold.PLP.ligand.torsion>
0.8842

> <Gold.PLP.Chemscore.Hbond>
0.9440

> <Gold.PLP.Chemscore.CHOScore>
0.0000

> <Gold.PLP.Chemscore.Metal>
0.0000

> <Gold.Chemscore.Hbonds>
donor molecule, donor type, donor heavy atom, donor atom, acceptor molecule, acceptor atom, score
      L1  H    10    27       P1  8028  1.00

> <Gold.PLP.Chemscore.Internal.Correction>
0.0158

> <Gold.Rescore>
     Score         DG    S(hbond)    S(metal)    S(lipo)     H(rot)  DE(clash)    DE(int)     intcor
     13.79     -16.16       0.97        0.00      97.26       1.54       0.02       2.34       ----

> <Gold.Chemscore.Fitness>
13.7938

> <Gold.Chemscore.DG>
-16.1576

> <Gold.Chemscore.ZeroCoef>
-5.4800

> <Gold.Chemscore.Hbond>
0.9692

> <Gold.Chemscore.Metal>
0.0000

> <Gold.Chemscore.Lipo>
97.2618

> <Gold.Chemscore.Internal_Hbond>
0.0000

> <Gold.Chemscore.DEClash>
0.0192

> <Gold.Chemscore.DEInternal>
2.3446

> <Gold.Chemscore.Rot>
1.5387

> <Gold.Chemscore.Internal.Correction>
   9.000000E+99

> <Gold.Chemscore.Hbonds>
donor molecule, donor type, donor heavy atom, donor atom, acceptor molecule, acceptor atom, score
      L1  H    10    27       P1  8028  0.95

> <Gold.Chemscore.Hbond.Weighted>
-3.2371

> <Gold.Chemscore.Metal.Weighted>
-0.0000

> <Gold.Chemscore.Lipo.Weighted>
-11.3796

> <Gold.Chemscore.Internal_Hbond.Weighted>
0.0000

> <Gold.Chemscore.DEClash.Weighted>
0.0192

> <Gold.Chemscore.DEInternal.Weighted>
2.3446

> <Gold.Chemscore.Rot.Weighted>
3.9392

> <Gold.Chemscore.Internal.Correction.Weighted>
   9.000000E+99

> <Gold.Protein.RotatedTorsions>
[ 6907 6896 6895 6894 ] final -132.77 input  -60.11 | X-H torsion
[ 7974 7965 7964 7962 ] final -142.91 input  175.53 | X-H torsion
[ 8008 7997 7996 7995 ] final   80.05 input   59.86 | X-H torsion
[ 10167 10162 10161 10158 ] final   57.26 input  -65.29 | X-H torsion
[ 10718 10713 10712 10709 ] final  130.30 input   66.30 | X-H torsion
[ 10763 10752 10751 10750 ] final  -81.23 input  -60.55 | X-H torsion
[ 11005 11000 10999 10996 ] final   53.57 input  -57.11 | X-H torsion

> <Gold.Protein.ActiveResidues>
 VAL166  LYS551  ARG553  GLY616  TRP617  ASP618  TYR619  PRO620  LYS621  CYS622 
 ASP623  PHE694  ASN695  SER759  ASP760  ASP761  ALA762  ILE779  LEU786  VAL792 
 PHE793  MET794  SER795  GLU796  ALA797  LYS798  CYS799  TRP800  GLU811  SER814 

> <Gold.Protein.RotatedAtoms>
  150.9662  133.6392  159.2745 H   0  0  0  0  0  0  0  0  0  0  0  0  # atno 6907 bound_to 6896
  151.3697  135.0919  159.9471 H   0  0  0  0  0  0  0  0  0  0  0  0  # atno 6908 bound_to 6896
  152.5166  133.9219  159.7593 H   0  0  0  0  0  0  0  0  0  0  0  0  # atno 6909 bound_to 6896
  144.8408  140.5899  143.5453 H   0  0  0  0  0  0  0  0  0  0  0  0  # atno 7974 bound_to 7965
  155.8781  140.3445  155.5868 H   0  0  0  0  0  0  0  0  0  0  0  0  # atno 8008 bound_to 7997
  155.7751  140.0850  157.2107 H   0  0  0  0  0  0  0  0  0  0  0  0  # atno 8009 bound_to 7997
  154.4022  140.1511  156.2974 H   0  0  0  0  0  0  0  0  0  0  0  0  # atno 8010 bound_to 7997
  140.1999  144.3999  150.6533 H   0  0  0  0  0  0  0  0  0  0  0  0  # atno 10167 bound_to 10162
  157.5074  131.1096  150.9341 H   0  0  0  0  0  0  0  0  0  0  0  0  # atno 10718 bound_to 10713
  154.5610  135.5633  153.7007 H   0  0  0  0  0  0  0  0  0  0  0  0  # atno 10763 bound_to 10752
  153.0018  135.6274  154.2244 H   0  0  0  0  0  0  0  0  0  0  0  0  # atno 10764 bound_to 10752
  154.2182  135.2871  155.2914 H   0  0  0  0  0  0  0  0  0  0  0  0  # atno 10765 bound_to 10752
  140.0757  134.5408  155.8999 H   0  0  0  0  0  0  0  0  0  0  0  0  # atno 11005 bound_to 11000
  145.4698  139.1504  143.3820 LP  0  0  0  0  0  0  0  0  0  0  0  0  # atno 17320 bound_to 7965
  146.2701  140.4831  142.8818 LP  0  0  0  0  0  0  0  0  0  0  0  0  # atno 17321 bound_to 7965
  140.6397  143.2201  151.6316 LP  0  0  0  0  0  0  0  0  0  0  0  0  # atno 17342 bound_to 10162
  139.5221  144.3172  152.0942 LP  0  0  0  0  0  0  0  0  0  0  0  0  # atno 17343 bound_to 10162
  156.9993  130.5593  149.5310 LP  0  0  0  0  0  0  0  0  0  0  0  0  # atno 17370 bound_to 10713
  156.0267  130.5360  150.8426 LP  0  0  0  0  0  0  0  0  0  0  0  0  # atno 17371 bound_to 10713
  141.2028  133.6628  156.6028 LP  0  0  0  0  0  0  0  0  0  0  0  0  # atno 17394 bound_to 11000
  140.3562  134.7726  157.4502 LP  0  0  0  0  0  0  0  0  0  0  0  0  # atno 17395 bound_to 11000

$$$$
