AV-unprocessed.smi:1762|AV-procd|sdf|7120|dock1
  -GOLD-   22720 8353D 1   1.00000     0.00000
 Structure written by MMmdl.
 52 53  0  0  0  0  0  0  0  0  3 V2000
  148.9892  141.6327  154.3907 C   0  0  0  0  0  0  0  0  0  0  0  0
  149.4128  140.2072  154.7601 C   0  0  1  0  0  0  0  0  0  0  0  0
  148.7877  139.1563  153.8208 C   0  0  0  0  0  0  0  0  0  0  0  0
  149.2478  137.7842  154.1682 N   0  3  2  0  0  0  0  0  0  0  0  0
  148.6489  137.1619  155.4035 C   0  0  2  0  0  0  0  0  0  0  0  0
  149.4009  135.8800  155.8427 C   0  0  0  0  0  0  0  0  0  0  0  0
  149.9912  135.2314  154.9724 O   0  0  0  0  0  0  0  0  0  0  0  0
  149.2762  135.6402  157.1799 N   0  5  0  0  0  0  0  0  0  0  0  0
  148.2510  136.2465  158.0275 C   0  0  0  0  0  0  0  0  0  0  0  0
  148.8666  136.7095  159.3684 C   0  0  0  0  0  0  0  0  0  0  0  0
  148.0289  136.3629  160.5950 C   0  0  0  0  0  0  0  0  0  0  0  0
  147.7407  135.0157  160.9114 C   0  0  0  0  0  0  0  0  0  0  0  0
  146.9750  134.7408  162.0606 C   0  0  0  0  0  0  0  0  0  0  0  0
  146.5296  135.8161  162.8523 C   0  0  0  0  0  0  0  0  0  0  0  0
  146.8722  137.1247  162.4584 C   0  0  0  0  0  0  0  0  0  0  0  0
  147.6073  137.3997  161.3597 N   0  0  0  0  0  0  0  0  0  0  0  0
  147.0980  136.9401  155.3455 C   0  0  0  0  0  0  0  0  0  0  0  0
  146.6786  135.8892  154.2987 C   0  0  0  0  0  0  0  0  0  0  0  0
  146.2667  138.2271  155.1636 C   0  0  0  0  0  0  0  0  0  0  0  0
  150.7384  137.7670  154.1190 C   0  0  0  0  0  0  0  0  0  0  0  0
  151.3499  138.8561  155.0270 C   0  0  1  0  0  0  0  0  0  0  0  0
  152.8763  138.9137  154.9040 C   0  0  0  0  0  0  0  0  0  0  0  0
  150.8305  140.1284  154.6530 O   0  0  0  0  0  0  0  0  0  0  0  0
  147.9075  141.7509  154.4594 H   0  0  0  0  0  0  0  0  0  0  0  0
  149.2895  141.8831  153.3729 H   0  0  0  0  0  0  0  0  0  0  0  0
  149.4454  142.3612  155.0614 H   0  0  0  0  0  0  0  0  0  0  0  0
  149.1153  140.0171  155.7924 H   0  0  0  0  0  0  0  0  0  0  0  0
  147.7037  139.2421  153.7948 H   0  0  0  0  0  0  0  0  0  0  0  0
  149.1042  139.3635  152.7973 H   0  0  0  0  0  0  0  0  0  0  0  0
  148.8026  137.8791  156.2095 H   0  0  0  0  0  0  0  0  0  0  0  0
  147.7629  137.0914  157.5397 H   0  0  0  0  0  0  0  0  0  0  0  0
  147.4541  135.5323  158.2363 H   0  0  0  0  0  0  0  0  0  0  0  0
  149.8566  136.2675  159.4905 H   0  0  0  0  0  0  0  0  0  0  0  0
  149.0215  137.7896  159.3524 H   0  0  0  0  0  0  0  0  0  0  0  0
  148.0958  134.2109  160.2848 H   0  0  0  0  0  0  0  0  0  0  0  0
  146.7340  133.7231  162.3302 H   0  0  0  0  0  0  0  0  0  0  0  0
  145.9399  135.6424  163.7401 H   0  0  0  0  0  0  0  0  0  0  0  0
  146.5485  137.9735  163.0420 H   0  0  0  0  0  0  0  0  0  0  0  0
  146.7987  136.4964  156.2943 H   0  0  0  0  0  0  0  0  0  0  0  0
  146.8358  136.2427  153.2792 H   0  0  0  0  0  0  0  0  0  0  0  0
  145.6208  135.6433  154.3956 H   0  0  0  0  0  0  0  0  0  0  0  0
  147.2412  134.9634  154.4220 H   0  0  0  0  0  0  0  0  0  0  0  0
  146.3858  138.6458  154.1644 H   0  0  0  0  0  0  0  0  0  0  0  0
  146.5434  139.0004  155.8793 H   0  0  0  0  0  0  0  0  0  0  0  0
  145.2045  138.0232  155.3002 H   0  0  0  0  0  0  0  0  0  0  0  0
  151.1462  136.7885  154.3703 H   0  0  0  0  0  0  0  0  0  0  0  0
  151.0413  137.9484  153.0868 H   0  0  0  0  0  0  0  0  0  0  0  0
  151.1039  138.6629  156.0716 H   0  0  0  0  0  0  0  0  0  0  0  0
  153.3283  137.9634  155.1888 H   0  0  0  0  0  0  0  0  0  0  0  0
  153.2907  139.6856  155.5527 H   0  0  0  0  0  0  0  0  0  0  0  0
  153.1826  139.1376  153.8818 H   0  0  0  0  0  0  0  0  0  0  0  0
  148.9363  137.1807  153.4195 H   0  0  0  0  0  0  0  0  0  0  0  0
  1  2  1  0  0  0  0
  1 24  1  0  0  0  0
  1 25  1  0  0  0  0
  1 26  1  0  0  0  0
  2 23  1  0  0  0  0
  2  3  1  0  0  0  0
  2 27  1  0  0  0  0
  3  4  1  0  0  0  0
  3 28  1  0  0  0  0
  3 29  1  0  0  0  0
  4  5  1  0  0  0  0
  4 20  1  0  0  0  0
  4 52  1  0  0  0  0
  5  6  1  0  0  0  0
  5 17  1  0  0  0  0
  5 30  1  0  0  0  0
  6  7  2  0  0  0  0
  6  8  1  0  0  0  0
  8  9  1  0  0  0  0
  9 10  1  0  0  0  0
  9 31  1  0  0  0  0
  9 32  1  0  0  0  0
 10 11  1  0  0  0  0
 10 33  1  0  0  0  0
 10 34  1  0  0  0  0
 11 16  1  0  0  0  0
 11 12  2  0  0  0  0
 12 13  1  0  0  0  0
 12 35  1  0  0  0  0
 13 14  2  0  0  0  0
 13 36  1  0  0  0  0
 14 15  1  0  0  0  0
 14 37  1  0  0  0  0
 15 16  2  0  0  0  0
 15 38  1  0  0  0  0
 17 18  1  0  0  0  0
 17 19  1  0  0  0  0
 17 39  1  0  0  0  0
 18 40  1  0  0  0  0
 18 41  1  0  0  0  0
 18 42  1  0  0  0  0
 19 43  1  0  0  0  0
 19 44  1  0  0  0  0
 19 45  1  0  0  0  0
 20 21  1  0  0  0  0
 20 46  1  0  0  0  0
 20 47  1  0  0  0  0
 21 22  1  0  0  0  0
 21 23  1  0  0  0  0
 21 48  1  0  0  0  0
 22 49  1  0  0  0  0
 22 50  1  0  0  0  0
 22 51  1  0  0  0  0
M  CHG  1   4   1
M  CHG  1   8  -1
M  END
> <s_m_source_file>
AV-unprocessed.smi

> <i_m_source_file_index>
1762

> <i_lp_mmshare_version>
43012

> <i_f3d_flags>
0

> <s_epik_input>
W0NIM11bQ0BASF0xW0NIMl1OKFtDSDJdW0NASF0oTzEpW0NIM10pW0NAQEhdKFtDSF0oW0NIM10pW0NIM10pQyg9TylbTkhdW0NIMl1bQ0gyXWMyW2NIXVtjSF1bY0hdW2NIXW4y

> <s_epik_cmdline>
J2VwaWtfcHl0aG9uJywgJy1waCcsICc3LjAnLCAnLXRuJywgJzgnLCAnLW1hJywgJzIwMCcsICctbWV0YWxfYmluZGluZycsICctaW1hZScsICc8aW5maWxlLm1hZT4nLCAnLW9tYWUnLCAnPG91dGZpbGUubWFlPic=

> <r_epik_Ionization_Penalty>
7.82966

> <r_epik_Ionization_Penalty_Charging>
7.7461

> <r_epik_Ionization_Penalty_Neutral>
0.0835571

> <r_epik_State_Penalty>
8.52273

> <r_epik_Charging_Adjusted_Penalty>
16.2688

> <i_epik_Tot_Q>
0

> <i_epik_Tot_abs_Q>
2

> <r_epik_Metal_State_Penalty>
4.47451

> <b_epik_Metal_Only>
1

> <s_lp_Force_Field>
OPLS_2005

> <r_lp_Energy>
23.0584

> <b_lp_Chiralities_Consistent>
1

> <s_lp_Variant>
AV-unprocessed.smi:1762-22

> <Gold.Version>
5.8.1

> <Gold.Id.Protein>
6NUR|6NUR_protein|mol2

> <Gold.PLP.Fitness>
51.9572

> <Gold.PLP.PLP>
-39.5387

> <Gold.PLP.part.hbond>
-4.0000

> <Gold.PLP.part.metal>
0.0000

> <Gold.PLP.part.buried>
-1.8234

> <Gold.PLP.part.nonpolar>
-33.8113

> <Gold.PLP.part.repulsive>
0.2376

> <Gold.PLP.ligand.clash>
0.0000

> <Gold.PLP.ligand.torsion>
1.2668

> <Gold.PLP.Chemscore.Hbond>
4.7840

> <Gold.PLP.Chemscore.CHOScore>
0.0000

> <Gold.PLP.Chemscore.Metal>
0.0000

> <Gold.Chemscore.Hbonds>
donor molecule, donor type, donor heavy atom, donor atom, acceptor molecule, acceptor atom, score
      L1  H     4    52       P1  7948  2.00
      P1  H  6931  6943       L1    16  0.85
      P1  H  6934  6947       L1    16  0.82
      P1  H  7989  7998       L1    23  1.00

> <Gold.PLP.Chemscore.Internal.Correction>
0.6001

> <Gold.Rescore>
     Score         DG    S(hbond)    S(metal)    S(lipo)     H(rot)  DE(clash)    DE(int)     intcor
     17.87     -21.97       2.88        0.00      93.74       1.60       0.01       4.09       ----

> <Gold.Chemscore.Fitness>
17.8727

> <Gold.Chemscore.DG>
-21.9721

> <Gold.Chemscore.ZeroCoef>
-5.4800

> <Gold.Chemscore.Hbond>
2.8813

> <Gold.Chemscore.Metal>
0.0000

> <Gold.Chemscore.Lipo>
93.7410

> <Gold.Chemscore.Internal_Hbond>
0.0000

> <Gold.Chemscore.DEClash>
0.0063

> <Gold.Chemscore.DEInternal>
4.0931

> <Gold.Chemscore.Rot>
1.6012

> <Gold.Chemscore.Internal.Correction>
   9.000000E+99

> <Gold.Chemscore.Hbonds>
donor molecule, donor type, donor heavy atom, donor atom, acceptor molecule, acceptor atom, score
      L1  H     4    52       P1  7948  0.99
      P1  H  6931  6943       L1    16  0.33
      P1  H  6934  6947       L1    16  0.41
      P1  H  7989  7998       L1    23  0.88

> <Gold.Chemscore.Hbond.Weighted>
-9.6234

> <Gold.Chemscore.Metal.Weighted>
-0.0000

> <Gold.Chemscore.Lipo.Weighted>
-10.9677

> <Gold.Chemscore.Internal_Hbond.Weighted>
0.0000

> <Gold.Chemscore.DEClash.Weighted>
0.0063

> <Gold.Chemscore.DEInternal.Weighted>
4.0931

> <Gold.Chemscore.Rot.Weighted>
4.0990

> <Gold.Chemscore.Internal.Correction.Weighted>
   9.000000E+99

> <Gold.Protein.RotatedTorsions>
[ 6907 6896 6895 6894 ] final -132.42 input  -60.11 | X-H torsion
[ 7974 7965 7964 7962 ] final   13.17 input  175.53 | X-H torsion
[ 8008 7997 7996 7995 ] final  -34.18 input   59.86 | X-H torsion
[ 10167 10162 10161 10158 ] final  -66.44 input  -65.29 | X-H torsion
[ 10718 10713 10712 10709 ] final  128.44 input   66.30 | X-H torsion
[ 10763 10752 10751 10750 ] final -149.63 input  -60.55 | X-H torsion
[ 11005 11000 10999 10996 ] final   55.81 input  -57.11 | X-H torsion

> <Gold.Protein.ActiveResidues>
 VAL166  LYS551  ARG553  GLY616  TRP617  ASP618  TYR619  PRO620  LYS621  CYS622 
 ASP623  PHE694  ASN695  SER759  ASP760  ASP761  ALA762  ILE779  LEU786  VAL792 
 PHE793  MET794  SER795  GLU796  ALA797  LYS798  CYS799  TRP800  GLU811  SER814 

> <Gold.Protein.RotatedAtoms>
  150.9622  133.6433  159.2752 H   0  0  0  0  0  0  0  0  0  0  0  0  # atno 6907 bound_to 6896
  151.3752  135.0928  159.9488 H   0  0  0  0  0  0  0  0  0  0  0  0  # atno 6908 bound_to 6896
  152.5152  133.9168  159.7569 H   0  0  0  0  0  0  0  0  0  0  0  0  # atno 6909 bound_to 6896
  146.2335  139.9228  142.8507 H   0  0  0  0  0  0  0  0  0  0  0  0  # atno 7974 bound_to 7965
  154.4128  140.1691  156.2008 H   0  0  0  0  0  0  0  0  0  0  0  0  # atno 8008 bound_to 7997
  155.9526  140.3400  155.6397 H   0  0  0  0  0  0  0  0  0  0  0  0  # atno 8009 bound_to 7997
  155.6851  140.0727  157.2460 H   0  0  0  0  0  0  0  0  0  0  0  0  # atno 8010 bound_to 7997
  140.5656  143.2314  151.6640 H   0  0  0  0  0  0  0  0  0  0  0  0  # atno 10167 bound_to 10162
  157.5244  131.1098  150.9105 H   0  0  0  0  0  0  0  0  0  0  0  0  # atno 10718 bound_to 10713
  154.8166  135.3304  154.7158 H   0  0  0  0  0  0  0  0  0  0  0  0  # atno 10763 bound_to 10752
  153.7798  135.6919  153.4895 H   0  0  0  0  0  0  0  0  0  0  0  0  # atno 10764 bound_to 10752
  153.1988  135.4524  155.0188 H   0  0  0  0  0  0  0  0  0  0  0  0  # atno 10765 bound_to 10752
  140.0578  134.5645  155.9187 H   0  0  0  0  0  0  0  0  0  0  0  0  # atno 11005 bound_to 11000
  145.2120  140.9899  143.4095 LP  0  0  0  0  0  0  0  0  0  0  0  0  # atno 17320 bound_to 7965
  144.9683  139.3906  143.6321 LP  0  0  0  0  0  0  0  0  0  0  0  0  # atno 17321 bound_to 7965
  139.5091  144.3587  152.0583 LP  0  0  0  0  0  0  0  0  0  0  0  0  # atno 17342 bound_to 10162
  140.2718  144.3955  150.6148 LP  0  0  0  0  0  0  0  0  0  0  0  0  # atno 17343 bound_to 10162
  156.9705  130.5489  149.5290 LP  0  0  0  0  0  0  0  0  0  0  0  0  # atno 17370 bound_to 10713
  156.0376  130.5462  150.8693 LP  0  0  0  0  0  0  0  0  0  0  0  0  # atno 17371 bound_to 10713
  141.1960  133.6589  156.5669 LP  0  0  0  0  0  0  0  0  0  0  0  0  # atno 17394 bound_to 11000
  140.3817  134.7517  157.4665 LP  0  0  0  0  0  0  0  0  0  0  0  0  # atno 17395 bound_to 11000

$$$$
