AV-unprocessed.smi:1507|AV-procd|sdf|6081|dock1
  -GOLD-   22720 6203D 1   1.00000     0.00000
 Structure written by MMmdl.
 33 34  0  0  0  0  0  0  0  0  2 V2000
  149.6747  134.7768  154.3505 N   0  0  0  0  0  0  0  0  0  0  0  0
  150.1282  135.8132  155.6516 S   0  0  0  0  0  0  0  0  0  0  0  0
  148.9931  136.7329  155.8215 O   0  0  0  0  0  0  0  0  0  0  0  0
  150.4799  134.9304  156.7770 O   0  0  0  0  0  0  0  0  0  0  0  0
  151.3958  136.5326  154.9273 N   0  5  0  0  0  0  0  0  0  0  0  0
  151.2913  137.8697  154.3576 C   0  0  0  0  0  0  0  0  0  0  0  0
  151.5271  138.9442  155.4089 C   0  0  0  0  0  0  0  0  0  0  0  0
  150.7802  140.1421  155.4086 C   0  0  0  0  0  0  0  0  0  0  0  0
  151.0370  141.1082  156.4013 C   0  0  0  0  0  0  0  0  0  0  0  0
  152.0356  140.8547  157.3709 C   0  0  0  0  0  0  0  0  0  0  0  0
  152.3116  141.8123  158.3703 N   0  0  0  0  0  0  0  0  0  0  0  0
  152.4048  141.3536  159.7548 C   0  0  0  0  0  0  0  0  0  0  0  0
  153.0042  142.4568  160.6428 C   0  0  0  0  0  0  0  0  0  0  0  0
  152.2377  143.6491  160.5086 O   0  0  0  0  0  0  0  0  0  0  0  0
  152.2482  144.1389  159.1715 C   0  0  0  0  0  0  0  0  0  0  0  0
  151.6268  143.0943  158.2280 C   0  0  0  0  0  0  0  0  0  0  0  0
  152.7546  139.7053  157.3663 N   0  0  0  0  0  0  0  0  0  0  0  0
  152.5058  138.7802  156.4140 C   0  0  0  0  0  0  0  0  0  0  0  0
  149.1519  135.2705  153.6281 H   0  0  0  0  0  0  0  0  0  0  0  0
  149.2227  133.9232  154.6764 H   0  0  0  0  0  0  0  0  0  0  0  0
  152.0094  138.0208  153.5508 H   0  0  0  0  0  0  0  0  0  0  0  0
  150.3117  138.0441  153.9110 H   0  0  0  0  0  0  0  0  0  0  0  0
  150.0217  140.3376  154.6627 H   0  0  0  0  0  0  0  0  0  0  0  0
  150.4808  142.0334  156.3951 H   0  0  0  0  0  0  0  0  0  0  0  0
  151.4109  141.0827  160.1141 H   0  0  0  0  0  0  0  0  0  0  0  0
  153.0293  140.4614  159.8161 H   0  0  0  0  0  0  0  0  0  0  0  0
  152.9961  142.1440  161.6869 H   0  0  0  0  0  0  0  0  0  0  0  0
  154.0448  142.6477  160.3755 H   0  0  0  0  0  0  0  0  0  0  0  0
  151.6789  145.0674  159.1300 H   0  0  0  0  0  0  0  0  0  0  0  0
  153.2688  144.3780  158.8680 H   0  0  0  0  0  0  0  0  0  0  0  0
  151.6730  143.4667  157.2057 H   0  0  0  0  0  0  0  0  0  0  0  0
  150.5716  142.9567  158.4675 H   0  0  0  0  0  0  0  0  0  0  0  0
  153.1161  137.8890  156.4704 H   0  0  0  0  0  0  0  0  0  0  0  0
  1  2  1  0  0  0  0
  1 19  1  0  0  0  0
  1 20  1  0  0  0  0
  2  3  2  0  0  0  0
  2  4  2  0  0  0  0
  2  5  1  0  0  0  0
  5  6  1  0  0  0  0
  6  7  1  0  0  0  0
  6 21  1  0  0  0  0
  6 22  1  0  0  0  0
  7 18  1  0  0  0  0
  7  8  2  0  0  0  0
  8  9  1  0  0  0  0
  8 23  1  0  0  0  0
  9 10  2  0  0  0  0
  9 24  1  0  0  0  0
 10 11  1  0  0  0  0
 10 17  1  0  0  0  0
 11 16  1  0  0  0  0
 11 12  1  0  0  0  0
 12 13  1  0  0  0  0
 12 25  1  0  0  0  0
 12 26  1  0  0  0  0
 13 14  1  0  0  0  0
 13 27  1  0  0  0  0
 13 28  1  0  0  0  0
 14 15  1  0  0  0  0
 15 16  1  0  0  0  0
 15 29  1  0  0  0  0
 15 30  1  0  0  0  0
 16 31  1  0  0  0  0
 16 32  1  0  0  0  0
 17 18  2  0  0  0  0
 18 33  1  0  0  0  0
M  CHG  1   5  -1
M  END
> <s_m_source_file>
AV-unprocessed.smi

> <i_m_source_file_index>
1507

> <i_lp_mmshare_version>
43012

> <i_f3d_flags>
0

> <s_epik_input>
W05IMl1TKD1PKSg9TylbTkhdW0NIMl1jMVtjSF1bY0hdYyhuW2NIXTEpTjJbQ0gyXVtDSDJdT1tDSDJdW0NIMl0y

> <s_epik_cmdline>
J2VwaWtfcHl0aG9uJywgJy1waCcsICc3LjAnLCAnLXRuJywgJzgnLCAnLW1hJywgJzIwMCcsICctbWV0YWxfYmluZGluZycsICctaW1hZScsICc8aW5maWxlLm1hZT4nLCAnLW9tYWUnLCAnPG91dGZpbGUubWFlPic=

> <r_lp_tautomer_probability>
1

> <r_epik_Ionization_Penalty>
0.860968

> <r_epik_Ionization_Penalty_Charging>
0.789613

> <r_epik_Ionization_Penalty_Neutral>
0.071355

> <r_epik_State_Penalty>
0.836007

> <r_epik_Charging_Adjusted_Penalty>
1.62562

> <i_epik_Tot_Q>
-1

> <i_epik_Tot_abs_Q>
1

> <r_epik_Metal_State_Penalty>
0.647115

> <b_epik_Metal_Only>
0

> <s_lp_Force_Field>
OPLS_2005

> <r_lp_Energy>
17.6247

> <b_lp_Chiralities_Consistent>
1

> <s_lp_Variant>
AV-unprocessed.smi:1507-2

> <Gold.Version>
5.8.1

> <Gold.Id.Protein>
6NUR|6NUR_protein|mol2

> <Gold.PLP.Fitness>
44.2711

> <Gold.PLP.PLP>
-33.2816

> <Gold.PLP.part.hbond>
-3.0000

> <Gold.PLP.part.metal>
0.0000

> <Gold.PLP.part.buried>
-4.5657

> <Gold.PLP.part.nonpolar>
-26.3556

> <Gold.PLP.part.repulsive>
0.2495

> <Gold.PLP.ligand.clash>
0.0000

> <Gold.PLP.ligand.torsion>
1.1482

> <Gold.PLP.Chemscore.Hbond>
3.9920

> <Gold.PLP.Chemscore.CHOScore>
0.0000

> <Gold.PLP.Chemscore.Metal>
0.0000

> <Gold.Chemscore.Hbonds>
donor molecule, donor type, donor heavy atom, donor atom, acceptor molecule, acceptor atom, score
      L1  H     1    19       P1  7948  1.00
      P1  H  7997  8010       L1    17  0.94
      P1  H 10752 10763       L1     5  2.00

> <Gold.PLP.Chemscore.Internal.Correction>
1.3099

> <Gold.Rescore>
     Score         DG    S(hbond)    S(metal)    S(lipo)     H(rot)  DE(clash)    DE(int)     intcor
     15.26     -16.46       1.97        0.00      78.69       1.88       0.03       1.17       ----

> <Gold.Chemscore.Fitness>
15.2568

> <Gold.Chemscore.DG>
-16.4562

> <Gold.Chemscore.ZeroCoef>
-5.4800

> <Gold.Chemscore.Hbond>
1.9720

> <Gold.Chemscore.Metal>
0.0000

> <Gold.Chemscore.Lipo>
78.6866

> <Gold.Chemscore.Internal_Hbond>
0.0000

> <Gold.Chemscore.DEClash>
0.0263

> <Gold.Chemscore.DEInternal>
1.1730

> <Gold.Chemscore.Rot>
1.8814

> <Gold.Chemscore.Internal.Correction>
   9.000000E+99

> <Gold.Chemscore.Hbonds>
donor molecule, donor type, donor heavy atom, donor atom, acceptor molecule, acceptor atom, score
      L1  H     1    19       P1  7948  0.37
      P1  H  7997  8010       L1    17  0.16
      P1  H 10752 10763       L1     5  0.90

> <Gold.Chemscore.Hbond.Weighted>
-6.5863

> <Gold.Chemscore.Metal.Weighted>
-0.0000

> <Gold.Chemscore.Lipo.Weighted>
-9.2063

> <Gold.Chemscore.Internal_Hbond.Weighted>
0.0000

> <Gold.Chemscore.DEClash.Weighted>
0.0263

> <Gold.Chemscore.DEInternal.Weighted>
1.1730

> <Gold.Chemscore.Rot.Weighted>
4.8165

> <Gold.Chemscore.Internal.Correction.Weighted>
   9.000000E+99

> <Gold.Protein.RotatedTorsions>
[ 6907 6896 6895 6894 ] final   73.51 input  -60.11 | X-H torsion
[ 7974 7965 7964 7962 ] final   91.03 input  175.53 | X-H torsion
[ 8008 7997 7996 7995 ] final   35.49 input   59.86 | X-H torsion
[ 10167 10162 10161 10158 ] final -124.17 input  -65.29 | X-H torsion
[ 10718 10713 10712 10709 ] final    2.76 input   66.30 | X-H torsion
[ 10763 10752 10751 10750 ] final   54.04 input  -60.55 | X-H torsion
[ 11005 11000 10999 10996 ] final  -49.99 input  -57.11 | X-H torsion

> <Gold.Protein.ActiveResidues>
 VAL166  LYS551  ARG553  GLY616  TRP617  ASP618  TYR619  PRO620  LYS621  CYS622 
 ASP623  PHE694  ASN695  SER759  ASP760  ASP761  ALA762  ILE779  LEU786  VAL792 
 PHE793  MET794  SER795  GLU796  ALA797  LYS798  CYS799  TRP800  GLU811  SER814 

> <Gold.Protein.RotatedAtoms>
  152.4927  134.4411  159.9543 H   0  0  0  0  0  0  0  0  0  0  0  0  # atno 6907 bound_to 6896
  151.4395  133.3641  159.2787 H   0  0  0  0  0  0  0  0  0  0  0  0  # atno 6908 bound_to 6896
  150.9097  134.8537  159.7477 H   0  0  0  0  0  0  0  0  0  0  0  0  # atno 6909 bound_to 6896
  145.5110  139.2277  143.2724 H   0  0  0  0  0  0  0  0  0  0  0  0  # atno 7974 bound_to 7965
  155.1719  140.3292  155.4391 H   0  0  0  0  0  0  0  0  0  0  0  0  # atno 8008 bound_to 7997
  156.2507  140.1942  156.6772 H   0  0  0  0  0  0  0  0  0  0  0  0  # atno 8009 bound_to 7997
  154.6332  140.0580  156.9743 H   0  0  0  0  0  0  0  0  0  0  0  0  # atno 8010 bound_to 7997
  139.9957  143.5594  152.2324 H   0  0  0  0  0  0  0  0  0  0  0  0  # atno 10167 bound_to 10162
  156.8678  130.5609  149.5659 H   0  0  0  0  0  0  0  0  0  0  0  0  # atno 10718 bound_to 10713
  152.9801  135.5758  154.4840 H   0  0  0  0  0  0  0  0  0  0  0  0  # atno 10763 bound_to 10752
  154.4384  135.2775  155.1866 H   0  0  0  0  0  0  0  0  0  0  0  0  # atno 10764 bound_to 10752
  154.3544  135.6202  153.5713 H   0  0  0  0  0  0  0  0  0  0  0  0  # atno 10765 bound_to 10752
  141.0791  133.6658  156.3666 H   0  0  0  0  0  0  0  0  0  0  0  0  # atno 11005 bound_to 11000
  146.2166  140.5917  142.9036 LP  0  0  0  0  0  0  0  0  0  0  0  0  # atno 17320 bound_to 7965
  144.7727  140.5673  143.6659 LP  0  0  0  0  0  0  0  0  0  0  0  0  # atno 17321 bound_to 7965
  139.6308  144.7644  151.2541 LP  0  0  0  0  0  0  0  0  0  0  0  0  # atno 17342 bound_to 10162
  140.7438  143.6483  150.8272 LP  0  0  0  0  0  0  0  0  0  0  0  0  # atno 17343 bound_to 10162
  156.0742  130.5768  150.9442 LP  0  0  0  0  0  0  0  0  0  0  0  0  # atno 17370 bound_to 10713
  157.6213  131.0929  150.8617 LP  0  0  0  0  0  0  0  0  0  0  0  0  # atno 17371 bound_to 10713
  140.5509  134.6029  157.5407 LP  0  0  0  0  0  0  0  0  0  0  0  0  # atno 17394 bound_to 11000
  139.9604  134.7463  156.0250 LP  0  0  0  0  0  0  0  0  0  0  0  0  # atno 17395 bound_to 11000

$$$$
