AV-unprocessed.smi:2510|AV-procd|sdf|9876|dock4
  -GOLD-   2272013513D 1   1.00000     0.00000
 Structure written by MMmdl.
 48 49  0  0  0  0  0  0  0  0  1 V2000
  152.9016  144.7512  157.8256 C   0  0  0  0  0  0  0  0  0  0  0  0
  151.4588  144.2699  158.0682 C   0  0  0  0  0  0  0  0  0  0  0  0
  151.2163  143.3624  159.3084 C   0  0  0  0  0  0  0  0  0  0  0  0
  149.7797  143.5852  159.8299 C   0  0  0  0  0  0  0  0  0  0  0  0
  149.4730  145.0238  160.2780 C   0  0  0  0  0  0  0  0  0  0  0  0
  151.6639  141.8756  159.2234 C   0  0  1  0  0  0  0  0  0  0  0  0
  151.7012  141.3012  157.8842 N   0  0  0  0  0  0  0  0  0  0  0  0
  151.5258  139.9998  157.6105 C   0  0  0  0  0  0  0  0  0  0  0  0
  151.2637  139.1557  158.4668 O   0  0  0  0  0  0  0  0  0  0  0  0
  151.6650  139.5880  156.1448 C   0  0  0  0  0  0  0  0  0  0  0  0
  150.5214  140.1473  155.3408 C   0  0  0  0  0  0  0  0  0  0  0  0
  149.4534  140.9806  155.7901 C   0  0  0  0  0  0  0  0  0  0  0  0
  148.7012  141.2009  154.6708 C   0  0  0  0  0  0  0  0  0  0  0  0
  147.4553  141.9913  154.4572 C   0  0  0  0  0  0  0  0  0  0  0  0
  149.3213  140.5171  153.6510 N   0  0  0  0  0  0  0  0  0  0  0  0
  150.4312  139.8680  154.0476 N   0  0  0  0  0  0  0  0  0  0  0  0
  153.0548  142.2808  159.7206 C   0  0  2  0  0  0  0  0  0  0  0  0
  153.8742  141.2993  160.5494 C   0  0  0  0  0  0  0  0  0  0  0  0
  152.3424  143.4780  160.3764 C   0  0  2  0  0  0  0  0  0  0  0  0
  151.8723  143.1800  161.6875 O   0  0  0  0  0  0  0  0  0  0  0  0
  152.8959  143.2120  162.6672 C   0  0  0  0  0  0  0  0  0  0  0  0
  149.0030  140.4850  152.6928 H   0  0  0  0  0  0  0  0  0  0  0  0
  152.9268  145.4666  157.0036 H   0  0  0  0  0  0  0  0  0  0  0  0
  153.5636  143.9312  157.5491 H   0  0  0  0  0  0  0  0  0  0  0  0
  153.3261  145.2457  158.6968 H   0  0  0  0  0  0  0  0  0  0  0  0
  150.8310  145.1585  158.1277 H   0  0  0  0  0  0  0  0  0  0  0  0
  151.1162  143.7604  157.1676 H   0  0  0  0  0  0  0  0  0  0  0  0
  149.0446  143.2675  159.0913 H   0  0  0  0  0  0  0  0  0  0  0  0
  149.5930  142.9297  160.6810 H   0  0  0  0  0  0  0  0  0  0  0  0
  148.4696  145.0880  160.6989 H   0  0  0  0  0  0  0  0  0  0  0  0
  149.5203  145.7274  159.4476 H   0  0  0  0  0  0  0  0  0  0  0  0
  150.1719  145.3605  161.0439 H   0  0  0  0  0  0  0  0  0  0  0  0
  151.1564  141.2444  159.9574 H   0  0  0  0  0  0  0  0  0  0  0  0
  151.9055  141.9283  157.1197 H   0  0  0  0  0  0  0  0  0  0  0  0
  152.6235  139.9417  155.7622 H   0  0  0  0  0  0  0  0  0  0  0  0
  151.6862  138.5000  156.0701 H   0  0  0  0  0  0  0  0  0  0  0  0
  149.2722  141.3623  156.7839 H   0  0  0  0  0  0  0  0  0  0  0  0
  147.1057  142.4290  155.3927 H   0  0  0  0  0  0  0  0  0  0  0  0
  146.6585  141.3605  154.0623 H   0  0  0  0  0  0  0  0  0  0  0  0
  147.6280  142.8023  153.7494 H   0  0  0  0  0  0  0  0  0  0  0  0
  153.6579  142.6474  158.8881 H   0  0  0  0  0  0  0  0  0  0  0  0
  153.3017  140.9046  161.3890 H   0  0  0  0  0  0  0  0  0  0  0  0
  154.7705  141.7724  160.9500 H   0  0  0  0  0  0  0  0  0  0  0  0
  154.1942  140.4505  159.9451 H   0  0  0  0  0  0  0  0  0  0  0  0
  152.8930  144.4187  160.3158 H   0  0  0  0  0  0  0  0  0  0  0  0
  152.4818  142.9373  163.6371 H   0  0  0  0  0  0  0  0  0  0  0  0
  153.3194  144.2132  162.7547 H   0  0  0  0  0  0  0  0  0  0  0  0
  153.6991  142.5133  162.4333 H   0  0  0  0  0  0  0  0  0  0  0  0
  1  2  1  0  0  0  0
  1 23  1  0  0  0  0
  1 24  1  0  0  0  0
  1 25  1  0  0  0  0
  2  3  1  0  0  0  0
  2 26  1  0  0  0  0
  2 27  1  0  0  0  0
  3 19  1  0  0  0  0
  3  4  1  0  0  0  0
  3  6  1  0  0  0  0
  4  5  1  0  0  0  0
  4 28  1  0  0  0  0
  4 29  1  0  0  0  0
  5 30  1  0  0  0  0
  5 31  1  0  0  0  0
  5 32  1  0  0  0  0
  6  7  1  0  0  0  0
  6 17  1  0  0  0  0
  6 33  1  0  0  0  0
  7  8  1  0  0  0  0
  7 34  1  0  0  0  0
  8  9  2  0  0  0  0
  8 10  1  0  0  0  0
 10 11  1  0  0  0  0
 10 35  1  0  0  0  0
 10 36  1  0  0  0  0
 11 16  2  0  0  0  0
 11 12  1  0  0  0  0
 12 13  2  0  0  0  0
 12 37  1  0  0  0  0
 13 14  1  0  0  0  0
 13 15  1  0  0  0  0
 14 38  1  0  0  0  0
 14 39  1  0  0  0  0
 14 40  1  0  0  0  0
 15 22  1  0  0  0  0
 15 16  1  0  0  0  0
 17 18  1  0  0  0  0
 17 19  1  0  0  0  0
 17 41  1  0  0  0  0
 18 42  1  0  0  0  0
 18 43  1  0  0  0  0
 18 44  1  0  0  0  0
 19 20  1  0  0  0  0
 19 45  1  0  0  0  0
 20 21  1  0  0  0  0
 21 46  1  0  0  0  0
 21 47  1  0  0  0  0
 21 48  1  0  0  0  0
M  END
> <s_m_source_file>
AV-unprocessed.smi

> <i_m_source_file_index>
2510

> <i_lp_mmshare_version>
43012

> <i_f3d_flags>
0

> <s_epik_input>
W0NIM11PW0NAQEhdMVtDQEhdKFtDSDNdKVtDQEBIXShDMShbQ0gyXVtDSDNdKVtDSDJdW0NIM10pW05IXUMoPU8pW0NIMl1jMltjSF1jKFtDSDNdKVtuSF1uMg==

> <s_epik_cmdline>
J2VwaWtfcHl0aG9uJywgJy1waCcsICc3LjAnLCAnLXRuJywgJzgnLCAnLW1hJywgJzIwMCcsICctbWV0YWxfYmluZGluZycsICctaW1hZScsICc8aW5maWxlLm1hZT4nLCAnLW9tYWUnLCAnPG91dGZpbGUubWFlPic=

> <r_lp_tautomer_probability>
0.5

> <r_epik_Ionization_Penalty>
9.73156e-05

> <r_epik_Ionization_Penalty_Charging>
0

> <r_epik_Ionization_Penalty_Neutral>
9.73156e-05

> <r_epik_State_Penalty>
0.41068

> <r_epik_Charging_Adjusted_Penalty>
0.41068

> <i_epik_Tot_Q>
0

> <i_epik_Tot_abs_Q>
0

> <r_epik_Metal_State_Penalty>
0.410699

> <b_epik_Metal_Only>
0

> <s_lp_Force_Field>
OPLS_2005

> <r_lp_Energy>
28.6218

> <b_lp_Chiralities_Consistent>
1

> <s_lp_Variant>
AV-unprocessed.smi:2510-7

> <Gold.Version>
5.8.1

> <Gold.Id.Protein>
6NUR|6NUR_protein|mol2

> <Gold.PLP.Fitness>
49.3257

> <Gold.PLP.PLP>
-45.0690

> <Gold.PLP.part.hbond>
-2.5846

> <Gold.PLP.part.metal>
0.0000

> <Gold.PLP.part.buried>
-5.1294

> <Gold.PLP.part.nonpolar>
-40.6809

> <Gold.PLP.part.repulsive>
2.1358

> <Gold.PLP.ligand.clash>
0.0000

> <Gold.PLP.ligand.torsion>
1.0240

> <Gold.PLP.Chemscore.Hbond>
1.8663

> <Gold.PLP.Chemscore.CHOScore>
0.0000

> <Gold.PLP.Chemscore.Metal>
0.0000

> <Gold.Chemscore.Hbonds>
donor molecule, donor type, donor heavy atom, donor atom, acceptor molecule, acceptor atom, score
      L1  H    15    22       P1  7957  0.78
      P1  H  6933  6945       L1    20  0.10
      P1  H  7989  7998       L1    16  0.95

> <Gold.PLP.Chemscore.Internal.Correction>
0.7057

> <Gold.Rescore>
     Score         DG    S(hbond)    S(metal)    S(lipo)     H(rot)  DE(clash)    DE(int)     intcor
     18.05     -20.80       1.32        0.00     132.96       1.81       1.60       1.15       ----

> <Gold.Chemscore.Fitness>
18.0548

> <Gold.Chemscore.DG>
-20.7987

> <Gold.Chemscore.ZeroCoef>
-5.4800

> <Gold.Chemscore.Hbond>
1.3165

> <Gold.Chemscore.Metal>
0.0000

> <Gold.Chemscore.Lipo>
132.9559

> <Gold.Chemscore.Internal_Hbond>
0.0000

> <Gold.Chemscore.DEClash>
1.5954

> <Gold.Chemscore.DEInternal>
1.1485

> <Gold.Chemscore.Rot>
1.8102

> <Gold.Chemscore.Internal.Correction>
   9.000000E+99

> <Gold.Chemscore.Hbonds>
donor molecule, donor type, donor heavy atom, donor atom, acceptor molecule, acceptor atom, score
      L1  H    15    22       P1  7957  0.78
      P1  H  6933  6945       L1    20  0.10
      P1  H  7989  7998       L1    16  0.06

> <Gold.Chemscore.Hbond.Weighted>
-4.3970

> <Gold.Chemscore.Metal.Weighted>
-0.0000

> <Gold.Chemscore.Lipo.Weighted>
-15.5558

> <Gold.Chemscore.Internal_Hbond.Weighted>
0.0000

> <Gold.Chemscore.DEClash.Weighted>
1.5954

> <Gold.Chemscore.DEInternal.Weighted>
1.1485

> <Gold.Chemscore.Rot.Weighted>
4.6341

> <Gold.Chemscore.Internal.Correction.Weighted>
   9.000000E+99

> <Gold.Protein.RotatedTorsions>
[ 6907 6896 6895 6894 ] final -162.33 input  -60.11 | X-H torsion
[ 7974 7965 7964 7962 ] final  -73.01 input  175.53 | X-H torsion
[ 8008 7997 7996 7995 ] final  -84.16 input   59.86 | X-H torsion
[ 10167 10162 10161 10158 ] final  -60.37 input  -65.29 | X-H torsion
[ 10718 10713 10712 10709 ] final  142.76 input   66.30 | X-H torsion
[ 10763 10752 10751 10750 ] final   -9.49 input  -60.55 | X-H torsion
[ 11005 11000 10999 10996 ] final  -89.98 input  -57.11 | X-H torsion

> <Gold.Protein.ActiveResidues>
 VAL166  LYS551  ARG553  GLY616  TRP617  ASP618  TYR619  PRO620  LYS621  CYS622 
 ASP623  PHE694  ASN695  SER759  ASP760  ASP761  ALA762  ILE779  LEU786  VAL792 
 PHE793  MET794  SER795  GLU796  ALA797  LYS798  CYS799  TRP800  GLU811  SER814 

> <Gold.Protein.RotatedAtoms>
  151.3786  133.3829  159.2707 H   0  0  0  0  0  0  0  0  0  0  0  0  # atno 6907 bound_to 6896
  150.9595  134.8986  159.7732 H   0  0  0  0  0  0  0  0  0  0  0  0  # atno 6908 bound_to 6896
  152.5144  134.3745  159.9382 H   0  0  0  0  0  0  0  0  0  0  0  0  # atno 6909 bound_to 6896
  145.6578  140.9262  143.0950 H   0  0  0  0  0  0  0  0  0  0  0  0  # atno 7974 bound_to 7965
  154.6268  140.0609  156.9683 H   0  0  0  0  0  0  0  0  0  0  0  0  # atno 8008 bound_to 7997
  155.1729  140.3292  155.4371 H   0  0  0  0  0  0  0  0  0  0  0  0  # atno 8009 bound_to 7997
  156.2461  140.1911  156.6830 H   0  0  0  0  0  0  0  0  0  0  0  0  # atno 8010 bound_to 7997
  140.6076  143.2378  151.5786 H   0  0  0  0  0  0  0  0  0  0  0  0  # atno 10167 bound_to 10162
  157.3768  131.0986  151.0776 H   0  0  0  0  0  0  0  0  0  0  0  0  # atno 10718 bound_to 10713
  153.4555  135.7015  153.6082 H   0  0  0  0  0  0  0  0  0  0  0  0  # atno 10763 bound_to 10752
  153.4399  135.3783  155.2221 H   0  0  0  0  0  0  0  0  0  0  0  0  # atno 10764 bound_to 10752
  154.8728  135.3971  154.3974 H   0  0  0  0  0  0  0  0  0  0  0  0  # atno 10765 bound_to 10752
  141.1574  133.7663  156.9672 H   0  0  0  0  0  0  0  0  0  0  0  0  # atno 11005 bound_to 11000
  144.7100  139.8409  143.7418 LP  0  0  0  0  0  0  0  0  0  0  0  0  # atno 17320 bound_to 7965
  146.1151  139.4160  143.0263 LP  0  0  0  0  0  0  0  0  0  0  0  0  # atno 17321 bound_to 7965
  139.5336  144.2844  152.1203 LP  0  0  0  0  0  0  0  0  0  0  0  0  # atno 17342 bound_to 10162
  140.2037  144.4632  150.6419 LP  0  0  0  0  0  0  0  0  0  0  0  0  # atno 17343 bound_to 10162
  157.1860  130.6331  149.5688 LP  0  0  0  0  0  0  0  0  0  0  0  0  # atno 17370 bound_to 10713
  155.9767  130.4738  150.6545 LP  0  0  0  0  0  0  0  0  0  0  0  0  # atno 17371 bound_to 10713
  140.1153  134.9451  157.2125 LP  0  0  0  0  0  0  0  0  0  0  0  0  # atno 17394 bound_to 11000
  140.3141  134.2990  155.7260 LP  0  0  0  0  0  0  0  0  0  0  0  0  # atno 17395 bound_to 11000

$$$$
