AV-unprocessed.smi:2055|AV-procd|sdf|8337|dock3
  -GOLD-   2272011 03D 1   1.00000     0.00000
 Structure written by MMmdl.
 44 45  0  0  0  0  0  0  0  0  2 V2000
  149.4881  133.8476  156.1557 C   0  0  0  0  0  0  0  0  0  0  0  0
  149.8864  133.8756  154.6719 C   0  0  1  0  0  0  0  0  0  0  0  0
  148.8269  133.1892  153.7919 C   0  0  0  0  0  0  0  0  0  0  0  0
  147.8650  134.1300  153.3617 O   0  0  0  0  0  0  0  0  0  0  0  0
  150.0456  135.2626  154.2431 N   0  0  0  0  0  0  0  0  0  0  0  0
  150.9141  136.1377  154.7667 C   0  0  0  0  0  0  0  0  0  0  0  0
  151.6546  135.8953  155.7198 O   0  0  0  0  0  0  0  0  0  0  0  0
  150.9038  137.3037  154.1059 N   0  0  0  0  0  0  0  0  0  0  0  0
  151.7897  138.4289  154.3915 C   0  0  0  0  0  0  0  0  0  0  0  0
  151.0931  139.6781  154.9218 C   0  0  0  0  0  0  0  0  0  0  0  0
  149.9174  140.1341  154.2904 C   0  0  0  0  0  0  0  0  0  0  0  0
  149.2753  141.2852  154.7827 C   0  0  0  0  0  0  0  0  0  0  0  0
  149.7879  141.9377  155.8473 N   0  3  0  0  0  0  0  0  0  0  0  0
  150.9153  141.5559  156.4961 C   0  0  0  0  0  0  0  0  0  0  0  0
  151.3354  142.3189  157.6088 N   0  0  0  0  0  0  0  0  0  0  0  0
  152.2382  141.6952  158.5730 C   0  0  0  0  0  0  0  0  0  0  0  0
  152.3259  142.5377  159.8565 C   0  0  0  0  0  0  0  0  0  0  0  0
  152.6897  143.8738  159.5299 O   0  0  0  0  0  0  0  0  0  0  0  0
  151.7126  144.4974  158.7046 C   0  0  0  0  0  0  0  0  0  0  0  0
  151.5963  143.7383  157.3720 C   0  0  0  0  0  0  0  0  0  0  0  0
  151.5982  140.4053  156.0265 C   0  0  0  0  0  0  0  0  0  0  0  0
  149.3729  132.8234  156.5114 H   0  0  0  0  0  0  0  0  0  0  0  0
  148.5436  134.3664  156.3240 H   0  0  0  0  0  0  0  0  0  0  0  0
  150.2470  134.3250  156.7768 H   0  0  0  0  0  0  0  0  0  0  0  0
  150.8293  133.3343  154.5694 H   0  0  0  0  0  0  0  0  0  0  0  0
  149.2923  132.7722  152.8981 H   0  0  0  0  0  0  0  0  0  0  0  0
  148.3414  132.3634  154.3133 H   0  0  0  0  0  0  0  0  0  0  0  0
  148.3143  134.9181  153.0967 H   0  0  0  0  0  0  0  0  0  0  0  0
  149.4816  135.5610  153.4608 H   0  0  0  0  0  0  0  0  0  0  0  0
  150.2573  137.4130  153.3380 H   0  0  0  0  0  0  0  0  0  0  0  0
  152.5204  138.1049  155.1328 H   0  0  0  0  0  0  0  0  0  0  0  0
  152.3530  138.6794  153.4907 H   0  0  0  0  0  0  0  0  0  0  0  0
  149.5079  139.6063  153.4410 H   0  0  0  0  0  0  0  0  0  0  0  0
  148.3700  141.6993  154.3628 H   0  0  0  0  0  0  0  0  0  0  0  0
  151.8848  140.6977  158.8360 H   0  0  0  0  0  0  0  0  0  0  0  0
  153.2269  141.5888  158.1249 H   0  0  0  0  0  0  0  0  0  0  0  0
  151.3758  142.5282  160.3940 H   0  0  0  0  0  0  0  0  0  0  0  0
  153.0747  142.1191  160.5291 H   0  0  0  0  0  0  0  0  0  0  0  0
  150.7512  144.5287  159.2197 H   0  0  0  0  0  0  0  0  0  0  0  0
  152.0086  145.5306  158.5226 H   0  0  0  0  0  0  0  0  0  0  0  0
  152.5224  143.8351  156.8043 H   0  0  0  0  0  0  0  0  0  0  0  0
  150.8065  144.1974  156.7779 H   0  0  0  0  0  0  0  0  0  0  0  0
  152.5079  140.0723  156.5015 H   0  0  0  0  0  0  0  0  0  0  0  0
  149.2939  142.7635  156.1860 H   0  0  0  0  0  0  0  0  0  0  0  0
  1  2  1  0  0  0  0
  1 22  1  0  0  0  0
  1 23  1  0  0  0  0
  1 24  1  0  0  0  0
  2  3  1  0  0  0  0
  2  5  1  0  0  0  0
  2 25  1  0  0  0  0
  3  4  1  0  0  0  0
  3 26  1  0  0  0  0
  3 27  1  0  0  0  0
  4 28  1  0  0  0  0
  5  6  1  0  0  0  0
  5 29  1  0  0  0  0
  6  7  2  0  0  0  0
  6  8  1  0  0  0  0
  8  9  1  0  0  0  0
  8 30  1  0  0  0  0
  9 10  1  0  0  0  0
  9 31  1  0  0  0  0
  9 32  1  0  0  0  0
 10 21  1  0  0  0  0
 10 11  2  0  0  0  0
 11 12  1  0  0  0  0
 11 33  1  0  0  0  0
 12 13  2  0  0  0  0
 12 34  1  0  0  0  0
 13 14  1  0  0  0  0
 13 44  1  0  0  0  0
 14 15  1  0  0  0  0
 14 21  2  0  0  0  0
 15 20  1  0  0  0  0
 15 16  1  0  0  0  0
 16 17  1  0  0  0  0
 16 35  1  0  0  0  0
 16 36  1  0  0  0  0
 17 18  1  0  0  0  0
 17 37  1  0  0  0  0
 17 38  1  0  0  0  0
 18 19  1  0  0  0  0
 19 20  1  0  0  0  0
 19 39  1  0  0  0  0
 19 40  1  0  0  0  0
 20 41  1  0  0  0  0
 20 42  1  0  0  0  0
 21 43  1  0  0  0  0
M  CHG  1  13   1
M  END
> <s_m_source_file>
AV-unprocessed.smi

> <i_m_source_file_index>
2055

> <i_lp_mmshare_version>
43012

> <i_f3d_flags>
0

> <s_epik_input>
W09IXVtDSDJdW0NAQEhdKFtDSDNdKVtOSF1DKD1PKVtOSF1bQ0gyXWMxW2NIXVtjSF1uYyhbY0hdMSlOMltDSDJdW0NIMl1PW0NIMl1bQ0gyXTI=

> <s_epik_cmdline>
J2VwaWtfcHl0aG9uJywgJy1waCcsICc3LjAnLCAnLXRuJywgJzgnLCAnLW1hJywgJzIwMCcsICctbWV0YWxfYmluZGluZycsICctaW1hZScsICc8aW5maWxlLm1hZT4nLCAnLW9tYWUnLCAnPG91dGZpbGUubWFlPic=

> <r_lp_tautomer_probability>
0.999994

> <r_epik_Ionization_Penalty>
2.3082

> <r_epik_Ionization_Penalty_Charging>
2.30816

> <r_epik_Ionization_Penalty_Neutral>
3.71771e-05

> <r_epik_State_Penalty>
2.45942

> <r_epik_Charging_Adjusted_Penalty>
4.76758

> <i_epik_Tot_Q>
1

> <i_epik_Tot_abs_Q>
1

> <r_epik_Metal_State_Penalty>
2.47143

> <b_epik_Metal_Only>
0

> <s_lp_Force_Field>
OPLS_2005

> <r_lp_Energy>
18.1512

> <b_lp_Chiralities_Consistent>
1

> <s_lp_Variant>
AV-unprocessed.smi:2055-4

> <Gold.Version>
5.8.1

> <Gold.Id.Protein>
6NUR|6NUR_protein|mol2

> <Gold.PLP.Fitness>
58.8579

> <Gold.PLP.PLP>
-44.7641

> <Gold.PLP.part.hbond>
-6.4789

> <Gold.PLP.part.metal>
0.0000

> <Gold.PLP.part.buried>
-1.6964

> <Gold.PLP.part.nonpolar>
-36.6469

> <Gold.PLP.part.repulsive>
0.3692

> <Gold.PLP.ligand.clash>
0.0000

> <Gold.PLP.ligand.torsion>
0.8587

> <Gold.PLP.Chemscore.Hbond>
5.1094

> <Gold.PLP.Chemscore.CHOScore>
0.0000

> <Gold.PLP.Chemscore.Metal>
0.0000

> <Gold.Chemscore.Hbonds>
donor molecule, donor type, donor heavy atom, donor atom, acceptor molecule, acceptor atom, score
      L1  H     4    28       P1  7948  1.00
      L1  H     5    29       P1  7948  0.90
      L1  H     8    30       P1  7948  0.31
      L1  H    13    44       P1  8028  1.49
      P1  H 10752 10764       L1     7  1.00

> <Gold.PLP.Chemscore.Internal.Correction>
0.4832

> <Gold.Rescore>
     Score         DG    S(hbond)    S(metal)    S(lipo)     H(rot)  DE(clash)    DE(int)     intcor
     17.19     -19.58       3.00        0.00      95.26       2.76       0.54       1.86       ----

> <Gold.Chemscore.Fitness>
17.1876

> <Gold.Chemscore.DG>
-19.5841

> <Gold.Chemscore.ZeroCoef>
-5.4800

> <Gold.Chemscore.Hbond>
3.0040

> <Gold.Chemscore.Metal>
0.0000

> <Gold.Chemscore.Lipo>
95.2620

> <Gold.Chemscore.Internal_Hbond>
0.0000

> <Gold.Chemscore.DEClash>
0.5389

> <Gold.Chemscore.DEInternal>
1.8577

> <Gold.Chemscore.Rot>
2.7636

> <Gold.Chemscore.Internal.Correction>
   9.000000E+99

> <Gold.Chemscore.Hbonds>
donor molecule, donor type, donor heavy atom, donor atom, acceptor molecule, acceptor atom, score
      L1  H     4    28       P1  7948  0.80
      L1  H     5    29       P1  7948  0.18
      L1  H     8    30       P1  7948  0.05
      L1  H    13    44       P1  8028  0.71
      P1  H 10752 10764       L1     7  0.55

> <Gold.Chemscore.Hbond.Weighted>
-10.0334

> <Gold.Chemscore.Metal.Weighted>
-0.0000

> <Gold.Chemscore.Lipo.Weighted>
-11.1457

> <Gold.Chemscore.Internal_Hbond.Weighted>
0.0000

> <Gold.Chemscore.DEClash.Weighted>
0.5389

> <Gold.Chemscore.DEInternal.Weighted>
1.8577

> <Gold.Chemscore.Rot.Weighted>
7.0749

> <Gold.Chemscore.Internal.Correction.Weighted>
   9.000000E+99

> <Gold.Protein.RotatedTorsions>
[ 6907 6896 6895 6894 ] final  101.41 input  -60.11 | X-H torsion
[ 7974 7965 7964 7962 ] final  -42.47 input  175.53 | X-H torsion
[ 8008 7997 7996 7995 ] final  132.77 input   59.86 | X-H torsion
[ 10167 10162 10161 10158 ] final   79.03 input  -65.29 | X-H torsion
[ 10718 10713 10712 10709 ] final -134.81 input   66.30 | X-H torsion
[ 10763 10752 10751 10750 ] final  -28.66 input  -60.55 | X-H torsion
[ 11005 11000 10999 10996 ] final  126.04 input  -57.11 | X-H torsion

> <Gold.Protein.ActiveResidues>
 VAL166  LYS551  ARG553  GLY616  TRP617  ASP618  TYR619  PRO620  LYS621  CYS622 
 ASP623  PHE694  ASN695  SER759  ASP760  ASP761  ALA762  ILE779  LEU786  VAL792 
 PHE793  MET794  SER795  GLU796  ALA797  LYS798  CYS799  TRP800  GLU811  SER814 

> <Gold.Protein.RotatedAtoms>
  152.5350  134.0131  159.7947 H   0  0  0  0  0  0  0  0  0  0  0  0  # atno 6907 bound_to 6896
  151.0330  133.5766  159.2666 H   0  0  0  0  0  0  0  0  0  0  0  0  # atno 6908 bound_to 6896
  151.2764  135.0707  159.9206 H   0  0  0  0  0  0  0  0  0  0  0  0  # atno 6909 bound_to 6896
  146.0113  140.6961  142.9223 H   0  0  0  0  0  0  0  0  0  0  0  0  # atno 7974 bound_to 7965
  156.2986  140.2538  156.3144 H   0  0  0  0  0  0  0  0  0  0  0  0  # atno 8008 bound_to 7997
  154.9295  140.0398  157.2059 H   0  0  0  0  0  0  0  0  0  0  0  0  # atno 8009 bound_to 7997
  154.8232  140.2863  155.5777 H   0  0  0  0  0  0  0  0  0  0  0  0  # atno 8010 bound_to 7997
  139.9646  144.5937  150.8041 H   0  0  0  0  0  0  0  0  0  0  0  0  # atno 10167 bound_to 10162
  156.2595  130.7201  151.1130 H   0  0  0  0  0  0  0  0  0  0  0  0  # atno 10718 bound_to 10713
  153.7520  135.6925  153.4943 H   0  0  0  0  0  0  0  0  0  0  0  0  # atno 10763 bound_to 10752
  153.1997  135.4441  155.0249 H   0  0  0  0  0  0  0  0  0  0  0  0  # atno 10764 bound_to 10752
  154.8184  135.3410  154.7040 H   0  0  0  0  0  0  0  0  0  0  0  0  # atno 10765 bound_to 10752
  139.9436  134.9632  156.8648 H   0  0  0  0  0  0  0  0  0  0  0  0  # atno 11005 bound_to 11000
  144.6954  140.3403  143.7200 LP  0  0  0  0  0  0  0  0  0  0  0  0  # atno 17320 bound_to 7965
  145.7337  139.1744  143.2415 LP  0  0  0  0  0  0  0  0  0  0  0  0  # atno 17321 bound_to 7965
  140.7542  143.3023  151.3050 LP  0  0  0  0  0  0  0  0  0  0  0  0  # atno 17342 bound_to 10162
  139.6528  144.0332  152.2638 LP  0  0  0  0  0  0  0  0  0  0  0  0  # atno 17343 bound_to 10162
  157.7245  131.0659  150.5993 LP  0  0  0  0  0  0  0  0  0  0  0  0  # atno 17370 bound_to 10713
  156.6079  130.4372  149.5871 LP  0  0  0  0  0  0  0  0  0  0  0  0  # atno 17371 bound_to 10713
  140.5889  134.0280  155.7492 LP  0  0  0  0  0  0  0  0  0  0  0  0  # atno 17394 bound_to 11000
  141.1079  133.9663  157.2963 LP  0  0  0  0  0  0  0  0  0  0  0  0  # atno 17395 bound_to 11000

$$$$
