AV-unprocessed.smi:1837|AV-procd|sdf|7481|dock9
  -GOLD-   22720 9183D 1   1.00000     0.00000
 Structure written by MMmdl.
 45 48  0  0  0  0  0  0  0  0  3 V2000
  148.2855  141.5507  158.3533 O   0  0  0  0  0  0  0  0  0  0  0  0
  148.7641  141.8175  157.2503 C   0  0  0  0  0  0  0  0  0  0  0  0
  148.0824  141.3274  155.9649 C   0  0  0  0  0  0  0  0  0  0  0  0
  148.6592  140.0776  155.4415 N   0  0  0  0  0  0  0  0  0  0  0  0
  150.0610  140.0248  155.3083 C   0  0  0  0  0  0  0  0  0  0  0  0
  150.6945  138.9338  154.8349 C   0  0  0  0  0  0  0  0  0  0  0  0
  152.1341  138.8990  154.6987 N   0  3  0  0  0  0  0  0  0  0  0  0
  152.7567  139.9543  154.7602 O   0  0  0  0  0  0  0  0  0  0  0  0
  152.6901  137.8186  154.5249 O   0  5  0  0  0  0  0  0  0  0  0  0
  149.8825  137.7923  154.4604 C   0  0  0  0  0  0  0  0  0  0  0  0
  148.5410  137.8381  154.5809 C   0  0  0  0  0  0  0  0  0  0  0  0
  147.8535  139.0284  155.0918 C   0  0  0  0  0  0  0  0  0  0  0  0
  146.6280  139.0786  155.1988 O   0  0  0  0  0  0  0  0  0  0  0  0
  149.8764  142.5515  157.0744 N   0  0  0  0  0  0  0  0  0  0  0  0
  150.7403  143.1539  158.0951 C   0  0  0  0  0  0  0  0  0  0  0  0
  149.9233  144.0100  159.1013 C   0  0  0  0  0  0  0  0  0  0  0  0
  150.8763  144.6771  160.1170 C   0  0  1  0  0  0  0  0  0  0  0  0
  151.6596  143.5896  160.8843 C   0  0  0  0  0  0  0  0  0  0  0  0
  152.4906  142.7542  159.8860 C   0  0  2  0  0  0  0  0  0  0  0  0
  153.4808  143.6738  159.1414 C   0  0  0  0  0  0  0  0  0  0  0  0
  152.6910  144.7564  158.3771 C   0  0  2  0  0  0  0  0  0  0  0  0
  151.8656  145.5977  159.3727 C   0  0  0  0  0  0  0  0  0  0  0  0
  151.7432  144.0817  157.3630 C   0  0  0  0  0  0  0  0  0  0  0  0
  151.5468  142.0752  158.8696 C   0  0  0  0  0  0  0  0  0  0  0  0
  147.0187  141.2021  156.1717 H   0  0  0  0  0  0  0  0  0  0  0  0
  148.1336  142.1101  155.2053 H   0  0  0  0  0  0  0  0  0  0  0  0
  150.5739  140.9279  155.6063 H   0  0  0  0  0  0  0  0  0  0  0  0
  150.3439  136.8932  154.0789 H   0  0  0  0  0  0  0  0  0  0  0  0
  147.9557  136.9765  154.2944 H   0  0  0  0  0  0  0  0  0  0  0  0
  150.1645  142.7073  156.1192 H   0  0  0  0  0  0  0  0  0  0  0  0
  149.3487  144.7718  158.5727 H   0  0  0  0  0  0  0  0  0  0  0  0
  149.1981  143.3994  159.6395 H   0  0  0  0  0  0  0  0  0  0  0  0
  150.2936  145.2690  160.8236 H   0  0  0  0  0  0  0  0  0  0  0  0
  152.3128  144.0491  161.6273 H   0  0  0  0  0  0  0  0  0  0  0  0
  150.9720  142.9465  161.4347 H   0  0  0  0  0  0  0  0  0  0  0  0
  153.0467  141.9895  160.4291 H   0  0  0  0  0  0  0  0  0  0  0  0
  154.1718  144.1368  159.8471 H   0  0  0  0  0  0  0  0  0  0  0  0
  154.0909  143.0916  158.4497 H   0  0  0  0  0  0  0  0  0  0  0  0
  153.3878  145.4054  157.8458 H   0  0  0  0  0  0  0  0  0  0  0  0
  151.3258  146.3858  158.8463 H   0  0  0  0  0  0  0  0  0  0  0  0
  152.5254  146.0969  160.0834 H   0  0  0  0  0  0  0  0  0  0  0  0
  152.3262  143.5125  156.6371 H   0  0  0  0  0  0  0  0  0  0  0  0
  151.2091  144.8443  156.7940 H   0  0  0  0  0  0  0  0  0  0  0  0
  150.8826  141.3931  159.4003 H   0  0  0  0  0  0  0  0  0  0  0  0
  152.1244  141.4622  158.1763 H   0  0  0  0  0  0  0  0  0  0  0  0
  1  2  2  0  0  0  0
  2  3  1  0  0  0  0
  2 14  1  0  0  0  0
  3  4  1  0  0  0  0
  3 25  1  0  0  0  0
  3 26  1  0  0  0  0
  4 12  1  0  0  0  0
  4  5  1  0  0  0  0
  5  6  2  0  0  0  0
  5 27  1  0  0  0  0
  6  7  1  0  0  0  0
  6 10  1  0  0  0  0
  7  8  2  0  0  0  0
  7  9  1  0  0  0  0
 10 11  2  0  0  0  0
 10 28  1  0  0  0  0
 11 12  1  0  0  0  0
 11 29  1  0  0  0  0
 12 13  2  0  0  0  0
 14 15  1  0  0  0  0
 14 30  1  0  0  0  0
 15 23  1  0  0  0  0
 15 24  1  0  0  0  0
 15 16  1  0  0  0  0
 16 17  1  0  0  0  0
 16 31  1  0  0  0  0
 16 32  1  0  0  0  0
 17 22  1  0  0  0  0
 17 18  1  0  0  0  0
 17 33  1  0  0  0  0
 18 19  1  0  0  0  0
 18 34  1  0  0  0  0
 18 35  1  0  0  0  0
 19 20  1  0  0  0  0
 19 24  1  0  0  0  0
 19 36  1  0  0  0  0
 20 21  1  0  0  0  0
 20 37  1  0  0  0  0
 20 38  1  0  0  0  0
 21 22  1  0  0  0  0
 21 23  1  0  0  0  0
 21 39  1  0  0  0  0
 22 40  1  0  0  0  0
 22 41  1  0  0  0  0
 23 42  1  0  0  0  0
 23 43  1  0  0  0  0
 24 44  1  0  0  0  0
 24 45  1  0  0  0  0
M  CHG  1   7   1
M  CHG  1   9  -1
M  END
> <s_m_source_file>
AV-unprocessed.smi

> <i_m_source_file_index>
1837

> <i_lp_mmshare_version>
43012

> <i_f3d_flags>
0

> <s_epik_input>
Tz1jMVtjSF1bY0hdYyhbTitdKD1PKVtPLV0pW2NIXW4xW0NIMl1DKD1PKVtOSF1DMjNbQ0gyXVtDQEhdNFtDSDJdW0NAQEhdKFtDSDJdMylbQ0gyXVtDQEhdKFtDSDJdNClbQ0gyXTI=

> <s_epik_cmdline>
J2VwaWtfcHl0aG9uJywgJy1waCcsICc3LjAnLCAnLXRuJywgJzgnLCAnLW1hJywgJzIwMCcsICctbWV0YWxfYmluZGluZycsICctaW1hZScsICc8aW5maWxlLm1hZT4nLCAnLW9tYWUnLCAnPG91dGZpbGUubWFlPic=

> <r_lp_tautomer_probability>
1

> <r_epik_Ionization_Penalty>
2.34466e-08

> <r_epik_Ionization_Penalty_Charging>
8.88262e-11

> <r_epik_Ionization_Penalty_Neutral>
2.33578e-08

> <r_epik_State_Penalty>
-0

> <r_epik_Charging_Adjusted_Penalty>
8.88262e-11

> <i_epik_Tot_Q>
0

> <i_epik_Tot_abs_Q>
2

> <r_epik_Metal_State_Penalty>
-0

> <b_epik_Metal_Only>
0

> <s_lp_Force_Field>
OPLS_2005

> <r_lp_Energy>
41.9783

> <b_lp_Chiralities_Consistent>
1

> <s_lp_Variant>
AV-unprocessed.smi:1837-1

> <Gold.Version>
5.8.1

> <Gold.Id.Protein>
6NUR|6NUR_protein|mol2

> <Gold.PLP.Fitness>
51.3579

> <Gold.PLP.PLP>
-46.7464

> <Gold.PLP.part.hbond>
-4.5474

> <Gold.PLP.part.metal>
0.0000

> <Gold.PLP.part.buried>
-5.6150

> <Gold.PLP.part.nonpolar>
-37.6389

> <Gold.PLP.part.repulsive>
0.2124

> <Gold.PLP.ligand.clash>
0.0000

> <Gold.PLP.ligand.torsion>
0.6626

> <Gold.PLP.Chemscore.Hbond>
1.9731

> <Gold.PLP.Chemscore.CHOScore>
0.0000

> <Gold.PLP.Chemscore.Metal>
0.0000

> <Gold.Chemscore.Hbonds>
donor molecule, donor type, donor heavy atom, donor atom, acceptor molecule, acceptor atom, score
      P1  H  7989  7998       L1     8  0.33
      P1  H  7997  8010       L1     8  0.91
      P1  H 10752 10765       L1     9  0.32

> <Gold.PLP.Chemscore.Internal.Correction>
0.0174

> <Gold.Rescore>
     Score         DG    S(hbond)    S(metal)    S(lipo)     H(rot)  DE(clash)    DE(int)     intcor
     19.63     -23.22       1.58        0.00     140.14       1.53       1.05       2.54       ----

> <Gold.Chemscore.Fitness>
19.6332

> <Gold.Chemscore.DG>
-23.2168

> <Gold.Chemscore.ZeroCoef>
-5.4800

> <Gold.Chemscore.Hbond>
1.5765

> <Gold.Chemscore.Metal>
0.0000

> <Gold.Chemscore.Lipo>
140.1388

> <Gold.Chemscore.Internal_Hbond>
0.0000

> <Gold.Chemscore.DEClash>
1.0464

> <Gold.Chemscore.DEInternal>
2.5372

> <Gold.Chemscore.Rot>
1.5332

> <Gold.Chemscore.Internal.Correction>
   9.000000E+99

> <Gold.Chemscore.Hbonds>
donor molecule, donor type, donor heavy atom, donor atom, acceptor molecule, acceptor atom, score
      P1  H  7989  7998       L1     8  0.05
      P1  H  7997  8010       L1     8  0.86
      P1  H 10752 10765       L1     9  0.32

> <Gold.Chemscore.Hbond.Weighted>
-5.2654

> <Gold.Chemscore.Metal.Weighted>
-0.0000

> <Gold.Chemscore.Lipo.Weighted>
-16.3962

> <Gold.Chemscore.Internal_Hbond.Weighted>
0.0000

> <Gold.Chemscore.DEClash.Weighted>
1.0464

> <Gold.Chemscore.DEInternal.Weighted>
2.5372

> <Gold.Chemscore.Rot.Weighted>
3.9249

> <Gold.Chemscore.Internal.Correction.Weighted>
   9.000000E+99

> <Gold.Protein.RotatedTorsions>
[ 6907 6896 6895 6894 ] final -132.88 input  -60.11 | X-H torsion
[ 7974 7965 7964 7962 ] final  -94.18 input  175.53 | X-H torsion
[ 8008 7997 7996 7995 ] final   97.22 input   59.86 | X-H torsion
[ 10167 10162 10161 10158 ] final -168.22 input  -65.29 | X-H torsion
[ 10718 10713 10712 10709 ] final  111.72 input   66.30 | X-H torsion
[ 10763 10752 10751 10750 ] final  164.00 input  -60.55 | X-H torsion
[ 11005 11000 10999 10996 ] final  105.48 input  -57.11 | X-H torsion

> <Gold.Protein.ActiveResidues>
 VAL166  LYS551  ARG553  GLY616  TRP617  ASP618  TYR619  PRO620  LYS621  CYS622 
 ASP623  PHE694  ASN695  SER759  ASP760  ASP761  ALA762  ILE779  LEU786  VAL792 
 PHE793  MET794  SER795  GLU796  ALA797  LYS798  CYS799  TRP800  GLU811  SER814 

> <Gold.Protein.RotatedAtoms>
  150.9676  133.6378  159.2743 H   0  0  0  0  0  0  0  0  0  0  0  0  # atno 6907 bound_to 6896
  151.3679  135.0915  159.9465 H   0  0  0  0  0  0  0  0  0  0  0  0  # atno 6908 bound_to 6896
  152.5171  133.9236  159.7601 H   0  0  0  0  0  0  0  0  0  0  0  0  # atno 6909 bound_to 6896
  145.3766  140.9512  143.2417 H   0  0  0  0  0  0  0  0  0  0  0  0  # atno 7974 bound_to 7965
  156.0879  140.3261  155.7777 H   0  0  0  0  0  0  0  0  0  0  0  0  # atno 8008 bound_to 7997
  155.5046  140.0572  157.2951 H   0  0  0  0  0  0  0  0  0  0  0  0  # atno 8009 bound_to 7997
  154.4620  140.1971  156.0236 H   0  0  0  0  0  0  0  0  0  0  0  0  # atno 8010 bound_to 7997
  139.5999  144.1032  152.1731 H   0  0  0  0  0  0  0  0  0  0  0  0  # atno 10167 bound_to 10162
  157.6430  131.0955  150.6791 H   0  0  0  0  0  0  0  0  0  0  0  0  # atno 10718 bound_to 10713
  154.3023  135.2759  155.2605 H   0  0  0  0  0  0  0  0  0  0  0  0  # atno 10763 bound_to 10752
  154.5037  135.5801  153.6554 H   0  0  0  0  0  0  0  0  0  0  0  0  # atno 10764 bound_to 10752
  152.9899  135.6164  154.3194 H   0  0  0  0  0  0  0  0  0  0  0  0  # atno 10765 bound_to 10752
  139.8802  134.9337  156.5520 H   0  0  0  0  0  0  0  0  0  0  0  0  # atno 11005 bound_to 11000
  144.8537  139.5282  143.6844 LP  0  0  0  0  0  0  0  0  0  0  0  0  # atno 17320 bound_to 7965
  146.2861  139.7008  142.9194 LP  0  0  0  0  0  0  0  0  0  0  0  0  # atno 17321 bound_to 7965
  140.0626  144.5844  150.7251 LP  0  0  0  0  0  0  0  0  0  0  0  0  # atno 17342 bound_to 10162
  140.7241  143.2618  151.4178 LP  0  0  0  0  0  0  0  0  0  0  0  0  # atno 17343 bound_to 10162
  156.7112  130.4652  149.5547 LP  0  0  0  0  0  0  0  0  0  0  0  0  # atno 17370 bound_to 10713
  156.1729  130.6448  151.0859 LP  0  0  0  0  0  0  0  0  0  0  0  0  # atno 17371 bound_to 10713
  140.8233  133.8336  155.8916 LP  0  0  0  0  0  0  0  0  0  0  0  0  # atno 17394 bound_to 11000
  140.9398  134.1915  157.4806 LP  0  0  0  0  0  0  0  0  0  0  0  0  # atno 17395 bound_to 11000

$$$$
