AV-unprocessed.smi:1216|AV-procd|sdf|5098|dock7
  -GOLD-   22720 4153D 1   1.00000     0.00000
 Structure written by MMmdl.
 43 44  0  0  0  0  0  0  0  0  2 V2000
  151.8130  140.6139  158.4375 C   0  0  0  0  0  0  0  0  0  0  0  0
  152.4193  141.3107  159.6627 C   0  0  2  0  0  0  0  0  0  0  0  0
  153.1023  142.6392  159.2719 C   0  0  0  0  0  0  0  0  0  0  0  0
  152.1639  143.7651  159.2026 N   0  0  0  0  0  0  0  0  0  0  0  0
  152.0880  144.8378  160.0533 C   0  0  0  0  0  0  0  0  0  0  0  0
  151.0799  145.6394  159.5829 C   0  0  0  0  0  0  0  0  0  0  0  0
  150.5793  145.0196  158.4696 N   0  3  0  0  0  0  0  0  0  0  0  0
  151.2352  143.8769  158.2439 C   0  0  0  0  0  0  0  0  0  0  0  0
  153.3719  140.4040  160.3023 N   0  0  0  0  0  0  0  0  0  0  0  0
  154.0538  140.6549  161.4311 C   0  0  0  0  0  0  0  0  0  0  0  0
  153.9178  141.6880  162.0880 O   0  0  0  0  0  0  0  0  0  0  0  0
  155.0443  139.5709  161.8749 C   0  0  0  0  0  0  0  0  0  0  0  0
  154.3878  138.4390  162.5470 N   0  0  0  0  0  0  0  0  0  0  0  0
  153.4592  137.6356  161.7359 C   0  0  0  0  0  0  0  0  0  0  0  0
  153.9744  136.2111  161.4268 C   0  0  0  0  0  0  0  0  0  0  0  0
  154.8903  135.5733  162.4901 C   0  0  0  0  0  0  0  0  0  0  0  0
  154.3303  135.5876  163.9278 C   0  0  0  0  0  0  0  0  0  0  0  0
  153.8939  136.9630  164.4868 C   0  0  0  0  0  0  0  0  0  0  0  0
  154.6161  138.1651  163.8566 C   0  0  0  0  0  0  0  0  0  0  0  0
  155.3701  138.8378  164.5610 O   0  0  0  0  0  0  0  0  0  0  0  0
  151.0776  141.2522  157.9468 H   0  0  0  0  0  0  0  0  0  0  0  0
  151.3070  139.6904  158.7215 H   0  0  0  0  0  0  0  0  0  0  0  0
  152.5784  140.3625  157.7024 H   0  0  0  0  0  0  0  0  0  0  0  0
  151.5977  141.5277  160.3479 H   0  0  0  0  0  0  0  0  0  0  0  0
  153.8969  142.8899  159.9766 H   0  0  0  0  0  0  0  0  0  0  0  0
  153.5684  142.5501  158.2897 H   0  0  0  0  0  0  0  0  0  0  0  0
  152.7464  144.9530  160.9019 H   0  0  0  0  0  0  0  0  0  0  0  0
  150.6931  146.5803  159.9464 H   0  0  0  0  0  0  0  0  0  0  0  0
  151.0600  143.1908  157.4345 H   0  0  0  0  0  0  0  0  0  0  0  0
  153.5409  139.5233  159.8377 H   0  0  0  0  0  0  0  0  0  0  0  0
  155.5964  139.2288  160.9989 H   0  0  0  0  0  0  0  0  0  0  0  0
  155.7949  140.0074  162.5367 H   0  0  0  0  0  0  0  0  0  0  0  0
  152.4965  137.5786  162.2438 H   0  0  0  0  0  0  0  0  0  0  0  0
  153.2281  138.1417  160.7979 H   0  0  0  0  0  0  0  0  0  0  0  0
  153.1192  135.5600  161.2429 H   0  0  0  0  0  0  0  0  0  0  0  0
  154.5280  136.2395  160.4876 H   0  0  0  0  0  0  0  0  0  0  0  0
  155.0957  134.5416  162.2026 H   0  0  0  0  0  0  0  0  0  0  0  0
  155.8623  136.0682  162.4740 H   0  0  0  0  0  0  0  0  0  0  0  0
  153.4803  134.9067  163.9820 H   0  0  0  0  0  0  0  0  0  0  0  0
  155.0856  135.1639  164.5908 H   0  0  0  0  0  0  0  0  0  0  0  0
  152.8187  137.0932  164.3645 H   0  0  0  0  0  0  0  0  0  0  0  0
  154.0527  136.9762  165.5657 H   0  0  0  0  0  0  0  0  0  0  0  0
  149.8253  145.3741  157.8947 H   0  0  0  0  0  0  0  0  0  0  0  0
  1  2  1  0  0  0  0
  1 21  1  0  0  0  0
  1 22  1  0  0  0  0
  1 23  1  0  0  0  0
  2  3  1  0  0  0  0
  2  9  1  0  0  0  0
  2 24  1  0  0  0  0
  3  4  1  0  0  0  0
  3 25  1  0  0  0  0
  3 26  1  0  0  0  0
  4  8  1  0  0  0  0
  4  5  1  0  0  0  0
  5  6  2  0  0  0  0
  5 27  1  0  0  0  0
  6  7  1  0  0  0  0
  6 28  1  0  0  0  0
  7  8  2  0  0  0  0
  7 43  1  0  0  0  0
  8 29  1  0  0  0  0
  9 10  1  0  0  0  0
  9 30  1  0  0  0  0
 10 11  2  0  0  0  0
 10 12  1  0  0  0  0
 12 13  1  0  0  0  0
 12 31  1  0  0  0  0
 12 32  1  0  0  0  0
 13 19  1  0  0  0  0
 13 14  1  0  0  0  0
 14 15  1  0  0  0  0
 14 33  1  0  0  0  0
 14 34  1  0  0  0  0
 15 16  1  0  0  0  0
 15 35  1  0  0  0  0
 15 36  1  0  0  0  0
 16 17  1  0  0  0  0
 16 37  1  0  0  0  0
 16 38  1  0  0  0  0
 17 18  1  0  0  0  0
 17 39  1  0  0  0  0
 17 40  1  0  0  0  0
 18 19  1  0  0  0  0
 18 41  1  0  0  0  0
 18 42  1  0  0  0  0
 19 20  2  0  0  0  0
M  CHG  1   7   1
M  END
> <s_m_source_file>
AV-unprocessed.smi

> <i_m_source_file_index>
1216

> <i_lp_mmshare_version>
43012

> <i_f3d_flags>
0

> <s_epik_input>
W2NIXTFuW2NIXVtjSF1uMVtDSDJdW0NAQEhdKFtDSDNdKVtOSF1DKD1PKVtDSDJdTjJbQ0gyXVtDSDJdW0NIMl1bQ0gyXVtDSDJdQzI9Tw==

> <s_epik_cmdline>
J2VwaWtfcHl0aG9uJywgJy1waCcsICc3LjAnLCAnLXRuJywgJzgnLCAnLW1hJywgJzIwMCcsICctbWV0YWxfYmluZGluZycsICctaW1hZScsICc8aW5maWxlLm1hZT4nLCAnLW9tYWUnLCAnPG91dGZpbGUubWFlPic=

> <r_lp_tautomer_probability>
1

> <r_epik_Ionization_Penalty>
0.254232

> <r_epik_Ionization_Penalty_Charging>
0

> <r_epik_Ionization_Penalty_Neutral>
0.254232

> <r_epik_State_Penalty>
0.245698

> <r_epik_Charging_Adjusted_Penalty>
0.245698

> <i_epik_Tot_Q>
1

> <i_epik_Tot_abs_Q>
1

> <r_epik_Metal_State_Penalty>
0.535799

> <b_epik_Metal_Only>
0

> <s_lp_Force_Field>
OPLS_2005

> <r_lp_Energy>
19.3608

> <b_lp_Chiralities_Consistent>
1

> <s_lp_Variant>
AV-unprocessed.smi:1216-1

> <Gold.Version>
5.8.1

> <Gold.Id.Protein>
6NUR|6NUR_protein|mol2

> <Gold.PLP.Fitness>
48.6032

> <Gold.PLP.PLP>
-43.8826

> <Gold.PLP.part.hbond>
-1.8339

> <Gold.PLP.part.metal>
0.0000

> <Gold.PLP.part.buried>
-4.7884

> <Gold.PLP.part.nonpolar>
-37.2377

> <Gold.PLP.part.repulsive>
0.2823

> <Gold.PLP.ligand.clash>
0.0000

> <Gold.PLP.ligand.torsion>
0.6631

> <Gold.PLP.Chemscore.Hbond>
2.0000

> <Gold.PLP.Chemscore.CHOScore>
0.0000

> <Gold.PLP.Chemscore.Metal>
0.0000

> <Gold.Chemscore.Hbonds>
donor molecule, donor type, donor heavy atom, donor atom, acceptor molecule, acceptor atom, score
      L1  H     7    43       P1  8029  1.29

> <Gold.PLP.Chemscore.Internal.Correction>
0.0468

> <Gold.Rescore>
     Score         DG    S(hbond)    S(metal)    S(lipo)     H(rot)  DE(clash)    DE(int)     intcor
     11.80     -12.82       0.94        0.00      84.28       2.22       0.37       0.65       ----

> <Gold.Chemscore.Fitness>
11.7979

> <Gold.Chemscore.DG>
-12.8183

> <Gold.Chemscore.ZeroCoef>
-5.4800

> <Gold.Chemscore.Hbond>
0.9435

> <Gold.Chemscore.Metal>
0.0000

> <Gold.Chemscore.Lipo>
84.2756

> <Gold.Chemscore.Internal_Hbond>
0.0000

> <Gold.Chemscore.DEClash>
0.3703

> <Gold.Chemscore.DEInternal>
0.6500

> <Gold.Chemscore.Rot>
2.2161

> <Gold.Chemscore.Internal.Correction>
   9.000000E+99

> <Gold.Chemscore.Hbonds>
donor molecule, donor type, donor heavy atom, donor atom, acceptor molecule, acceptor atom, score
      L1  H     7    43       P1  8029  0.08

> <Gold.Chemscore.Hbond.Weighted>
-3.1513

> <Gold.Chemscore.Metal.Weighted>
-0.0000

> <Gold.Chemscore.Lipo.Weighted>
-9.8602

> <Gold.Chemscore.Internal_Hbond.Weighted>
0.0000

> <Gold.Chemscore.DEClash.Weighted>
0.3703

> <Gold.Chemscore.DEInternal.Weighted>
0.6500

> <Gold.Chemscore.Rot.Weighted>
5.6733

> <Gold.Chemscore.Internal.Correction.Weighted>
   9.000000E+99

> <Gold.Protein.RotatedTorsions>
[ 6907 6896 6895 6894 ] final   61.64 input  -60.11 | X-H torsion
[ 7974 7965 7964 7962 ] final   77.77 input  175.53 | X-H torsion
[ 8008 7997 7996 7995 ] final  125.03 input   59.86 | X-H torsion
[ 10167 10162 10161 10158 ] final   27.22 input  -65.29 | X-H torsion
[ 10718 10713 10712 10709 ] final   10.58 input   66.30 | X-H torsion
[ 10763 10752 10751 10750 ] final  -28.91 input  -60.55 | X-H torsion
[ 11005 11000 10999 10996 ] final   26.36 input  -57.11 | X-H torsion

> <Gold.Protein.ActiveResidues>
 VAL166  LYS551  ARG553  GLY616  TRP617  ASP618  TYR619  PRO620  LYS621  CYS622 
 ASP623  PHE694  ASN695  SER759  ASP760  ASP761  ALA762  ILE779  LEU786  VAL792 
 PHE793  MET794  SER795  GLU796  ALA797  LYS798  CYS799  TRP800  GLU811  SER814 

> <Gold.Protein.RotatedAtoms>
  152.4106  134.6131  160.0030 H   0  0  0  0  0  0  0  0  0  0  0  0  # atno 6907 bound_to 6896
  151.6310  133.3326  159.3117 H   0  0  0  0  0  0  0  0  0  0  0  0  # atno 6908 bound_to 6896
  150.7997  134.7122  159.6655 H   0  0  0  0  0  0  0  0  0  0  0  0  # atno 6909 bound_to 6896
  145.6857  139.2537  143.1788 H   0  0  0  0  0  0  0  0  0  0  0  0  # atno 7974 bound_to 7965
  156.2821  140.2726  156.1884 H   0  0  0  0  0  0  0  0  0  0  0  0  # atno 8008 bound_to 7997
  155.0483  140.0386  157.2552 H   0  0  0  0  0  0  0  0  0  0  0  0  # atno 8009 bound_to 7997
  154.7216  140.2689  155.6542 H   0  0  0  0  0  0  0  0  0  0  0  0  # atno 8010 bound_to 7997
  140.4957  144.0396  150.6313 H   0  0  0  0  0  0  0  0  0  0  0  0  # atno 10167 bound_to 10162
  156.9831  130.6013  149.5678 H   0  0  0  0  0  0  0  0  0  0  0  0  # atno 10718 bound_to 10713
  153.7560  135.6922  153.4935 H   0  0  0  0  0  0  0  0  0  0  0  0  # atno 10763 bound_to 10752
  153.1971  135.4450  155.0219 H   0  0  0  0  0  0  0  0  0  0  0  0  # atno 10764 bound_to 10752
  154.8170  135.3403  154.7078 H   0  0  0  0  0  0  0  0  0  0  0  0  # atno 10765 bound_to 10752
  140.3379  134.2366  155.7693 H   0  0  0  0  0  0  0  0  0  0  0  0  # atno 11005 bound_to 11000
  146.0925  140.7639  142.9588 LP  0  0  0  0  0  0  0  0  0  0  0  0  # atno 17320 bound_to 7965
  144.7012  140.3660  143.7154 LP  0  0  0  0  0  0  0  0  0  0  0  0  # atno 17321 bound_to 7965
  140.3678  143.2872  152.0312 LP  0  0  0  0  0  0  0  0  0  0  0  0  # atno 17342 bound_to 10162
  139.4861  144.6254  151.7175 LP  0  0  0  0  0  0  0  0  0  0  0  0  # atno 17343 bound_to 10162
  156.0237  130.5331  150.8346 LP  0  0  0  0  0  0  0  0  0  0  0  0  # atno 17370 bound_to 10713
  157.5512  131.0944  150.9692 LP  0  0  0  0  0  0  0  0  0  0  0  0  # atno 17371 bound_to 10713
  141.2046  133.7881  157.0276 LP  0  0  0  0  0  0  0  0  0  0  0  0  # atno 17394 bound_to 11000
  140.0806  134.9650  157.1618 LP  0  0  0  0  0  0  0  0  0  0  0  0  # atno 17395 bound_to 11000

$$$$
