AV-unprocessed.smi:37|AV-procd|sdf|331|dock3
  -GOLD-   2262016163D 1   1.00000     0.00000
 Structure written by MMmdl.
 43 44  0  0  0  0  0  0  0  0  2 V2000
  144.0714  136.0095  162.4877 C   0  0  0  0  0  0  0  0  0  0  0  0
  144.1417  137.1577  161.4723 C   0  0  0  0  0  0  0  0  0  0  0  0
  144.3183  136.6512  160.0427 C   0  0  0  0  0  0  0  0  0  0  0  0
  143.4841  135.9143  159.5159 O   0  0  0  0  0  0  0  0  0  0  0  0
  145.4467  137.1001  159.4700 O   0  0  0  0  0  0  0  0  0  0  0  0
  145.7388  136.7473  158.1281 C   0  0  0  0  0  0  0  0  0  0  0  0
  147.2201  137.0395  157.8340 C   0  0  2  0  0  0  0  0  0  0  0  0
  147.4024  136.9343  156.4171 O   0  0  0  0  0  0  0  0  0  0  0  0
  148.4441  136.0574  156.1012 C   0  0  1  0  0  0  0  0  0  0  0  0
  149.7382  136.8280  155.8950 N   0  0  0  0  0  0  0  0  0  0  0  0
  149.7682  138.2137  155.8531 C   0  0  0  0  0  0  0  0  0  0  0  0
  150.9224  138.8852  155.6637 C   0  0  0  0  0  0  0  0  0  0  0  0
  150.9168  140.2290  155.6303 F   0  0  0  0  0  0  0  0  0  0  0  0
  152.1703  138.1454  155.4904 C   0  0  0  0  0  0  0  0  0  0  0  0
  153.2217  138.7637  155.3323 O   0  0  0  0  0  0  0  0  0  0  0  0
  152.1101  136.7828  155.5094 N   0  5  0  0  0  0  0  0  0  0  0  0
  150.9437  136.0986  155.6957 C   0  0  0  0  0  0  0  0  0  0  0  0
  150.8807  134.8689  155.7005 O   0  0  0  0  0  0  0  0  0  0  0  0
  148.5596  135.1092  157.2950 C   0  0  2  0  0  0  0  0  0  0  0  0
  147.2098  133.6516  157.1029 Br  0  0  0  0  0  0  0  0  0  0  0  0
  148.2131  136.0367  158.4509 C   0  0  2  0  0  0  0  0  0  0  0  0
  147.7063  135.3465  159.5872 O   0  0  0  0  0  0  0  0  0  0  0  0
  147.5991  135.9720  160.7733 C   0  0  0  0  0  0  0  0  0  0  0  0
  147.9308  137.1334  161.0113 O   0  0  0  0  0  0  0  0  0  0  0  0
  147.0012  135.0771  161.8561 C   0  0  0  0  0  0  0  0  0  0  0  0
  147.7935  133.7741  162.0311 C   0  0  0  0  0  0  0  0  0  0  0  0
  143.9247  136.3976  163.4957 H   0  0  0  0  0  0  0  0  0  0  0  0
  144.9900  135.4215  162.4917 H   0  0  0  0  0  0  0  0  0  0  0  0
  143.2412  135.3371  162.2684 H   0  0  0  0  0  0  0  0  0  0  0  0
  143.2319  137.7563  161.5250 H   0  0  0  0  0  0  0  0  0  0  0  0
  144.9715  137.8214  161.7161 H   0  0  0  0  0  0  0  0  0  0  0  0
  145.5305  135.6841  158.0040 H   0  0  0  0  0  0  0  0  0  0  0  0
  145.0930  137.2930  157.4394 H   0  0  0  0  0  0  0  0  0  0  0  0
  147.4654  138.0449  158.1776 H   0  0  0  0  0  0  0  0  0  0  0  0
  148.2564  135.5620  155.1472 H   0  0  0  0  0  0  0  0  0  0  0  0
  148.8623  138.7875  155.9671 H   0  0  0  0  0  0  0  0  0  0  0  0
  149.5443  134.6498  157.3826 H   0  0  0  0  0  0  0  0  0  0  0  0
  149.1087  136.5975  158.7242 H   0  0  0  0  0  0  0  0  0  0  0  0
  146.9827  135.6278  162.7972 H   0  0  0  0  0  0  0  0  0  0  0  0
  145.9655  134.8544  161.5984 H   0  0  0  0  0  0  0  0  0  0  0  0
  147.3759  133.1773  162.8419 H   0  0  0  0  0  0  0  0  0  0  0  0
  148.8386  133.9742  162.2710 H   0  0  0  0  0  0  0  0  0  0  0  0
  147.7672  133.1648  161.1267 H   0  0  0  0  0  0  0  0  0  0  0  0
  1  2  1  0  0  0  0
  1 27  1  0  0  0  0
  1 28  1  0  0  0  0
  1 29  1  0  0  0  0
  2  3  1  0  0  0  0
  2 30  1  0  0  0  0
  2 31  1  0  0  0  0
  3  4  2  0  0  0  0
  3  5  1  0  0  0  0
  5  6  1  0  0  0  0
  6  7  1  0  0  0  0
  6 32  1  0  0  0  0
  6 33  1  0  0  0  0
  7 21  1  0  0  0  0
  7  8  1  0  0  0  0
  7 34  1  0  0  0  0
  8  9  1  0  0  0  0
  9 10  1  0  0  0  0
  9 19  1  0  0  0  0
  9 35  1  0  0  0  0
 10 17  1  0  0  0  0
 10 11  1  0  0  0  0
 11 12  2  0  0  0  0
 11 36  1  0  0  0  0
 12 13  1  0  0  0  0
 12 14  1  0  0  0  0
 14 15  2  0  0  0  0
 14 16  1  0  0  0  0
 16 17  1  0  0  0  0
 17 18  2  0  0  0  0
 19 20  1  0  0  0  0
 19 21  1  0  0  0  0
 19 37  1  0  0  0  0
 21 22  1  0  0  0  0
 21 38  1  0  0  0  0
 22 23  1  0  0  0  0
 23 24  2  0  0  0  0
 23 25  1  0  0  0  0
 25 26  1  0  0  0  0
 25 39  1  0  0  0  0
 25 40  1  0  0  0  0
 26 41  1  0  0  0  0
 26 42  1  0  0  0  0
 26 43  1  0  0  0  0
M  CHG  1  16  -1
M  END
> <s_m_source_file>
AV-unprocessed.smi

> <i_m_source_file_index>
37

> <i_lp_mmshare_version>
43012

> <i_f3d_flags>
0

> <s_epik_input>
W0NIM11bQ0gyXUMoPU8pT1tDSDJdW0NAQEhdMU9bQ0BASF0objJbY0hdYyhGKWMoPU8pW25IXWMyPU8pW0NAQEhdKEJyKVtDQEhdMU9DKD1PKVtDSDJdW0NIM10=

> <s_epik_cmdline>
J2VwaWtfcHl0aG9uJywgJy1waCcsICc3LjAnLCAnLXRuJywgJzgnLCAnLW1hJywgJzIwMCcsICctbWV0YWxfYmluZGluZycsICctaW1hZScsICc8aW5maWxlLm1hZT4nLCAnLW9tYWUnLCAnPG91dGZpbGUubWFlPic=

> <r_epik_Ionization_Penalty>
1.08158

> <r_epik_Ionization_Penalty_Charging>
9.05154e-09

> <r_epik_Ionization_Penalty_Neutral>
1.08158

> <r_epik_State_Penalty>
1.13706

> <r_epik_Charging_Adjusted_Penalty>
1.13706

> <i_epik_Tot_Q>
-1

> <i_epik_Tot_abs_Q>
1

> <r_epik_Metal_State_Penalty>
0.00343535

> <b_epik_Metal_Only>
0

> <s_epik_Chemistry_Notes>
This compound has an ester and may undergo hydrolysis at high or low pH. This compound contains an acetal/aminal-like group ( X-CH(R)-Y where X, Y are N, S, or O) that may be acid/base labile, releasing an aldehyde.

> <s_lp_Force_Field>
OPLS_2005

> <r_lp_Energy>
34.8108

> <b_lp_Chiralities_Consistent>
1

> <s_lp_Variant>
AV-unprocessed.smi:37-29

> <Gold.Version>
5.8.1

> <Gold.Id.Protein>
6NUR|6NUR_protein|mol2

> <Gold.PLP.Fitness>
41.2959

> <Gold.PLP.PLP>
-27.6934

> <Gold.PLP.part.hbond>
-4.0000

> <Gold.PLP.part.metal>
0.0000

> <Gold.PLP.part.buried>
-5.4162

> <Gold.PLP.part.nonpolar>
-18.2899

> <Gold.PLP.part.repulsive>
0.1255

> <Gold.PLP.ligand.clash>
0.0000

> <Gold.PLP.ligand.torsion>
0.3347

> <Gold.PLP.Chemscore.Hbond>
4.7280

> <Gold.PLP.Chemscore.CHOScore>
0.0000

> <Gold.PLP.Chemscore.Metal>
0.0000

> <Gold.Chemscore.Hbonds>
donor molecule, donor type, donor heavy atom, donor atom, acceptor molecule, acceptor atom, score
      P1  H  6931  6943       L1    24  0.96
      P1  H  6934  6947       L1    24  0.78
      P1  H  7997  8008       L1    15  1.00
      P1  H 10752 10765       L1    16  1.90

> <Gold.PLP.Chemscore.Internal.Correction>
0.0879

> <Gold.Rescore>
     Score         DG    S(hbond)    S(metal)    S(lipo)     H(rot)  DE(clash)    DE(int)     intcor
     10.27     -11.81       3.22        0.00      33.63       3.27       0.02       1.52       ----

> <Gold.Chemscore.Fitness>
10.2737

> <Gold.Chemscore.DG>
-11.8145

> <Gold.Chemscore.ZeroCoef>
-5.4800

> <Gold.Chemscore.Hbond>
3.2226

> <Gold.Chemscore.Metal>
0.0000

> <Gold.Chemscore.Lipo>
33.6265

> <Gold.Chemscore.Internal_Hbond>
0.0000

> <Gold.Chemscore.DEClash>
0.0247

> <Gold.Chemscore.DEInternal>
1.5160

> <Gold.Chemscore.Rot>
3.2669

> <Gold.Chemscore.Internal.Correction>
   9.000000E+99

> <Gold.Chemscore.Hbonds>
donor molecule, donor type, donor heavy atom, donor atom, acceptor molecule, acceptor atom, score
      P1  H  6931  6943       L1    24  0.92
      P1  H  6934  6947       L1    24  0.73
      P1  H  7997  8008       L1    15  0.95
      P1  H 10752 10765       L1    16  0.21

> <Gold.Chemscore.Hbond.Weighted>
-10.7635

> <Gold.Chemscore.Metal.Weighted>
-0.0000

> <Gold.Chemscore.Lipo.Weighted>
-3.9343

> <Gold.Chemscore.Internal_Hbond.Weighted>
0.0000

> <Gold.Chemscore.DEClash.Weighted>
0.0247

> <Gold.Chemscore.DEInternal.Weighted>
1.5160

> <Gold.Chemscore.Rot.Weighted>
8.3634

> <Gold.Chemscore.Internal.Correction.Weighted>
   9.000000E+99

> <Gold.Protein.RotatedTorsions>
[ 6907 6896 6895 6894 ] final  -51.10 input  -60.11 | X-H torsion
[ 7974 7965 7964 7962 ] final -130.78 input  175.53 | X-H torsion
[ 8008 7997 7996 7995 ] final  -31.25 input   59.86 | X-H torsion
[ 10167 10162 10161 10158 ] final  120.14 input  -65.29 | X-H torsion
[ 10718 10713 10712 10709 ] final -138.73 input   66.30 | X-H torsion
[ 10763 10752 10751 10750 ] final -160.00 input  -60.55 | X-H torsion
[ 11005 11000 10999 10996 ] final  172.37 input  -57.11 | X-H torsion

> <Gold.Protein.ActiveResidues>
 VAL166  LYS551  ARG553  GLY616  TRP617  ASP618  TYR619  PRO620  LYS621  CYS622 
 ASP623  PHE694  ASN695  SER759  ASP760  ASP761  ALA762  ILE779  LEU786  VAL792 
 PHE793  MET794  SER795  GLU796  ALA797  LYS798  CYS799  TRP800  GLU811  SER814 

> <Gold.Protein.RotatedAtoms>
  150.8643  134.8003  159.7106 H   0  0  0  0  0  0  0  0  0  0  0  0  # atno 6907 bound_to 6896
  152.4670  134.5049  159.9746 H   0  0  0  0  0  0  0  0  0  0  0  0  # atno 6908 bound_to 6896
  151.5148  133.3439  159.2926 H   0  0  0  0  0  0  0  0  0  0  0  0  # atno 6909 bound_to 6896
  144.9442  140.7273  143.4827 H   0  0  0  0  0  0  0  0  0  0  0  0  # atno 7974 bound_to 7965
  154.4220  140.1769  156.1536 H   0  0  0  0  0  0  0  0  0  0  0  0  # atno 8008 bound_to 7997
  155.9895  140.3370  155.6715 H   0  0  0  0  0  0  0  0  0  0  0  0  # atno 8009 bound_to 7997
  155.6392  140.0678  157.2615 H   0  0  0  0  0  0  0  0  0  0  0  0  # atno 8010 bound_to 7997
  139.6001  144.7054  151.3083 H   0  0  0  0  0  0  0  0  0  0  0  0  # atno 10167 bound_to 10162
  156.3026  130.7437  151.1493 H   0  0  0  0  0  0  0  0  0  0  0  0  # atno 10718 bound_to 10713
  154.7427  135.3072  154.8700 H   0  0  0  0  0  0  0  0  0  0  0  0  # atno 10763 bound_to 10752
  153.9509  135.6764  153.4748 H   0  0  0  0  0  0  0  0  0  0  0  0  # atno 10764 bound_to 10752
  153.1025  135.4905  154.8817 H   0  0  0  0  0  0  0  0  0  0  0  0  # atno 10765 bound_to 10752
  140.3289  134.7374  157.4120 H   0  0  0  0  0  0  0  0  0  0  0  0  # atno 11005 bound_to 11000
  145.2943  139.1872  143.4723 LP  0  0  0  0  0  0  0  0  0  0  0  0  # atno 17320 bound_to 7965
  146.3297  140.2925  142.8616 LP  0  0  0  0  0  0  0  0  0  0  0  0  # atno 17321 bound_to 7965
  140.7243  143.7049  150.7815 LP  0  0  0  0  0  0  0  0  0  0  0  0  # atno 17342 bound_to 10162
  140.0623  143.5142  152.2621 LP  0  0  0  0  0  0  0  0  0  0  0  0  # atno 17343 bound_to 10162
  157.7372  131.0554  150.5371 LP  0  0  0  0  0  0  0  0  0  0  0  0  # atno 17370 bound_to 10713
  156.5500  130.4229  149.6112 LP  0  0  0  0  0  0  0  0  0  0  0  0  # atno 17371 bound_to 10713
  140.0877  134.5644  155.8475 LP  0  0  0  0  0  0  0  0  0  0  0  0  # atno 17394 bound_to 11000
  141.2068  133.6658  156.6266 LP  0  0  0  0  0  0  0  0  0  0  0  0  # atno 17395 bound_to 11000

$$$$
