AV-unprocessed.smi:2249|AV-procd|sdf|9098|dock9
  -GOLD-   2272012293D 1   1.00000     0.00000
 Structure written by MMmdl.
 38 39  0  0  0  0  0  0  0  0  1 V2000
  148.0778  141.7004  154.7025 C   0  0  0  0  0  0  0  0  0  0  0  0
  148.5103  141.3781  156.1450 C   0  0  2  0  0  0  0  0  0  0  0  0
  148.0731  142.4663  157.0192 N   0  0  0  0  0  0  0  0  0  0  0  0
  147.3321  142.3287  158.1285 C   0  0  0  0  0  0  0  0  0  0  0  0
  146.9187  141.2443  158.5399 O   0  0  0  0  0  0  0  0  0  0  0  0
  147.1088  143.5200  158.7104 N   0  0  0  0  0  0  0  0  0  0  0  0
  146.4167  143.7942  159.8481 C   0  0  0  0  0  0  0  0  0  0  0  0
  145.1628  143.3852  160.2126 C   0  0  0  0  0  0  0  0  0  0  0  0
  145.0021  143.9890  161.4925 C   0  0  0  0  0  0  0  0  0  0  0  0
  146.0591  144.6974  161.8701 N   0  0  0  0  0  0  0  0  0  0  0  0
  146.9402  144.5783  160.8531 N   0  0  0  0  0  0  0  0  0  0  0  0
  148.2288  145.2388  160.9282 C   0  0  0  0  0  0  0  0  0  0  0  0
  150.0385  141.1572  156.2940 C   0  0  0  0  0  0  0  0  0  0  0  0
  150.5404  139.9217  155.5190 C   0  0  0  0  0  0  0  0  0  0  0  0
  152.0417  139.6873  155.7531 C   0  0  0  0  0  0  0  0  0  0  0  0
  152.3025  139.5453  157.1438 O   0  0  0  0  0  0  0  0  0  0  0  0
  151.9747  140.7139  157.8846 C   0  0  0  0  0  0  0  0  0  0  0  0
  150.4699  141.0048  157.7688 C   0  0  0  0  0  0  0  0  0  0  0  0
  148.2610  140.8639  154.0289 H   0  0  0  0  0  0  0  0  0  0  0  0
  148.6093  142.5691  154.3127 H   0  0  0  0  0  0  0  0  0  0  0  0
  147.0099  141.9156  154.6511 H   0  0  0  0  0  0  0  0  0  0  0  0
  148.0105  140.4569  156.4503 H   0  0  0  0  0  0  0  0  0  0  0  0
  148.3642  143.3971  156.7584 H   0  0  0  0  0  0  0  0  0  0  0  0
  147.5061  144.3229  158.2452 H   0  0  0  0  0  0  0  0  0  0  0  0
  144.4647  142.7626  159.6738 H   0  0  0  0  0  0  0  0  0  0  0  0
  144.1523  143.9340  162.1567 H   0  0  0  0  0  0  0  0  0  0  0  0
  148.2838  146.0186  160.1687 H   0  0  0  0  0  0  0  0  0  0  0  0
  149.0240  144.5136  160.7543 H   0  0  0  0  0  0  0  0  0  0  0  0
  148.3727  145.6908  161.9108 H   0  0  0  0  0  0  0  0  0  0  0  0
  150.5471  142.0333  155.8883 H   0  0  0  0  0  0  0  0  0  0  0  0
  149.9836  139.0371  155.8308 H   0  0  0  0  0  0  0  0  0  0  0  0
  150.3686  140.0390  154.4497 H   0  0  0  0  0  0  0  0  0  0  0  0
  152.3625  138.7797  155.2414 H   0  0  0  0  0  0  0  0  0  0  0  0
  152.6321  140.5081  155.3428 H   0  0  0  0  0  0  0  0  0  0  0  0
  152.2452  140.5545  158.9284 H   0  0  0  0  0  0  0  0  0  0  0  0
  152.5634  141.5613  157.5296 H   0  0  0  0  0  0  0  0  0  0  0  0
  150.2400  141.9061  158.3372 H   0  0  0  0  0  0  0  0  0  0  0  0
  149.9092  140.1931  158.2345 H   0  0  0  0  0  0  0  0  0  0  0  0
  1  2  1  0  0  0  0
  1 19  1  0  0  0  0
  1 20  1  0  0  0  0
  1 21  1  0  0  0  0
  2  3  1  0  0  0  0
  2 13  1  0  0  0  0
  2 22  1  0  0  0  0
  3  4  1  0  0  0  0
  3 23  1  0  0  0  0
  4  5  2  0  0  0  0
  4  6  1  0  0  0  0
  6  7  1  0  0  0  0
  6 24  1  0  0  0  0
  7 11  1  0  0  0  0
  7  8  2  0  0  0  0
  8  9  1  0  0  0  0
  8 25  1  0  0  0  0
  9 10  2  0  0  0  0
  9 26  1  0  0  0  0
 10 11  1  0  0  0  0
 11 12  1  0  0  0  0
 12 27  1  0  0  0  0
 12 28  1  0  0  0  0
 12 29  1  0  0  0  0
 13 18  1  0  0  0  0
 13 14  1  0  0  0  0
 13 30  1  0  0  0  0
 14 15  1  0  0  0  0
 14 31  1  0  0  0  0
 14 32  1  0  0  0  0
 15 16  1  0  0  0  0
 15 33  1  0  0  0  0
 15 34  1  0  0  0  0
 16 17  1  0  0  0  0
 17 18  1  0  0  0  0
 17 35  1  0  0  0  0
 17 36  1  0  0  0  0
 18 37  1  0  0  0  0
 18 38  1  0  0  0  0
M  END
> <s_m_source_file>
AV-unprocessed.smi

> <i_m_source_file_index>
2249

> <i_lp_mmshare_version>
43012

> <i_f3d_flags>
0

> <s_epik_input>
W0NIMl0xW0NIMl1PW0NIMl1bQ0gyXVtDSF0xW0NASF0oW0NIM10pW05IXUMoPU8pW05IXWMyW2NIXVtjSF1ubjJbQ0gzXQ==

> <s_epik_cmdline>
J2VwaWtfcHl0aG9uJywgJy1waCcsICc3LjAnLCAnLXRuJywgJzgnLCAnLW1hJywgJzIwMCcsICctbWV0YWxfYmluZGluZycsICctaW1hZScsICc8aW5maWxlLm1hZT4nLCAnLW9tYWUnLCAnPG91dGZpbGUubWFlPic=

> <r_lp_tautomer_probability>
1

> <r_epik_Ionization_Penalty>
4.67687e-05

> <r_epik_Ionization_Penalty_Charging>
0

> <r_epik_Ionization_Penalty_Neutral>
4.67687e-05

> <r_epik_State_Penalty>
-0

> <r_epik_Charging_Adjusted_Penalty>
0

> <i_epik_Tot_Q>
0

> <i_epik_Tot_abs_Q>
0

> <r_epik_Metal_State_Penalty>
-0

> <b_epik_Metal_Only>
0

> <s_lp_Force_Field>
OPLS_2005

> <r_lp_Energy>
12.7763

> <b_lp_Chiralities_Consistent>
1

> <s_lp_Variant>
AV-unprocessed.smi:2249-1

> <Gold.Version>
5.8.1

> <Gold.Id.Protein>
6NUR|6NUR_protein|mol2

> <Gold.PLP.Fitness>
42.1672

> <Gold.PLP.PLP>
-33.8581

> <Gold.PLP.part.hbond>
-5.0000

> <Gold.PLP.part.metal>
0.0000

> <Gold.PLP.part.buried>
-4.9223

> <Gold.PLP.part.nonpolar>
-22.6981

> <Gold.PLP.part.repulsive>
0.2179

> <Gold.PLP.ligand.clash>
0.0000

> <Gold.PLP.ligand.torsion>
0.5613

> <Gold.PLP.Chemscore.Hbond>
3.1378

> <Gold.PLP.Chemscore.CHOScore>
0.0000

> <Gold.PLP.Chemscore.Metal>
0.0000

> <Gold.Chemscore.Hbonds>
donor molecule, donor type, donor heavy atom, donor atom, acceptor molecule, acceptor atom, score
      L1  H     3    23       P1  8028  1.00
      L1  H     6    24       P1  8029  1.00
      P1  H  6934  6946       L1     5  0.23
      P1  H  7997  8008       L1    16  0.21

> <Gold.PLP.Chemscore.Internal.Correction>
0.0182

> <Gold.Rescore>
     Score         DG    S(hbond)    S(metal)    S(lipo)     H(rot)  DE(clash)    DE(int)     intcor
     12.02     -12.62       1.14        0.00      55.93       1.26       0.07       0.54       ----

> <Gold.Chemscore.Fitness>
12.0159

> <Gold.Chemscore.DG>
-12.6212

> <Gold.Chemscore.ZeroCoef>
-5.4800

> <Gold.Chemscore.Hbond>
1.1437

> <Gold.Chemscore.Metal>
0.0000

> <Gold.Chemscore.Lipo>
55.9299

> <Gold.Chemscore.Internal_Hbond>
0.0000

> <Gold.Chemscore.DEClash>
0.0689

> <Gold.Chemscore.DEInternal>
0.5364

> <Gold.Chemscore.Rot>
1.2588

> <Gold.Chemscore.Internal.Correction>
   9.000000E+99

> <Gold.Chemscore.Hbonds>
donor molecule, donor type, donor heavy atom, donor atom, acceptor molecule, acceptor atom, score
      L1  H     3    23       P1  8028  0.25
      L1  H     6    24       P1  8029  0.60
      P1  H  6934  6946       L1     5  0.22

> <Gold.Chemscore.Hbond.Weighted>
-3.8198

> <Gold.Chemscore.Metal.Weighted>
-0.0000

> <Gold.Chemscore.Lipo.Weighted>
-6.5438

> <Gold.Chemscore.Internal_Hbond.Weighted>
0.0000

> <Gold.Chemscore.DEClash.Weighted>
0.0689

> <Gold.Chemscore.DEInternal.Weighted>
0.5364

> <Gold.Chemscore.Rot.Weighted>
3.2224

> <Gold.Chemscore.Internal.Correction.Weighted>
   9.000000E+99

> <Gold.Protein.RotatedTorsions>
[ 6907 6896 6895 6894 ] final  -27.18 input  -60.11 | X-H torsion
[ 7974 7965 7964 7962 ] final   40.12 input  175.53 | X-H torsion
[ 8008 7997 7996 7995 ] final  -76.40 input   59.86 | X-H torsion
[ 10167 10162 10161 10158 ] final   99.44 input  -65.29 | X-H torsion
[ 10718 10713 10712 10709 ] final  159.02 input   66.30 | X-H torsion
[ 10763 10752 10751 10750 ] final  102.50 input  -60.55 | X-H torsion
[ 11005 11000 10999 10996 ] final  -75.79 input  -57.11 | X-H torsion

> <Gold.Protein.ActiveResidues>
 VAL166  LYS551  ARG553  GLY616  TRP617  ASP618  TYR619  PRO620  LYS621  CYS622 
 ASP623  PHE694  ASN695  SER759  ASP760  ASP761  ALA762  ILE779  LEU786  VAL792 
 PHE793  MET794  SER795  GLU796  ALA797  LYS798  CYS799  TRP800  GLU811  SER814 

> <Gold.Protein.RotatedAtoms>
  151.1505  135.0225  159.8665 H   0  0  0  0  0  0  0  0  0  0  0  0  # atno 6907 bound_to 6896
  152.5453  134.1394  159.8483 H   0  0  0  0  0  0  0  0  0  0  0  0  # atno 6908 bound_to 6896
  151.1479  133.4881  159.2628 H   0  0  0  0  0  0  0  0  0  0  0  0  # atno 6909 bound_to 6896
  146.0930  139.5570  142.9464 H   0  0  0  0  0  0  0  0  0  0  0  0  # atno 7974 bound_to 7965
  154.5501  140.0728  156.8654 H   0  0  0  0  0  0  0  0  0  0  0  0  # atno 8008 bound_to 7997
  155.3009  140.3384  155.4229 H   0  0  0  0  0  0  0  0  0  0  0  0  # atno 8009 bound_to 7997
  156.1954  140.1701  156.7995 H   0  0  0  0  0  0  0  0  0  0  0  0  # atno 8010 bound_to 7997
  139.7617  144.6952  151.0282 H   0  0  0  0  0  0  0  0  0  0  0  0  # atno 10167 bound_to 10162
  157.1700  131.0607  151.2188 H   0  0  0  0  0  0  0  0  0  0  0  0  # atno 10718 bound_to 10713
  153.3404  135.4008  155.1567 H   0  0  0  0  0  0  0  0  0  0  0  0  # atno 10763 bound_to 10752
  154.8642  135.3632  154.5353 H   0  0  0  0  0  0  0  0  0  0  0  0  # atno 10764 bound_to 10752
  153.5797  135.7077  153.5528 H   0  0  0  0  0  0  0  0  0  0  0  0  # atno 10765 bound_to 10752
  141.1648  133.6959  156.7570 H   0  0  0  0  0  0  0  0  0  0  0  0  # atno 11005 bound_to 11000
  145.6003  141.0356  143.2022 LP  0  0  0  0  0  0  0  0  0  0  0  0  # atno 17320 bound_to 7965
  144.7374  139.7546  143.7324 LP  0  0  0  0  0  0  0  0  0  0  0  0  # atno 17321 bound_to 7965
  140.7807  143.4689  151.0174 LP  0  0  0  0  0  0  0  0  0  0  0  0  # atno 17342 bound_to 10162
  139.8375  143.7608  152.3180 LP  0  0  0  0  0  0  0  0  0  0  0  0  # atno 17343 bound_to 10162
  157.4052  130.7355  149.6797 LP  0  0  0  0  0  0  0  0  0  0  0  0  # atno 17370 bound_to 10713
  155.9740  130.4110  150.3958 LP  0  0  0  0  0  0  0  0  0  0  0  0  # atno 17371 bound_to 10713
  140.2562  134.8502  157.3715 LP  0  0  0  0  0  0  0  0  0  0  0  0  # atno 17394 bound_to 11000
  140.1655  134.4674  155.7866 LP  0  0  0  0  0  0  0  0  0  0  0  0  # atno 17395 bound_to 11000

$$$$
