AV-unprocessed.smi:1815|AV-procd|sdf|7360|dock9
  -GOLD-   22720 9 23D 1   1.00000     0.00000
 Structure written by MMmdl.
 39 40  0  0  0  0  0  0  0  0  3 V2000
  144.9218  134.6986  150.9582 C   0  0  0  0  0  0  0  0  0  0  0  0
  145.7536  135.6665  151.8070 C   0  0  2  0  0  0  0  0  0  0  0  0
  146.2362  135.0174  153.1163 C   0  0  0  0  0  0  0  0  0  0  0  0
  146.9636  136.0053  153.9458 N   0  3  2  0  0  0  0  0  0  0  0  0
  147.5455  135.4014  155.1696 C   0  0  0  0  0  0  0  0  0  0  0  0
  148.3362  136.4226  156.0015 C   0  0  0  0  0  0  0  0  0  0  0  0
  148.7040  135.8516  157.2890 N   0  0  0  0  0  0  0  0  0  0  0  0
  148.5800  136.4721  158.4693 C   0  0  0  0  0  0  0  0  0  0  0  0
  148.1156  137.6136  158.5164 O   0  0  0  0  0  0  0  0  0  0  0  0
  149.0017  135.7312  159.5184 N   0  5  0  0  0  0  0  0  0  0  0  0
  148.3220  135.7576  160.6763 C   0  0  0  0  0  0  0  0  0  0  0  0
  148.0190  136.8915  161.3185 N   0  0  0  0  0  0  0  0  0  0  0  0
  147.3157  136.6858  162.5066 C   0  0  0  0  0  0  0  0  0  0  0  0
  147.0855  135.3637  162.7799 C   0  0  0  0  0  0  0  0  0  0  0  0
  147.7473  134.3316  161.5448 S   0  0  0  0  0  0  0  0  0  0  0  0
  146.1017  137.1822  154.2165 C   0  0  0  0  0  0  0  0  0  0  0  0
  145.5736  137.7976  152.9058 C   0  0  1  0  0  0  0  0  0  0  0  0
  146.6412  138.5797  152.1197 C   0  0  0  0  0  0  0  0  0  0  0  0
  144.9393  136.7965  152.1094 O   0  0  0  0  0  0  0  0  0  0  0  0
  145.5026  133.8172  150.6848 H   0  0  0  0  0  0  0  0  0  0  0  0
  144.5897  135.1760  150.0361 H   0  0  0  0  0  0  0  0  0  0  0  0
  144.0352  134.3619  151.4962 H   0  0  0  0  0  0  0  0  0  0  0  0
  146.6133  135.9799  151.2144 H   0  0  0  0  0  0  0  0  0  0  0  0
  145.3899  134.6206  153.6801 H   0  0  0  0  0  0  0  0  0  0  0  0
  146.8907  134.1757  152.8854 H   0  0  0  0  0  0  0  0  0  0  0  0
  146.7582  134.9384  155.7668 H   0  0  0  0  0  0  0  0  0  0  0  0
  148.2274  134.5994  154.8821 H   0  0  0  0  0  0  0  0  0  0  0  0
  149.2390  136.7222  155.4665 H   0  0  0  0  0  0  0  0  0  0  0  0
  147.7491  137.3237  156.1790 H   0  0  0  0  0  0  0  0  0  0  0  0
  149.0866  134.9173  157.2916 H   0  0  0  0  0  0  0  0  0  0  0  0
  147.0203  137.5399  163.0975 H   0  0  0  0  0  0  0  0  0  0  0  0
  146.5716  134.9356  163.6271 H   0  0  0  0  0  0  0  0  0  0  0  0
  145.2602  136.8701  154.8369 H   0  0  0  0  0  0  0  0  0  0  0  0
  146.6427  137.9398  154.7822 H   0  0  0  0  0  0  0  0  0  0  0  0
  144.7926  138.5119  153.1680 H   0  0  0  0  0  0  0  0  0  0  0  0
  147.0180  139.4158  152.7093 H   0  0  0  0  0  0  0  0  0  0  0  0
  146.2245  138.9887  151.1991 H   0  0  0  0  0  0  0  0  0  0  0  0
  147.4979  137.9610  151.8538 H   0  0  0  0  0  0  0  0  0  0  0  0
  147.7421  136.3273  153.3881 H   0  0  0  0  0  0  0  0  0  0  0  0
  1  2  1  0  0  0  0
  1 20  1  0  0  0  0
  1 21  1  0  0  0  0
  1 22  1  0  0  0  0
  2 19  1  0  0  0  0
  2  3  1  0  0  0  0
  2 23  1  0  0  0  0
  3  4  1  0  0  0  0
  3 24  1  0  0  0  0
  3 25  1  0  0  0  0
  4  5  1  0  0  0  0
  4 16  1  0  0  0  0
  4 39  1  0  0  0  0
  5  6  1  0  0  0  0
  5 26  1  0  0  0  0
  5 27  1  0  0  0  0
  6  7  1  0  0  0  0
  6 28  1  0  0  0  0
  6 29  1  0  0  0  0
  7  8  1  0  0  0  0
  7 30  1  0  0  0  0
  8  9  2  0  0  0  0
  8 10  1  0  0  0  0
 10 11  1  0  0  0  0
 11 15  1  0  0  0  0
 11 12  2  0  0  0  0
 12 13  1  0  0  0  0
 13 14  2  0  0  0  0
 13 31  1  0  0  0  0
 14 15  1  0  0  0  0
 14 32  1  0  0  0  0
 16 17  1  0  0  0  0
 16 33  1  0  0  0  0
 16 34  1  0  0  0  0
 17 18  1  0  0  0  0
 17 19  1  0  0  0  0
 17 35  1  0  0  0  0
 18 36  1  0  0  0  0
 18 37  1  0  0  0  0
 18 38  1  0  0  0  0
M  CHG  1   4   1
M  CHG  1  10  -1
M  END
> <s_m_source_file>
AV-unprocessed.smi

> <i_m_source_file_index>
1815

> <i_lp_mmshare_version>
43012

> <i_f3d_flags>
0

> <s_epik_input>
W0NIM11bQ0BASF0xW0NIMl1OKFtDSDJdW0NASF0oTzEpW0NIM10pW0NIMl1bQ0gyXVtOSF1DKD1PKVtOSF1jMm5bY0hdW2NIXXMy

> <s_epik_cmdline>
J2VwaWtfcHl0aG9uJywgJy1waCcsICc3LjAnLCAnLXRuJywgJzgnLCAnLW1hJywgJzIwMCcsICctbWV0YWxfYmluZGluZycsICctaW1hZScsICc8aW5maWxlLm1hZT4nLCAnLW9tYWUnLCAnPG91dGZpbGUubWFlPic=

> <r_lp_tautomer_probability>
0.999

> <r_epik_Ionization_Penalty>
6.71699

> <r_epik_Ionization_Penalty_Charging>
5.88592

> <r_epik_Ionization_Penalty_Neutral>
0.831074

> <r_epik_State_Penalty>
6.08365

> <r_epik_Charging_Adjusted_Penalty>
11.9696

> <i_epik_Tot_Q>
0

> <i_epik_Tot_abs_Q>
2

> <r_epik_Metal_State_Penalty>
2.0947

> <b_epik_Metal_Only>
1

> <s_lp_Force_Field>
OPLS_2005

> <r_lp_Energy>
8.1919

> <b_lp_Chiralities_Consistent>
1

> <s_lp_Variant>
AV-unprocessed.smi:1815-11

> <Gold.Version>
5.8.1

> <Gold.Id.Protein>
6NUR|6NUR_protein|mol2

> <Gold.PLP.Fitness>
42.5199

> <Gold.PLP.PLP>
-29.0144

> <Gold.PLP.part.hbond>
-3.7246

> <Gold.PLP.part.metal>
0.0000

> <Gold.PLP.part.buried>
-3.6258

> <Gold.PLP.part.nonpolar>
-23.0073

> <Gold.PLP.part.repulsive>
0.4799

> <Gold.PLP.ligand.clash>
0.0000

> <Gold.PLP.ligand.torsion>
0.8869

> <Gold.PLP.Chemscore.Hbond>
5.0878

> <Gold.PLP.Chemscore.CHOScore>
0.0000

> <Gold.PLP.Chemscore.Metal>
0.0000

> <Gold.Chemscore.Hbonds>
donor molecule, donor type, donor heavy atom, donor atom, acceptor molecule, acceptor atom, score
      L1  H     4    39       P1  7948  2.00
      P1  H  6896  6907       L1    10  2.00
      P1  H  6931  6943       L1    12  0.85
      P1  H  6934  6947       L1    12  0.17

> <Gold.PLP.Chemscore.Internal.Correction>
0.0160

> <Gold.Rescore>
     Score         DG    S(hbond)    S(metal)    S(lipo)     H(rot)  DE(clash)    DE(int)     intcor
     13.94     -16.24       2.43        0.00      57.68       1.61       0.13       2.17       ----

> <Gold.Chemscore.Fitness>
13.9411

> <Gold.Chemscore.DG>
-16.2367

> <Gold.Chemscore.ZeroCoef>
-5.4800

> <Gold.Chemscore.Hbond>
2.4310

> <Gold.Chemscore.Metal>
0.0000

> <Gold.Chemscore.Lipo>
57.6773

> <Gold.Chemscore.Internal_Hbond>
0.0000

> <Gold.Chemscore.DEClash>
0.1266

> <Gold.Chemscore.DEInternal>
2.1690

> <Gold.Chemscore.Rot>
1.6060

> <Gold.Chemscore.Internal.Correction>
   9.000000E+99

> <Gold.Chemscore.Hbonds>
donor molecule, donor type, donor heavy atom, donor atom, acceptor molecule, acceptor atom, score
      L1  H     4    39       P1  7948  0.96
      P1  H  6896  6907       L1    10  0.82
      P1  H  6931  6943       L1    12  0.15
      P1  H  6934  6947       L1    12  0.03

> <Gold.Chemscore.Hbond.Weighted>
-8.1197

> <Gold.Chemscore.Metal.Weighted>
-0.0000

> <Gold.Chemscore.Lipo.Weighted>
-6.7482

> <Gold.Chemscore.Internal_Hbond.Weighted>
0.0000

> <Gold.Chemscore.DEClash.Weighted>
0.1266

> <Gold.Chemscore.DEInternal.Weighted>
2.1690

> <Gold.Chemscore.Rot.Weighted>
4.1112

> <Gold.Chemscore.Internal.Correction.Weighted>
   9.000000E+99

> <Gold.Protein.RotatedTorsions>
[ 6907 6896 6895 6894 ] final  -59.36 input  -60.11 | X-H torsion
[ 7974 7965 7964 7962 ] final   33.37 input  175.53 | X-H torsion
[ 8008 7997 7996 7995 ] final  -62.14 input   59.86 | X-H torsion
[ 10167 10162 10161 10158 ] final   87.74 input  -65.29 | X-H torsion
[ 10718 10713 10712 10709 ] final  -33.99 input   66.30 | X-H torsion
[ 10763 10752 10751 10750 ] final -100.05 input  -60.55 | X-H torsion
[ 11005 11000 10999 10996 ] final -109.51 input  -57.11 | X-H torsion

> <Gold.Protein.ActiveResidues>
 VAL166  LYS551  ARG553  GLY616  TRP617  ASP618  TYR619  PRO620  LYS621  CYS622 
 ASP623  PHE694  ASN695  SER759  ASP760  ASP761  ALA762  ILE779  LEU786  VAL792 
 PHE793  MET794  SER795  GLU796  ALA797  LYS798  CYS799  TRP800  GLU811  SER814 

> <Gold.Protein.RotatedAtoms>
  150.7936  134.6979  159.6533 H   0  0  0  0  0  0  0  0  0  0  0  0  # atno 6907 bound_to 6896
  152.4046  134.6226  160.0064 H   0  0  0  0  0  0  0  0  0  0  0  0  # atno 6908 bound_to 6896
  151.6487  133.3285  159.3183 H   0  0  0  0  0  0  0  0  0  0  0  0  # atno 6909 bound_to 6896
  146.1425  139.6405  142.9154 H   0  0  0  0  0  0  0  0  0  0  0  0  # atno 7974 bound_to 7965
  154.4484  140.1002  156.6541 H   0  0  0  0  0  0  0  0  0  0  0  0  # atno 8008 bound_to 7997
  155.5365  140.3482  155.4419 H   0  0  0  0  0  0  0  0  0  0  0  0  # atno 8009 bound_to 7997
  156.0627  140.1330  156.9911 H   0  0  0  0  0  0  0  0  0  0  0  0  # atno 8010 bound_to 7997
  139.8743  144.6475  150.8914 H   0  0  0  0  0  0  0  0  0  0  0  0  # atno 10167 bound_to 10162
  156.3560  130.4316  149.7664 H   0  0  0  0  0  0  0  0  0  0  0  0  # atno 10718 bound_to 10713
  154.7547  135.4949  153.9353 H   0  0  0  0  0  0  0  0  0  0  0  0  # atno 10763 bound_to 10752
  153.1183  135.6726  153.9388 H   0  0  0  0  0  0  0  0  0  0  0  0  # atno 10764 bound_to 10752
  153.9127  135.3097  155.3427 H   0  0  0  0  0  0  0  0  0  0  0  0  # atno 10765 bound_to 10752
  141.0843  133.9166  157.2220 H   0  0  0  0  0  0  0  0  0  0  0  0  # atno 11005 bound_to 11000
  145.5015  141.0437  143.2538 LP  0  0  0  0  0  0  0  0  0  0  0  0  # atno 17320 bound_to 7965
  144.7808  139.6530  143.7155 LP  0  0  0  0  0  0  0  0  0  0  0  0  # atno 17321 bound_to 7965
  140.7755  143.3637  151.1779 LP  0  0  0  0  0  0  0  0  0  0  0  0  # atno 17342 bound_to 10162
  139.7254  143.9156  152.3001 LP  0  0  0  0  0  0  0  0  0  0  0  0  # atno 17343 bound_to 10162
  156.4846  130.8057  151.3069 LP  0  0  0  0  0  0  0  0  0  0  0  0  # atno 17370 bound_to 10713
  157.7467  130.9995  150.2891 LP  0  0  0  0  0  0  0  0  0  0  0  0  # atno 17371 bound_to 10713
  139.9660  135.0142  156.9387 LP  0  0  0  0  0  0  0  0  0  0  0  0  # atno 17394 bound_to 11000
  140.5398  134.0731  155.7338 LP  0  0  0  0  0  0  0  0  0  0  0  0  # atno 17395 bound_to 11000

$$$$
