AV-unprocessed.smi:1803|AV-procd|sdf|7284|dock5
  -GOLD-   22720 8543D 1   1.00000     0.00000
 Structure written by MMmdl.
 36 38  0  0  0  0  0  0  0  0  2 V2000
  144.9618  135.1516  152.5838 O   0  0  0  0  0  0  0  0  0  0  0  0
  144.3593  134.2264  153.1250 C   0  0  0  0  0  0  0  0  0  0  0  0
  143.1273  134.4095  153.6471 N   0  0  0  0  0  0  0  0  0  0  0  0
  142.2859  135.5588  153.7125 C   0  0  0  0  0  0  0  0  0  0  0  0
  141.1056  135.6041  154.3526 N   0  0  0  0  0  0  0  0  0  0  0  0
  140.4967  136.8468  154.2413 N   0  0  0  0  0  0  0  0  0  0  0  0
  141.2360  137.6907  153.5165 C   0  0  0  0  0  0  0  0  0  0  0  0
  142.7483  137.0483  152.9002 S   0  0  0  0  0  0  0  0  0  0  0  0
  144.8770  132.9919  153.2346 N   0  0  0  0  0  0  0  0  0  0  0  0
  146.1806  132.5678  152.7345 C   0  0  1  0  0  0  0  0  0  0  0  0
  147.3496  133.1391  153.5568 C   0  0  0  0  0  0  0  0  0  0  0  0
  148.3920  132.0059  153.6292 C   0  0  0  0  0  0  0  0  0  0  0  0
  147.8489  130.9212  152.7896 N   0  3  1  0  0  0  0  0  0  0  0  0
  148.3144  129.5473  153.0791 C   0  0  0  0  0  0  0  0  0  0  0  0
  147.7044  128.5765  152.0483 C   0  0  0  0  0  0  0  0  0  0  0  0
  146.1690  128.7054  151.9802 C   0  0  0  0  0  0  0  0  0  0  0  0
  145.7417  130.1715  151.7727 C   0  0  0  0  0  0  0  0  0  0  0  0
  146.3857  131.0554  152.8543 C   0  0  2  0  0  0  0  0  0  0  0  0
  142.7428  133.5914  154.0972 H   0  0  0  0  0  0  0  0  0  0  0  0
  140.8875  138.6980  153.3423 H   0  0  0  0  0  0  0  0  0  0  0  0
  144.3163  132.2902  153.6975 H   0  0  0  0  0  0  0  0  0  0  0  0
  146.3115  132.8731  151.6941 H   0  0  0  0  0  0  0  0  0  0  0  0
  147.7563  134.0359  153.0880 H   0  0  0  0  0  0  0  0  0  0  0  0
  147.0337  133.4124  154.5649 H   0  0  0  0  0  0  0  0  0  0  0  0
  149.3732  132.3185  153.2708 H   0  0  0  0  0  0  0  0  0  0  0  0
  148.5005  131.6635  154.6597 H   0  0  0  0  0  0  0  0  0  0  0  0
  149.4033  129.5115  153.0321 H   0  0  0  0  0  0  0  0  0  0  0  0
  148.0249  129.2621  154.0919 H   0  0  0  0  0  0  0  0  0  0  0  0
  148.1257  128.7863  151.0642 H   0  0  0  0  0  0  0  0  0  0  0  0
  147.9838  127.5505  152.2894 H   0  0  0  0  0  0  0  0  0  0  0  0
  145.7750  128.0820  151.1770 H   0  0  0  0  0  0  0  0  0  0  0  0
  145.7324  128.3285  152.9061 H   0  0  0  0  0  0  0  0  0  0  0  0
  146.0433  130.5105  150.7806 H   0  0  0  0  0  0  0  0  0  0  0  0
  144.6551  130.2497  151.8143 H   0  0  0  0  0  0  0  0  0  0  0  0
  146.0500  130.7253  153.8405 H   0  0  0  0  0  0  0  0  0  0  0  0
  148.1127  131.1347  151.8384 H   0  0  0  0  0  0  0  0  0  0  0  0
  1  2  2  0  0  0  0
  2  3  1  0  0  0  0
  2  9  1  0  0  0  0
  3  4  1  0  0  0  0
  3 19  1  0  0  0  0
  4  8  1  0  0  0  0
  4  5  2  0  0  0  0
  5  6  1  0  0  0  0
  6  7  2  0  0  0  0
  7  8  1  0  0  0  0
  7 20  1  0  0  0  0
  9 10  1  0  0  0  0
  9 21  1  0  0  0  0
 10 18  1  0  0  0  0
 10 11  1  0  0  0  0
 10 22  1  0  0  0  0
 11 12  1  0  0  0  0
 11 23  1  0  0  0  0
 11 24  1  0  0  0  0
 12 13  1  0  0  0  0
 12 25  1  0  0  0  0
 12 26  1  0  0  0  0
 13 18  1  0  0  0  0
 13 14  1  0  0  0  0
 13 36  1  0  0  0  0
 14 15  1  0  0  0  0
 14 27  1  0  0  0  0
 14 28  1  0  0  0  0
 15 16  1  0  0  0  0
 15 29  1  0  0  0  0
 15 30  1  0  0  0  0
 16 17  1  0  0  0  0
 16 31  1  0  0  0  0
 16 32  1  0  0  0  0
 17 18  1  0  0  0  0
 17 33  1  0  0  0  0
 17 34  1  0  0  0  0
 18 35  1  0  0  0  0
M  CHG  1  13   1
M  END
> <s_m_source_file>
AV-unprocessed.smi

> <i_m_source_file_index>
1803

> <i_lp_mmshare_version>
43012

> <i_f3d_flags>
0

> <s_epik_input>
czFbY0hdbm5jMVtOSF1DKD1PKVtOSF1bQ0BIXShbQ0gyXVtDSDJdMilbQ0BASF0oTjIzKVtDSDJdW0NIMl1bQ0gyXVtDSDJdMw==

> <s_epik_cmdline>
J2VwaWtfcHl0aG9uJywgJy1waCcsICc3LjAnLCAnLXRuJywgJzgnLCAnLW1hJywgJzIwMCcsICctbWV0YWxfYmluZGluZycsICctaW1hZScsICc8aW5maWxlLm1hZT4nLCAnLW9tYWUnLCAnPG91dGZpbGUubWFlPic=

> <r_lp_tautomer_probability>
1

> <r_epik_Ionization_Penalty>
0.00213286

> <r_epik_Ionization_Penalty_Charging>
0.00107044

> <r_epik_Ionization_Penalty_Neutral>
0.00106242

> <r_epik_State_Penalty>
-0

> <r_epik_Charging_Adjusted_Penalty>
0.00107044

> <i_epik_Tot_Q>
1

> <i_epik_Tot_abs_Q>
1

> <r_epik_Metal_State_Penalty>
0.292783

> <b_epik_Metal_Only>
0

> <s_lp_Force_Field>
OPLS_2005

> <r_lp_Energy>
35.8309

> <b_lp_Chiralities_Consistent>
1

> <s_lp_Variant>
AV-unprocessed.smi:1803-6

> <Gold.Version>
5.8.1

> <Gold.Id.Protein>
6NUR|6NUR_protein|mol2

> <Gold.PLP.Fitness>
40.6272

> <Gold.PLP.PLP>
-29.6945

> <Gold.PLP.part.hbond>
-4.0000

> <Gold.PLP.part.metal>
0.0000

> <Gold.PLP.part.buried>
-4.2717

> <Gold.PLP.part.nonpolar>
-22.1135

> <Gold.PLP.part.repulsive>
0.2288

> <Gold.PLP.ligand.clash>
0.0000

> <Gold.PLP.ligand.torsion>
0.1016

> <Gold.PLP.Chemscore.Hbond>
3.7089

> <Gold.PLP.Chemscore.CHOScore>
0.0000

> <Gold.PLP.Chemscore.Metal>
0.0000

> <Gold.Chemscore.Hbonds>
donor molecule, donor type, donor heavy atom, donor atom, acceptor molecule, acceptor atom, score
      L1  H     3    19       P1 10957  1.00
      L1  H     9    21       P1 10957  0.90
      L1  H    13    36       P1 10747  1.00
      P1  H 11000 11005       L1     5  0.81

> <Gold.PLP.Chemscore.Internal.Correction>
0.0095

> <Gold.Rescore>
     Score         DG    S(hbond)    S(metal)    S(lipo)     H(rot)  DE(clash)    DE(int)     intcor
     18.89     -20.32       2.96        0.00      64.30       1.00       0.01       1.42       ----

> <Gold.Chemscore.Fitness>
18.8892

> <Gold.Chemscore.DG>
-20.3167

> <Gold.Chemscore.ZeroCoef>
-5.4800

> <Gold.Chemscore.Hbond>
2.9561

> <Gold.Chemscore.Metal>
0.0000

> <Gold.Chemscore.Lipo>
64.3021

> <Gold.Chemscore.Internal_Hbond>
0.0000

> <Gold.Chemscore.DEClash>
0.0090

> <Gold.Chemscore.DEInternal>
1.4185

> <Gold.Chemscore.Rot>
1.0000

> <Gold.Chemscore.Internal.Correction>
   9.000000E+99

> <Gold.Chemscore.Hbonds>
donor molecule, donor type, donor heavy atom, donor atom, acceptor molecule, acceptor atom, score
      L1  H     3    19       P1 10957  0.98
      L1  H     9    21       P1 10957  0.16
      L1  H    13    36       P1 10747  0.98
      P1  H 11000 11005       L1     5  0.71

> <Gold.Chemscore.Hbond.Weighted>
-9.8734

> <Gold.Chemscore.Metal.Weighted>
-0.0000

> <Gold.Chemscore.Lipo.Weighted>
-7.5233

> <Gold.Chemscore.Internal_Hbond.Weighted>
0.0000

> <Gold.Chemscore.DEClash.Weighted>
0.0090

> <Gold.Chemscore.DEInternal.Weighted>
1.4185

> <Gold.Chemscore.Rot.Weighted>
2.5600

> <Gold.Chemscore.Internal.Correction.Weighted>
   9.000000E+99

> <Gold.Protein.RotatedTorsions>
[ 6907 6896 6895 6894 ] final   92.01 input  -60.11 | X-H torsion
[ 7974 7965 7964 7962 ] final  -13.62 input  175.53 | X-H torsion
[ 8008 7997 7996 7995 ] final  158.38 input   59.86 | X-H torsion
[ 10167 10162 10161 10158 ] final   54.51 input  -65.29 | X-H torsion
[ 10718 10713 10712 10709 ] final -161.15 input   66.30 | X-H torsion
[ 10763 10752 10751 10750 ] final  111.23 input  -60.55 | X-H torsion
[ 11005 11000 10999 10996 ] final   29.62 input  -57.11 | X-H torsion

> <Gold.Protein.ActiveResidues>
 VAL166  LYS551  ARG553  GLY616  TRP617  ASP618  TYR619  PRO620  LYS621  CYS622 
 ASP623  PHE694  ASN695  SER759  ASP760  ASP761  ALA762  ILE779  LEU786  VAL792 
 PHE793  MET794  SER795  GLU796  ALA797  LYS798  CYS799  TRP800  GLU811  SER814 

> <Gold.Protein.RotatedAtoms>
  152.5452  134.1569  159.8541 H   0  0  0  0  0  0  0  0  0  0  0  0  # atno 6907 bound_to 6896
  151.1590  133.4850  159.2602 H   0  0  0  0  0  0  0  0  0  0  0  0  # atno 6908 bound_to 6896
  151.1392  135.0182  159.8673 H   0  0  0  0  0  0  0  0  0  0  0  0  # atno 6909 bound_to 6896
  146.2107  140.3230  142.8392 H   0  0  0  0  0  0  0  0  0  0  0  0  # atno 7974 bound_to 7965
  156.2306  140.1860  156.7251 H   0  0  0  0  0  0  0  0  0  0  0  0  # atno 8008 bound_to 7997
  154.6016  140.0635  156.9404 H   0  0  0  0  0  0  0  0  0  0  0  0  # atno 8009 bound_to 7997
  155.2164  140.3304  155.4324 H   0  0  0  0  0  0  0  0  0  0  0  0  # atno 8010 bound_to 7997
  140.2293  144.3704  150.6420 H   0  0  0  0  0  0  0  0  0  0  0  0  # atno 10167 bound_to 10162
  156.5922  130.8775  151.2893 H   0  0  0  0  0  0  0  0  0  0  0  0  # atno 10718 bound_to 10713
  153.4603  135.3723  155.2334 H   0  0  0  0  0  0  0  0  0  0  0  0  # atno 10763 bound_to 10752
  154.8757  135.3907  154.3933 H   0  0  0  0  0  0  0  0  0  0  0  0  # atno 10764 bound_to 10752
  153.4505  135.7085  153.6176 H   0  0  0  0  0  0  0  0  0  0  0  0  # atno 10765 bound_to 10752
  140.3031  134.2734  155.7749 H   0  0  0  0  0  0  0  0  0  0  0  0  # atno 11005 bound_to 11000
  144.8906  140.7519  143.5929 LP  0  0  0  0  0  0  0  0  0  0  0  0  # atno 17320 bound_to 7965
  145.3152  139.1806  143.4617 LP  0  0  0  0  0  0  0  0  0  0  0  0  # atno 17321 bound_to 7965
  140.6197  143.2175  151.6720 LP  0  0  0  0  0  0  0  0  0  0  0  0  # atno 17342 bound_to 10162
  139.5116  144.3505  152.0656 LP  0  0  0  0  0  0  0  0  0  0  0  0  # atno 17343 bound_to 10162
  157.7301  130.9680  150.1816 LP  0  0  0  0  0  0  0  0  0  0  0  0  # atno 17370 bound_to 10713
  156.2540  130.3703  149.8202 LP  0  0  0  0  0  0  0  0  0  0  0  0  # atno 17371 bound_to 10713
  141.2124  133.7659  156.9796 LP  0  0  0  0  0  0  0  0  0  0  0  0  # atno 17394 bound_to 11000
  140.1092  134.9488  157.2039 LP  0  0  0  0  0  0  0  0  0  0  0  0  # atno 17395 bound_to 11000

$$$$
