AV-unprocessed.smi:997|AV-procd|sdf|4348|dock5
  -GOLD-   22720 2243D 1   1.00000     0.00000
 Structure written by MMmdl.
 33 35  0  0  0  0  0  0  0  0  2 V2000
  152.4365  138.5420  155.9891 C   0  0  0  0  0  0  0  0  0  0  0  0
  151.8289  139.8806  156.2830 C   0  0  0  0  0  0  0  0  0  0  0  0
  150.9865  140.4030  155.4209 N   0  0  0  0  0  0  0  0  0  0  0  0
  150.5666  141.5786  155.9466 N   0  0  0  0  0  0  0  0  0  0  0  0
  149.6179  142.3818  155.1972 C   0  0  0  0  0  0  0  0  0  0  0  0
  148.6413  141.5015  154.4063 C   0  0  0  0  0  0  0  0  0  0  0  0
  149.3039  140.9221  153.3033 O   0  0  0  0  0  0  0  0  0  0  0  0
  151.1415  141.8489  157.1746 C   0  0  0  0  0  0  0  0  0  0  0  0
  150.9219  142.9402  157.9619 N   0  0  0  0  0  0  0  0  0  0  0  0
  151.6063  142.9440  159.1239 C   0  0  0  0  0  0  0  0  0  0  0  0
  151.3656  144.1414  159.9901 C   0  0  0  0  0  0  0  0  0  0  0  0
  150.4446  145.2580  159.5498 C   0  0  0  0  0  0  0  0  0  0  0  0
  151.9329  145.4930  159.6197 C   0  0  0  0  0  0  0  0  0  0  0  0
  152.5041  141.9272  159.5079 C   0  0  0  0  0  0  0  0  0  0  0  0
  152.7265  140.8147  158.6608 C   0  0  0  0  0  0  0  0  0  0  0  0
  153.7149  139.7633  159.0918 C   0  0  0  0  0  0  0  0  0  0  0  0
  154.0263  139.6619  160.2967 O   0  0  0  0  0  0  0  0  0  0  0  0
  154.1806  138.9911  158.2238 O   0  5  0  0  0  0  0  0  0  0  0  0
  152.0059  140.7463  157.4304 C   0  0  0  0  0  0  0  0  0  0  0  0
  152.3329  137.8656  156.8375 H   0  0  0  0  0  0  0  0  0  0  0  0
  153.4963  138.6330  155.7514 H   0  0  0  0  0  0  0  0  0  0  0  0
  151.9570  138.0587  155.1370 H   0  0  0  0  0  0  0  0  0  0  0  0
  149.0758  143.0300  155.8876 H   0  0  0  0  0  0  0  0  0  0  0  0
  150.1737  143.0354  154.5237 H   0  0  0  0  0  0  0  0  0  0  0  0
  148.2418  140.7071  155.0376 H   0  0  0  0  0  0  0  0  0  0  0  0
  147.7969  142.0899  154.0460 H   0  0  0  0  0  0  0  0  0  0  0  0
  148.6566  140.5348  152.7340 H   0  0  0  0  0  0  0  0  0  0  0  0
  151.3578  143.8663  161.0430 H   0  0  0  0  0  0  0  0  0  0  0  0
  149.9981  145.1978  158.5591 H   0  0  0  0  0  0  0  0  0  0  0  0
  149.8351  145.7424  160.3095 H   0  0  0  0  0  0  0  0  0  0  0  0
  152.2929  146.1304  160.4244 H   0  0  0  0  0  0  0  0  0  0  0  0
  152.4698  145.5789  158.6769 H   0  0  0  0  0  0  0  0  0  0  0  0
  153.0306  142.0142  160.4476 H   0  0  0  0  0  0  0  0  0  0  0  0
  1  2  1  0  0  0  0
  1 20  1  0  0  0  0
  1 21  1  0  0  0  0
  1 22  1  0  0  0  0
  2 19  1  0  0  0  0
  2  3  2  0  0  0  0
  3  4  1  0  0  0  0
  4  5  1  0  0  0  0
  4  8  1  0  0  0  0
  5  6  1  0  0  0  0
  5 23  1  0  0  0  0
  5 24  1  0  0  0  0
  6  7  1  0  0  0  0
  6 25  1  0  0  0  0
  6 26  1  0  0  0  0
  7 27  1  0  0  0  0
  8 19  1  0  0  0  0
  8  9  2  0  0  0  0
  9 10  1  0  0  0  0
 10 11  1  0  0  0  0
 10 14  2  0  0  0  0
 11 13  1  0  0  0  0
 11 12  1  0  0  0  0
 11 28  1  0  0  0  0
 12 13  1  0  0  0  0
 12 29  1  0  0  0  0
 12 30  1  0  0  0  0
 13 31  1  0  0  0  0
 13 32  1  0  0  0  0
 14 15  1  0  0  0  0
 14 33  1  0  0  0  0
 15 16  1  0  0  0  0
 15 19  2  0  0  0  0
 16 17  2  0  0  0  0
 16 18  1  0  0  0  0
M  CHG  1  18  -1
M  END
> <s_m_source_file>
AV-unprocessed.smi

> <i_m_source_file_index>
997

> <i_lp_mmshare_version>
43012

> <i_f3d_flags>
0

> <s_epik_input>
W09IXVtDSDJdW0NIMl1uMW5jKFtDSDNdKWMoYzEyKWMoQyg9TylbT0hdKVtjSF1jKG4yKVtDSF0zW0NIMl1bQ0gyXTM=

> <s_epik_cmdline>
J2VwaWtfcHl0aG9uJywgJy1waCcsICc3LjAnLCAnLXRuJywgJzgnLCAnLW1hJywgJzIwMCcsICctbWV0YWxfYmluZGluZycsICctaW1hZScsICc8aW5maWxlLm1hZT4nLCAnLW9tYWUnLCAnPG91dGZpbGUubWFlPic=

> <r_epik_Ionization_Penalty>
0.00209497

> <r_epik_Ionization_Penalty_Charging>
0.0019185

> <r_epik_Ionization_Penalty_Neutral>
0.000176473

> <r_epik_State_Penalty>
0.00130684

> <r_epik_Charging_Adjusted_Penalty>
0.00322534

> <i_epik_Tot_Q>
-1

> <i_epik_Tot_abs_Q>
1

> <r_epik_Metal_State_Penalty>
-0

> <b_epik_Metal_Only>
0

> <s_lp_Force_Field>
OPLS_2005

> <r_lp_Energy>
10.3232

> <b_lp_Chiralities_Consistent>
1

> <s_lp_Variant>
AV-unprocessed.smi:997-1

> <Gold.Version>
5.8.1

> <Gold.Id.Protein>
6NUR|6NUR_protein|mol2

> <Gold.PLP.Fitness>
48.3095

> <Gold.PLP.PLP>
-37.2445

> <Gold.PLP.part.hbond>
-4.2492

> <Gold.PLP.part.metal>
0.0000

> <Gold.PLP.part.buried>
0.0419

> <Gold.PLP.part.nonpolar>
-31.3514

> <Gold.PLP.part.repulsive>
0.1484

> <Gold.PLP.ligand.clash>
0.0000

> <Gold.PLP.ligand.torsion>
0.7281

> <Gold.PLP.Chemscore.Hbond>
4.1273

> <Gold.PLP.Chemscore.CHOScore>
0.0000

> <Gold.PLP.Chemscore.Metal>
0.0000

> <Gold.Chemscore.Hbonds>
donor molecule, donor type, donor heavy atom, donor atom, acceptor molecule, acceptor atom, score
      L1  H     7    27       P1  7957  0.11
      P1  H  7989  7998       L1     3  0.87
      P1  H  7997  8010       L1    18  1.98
      P1  H  8011  8017       L1     7  1.00

> <Gold.PLP.Chemscore.Internal.Correction>
0.1393

> <Gold.Rescore>
     Score         DG    S(hbond)    S(metal)    S(lipo)     H(rot)  DE(clash)    DE(int)     intcor
     13.62     -17.55       1.88        0.00      94.09       2.04       1.89       2.04       ----

> <Gold.Chemscore.Fitness>
13.6226

> <Gold.Chemscore.DG>
-17.5541

> <Gold.Chemscore.ZeroCoef>
-5.4800

> <Gold.Chemscore.Hbond>
1.8804

> <Gold.Chemscore.Metal>
0.0000

> <Gold.Chemscore.Lipo>
94.0908

> <Gold.Chemscore.Internal_Hbond>
0.0000

> <Gold.Chemscore.DEClash>
1.8905

> <Gold.Chemscore.DEInternal>
2.0410

> <Gold.Chemscore.Rot>
2.0372

> <Gold.Chemscore.Internal.Correction>
   9.000000E+99

> <Gold.Chemscore.Hbonds>
donor molecule, donor type, donor heavy atom, donor atom, acceptor molecule, acceptor atom, score
      L1  H     7    27       P1  7957  0.13
      P1  H  7989  7998       L1     3  0.39
      P1  H  7997  8010       L1    18  0.37
      P1  H  8011  8017       L1     7  0.10

> <Gold.Chemscore.Hbond.Weighted>
-6.2807

> <Gold.Chemscore.Metal.Weighted>
-0.0000

> <Gold.Chemscore.Lipo.Weighted>
-11.0086

> <Gold.Chemscore.Internal_Hbond.Weighted>
0.0000

> <Gold.Chemscore.DEClash.Weighted>
1.8905

> <Gold.Chemscore.DEInternal.Weighted>
2.0410

> <Gold.Chemscore.Rot.Weighted>
5.2152

> <Gold.Chemscore.Internal.Correction.Weighted>
   9.000000E+99

> <Gold.Protein.RotatedTorsions>
[ 6907 6896 6895 6894 ] final   13.62 input  -60.11 | X-H torsion
[ 7974 7965 7964 7962 ] final  155.93 input  175.53 | X-H torsion
[ 8008 7997 7996 7995 ] final   36.74 input   59.86 | X-H torsion
[ 10167 10162 10161 10158 ] final   22.96 input  -65.29 | X-H torsion
[ 10718 10713 10712 10709 ] final   25.48 input   66.30 | X-H torsion
[ 10763 10752 10751 10750 ] final -112.22 input  -60.55 | X-H torsion
[ 11005 11000 10999 10996 ] final  122.65 input  -57.11 | X-H torsion

> <Gold.Protein.ActiveResidues>
 VAL166  LYS551  ARG553  GLY616  TRP617  ASP618  TYR619  PRO620  LYS621  CYS622 
 ASP623  PHE694  ASN695  SER759  ASP760  ASP761  ALA762  ILE779  LEU786  VAL792 
 PHE793  MET794  SER795  GLU796  ALA797  LYS798  CYS799  TRP800  GLU811  SER814 

> <Gold.Protein.RotatedAtoms>
  151.7892  135.0740  160.0384 H   0  0  0  0  0  0  0  0  0  0  0  0  # atno 6907 bound_to 6896
  152.3168  133.5807  159.5726 H   0  0  0  0  0  0  0  0  0  0  0  0  # atno 6908 bound_to 6896
  150.7348  133.9986  159.3672 H   0  0  0  0  0  0  0  0  0  0  0  0  # atno 6909 bound_to 6896
  144.7994  139.7135  143.6188 H   0  0  0  0  0  0  0  0  0  0  0  0  # atno 7974 bound_to 7965
  155.1924  140.3309  155.4356 H   0  0  0  0  0  0  0  0  0  0  0  0  # atno 8008 bound_to 7997
  156.2437  140.1908  156.6966 H   0  0  0  0  0  0  0  0  0  0  0  0  # atno 8009 bound_to 7997
  154.6197  140.0597  156.9585 H   0  0  0  0  0  0  0  0  0  0  0  0  # atno 8010 bound_to 7997
  140.5307  143.9847  150.6464 H   0  0  0  0  0  0  0  0  0  0  0  0  # atno 10167 bound_to 10162
  157.1939  130.6859  149.6161 H   0  0  0  0  0  0  0  0  0  0  0  0  # atno 10718 bound_to 10713
  154.8339  135.4498  154.1161 H   0  0  0  0  0  0  0  0  0  0  0  0  # atno 10763 bound_to 10752
  153.2409  135.6916  153.7790 H   0  0  0  0  0  0  0  0  0  0  0  0  # atno 10764 bound_to 10752
  153.7138  135.3352  155.3228 H   0  0  0  0  0  0  0  0  0  0  0  0  # atno 10765 bound_to 10752
  139.9277  134.9641  156.8140 H   0  0  0  0  0  0  0  0  0  0  0  0  # atno 11005 bound_to 11000
  146.2271  139.5744  142.9580 LP  0  0  0  0  0  0  0  0  0  0  0  0  # atno 17320 bound_to 7965
  145.5591  141.0406  143.2236 LP  0  0  0  0  0  0  0  0  0  0  0  0  # atno 17321 bound_to 7965
  140.3221  143.3131  152.0774 LP  0  0  0  0  0  0  0  0  0  0  0  0  # atno 17342 bound_to 10162
  139.4953  144.6567  151.6557 LP  0  0  0  0  0  0  0  0  0  0  0  0  # atno 17343 bound_to 10162
  155.9708  130.4605  150.6076 LP  0  0  0  0  0  0  0  0  0  0  0  0  # atno 17370 bound_to 10713
  157.3833  131.0784  151.1457 LP  0  0  0  0  0  0  0  0  0  0  0  0  # atno 17371 bound_to 10713
  140.6288  133.9925  155.7652 LP  0  0  0  0  0  0  0  0  0  0  0  0  # atno 17394 bound_to 11000
  141.0846  134.0010  157.3333 LP  0  0  0  0  0  0  0  0  0  0  0  0  # atno 17395 bound_to 11000

$$$$
