AV-unprocessed.smi:1033|AV-procd|sdf|4498|dock1
  -GOLD-   22720 2493D 1   1.00000     0.00000
 Structure written by MMmdl.
 57 59  0  0  0  0  0  0  0  0  3 V2000
  152.2113  143.4343  161.1844 C   0  0  0  0  0  0  0  0  0  0  0  0
  151.9999  142.6569  159.8962 C   0  0  0  0  0  0  0  0  0  0  0  0
  151.0814  143.1604  158.9478 C   0  0  0  0  0  0  0  0  0  0  0  0
  150.9095  142.4274  157.7797 C   0  0  0  0  0  0  0  0  0  0  0  0
  150.0904  142.6536  156.6719 N   0  3  0  0  0  0  0  0  0  0  0  0
  150.2641  141.6524  155.7659 C   0  0  0  0  0  0  0  0  0  0  0  0
  151.1813  140.7874  156.2790 N   0  0  0  0  0  0  0  0  0  0  0  0
  151.7264  139.5493  155.7020 C   0  0  0  0  0  0  0  0  0  0  0  0
  150.6304  138.5524  155.2766 C   0  0  2  0  0  0  0  0  0  0  0  0
  151.2304  137.3394  154.8652 O   0  0  0  0  0  0  0  0  0  0  0  0
  149.7810  139.1035  154.1134 C   0  0  0  0  0  0  0  0  0  0  0  0
  148.5715  138.2847  153.8424 N   0  3  0  0  0  0  0  0  0  0  0  0
  147.4800  139.0770  153.2190 C   0  0  0  0  0  0  0  0  0  0  0  0
  146.2776  138.1700  152.8866 C   0  0  0  0  0  0  0  0  0  0  0  0
  145.7562  137.4522  154.0492 N   0  0  0  0  0  0  0  0  0  0  0  0
  145.0403  138.3288  154.9837 C   0  0  0  0  0  0  0  0  0  0  0  0
  143.5157  138.1139  155.0591 C   0  0  2  0  0  0  0  0  0  0  0  0
  143.1332  136.7313  155.6067 C   0  0  0  0  0  0  0  0  0  0  0  0
  142.9954  138.2281  153.7518 O   0  0  0  0  0  0  0  0  0  0  0  0
  146.8495  136.6816  154.6474 C   0  0  0  0  0  0  0  0  0  0  0  0
  148.0691  137.5446  155.0310 C   0  0  0  0  0  0  0  0  0  0  0  0
  151.6140  141.2321  157.5351 C   0  0  0  0  0  0  0  0  0  0  0  0
  152.5230  140.7224  158.4603 C   0  0  0  0  0  0  0  0  0  0  0  0
  152.7113  141.4532  159.6554 C   0  0  0  0  0  0  0  0  0  0  0  0
  153.6947  140.9202  160.6835 C   0  0  0  0  0  0  0  0  0  0  0  0
  151.5679  144.3134  161.2304 H   0  0  0  0  0  0  0  0  0  0  0  0
  153.2447  143.7730  161.2608 H   0  0  0  0  0  0  0  0  0  0  0  0
  151.9856  142.8119  162.0507 H   0  0  0  0  0  0  0  0  0  0  0  0
  150.5362  144.0762  159.1244 H   0  0  0  0  0  0  0  0  0  0  0  0
  149.7648  141.5629  154.8118 H   0  0  0  0  0  0  0  0  0  0  0  0
  152.3199  139.8382  154.8338 H   0  0  0  0  0  0  0  0  0  0  0  0
  152.4237  139.0973  156.4080 H   0  0  0  0  0  0  0  0  0  0  0  0
  150.0021  138.3448  156.1422 H   0  0  0  0  0  0  0  0  0  0  0  0
  150.8271  137.0642  154.0555 H   0  0  0  0  0  0  0  0  0  0  0  0
  149.4792  140.1328  154.3127 H   0  0  0  0  0  0  0  0  0  0  0  0
  150.4046  139.1384  153.2183 H   0  0  0  0  0  0  0  0  0  0  0  0
  147.1841  139.8910  153.8822 H   0  0  0  0  0  0  0  0  0  0  0  0
  147.8437  139.5377  152.2999 H   0  0  0  0  0  0  0  0  0  0  0  0
  145.4833  138.7606  152.4284 H   0  0  0  0  0  0  0  0  0  0  0  0
  146.5813  137.4457  152.1294 H   0  0  0  0  0  0  0  0  0  0  0  0
  145.4615  138.2317  155.9841 H   0  0  0  0  0  0  0  0  0  0  0  0
  145.2148  139.3665  154.6952 H   0  0  0  0  0  0  0  0  0  0  0  0
  143.0433  138.8912  155.6587 H   0  0  0  0  0  0  0  0  0  0  0  0
  143.4805  136.6051  156.6325 H   0  0  0  0  0  0  0  0  0  0  0  0
  143.5697  135.9309  155.0081 H   0  0  0  0  0  0  0  0  0  0  0  0
  142.0514  136.5939  155.6089 H   0  0  0  0  0  0  0  0  0  0  0  0
  143.4795  138.8975  153.2924 H   0  0  0  0  0  0  0  0  0  0  0  0
  146.4976  136.1263  155.5156 H   0  0  0  0  0  0  0  0  0  0  0  0
  147.1729  135.9218  153.9344 H   0  0  0  0  0  0  0  0  0  0  0  0
  148.8473  136.8924  155.4245 H   0  0  0  0  0  0  0  0  0  0  0  0
  147.8158  138.2433  155.8293 H   0  0  0  0  0  0  0  0  0  0  0  0
  153.0635  139.8047  158.2825 H   0  0  0  0  0  0  0  0  0  0  0  0
  154.1805  140.0077  160.3366 H   0  0  0  0  0  0  0  0  0  0  0  0
  153.1829  140.6904  161.6184 H   0  0  0  0  0  0  0  0  0  0  0  0
  154.4742  141.6551  160.8862 H   0  0  0  0  0  0  0  0  0  0  0  0
  148.8416  137.5939  153.1563 H   0  0  0  0  0  0  0  0  0  0  0  0
  149.4603  143.4347  156.5405 H   0  0  0  0  0  0  0  0  0  0  0  0
  1  2  1  0  0  0  0
  1 26  1  0  0  0  0
  1 27  1  0  0  0  0
  1 28  1  0  0  0  0
  2 24  1  0  0  0  0
  2  3  2  0  0  0  0
  3  4  1  0  0  0  0
  3 29  1  0  0  0  0
  4 22  2  0  0  0  0
  4  5  1  0  0  0  0
  5  6  2  0  0  0  0
  5 57  1  0  0  0  0
  6  7  1  0  0  0  0
  6 30  1  0  0  0  0
  7  8  1  0  0  0  0
  7 22  1  0  0  0  0
  8  9  1  0  0  0  0
  8 31  1  0  0  0  0
  8 32  1  0  0  0  0
  9 10  1  0  0  0  0
  9 11  1  0  0  0  0
  9 33  1  0  0  0  0
 10 34  1  0  0  0  0
 11 12  1  0  0  0  0
 11 35  1  0  0  0  0
 11 36  1  0  0  0  0
 12 21  1  0  0  0  0
 12 13  1  0  0  0  0
 12 56  1  0  0  0  0
 13 14  1  0  0  0  0
 13 37  1  0  0  0  0
 13 38  1  0  0  0  0
 14 15  1  0  0  0  0
 14 39  1  0  0  0  0
 14 40  1  0  0  0  0
 15 16  1  0  0  0  0
 15 20  1  0  0  0  0
 16 17  1  0  0  0  0
 16 41  1  0  0  0  0
 16 42  1  0  0  0  0
 17 18  1  0  0  0  0
 17 19  1  0  0  0  0
 17 43  1  0  0  0  0
 18 44  1  0  0  0  0
 18 45  1  0  0  0  0
 18 46  1  0  0  0  0
 19 47  1  0  0  0  0
 20 21  1  0  0  0  0
 20 48  1  0  0  0  0
 20 49  1  0  0  0  0
 21 50  1  0  0  0  0
 21 51  1  0  0  0  0
 22 23  1  0  0  0  0
 23 24  2  0  0  0  0
 23 52  1  0  0  0  0
 24 25  1  0  0  0  0
 25 53  1  0  0  0  0
 25 54  1  0  0  0  0
 25 55  1  0  0  0  0
M  CHG  1   5   1
M  CHG  1  12   1
M  END
> <s_m_source_file>
AV-unprocessed.smi

> <i_m_source_file_index>
1033

> <i_lp_mmshare_version>
43012

> <i_f3d_flags>
0

> <s_epik_input>
W0NIM11jKFtjSF0xKWMoW0NIM10pW2NIXWMoYzEyKW4oW2NIXW4yKVtDSDJdW0NASF0oW09IXSlbQ0gyXU4zW0NIMl1bQ0gyXU4oW0NIMl1bQ0gyXTMpW0NIMl1bQ0BIXShbQ0gzXSlbT0hd

> <s_epik_cmdline>
J2VwaWtfcHl0aG9uJywgJy1waCcsICc3LjAnLCAnLXRuJywgJzgnLCAnLW1hJywgJzIwMCcsICctbWV0YWxfYmluZGluZycsICctaW1hZScsICc8aW5maWxlLm1hZT4nLCAnLW9tYWUnLCAnPG91dGZpbGUubWFlPic=

> <r_epik_Ionization_Penalty>
1.22049

> <r_epik_Ionization_Penalty_Charging>
1.17952

> <r_epik_Ionization_Penalty_Neutral>
0.0409743

> <r_epik_State_Penalty>
1.61468

> <r_epik_Charging_Adjusted_Penalty>
2.7942

> <i_epik_Tot_Q>
2

> <i_epik_Tot_abs_Q>
2

> <r_epik_Metal_State_Penalty>
5.63169

> <b_epik_Metal_Only>
0

> <s_lp_Force_Field>
OPLS_2005

> <r_lp_Energy>
42.2447

> <b_lp_Chiralities_Consistent>
1

> <s_lp_Variant>
AV-unprocessed.smi:1033-9

> <Gold.Version>
5.8.1

> <Gold.Id.Protein>
6NUR|6NUR_protein|mol2

> <Gold.PLP.Fitness>
55.3857

> <Gold.PLP.PLP>
-42.6818

> <Gold.PLP.part.hbond>
-2.9410

> <Gold.PLP.part.metal>
0.0000

> <Gold.PLP.part.buried>
-4.7884

> <Gold.PLP.part.nonpolar>
-35.2525

> <Gold.PLP.part.repulsive>
0.1887

> <Gold.PLP.ligand.clash>
0.0000

> <Gold.PLP.ligand.torsion>
1.2156

> <Gold.PLP.Chemscore.Hbond>
5.0000

> <Gold.PLP.Chemscore.CHOScore>
0.0000

> <Gold.PLP.Chemscore.Metal>
0.0000

> <Gold.Chemscore.Hbonds>
donor molecule, donor type, donor heavy atom, donor atom, acceptor molecule, acceptor atom, score
      L1  H     5    57       P1  8028  2.00
      L1  H    12    56       P1  7948  2.00
      L1  H    19    47       P1 10175  1.00

> <Gold.PLP.Chemscore.Internal.Correction>
0.1351

> <Gold.Rescore>
     Score         DG    S(hbond)    S(metal)    S(lipo)     H(rot)  DE(clash)    DE(int)     intcor
     19.06     -20.32       2.99        0.00     110.49       3.15       0.04       1.22       ----

> <Gold.Chemscore.Fitness>
19.0566

> <Gold.Chemscore.DG>
-20.3186

> <Gold.Chemscore.ZeroCoef>
-5.4800

> <Gold.Chemscore.Hbond>
2.9851

> <Gold.Chemscore.Metal>
0.0000

> <Gold.Chemscore.Lipo>
110.4949

> <Gold.Chemscore.Internal_Hbond>
0.0000

> <Gold.Chemscore.DEClash>
0.0430

> <Gold.Chemscore.DEInternal>
1.2190

> <Gold.Chemscore.Rot>
3.1483

> <Gold.Chemscore.Internal.Correction>
   9.000000E+99

> <Gold.Chemscore.Hbonds>
donor molecule, donor type, donor heavy atom, donor atom, acceptor molecule, acceptor atom, score
      L1  H     5    57       P1  8028  0.96
      L1  H    12    56       P1  7948  1.00
      L1  H    19    47       P1 10175  0.97

> <Gold.Chemscore.Hbond.Weighted>
-9.9704

> <Gold.Chemscore.Metal.Weighted>
-0.0000

> <Gold.Chemscore.Lipo.Weighted>
-12.9279

> <Gold.Chemscore.Internal_Hbond.Weighted>
0.0000

> <Gold.Chemscore.DEClash.Weighted>
0.0430

> <Gold.Chemscore.DEInternal.Weighted>
1.2190

> <Gold.Chemscore.Rot.Weighted>
8.0597

> <Gold.Chemscore.Internal.Correction.Weighted>
   9.000000E+99

> <Gold.Protein.RotatedTorsions>
[ 6907 6896 6895 6894 ] final   32.47 input  -60.11 | X-H torsion
[ 7974 7965 7964 7962 ] final  -13.51 input  175.53 | X-H torsion
[ 8008 7997 7996 7995 ] final  139.60 input   59.86 | X-H torsion
[ 10167 10162 10161 10158 ] final  -49.03 input  -65.29 | X-H torsion
[ 10718 10713 10712 10709 ] final  104.38 input   66.30 | X-H torsion
[ 10763 10752 10751 10750 ] final  -81.14 input  -60.55 | X-H torsion
[ 11005 11000 10999 10996 ] final  130.41 input  -57.11 | X-H torsion

> <Gold.Protein.ActiveResidues>
 VAL166  LYS551  ARG553  GLY616  TRP617  ASP618  TYR619  PRO620  LYS621  CYS622 
 ASP623  PHE694  ASN695  SER759  ASP760  ASP761  ALA762  ILE779  LEU786  VAL792 
 PHE793  MET794  SER795  GLU796  ALA797  LYS798  CYS799  TRP800  GLU811  SER814 

> <Gold.Protein.RotatedAtoms>
  152.0749  134.9509  160.0573 H   0  0  0  0  0  0  0  0  0  0  0  0  # atno 6907 bound_to 6896
  152.0821  133.4153  159.4514 H   0  0  0  0  0  0  0  0  0  0  0  0  # atno 6908 bound_to 6896
  150.6836  134.2890  159.4702 H   0  0  0  0  0  0  0  0  0  0  0  0  # atno 6909 bound_to 6896
  146.2111  140.3213  142.8391 H   0  0  0  0  0  0  0  0  0  0  0  0  # atno 7974 bound_to 7965
  156.2988  140.2363  156.4264 H   0  0  0  0  0  0  0  0  0  0  0  0  # atno 8008 bound_to 7997
  154.8310  140.0433  157.1497 H   0  0  0  0  0  0  0  0  0  0  0  0  # atno 8009 bound_to 7997
  154.9208  140.3003  155.5221 H   0  0  0  0  0  0  0  0  0  0  0  0  # atno 8010 bound_to 7997
  140.6704  143.2715  151.4156 H   0  0  0  0  0  0  0  0  0  0  0  0  # atno 10167 bound_to 10162
  157.6742  131.0802  150.5697 H   0  0  0  0  0  0  0  0  0  0  0  0  # atno 10718 bound_to 10713
  154.5599  135.5637  153.6997 H   0  0  0  0  0  0  0  0  0  0  0  0  # atno 10763 bound_to 10752
  153.0014  135.6271  154.2259 H   0  0  0  0  0  0  0  0  0  0  0  0  # atno 10764 bound_to 10752
  154.2197  135.2870  155.2909 H   0  0  0  0  0  0  0  0  0  0  0  0  # atno 10765 bound_to 10752
  139.9670  134.9588  156.9290 H   0  0  0  0  0  0  0  0  0  0  0  0  # atno 11005 bound_to 11000
  144.8918  140.7533  143.5922 LP  0  0  0  0  0  0  0  0  0  0  0  0  # atno 17320 bound_to 7965
  145.3136  139.1811  143.4625 LP  0  0  0  0  0  0  0  0  0  0  0  0  # atno 17321 bound_to 7965
  139.5970  144.1377  152.2155 LP  0  0  0  0  0  0  0  0  0  0  0  0  # atno 17342 bound_to 10162
  140.0749  144.5749  150.7164 LP  0  0  0  0  0  0  0  0  0  0  0  0  # atno 17343 bound_to 10162
  156.5999  130.4351  149.5901 LP  0  0  0  0  0  0  0  0  0  0  0  0  # atno 17370 bound_to 10713
  156.2515  130.6910  151.1649 LP  0  0  0  0  0  0  0  0  0  0  0  0  # atno 17371 bound_to 10713
  140.5374  134.0753  155.7332 LP  0  0  0  0  0  0  0  0  0  0  0  0  # atno 17394 bound_to 11000
  141.1350  133.9237  157.2453 LP  0  0  0  0  0  0  0  0  0  0  0  0  # atno 17395 bound_to 11000

$$$$
