AV-unprocessed.smi:3096|AV-procd|sdf|11797|dock8
  -GOLD-   2272017173D 1   1.00000     0.00000
 Structure written by MMmdl.
 33 33  0  0  0  0  0  0  0  0  2 V2000
  140.2877  137.8354  152.7494 C   0  0  0  0  0  0  0  0  0  0  0  0
  141.6233  137.9885  152.7324 C   0  0  0  0  0  0  0  0  0  0  0  0
  142.6691  136.8944  152.5709 C   0  0  0  0  0  0  0  0  0  0  0  0
  144.0083  137.4419  152.2963 N   0  0  0  0  0  0  0  0  0  0  0  0
  145.1514  136.7335  152.2031 C   0  0  0  0  0  0  0  0  0  0  0  0
  146.3121  137.3610  151.9308 N   0  3  0  0  0  0  0  0  0  0  0  0
  146.4717  138.8032  151.7100 C   0  0  0  0  0  0  0  0  0  0  0  0
  145.1350  135.3994  152.3859 N   0  0  0  0  0  0  0  0  0  0  0  0
  146.2941  134.4985  152.3304 C   0  0  0  0  0  0  0  0  0  0  0  0
  145.8604  133.0335  152.1694 C   0  0  0  0  0  0  0  0  0  0  0  0
  145.4045  132.7423  150.8223 N   0  0  0  0  0  0  0  0  0  0  0  0
  146.1196  132.2029  149.7740 C   0  0  0  0  0  0  0  0  0  0  0  0
  145.2698  132.1072  148.7095 C   0  0  0  0  0  0  0  0  0  0  0  0
  144.0409  132.6204  149.2102 C   0  0  0  0  0  0  0  0  0  0  0  0
  144.1242  132.9994  150.4754 N   0  0  0  0  0  0  0  0  0  0  0  0
  139.8156  136.8696  152.6450 H   0  0  0  0  0  0  0  0  0  0  0  0
  139.6408  138.6918  152.8704 H   0  0  0  0  0  0  0  0  0  0  0  0
  142.0214  138.9869  152.8418 H   0  0  0  0  0  0  0  0  0  0  0  0
  142.7082  136.3055  153.4873 H   0  0  0  0  0  0  0  0  0  0  0  0
  142.3737  136.2217  151.7654 H   0  0  0  0  0  0  0  0  0  0  0  0
  144.0588  138.4411  152.1586 H   0  0  0  0  0  0  0  0  0  0  0  0
  147.5164  139.0392  151.5076 H   0  0  0  0  0  0  0  0  0  0  0  0
  146.1560  139.3609  152.5918 H   0  0  0  0  0  0  0  0  0  0  0  0
  145.8730  139.1268  150.8585 H   0  0  0  0  0  0  0  0  0  0  0  0
  144.2514  134.9658  152.6152 H   0  0  0  0  0  0  0  0  0  0  0  0
  146.9111  134.7873  151.4793 H   0  0  0  0  0  0  0  0  0  0  0  0
  146.9017  134.6265  153.2268 H   0  0  0  0  0  0  0  0  0  0  0  0
  146.6805  132.3585  152.4198 H   0  0  0  0  0  0  0  0  0  0  0  0
  145.0501  132.8078  152.8635 H   0  0  0  0  0  0  0  0  0  0  0  0
  147.1612  131.9342  149.8716 H   0  0  0  0  0  0  0  0  0  0  0  0
  145.4922  131.7282  147.7231 H   0  0  0  0  0  0  0  0  0  0  0  0
  143.0974  132.7273  148.6957 H   0  0  0  0  0  0  0  0  0  0  0  0
  147.1523  136.8034  151.8715 H   0  0  0  0  0  0  0  0  0  0  0  0
  1  2  2  0  0  0  0
  1 16  1  0  0  0  0
  1 17  1  0  0  0  0
  2  3  1  0  0  0  0
  2 18  1  0  0  0  0
  3  4  1  0  0  0  0
  3 19  1  0  0  0  0
  3 20  1  0  0  0  0
  4  5  1  0  0  0  0
  4 21  1  0  0  0  0
  5  6  2  0  0  0  0
  5  8  1  0  0  0  0
  6  7  1  0  0  0  0
  6 33  1  0  0  0  0
  7 22  1  0  0  0  0
  7 23  1  0  0  0  0
  7 24  1  0  0  0  0
  8  9  1  0  0  0  0
  8 25  1  0  0  0  0
  9 10  1  0  0  0  0
  9 26  1  0  0  0  0
  9 27  1  0  0  0  0
 10 11  1  0  0  0  0
 10 28  1  0  0  0  0
 10 29  1  0  0  0  0
 11 15  1  0  0  0  0
 11 12  1  0  0  0  0
 12 13  2  0  0  0  0
 12 30  1  0  0  0  0
 13 14  1  0  0  0  0
 13 31  1  0  0  0  0
 14 15  2  0  0  0  0
 14 32  1  0  0  0  0
M  CHG  1   6   1
M  END
> <s_m_source_file>
AV-unprocessed.smi

> <i_m_source_file_index>
3096

> <i_lp_mmshare_version>
43012

> <i_f3d_flags>
0

> <s_epik_input>
W0NIMl09W0NIXVtDSDJdW05IXS9DKD1OL1tDSDNdKVtOSF1bQ0gyXVtDSDJdbjFbY0hdW2NIXVtjSF1uMQ==

> <s_epik_cmdline>
J2VwaWtfcHl0aG9uJywgJy1waCcsICc3LjAnLCAnLXRuJywgJzgnLCAnLW1hJywgJzIwMCcsICctbWV0YWxfYmluZGluZycsICctaW1hZScsICc8aW5maWxlLm1hZT4nLCAnLW9tYWUnLCAnPG91dGZpbGUubWFlPic=

> <r_lp_tautomer_probability>
1

> <r_epik_Ionization_Penalty>
5.14269e-05

> <r_epik_Ionization_Penalty_Charging>
1.55211e-07

> <r_epik_Ionization_Penalty_Neutral>
5.12717e-05

> <r_epik_State_Penalty>
-0

> <r_epik_Charging_Adjusted_Penalty>
1.55211e-07

> <i_epik_Tot_Q>
1

> <i_epik_Tot_abs_Q>
1

> <r_epik_Metal_State_Penalty>
-0

> <b_epik_Metal_Only>
0

> <s_epik_Chemistry_Notes>
This compound has an imine and may undergo hydrolysis.

> <s_lp_Force_Field>
OPLS_2005

> <r_lp_Energy>
6.72739

> <b_lp_Chiralities_Consistent>
1

> <s_lp_Variant>
AV-unprocessed.smi:3096-2

> <Gold.Version>
5.8.1

> <Gold.Id.Protein>
6NUR|6NUR_protein|mol2

> <Gold.PLP.Fitness>
47.5684

> <Gold.PLP.PLP>
-30.7531

> <Gold.PLP.part.hbond>
-3.0000

> <Gold.PLP.part.metal>
0.0000

> <Gold.PLP.part.buried>
-1.8728

> <Gold.PLP.part.nonpolar>
-26.7056

> <Gold.PLP.part.repulsive>
0.2741

> <Gold.PLP.ligand.clash>
0.0000

> <Gold.PLP.ligand.torsion>
0.5944

> <Gold.PLP.Chemscore.Hbond>
4.0000

> <Gold.PLP.Chemscore.CHOScore>
2.0000

> <Gold.PLP.Chemscore.Metal>
0.0000

> <Gold.Chemscore.Hbonds>
donor molecule, donor type, donor heavy atom, donor atom, acceptor molecule, acceptor atom, score
      L1  H     4    21       P1 10175  1.89
      L1  H     6    33       P1  7948  2.00
      L1  C    12    30       P1 10747  1.00
      L1  C    14    32       P1 10186  0.27

> <Gold.PLP.Chemscore.Internal.Correction>
0.0040

> <Gold.Rescore>
     Score         DG    S(hbond)    S(metal)    S(lipo)     H(rot)  DE(clash)    DE(int)     intcor
     13.41     -15.25       1.98        0.00      68.20       1.89       1.40       0.45       ----

> <Gold.Chemscore.Fitness>
13.4071

> <Gold.Chemscore.DG>
-15.2504

> <Gold.Chemscore.ZeroCoef>
-5.4800

> <Gold.Chemscore.Hbond>
1.9843

> <Gold.Chemscore.Metal>
0.0000

> <Gold.Chemscore.Lipo>
68.1955

> <Gold.Chemscore.Internal_Hbond>
0.0000

> <Gold.Chemscore.DEClash>
1.3969

> <Gold.Chemscore.DEInternal>
0.4463

> <Gold.Chemscore.Rot>
1.8891

> <Gold.Chemscore.Internal.Correction>
   9.000000E+99

> <Gold.Chemscore.Hbonds>
donor molecule, donor type, donor heavy atom, donor atom, acceptor molecule, acceptor atom, score
      L1  H     4    21       P1 10175  0.89
      L1  H     6    33       P1  7948  1.00

> <Gold.Chemscore.Hbond.Weighted>
-6.6276

> <Gold.Chemscore.Metal.Weighted>
-0.0000

> <Gold.Chemscore.Lipo.Weighted>
-7.9789

> <Gold.Chemscore.Internal_Hbond.Weighted>
0.0000

> <Gold.Chemscore.DEClash.Weighted>
1.3969

> <Gold.Chemscore.DEInternal.Weighted>
0.4463

> <Gold.Chemscore.Rot.Weighted>
4.8361

> <Gold.Chemscore.Internal.Correction.Weighted>
   9.000000E+99

> <Gold.Protein.RotatedTorsions>
[ 6907 6896 6895 6894 ] final -119.29 input  -60.11 | X-H torsion
[ 7974 7965 7964 7962 ] final    4.87 input  175.53 | X-H torsion
[ 8008 7997 7996 7995 ] final -179.30 input   59.86 | X-H torsion
[ 10167 10162 10161 10158 ] final  -51.07 input  -65.29 | X-H torsion
[ 10718 10713 10712 10709 ] final  -83.95 input   66.30 | X-H torsion
[ 10763 10752 10751 10750 ] final -141.42 input  -60.55 | X-H torsion
[ 11005 11000 10999 10996 ] final   52.50 input  -57.11 | X-H torsion

> <Gold.Protein.ActiveResidues>
 VAL166  LYS551  ARG553  GLY616  TRP617  ASP618  TYR619  PRO620  LYS621  CYS622 
 ASP623  PHE694  ASN695  SER759  ASP760  ASP761  ALA762  ILE779  LEU786  VAL792 
 PHE793  MET794  SER795  GLU796  ALA797  LYS798  CYS799  TRP800  GLU811  SER814 

> <Gold.Protein.RotatedAtoms>
  150.8292  133.8119  159.3105 H   0  0  0  0  0  0  0  0  0  0  0  0  # atno 6907 bound_to 6896
  151.5854  135.1054  160.0036 H   0  0  0  0  0  0  0  0  0  0  0  0  # atno 6908 bound_to 6896
  152.4374  133.7344  159.6662 H   0  0  0  0  0  0  0  0  0  0  0  0  # atno 6909 bound_to 6896
  146.2442  140.0470  142.8378 H   0  0  0  0  0  0  0  0  0  0  0  0  # atno 7974 bound_to 7965
  156.0289  140.1277  157.0279 H   0  0  0  0  0  0  0  0  0  0  0  0  # atno 8008 bound_to 7997
  154.4342  140.1053  156.6141 H   0  0  0  0  0  0  0  0  0  0  0  0  # atno 8009 bound_to 7997
  155.5836  140.3468  155.4549 H   0  0  0  0  0  0  0  0  0  0  0  0  # atno 8010 bound_to 7997
  140.6607  143.2633  151.4450 H   0  0  0  0  0  0  0  0  0  0  0  0  # atno 10167 bound_to 10162
  156.0012  130.4682  150.4335 H   0  0  0  0  0  0  0  0  0  0  0  0  # atno 10718 bound_to 10713
  154.8546  135.3525  154.5865 H   0  0  0  0  0  0  0  0  0  0  0  0  # atno 10763 bound_to 10752
  153.6475  135.6995  153.5225 H   0  0  0  0  0  0  0  0  0  0  0  0  # atno 10764 bound_to 10752
  153.2921  135.4231  155.1134 H   0  0  0  0  0  0  0  0  0  0  0  0  # atno 10765 bound_to 10752
  140.0844  134.5295  155.8914 H   0  0  0  0  0  0  0  0  0  0  0  0  # atno 11005 bound_to 11000
  145.1018  140.9350  143.4708 LP  0  0  0  0  0  0  0  0  0  0  0  0  # atno 17320 bound_to 7965
  145.0664  139.3065  143.5854 LP  0  0  0  0  0  0  0  0  0  0  0  0  # atno 17321 bound_to 7965
  139.5840  144.1646  152.2005 LP  0  0  0  0  0  0  0  0  0  0  0  0  # atno 17342 bound_to 10162
  140.0980  144.5564  150.7008 LP  0  0  0  0  0  0  0  0  0  0  0  0  # atno 17343 bound_to 10162
  157.2382  131.0519  151.2452 LP  0  0  0  0  0  0  0  0  0  0  0  0  # atno 17370 bound_to 10713
  157.3646  130.7149  149.6524 LP  0  0  0  0  0  0  0  0  0  0  0  0  # atno 17371 bound_to 10713
  141.2057  133.6649  156.6200 LP  0  0  0  0  0  0  0  0  0  0  0  0  # atno 17394 bound_to 11000
  140.3442  134.7824  157.4420 LP  0  0  0  0  0  0  0  0  0  0  0  0  # atno 17395 bound_to 11000

$$$$
