AV-unprocessed.smi:1021|AV-procd|sdf|4456|dock10
  -GOLD-   22720 2433D 1   1.00000     0.00000
 Structure written by MMmdl.
 43 45  0  0  0  0  0  0  0  0  2 V2000
  148.1872  139.5916  153.5028 O   0  0  0  0  0  0  0  0  0  0  0  0
  147.8475  140.8084  154.1328 C   0  0  0  0  0  0  0  0  0  0  0  0
  149.0988  141.4781  154.7177 C   0  0  0  0  0  0  0  0  0  0  0  0
  149.7649  140.6470  155.8252 C   0  0  0  0  0  0  0  0  0  0  0  0
  150.4543  141.5162  156.8257 C   0  0  0  0  0  0  0  0  0  0  0  0
  150.4740  142.8788  156.8139 N   0  3  0  0  0  0  0  0  0  0  0  0
  151.2213  143.3506  157.8935 C   0  0  0  0  0  0  0  0  0  0  0  0
  151.5194  144.6478  158.2992 C   0  0  0  0  0  0  0  0  0  0  0  0
  152.3154  144.7820  159.4556 C   0  0  0  0  0  0  0  0  0  0  0  0
  152.7834  143.6537  160.1603 C   0  0  0  0  0  0  0  0  0  0  0  0
  152.4753  142.3433  159.7389 C   0  0  0  0  0  0  0  0  0  0  0  0
  151.6863  142.2201  158.5956 C   0  0  0  0  0  0  0  0  0  0  0  0
  151.1884  141.1112  157.9031 N   0  0  0  0  0  0  0  0  0  0  0  0
  151.4988  139.7608  158.3985 C   0  0  0  0  0  0  0  0  0  0  0  0
  153.0144  139.5069  158.5315 C   0  0  2  0  0  0  0  0  0  0  0  0
  153.4161  138.6745  157.4636 O   0  0  0  0  0  0  0  0  0  0  0  0
  153.3850  138.9293  159.8906 C   0  0  0  0  0  0  0  0  0  0  0  0
  152.9391  137.6387  160.2488 C   0  0  0  0  0  0  0  0  0  0  0  0
  153.2987  137.0824  161.4915 C   0  0  0  0  0  0  0  0  0  0  0  0
  154.1054  137.8135  162.3842 C   0  0  0  0  0  0  0  0  0  0  0  0
  154.4526  137.2774  163.5779 F   0  0  0  0  0  0  0  0  0  0  0  0
  154.5522  139.1019  162.0335 C   0  0  0  0  0  0  0  0  0  0  0  0
  154.1939  139.6586  160.7904 C   0  0  0  0  0  0  0  0  0  0  0  0
  148.7892  139.7763  152.7977 H   0  0  0  0  0  0  0  0  0  0  0  0
  147.3534  141.4652  153.4163 H   0  0  0  0  0  0  0  0  0  0  0  0
  147.1297  140.5980  154.9257 H   0  0  0  0  0  0  0  0  0  0  0  0
  149.8155  141.6333  153.9107 H   0  0  0  0  0  0  0  0  0  0  0  0
  148.8455  142.4699  155.0945 H   0  0  0  0  0  0  0  0  0  0  0  0
  149.0230  140.0367  156.3412 H   0  0  0  0  0  0  0  0  0  0  0  0
  150.4871  139.9551  155.3937 H   0  0  0  0  0  0  0  0  0  0  0  0
  151.1629  145.5135  157.7603 H   0  0  0  0  0  0  0  0  0  0  0  0
  152.5724  145.7701  159.8091 H   0  0  0  0  0  0  0  0  0  0  0  0
  153.3914  143.7957  161.0420 H   0  0  0  0  0  0  0  0  0  0  0  0
  152.8382  141.4850  160.2847 H   0  0  0  0  0  0  0  0  0  0  0  0
  151.0017  139.6275  159.3600 H   0  0  0  0  0  0  0  0  0  0  0  0
  151.0424  139.0414  157.7172 H   0  0  0  0  0  0  0  0  0  0  0  0
  153.5511  140.4472  158.4006 H   0  0  0  0  0  0  0  0  0  0  0  0
  153.5464  139.2117  156.6969 H   0  0  0  0  0  0  0  0  0  0  0  0
  152.3270  137.0672  159.5666 H   0  0  0  0  0  0  0  0  0  0  0  0
  152.9572  136.0934  161.7595 H   0  0  0  0  0  0  0  0  0  0  0  0
  155.1727  139.6626  162.7170 H   0  0  0  0  0  0  0  0  0  0  0  0
  154.5510  140.6437  160.5278 H   0  0  0  0  0  0  0  0  0  0  0  0
  150.0080  143.4430  156.1147 H   0  0  0  0  0  0  0  0  0  0  0  0
  1  2  1  0  0  0  0
  1 24  1  0  0  0  0
  2  3  1  0  0  0  0
  2 25  1  0  0  0  0
  2 26  1  0  0  0  0
  3  4  1  0  0  0  0
  3 27  1  0  0  0  0
  3 28  1  0  0  0  0
  4  5  1  0  0  0  0
  4 29  1  0  0  0  0
  4 30  1  0  0  0  0
  5 13  1  0  0  0  0
  5  6  2  0  0  0  0
  6  7  1  0  0  0  0
  6 43  1  0  0  0  0
  7 12  2  0  0  0  0
  7  8  1  0  0  0  0
  8  9  2  0  0  0  0
  8 31  1  0  0  0  0
  9 10  1  0  0  0  0
  9 32  1  0  0  0  0
 10 11  2  0  0  0  0
 10 33  1  0  0  0  0
 11 12  1  0  0  0  0
 11 34  1  0  0  0  0
 12 13  1  0  0  0  0
 13 14  1  0  0  0  0
 14 15  1  0  0  0  0
 14 35  1  0  0  0  0
 14 36  1  0  0  0  0
 15 16  1  0  0  0  0
 15 17  1  0  0  0  0
 15 37  1  0  0  0  0
 16 38  1  0  0  0  0
 17 23  1  0  0  0  0
 17 18  2  0  0  0  0
 18 19  1  0  0  0  0
 18 39  1  0  0  0  0
 19 20  2  0  0  0  0
 19 40  1  0  0  0  0
 20 21  1  0  0  0  0
 20 22  1  0  0  0  0
 22 23  2  0  0  0  0
 22 41  1  0  0  0  0
 23 42  1  0  0  0  0
M  CHG  1   6   1
M  END
> <s_m_source_file>
AV-unprocessed.smi

> <i_m_source_file_index>
1021

> <i_lp_mmshare_version>
43012

> <i_f3d_flags>
0

> <s_epik_input>
W09IXVtDSDJdW0NIMl1bQ0gyXWMobjEpbihjKGMxMilbY0hdW2NIXVtjSF1bY0hdMilbQ0gyXVtDQEhdKFtPSF0pYzNbY0hdW2NIXWMoRilbY0hdW2NIXTM=

> <s_epik_cmdline>
J2VwaWtfcHl0aG9uJywgJy1waCcsICc3LjAnLCAnLXRuJywgJzgnLCAnLW1hJywgJzIwMCcsICctbWV0YWxfYmluZGluZycsICctaW1hZScsICc8aW5maWxlLm1hZT4nLCAnLW9tYWUnLCAnPG91dGZpbGUubWFlPic=

> <r_epik_Ionization_Penalty>
0.786441

> <r_epik_Ionization_Penalty_Charging>
0.786439

> <r_epik_Ionization_Penalty_Neutral>
1.96029e-06

> <r_epik_State_Penalty>
0.816472

> <r_epik_Charging_Adjusted_Penalty>
1.60291

> <i_epik_Tot_Q>
1

> <i_epik_Tot_abs_Q>
1

> <r_epik_Metal_State_Penalty>
4.73733

> <b_epik_Metal_Only>
0

> <s_lp_Force_Field>
OPLS_2005

> <r_lp_Energy>
17.0058

> <b_lp_Chiralities_Consistent>
1

> <s_lp_Variant>
AV-unprocessed.smi:1021-3

> <Gold.Version>
5.8.1

> <Gold.Id.Protein>
6NUR|6NUR_protein|mol2

> <Gold.PLP.Fitness>
60.0842

> <Gold.PLP.PLP>
-52.8736

> <Gold.PLP.part.hbond>
-3.0000

> <Gold.PLP.part.metal>
0.0000

> <Gold.PLP.part.buried>
-5.4546

> <Gold.PLP.part.nonpolar>
-45.0981

> <Gold.PLP.part.repulsive>
0.0422

> <Gold.PLP.ligand.clash>
0.0000

> <Gold.PLP.ligand.torsion>
0.9216

> <Gold.PLP.Chemscore.Hbond>
3.0000

> <Gold.PLP.Chemscore.CHOScore>
0.0000

> <Gold.PLP.Chemscore.Metal>
0.0000

> <Gold.Chemscore.Hbonds>
donor molecule, donor type, donor heavy atom, donor atom, acceptor molecule, acceptor atom, score
      L1  H     1    24       P1  7957  1.00
      L1  H     6    43       P1  8028  2.00

> <Gold.PLP.Chemscore.Internal.Correction>
0.0537

> <Gold.Rescore>
     Score         DG    S(hbond)    S(metal)    S(lipo)     H(rot)  DE(clash)    DE(int)     intcor
     18.68     -19.63       1.89        0.00     136.08       3.16       0.01       0.94       ----

> <Gold.Chemscore.Fitness>
18.6834

> <Gold.Chemscore.DG>
-19.6349

> <Gold.Chemscore.ZeroCoef>
-5.4800

> <Gold.Chemscore.Hbond>
1.8934

> <Gold.Chemscore.Metal>
0.0000

> <Gold.Chemscore.Lipo>
136.0819

> <Gold.Chemscore.Internal_Hbond>
0.0000

> <Gold.Chemscore.DEClash>
0.0073

> <Gold.Chemscore.DEInternal>
0.9442

> <Gold.Chemscore.Rot>
3.1604

> <Gold.Chemscore.Internal.Correction>
   9.000000E+99

> <Gold.Chemscore.Hbonds>
donor molecule, donor type, donor heavy atom, donor atom, acceptor molecule, acceptor atom, score
      L1  H     1    24       P1  7957  1.00
      L1  H     6    43       P1  8028  0.95

> <Gold.Chemscore.Hbond.Weighted>
-6.3240

> <Gold.Chemscore.Metal.Weighted>
-0.0000

> <Gold.Chemscore.Lipo.Weighted>
-15.9216

> <Gold.Chemscore.Internal_Hbond.Weighted>
0.0000

> <Gold.Chemscore.DEClash.Weighted>
0.0073

> <Gold.Chemscore.DEInternal.Weighted>
0.9442

> <Gold.Chemscore.Rot.Weighted>
8.0907

> <Gold.Chemscore.Internal.Correction.Weighted>
   9.000000E+99

> <Gold.Protein.RotatedTorsions>
[ 6907 6896 6895 6894 ] final  174.11 input  -60.11 | X-H torsion
[ 7974 7965 7964 7962 ] final  172.50 input  175.53 | X-H torsion
[ 8008 7997 7996 7995 ] final -167.96 input   59.86 | X-H torsion
[ 10167 10162 10161 10158 ] final  -73.92 input  -65.29 | X-H torsion
[ 10718 10713 10712 10709 ] final   28.78 input   66.30 | X-H torsion
[ 10763 10752 10751 10750 ] final  -84.03 input  -60.55 | X-H torsion
[ 11005 11000 10999 10996 ] final -127.35 input  -57.11 | X-H torsion

> <Gold.Protein.ActiveResidues>
 VAL166  LYS551  ARG553  GLY616  TRP617  ASP618  TYR619  PRO620  LYS621  CYS622 
 ASP623  PHE694  ASN695  SER759  ASP760  ASP761  ALA762  ILE779  LEU786  VAL792 
 PHE793  MET794  SER795  GLU796  ALA797  LYS798  CYS799  TRP800  GLU811  SER814 

> <Gold.Protein.RotatedAtoms>
  151.7575  133.3331  159.3408 H   0  0  0  0  0  0  0  0  0  0  0  0  # atno 6907 bound_to 6896
  150.7511  134.6136  159.6108 H   0  0  0  0  0  0  0  0  0  0  0  0  # atno 6908 bound_to 6896
  152.3427  134.7114  160.0310 H   0  0  0  0  0  0  0  0  0  0  0  0  # atno 6909 bound_to 6896
  144.7266  139.9508  143.6432 H   0  0  0  0  0  0  0  0  0  0  0  0  # atno 7974 bound_to 7965
  155.8848  140.1015  157.1460 H   0  0  0  0  0  0  0  0  0  0  0  0  # atno 8008 bound_to 7997
  154.4009  140.1322  156.4306 H   0  0  0  0  0  0  0  0  0  0  0  0  # atno 8009 bound_to 7997
  155.7601  140.3463  155.5196 H   0  0  0  0  0  0  0  0  0  0  0  0  # atno 8010 bound_to 7997
  140.5070  143.2351  151.7657 H   0  0  0  0  0  0  0  0  0  0  0  0  # atno 10167 bound_to 10162
  157.2379  130.7055  149.6344 H   0  0  0  0  0  0  0  0  0  0  0  0  # atno 10718 bound_to 10713
  154.5947  135.5535  153.7313 H   0  0  0  0  0  0  0  0  0  0  0  0  # atno 10763 bound_to 10752
  153.0130  135.6351  154.1800 H   0  0  0  0  0  0  0  0  0  0  0  0  # atno 10764 bound_to 10752
  154.1740  135.2890  155.3052 H   0  0  0  0  0  0  0  0  0  0  0  0  # atno 10765 bound_to 10752
  140.9607  134.0941  157.3971 H   0  0  0  0  0  0  0  0  0  0  0  0  # atno 11005 bound_to 11000
  146.0713  139.3702  143.0521 LP  0  0  0  0  0  0  0  0  0  0  0  0  # atno 17320 bound_to 7965
  145.7964  140.9791  143.1022 LP  0  0  0  0  0  0  0  0  0  0  0  0  # atno 17321 bound_to 7965
  139.4886  144.4443  151.9728 LP  0  0  0  0  0  0  0  0  0  0  0  0  # atno 17342 bound_to 10162
  140.3534  144.3061  150.5945 LP  0  0  0  0  0  0  0  0  0  0  0  0  # atno 17343 bound_to 10162
  155.9671  130.4467  150.5553 LP  0  0  0  0  0  0  0  0  0  0  0  0  # atno 17370 bound_to 10713
  157.3409  131.0716  151.1788 LP  0  0  0  0  0  0  0  0  0  0  0  0  # atno 17371 bound_to 10713
  139.8877  135.0092  156.6576 LP  0  0  0  0  0  0  0  0  0  0  0  0  # atno 17394 bound_to 11000
  140.7472  133.8928  155.8320 LP  0  0  0  0  0  0  0  0  0  0  0  0  # atno 17395 bound_to 11000

$$$$
