AV-unprocessed.smi:2494|AV-procd|sdf|9821|dock5
  -GOLD-   2272013453D 1   1.00000     0.00000
 Structure written by MMmdl.
 30 31  0  0  0  0  0  0  0  0  1 V2000
  151.9153  136.8398  154.3321 O   0  0  0  0  0  0  0  0  0  0  0  0
  151.2615  137.4103  155.4453 C   0  0  0  0  0  0  0  0  0  0  0  0
  151.3475  138.9436  155.3686 C   0  0  0  0  0  0  0  0  0  0  0  0
  149.9690  139.6575  155.3760 C   0  0  2  0  0  0  0  0  0  0  0  0
  149.2525  139.4619  154.0163 C   0  0  0  0  0  0  0  0  0  0  0  0
  148.0193  140.1676  153.9799 O   0  0  0  0  0  0  0  0  0  0  0  0
  148.2163  141.5648  154.1287 C   0  0  0  0  0  0  0  0  0  0  0  0
  148.8335  141.8279  155.5070 C   0  0  0  0  0  0  0  0  0  0  0  0
  150.0857  141.0949  155.6712 N   0  0  0  0  0  0  0  0  0  0  0  0
  150.8134  141.5277  156.7725 C   0  0  0  0  0  0  0  0  0  0  0  0
  151.0745  142.8381  156.8757 N   0  0  0  0  0  0  0  0  0  0  0  0
  151.8087  143.2378  157.9365 C   0  0  0  0  0  0  0  0  0  0  0  0
  152.2890  142.3178  158.8893 C   0  0  0  0  0  0  0  0  0  0  0  0
  153.2289  142.8224  160.2449 Cl  0  0  0  0  0  0  0  0  0  0  0  0
  151.9637  140.9636  158.6754 C   0  0  0  0  0  0  0  0  0  0  0  0
  151.2290  140.5724  157.6115 N   0  0  0  0  0  0  0  0  0  0  0  0
  151.2611  136.5578  153.7109 H   0  0  0  0  0  0  0  0  0  0  0  0
  150.2274  137.0675  155.4452 H   0  0  0  0  0  0  0  0  0  0  0  0
  151.7316  137.0439  156.3583 H   0  0  0  0  0  0  0  0  0  0  0  0
  151.9499  139.2726  156.2146 H   0  0  0  0  0  0  0  0  0  0  0  0
  151.9048  139.2345  154.4770 H   0  0  0  0  0  0  0  0  0  0  0  0
  149.3500  139.2142  156.1573 H   0  0  0  0  0  0  0  0  0  0  0  0
  149.8868  139.7867  153.1895 H   0  0  0  0  0  0  0  0  0  0  0  0
  149.0276  138.4098  153.8465 H   0  0  0  0  0  0  0  0  0  0  0  0
  148.8528  141.9502  153.3304 H   0  0  0  0  0  0  0  0  0  0  0  0
  147.2544  142.0707  154.0447 H   0  0  0  0  0  0  0  0  0  0  0  0
  149.0038  142.8983  155.6297 H   0  0  0  0  0  0  0  0  0  0  0  0
  148.1380  141.5246  156.2908 H   0  0  0  0  0  0  0  0  0  0  0  0
  152.0150  144.2945  158.0220 H   0  0  0  0  0  0  0  0  0  0  0  0
  152.2941  140.1924  159.3553 H   0  0  0  0  0  0  0  0  0  0  0  0
  1  2  1  0  0  0  0
  1 17  1  0  0  0  0
  2  3  1  0  0  0  0
  2 18  1  0  0  0  0
  2 19  1  0  0  0  0
  3  4  1  0  0  0  0
  3 20  1  0  0  0  0
  3 21  1  0  0  0  0
  4  9  1  0  0  0  0
  4  5  1  0  0  0  0
  4 22  1  0  0  0  0
  5  6  1  0  0  0  0
  5 23  1  0  0  0  0
  5 24  1  0  0  0  0
  6  7  1  0  0  0  0
  7  8  1  0  0  0  0
  7 25  1  0  0  0  0
  7 26  1  0  0  0  0
  8  9  1  0  0  0  0
  8 27  1  0  0  0  0
  8 28  1  0  0  0  0
  9 10  1  0  0  0  0
 10 16  1  0  0  0  0
 10 11  2  0  0  0  0
 11 12  1  0  0  0  0
 12 13  2  0  0  0  0
 12 29  1  0  0  0  0
 13 14  1  0  0  0  0
 13 15  1  0  0  0  0
 15 16  2  0  0  0  0
 15 30  1  0  0  0  0
M  END
> <s_m_source_file>
AV-unprocessed.smi

> <i_m_source_file_index>
2494

> <i_lp_mmshare_version>
43012

> <i_f3d_flags>
0

> <s_epik_input>
W09IXVtDSDJdW0NIMl1bQ0BASF0xW0NIMl1PW0NIMl1bQ0gyXU4xYzJuW2NIXWMoQ2wpW2NIXW4y

> <s_epik_cmdline>
J2VwaWtfcHl0aG9uJywgJy1waCcsICc3LjAnLCAnLXRuJywgJzgnLCAnLW1hJywgJzIwMCcsICctbWV0YWxfYmluZGluZycsICctaW1hZScsICc8aW5maWxlLm1hZT4nLCAnLW9tYWUnLCAnPG91dGZpbGUubWFlPic=

> <r_lp_tautomer_probability>
1

> <r_epik_Ionization_Penalty>
3.66811e-07

> <r_epik_Ionization_Penalty_Charging>
0

> <r_epik_Ionization_Penalty_Neutral>
3.66811e-07

> <r_epik_State_Penalty>
-0

> <r_epik_Charging_Adjusted_Penalty>
0

> <i_epik_Tot_Q>
0

> <i_epik_Tot_abs_Q>
0

> <r_epik_Metal_State_Penalty>
-0

> <b_epik_Metal_Only>
0

> <s_lp_Force_Field>
OPLS_2005

> <r_lp_Energy>
15.3646

> <b_lp_Chiralities_Consistent>
1

> <s_lp_Variant>
AV-unprocessed.smi:2494-1

> <Gold.Version>
5.8.1

> <Gold.Id.Protein>
6NUR|6NUR_protein|mol2

> <Gold.PLP.Fitness>
34.1679

> <Gold.PLP.PLP>
-29.2809

> <Gold.PLP.part.hbond>
-2.0000

> <Gold.PLP.part.metal>
0.0000

> <Gold.PLP.part.buried>
-0.3261

> <Gold.PLP.part.nonpolar>
-28.2379

> <Gold.PLP.part.repulsive>
1.0740

> <Gold.PLP.ligand.clash>
0.0000

> <Gold.PLP.ligand.torsion>
0.6300

> <Gold.PLP.Chemscore.Hbond>
1.9440

> <Gold.PLP.Chemscore.CHOScore>
0.0000

> <Gold.PLP.Chemscore.Metal>
0.0000

> <Gold.Chemscore.Hbonds>
donor molecule, donor type, donor heavy atom, donor atom, acceptor molecule, acceptor atom, score
      L1  H     1    17       P1  7949  0.26
      P1  H 10752 10763       L1     1  0.95

> <Gold.PLP.Chemscore.Internal.Correction>
0.3150

> <Gold.Rescore>
     Score         DG    S(hbond)    S(metal)    S(lipo)     H(rot)  DE(clash)    DE(int)     intcor
     11.44     -15.22       1.59        0.00      82.50       2.04       1.69       2.09       ----

> <Gold.Chemscore.Fitness>
11.4354

> <Gold.Chemscore.DG>
-15.2161

> <Gold.Chemscore.ZeroCoef>
-5.4800

> <Gold.Chemscore.Hbond>
1.5906

> <Gold.Chemscore.Metal>
0.0000

> <Gold.Chemscore.Lipo>
82.4968

> <Gold.Chemscore.Internal_Hbond>
0.0000

> <Gold.Chemscore.DEClash>
1.6923

> <Gold.Chemscore.DEInternal>
2.0885

> <Gold.Chemscore.Rot>
2.0424

> <Gold.Chemscore.Internal.Correction>
   9.000000E+99

> <Gold.Chemscore.Hbonds>
donor molecule, donor type, donor heavy atom, donor atom, acceptor molecule, acceptor atom, score
      L1  H     1    17       P1  7949  0.16
      P1  H 10752 10763       L1     1  0.20

> <Gold.Chemscore.Hbond.Weighted>
-5.3125

> <Gold.Chemscore.Metal.Weighted>
-0.0000

> <Gold.Chemscore.Lipo.Weighted>
-9.6521

> <Gold.Chemscore.Internal_Hbond.Weighted>
0.0000

> <Gold.Chemscore.DEClash.Weighted>
1.6923

> <Gold.Chemscore.DEInternal.Weighted>
2.0885

> <Gold.Chemscore.Rot.Weighted>
5.2285

> <Gold.Chemscore.Internal.Correction.Weighted>
   9.000000E+99

> <Gold.Protein.RotatedTorsions>
[ 6907 6896 6895 6894 ] final -115.90 input  -60.11 | X-H torsion
[ 7974 7965 7964 7962 ] final  -21.90 input  175.53 | X-H torsion
[ 8008 7997 7996 7995 ] final -156.84 input   59.86 | X-H torsion
[ 10167 10162 10161 10158 ] final -111.87 input  -65.29 | X-H torsion
[ 10718 10713 10712 10709 ] final   -5.52 input   66.30 | X-H torsion
[ 10763 10752 10751 10750 ] final   29.80 input  -60.55 | X-H torsion
[ 11005 11000 10999 10996 ] final -141.45 input  -57.11 | X-H torsion

> <Gold.Protein.ActiveResidues>
 VAL166  LYS551  ARG553  GLY616  TRP617  ASP618  TYR619  PRO620  LYS621  CYS622 
 ASP623  PHE694  ASN695  SER759  ASP760  ASP761  ALA762  ILE779  LEU786  VAL792 
 PHE793  MET794  SER795  GLU796  ALA797  LYS798  CYS799  TRP800  GLU811  SER814 

> <Gold.Protein.RotatedAtoms>
  150.8014  133.8592  159.3226 H   0  0  0  0  0  0  0  0  0  0  0  0  # atno 6907 bound_to 6896
  151.6404  135.1011  160.0149 H   0  0  0  0  0  0  0  0  0  0  0  0  # atno 6908 bound_to 6896
  152.4101  133.6911  159.6425 H   0  0  0  0  0  0  0  0  0  0  0  0  # atno 6909 bound_to 6896
  146.1707  140.4404  142.8534 H   0  0  0  0  0  0  0  0  0  0  0  0  # atno 7974 bound_to 7965
  155.7233  140.0793  157.2321 H   0  0  0  0  0  0  0  0  0  0  0  0  # atno 8008 bound_to 7997
  154.4042  140.1609  156.2480 H   0  0  0  0  0  0  0  0  0  0  0  0  # atno 8009 bound_to 7997
  155.9177  140.3400  155.6151 H   0  0  0  0  0  0  0  0  0  0  0  0  # atno 8010 bound_to 7997
  140.1289  143.4378  152.1641 H   0  0  0  0  0  0  0  0  0  0  0  0  # atno 10167 bound_to 10162
  156.7454  130.5222  149.5815 H   0  0  0  0  0  0  0  0  0  0  0  0  # atno 10718 bound_to 10713
  153.0409  135.6480  154.0946 H   0  0  0  0  0  0  0  0  0  0  0  0  # atno 10763 bound_to 10752
  154.0652  135.2885  155.3319 H   0  0  0  0  0  0  0  0  0  0  0  0  # atno 10764 bound_to 10752
  154.6631  135.5384  153.8107 H   0  0  0  0  0  0  0  0  0  0  0  0  # atno 10765 bound_to 10752
  140.8323  134.2502  157.4851 H   0  0  0  0  0  0  0  0  0  0  0  0  # atno 11005 bound_to 11000
  144.8158  140.6466  143.6385 LP  0  0  0  0  0  0  0  0  0  0  0  0  # atno 17320 bound_to 7965
  145.4348  139.1544  143.4002 LP  0  0  0  0  0  0  0  0  0  0  0  0  # atno 17321 bound_to 7965
  139.5530  144.7352  151.4378 LP  0  0  0  0  0  0  0  0  0  0  0  0  # atno 17342 bound_to 10162
  140.6829  143.8041  150.7146 LP  0  0  0  0  0  0  0  0  0  0  0  0  # atno 17343 bound_to 10162
  156.1437  130.6262  151.0502 LP  0  0  0  0  0  0  0  0  0  0  0  0  # atno 17370 bound_to 10713
  157.6800  131.0840  150.7393 LP  0  0  0  0  0  0  0  0  0  0  0  0  # atno 17371 bound_to 10713
  139.8704  134.9592  156.4325 LP  0  0  0  0  0  0  0  0  0  0  0  0  # atno 17394 bound_to 11000
  140.8985  133.7796  155.9653 LP  0  0  0  0  0  0  0  0  0  0  0  0  # atno 17395 bound_to 11000

$$$$
