AV-unprocessed.smi:416|AV-procd|sdf|2526|dock7
  -GOLD-   2262022483D 1   1.00000     0.00000
 Structure written by MMmdl.
 43 44  0  0  0  0  0  0  0  0  1 V2000
  155.6584  136.9622  163.9545 C   0  0  0  0  0  0  0  0  0  0  0  0
  156.6300  136.4504  162.8718 C   0  0  0  0  0  0  0  0  0  0  0  0
  157.8571  137.3843  162.8139 C   0  0  0  0  0  0  0  0  0  0  0  0
  157.1053  135.0278  163.2516 C   0  0  0  0  0  0  0  0  0  0  0  0
  155.9057  136.4897  161.5039 C   0  0  0  0  0  0  0  0  0  0  0  0
  155.7874  135.4532  160.8488 O   0  0  0  0  0  0  0  0  0  0  0  0
  155.4336  137.6707  161.0680 N   0  0  0  0  0  0  0  0  0  0  0  0
  154.7516  137.9053  159.7991 C   0  0  0  0  0  0  0  0  0  0  0  0
  154.1831  139.3098  159.6773 C   0  0  0  0  0  0  0  0  0  0  0  0
  152.9226  139.5281  159.0878 C   0  0  0  0  0  0  0  0  0  0  0  0
  152.4317  140.8440  158.9888 C   0  0  0  0  0  0  0  0  0  0  0  0
  153.2186  141.9147  159.4775 C   0  0  0  0  0  0  0  0  0  0  0  0
  152.7503  143.2443  159.3866 N   0  0  0  0  0  0  0  0  0  0  0  0
  152.4640  143.9072  160.6570 C   0  0  0  0  0  0  0  0  0  0  0  0
  152.2656  145.4173  160.4417 C   0  0  0  0  0  0  0  0  0  0  0  0
  151.2535  145.6370  159.4651 O   0  0  0  0  0  0  0  0  0  0  0  0
  151.6075  145.0808  158.2035 C   0  0  0  0  0  0  0  0  0  0  0  0
  151.7804  143.5586  158.3383 C   0  0  0  0  0  0  0  0  0  0  0  0
  154.4303  141.6984  160.0469 N   0  0  0  0  0  0  0  0  0  0  0  0
  154.8962  140.4355  160.1392 C   0  0  0  0  0  0  0  0  0  0  0  0
  156.1336  136.9758  164.9360 H   0  0  0  0  0  0  0  0  0  0  0  0
  154.7749  136.3265  164.0295 H   0  0  0  0  0  0  0  0  0  0  0  0
  155.3163  137.9772  163.7472 H   0  0  0  0  0  0  0  0  0  0  0  0
  157.5742  138.4172  162.6050 H   0  0  0  0  0  0  0  0  0  0  0  0
  158.5600  137.0722  162.0402 H   0  0  0  0  0  0  0  0  0  0  0  0
  158.3965  137.3859  163.7617 H   0  0  0  0  0  0  0  0  0  0  0  0
  157.6296  135.0332  164.2079 H   0  0  0  0  0  0  0  0  0  0  0  0
  157.7951  134.6207  162.5107 H   0  0  0  0  0  0  0  0  0  0  0  0
  156.2699  134.3332  163.3506 H   0  0  0  0  0  0  0  0  0  0  0  0
  155.5698  138.4756  161.6625 H   0  0  0  0  0  0  0  0  0  0  0  0
  155.4157  137.7177  158.9538 H   0  0  0  0  0  0  0  0  0  0  0  0
  153.9447  137.1765  159.7164 H   0  0  0  0  0  0  0  0  0  0  0  0
  152.3332  138.7010  158.7199 H   0  0  0  0  0  0  0  0  0  0  0  0
  151.4576  141.0122  158.5550 H   0  0  0  0  0  0  0  0  0  0  0  0
  151.5614  143.4701  161.0857 H   0  0  0  0  0  0  0  0  0  0  0  0
  153.2629  143.7583  161.3815 H   0  0  0  0  0  0  0  0  0  0  0  0
  151.9665  145.8931  161.3755 H   0  0  0  0  0  0  0  0  0  0  0  0
  153.1977  145.8905  160.1282 H   0  0  0  0  0  0  0  0  0  0  0  0
  150.8219  145.3070  157.4827 H   0  0  0  0  0  0  0  0  0  0  0  0
  152.5228  145.5450  157.8329 H   0  0  0  0  0  0  0  0  0  0  0  0
  152.1095  143.1486  157.3826 H   0  0  0  0  0  0  0  0  0  0  0  0
  150.8232  143.0947  158.5810 H   0  0  0  0  0  0  0  0  0  0  0  0
  155.8695  140.3265  160.5938 H   0  0  0  0  0  0  0  0  0  0  0  0
  1  2  1  0  0  0  0
  1 21  1  0  0  0  0
  1 22  1  0  0  0  0
  1 23  1  0  0  0  0
  2  3  1  0  0  0  0
  2  4  1  0  0  0  0
  2  5  1  0  0  0  0
  3 24  1  0  0  0  0
  3 25  1  0  0  0  0
  3 26  1  0  0  0  0
  4 27  1  0  0  0  0
  4 28  1  0  0  0  0
  4 29  1  0  0  0  0
  5  6  2  0  0  0  0
  5  7  1  0  0  0  0
  7  8  1  0  0  0  0
  7 30  1  0  0  0  0
  8  9  1  0  0  0  0
  8 31  1  0  0  0  0
  8 32  1  0  0  0  0
  9 20  1  0  0  0  0
  9 10  2  0  0  0  0
 10 11  1  0  0  0  0
 10 33  1  0  0  0  0
 11 12  2  0  0  0  0
 11 34  1  0  0  0  0
 12 13  1  0  0  0  0
 12 19  1  0  0  0  0
 13 18  1  0  0  0  0
 13 14  1  0  0  0  0
 14 15  1  0  0  0  0
 14 35  1  0  0  0  0
 14 36  1  0  0  0  0
 15 16  1  0  0  0  0
 15 37  1  0  0  0  0
 15 38  1  0  0  0  0
 16 17  1  0  0  0  0
 17 18  1  0  0  0  0
 17 39  1  0  0  0  0
 17 40  1  0  0  0  0
 18 41  1  0  0  0  0
 18 42  1  0  0  0  0
 19 20  2  0  0  0  0
 20 43  1  0  0  0  0
M  END
> <s_m_source_file>
AV-unprocessed.smi

> <i_m_source_file_index>
416

> <i_lp_mmshare_version>
43012

> <i_f3d_flags>
0

> <s_epik_input>
W0NIM11DKFtDSDNdKShbQ0gzXSlDKD1PKVtOSF1bQ0gyXWMxW2NIXVtjSF1jKG5bY0hdMSlOMltDSDJdW0NIMl1PW0NIMl1bQ0gyXTI=

> <s_epik_cmdline>
J2VwaWtfcHl0aG9uJywgJy1waCcsICc3LjAnLCAnLXRuJywgJzgnLCAnLW1hJywgJzIwMCcsICctbWV0YWxfYmluZGluZycsICctaW1hZScsICc8aW5maWxlLm1hZT4nLCAnLW9tYWUnLCAnPG91dGZpbGUubWFlPic=

> <r_lp_tautomer_probability>
1

> <r_epik_Ionization_Penalty>
0.00522353

> <r_epik_Ionization_Penalty_Charging>
0

> <r_epik_Ionization_Penalty_Neutral>
0.00522353

> <r_epik_State_Penalty>
0.0038086

> <r_epik_Charging_Adjusted_Penalty>
0.0038086

> <i_epik_Tot_Q>
0

> <i_epik_Tot_abs_Q>
0

> <r_epik_Metal_State_Penalty>
-0

> <b_epik_Metal_Only>
0

> <s_lp_Force_Field>
OPLS_2005

> <r_lp_Energy>
22.6444

> <b_lp_Chiralities_Consistent>
1

> <s_lp_Variant>
AV-unprocessed.smi:416-1

> <Gold.Version>
5.8.1

> <Gold.Id.Protein>
6NUR|6NUR_protein|mol2

> <Gold.PLP.Fitness>
40.9235

> <Gold.PLP.PLP>
-41.9665

> <Gold.PLP.part.hbond>
-1.0000

> <Gold.PLP.part.metal>
0.0000

> <Gold.PLP.part.buried>
-7.5642

> <Gold.PLP.part.nonpolar>
-33.6234

> <Gold.PLP.part.repulsive>
0.1718

> <Gold.PLP.ligand.clash>
0.0000

> <Gold.PLP.ligand.torsion>
0.6948

> <Gold.PLP.Chemscore.Hbond>
0.0000

> <Gold.PLP.Chemscore.CHOScore>
0.0000

> <Gold.PLP.Chemscore.Metal>
0.0000

> <Gold.PLP.Chemscore.Internal.Correction>
0.3466

> <Gold.Rescore>
     Score         DG    S(hbond)    S(metal)    S(lipo)     H(rot)  DE(clash)    DE(int)     intcor
     14.20     -14.70       0.00        0.00     111.97       1.52       0.04       0.46       ----

> <Gold.Chemscore.Fitness>
14.2032

> <Gold.Chemscore.DG>
-14.6965

> <Gold.Chemscore.ZeroCoef>
-5.4800

> <Gold.Chemscore.Hbond>
0.0000

> <Gold.Chemscore.Metal>
0.0000

> <Gold.Chemscore.Lipo>
111.9729

> <Gold.Chemscore.Internal_Hbond>
0.0000

> <Gold.Chemscore.DEClash>
0.0373

> <Gold.Chemscore.DEInternal>
0.4560

> <Gold.Chemscore.Rot>
1.5173

> <Gold.Chemscore.Internal.Correction>
   9.000000E+99

> <Gold.Chemscore.Hbond.Weighted>
-0.0000

> <Gold.Chemscore.Metal.Weighted>
-0.0000

> <Gold.Chemscore.Lipo.Weighted>
-13.1008

> <Gold.Chemscore.Internal_Hbond.Weighted>
0.0000

> <Gold.Chemscore.DEClash.Weighted>
0.0373

> <Gold.Chemscore.DEInternal.Weighted>
0.4560

> <Gold.Chemscore.Rot.Weighted>
3.8843

> <Gold.Chemscore.Internal.Correction.Weighted>
   9.000000E+99

> <Gold.Protein.RotatedTorsions>
[ 6907 6896 6895 6894 ] final   28.74 input  -60.11 | X-H torsion
[ 7974 7965 7964 7962 ] final   68.25 input  175.53 | X-H torsion
[ 8008 7997 7996 7995 ] final -133.80 input   59.86 | X-H torsion
[ 10167 10162 10161 10158 ] final  -12.55 input  -65.29 | X-H torsion
[ 10718 10713 10712 10709 ] final -109.22 input   66.30 | X-H torsion
[ 10763 10752 10751 10750 ] final  -51.98 input  -60.55 | X-H torsion
[ 11005 11000 10999 10996 ] final  -80.98 input  -57.11 | X-H torsion

> <Gold.Protein.ActiveResidues>
 VAL166  LYS551  ARG553  GLY616  TRP617  ASP618  TYR619  PRO620  LYS621  CYS622 
 ASP623  PHE694  ASN695  SER759  ASP760  ASP761  ALA762  ILE779  LEU786  VAL792 
 PHE793  MET794  SER795  GLU796  ALA797  LYS798  CYS799  TRP800  GLU811  SER814 

> <Gold.Protein.RotatedAtoms>
  152.0213  134.9821  160.0570 H   0  0  0  0  0  0  0  0  0  0  0  0  # atno 6907 bound_to 6896
  152.1334  133.4416  159.4740 H   0  0  0  0  0  0  0  0  0  0  0  0  # atno 6908 bound_to 6896
  150.6858  134.2311  159.4478 H   0  0  0  0  0  0  0  0  0  0  0  0  # atno 6909 bound_to 6896
  145.8049  139.3001  143.1133 H   0  0  0  0  0  0  0  0  0  0  0  0  # atno 7974 bound_to 7965
  155.3516  140.0477  157.3046 H   0  0  0  0  0  0  0  0  0  0  0  0  # atno 8008 bound_to 7997
  154.5224  140.2229  155.8915 H   0  0  0  0  0  0  0  0  0  0  0  0  # atno 8009 bound_to 7997
  156.1704  140.3097  155.8969 H   0  0  0  0  0  0  0  0  0  0  0  0  # atno 8010 bound_to 7997
  140.7164  143.5520  150.9291 H   0  0  0  0  0  0  0  0  0  0  0  0  # atno 10167 bound_to 10162
  156.0525  130.5752  150.8069 H   0  0  0  0  0  0  0  0  0  0  0  0  # atno 10718 bound_to 10713
  154.1353  135.6513  153.4930 H   0  0  0  0  0  0  0  0  0  0  0  0  # atno 10763 bound_to 10752
  153.0182  135.5302  154.6959 H   0  0  0  0  0  0  0  0  0  0  0  0  # atno 10764 bound_to 10752
  154.6206  135.2964  155.0301 H   0  0  0  0  0  0  0  0  0  0  0  0  # atno 10765 bound_to 10752
  141.1667  133.7175  156.8354 H   0  0  0  0  0  0  0  0  0  0  0  0  # atno 11005 bound_to 11000
  145.9839  140.8660  143.0100 LP  0  0  0  0  0  0  0  0  0  0  0  0  # atno 17320 bound_to 7965
  144.6764  140.2119  143.7376 LP  0  0  0  0  0  0  0  0  0  0  0  0  # atno 17321 bound_to 7965
  139.9244  143.6567  152.3090 LP  0  0  0  0  0  0  0  0  0  0  0  0  # atno 17342 bound_to 10162
  139.6996  144.7637  151.1297 LP  0  0  0  0  0  0  0  0  0  0  0  0  # atno 17343 bound_to 10162
  157.5465  131.0942  150.9755 LP  0  0  0  0  0  0  0  0  0  0  0  0  # atno 17370 bound_to 10713
  157.0025  130.5605  149.5313 LP  0  0  0  0  0  0  0  0  0  0  0  0  # atno 17371 bound_to 10713
  140.2021  134.8889  157.3181 LP  0  0  0  0  0  0  0  0  0  0  0  0  # atno 17394 bound_to 11000
  140.2176  134.4062  155.7581 LP  0  0  0  0  0  0  0  0  0  0  0  0  # atno 17395 bound_to 11000

$$$$
