AV-unprocessed.smi:623|AV-procd|sdf|3098|dock10
  -GOLD-   22720 0 23D 1   1.00000     0.00000
 Structure written by MMmdl.
 44 46  0  0  0  0  0  0  0  0  2 V2000
  143.3067  133.7710  151.6610 C   0  0  0  0  0  0  0  0  0  0  0  0
  144.3657  134.3599  152.6353 C   0  0  0  0  0  0  0  0  0  0  0  0
  143.8416  134.0354  154.0621 C   0  0  0  0  0  0  0  0  0  0  0  0
  145.8062  133.8791  152.3673 C   0  0  1  0  0  0  0  0  0  0  0  0
  146.1203  134.4317  150.9597 C   0  0  0  0  0  0  0  0  0  0  0  0
  145.3730  135.7795  150.9557 C   0  0  0  0  0  0  0  0  0  0  0  0
  144.7651  135.8400  152.3855 C   0  0  1  0  0  0  0  0  0  0  0  0
  143.6337  136.8737  152.5157 C   0  0  0  0  0  0  0  0  0  0  0  0
  145.9259  136.0611  153.4033 C   0  0  2  0  0  0  0  0  0  0  0  0
  146.8031  137.1792  153.0585 N   0  0  0  0  0  0  0  0  0  0  0  0
  147.0028  138.2675  153.8159 C   0  0  0  0  0  0  0  0  0  0  0  0
  146.4661  138.4318  154.9124 O   0  0  0  0  0  0  0  0  0  0  0  0
  147.9824  139.3045  153.2489 C   0  0  0  0  0  0  0  0  0  0  0  0
  149.2409  139.3952  154.0066 N   0  0  0  0  0  0  0  0  0  0  0  0
  149.9245  138.1975  154.2796 C   0  0  0  0  0  0  0  0  0  0  0  0
  151.0807  138.1806  154.9699 C   0  0  0  0  0  0  0  0  0  0  0  0
  151.6230  139.4497  155.4385 C   0  0  0  0  0  0  0  0  0  0  0  0
  152.6803  139.4538  156.0660 O   0  0  0  0  0  0  0  0  0  0  0  0
  150.9202  140.5847  155.1526 N   0  5  0  0  0  0  0  0  0  0  0  0
  149.7431  140.5861  154.4527 C   0  0  0  0  0  0  0  0  0  0  0  0
  149.1224  141.6216  154.2095 O   0  0  0  0  0  0  0  0  0  0  0  0
  146.6550  134.6953  153.3671 C   0  0  0  0  0  0  0  0  0  0  0  0
  143.1947  132.6981  151.8207 H   0  0  0  0  0  0  0  0  0  0  0  0
  143.5274  133.8999  150.6037 H   0  0  0  0  0  0  0  0  0  0  0  0
  142.3293  134.2225  151.8319 H   0  0  0  0  0  0  0  0  0  0  0  0
  144.4756  134.3758  154.8774 H   0  0  0  0  0  0  0  0  0  0  0  0
  143.7287  132.9585  154.1921 H   0  0  0  0  0  0  0  0  0  0  0  0
  142.8603  134.4818  154.2250 H   0  0  0  0  0  0  0  0  0  0  0  0
  145.9568  132.8025  152.4526 H   0  0  0  0  0  0  0  0  0  0  0  0
  147.1911  134.5551  150.7932 H   0  0  0  0  0  0  0  0  0  0  0  0
  145.7493  133.7711  150.1759 H   0  0  0  0  0  0  0  0  0  0  0  0
  146.0319  136.6141  150.7180 H   0  0  0  0  0  0  0  0  0  0  0  0
  144.5963  135.7896  150.1909 H   0  0  0  0  0  0  0  0  0  0  0  0
  144.0001  137.8803  152.3132 H   0  0  0  0  0  0  0  0  0  0  0  0
  143.2093  136.8738  153.5198 H   0  0  0  0  0  0  0  0  0  0  0  0
  142.8258  136.6702  151.8128 H   0  0  0  0  0  0  0  0  0  0  0  0
  145.5232  136.2500  154.3996 H   0  0  0  0  0  0  0  0  0  0  0  0
  147.2824  137.1257  152.1717 H   0  0  0  0  0  0  0  0  0  0  0  0
  148.1859  139.0458  152.2089 H   0  0  0  0  0  0  0  0  0  0  0  0
  147.4948  140.2805  153.2096 H   0  0  0  0  0  0  0  0  0  0  0  0
  149.4514  137.3024  153.9033 H   0  0  0  0  0  0  0  0  0  0  0  0
  151.5916  137.2512  155.1739 H   0  0  0  0  0  0  0  0  0  0  0  0
  146.6661  134.2324  154.3539 H   0  0  0  0  0  0  0  0  0  0  0  0
  147.6953  134.7716  153.0472 H   0  0  0  0  0  0  0  0  0  0  0  0
  1  2  1  0  0  0  0
  1 23  1  0  0  0  0
  1 24  1  0  0  0  0
  1 25  1  0  0  0  0
  2  7  1  0  0  0  0
  2  3  1  0  0  0  0
  2  4  1  0  0  0  0
  3 26  1  0  0  0  0
  3 27  1  0  0  0  0
  3 28  1  0  0  0  0
  4 22  1  0  0  0  0
  4  5  1  0  0  0  0
  4 29  1  0  0  0  0
  5  6  1  0  0  0  0
  5 30  1  0  0  0  0
  5 31  1  0  0  0  0
  6  7  1  0  0  0  0
  6 32  1  0  0  0  0
  6 33  1  0  0  0  0
  7  8  1  0  0  0  0
  7  9  1  0  0  0  0
  8 34  1  0  0  0  0
  8 35  1  0  0  0  0
  8 36  1  0  0  0  0
  9 10  1  0  0  0  0
  9 22  1  0  0  0  0
  9 37  1  0  0  0  0
 10 11  1  0  0  0  0
 10 38  1  0  0  0  0
 11 12  2  0  0  0  0
 11 13  1  0  0  0  0
 13 14  1  0  0  0  0
 13 39  1  0  0  0  0
 13 40  1  0  0  0  0
 14 20  1  0  0  0  0
 14 15  1  0  0  0  0
 15 16  2  0  0  0  0
 15 41  1  0  0  0  0
 16 17  1  0  0  0  0
 16 42  1  0  0  0  0
 17 18  2  0  0  0  0
 17 19  1  0  0  0  0
 19 20  1  0  0  0  0
 20 21  2  0  0  0  0
 22 43  1  0  0  0  0
 22 44  1  0  0  0  0
M  CHG  1  19  -1
M  END
> <s_m_source_file>
AV-unprocessed.smi

> <i_m_source_file_index>
623

> <i_lp_mmshare_version>
43012

> <i_f3d_flags>
0

> <s_epik_input>
W0NIM11bQ0BdMTJDKFtDSDNdKShbQ0gzXSlbQ0BIXShbQ0gyXVtDSDJdMSlbQ0gyXVtDQEBIXTJbTkhdQyg9TylbQ0gyXW4zW2NIXVtjSF1jKD1PKVtuSF1jMz1P

> <s_epik_cmdline>
J2VwaWtfcHl0aG9uJywgJy1waCcsICc3LjAnLCAnLXRuJywgJzgnLCAnLW1hJywgJzIwMCcsICctbWV0YWxfYmluZGluZycsICctaW1hZScsICc8aW5maWxlLm1hZT4nLCAnLW9tYWUnLCAnPG91dGZpbGUubWFlPic=

> <r_lp_tautomer_probability>
0.999537

> <r_epik_Ionization_Penalty>
3.12624

> <r_epik_Ionization_Penalty_Charging>
3.01273e-08

> <r_epik_Ionization_Penalty_Neutral>
3.12624

> <r_epik_State_Penalty>
3.12534

> <r_epik_Charging_Adjusted_Penalty>
3.12534

> <i_epik_Tot_Q>
-1

> <i_epik_Tot_abs_Q>
1

> <r_epik_Metal_State_Penalty>
0.46406

> <b_epik_Metal_Only>
1

> <s_lp_Force_Field>
OPLS_2005

> <r_lp_Energy>
65.8638

> <b_lp_Chiralities_Consistent>
1

> <s_lp_Variant>
AV-unprocessed.smi:623-8

> <Gold.Version>
5.8.1

> <Gold.Id.Protein>
6NUR|6NUR_protein|mol2

> <Gold.PLP.Fitness>
38.0368

> <Gold.PLP.PLP>
-28.4961

> <Gold.PLP.part.hbond>
-4.2241

> <Gold.PLP.part.metal>
0.0000

> <Gold.PLP.part.buried>
6.8560

> <Gold.PLP.part.nonpolar>
-30.7321

> <Gold.PLP.part.repulsive>
0.3522

> <Gold.PLP.ligand.clash>
0.0000

> <Gold.PLP.ligand.torsion>
0.1689

> <Gold.PLP.Chemscore.Hbond>
2.2888

> <Gold.PLP.Chemscore.CHOScore>
1.0000

> <Gold.PLP.Chemscore.Metal>
0.0000

> <Gold.Chemscore.Hbonds>
donor molecule, donor type, donor heavy atom, donor atom, acceptor molecule, acceptor atom, score
      L1  H    10    38       P1  7948  0.53
      P1  H  7989  7998       L1    19  0.12
      P1  H  7997  8010       L1    18  1.00
      P1  H  8011  8017       L1    21  0.41
      L1  C    15    41       P1  7948  1.00

> <Gold.PLP.Chemscore.Internal.Correction>
0.0122

> <Gold.Rescore>
     Score         DG    S(hbond)    S(metal)    S(lipo)     H(rot)  DE(clash)    DE(int)     intcor
     12.48     -14.14       1.92        0.00      54.93       1.63       1.55       0.12       ----

> <Gold.Chemscore.Fitness>
12.4791

> <Gold.Chemscore.DG>
-14.1430

> <Gold.Chemscore.ZeroCoef>
-5.4800

> <Gold.Chemscore.Hbond>
1.9204

> <Gold.Chemscore.Metal>
0.0000

> <Gold.Chemscore.Lipo>
54.9339

> <Gold.Chemscore.Internal_Hbond>
0.0000

> <Gold.Chemscore.DEClash>
1.5454

> <Gold.Chemscore.DEInternal>
0.1185

> <Gold.Chemscore.Rot>
1.6322

> <Gold.Chemscore.Internal.Correction>
   9.000000E+99

> <Gold.Chemscore.Hbonds>
donor molecule, donor type, donor heavy atom, donor atom, acceptor molecule, acceptor atom, score
      L1  H    10    38       P1  7948  0.54
      P1  H  7997  8010       L1    18  1.00
      P1  H  8011  8017       L1    21  0.30

> <Gold.Chemscore.Hbond.Weighted>
-6.4140

> <Gold.Chemscore.Metal.Weighted>
-0.0000

> <Gold.Chemscore.Lipo.Weighted>
-6.4273

> <Gold.Chemscore.Internal_Hbond.Weighted>
0.0000

> <Gold.Chemscore.DEClash.Weighted>
1.5454

> <Gold.Chemscore.DEInternal.Weighted>
0.1185

> <Gold.Chemscore.Rot.Weighted>
4.1783

> <Gold.Chemscore.Internal.Correction.Weighted>
   9.000000E+99

> <Gold.Protein.RotatedTorsions>
[ 6907 6896 6895 6894 ] final   40.18 input  -60.11 | X-H torsion
[ 7974 7965 7964 7962 ] final  120.30 input  175.53 | X-H torsion
[ 8008 7997 7996 7995 ] final   74.90 input   59.86 | X-H torsion
[ 10167 10162 10161 10158 ] final  -76.70 input  -65.29 | X-H torsion
[ 10718 10713 10712 10709 ] final  166.94 input   66.30 | X-H torsion
[ 10763 10752 10751 10750 ] final  142.04 input  -60.55 | X-H torsion
[ 11005 11000 10999 10996 ] final  -48.89 input  -57.11 | X-H torsion

> <Gold.Protein.ActiveResidues>
 VAL166  LYS551  ARG553  GLY616  TRP617  ASP618  TYR619  PRO620  LYS621  CYS622 
 ASP623  PHE694  ASN695  SER759  ASP760  ASP761  ALA762  ILE779  LEU786  VAL792 
 PHE793  MET794  SER795  GLU796  ALA797  LYS798  CYS799  TRP800  GLU811  SER814 

> <Gold.Protein.RotatedAtoms>
  152.1792  134.8769  160.0527 H   0  0  0  0  0  0  0  0  0  0  0  0  # atno 6907 bound_to 6896
  151.9700  133.3717  159.4075 H   0  0  0  0  0  0  0  0  0  0  0  0  # atno 6908 bound_to 6896
  150.6914  134.4074  159.5190 H   0  0  0  0  0  0  0  0  0  0  0  0  # atno 6909 bound_to 6896
  145.1328  139.3317  143.4656 H   0  0  0  0  0  0  0  0  0  0  0  0  # atno 7974 bound_to 7965
  155.8051  140.3475  155.5425 H   0  0  0  0  0  0  0  0  0  0  0  0  # atno 8008 bound_to 7997
  155.8498  140.0954  157.1702 H   0  0  0  0  0  0  0  0  0  0  0  0  # atno 8009 bound_to 7997
  154.4007  140.1378  156.3818 H   0  0  0  0  0  0  0  0  0  0  0  0  # atno 8010 bound_to 7997
  140.4834  143.2397  151.8022 H   0  0  0  0  0  0  0  0  0  0  0  0  # atno 10167 bound_to 10162
  157.0586  131.0333  151.2655 H   0  0  0  0  0  0  0  0  0  0  0  0  # atno 10718 bound_to 10713
  153.9492  135.2972  155.3439 H   0  0  0  0  0  0  0  0  0  0  0  0  # atno 10763 bound_to 10752
  154.7436  135.5013  153.9167 H   0  0  0  0  0  0  0  0  0  0  0  0  # atno 10764 bound_to 10752
  153.1003  135.6732  153.9794 H   0  0  0  0  0  0  0  0  0  0  0  0  # atno 10765 bound_to 10752
  141.0727  133.6674  156.3506 H   0  0  0  0  0  0  0  0  0  0  0  0  # atno 11005 bound_to 11000
  146.3512  140.1333  142.8596 LP  0  0  0  0  0  0  0  0  0  0  0  0  # atno 17320 bound_to 7965
  145.0617  140.9092  143.4935 LP  0  0  0  0  0  0  0  0  0  0  0  0  # atno 17321 bound_to 7965
  139.4837  144.4743  151.9387 LP  0  0  0  0  0  0  0  0  0  0  0  0  # atno 17342 bound_to 10162
  140.3828  144.2714  150.5907 LP  0  0  0  0  0  0  0  0  0  0  0  0  # atno 17343 bound_to 10162
  157.4973  130.7858  149.7568 LP  0  0  0  0  0  0  0  0  0  0  0  0  # atno 17370 bound_to 10713
  155.9985  130.3894  150.2698 LP  0  0  0  0  0  0  0  0  0  0  0  0  # atno 17371 bound_to 10713
  140.5639  134.5907  157.5440 LP  0  0  0  0  0  0  0  0  0  0  0  0  # atno 17394 bound_to 11000
  139.9540  134.7567  156.0384 LP  0  0  0  0  0  0  0  0  0  0  0  0  # atno 17395 bound_to 11000

$$$$
