AV-unprocessed.smi:1120|AV-procd|sdf|4819|dock3
  -GOLD-   22720 3373D 1   1.00000     0.00000
 Structure written by MMmdl.
 48 49  0  0  0  0  0  0  0  0  1 V2000
  146.8124  132.8948  150.9979 C   0  0  0  0  0  0  0  0  0  0  0  0
  147.2468  133.0041  152.4662 C   0  0  2  0  0  0  0  0  0  0  0  0
  146.8619  134.3679  153.0671 C   0  0  0  0  0  0  0  0  0  0  0  0
  147.2735  134.4804  154.5448 C   0  0  0  0  0  0  0  0  0  0  0  0
  148.7644  134.1626  154.7693 C   0  0  2  0  0  0  0  0  0  0  0  0
  149.6092  135.2752  154.3253 N   0  0  0  0  0  0  0  0  0  0  0  0
  150.3987  136.3469  155.4253 S   0  0  0  0  0  0  0  0  0  0  0  0
  149.3437  136.9582  156.2474 O   0  0  0  0  0  0  0  0  0  0  0  0
  151.5052  135.6134  156.0603 O   0  0  0  0  0  0  0  0  0  0  0  0
  151.0683  137.6574  154.3035 C   0  0  0  0  0  0  0  0  0  0  0  0
  151.6981  138.8010  155.0982 C   0  0  0  0  0  0  0  0  0  0  0  0
  152.8946  139.0579  154.9678 O   0  0  0  0  0  0  0  0  0  0  0  0
  150.8838  139.4750  155.9252 N   0  0  0  0  0  0  0  0  0  0  0  0
  151.2872  140.5933  156.7697 C   0  0  0  0  0  0  0  0  0  0  0  0
  151.0007  140.3150  158.2545 C   0  0  0  0  0  0  0  0  0  0  0  0
  151.7014  141.2997  159.1712 C   0  0  0  0  0  0  0  0  0  0  0  0
  152.7185  140.8687  160.0493 C   0  0  0  0  0  0  0  0  0  0  0  0
  153.3360  141.8232  160.8809 C   0  0  0  0  0  0  0  0  0  0  0  0
  152.9142  143.1647  160.8037 C   0  0  0  0  0  0  0  0  0  0  0  0
  151.8888  143.4929  159.8946 C   0  0  0  0  0  0  0  0  0  0  0  0
  151.2902  142.5856  159.0928 N   0  0  0  0  0  0  0  0  0  0  0  0
  149.1996  132.8479  154.0952 C   0  0  0  0  0  0  0  0  0  0  0  0
  148.7589  132.7632  152.6244 C   0  0  0  0  0  0  0  0  0  0  0  0
  147.3073  133.6448  150.3804 H   0  0  0  0  0  0  0  0  0  0  0  0
  145.7362  133.0363  150.8954 H   0  0  0  0  0  0  0  0  0  0  0  0
  147.0551  131.9136  150.5889 H   0  0  0  0  0  0  0  0  0  0  0  0
  146.7200  132.2279  153.0233 H   0  0  0  0  0  0  0  0  0  0  0  0
  147.3345  135.1687  152.4967 H   0  0  0  0  0  0  0  0  0  0  0  0
  145.7862  134.5239  152.9790 H   0  0  0  0  0  0  0  0  0  0  0  0
  147.0302  135.4716  154.9293 H   0  0  0  0  0  0  0  0  0  0  0  0
  146.6755  133.7781  155.1266 H   0  0  0  0  0  0  0  0  0  0  0  0
  148.9203  134.0486  155.8418 H   0  0  0  0  0  0  0  0  0  0  0  0
  149.4889  135.6090  153.3690 H   0  0  0  0  0  0  0  0  0  0  0  0
  151.7760  137.2035  153.6094 H   0  0  0  0  0  0  0  0  0  0  0  0
  150.2377  138.0520  153.7179 H   0  0  0  0  0  0  0  0  0  0  0  0
  149.9149  139.1948  155.9729 H   0  0  0  0  0  0  0  0  0  0  0  0
  152.3547  140.7584  156.6212 H   0  0  0  0  0  0  0  0  0  0  0  0
  150.7845  141.5073  156.4485 H   0  0  0  0  0  0  0  0  0  0  0  0
  149.9273  140.3505  158.4456 H   0  0  0  0  0  0  0  0  0  0  0  0
  151.3244  139.3071  158.5142 H   0  0  0  0  0  0  0  0  0  0  0  0
  153.0192  139.8320  160.0865 H   0  0  0  0  0  0  0  0  0  0  0  0
  154.1187  141.5313  161.5653 H   0  0  0  0  0  0  0  0  0  0  0  0
  153.3651  143.9234  161.4262 H   0  0  0  0  0  0  0  0  0  0  0  0
  151.5400  144.5114  159.8088 H   0  0  0  0  0  0  0  0  0  0  0  0
  150.2793  132.7168  154.1762 H   0  0  0  0  0  0  0  0  0  0  0  0
  148.7540  132.0128  154.6366 H   0  0  0  0  0  0  0  0  0  0  0  0
  149.0246  131.7847  152.2231 H   0  0  0  0  0  0  0  0  0  0  0  0
  149.3121  133.4960  152.0357 H   0  0  0  0  0  0  0  0  0  0  0  0
  1  2  1  0  0  0  0
  1 24  1  0  0  0  0
  1 25  1  0  0  0  0
  1 26  1  0  0  0  0
  2 23  1  0  0  0  0
  2  3  1  0  0  0  0
  2 27  1  0  0  0  0
  3  4  1  0  0  0  0
  3 28  1  0  0  0  0
  3 29  1  0  0  0  0
  4  5  1  0  0  0  0
  4 30  1  0  0  0  0
  4 31  1  0  0  0  0
  5  6  1  0  0  0  0
  5 22  1  0  0  0  0
  5 32  1  0  0  0  0
  6  7  1  0  0  0  0
  6 33  1  0  0  0  0
  7  8  2  0  0  0  0
  7  9  2  0  0  0  0
  7 10  1  0  0  0  0
 10 11  1  0  0  0  0
 10 34  1  0  0  0  0
 10 35  1  0  0  0  0
 11 12  2  0  0  0  0
 11 13  1  0  0  0  0
 13 14  1  0  0  0  0
 13 36  1  0  0  0  0
 14 15  1  0  0  0  0
 14 37  1  0  0  0  0
 14 38  1  0  0  0  0
 15 16  1  0  0  0  0
 15 39  1  0  0  0  0
 15 40  1  0  0  0  0
 16 21  1  0  0  0  0
 16 17  2  0  0  0  0
 17 18  1  0  0  0  0
 17 41  1  0  0  0  0
 18 19  2  0  0  0  0
 18 42  1  0  0  0  0
 19 20  1  0  0  0  0
 19 43  1  0  0  0  0
 20 21  2  0  0  0  0
 20 44  1  0  0  0  0
 22 23  1  0  0  0  0
 22 45  1  0  0  0  0
 22 46  1  0  0  0  0
 23 47  1  0  0  0  0
 23 48  1  0  0  0  0
M  END
> <s_m_source_file>
AV-unprocessed.smi

> <i_m_source_file_index>
1120

> <i_lp_mmshare_version>
43012

> <i_f3d_flags>
0

> <s_epik_input>
W0NIM11bQ0BASF0xW0NIMl1bQ0gyXVtDQEhdKFtDSDJdW0NIMl0xKVtOSF1TKD1PKSg9TylbQ0gyXUMoPU8pW05IXVtDSDJdW0NIMl1jMltjSF1bY0hdW2NIXVtjSF1uMg==

> <s_epik_cmdline>
J2VwaWtfcHl0aG9uJywgJy1waCcsICc3LjAnLCAnLXRuJywgJzgnLCAnLW1hJywgJzIwMCcsICctbWV0YWxfYmluZGluZycsICctaW1hZScsICc8aW5maWxlLm1hZT4nLCAnLW9tYWUnLCAnPG91dGZpbGUubWFlPic=

> <r_epik_Ionization_Penalty>
0.0216068

> <r_epik_Ionization_Penalty_Charging>
0

> <r_epik_Ionization_Penalty_Neutral>
0.0216068

> <r_epik_State_Penalty>
0.01735

> <r_epik_Charging_Adjusted_Penalty>
0.01735

> <i_epik_Tot_Q>
0

> <i_epik_Tot_abs_Q>
0

> <r_epik_Metal_State_Penalty>
0.0535325

> <b_epik_Metal_Only>
0

> <s_lp_Force_Field>
OPLS_2005

> <r_lp_Energy>
6.87343

> <b_lp_Chiralities_Consistent>
1

> <s_lp_Variant>
AV-unprocessed.smi:1120-2

> <Gold.Version>
5.8.1

> <Gold.Id.Protein>
6NUR|6NUR_protein|mol2

> <Gold.PLP.Fitness>
50.5229

> <Gold.PLP.PLP>
-42.9613

> <Gold.PLP.part.hbond>
-3.2622

> <Gold.PLP.part.metal>
0.0000

> <Gold.PLP.part.buried>
-4.5581

> <Gold.PLP.part.nonpolar>
-34.2839

> <Gold.PLP.part.repulsive>
0.2252

> <Gold.PLP.ligand.clash>
0.0000

> <Gold.PLP.ligand.torsion>
0.8968

> <Gold.PLP.Chemscore.Hbond>
2.7296

> <Gold.PLP.Chemscore.CHOScore>
0.0000

> <Gold.PLP.Chemscore.Metal>
0.0000

> <Gold.Chemscore.Hbonds>
donor molecule, donor type, donor heavy atom, donor atom, acceptor molecule, acceptor atom, score
      L1  H     6    33       P1  7948  0.85
      P1  H  7997  8008       L1    12  0.65
      P1  H 10752 10763       L1     9  1.00

> <Gold.PLP.Chemscore.Internal.Correction>
1.1664

> <Gold.Rescore>
     Score         DG    S(hbond)    S(metal)    S(lipo)     H(rot)  DE(clash)    DE(int)     intcor
     19.96     -21.03       2.67        0.00      98.86       1.92       0.16       0.91       ----

> <Gold.Chemscore.Fitness>
19.9591

> <Gold.Chemscore.DG>
-21.0320

> <Gold.Chemscore.ZeroCoef>
-5.4800

> <Gold.Chemscore.Hbond>
2.6680

> <Gold.Chemscore.Metal>
0.0000

> <Gold.Chemscore.Lipo>
98.8577

> <Gold.Chemscore.Internal_Hbond>
0.0000

> <Gold.Chemscore.DEClash>
0.1589

> <Gold.Chemscore.DEInternal>
0.9140

> <Gold.Chemscore.Rot>
1.9241

> <Gold.Chemscore.Internal.Correction>
   9.000000E+99

> <Gold.Chemscore.Hbonds>
donor molecule, donor type, donor heavy atom, donor atom, acceptor molecule, acceptor atom, score
      L1  H     6    33       P1  7948  0.15
      P1  H  7997  8008       L1    12  0.64
      P1  H 10752 10763       L1     9  0.78

> <Gold.Chemscore.Hbond.Weighted>
-8.9112

> <Gold.Chemscore.Metal.Weighted>
-0.0000

> <Gold.Chemscore.Lipo.Weighted>
-11.5663

> <Gold.Chemscore.Internal_Hbond.Weighted>
0.0000

> <Gold.Chemscore.DEClash.Weighted>
0.1589

> <Gold.Chemscore.DEInternal.Weighted>
0.9140

> <Gold.Chemscore.Rot.Weighted>
4.9256

> <Gold.Chemscore.Internal.Correction.Weighted>
   9.000000E+99

> <Gold.Protein.RotatedTorsions>
[ 6907 6896 6895 6894 ] final  143.63 input  -60.11 | X-H torsion
[ 7974 7965 7964 7962 ] final -130.24 input  175.53 | X-H torsion
[ 8008 7997 7996 7995 ] final   -3.66 input   59.86 | X-H torsion
[ 10167 10162 10161 10158 ] final -164.87 input  -65.29 | X-H torsion
[ 10718 10713 10712 10709 ] final   90.74 input   66.30 | X-H torsion
[ 10763 10752 10751 10750 ] final   76.22 input  -60.55 | X-H torsion
[ 11005 11000 10999 10996 ] final  -93.08 input  -57.11 | X-H torsion

> <Gold.Protein.ActiveResidues>
 VAL166  LYS551  ARG553  GLY616  TRP617  ASP618  TYR619  PRO620  LYS621  CYS622 
 ASP623  PHE694  ASN695  SER759  ASP760  ASP761  ALA762  ILE779  LEU786  VAL792 
 PHE793  MET794  SER795  GLU796  ALA797  LYS798  CYS799  TRP800  GLU811  SER814 

> <Gold.Protein.RotatedAtoms>
  152.2038  133.4860  159.5072 H   0  0  0  0  0  0  0  0  0  0  0  0  # atno 6907 bound_to 6896
  150.6975  134.1556  159.4166 H   0  0  0  0  0  0  0  0  0  0  0  0  # atno 6908 bound_to 6896
  151.9474  135.0185  160.0590 H   0  0  0  0  0  0  0  0  0  0  0  0  # atno 6909 bound_to 6896
  144.9494  140.7327  143.4797 H   0  0  0  0  0  0  0  0  0  0  0  0  # atno 7974 bound_to 7965
  154.6225  140.2503  155.7532 H   0  0  0  0  0  0  0  0  0  0  0  0  # atno 8008 bound_to 7997
  156.2435  140.2923  156.0459 H   0  0  0  0  0  0  0  0  0  0  0  0  # atno 8009 bound_to 7997
  155.1874  140.0390  157.2884 H   0  0  0  0  0  0  0  0  0  0  0  0  # atno 8010 bound_to 7997
  139.6221  144.0604  152.1942 H   0  0  0  0  0  0  0  0  0  0  0  0  # atno 10167 bound_to 10162
  157.6959  131.0382  150.3623 H   0  0  0  0  0  0  0  0  0  0  0  0  # atno 10718 bound_to 10713
  153.0710  135.4959  154.8304 H   0  0  0  0  0  0  0  0  0  0  0  0  # atno 10763 bound_to 10752
  154.7022  135.3004  154.9326 H   0  0  0  0  0  0  0  0  0  0  0  0  # atno 10764 bound_to 10752
  154.0047  135.6762  153.4814 H   0  0  0  0  0  0  0  0  0  0  0  0  # atno 10765 bound_to 10752
  141.1506  133.7863  157.0109 H   0  0  0  0  0  0  0  0  0  0  0  0  # atno 11005 bound_to 11000
  145.2868  139.1898  143.4761 LP  0  0  0  0  0  0  0  0  0  0  0  0  # atno 17320 bound_to 7965
  146.3315  140.2838  142.8611 LP  0  0  0  0  0  0  0  0  0  0  0  0  # atno 17321 bound_to 7965
  140.0248  144.6125  150.7536 LP  0  0  0  0  0  0  0  0  0  0  0  0  # atno 17342 bound_to 10162
  140.7388  143.2783  151.3674 LP  0  0  0  0  0  0  0  0  0  0  0  0  # atno 17343 bound_to 10162
  156.4058  130.3924  149.6927 LP  0  0  0  0  0  0  0  0  0  0  0  0  # atno 17370 bound_to 10713
  156.4228  130.7777  151.2795 LP  0  0  0  0  0  0  0  0  0  0  0  0  # atno 17371 bound_to 10713
  140.0878  134.9610  157.1728 LP  0  0  0  0  0  0  0  0  0  0  0  0  # atno 17394 bound_to 11000
  140.3487  134.2622  155.7201 LP  0  0  0  0  0  0  0  0  0  0  0  0  # atno 17395 bound_to 11000

$$$$
