AV-unprocessed.smi:1269|AV-procd|sdf|5329|dock9
  -GOLD-   22720 4463D 1   1.00000     0.00000
 Structure written by MMmdl.
 44 45  0  0  0  0  0  0  0  0  2 V2000
  153.0734  139.3391  158.7253 C   0  0  0  0  0  0  0  0  0  0  0  0
  152.9750  139.5891  157.3275 O   0  0  0  0  0  0  0  0  0  0  0  0
  152.2257  138.7227  156.5583 C   0  0  0  0  0  0  0  0  0  0  0  0
  152.0710  139.0011  155.1859 C   0  0  0  0  0  0  0  0  0  0  0  0
  151.3103  138.1210  154.3927 C   0  0  0  0  0  0  0  0  0  0  0  0
  150.7188  136.9872  155.0011 C   0  0  0  0  0  0  0  0  0  0  0  0
  149.9411  136.0108  154.3187 N   0  0  0  0  0  0  0  0  0  0  0  0
  149.5376  134.7997  154.7393 C   0  0  0  0  0  0  0  0  0  0  0  0
  149.8129  134.2901  155.8245 O   0  0  0  0  0  0  0  0  0  0  0  0
  148.7748  134.1969  153.8150 N   0  0  0  0  0  0  0  0  0  0  0  0
  148.1743  132.8662  153.9280 C   0  0  2  0  0  0  0  0  0  0  0  0
  149.2380  131.8776  154.4248 C   0  0  0  0  0  0  0  0  0  0  0  0
  147.5657  132.4068  152.5826 C   0  0  0  0  0  0  0  0  0  0  0  0
  146.2193  132.9790  152.3274 N   0  3  0  0  0  0  0  0  0  0  0  0
  146.2583  134.4002  151.9109 C   0  0  0  0  0  0  0  0  0  0  0  0
  144.8286  134.9451  151.7507 C   0  0  0  0  0  0  0  0  0  0  0  0
  144.1130  134.1475  150.8149 O   0  0  0  0  0  0  0  0  0  0  0  0
  144.0034  132.7939  151.2391 C   0  0  0  0  0  0  0  0  0  0  0  0
  145.4076  132.1832  151.3750 C   0  0  0  0  0  0  0  0  0  0  0  0
  150.9400  136.7971  156.3813 C   0  0  0  0  0  0  0  0  0  0  0  0
  151.6695  137.6353  157.1467 N   0  0  0  0  0  0  0  0  0  0  0  0
  153.6939  140.1079  159.1856 H   0  0  0  0  0  0  0  0  0  0  0  0
  153.5397  138.3734  158.9259 H   0  0  0  0  0  0  0  0  0  0  0  0
  152.0949  139.3714  159.2069 H   0  0  0  0  0  0  0  0  0  0  0  0
  152.5319  139.8740  154.7477 H   0  0  0  0  0  0  0  0  0  0  0  0
  151.2113  138.3341  153.3407 H   0  0  0  0  0  0  0  0  0  0  0  0
  149.6754  136.2610  153.3773 H   0  0  0  0  0  0  0  0  0  0  0  0
  148.6057  134.6932  152.9518 H   0  0  0  0  0  0  0  0  0  0  0  0
  147.3907  132.8905  154.6865 H   0  0  0  0  0  0  0  0  0  0  0  0
  148.8164  130.8804  154.5550 H   0  0  0  0  0  0  0  0  0  0  0  0
  149.6451  132.1887  155.3877 H   0  0  0  0  0  0  0  0  0  0  0  0
  150.0682  131.7980  153.7221 H   0  0  0  0  0  0  0  0  0  0  0  0
  148.2413  132.7163  151.7833 H   0  0  0  0  0  0  0  0  0  0  0  0
  147.5160  131.3179  152.5312 H   0  0  0  0  0  0  0  0  0  0  0  0
  146.7927  134.9917  152.6553 H   0  0  0  0  0  0  0  0  0  0  0  0
  146.8051  134.4929  150.9712 H   0  0  0  0  0  0  0  0  0  0  0  0
  144.3071  134.9571  152.7093 H   0  0  0  0  0  0  0  0  0  0  0  0
  144.8561  135.9737  151.3906 H   0  0  0  0  0  0  0  0  0  0  0  0
  143.4614  132.7372  152.1848 H   0  0  0  0  0  0  0  0  0  0  0  0
  143.4214  132.2380  150.5037 H   0  0  0  0  0  0  0  0  0  0  0  0
  145.9003  132.1585  150.4017 H   0  0  0  0  0  0  0  0  0  0  0  0
  145.3223  131.1517  151.7153 H   0  0  0  0  0  0  0  0  0  0  0  0
  150.5170  135.9434  156.8910 H   0  0  0  0  0  0  0  0  0  0  0  0
  145.7324  132.9596  153.2125 H   0  0  0  0  0  0  0  0  0  0  0  0
  1  2  1  0  0  0  0
  1 22  1  0  0  0  0
  1 23  1  0  0  0  0
  1 24  1  0  0  0  0
  2  3  1  0  0  0  0
  3 21  1  0  0  0  0
  3  4  2  0  0  0  0
  4  5  1  0  0  0  0
  4 25  1  0  0  0  0
  5  6  2  0  0  0  0
  5 26  1  0  0  0  0
  6  7  1  0  0  0  0
  6 20  1  0  0  0  0
  7  8  1  0  0  0  0
  7 27  1  0  0  0  0
  8  9  2  0  0  0  0
  8 10  1  0  0  0  0
 10 11  1  0  0  0  0
 10 28  1  0  0  0  0
 11 12  1  0  0  0  0
 11 13  1  0  0  0  0
 11 29  1  0  0  0  0
 12 30  1  0  0  0  0
 12 31  1  0  0  0  0
 12 32  1  0  0  0  0
 13 14  1  0  0  0  0
 13 33  1  0  0  0  0
 13 34  1  0  0  0  0
 14 19  1  0  0  0  0
 14 15  1  0  0  0  0
 14 44  1  0  0  0  0
 15 16  1  0  0  0  0
 15 35  1  0  0  0  0
 15 36  1  0  0  0  0
 16 17  1  0  0  0  0
 16 37  1  0  0  0  0
 16 38  1  0  0  0  0
 17 18  1  0  0  0  0
 18 19  1  0  0  0  0
 18 39  1  0  0  0  0
 18 40  1  0  0  0  0
 19 41  1  0  0  0  0
 19 42  1  0  0  0  0
 20 21  2  0  0  0  0
 20 43  1  0  0  0  0
M  CHG  1  14   1
M  END
> <s_m_source_file>
AV-unprocessed.smi

> <i_m_source_file_index>
1269

> <i_lp_mmshare_version>
43012

> <i_f3d_flags>
0

> <s_epik_input>
W0NIM11PYzFbY0hdW2NIXWMoW2NIXW4xKVtOSF1DKD1PKVtOSF1bQ0BIXShbQ0gzXSlbQ0gyXU4yW0NIMl1bQ0gyXU9bQ0gyXVtDSDJdMg==

> <s_epik_cmdline>
J2VwaWtfcHl0aG9uJywgJy1waCcsICc3LjAnLCAnLXRuJywgJzgnLCAnLW1hJywgJzIwMCcsICctbWV0YWxfYmluZGluZycsICctaW1hZScsICc8aW5maWxlLm1hZT4nLCAnLW9tYWUnLCAnPG91dGZpbGUubWFlPic=

> <r_lp_tautomer_probability>
1

> <r_epik_Ionization_Penalty>
0.602604

> <r_epik_Ionization_Penalty_Charging>
0.602531

> <r_epik_Ionization_Penalty_Neutral>
7.37831e-05

> <r_epik_State_Penalty>
0.617039

> <r_epik_Charging_Adjusted_Penalty>
1.21957

> <i_epik_Tot_Q>
1

> <i_epik_Tot_abs_Q>
1

> <r_epik_Metal_State_Penalty>
0.617045

> <b_epik_Metal_Only>
0

> <s_lp_Force_Field>
OPLS_2005

> <r_lp_Energy>
25.4267

> <b_lp_Chiralities_Consistent>
1

> <s_lp_Variant>
AV-unprocessed.smi:1269-3

> <Gold.Version>
5.8.1

> <Gold.Id.Protein>
6NUR|6NUR_protein|mol2

> <Gold.PLP.Fitness>
40.8038

> <Gold.PLP.PLP>
-32.9189

> <Gold.PLP.part.hbond>
-3.9091

> <Gold.PLP.part.metal>
0.0000

> <Gold.PLP.part.buried>
-1.8622

> <Gold.PLP.part.nonpolar>
-27.0040

> <Gold.PLP.part.repulsive>
0.2672

> <Gold.PLP.ligand.clash>
0.0000

> <Gold.PLP.ligand.torsion>
0.5605

> <Gold.PLP.Chemscore.Hbond>
2.9920

> <Gold.PLP.Chemscore.CHOScore>
0.0000

> <Gold.PLP.Chemscore.Metal>
0.0000

> <Gold.Chemscore.Hbonds>
donor molecule, donor type, donor heavy atom, donor atom, acceptor molecule, acceptor atom, score
      L1  H     7    27       P1  7948  1.00
      L1  H    10    28       P1  7948  0.98
      P1  H  7997  8008       L1     2  1.00

> <Gold.PLP.Chemscore.Internal.Correction>
0.0300

> <Gold.Rescore>
     Score         DG    S(hbond)    S(metal)    S(lipo)     H(rot)  DE(clash)    DE(int)     intcor
     13.13     -16.53       2.32        0.00      67.08       1.78       0.20       3.19       ----

> <Gold.Chemscore.Fitness>
13.1319

> <Gold.Chemscore.DG>
-16.5270

> <Gold.Chemscore.ZeroCoef>
-5.4800

> <Gold.Chemscore.Hbond>
2.3220

> <Gold.Chemscore.Metal>
0.0000

> <Gold.Chemscore.Lipo>
67.0825

> <Gold.Chemscore.Internal_Hbond>
0.0000

> <Gold.Chemscore.DEClash>
0.2049

> <Gold.Chemscore.DEInternal>
3.1903

> <Gold.Chemscore.Rot>
1.7801

> <Gold.Chemscore.Internal.Correction>
   9.000000E+99

> <Gold.Chemscore.Hbonds>
donor molecule, donor type, donor heavy atom, donor atom, acceptor molecule, acceptor atom, score
      L1  H     7    27       P1  7948  0.25
      L1  H    10    28       P1  7948  0.24
      P1  H  7997  8008       L1     2  0.77

> <Gold.Chemscore.Hbond.Weighted>
-7.7554

> <Gold.Chemscore.Metal.Weighted>
-0.0000

> <Gold.Chemscore.Lipo.Weighted>
-7.8487

> <Gold.Chemscore.Internal_Hbond.Weighted>
0.0000

> <Gold.Chemscore.DEClash.Weighted>
0.2049

> <Gold.Chemscore.DEInternal.Weighted>
3.1903

> <Gold.Chemscore.Rot.Weighted>
4.5570

> <Gold.Chemscore.Internal.Correction.Weighted>
   9.000000E+99

> <Gold.Protein.RotatedTorsions>
[ 6907 6896 6895 6894 ] final -137.85 input  -60.11 | X-H torsion
[ 7974 7965 7964 7962 ] final  -16.22 input  175.53 | X-H torsion
[ 8008 7997 7996 7995 ] final  -53.47 input   59.86 | X-H torsion
[ 10167 10162 10161 10158 ] final -100.39 input  -65.29 | X-H torsion
[ 10718 10713 10712 10709 ] final   46.81 input   66.30 | X-H torsion
[ 10763 10752 10751 10750 ] final   95.97 input  -60.55 | X-H torsion
[ 11005 11000 10999 10996 ] final  125.07 input  -57.11 | X-H torsion

> <Gold.Protein.ActiveResidues>
 VAL166  LYS551  ARG553  GLY616  TRP617  ASP618  TYR619  PRO620  LYS621  CYS622 
 ASP623  PHE694  ASN695  SER759  ASP760  ASP761  ALA762  ILE779  LEU786  VAL792 
 PHE793  MET794  SER795  GLU796  ALA797  LYS798  CYS799  TRP800  GLU811  SER814 

> <Gold.Protein.RotatedAtoms>
  151.0276  133.5820  159.2664 H   0  0  0  0  0  0  0  0  0  0  0  0  # atno 6907 bound_to 6896
  151.2913  135.0742  159.9215 H   0  0  0  0  0  0  0  0  0  0  0  0  # atno 6908 bound_to 6896
  152.5337  133.9974  159.7933 H   0  0  0  0  0  0  0  0  0  0  0  0  # atno 6909 bound_to 6896
  146.1997  140.3605  142.8428 H   0  0  0  0  0  0  0  0  0  0  0  0  # atno 7974 bound_to 7965
  154.4134  140.1199  156.5158 H   0  0  0  0  0  0  0  0  0  0  0  0  # atno 8008 bound_to 7997
  155.6752  140.3496  155.4814 H   0  0  0  0  0  0  0  0  0  0  0  0  # atno 8009 bound_to 7997
  155.9598  140.1121  157.0895 H   0  0  0  0  0  0  0  0  0  0  0  0  # atno 8010 bound_to 7997
  140.2524  143.3463  152.0702 H   0  0  0  0  0  0  0  0  0  0  0  0  # atno 10167 bound_to 10162
  157.4519  130.8144  149.7797 H   0  0  0  0  0  0  0  0  0  0  0  0  # atno 10718 bound_to 10713
  153.2594  135.4235  155.0879 H   0  0  0  0  0  0  0  0  0  0  0  0  # atno 10763 bound_to 10752
  154.8414  135.3445  154.6399 H   0  0  0  0  0  0  0  0  0  0  0  0  # atno 10764 bound_to 10752
  153.6819  135.7038  153.5172 H   0  0  0  0  0  0  0  0  0  0  0  0  # atno 10765 bound_to 10752
  139.9389  134.9637  156.8503 H   0  0  0  0  0  0  0  0  0  0  0  0  # atno 11005 bound_to 11000
  144.8657  140.7202  143.6079 LP  0  0  0  0  0  0  0  0  0  0  0  0  # atno 17320 bound_to 7965
  145.3525  139.1702  143.4427 LP  0  0  0  0  0  0  0  0  0  0  0  0  # atno 17321 bound_to 7965
  139.5042  144.6770  151.6102 LP  0  0  0  0  0  0  0  0  0  0  0  0  # atno 17342 bound_to 10162
  140.6030  143.9575  150.6399 LP  0  0  0  0  0  0  0  0  0  0  0  0  # atno 17343 bound_to 10162
  155.9991  130.3890  150.2677 LP  0  0  0  0  0  0  0  0  0  0  0  0  # atno 17370 bound_to 10713
  157.0849  131.0154  151.3143 LP  0  0  0  0  0  0  0  0  0  0  0  0  # atno 17371 bound_to 10713
  140.6004  134.0177  155.7535 LP  0  0  0  0  0  0  0  0  0  0  0  0  # atno 17394 bound_to 11000
  141.1014  133.9761  157.3071 LP  0  0  0  0  0  0  0  0  0  0  0  0  # atno 17395 bound_to 11000

$$$$
