AV-unprocessed.smi:2134|AV-procd|sdf|8694|dock4
  -GOLD-   2272011453D 1   1.00000     0.00000
 Structure written by MMmdl.
 35 36  0  0  0  0  0  0  0  0  1 V2000
  149.0072  139.7635  154.3913 C   0  0  0  0  0  0  0  0  0  0  0  0
  149.9772  138.7173  154.7080 N   0  0  0  0  0  0  0  0  0  0  0  0
  149.4753  137.4326  154.6744 N   0  0  0  0  0  0  0  0  0  0  0  0
  150.1355  136.4229  155.1489 C   0  0  0  0  0  0  0  0  0  0  0  0
  149.5392  135.0615  155.1139 C   0  0  0  0  0  0  0  0  0  0  0  0
  149.6453  134.2983  156.0744 O   0  0  0  0  0  0  0  0  0  0  0  0
  148.8709  134.7406  153.9900 N   0  0  0  0  0  0  0  0  0  0  0  0
  148.1259  133.5045  153.7646 C   0  0  0  0  0  0  0  0  0  0  0  0
  148.1434  133.0846  152.2823 C   0  0  0  0  0  0  0  0  0  0  0  0
  146.7940  133.2173  151.5976 C   0  0  0  0  0  0  0  0  0  0  0  0
  146.0928  132.0793  151.1470 C   0  0  0  0  0  0  0  0  0  0  0  0
  144.8586  132.2576  150.4935 C   0  0  0  0  0  0  0  0  0  0  0  0
  144.3758  133.5702  150.3199 C   0  0  0  0  0  0  0  0  0  0  0  0
  145.0367  134.6668  150.7493 N   0  0  0  0  0  0  0  0  0  0  0  0
  146.2205  134.4870  151.3735 C   0  0  0  0  0  0  0  0  0  0  0  0
  151.4997  136.6210  155.7792 C   0  0  0  0  0  0  0  0  0  0  0  0
  152.2229  137.8615  155.2184 C   0  0  0  0  0  0  0  0  0  0  0  0
  151.2666  139.0346  154.9849 C   0  0  0  0  0  0  0  0  0  0  0  0
  151.6927  140.1884  155.0303 O   0  0  0  0  0  0  0  0  0  0  0  0
  149.3389  140.3504  153.5334 H   0  0  0  0  0  0  0  0  0  0  0  0
  148.8828  140.4389  155.2391 H   0  0  0  0  0  0  0  0  0  0  0  0
  148.0252  139.3533  154.1493 H   0  0  0  0  0  0  0  0  0  0  0  0
  148.8407  135.4292  153.2516 H   0  0  0  0  0  0  0  0  0  0  0  0
  148.5743  132.7185  154.3726 H   0  0  0  0  0  0  0  0  0  0  0  0
  147.0963  133.6045  154.1119 H   0  0  0  0  0  0  0  0  0  0  0  0
  148.8764  133.6845  151.7414 H   0  0  0  0  0  0  0  0  0  0  0  0
  148.4784  132.0501  152.1979 H   0  0  0  0  0  0  0  0  0  0  0  0
  146.4964  131.0875  151.2891 H   0  0  0  0  0  0  0  0  0  0  0  0
  144.2966  131.4095  150.1314 H   0  0  0  0  0  0  0  0  0  0  0  0
  143.4332  133.7435  149.8220 H   0  0  0  0  0  0  0  0  0  0  0  0
  146.7295  135.3835  151.6962 H   0  0  0  0  0  0  0  0  0  0  0  0
  151.3857  136.7135  156.8599 H   0  0  0  0  0  0  0  0  0  0  0  0
  152.1318  135.7482  155.6105 H   0  0  0  0  0  0  0  0  0  0  0  0
  153.0314  138.1627  155.8854 H   0  0  0  0  0  0  0  0  0  0  0  0
  152.6807  137.6164  154.2594 H   0  0  0  0  0  0  0  0  0  0  0  0
  1  2  1  0  0  0  0
  1 20  1  0  0  0  0
  1 21  1  0  0  0  0
  1 22  1  0  0  0  0
  2 18  1  0  0  0  0
  2  3  1  0  0  0  0
  3  4  2  0  0  0  0
  4  5  1  0  0  0  0
  4 16  1  0  0  0  0
  5  6  2  0  0  0  0
  5  7  1  0  0  0  0
  7  8  1  0  0  0  0
  7 23  1  0  0  0  0
  8  9  1  0  0  0  0
  8 24  1  0  0  0  0
  8 25  1  0  0  0  0
  9 10  1  0  0  0  0
  9 26  1  0  0  0  0
  9 27  1  0  0  0  0
 10 15  1  0  0  0  0
 10 11  2  0  0  0  0
 11 12  1  0  0  0  0
 11 28  1  0  0  0  0
 12 13  2  0  0  0  0
 12 29  1  0  0  0  0
 13 14  1  0  0  0  0
 13 30  1  0  0  0  0
 14 15  2  0  0  0  0
 15 31  1  0  0  0  0
 16 17  1  0  0  0  0
 16 32  1  0  0  0  0
 16 33  1  0  0  0  0
 17 18  1  0  0  0  0
 17 34  1  0  0  0  0
 17 35  1  0  0  0  0
 18 19  2  0  0  0  0
M  END
> <s_m_source_file>
AV-unprocessed.smi

> <i_m_source_file_index>
2134

> <i_lp_mmshare_version>
43012

> <i_f3d_flags>
0

> <s_epik_input>
Tz1DMVtDSDJdW0NIMl1DKD1OTjFbQ0gzXSlDKD1PKVtOSF1bQ0gyXVtDSDJdYzJbY0hdW2NIXVtjSF1uW2NIXTI=

> <s_epik_cmdline>
J2VwaWtfcHl0aG9uJywgJy1waCcsICc3LjAnLCAnLXRuJywgJzgnLCAnLW1hJywgJzIwMCcsICctbWV0YWxfYmluZGluZycsICctaW1hZScsICc8aW5maWxlLm1hZT4nLCAnLW9tYWUnLCAnPG91dGZpbGUubWFlPic=

> <r_epik_Ionization_Penalty>
0.00938916

> <r_epik_Ionization_Penalty_Charging>
0

> <r_epik_Ionization_Penalty_Neutral>
0.00938916

> <r_epik_State_Penalty>
0.00707201

> <r_epik_Charging_Adjusted_Penalty>
0.00707201

> <i_epik_Tot_Q>
0

> <i_epik_Tot_abs_Q>
0

> <r_epik_Metal_State_Penalty>
0.0638513

> <b_epik_Metal_Only>
0

> <s_epik_Chemistry_Notes>
This compound has an imine and may undergo hydrolysis.

> <s_lp_Force_Field>
OPLS_2005

> <r_lp_Energy>
16.2415

> <b_lp_Chiralities_Consistent>
1

> <s_lp_Variant>
AV-unprocessed.smi:2134-1

> <Gold.Version>
5.8.1

> <Gold.Id.Protein>
6NUR|6NUR_protein|mol2

> <Gold.PLP.Fitness>
42.2287

> <Gold.PLP.PLP>
-32.8080

> <Gold.PLP.part.hbond>
-2.0000

> <Gold.PLP.part.metal>
0.0000

> <Gold.PLP.part.buried>
-3.9608

> <Gold.PLP.part.nonpolar>
-27.3304

> <Gold.PLP.part.repulsive>
0.5179

> <Gold.PLP.ligand.clash>
0.0000

> <Gold.PLP.ligand.torsion>
1.2132

> <Gold.PLP.Chemscore.Hbond>
1.9440

> <Gold.PLP.Chemscore.CHOScore>
2.0000

> <Gold.PLP.Chemscore.Metal>
0.0000

> <Gold.Chemscore.Hbonds>
donor molecule, donor type, donor heavy atom, donor atom, acceptor molecule, acceptor atom, score
      L1  H     7    23       P1  7948  1.00
      P1  H  7989  7998       L1    19  0.94
      L1  C    13    30       P1 10186  1.00
      L1  C    15    31       P1  7948  1.00

> <Gold.PLP.Chemscore.Internal.Correction>
0.0150

> <Gold.Rescore>
     Score         DG    S(hbond)    S(metal)    S(lipo)     H(rot)  DE(clash)    DE(int)     intcor
     15.04     -16.26       1.89        0.00      69.94       1.45       0.04       1.19       ----

> <Gold.Chemscore.Fitness>
15.0350

> <Gold.Chemscore.DG>
-16.2634

> <Gold.Chemscore.ZeroCoef>
-5.4800

> <Gold.Chemscore.Hbond>
1.8884

> <Gold.Chemscore.Metal>
0.0000

> <Gold.Chemscore.Lipo>
69.9417

> <Gold.Chemscore.Internal_Hbond>
0.0000

> <Gold.Chemscore.DEClash>
0.0354

> <Gold.Chemscore.DEInternal>
1.1930

> <Gold.Chemscore.Rot>
1.4480

> <Gold.Chemscore.Internal.Correction>
   9.000000E+99

> <Gold.Chemscore.Hbonds>
donor molecule, donor type, donor heavy atom, donor atom, acceptor molecule, acceptor atom, score
      L1  H     7    23       P1  7948  0.77
      P1  H  7989  7998       L1    19  0.68

> <Gold.Chemscore.Hbond.Weighted>
-6.3072

> <Gold.Chemscore.Metal.Weighted>
-0.0000

> <Gold.Chemscore.Lipo.Weighted>
-8.1832

> <Gold.Chemscore.Internal_Hbond.Weighted>
0.0000

> <Gold.Chemscore.DEClash.Weighted>
0.0354

> <Gold.Chemscore.DEInternal.Weighted>
1.1930

> <Gold.Chemscore.Rot.Weighted>
3.7070

> <Gold.Chemscore.Internal.Correction.Weighted>
   9.000000E+99

> <Gold.Protein.RotatedTorsions>
[ 6907 6896 6895 6894 ] final   19.58 input  -60.11 | X-H torsion
[ 7974 7965 7964 7962 ] final   53.64 input  175.53 | X-H torsion
[ 8008 7997 7996 7995 ] final   72.12 input   59.86 | X-H torsion
[ 10167 10162 10161 10158 ] final -137.36 input  -65.29 | X-H torsion
[ 10718 10713 10712 10709 ] final  -88.72 input   66.30 | X-H torsion
[ 10763 10752 10751 10750 ] final   39.59 input  -60.55 | X-H torsion
[ 11005 11000 10999 10996 ] final  -32.04 input  -57.11 | X-H torsion

> <Gold.Protein.ActiveResidues>
 VAL166  LYS551  ARG553  GLY616  TRP617  ASP618  TYR619  PRO620  LYS621  CYS622 
 ASP623  PHE694  ASN695  SER759  ASP760  ASP761  ALA762  ILE779  LEU786  VAL792 
 PHE793  MET794  SER795  GLU796  ALA797  LYS798  CYS799  TRP800  GLU811  SER814 

> <Gold.Protein.RotatedAtoms>
  151.8831  135.0445  160.0490 H   0  0  0  0  0  0  0  0  0  0  0  0  # atno 6907 bound_to 6896
  152.2496  133.5199  159.5326 H   0  0  0  0  0  0  0  0  0  0  0  0  # atno 6908 bound_to 6896
  150.7079  134.0894  159.3969 H   0  0  0  0  0  0  0  0  0  0  0  0  # atno 6909 bound_to 6896
  145.9691  139.4131  143.0201 H   0  0  0  0  0  0  0  0  0  0  0  0  # atno 7974 bound_to 7965
  155.7641  140.3486  155.5213 H   0  0  0  0  0  0  0  0  0  0  0  0  # atno 8008 bound_to 7997
  155.8885  140.1014  157.1456 H   0  0  0  0  0  0  0  0  0  0  0  0  # atno 8009 bound_to 7997
  154.4031  140.1309  156.4273 H   0  0  0  0  0  0  0  0  0  0  0  0  # atno 8010 bound_to 7997
  139.8585  143.7107  152.2652 H   0  0  0  0  0  0  0  0  0  0  0  0  # atno 10167 bound_to 10162
  155.9983  130.4846  150.5062 H   0  0  0  0  0  0  0  0  0  0  0  0  # atno 10718 bound_to 10713
  152.9962  135.6216  154.2490 H   0  0  0  0  0  0  0  0  0  0  0  0  # atno 10763 bound_to 10752
  154.2229  135.2795  155.2920 H   0  0  0  0  0  0  0  0  0  0  0  0  # atno 10764 bound_to 10752
  154.5513  135.5732  153.6983 H   0  0  0  0  0  0  0  0  0  0  0  0  # atno 10765 bound_to 10752
  140.9519  133.7216  156.1233 H   0  0  0  0  0  0  0  0  0  0  0  0  # atno 11005 bound_to 11000
  145.7932  140.9805  143.1038 LP  0  0  0  0  0  0  0  0  0  0  0  0  # atno 17320 bound_to 7965
  144.6832  139.9709  143.7482 LP  0  0  0  0  0  0  0  0  0  0  0  0  # atno 17321 bound_to 7965
  139.7396  144.7562  151.0673 LP  0  0  0  0  0  0  0  0  0  0  0  0  # atno 17342 bound_to 10162
  140.7778  143.4988  150.9798 LP  0  0  0  0  0  0  0  0  0  0  0  0  # atno 17343 bound_to 10162
  157.3040  131.0651  151.2048 LP  0  0  0  0  0  0  0  0  0  0  0  0  # atno 17370 bound_to 10713
  157.3017  130.6846  149.6168 LP  0  0  0  0  0  0  0  0  0  0  0  0  # atno 17371 bound_to 10713
  140.7591  134.3960  157.5529 LP  0  0  0  0  0  0  0  0  0  0  0  0  # atno 17394 bound_to 11000
  139.8850  134.8949  156.2669 LP  0  0  0  0  0  0  0  0  0  0  0  0  # atno 17395 bound_to 11000

$$$$
