AV-unprocessed.smi:2908|AV-procd|sdf|11170|dock9
  -GOLD-   2272016 63D 1   1.00000     0.00000
 Structure written by MMmdl.
 44 45  0  0  0  0  0  0  0  0  2 V2000
  151.4362  137.1479  159.6151 O   0  0  0  0  0  0  0  0  0  0  0  0
  150.8941  137.8368  158.7493 C   0  0  0  0  0  0  0  0  0  0  0  0
  149.6606  137.5635  158.2887 N   0  0  0  0  0  0  0  0  0  0  0  0
  148.8058  136.4638  158.7304 C   0  0  0  0  0  0  0  0  0  0  0  0
  148.1006  136.7647  160.0677 C   0  0  0  0  0  0  0  0  0  0  0  0
  147.7834  135.5239  160.8839 C   0  0  0  0  0  0  0  0  0  0  0  0
  147.2818  135.5975  162.2020 C   0  0  0  0  0  0  0  0  0  0  0  0
  146.9821  134.4046  162.8922 C   0  0  0  0  0  0  0  0  0  0  0  0
  147.1922  133.1653  162.2529 C   0  0  0  0  0  0  0  0  0  0  0  0
  147.6985  133.1500  160.9373 C   0  0  0  0  0  0  0  0  0  0  0  0
  147.9734  134.3141  160.3090 N   0  3  0  0  0  0  0  0  0  0  0  0
  151.5043  138.8889  158.1478 N   0  0  0  0  0  0  0  0  0  0  0  0
  151.0198  139.6181  156.9647 C   0  0  0  0  0  0  0  0  0  0  0  0
  150.4616  140.9783  157.4186 C   0  0  0  0  0  0  0  0  0  0  0  0
  151.5214  141.7999  158.1920 C   0  0  0  0  0  0  0  0  0  0  0  0
  150.9436  143.1556  158.6774 C   0  0  1  0  0  0  0  0  0  0  0  0
  149.9989  142.9453  159.7100 O   0  0  0  0  0  0  0  0  0  0  0  0
  151.9864  144.1947  159.1452 C   0  0  0  0  0  0  0  0  0  0  0  0
  151.3680  145.3278  159.4782 F   0  0  0  0  0  0  0  0  0  0  0  0
  152.6886  143.7614  160.1917 F   0  0  0  0  0  0  0  0  0  0  0  0
  152.8280  144.4673  158.1482 F   0  0  0  0  0  0  0  0  0  0  0  0
  152.1775  140.9418  159.3032 C   0  0  0  0  0  0  0  0  0  0  0  0
  152.6451  139.5791  158.7599 C   0  0  0  0  0  0  0  0  0  0  0  0
  149.2859  138.1681  157.5719 H   0  0  0  0  0  0  0  0  0  0  0  0
  148.0706  136.2159  157.9628 H   0  0  0  0  0  0  0  0  0  0  0  0
  149.4322  135.5789  158.8432 H   0  0  0  0  0  0  0  0  0  0  0  0
  148.7247  137.4275  160.6684 H   0  0  0  0  0  0  0  0  0  0  0  0
  147.1756  137.3114  159.8793 H   0  0  0  0  0  0  0  0  0  0  0  0
  147.1179  136.5547  162.6753 H   0  0  0  0  0  0  0  0  0  0  0  0
  146.5928  134.4401  163.8992 H   0  0  0  0  0  0  0  0  0  0  0  0
  146.9666  132.2402  162.7632 H   0  0  0  0  0  0  0  0  0  0  0  0
  147.8870  132.2494  160.3715 H   0  0  0  0  0  0  0  0  0  0  0  0
  151.8491  139.7691  156.2716 H   0  0  0  0  0  0  0  0  0  0  0  0
  150.2619  139.0827  156.3929 H   0  0  0  0  0  0  0  0  0  0  0  0
  150.1158  141.5397  156.5501 H   0  0  0  0  0  0  0  0  0  0  0  0
  149.5851  140.8118  158.0463 H   0  0  0  0  0  0  0  0  0  0  0  0
  152.3068  142.0303  157.4709 H   0  0  0  0  0  0  0  0  0  0  0  0
  150.4007  143.5999  157.8417 H   0  0  0  0  0  0  0  0  0  0  0  0
  150.2679  142.1908  160.2117 H   0  0  0  0  0  0  0  0  0  0  0  0
  153.0364  141.4582  159.7289 H   0  0  0  0  0  0  0  0  0  0  0  0
  151.4736  140.7784  160.1203 H   0  0  0  0  0  0  0  0  0  0  0  0
  153.1093  138.9985  159.5584 H   0  0  0  0  0  0  0  0  0  0  0  0
  153.4254  139.7227  158.0110 H   0  0  0  0  0  0  0  0  0  0  0  0
  148.3319  134.2793  159.3545 H   0  0  0  0  0  0  0  0  0  0  0  0
  1  2  2  0  0  0  0
  2  3  1  0  0  0  0
  2 12  1  0  0  0  0
  3  4  1  0  0  0  0
  3 24  1  0  0  0  0
  4  5  1  0  0  0  0
  4 25  1  0  0  0  0
  4 26  1  0  0  0  0
  5  6  1  0  0  0  0
  5 27  1  0  0  0  0
  5 28  1  0  0  0  0
  6 11  1  0  0  0  0
  6  7  2  0  0  0  0
  7  8  1  0  0  0  0
  7 29  1  0  0  0  0
  8  9  2  0  0  0  0
  8 30  1  0  0  0  0
  9 10  1  0  0  0  0
  9 31  1  0  0  0  0
 10 11  2  0  0  0  0
 10 32  1  0  0  0  0
 11 44  1  0  0  0  0
 12 23  1  0  0  0  0
 12 13  1  0  0  0  0
 13 14  1  0  0  0  0
 13 33  1  0  0  0  0
 13 34  1  0  0  0  0
 14 15  1  0  0  0  0
 14 35  1  0  0  0  0
 14 36  1  0  0  0  0
 15 16  1  0  0  0  0
 15 22  1  0  0  0  0
 15 37  1  0  0  0  0
 16 17  1  0  0  0  0
 16 18  1  0  0  0  0
 16 38  1  0  0  0  0
 17 39  1  0  0  0  0
 18 19  1  0  0  0  0
 18 20  1  0  0  0  0
 18 21  1  0  0  0  0
 22 23  1  0  0  0  0
 22 40  1  0  0  0  0
 22 41  1  0  0  0  0
 23 42  1  0  0  0  0
 23 43  1  0  0  0  0
M  CHG  1  11   1
M  END
> <s_m_source_file>
AV-unprocessed.smi

> <i_m_source_file_index>
2908

> <i_lp_mmshare_version>
43012

> <i_f3d_flags>
0

> <s_epik_input>
RkMoRikoRilbQ0BASF0oW09IXSlbQ0hdKFtDSDJdW0NIMl0xKVtDSDJdW0NIMl1OMUMoPU8pW05IXVtDSDJdW0NIMl1jMltjSF1bY0hdW2NIXVtjSF1uMg==

> <s_epik_cmdline>
J2VwaWtfcHl0aG9uJywgJy1waCcsICc3LjAnLCAnLXRuJywgJzgnLCAnLW1hJywgJzIwMCcsICctbWV0YWxfYmluZGluZycsICctaW1hZScsICc8aW5maWxlLm1hZT4nLCAnLW9tYWUnLCAnPG91dGZpbGUubWFlPic=

> <r_epik_Ionization_Penalty>
1.55054

> <r_epik_Ionization_Penalty_Charging>
1.55036

> <r_epik_Ionization_Penalty_Neutral>
0.00017404

> <r_epik_State_Penalty>
1.64453

> <r_epik_Charging_Adjusted_Penalty>
3.19489

> <i_epik_Tot_Q>
1

> <i_epik_Tot_abs_Q>
1

> <r_epik_Metal_State_Penalty>
1.68672

> <b_epik_Metal_Only>
0

> <s_lp_Force_Field>
OPLS_2005

> <r_lp_Energy>
43.524

> <b_lp_Chiralities_Consistent>
1

> <s_lp_Variant>
AV-unprocessed.smi:2908-4

> <Gold.Version>
5.8.1

> <Gold.Id.Protein>
6NUR|6NUR_protein|mol2

> <Gold.PLP.Fitness>
51.6405

> <Gold.PLP.PLP>
-49.6765

> <Gold.PLP.part.hbond>
-1.9540

> <Gold.PLP.part.metal>
0.0000

> <Gold.PLP.part.buried>
-6.9916

> <Gold.PLP.part.nonpolar>
-42.4716

> <Gold.PLP.part.repulsive>
0.2031

> <Gold.PLP.ligand.clash>
0.0000

> <Gold.PLP.ligand.torsion>
0.5773

> <Gold.PLP.Chemscore.Hbond>
0.9750

> <Gold.PLP.Chemscore.CHOScore>
0.0000

> <Gold.PLP.Chemscore.Metal>
0.0000

> <Gold.Chemscore.Hbonds>
donor molecule, donor type, donor heavy atom, donor atom, acceptor molecule, acceptor atom, score
      P1  H  6896  6909       L1     1  1.00

> <Gold.PLP.Chemscore.Internal.Correction>
0.1936

> <Gold.Rescore>
     Score         DG    S(hbond)    S(metal)    S(lipo)     H(rot)  DE(clash)    DE(int)     intcor
     13.72     -14.73       0.98        0.00     103.68       2.40       0.28       0.73       ----

> <Gold.Chemscore.Fitness>
13.7204

> <Gold.Chemscore.DG>
-14.7273

> <Gold.Chemscore.ZeroCoef>
-5.4800

> <Gold.Chemscore.Hbond>
0.9781

> <Gold.Chemscore.Metal>
0.0000

> <Gold.Chemscore.Lipo>
103.6845

> <Gold.Chemscore.Internal_Hbond>
0.0000

> <Gold.Chemscore.DEClash>
0.2786

> <Gold.Chemscore.DEInternal>
0.7284

> <Gold.Chemscore.Rot>
2.4026

> <Gold.Chemscore.Internal.Correction>
   9.000000E+99

> <Gold.Chemscore.Hbonds>
donor molecule, donor type, donor heavy atom, donor atom, acceptor molecule, acceptor atom, score
      P1  H  6896  6909       L1     1  0.95

> <Gold.Chemscore.Hbond.Weighted>
-3.2669

> <Gold.Chemscore.Metal.Weighted>
-0.0000

> <Gold.Chemscore.Lipo.Weighted>
-12.1311

> <Gold.Chemscore.Internal_Hbond.Weighted>
0.0000

> <Gold.Chemscore.DEClash.Weighted>
0.2786

> <Gold.Chemscore.DEInternal.Weighted>
0.7284

> <Gold.Chemscore.Rot.Weighted>
6.1508

> <Gold.Chemscore.Internal.Correction.Weighted>
   9.000000E+99

> <Gold.Protein.RotatedTorsions>
[ 6907 6896 6895 6894 ] final  111.04 input  -60.11 | X-H torsion
[ 7974 7965 7964 7962 ] final    3.25 input  175.53 | X-H torsion
[ 8008 7997 7996 7995 ] final   66.29 input   59.86 | X-H torsion
[ 10167 10162 10161 10158 ] final  126.85 input  -65.29 | X-H torsion
[ 10718 10713 10712 10709 ] final -116.50 input   66.30 | X-H torsion
[ 10763 10752 10751 10750 ] final -130.18 input  -60.55 | X-H torsion
[ 11005 11000 10999 10996 ] final  147.82 input  -57.11 | X-H torsion

> <Gold.Protein.ActiveResidues>
 VAL166  LYS551  ARG553  GLY616  TRP617  ASP618  TYR619  PRO620  LYS621  CYS622 
 ASP623  PHE694  ASN695  SER759  ASP760  ASP761  ALA762  ILE779  LEU786  VAL792 
 PHE793  MET794  SER795  GLU796  ALA797  LYS798  CYS799  TRP800  GLU811  SER814 

> <Gold.Protein.RotatedAtoms>
  152.4989  133.8714  159.7300 H   0  0  0  0  0  0  0  0  0  0  0  0  # atno 6907 bound_to 6896
  150.9200  133.6883  159.2841 H   0  0  0  0  0  0  0  0  0  0  0  0  # atno 6908 bound_to 6896
  151.4263  135.1008  159.9681 H   0  0  0  0  0  0  0  0  0  0  0  0  # atno 6909 bound_to 6896
  146.2445  140.0714  142.8362 H   0  0  0  0  0  0  0  0  0  0  0  0  # atno 7974 bound_to 7965
  155.6750  140.3497  155.4833 H   0  0  0  0  0  0  0  0  0  0  0  0  # atno 8008 bound_to 7997
  155.9656  140.1145  157.0880 H   0  0  0  0  0  0  0  0  0  0  0  0  # atno 8009 bound_to 7997
  154.4153  140.1167  156.5223 H   0  0  0  0  0  0  0  0  0  0  0  0  # atno 8010 bound_to 7997
  139.5609  144.6881  151.4046 H   0  0  0  0  0  0  0  0  0  0  0  0  # atno 10167 bound_to 10162
  156.0968  130.6138  150.9043 H   0  0  0  0  0  0  0  0  0  0  0  0  # atno 10718 bound_to 10713
  154.8756  135.3871  154.4040 H   0  0  0  0  0  0  0  0  0  0  0  0  # atno 10763 bound_to 10752
  153.4762  135.7030  153.5970 H   0  0  0  0  0  0  0  0  0  0  0  0  # atno 10764 bound_to 10752
  153.4405  135.3857  155.2193 H   0  0  0  0  0  0  0  0  0  0  0  0  # atno 10765 bound_to 10752
  140.0908  134.9042  157.1647 H   0  0  0  0  0  0  0  0  0  0  0  0  # atno 11005 bound_to 11000
  145.0813  140.9223  143.4824 LP  0  0  0  0  0  0  0  0  0  0  0  0  # atno 17320 bound_to 7965
  145.0867  139.2919  143.5755 LP  0  0  0  0  0  0  0  0  0  0  0  0  # atno 17321 bound_to 7965
  140.6889  143.7909  150.7226 LP  0  0  0  0  0  0  0  0  0  0  0  0  # atno 17342 bound_to 10162
  140.1385  143.4462  152.2209 LP  0  0  0  0  0  0  0  0  0  0  0  0  # atno 17343 bound_to 10162
  157.6130  131.0935  150.8761 LP  0  0  0  0  0  0  0  0  0  0  0  0  # atno 17370 bound_to 10713
  156.8897  130.5208  149.5287 LP  0  0  0  0  0  0  0  0  0  0  0  0  # atno 17371 bound_to 10713
  140.3355  134.2762  155.7220 LP  0  0  0  0  0  0  0  0  0  0  0  0  # atno 17394 bound_to 11000
  141.2077  133.7798  157.0103 LP  0  0  0  0  0  0  0  0  0  0  0  0  # atno 17395 bound_to 11000

$$$$
