AV-unprocessed.smi:3259|AV-procd|sdf|12474|dock7
  -GOLD-   2272018373D 1   1.00000     0.00000
 Structure written by MMmdl.
 39 40  0  0  0  0  0  0  0  0  1 V2000
  152.1390  139.5740  157.0591 C   0  0  0  0  0  0  0  0  0  0  0  0
  150.7375  139.6496  156.8291 O   0  0  0  0  0  0  0  0  0  0  0  0
  150.2823  140.5762  155.8333 C   0  0  1  0  0  0  0  0  0  0  0  0
  150.7397  141.9996  156.1764 C   0  0  0  0  0  0  0  0  0  0  0  0
  150.5471  140.0151  154.4228 C   0  0  0  0  0  0  0  0  0  0  0  0
  149.2480  139.2263  154.5744 C   0  0  2  0  0  0  0  0  0  0  0  0
  148.4917  139.1451  153.3298 N   0  0  0  0  0  0  0  0  0  0  0  0
  147.1968  138.8035  153.2490 C   0  0  0  0  0  0  0  0  0  0  0  0
  146.5041  138.5394  154.2312 O   0  0  0  0  0  0  0  0  0  0  0  0
  146.5868  138.7614  151.8469 C   0  0  0  0  0  0  0  0  0  0  0  0
  145.9434  137.4852  151.5882 N   0  0  0  0  0  0  0  0  0  0  0  0
  144.9484  136.8634  152.3141 C   0  0  0  0  0  0  0  0  0  0  0  0
  144.6594  135.6869  151.6841 C   0  0  0  0  0  0  0  0  0  0  0  0
  145.5407  135.6763  150.5672 C   0  0  0  0  0  0  0  0  0  0  0  0
  146.3084  136.7528  150.5129 N   0  0  0  0  0  0  0  0  0  0  0  0
  148.7632  140.3119  155.5699 C   0  0  0  0  0  0  0  0  0  0  0  0
  147.9385  139.8110  156.7609 C   0  0  0  0  0  0  0  0  0  0  0  0
  147.9654  141.4880  154.9752 C   0  0  0  0  0  0  0  0  0  0  0  0
  152.3449  138.7318  157.7194 H   0  0  0  0  0  0  0  0  0  0  0  0
  152.5142  140.4693  157.5542 H   0  0  0  0  0  0  0  0  0  0  0  0
  152.7041  139.4185  156.1407 H   0  0  0  0  0  0  0  0  0  0  0  0
  150.3139  142.7375  155.4974 H   0  0  0  0  0  0  0  0  0  0  0  0
  151.8213  142.1101  156.1018 H   0  0  0  0  0  0  0  0  0  0  0  0
  150.4429  142.2766  157.1882 H   0  0  0  0  0  0  0  0  0  0  0  0
  150.5057  140.7822  153.6472 H   0  0  0  0  0  0  0  0  0  0  0  0
  151.4351  139.3945  154.3093 H   0  0  0  0  0  0  0  0  0  0  0  0
  149.4198  138.2583  155.0512 H   0  0  0  0  0  0  0  0  0  0  0  0
  148.9874  139.3517  152.4751 H   0  0  0  0  0  0  0  0  0  0  0  0
  145.8563  139.5634  151.7300 H   0  0  0  0  0  0  0  0  0  0  0  0
  147.3636  138.9245  151.0985 H   0  0  0  0  0  0  0  0  0  0  0  0
  144.5327  137.3058  153.2072 H   0  0  0  0  0  0  0  0  0  0  0  0
  143.9288  134.9473  151.9761 H   0  0  0  0  0  0  0  0  0  0  0  0
  145.6451  134.9238  149.7997 H   0  0  0  0  0  0  0  0  0  0  0  0
  146.9134  139.5787  156.4700 H   0  0  0  0  0  0  0  0  0  0  0  0
  147.8956  140.5552  157.5567 H   0  0  0  0  0  0  0  0  0  0  0  0
  148.3533  138.8992  157.1909 H   0  0  0  0  0  0  0  0  0  0  0  0
  146.9684  141.1789  154.6595 H   0  0  0  0  0  0  0  0  0  0  0  0
  148.4552  141.9189  154.1022 H   0  0  0  0  0  0  0  0  0  0  0  0
  147.8374  142.2914  155.7014 H   0  0  0  0  0  0  0  0  0  0  0  0
  1  2  1  0  0  0  0
  1 19  1  0  0  0  0
  1 20  1  0  0  0  0
  1 21  1  0  0  0  0
  2  3  1  0  0  0  0
  3 16  1  0  0  0  0
  3  4  1  0  0  0  0
  3  5  1  0  0  0  0
  4 22  1  0  0  0  0
  4 23  1  0  0  0  0
  4 24  1  0  0  0  0
  5  6  1  0  0  0  0
  5 25  1  0  0  0  0
  5 26  1  0  0  0  0
  6  7  1  0  0  0  0
  6 16  1  0  0  0  0
  6 27  1  0  0  0  0
  7  8  1  0  0  0  0
  7 28  1  0  0  0  0
  8  9  2  0  0  0  0
  8 10  1  0  0  0  0
 10 11  1  0  0  0  0
 10 29  1  0  0  0  0
 10 30  1  0  0  0  0
 11 15  1  0  0  0  0
 11 12  1  0  0  0  0
 12 13  2  0  0  0  0
 12 31  1  0  0  0  0
 13 14  1  0  0  0  0
 13 32  1  0  0  0  0
 14 15  2  0  0  0  0
 14 33  1  0  0  0  0
 16 17  1  0  0  0  0
 16 18  1  0  0  0  0
 17 34  1  0  0  0  0
 17 35  1  0  0  0  0
 17 36  1  0  0  0  0
 18 37  1  0  0  0  0
 18 38  1  0  0  0  0
 18 39  1  0  0  0  0
M  END
> <s_m_source_file>
AV-unprocessed.smi

> <i_m_source_file_index>
3259

> <i_lp_mmshare_version>
43012

> <i_f3d_flags>
0

> <s_epik_input>
W0NIM11PW0NAQF0xKFtDSDNdKVtDSDJdW0NASF0oQzEoW0NIM10pW0NIM10pW05IXUMoPU8pW0NIMl1uMltjSF1bY0hdW2NIXW4y

> <s_epik_cmdline>
J2VwaWtfcHl0aG9uJywgJy1waCcsICc3LjAnLCAnLXRuJywgJzgnLCAnLW1hJywgJzIwMCcsICctbWV0YWxfYmluZGluZycsICctaW1hZScsICc8aW5maWxlLm1hZT4nLCAnLW9tYWUnLCAnPG91dGZpbGUubWFlPic=

> <r_lp_tautomer_probability>
1

> <r_epik_Ionization_Penalty>
1.78399e-05

> <r_epik_Ionization_Penalty_Charging>
0

> <r_epik_Ionization_Penalty_Neutral>
1.78399e-05

> <r_epik_State_Penalty>
-0

> <r_epik_Charging_Adjusted_Penalty>
0

> <i_epik_Tot_Q>
0

> <i_epik_Tot_abs_Q>
0

> <r_epik_Metal_State_Penalty>
-0

> <b_epik_Metal_Only>
0

> <s_lp_Force_Field>
OPLS_2005

> <r_lp_Energy>
23.5096

> <b_lp_Chiralities_Consistent>
1

> <s_lp_Variant>
AV-unprocessed.smi:3259-3

> <Gold.Version>
5.8.1

> <Gold.Id.Protein>
6NUR|6NUR_protein|mol2

> <Gold.PLP.Fitness>
32.9865

> <Gold.PLP.PLP>
-26.3151

> <Gold.PLP.part.hbond>
-1.8621

> <Gold.PLP.part.metal>
0.0000

> <Gold.PLP.part.buried>
3.1247

> <Gold.PLP.part.nonpolar>
-29.8449

> <Gold.PLP.part.repulsive>
1.6174

> <Gold.PLP.ligand.clash>
0.0000

> <Gold.PLP.ligand.torsion>
0.2693

> <Gold.PLP.Chemscore.Hbond>
1.2785

> <Gold.PLP.Chemscore.CHOScore>
1.0000

> <Gold.PLP.Chemscore.Metal>
0.0000

> <Gold.Chemscore.Hbonds>
donor molecule, donor type, donor heavy atom, donor atom, acceptor molecule, acceptor atom, score
      L1  H     7    28       P1  7957  1.00
      P1  H  7954  7966       L1    15  0.39
      L1  C    14    33       P1  7921  1.00

> <Gold.PLP.Chemscore.Internal.Correction>
0.3747

> <Gold.Rescore>
     Score         DG    S(hbond)    S(metal)    S(lipo)     H(rot)  DE(clash)    DE(int)     intcor
      9.51     -13.70       1.20        0.00      70.81       1.60       2.77       1.43       ----

> <Gold.Chemscore.Fitness>
9.5088

> <Gold.Chemscore.DG>
-13.6999

> <Gold.Chemscore.ZeroCoef>
-5.4800

> <Gold.Chemscore.Hbond>
1.2039

> <Gold.Chemscore.Metal>
0.0000

> <Gold.Chemscore.Lipo>
70.8119

> <Gold.Chemscore.Internal_Hbond>
0.0000

> <Gold.Chemscore.DEClash>
2.7661

> <Gold.Chemscore.DEInternal>
1.4250

> <Gold.Chemscore.Rot>
1.5962

> <Gold.Chemscore.Internal.Correction>
   9.000000E+99

> <Gold.Chemscore.Hbonds>
donor molecule, donor type, donor heavy atom, donor atom, acceptor molecule, acceptor atom, score
      L1  H     7    28       P1  7957  0.99
      P1  H  7954  7966       L1    15  0.11

> <Gold.Chemscore.Hbond.Weighted>
-4.0211

> <Gold.Chemscore.Metal.Weighted>
-0.0000

> <Gold.Chemscore.Lipo.Weighted>
-8.2850

> <Gold.Chemscore.Internal_Hbond.Weighted>
0.0000

> <Gold.Chemscore.DEClash.Weighted>
2.7661

> <Gold.Chemscore.DEInternal.Weighted>
1.4250

> <Gold.Chemscore.Rot.Weighted>
4.0862

> <Gold.Chemscore.Internal.Correction.Weighted>
   9.000000E+99

> <Gold.Protein.RotatedTorsions>
[ 6907 6896 6895 6894 ] final  -53.83 input  -60.11 | X-H torsion
[ 7974 7965 7964 7962 ] final   56.50 input  175.53 | X-H torsion
[ 8008 7997 7996 7995 ] final  -29.24 input   59.86 | X-H torsion
[ 10167 10162 10161 10158 ] final -127.25 input  -65.29 | X-H torsion
[ 10718 10713 10712 10709 ] final  -81.57 input   66.30 | X-H torsion
[ 10763 10752 10751 10750 ] final  117.37 input  -60.55 | X-H torsion
[ 11005 11000 10999 10996 ] final  -43.06 input  -57.11 | X-H torsion

> <Gold.Protein.ActiveResidues>
 VAL166  LYS551  ARG553  GLY616  TRP617  ASP618  TYR619  PRO620  LYS621  CYS622 
 ASP623  PHE694  ASN695  SER759  ASP760  ASP761  ALA762  ILE779  LEU786  VAL792 
 PHE793  MET794  SER795  GLU796  ALA797  LYS798  CYS799  TRP800  GLU811  SER814 

> <Gold.Protein.RotatedAtoms>
  150.8392  134.7677  159.6917 H   0  0  0  0  0  0  0  0  0  0  0  0  # atno 6907 bound_to 6896
  152.4483  134.5445  159.9858 H   0  0  0  0  0  0  0  0  0  0  0  0  # atno 6908 bound_to 6896
  151.5589  133.3368  159.3003 H   0  0  0  0  0  0  0  0  0  0  0  0  # atno 6909 bound_to 6896
  145.9391  139.3873  143.0374 H   0  0  0  0  0  0  0  0  0  0  0  0  # atno 7974 bound_to 7965
  154.4298  140.1823  156.1216 H   0  0  0  0  0  0  0  0  0  0  0  0  # atno 8008 bound_to 7997
  156.0138  140.3348  155.6943 H   0  0  0  0  0  0  0  0  0  0  0  0  # atno 8009 bound_to 7997
  155.6073  140.0646  157.2707 H   0  0  0  0  0  0  0  0  0  0  0  0  # atno 8010 bound_to 7997
  139.9628  143.5931  152.2439 H   0  0  0  0  0  0  0  0  0  0  0  0  # atno 10167 bound_to 10162
  156.0048  130.4608  150.3972 H   0  0  0  0  0  0  0  0  0  0  0  0  # atno 10718 bound_to 10713
  153.5513  135.3539  155.2761 H   0  0  0  0  0  0  0  0  0  0  0  0  # atno 10763 bound_to 10752
  154.8706  135.4114  154.2933 H   0  0  0  0  0  0  0  0  0  0  0  0  # atno 10764 bound_to 10752
  153.3660  135.7062  153.6743 H   0  0  0  0  0  0  0  0  0  0  0  0  # atno 10765 bound_to 10752
  141.0358  133.6800  156.2680 H   0  0  0  0  0  0  0  0  0  0  0  0  # atno 11005 bound_to 11000
  145.8324  140.9624  143.0842 LP  0  0  0  0  0  0  0  0  0  0  0  0  # atno 17320 bound_to 7965
  144.6776  140.0179  143.7484 LP  0  0  0  0  0  0  0  0  0  0  0  0  # atno 17321 bound_to 7965
  139.6541  144.7661  151.2091 LP  0  0  0  0  0  0  0  0  0  0  0  0  # atno 17342 bound_to 10162
  140.7547  143.6114  150.8602 LP  0  0  0  0  0  0  0  0  0  0  0  0  # atno 17343 bound_to 10162
  157.2044  131.0445  151.2633 LP  0  0  0  0  0  0  0  0  0  0  0  0  # atno 17370 bound_to 10713
  157.3946  130.7300  149.6722 LP  0  0  0  0  0  0  0  0  0  0  0  0  # atno 17371 bound_to 10713
  140.6325  134.5250  157.5561 LP  0  0  0  0  0  0  0  0  0  0  0  0  # atno 17394 bound_to 11000
  139.9240  134.8093  156.1125 LP  0  0  0  0  0  0  0  0  0  0  0  0  # atno 17395 bound_to 11000

$$$$
