AV-unprocessed.smi:2021|AV-procd|sdf|8186|dock6
  -GOLD-   2272010443D 1   1.00000     0.00000
 Structure written by MMmdl.
 40 41  0  0  0  0  0  0  0  0  2 V2000
  153.1451  144.2261  158.1141 C   0  0  0  0  0  0  0  0  0  0  0  0
  152.0660  143.8620  159.1482 C   0  0  0  0  0  0  0  0  0  0  0  0
  152.3466  144.5867  160.4738 C   0  0  0  0  0  0  0  0  0  0  0  0
  151.9675  142.3333  159.3625 C   0  0  0  0  0  0  0  0  0  0  0  0
  151.5083  141.5621  158.2066 N   0  0  0  0  0  0  0  0  0  0  0  0
  150.2469  142.0892  157.6981 C   0  0  0  0  0  0  0  0  0  0  0  0
  149.7411  141.2969  156.4818 C   0  0  0  0  0  0  0  0  0  0  0  0
  149.6116  139.9245  156.8347 O   0  0  0  0  0  0  0  0  0  0  0  0
  150.8365  139.3467  157.2808 C   0  0  2  0  0  0  0  0  0  0  0  0
  150.5883  137.8709  157.6232 C   0  0  0  0  0  0  0  0  0  0  0  0
  149.6744  137.7475  158.7513 N   0  0  0  0  0  0  0  0  0  0  0  0
  148.8252  136.7305  158.9466 C   0  0  0  0  0  0  0  0  0  0  0  0
  148.7823  135.8030  158.1349 O   0  0  0  0  0  0  0  0  0  0  0  0
  148.0795  136.8492  160.0690 N   0  5  0  0  0  0  0  0  0  0  0  0
  147.4428  135.7773  160.5690 C   0  0  0  0  0  0  0  0  0  0  0  0
  147.2386  134.6621  159.8494 N   0  0  0  0  0  0  0  0  0  0  0  0
  146.5580  133.6760  160.5510 N   0  0  0  0  0  0  0  0  0  0  0  0
  146.2573  134.0786  161.7854 C   0  0  0  0  0  0  0  0  0  0  0  0
  146.7746  135.6988  162.2018 S   0  0  0  0  0  0  0  0  0  0  0  0
  151.3442  140.1405  158.5015 C   0  0  0  0  0  0  0  0  0  0  0  0
  154.1355  143.9201  158.4527 H   0  0  0  0  0  0  0  0  0  0  0  0
  153.1735  145.3021  157.9407 H   0  0  0  0  0  0  0  0  0  0  0  0
  152.9656  143.7470  157.1526 H   0  0  0  0  0  0  0  0  0  0  0  0
  151.1054  144.2311  158.7861 H   0  0  0  0  0  0  0  0  0  0  0  0
  153.2933  144.2657  160.9093 H   0  0  0  0  0  0  0  0  0  0  0  0
  151.5596  144.3904  161.2025 H   0  0  0  0  0  0  0  0  0  0  0  0
  152.3953  145.6663  160.3299 H   0  0  0  0  0  0  0  0  0  0  0  0
  152.9215  141.9420  159.7189 H   0  0  0  0  0  0  0  0  0  0  0  0
  151.2660  142.1540  160.1787 H   0  0  0  0  0  0  0  0  0  0  0  0
  149.4907  142.0614  158.4841 H   0  0  0  0  0  0  0  0  0  0  0  0
  150.3678  143.1365  157.4191 H   0  0  0  0  0  0  0  0  0  0  0  0
  148.7712  141.6752  156.1589 H   0  0  0  0  0  0  0  0  0  0  0  0
  150.4250  141.4019  155.6381 H   0  0  0  0  0  0  0  0  0  0  0  0
  151.5751  139.4088  156.4791 H   0  0  0  0  0  0  0  0  0  0  0  0
  150.1551  137.3587  156.7626 H   0  0  0  0  0  0  0  0  0  0  0  0
  151.5306  137.3721  157.8552 H   0  0  0  0  0  0  0  0  0  0  0  0
  149.6872  138.4882  159.4372 H   0  0  0  0  0  0  0  0  0  0  0  0
  145.7243  133.4188  162.4535 H   0  0  0  0  0  0  0  0  0  0  0  0
  152.2957  139.7135  158.8162 H   0  0  0  0  0  0  0  0  0  0  0  0
  150.6505  140.0136  159.3341 H   0  0  0  0  0  0  0  0  0  0  0  0
  1  2  1  0  0  0  0
  1 21  1  0  0  0  0
  1 22  1  0  0  0  0
  1 23  1  0  0  0  0
  2  3  1  0  0  0  0
  2  4  1  0  0  0  0
  2 24  1  0  0  0  0
  3 25  1  0  0  0  0
  3 26  1  0  0  0  0
  3 27  1  0  0  0  0
  4  5  1  0  0  0  0
  4 28  1  0  0  0  0
  4 29  1  0  0  0  0
  5 20  1  0  0  0  0
  5  6  1  0  0  0  0
  6  7  1  0  0  0  0
  6 30  1  0  0  0  0
  6 31  1  0  0  0  0
  7  8  1  0  0  0  0
  7 32  1  0  0  0  0
  7 33  1  0  0  0  0
  8  9  1  0  0  0  0
  9 10  1  0  0  0  0
  9 20  1  0  0  0  0
  9 34  1  0  0  0  0
 10 11  1  0  0  0  0
 10 35  1  0  0  0  0
 10 36  1  0  0  0  0
 11 12  1  0  0  0  0
 11 37  1  0  0  0  0
 12 13  2  0  0  0  0
 12 14  1  0  0  0  0
 14 15  1  0  0  0  0
 15 19  1  0  0  0  0
 15 16  2  0  0  0  0
 16 17  1  0  0  0  0
 17 18  2  0  0  0  0
 18 19  1  0  0  0  0
 18 38  1  0  0  0  0
 20 39  1  0  0  0  0
 20 40  1  0  0  0  0
M  CHG  1  14  -1
M  END
> <s_m_source_file>
AV-unprocessed.smi

> <i_m_source_file_index>
2021

> <i_lp_mmshare_version>
43012

> <i_f3d_flags>
0

> <s_epik_input>
W0NIM11bQ0hdKFtDSDNdKVtDSDJdTjFbQ0gyXVtDSDJdT1tDQEhdKFtDSDJdMSlbQ0gyXVtOSF1DKD1PKVtOSF1jMm5uW2NIXXMy

> <s_epik_cmdline>
J2VwaWtfcHl0aG9uJywgJy1waCcsICc3LjAnLCAnLXRuJywgJzgnLCAnLW1hJywgJzIwMCcsICctbWV0YWxfYmluZGluZycsICctaW1hZScsICc8aW5maWxlLm1hZT4nLCAnLW9tYWUnLCAnPG91dGZpbGUubWFlPic=

> <r_lp_tautomer_probability>
1

> <r_epik_Ionization_Penalty>
4.44864

> <r_epik_Ionization_Penalty_Charging>
3.27383

> <r_epik_Ionization_Penalty_Neutral>
1.17482

> <r_epik_State_Penalty>
4.44168

> <r_epik_Charging_Adjusted_Penalty>
7.7155

> <i_epik_Tot_Q>
-1

> <i_epik_Tot_abs_Q>
1

> <r_epik_Metal_State_Penalty>
1.66628

> <b_epik_Metal_Only>
1

> <s_lp_Force_Field>
OPLS_2005

> <r_lp_Energy>
22.4741

> <b_lp_Chiralities_Consistent>
1

> <s_lp_Variant>
AV-unprocessed.smi:2021-12

> <Gold.Version>
5.8.1

> <Gold.Id.Protein>
6NUR|6NUR_protein|mol2

> <Gold.PLP.Fitness>
48.5505

> <Gold.PLP.PLP>
-41.2204

> <Gold.PLP.part.hbond>
-2.5063

> <Gold.PLP.part.metal>
0.0000

> <Gold.PLP.part.buried>
-7.2742

> <Gold.PLP.part.nonpolar>
-32.8629

> <Gold.PLP.part.repulsive>
0.4750

> <Gold.PLP.ligand.clash>
0.0000

> <Gold.PLP.ligand.torsion>
0.3604

> <Gold.PLP.Chemscore.Hbond>
2.6640

> <Gold.PLP.Chemscore.CHOScore>
0.0000

> <Gold.PLP.Chemscore.Metal>
0.0000

> <Gold.PLP.Chemscore.Internal.Correction>
0.0589

> <Gold.Rescore>
     Score         DG    S(hbond)    S(metal)    S(lipo)     H(rot)  DE(clash)    DE(int)     intcor
     13.95     -16.93       1.71        0.00      88.50       1.81       0.15       2.83       ----

> <Gold.Chemscore.Fitness>
13.9495

> <Gold.Chemscore.DG>
-16.9292

> <Gold.Chemscore.ZeroCoef>
-5.4800

> <Gold.Chemscore.Hbond>
1.7118

> <Gold.Chemscore.Metal>
0.0000

> <Gold.Chemscore.Lipo>
88.4984

> <Gold.Chemscore.Internal_Hbond>
0.0000

> <Gold.Chemscore.DEClash>
0.1507

> <Gold.Chemscore.DEInternal>
2.8290

> <Gold.Chemscore.Rot>
1.8056

> <Gold.Chemscore.Internal.Correction>
   9.000000E+99

> <Gold.Chemscore.Hbonds>
donor molecule, donor type, donor heavy atom, donor atom, acceptor molecule, acceptor atom, score
      P1  H  6931  6943       L1    14  0.01
      P1  H  6934  6947       L1    14  0.01

> <Gold.Chemscore.Hbond.Weighted>
-5.7173

> <Gold.Chemscore.Metal.Weighted>
-0.0000

> <Gold.Chemscore.Lipo.Weighted>
-10.3543

> <Gold.Chemscore.Internal_Hbond.Weighted>
0.0000

> <Gold.Chemscore.DEClash.Weighted>
0.1507

> <Gold.Chemscore.DEInternal.Weighted>
2.8290

> <Gold.Chemscore.Rot.Weighted>
4.6224

> <Gold.Chemscore.Internal.Correction.Weighted>
   9.000000E+99

> <Gold.Protein.RotatedTorsions>
[ 6907 6896 6895 6894 ] final  -57.93 input  -60.11 | X-H torsion
[ 7974 7965 7964 7962 ] final   -3.22 input  175.53 | X-H torsion
[ 8008 7997 7996 7995 ] final  -21.53 input   59.86 | X-H torsion
[ 10167 10162 10161 10158 ] final  -67.90 input  -65.29 | X-H torsion
[ 10718 10713 10712 10709 ] final   89.47 input   66.30 | X-H torsion
[ 10763 10752 10751 10750 ] final  -38.93 input  -60.55 | X-H torsion
[ 11005 11000 10999 10996 ] final -132.42 input  -57.11 | X-H torsion

> <Gold.Protein.ActiveResidues>
 VAL166  LYS551  ARG553  GLY616  TRP617  ASP618  TYR619  PRO620  LYS621  CYS622 
 ASP623  PHE694  ASN695  SER759  ASP760  ASP761  ALA762  ILE779  LEU786  VAL792 
 PHE793  MET794  SER795  GLU796  ALA797  LYS798  CYS799  TRP800  GLU811  SER814 

> <Gold.Protein.RotatedAtoms>
  150.8046  134.7163  159.6632 H   0  0  0  0  0  0  0  0  0  0  0  0  # atno 6907 bound_to 6896
  152.4165  134.6029  160.0014 H   0  0  0  0  0  0  0  0  0  0  0  0  # atno 6908 bound_to 6896
  151.6256  133.3298  159.3133 H   0  0  0  0  0  0  0  0  0  0  0  0  # atno 6909 bound_to 6896
  146.2393  140.1688  142.8332 H   0  0  0  0  0  0  0  0  0  0  0  0  # atno 7974 bound_to 7965
  154.4700  140.2032  156.0019 H   0  0  0  0  0  0  0  0  0  0  0  0  # atno 8008 bound_to 7997
  156.0994  140.3246  155.7892 H   0  0  0  0  0  0  0  0  0  0  0  0  # atno 8009 bound_to 7997
  155.4823  140.0539  157.2956 H   0  0  0  0  0  0  0  0  0  0  0  0  # atno 8010 bound_to 7997
  140.5548  143.2312  151.6842 H   0  0  0  0  0  0  0  0  0  0  0  0  # atno 10167 bound_to 10162
  157.6955  131.0334  150.3431 H   0  0  0  0  0  0  0  0  0  0  0  0  # atno 10718 bound_to 10713
  153.9210  135.6782  153.4748 H   0  0  0  0  0  0  0  0  0  0  0  0  # atno 10763 bound_to 10752
  153.1029  135.4819  154.8896 H   0  0  0  0  0  0  0  0  0  0  0  0  # atno 10764 bound_to 10752
  154.7478  135.3177  154.8569 H   0  0  0  0  0  0  0  0  0  0  0  0  # atno 10765 bound_to 10752
  140.9172  134.1492  157.4343 H   0  0  0  0  0  0  0  0  0  0  0  0  # atno 11005 bound_to 11000
  145.0028  140.8647  143.5271 LP  0  0  0  0  0  0  0  0  0  0  0  0  # atno 17320 bound_to 7965
  145.1710  139.2404  143.5342 LP  0  0  0  0  0  0  0  0  0  0  0  0  # atno 17321 bound_to 7965
  139.5043  144.3759  152.0424 LP  0  0  0  0  0  0  0  0  0  0  0  0  # atno 17342 bound_to 10162
  140.2880  144.3786  150.6097 LP  0  0  0  0  0  0  0  0  0  0  0  0  # atno 17343 bound_to 10162
  156.3889  130.3894  149.7044 LP  0  0  0  0  0  0  0  0  0  0  0  0  # atno 17370 bound_to 10713
  156.4401  130.7857  151.2878 LP  0  0  0  0  0  0  0  0  0  0  0  0  # atno 17371 bound_to 10713
  139.8768  134.9958  156.5761 LP  0  0  0  0  0  0  0  0  0  0  0  0  # atno 17394 bound_to 11000
  140.8035  133.8486  155.8747 LP  0  0  0  0  0  0  0  0  0  0  0  0  # atno 17395 bound_to 11000

$$$$
