AV-unprocessed.smi:2492|AV-procd|sdf|9816|dock6
  -GOLD-   2272013443D 1   1.00000     0.00000
 Structure written by MMmdl.
 32 33  0  0  0  0  0  0  0  0  2 V2000
  153.7551  141.9530  162.3432 C   0  0  0  0  0  0  0  0  0  0  0  0
  153.2084  141.6340  160.6452 S   0  0  0  0  0  0  0  0  0  0  0  0
  153.1191  143.3330  160.0083 C   0  0  1  0  0  0  0  0  0  0  0  0
  152.3662  143.4435  158.6836 C   0  0  0  0  0  0  0  0  0  0  0  0
  151.9844  144.9216  158.5952 C   0  0  0  0  0  0  0  0  0  0  0  0
  151.7964  145.4004  160.0466 C   0  0  1  0  0  0  0  0  0  0  0  0
  150.3864  145.6695  160.3202 N   0  0  0  0  0  0  0  0  0  0  0  0
  149.3954  144.7666  160.2910 C   0  0  0  0  0  0  0  0  0  0  0  0
  149.6438  143.5904  160.0153 O   0  0  0  0  0  0  0  0  0  0  0  0
  148.1793  145.2831  160.5793 N   0  5  0  0  0  0  0  0  0  0  0  0
  147.1818  144.4733  160.9711 C   0  0  0  0  0  0  0  0  0  0  0  0
  146.0622  144.8506  161.5901 N   0  0  0  0  0  0  0  0  0  0  0  0
  145.4121  143.6654  161.7386 C   0  0  0  0  0  0  0  0  0  0  0  0
  144.0775  143.5503  162.3916 C   0  0  0  0  0  0  0  0  0  0  0  0
  146.0346  142.6008  161.2554 N   0  0  0  0  0  0  0  0  0  0  0  0
  147.2207  143.1360  160.7344 O   0  0  0  0  0  0  0  0  0  0  0  0
  152.3516  144.2729  160.9421 C   0  0  0  0  0  0  0  0  0  0  0  0
  153.8166  141.0174  162.8986 H   0  0  0  0  0  0  0  0  0  0  0  0
  153.0522  142.6118  162.8531 H   0  0  0  0  0  0  0  0  0  0  0  0
  154.7396  142.4205  162.3486 H   0  0  0  0  0  0  0  0  0  0  0  0
  154.1325  143.7156  159.8795 H   0  0  0  0  0  0  0  0  0  0  0  0
  152.9601  143.1172  157.8299 H   0  0  0  0  0  0  0  0  0  0  0  0
  151.4618  142.8342  158.7155 H   0  0  0  0  0  0  0  0  0  0  0  0
  152.8046  145.4771  158.1383 H   0  0  0  0  0  0  0  0  0  0  0  0
  151.1048  145.0787  157.9694 H   0  0  0  0  0  0  0  0  0  0  0  0
  152.3736  146.3157  160.1912 H   0  0  0  0  0  0  0  0  0  0  0  0
  150.1397  146.6210  160.5496 H   0  0  0  0  0  0  0  0  0  0  0  0
  143.2879  143.6026  161.6420 H   0  0  0  0  0  0  0  0  0  0  0  0
  143.9312  144.3597  163.1073 H   0  0  0  0  0  0  0  0  0  0  0  0
  143.9902  142.6023  162.9231 H   0  0  0  0  0  0  0  0  0  0  0  0
  151.5322  143.7272  161.4133 H   0  0  0  0  0  0  0  0  0  0  0  0
  152.9818  144.6590  161.7438 H   0  0  0  0  0  0  0  0  0  0  0  0
  1  2  1  0  0  0  0
  1 18  1  0  0  0  0
  1 19  1  0  0  0  0
  1 20  1  0  0  0  0
  2  3  1  0  0  0  0
  3 17  1  0  0  0  0
  3  4  1  0  0  0  0
  3 21  1  0  0  0  0
  4  5  1  0  0  0  0
  4 22  1  0  0  0  0
  4 23  1  0  0  0  0
  5  6  1  0  0  0  0
  5 24  1  0  0  0  0
  5 25  1  0  0  0  0
  6  7  1  0  0  0  0
  6 17  1  0  0  0  0
  6 26  1  0  0  0  0
  7  8  1  0  0  0  0
  7 27  1  0  0  0  0
  8  9  2  0  0  0  0
  8 10  1  0  0  0  0
 10 11  1  0  0  0  0
 11 16  1  0  0  0  0
 11 12  2  0  0  0  0
 12 13  1  0  0  0  0
 13 14  1  0  0  0  0
 13 15  2  0  0  0  0
 14 28  1  0  0  0  0
 14 29  1  0  0  0  0
 14 30  1  0  0  0  0
 15 16  1  0  0  0  0
 17 31  1  0  0  0  0
 17 32  1  0  0  0  0
M  CHG  1  10  -1
M  END
> <s_m_source_file>
AV-unprocessed.smi

> <i_m_source_file_index>
2492

> <i_lp_mmshare_version>
43012

> <i_f3d_flags>
0

> <s_epik_input>
W0NIM11TW0NAQEhdMVtDSDJdW0NIMl1bQ0BIXShbQ0gyXTEpW05IXUMoPU8pW05IXWMybmMoW0NIM10pbm8y

> <s_epik_cmdline>
J2VwaWtfcHl0aG9uJywgJy1waCcsICc3LjAnLCAnLXRuJywgJzgnLCAnLW1hJywgJzIwMCcsICctbWV0YWxfYmluZGluZycsICctaW1hZScsICc8aW5maWxlLm1hZT4nLCAnLW9tYWUnLCAnPG91dGZpbGUubWFlPic=

> <r_lp_tautomer_probability>
1

> <r_epik_Ionization_Penalty>
6.26454

> <r_epik_Ionization_Penalty_Charging>
6.26445

> <r_epik_Ionization_Penalty_Neutral>
9.05726e-05

> <r_epik_State_Penalty>
6.26444

> <r_epik_Charging_Adjusted_Penalty>
12.5289

> <i_epik_Tot_Q>
-1

> <i_epik_Tot_abs_Q>
1

> <r_epik_Metal_State_Penalty>
2.20125

> <b_epik_Metal_Only>
1

> <s_lp_Force_Field>
OPLS_2005

> <r_lp_Energy>
11.8534

> <b_lp_Chiralities_Consistent>
1

> <s_lp_Variant>
AV-unprocessed.smi:2492-6

> <Gold.Version>
5.8.1

> <Gold.Id.Protein>
6NUR|6NUR_protein|mol2

> <Gold.PLP.Fitness>
50.6470

> <Gold.PLP.PLP>
-47.2535

> <Gold.PLP.part.hbond>
-5.7541

> <Gold.PLP.part.metal>
0.0000

> <Gold.PLP.part.buried>
-8.8271

> <Gold.PLP.part.nonpolar>
-34.9774

> <Gold.PLP.part.repulsive>
2.1070

> <Gold.PLP.ligand.clash>
0.0000

> <Gold.PLP.ligand.torsion>
0.2527

> <Gold.PLP.Chemscore.Hbond>
1.2976

> <Gold.PLP.Chemscore.CHOScore>
0.0000

> <Gold.PLP.Chemscore.Metal>
0.0000

> <Gold.Chemscore.Hbonds>
donor molecule, donor type, donor heavy atom, donor atom, acceptor molecule, acceptor atom, score
      P1  H  6933  6944       L1    16  1.00
      P1  H  6934  6946       L1    15  0.14

> <Gold.PLP.Chemscore.Internal.Correction>
0.0061

> <Gold.Rescore>
     Score         DG    S(hbond)    S(metal)    S(lipo)     H(rot)  DE(clash)    DE(int)     intcor
     10.99     -15.94       0.87        0.00      92.28       1.27       0.35       4.60       ----

> <Gold.Chemscore.Fitness>
10.9914

> <Gold.Chemscore.DG>
-15.9376

> <Gold.Chemscore.ZeroCoef>
-5.4800

> <Gold.Chemscore.Hbond>
0.8726

> <Gold.Chemscore.Metal>
0.0000

> <Gold.Chemscore.Lipo>
92.2836

> <Gold.Chemscore.Internal_Hbond>
0.0000

> <Gold.Chemscore.DEClash>
0.3496

> <Gold.Chemscore.DEInternal>
4.5967

> <Gold.Chemscore.Rot>
1.2712

> <Gold.Chemscore.Internal.Correction>
   9.000000E+99

> <Gold.Chemscore.Hbonds>
donor molecule, donor type, donor heavy atom, donor atom, acceptor molecule, acceptor atom, score
      P1  H  6933  6944       L1    16  0.59

> <Gold.Chemscore.Hbond.Weighted>
-2.9146

> <Gold.Chemscore.Metal.Weighted>
-0.0000

> <Gold.Chemscore.Lipo.Weighted>
-10.7972

> <Gold.Chemscore.Internal_Hbond.Weighted>
0.0000

> <Gold.Chemscore.DEClash.Weighted>
0.3496

> <Gold.Chemscore.DEInternal.Weighted>
4.5967

> <Gold.Chemscore.Rot.Weighted>
3.2542

> <Gold.Chemscore.Internal.Correction.Weighted>
   9.000000E+99

> <Gold.Protein.RotatedTorsions>
[ 6907 6896 6895 6894 ] final -118.03 input  -60.11 | X-H torsion
[ 7974 7965 7964 7962 ] final   -9.40 input  175.53 | X-H torsion
[ 8008 7997 7996 7995 ] final   54.87 input   59.86 | X-H torsion
[ 10167 10162 10161 10158 ] final -107.24 input  -65.29 | X-H torsion
[ 10718 10713 10712 10709 ] final  -76.84 input   66.30 | X-H torsion
[ 10763 10752 10751 10750 ] final  -39.12 input  -60.55 | X-H torsion
[ 11005 11000 10999 10996 ] final  -40.84 input  -57.11 | X-H torsion

> <Gold.Protein.ActiveResidues>
 VAL166  LYS551  ARG553  GLY616  TRP617  ASP618  TYR619  PRO620  LYS621  CYS622 
 ASP623  PHE694  ASN695  SER759  ASP760  ASP761  ALA762  ILE779  LEU786  VAL792 
 PHE793  MET794  SER795  GLU796  ALA797  LYS798  CYS799  TRP800  GLU811  SER814 

> <Gold.Protein.RotatedAtoms>
  150.8186  133.8293  159.3149 H   0  0  0  0  0  0  0  0  0  0  0  0  # atno 6907 bound_to 6896
  151.6058  135.1042  160.0080 H   0  0  0  0  0  0  0  0  0  0  0  0  # atno 6908 bound_to 6896
  152.4276  133.7181  159.6574 H   0  0  0  0  0  0  0  0  0  0  0  0  # atno 6909 bound_to 6896
  146.2253  140.2610  142.8352 H   0  0  0  0  0  0  0  0  0  0  0  0  # atno 7974 bound_to 7965
  155.4918  140.3471  155.4356 H   0  0  0  0  0  0  0  0  0  0  0  0  # atno 8008 bound_to 7997
  156.0972  140.1426  156.9544 H   0  0  0  0  0  0  0  0  0  0  0  0  # atno 8009 bound_to 7997
  154.4671  140.0914  156.7025 H   0  0  0  0  0  0  0  0  0  0  0  0  # atno 8010 bound_to 7997
  140.1791  143.3981  152.1295 H   0  0  0  0  0  0  0  0  0  0  0  0  # atno 10167 bound_to 10162
  156.0163  130.4476  150.3254 H   0  0  0  0  0  0  0  0  0  0  0  0  # atno 10718 bound_to 10713
  153.9241  135.6779  153.4747 H   0  0  0  0  0  0  0  0  0  0  0  0  # atno 10763 bound_to 10752
  153.1013  135.4826  154.8869 H   0  0  0  0  0  0  0  0  0  0  0  0  # atno 10764 bound_to 10752
  154.7462  135.3173  154.8596 H   0  0  0  0  0  0  0  0  0  0  0  0  # atno 10765 bound_to 10752
  141.0203  133.6866  156.2376 H   0  0  0  0  0  0  0  0  0  0  0  0  # atno 11005 bound_to 11000
  144.9339  140.8005  143.5672 LP  0  0  0  0  0  0  0  0  0  0  0  0  # atno 17320 bound_to 7965
  145.2556  139.2013  143.4919 LP  0  0  0  0  0  0  0  0  0  0  0  0  # atno 17321 bound_to 7965
  139.5304  144.7152  151.5077 LP  0  0  0  0  0  0  0  0  0  0  0  0  # atno 17342 bound_to 10162
  140.6531  143.8654  150.6807 LP  0  0  0  0  0  0  0  0  0  0  0  0  # atno 17343 bound_to 10162
  157.1353  131.0282  151.2951 LP  0  0  0  0  0  0  0  0  0  0  0  0  # atno 17370 bound_to 10713
  157.4516  130.7602  149.7156 LP  0  0  0  0  0  0  0  0  0  0  0  0  # atno 17371 bound_to 10713
  140.6583  134.4994  157.5582 LP  0  0  0  0  0  0  0  0  0  0  0  0  # atno 17394 bound_to 11000
  139.9142  134.8280  156.1422 LP  0  0  0  0  0  0  0  0  0  0  0  0  # atno 17395 bound_to 11000

$$$$
