AV-unprocessed.smi:2072|AV-procd|sdf|8442|dock1
  -GOLD-   2272011143D 1   1.00000     0.00000
 Structure written by MMmdl.
 40 42  0  0  0  0  0  0  0  0  2 V2000
  150.1520  134.8397  155.8660 O   0  0  0  0  0  0  0  0  0  0  0  0
  149.7751  135.2646  154.7749 C   0  0  0  0  0  0  0  0  0  0  0  0
  150.0242  136.4902  154.2819 N   0  0  0  0  0  0  0  0  0  0  0  0
  150.7549  137.5654  154.8601 C   0  0  0  0  0  0  0  0  0  0  0  0
  151.6385  137.4479  155.9619 C   0  0  0  0  0  0  0  0  0  0  0  0
  152.3030  138.5994  156.4267 C   0  0  0  0  0  0  0  0  0  0  0  0
  152.0658  139.8241  155.7738 C   0  0  0  0  0  0  0  0  0  0  0  0
  151.2333  139.9504  154.7195 N   0  0  0  0  0  0  0  0  0  0  0  0
  150.5999  138.8425  154.2795 C   0  0  0  0  0  0  0  0  0  0  0  0
  149.0384  134.5414  153.9197 N   0  0  0  0  0  0  0  0  0  0  0  0
  148.5975  133.1674  154.1434 C   0  0  2  0  0  0  0  0  0  0  0  0
  149.7482  132.2094  154.4276 C   0  0  0  0  0  0  0  0  0  0  0  0
  149.1164  130.8470  154.1342 C   0  0  0  0  0  0  0  0  0  0  0  0
  148.1412  131.0736  153.0422 N   0  3  1  0  0  0  0  0  0  0  0  0
  146.9041  130.2612  153.1460 C   0  0  0  0  0  0  0  0  0  0  0  0
  145.9647  130.5371  151.9567 C   0  0  0  0  0  0  0  0  0  0  0  0
  145.7551  132.0416  151.6852 C   0  0  0  0  0  0  0  0  0  0  0  0
  146.4421  132.9255  152.7369 C   0  0  0  0  0  0  0  0  0  0  0  0
  147.9306  132.5432  152.9058 C   0  0  1  0  0  0  0  0  0  0  0  0
  149.6143  136.6925  153.3817 H   0  0  0  0  0  0  0  0  0  0  0  0
  151.8313  136.5102  156.4572 H   0  0  0  0  0  0  0  0  0  0  0  0
  152.9818  138.5439  157.2647 H   0  0  0  0  0  0  0  0  0  0  0  0
  152.5598  140.7253  156.1057 H   0  0  0  0  0  0  0  0  0  0  0  0
  149.9434  138.9824  153.4329 H   0  0  0  0  0  0  0  0  0  0  0  0
  148.7701  134.9697  153.0458 H   0  0  0  0  0  0  0  0  0  0  0  0
  147.9123  133.1250  154.9933 H   0  0  0  0  0  0  0  0  0  0  0  0
  150.5766  132.3916  153.7411 H   0  0  0  0  0  0  0  0  0  0  0  0
  150.1274  132.2889  155.4468 H   0  0  0  0  0  0  0  0  0  0  0  0
  149.8562  130.0960  153.8566 H   0  0  0  0  0  0  0  0  0  0  0  0
  148.6006  130.4907  155.0276 H   0  0  0  0  0  0  0  0  0  0  0  0
  147.1638  129.2026  153.1779 H   0  0  0  0  0  0  0  0  0  0  0  0
  146.3958  130.4870  154.0849 H   0  0  0  0  0  0  0  0  0  0  0  0
  146.3691  130.0673  151.0592 H   0  0  0  0  0  0  0  0  0  0  0  0
  145.0034  130.0555  152.1390 H   0  0  0  0  0  0  0  0  0  0  0  0
  146.1560  132.2863  150.7009 H   0  0  0  0  0  0  0  0  0  0  0  0
  144.6902  132.2720  151.6432 H   0  0  0  0  0  0  0  0  0  0  0  0
  146.3537  133.9739  152.4515 H   0  0  0  0  0  0  0  0  0  0  0  0
  145.9172  132.8263  153.6881 H   0  0  0  0  0  0  0  0  0  0  0  0
  148.4783  132.8429  152.0105 H   0  0  0  0  0  0  0  0  0  0  0  0
  148.5948  130.7859  152.1868 H   0  0  0  0  0  0  0  0  0  0  0  0
  1  2  2  0  0  0  0
  2  3  1  0  0  0  0
  2 10  1  0  0  0  0
  3  4  1  0  0  0  0
  3 20  1  0  0  0  0
  4  9  1  0  0  0  0
  4  5  2  0  0  0  0
  5  6  1  0  0  0  0
  5 21  1  0  0  0  0
  6  7  2  0  0  0  0
  6 22  1  0  0  0  0
  7  8  1  0  0  0  0
  7 23  1  0  0  0  0
  8  9  2  0  0  0  0
  9 24  1  0  0  0  0
 10 11  1  0  0  0  0
 10 25  1  0  0  0  0
 11 19  1  0  0  0  0
 11 12  1  0  0  0  0
 11 26  1  0  0  0  0
 12 13  1  0  0  0  0
 12 27  1  0  0  0  0
 12 28  1  0  0  0  0
 13 14  1  0  0  0  0
 13 29  1  0  0  0  0
 13 30  1  0  0  0  0
 14 19  1  0  0  0  0
 14 15  1  0  0  0  0
 14 40  1  0  0  0  0
 15 16  1  0  0  0  0
 15 31  1  0  0  0  0
 15 32  1  0  0  0  0
 16 17  1  0  0  0  0
 16 33  1  0  0  0  0
 16 34  1  0  0  0  0
 17 18  1  0  0  0  0
 17 35  1  0  0  0  0
 17 36  1  0  0  0  0
 18 19  1  0  0  0  0
 18 37  1  0  0  0  0
 18 38  1  0  0  0  0
 19 39  1  0  0  0  0
M  CHG  1  14   1
M  END
> <s_m_source_file>
AV-unprocessed.smi

> <i_m_source_file_index>
2072

> <i_lp_mmshare_version>
43012

> <i_f3d_flags>
0

> <s_epik_input>
W0NIMl0xW0NIMl1bQ0gyXVtDSDJdW0NASF0oTjEyKVtDQEBIXShbQ0gyXVtDSDJdMilbTkhdQyg9TylbTkhdYzNbY0hdW2NIXVtjSF1uW2NIXTM=

> <s_epik_cmdline>
J2VwaWtfcHl0aG9uJywgJy1waCcsICc3LjAnLCAnLXRuJywgJzgnLCAnLW1hJywgJzIwMCcsICctbWV0YWxfYmluZGluZycsICctaW1hZScsICc8aW5maWxlLm1hZT4nLCAnLW9tYWUnLCAnPG91dGZpbGUubWFlPic=

> <r_lp_tautomer_probability>
1

> <r_epik_Ionization_Penalty>
0.00482425

> <r_epik_Ionization_Penalty_Charging>
0.000974069

> <r_epik_Ionization_Penalty_Neutral>
0.00385018

> <r_epik_State_Penalty>
-0

> <r_epik_Charging_Adjusted_Penalty>
0.000974069

> <i_epik_Tot_Q>
1

> <i_epik_Tot_abs_Q>
1

> <r_epik_Metal_State_Penalty>
-0

> <b_epik_Metal_Only>
0

> <s_lp_Force_Field>
OPLS_2005

> <r_lp_Energy>
43.341

> <b_lp_Chiralities_Consistent>
1

> <s_lp_Variant>
AV-unprocessed.smi:2072-1

> <Gold.Version>
5.8.1

> <Gold.Id.Protein>
6NUR|6NUR_protein|mol2

> <Gold.PLP.Fitness>
48.9154

> <Gold.PLP.PLP>
-34.1120

> <Gold.PLP.part.hbond>
-5.0000

> <Gold.PLP.part.metal>
0.0000

> <Gold.PLP.part.buried>
-2.1520

> <Gold.PLP.part.nonpolar>
-26.9464

> <Gold.PLP.part.repulsive>
0.1867

> <Gold.PLP.ligand.clash>
0.0000

> <Gold.PLP.ligand.torsion>
0.0885

> <Gold.PLP.Chemscore.Hbond>
4.0000

> <Gold.PLP.Chemscore.CHOScore>
0.9910

> <Gold.PLP.Chemscore.Metal>
0.0000

> <Gold.Chemscore.Hbonds>
donor molecule, donor type, donor heavy atom, donor atom, acceptor molecule, acceptor atom, score
      L1  H     3    20       P1  7948  1.00
      L1  H    10    25       P1  7948  1.00
      L1  H    14    40       P1 10747  1.00
      P1  H  7989  7998       L1     8  1.00
      L1  C     9    24       P1  7957  1.00

> <Gold.PLP.Chemscore.Internal.Correction>
0.0075

> <Gold.Rescore>
     Score         DG    S(hbond)    S(metal)    S(lipo)     H(rot)  DE(clash)    DE(int)     intcor
     21.06     -22.17       3.10        0.00      76.08       1.00       0.01       1.10       ----

> <Gold.Chemscore.Fitness>
21.0638

> <Gold.Chemscore.DG>
-22.1724

> <Gold.Chemscore.ZeroCoef>
-5.4800

> <Gold.Chemscore.Hbond>
3.0991

> <Gold.Chemscore.Metal>
0.0000

> <Gold.Chemscore.Lipo>
76.0803

> <Gold.Chemscore.Internal_Hbond>
0.0000

> <Gold.Chemscore.DEClash>
0.0118

> <Gold.Chemscore.DEInternal>
1.0968

> <Gold.Chemscore.Rot>
1.0000

> <Gold.Chemscore.Internal.Correction>
   9.000000E+99

> <Gold.Chemscore.Hbonds>
donor molecule, donor type, donor heavy atom, donor atom, acceptor molecule, acceptor atom, score
      L1  H     3    20       P1  7948  0.58
      L1  H    10    25       P1  7948  0.33
      L1  H    14    40       P1 10747  0.84
      P1  H  7989  7998       L1     8  0.71

> <Gold.Chemscore.Hbond.Weighted>
-10.3510

> <Gold.Chemscore.Metal.Weighted>
-0.0000

> <Gold.Chemscore.Lipo.Weighted>
-8.9014

> <Gold.Chemscore.Internal_Hbond.Weighted>
0.0000

> <Gold.Chemscore.DEClash.Weighted>
0.0118

> <Gold.Chemscore.DEInternal.Weighted>
1.0968

> <Gold.Chemscore.Rot.Weighted>
2.5600

> <Gold.Chemscore.Internal.Correction.Weighted>
   9.000000E+99

> <Gold.Protein.RotatedTorsions>
[ 6907 6896 6895 6894 ] final   53.10 input  -60.11 | X-H torsion
[ 7974 7965 7964 7962 ] final  168.77 input  175.53 | X-H torsion
[ 8008 7997 7996 7995 ] final   39.64 input   59.86 | X-H torsion
[ 10167 10162 10161 10158 ] final   85.41 input  -65.29 | X-H torsion
[ 10718 10713 10712 10709 ] final  -44.75 input   66.30 | X-H torsion
[ 10763 10752 10751 10750 ] final -102.50 input  -60.55 | X-H torsion
[ 11005 11000 10999 10996 ] final  145.98 input  -57.11 | X-H torsion

> <Gold.Protein.ActiveResidues>
 VAL166  LYS551  ARG553  GLY616  TRP617  ASP618  TYR619  PRO620  LYS621  CYS622 
 ASP623  PHE694  ASN695  SER759  ASP760  ASP761  ALA762  ILE779  LEU786  VAL792 
 PHE793  MET794  SER795  GLU796  ALA797  LYS798  CYS799  TRP800  GLU811  SER814 

> <Gold.Protein.RotatedAtoms>
  152.3302  134.7269  160.0291 H   0  0  0  0  0  0  0  0  0  0  0  0  # atno 6907 bound_to 6896
  151.7688  133.3334  159.3446 H   0  0  0  0  0  0  0  0  0  0  0  0  # atno 6908 bound_to 6896
  150.7419  134.5970  159.6061 H   0  0  0  0  0  0  0  0  0  0  0  0  # atno 6909 bound_to 6896
  144.7377  139.8956  143.6406 H   0  0  0  0  0  0  0  0  0  0  0  0  # atno 7974 bound_to 7965
  155.2400  140.3344  155.4293 H   0  0  0  0  0  0  0  0  0  0  0  0  # atno 8008 bound_to 7997
  156.2260  140.1829  156.7407 H   0  0  0  0  0  0  0  0  0  0  0  0  # atno 8009 bound_to 7997
  154.5899  140.0639  156.9209 H   0  0  0  0  0  0  0  0  0  0  0  0  # atno 8010 bound_to 7997
  139.8980  144.6346  150.8667 H   0  0  0  0  0  0  0  0  0  0  0  0  # atno 10167 bound_to 10162
  156.2354  130.4175  149.8824 H   0  0  0  0  0  0  0  0  0  0  0  0  # atno 10718 bound_to 10713
  154.7738  135.4858  153.9703 H   0  0  0  0  0  0  0  0  0  0  0  0  # atno 10763 bound_to 10752
  153.1402  135.6771  153.9046 H   0  0  0  0  0  0  0  0  0  0  0  0  # atno 10764 bound_to 10752
  153.8722  135.3142  155.3421 H   0  0  0  0  0  0  0  0  0  0  0  0  # atno 10765 bound_to 10752
  140.0756  134.9126  157.1417 H   0  0  0  0  0  0  0  0  0  0  0  0  # atno 11005 bound_to 11000
  146.1110  139.4115  143.0288 LP  0  0  0  0  0  0  0  0  0  0  0  0  # atno 17320 bound_to 7965
  145.7443  140.9996  143.1284 LP  0  0  0  0  0  0  0  0  0  0  0  0  # atno 17321 bound_to 7965
  140.7713  143.3459  151.2113 LP  0  0  0  0  0  0  0  0  0  0  0  0  # atno 17342 bound_to 10162
  139.7051  143.9469  152.2923 LP  0  0  0  0  0  0  0  0  0  0  0  0  # atno 17343 bound_to 10162
  156.6424  130.8710  151.3516 LP  0  0  0  0  0  0  0  0  0  0  0  0  # atno 17370 bound_to 10713
  157.7152  130.9488  150.1229 LP  0  0  0  0  0  0  0  0  0  0  0  0  # atno 17371 bound_to 10713
  140.3562  134.2544  155.7192 LP  0  0  0  0  0  0  0  0  0  0  0  0  # atno 17394 bound_to 11000
  141.2028  133.7928  157.0371 LP  0  0  0  0  0  0  0  0  0  0  0  0  # atno 17395 bound_to 11000

$$$$
