AV-unprocessed.smi:69|AV-procd|sdf|645|dock10
  -GOLD-   2262016543D 1   1.00000     0.00000
 Structure written by MMmdl.
 32 34  0  0  0  0  0  0  0  0  1 V2000
  153.0175  140.2922  159.5152 N   0  0  0  0  0  0  0  0  0  0  0  0
  152.5700  139.9402  158.3019 C   0  0  0  0  0  0  0  0  0  0  0  0
  153.0509  138.8046  157.7445 N   0  0  0  0  0  0  0  0  0  0  0  0
  152.6189  138.4313  156.5358 C   0  0  0  0  0  0  0  0  0  0  0  0
  151.7346  139.0392  155.7407 N   0  0  0  0  0  0  0  0  0  0  0  0
  151.2488  140.1847  156.3024 C   0  0  0  0  0  0  0  0  0  0  0  0
  151.6177  140.7004  157.5765 C   0  0  0  0  0  0  0  0  0  0  0  0
  150.9299  141.8789  157.8276 N   0  0  0  0  0  0  0  0  0  0  0  0
  150.1932  142.0440  156.7622 C   0  0  0  0  0  0  0  0  0  0  0  0
  150.3257  141.0764  155.7892 N   0  0  0  0  0  0  0  0  0  0  0  0
  149.5920  141.0039  154.4843 C   0  0  2  0  0  0  0  0  0  0  0  0
  148.6725  142.0554  154.4418 O   0  0  0  0  0  0  0  0  0  0  0  0
  147.3363  141.5592  154.3727 C   0  0  1  0  0  0  0  0  0  0  0  0
  146.4181  142.5442  153.6275 C   0  0  0  0  0  0  0  0  0  0  0  0
  145.0956  142.4344  154.1092 O   0  0  0  0  0  0  0  0  0  0  0  0
  147.4991  140.1793  153.7227 C   0  0  1  0  0  0  0  0  0  0  0  0
  147.5747  140.2992  152.3103 O   0  0  0  0  0  0  0  0  0  0  0  0
  148.8068  139.6911  154.3378 C   0  0  1  0  0  0  0  0  0  0  0  0
  149.4480  138.7351  153.5135 O   0  0  0  0  0  0  0  0  0  0  0  0
  150.3487  141.1536  153.7127 H   0  0  0  0  0  0  0  0  0  0  0  0
  146.9596  141.4074  155.3842 H   0  0  0  0  0  0  0  0  0  0  0  0
  146.6676  139.5165  153.9652 H   0  0  0  0  0  0  0  0  0  0  0  0
  148.6115  139.2582  155.3190 H   0  0  0  0  0  0  0  0  0  0  0  0
  152.6737  141.1350  159.9525 H   0  0  0  0  0  0  0  0  0  0  0  0
  153.6929  139.7118  159.9910 H   0  0  0  0  0  0  0  0  0  0  0  0
  153.0420  137.5156  156.1501 H   0  0  0  0  0  0  0  0  0  0  0  0
  149.5247  142.8863  156.6574 H   0  0  0  0  0  0  0  0  0  0  0  0
  146.7717  143.5710  153.7254 H   0  0  0  0  0  0  0  0  0  0  0  0
  146.3970  142.3063  152.5635 H   0  0  0  0  0  0  0  0  0  0  0  0
  144.6762  141.7090  153.6724 H   0  0  0  0  0  0  0  0  0  0  0  0
  148.4653  140.1236  152.0455 H   0  0  0  0  0  0  0  0  0  0  0  0
  149.4487  139.0588  152.6257 H   0  0  0  0  0  0  0  0  0  0  0  0
  1  2  1  0  0  0  0
  1 24  1  0  0  0  0
  1 25  1  0  0  0  0
  2  7  1  0  0  0  0
  2  3  2  0  0  0  0
  3  4  1  0  0  0  0
  4  5  2  0  0  0  0
  4 26  1  0  0  0  0
  5  6  1  0  0  0  0
  6 10  1  0  0  0  0
  6  7  2  0  0  0  0
  7  8  1  0  0  0  0
  8  9  2  0  0  0  0
  9 10  1  0  0  0  0
  9 27  1  0  0  0  0
 10 11  1  0  0  0  0
 11 20  1  0  0  0  0
 11 18  1  0  0  0  0
 11 12  1  0  0  0  0
 12 13  1  0  0  0  0
 13 21  1  0  0  0  0
 13 14  1  0  0  0  0
 13 16  1  0  0  0  0
 14 15  1  0  0  0  0
 14 28  1  0  0  0  0
 14 29  1  0  0  0  0
 15 30  1  0  0  0  0
 16 22  1  0  0  0  0
 16 17  1  0  0  0  0
 16 18  1  0  0  0  0
 17 31  1  0  0  0  0
 18 23  1  0  0  0  0
 18 19  1  0  0  0  0
 19 32  1  0  0  0  0
M  END
> <s_m_source_file>
AV-unprocessed.smi

> <i_m_source_file_index>
69

> <i_lp_mmshare_version>
43012

> <i_f3d_flags>
0

> <s_epik_input>
bjFbY0hdbmMoW05IMl0pYyhjMTIpbltjSF1uMltDQEBIXTNPW0NASF0oW0NIMl1bT0hdKVtDQEBIXShbT0hdKVtDQEhdM1tPSF0=

> <s_epik_cmdline>
J2VwaWtfcHl0aG9uJywgJy1waCcsICc3LjAnLCAnLXRuJywgJzgnLCAnLW1hJywgJzIwMCcsICctbWV0YWxfYmluZGluZycsICctaW1hZScsICc8aW5maWxlLm1hZT4nLCAnLW9tYWUnLCAnPG91dGZpbGUubWFlPic=

> <r_lp_tautomer_probability>
1

> <r_epik_Ionization_Penalty>
0.000428445

> <r_epik_Ionization_Penalty_Charging>
0

> <r_epik_Ionization_Penalty_Neutral>
0.000428445

> <r_epik_State_Penalty>
-0

> <r_epik_Charging_Adjusted_Penalty>
0

> <i_epik_Tot_Q>
0

> <i_epik_Tot_abs_Q>
0

> <r_epik_Metal_State_Penalty>
-0

> <b_epik_Metal_Only>
0

> <s_epik_Chemistry_Notes>
This compound contains an acetal/aminal-like group ( X-CH(R)-Y where X, Y are N, S, or O) that may be acid/base labile, releasing an aldehyde.

> <s_lp_Force_Field>
OPLS_2005

> <r_lp_Energy>
42.3633

> <b_lp_Chiralities_Consistent>
1

> <s_lp_Variant>
AV-unprocessed.smi:69-3

> <Gold.Version>
5.8.1

> <Gold.Id.Protein>
6NUR|6NUR_protein|mol2

> <Gold.PLP.Fitness>
41.7552

> <Gold.PLP.PLP>
-29.9028

> <Gold.PLP.part.hbond>
-5.3775

> <Gold.PLP.part.metal>
0.0000

> <Gold.PLP.part.buried>
-3.1391

> <Gold.PLP.part.nonpolar>
-22.6776

> <Gold.PLP.part.repulsive>
1.5333

> <Gold.PLP.ligand.clash>
0.0000

> <Gold.PLP.ligand.torsion>
0.4130

> <Gold.PLP.Chemscore.Hbond>
3.2236

> <Gold.PLP.Chemscore.CHOScore>
1.0000

> <Gold.PLP.Chemscore.Metal>
0.0000

> <Gold.Chemscore.Hbonds>
donor molecule, donor type, donor heavy atom, donor atom, acceptor molecule, acceptor atom, score
      L1  H    15    30       P1 10175  0.55
      L1  H    17    31       P1  7957  0.75
      L1  H    19    32       P1  7957  1.00
      P1  H  7997  8008       L1     3  0.11
      L1  C     9    27       P1  8028  1.00

> <Gold.PLP.Chemscore.Internal.Correction>
0.0075

> <Gold.Rescore>
     Score         DG    S(hbond)    S(metal)    S(lipo)     H(rot)  DE(clash)    DE(int)     intcor
      7.42      -7.82       2.88        0.00      26.00       4.03       0.03       0.38       ----

> <Gold.Chemscore.Fitness>
7.4159

> <Gold.Chemscore.DG>
-7.8230

> <Gold.Chemscore.ZeroCoef>
-5.4800

> <Gold.Chemscore.Hbond>
2.8777

> <Gold.Chemscore.Metal>
0.0000

> <Gold.Chemscore.Lipo>
26.0036

> <Gold.Chemscore.Internal_Hbond>
0.0000

> <Gold.Chemscore.DEClash>
0.0299

> <Gold.Chemscore.DEInternal>
0.3772

> <Gold.Chemscore.Rot>
4.0277

> <Gold.Chemscore.Internal.Correction>
   9.000000E+99

> <Gold.Chemscore.Hbonds>
donor molecule, donor type, donor heavy atom, donor atom, acceptor molecule, acceptor atom, score
      L1  H    15    30       P1 10175  0.03
      L1  H    17    31       P1  7957  0.74
      L1  H    19    32       P1  7957  0.97

> <Gold.Chemscore.Hbond.Weighted>
-9.6116

> <Gold.Chemscore.Metal.Weighted>
-0.0000

> <Gold.Chemscore.Lipo.Weighted>
-3.0424

> <Gold.Chemscore.Internal_Hbond.Weighted>
0.0000

> <Gold.Chemscore.DEClash.Weighted>
0.0299

> <Gold.Chemscore.DEInternal.Weighted>
0.3772

> <Gold.Chemscore.Rot.Weighted>
10.3110

> <Gold.Chemscore.Internal.Correction.Weighted>
   9.000000E+99

> <Gold.Protein.RotatedTorsions>
[ 6907 6896 6895 6894 ] final  155.40 input  -60.11 | X-H torsion
[ 7974 7965 7964 7962 ] final  -60.52 input  175.53 | X-H torsion
[ 8008 7997 7996 7995 ] final -109.48 input   59.86 | X-H torsion
[ 10167 10162 10161 10158 ] final -148.24 input  -65.29 | X-H torsion
[ 10718 10713 10712 10709 ] final -134.90 input   66.30 | X-H torsion
[ 10763 10752 10751 10750 ] final  172.40 input  -60.55 | X-H torsion
[ 11005 11000 10999 10996 ] final  122.03 input  -57.11 | X-H torsion

> <Gold.Protein.ActiveResidues>
 VAL166  LYS551  ARG553  GLY616  TRP617  ASP618  TYR619  PRO620  LYS621  CYS622 
 ASP623  PHE694  ASN695  SER759  ASP760  ASP761  ALA762  ILE779  LEU786  VAL792 
 PHE793  MET794  SER795  GLU796  ALA797  LYS798  CYS799  TRP800  GLU811  SER814 

> <Gold.Protein.RotatedAtoms>
  152.0446  133.3992  159.4351 H   0  0  0  0  0  0  0  0  0  0  0  0  # atno 6907 bound_to 6896
  150.6873  134.3376  159.4863 H   0  0  0  0  0  0  0  0  0  0  0  0  # atno 6908 bound_to 6896
  152.1179  134.9227  160.0615 H   0  0  0  0  0  0  0  0  0  0  0  0  # atno 6909 bound_to 6896
  145.8146  140.8578  143.0164 H   0  0  0  0  0  0  0  0  0  0  0  0  # atno 7974 bound_to 7965
  154.9600  140.0399  157.2185 H   0  0  0  0  0  0  0  0  0  0  0  0  # atno 8008 bound_to 7997
  154.7898  140.2833  155.5978 H   0  0  0  0  0  0  0  0  0  0  0  0  # atno 8009 bound_to 7997
  156.2948  140.2575  156.2743 H   0  0  0  0  0  0  0  0  0  0  0  0  # atno 8010 bound_to 7997
  139.7549  143.8463  152.2595 H   0  0  0  0  0  0  0  0  0  0  0  0  # atno 10167 bound_to 10162
  156.2604  130.7206  151.1138 H   0  0  0  0  0  0  0  0  0  0  0  0  # atno 10718 bound_to 10713
  154.4255  135.2758  155.1947 H   0  0  0  0  0  0  0  0  0  0  0  0  # atno 10763 bound_to 10752
  154.3875  135.6073  153.5828 H   0  0  0  0  0  0  0  0  0  0  0  0  # atno 10764 bound_to 10752
  152.9834  135.5895  154.4558 H   0  0  0  0  0  0  0  0  0  0  0  0  # atno 10765 bound_to 10752
  139.9251  134.9640  156.8048 H   0  0  0  0  0  0  0  0  0  0  0  0  # atno 11005 bound_to 11000
  144.6754  140.0445  143.7480 LP  0  0  0  0  0  0  0  0  0  0  0  0  # atno 17320 bound_to 7965
  145.9741  139.2891  143.1081 LP  0  0  0  0  0  0  0  0  0  0  0  0  # atno 17321 bound_to 7965
  139.8452  144.7191  150.9282 LP  0  0  0  0  0  0  0  0  0  0  0  0  # atno 17342 bound_to 10162
  140.7801  143.3948  151.1249 LP  0  0  0  0  0  0  0  0  0  0  0  0  # atno 17343 bound_to 10162
  157.7248  131.0657  150.5979 LP  0  0  0  0  0  0  0  0  0  0  0  0  # atno 17370 bound_to 10713
  156.6066  130.4368  149.5876 LP  0  0  0  0  0  0  0  0  0  0  0  0  # atno 17371 bound_to 10713
  140.6360  133.9862  155.7684 LP  0  0  0  0  0  0  0  0  0  0  0  0  # atno 17394 bound_to 11000
  141.0802  134.0074  157.3397 LP  0  0  0  0  0  0  0  0  0  0  0  0  # atno 17395 bound_to 11000

$$$$
