AV-unprocessed.smi:1978|AV-procd|sdf|7995|dock1
  -GOLD-   2272010173D 1   1.00000     0.00000
 Structure written by MMmdl.
 45 46  0  0  0  0  0  0  0  0  2 V2000
  153.3638  143.3979  160.0833 C   0  0  0  0  0  0  0  0  0  0  0  0
  152.1932  142.8989  159.3073 C   0  0  0  0  0  0  0  0  0  0  0  0
  151.4424  143.4440  158.3038 C   0  0  0  0  0  0  0  0  0  0  0  0
  150.4893  142.4276  158.0292 C   0  0  0  0  0  0  0  0  0  0  0  0
  149.5048  142.6040  157.0234 N   0  0  0  0  0  0  0  0  0  0  0  0
  148.4895  141.7776  156.7198 C   0  0  0  0  0  0  0  0  0  0  0  0
  148.2441  140.7152  157.2921 O   0  0  0  0  0  0  0  0  0  0  0  0
  147.7616  142.2510  155.6969 N   0  0  0  0  0  0  0  0  0  0  0  0
  146.5750  141.6089  155.1355 C   0  0  0  0  0  0  0  0  0  0  0  0
  146.8868  140.7845  153.8613 C   0  0  1  0  0  0  0  0  0  0  0  0
  148.3870  140.4605  153.6853 C   0  0  0  0  0  0  0  0  0  0  0  0
  146.0227  139.5608  153.7835 N   0  3  2  0  0  0  0  0  0  0  0  0
  145.7231  138.9520  155.1140 C   0  0  0  0  0  0  0  0  0  0  0  0
  144.6205  137.8891  155.0106 C   0  0  0  0  0  0  0  0  0  0  0  0
  145.0258  136.7933  154.0231 C   0  0  0  0  0  0  0  0  0  0  0  0
  145.3676  137.4219  152.6686 C   0  0  0  0  0  0  0  0  0  0  0  0
  146.4516  138.5161  152.7930 C   0  0  1  0  0  0  0  0  0  0  0  0
  146.7546  139.0751  151.3875 C   0  0  0  0  0  0  0  0  0  0  0  0
  150.6439  141.3589  158.7955 N   0  0  0  0  0  0  0  0  0  0  0  0
  151.7360  141.6559  159.6192 O   0  0  0  0  0  0  0  0  0  0  0  0
  153.9582  144.0899  159.4866 H   0  0  0  0  0  0  0  0  0  0  0  0
  154.0101  142.5741  160.3872 H   0  0  0  0  0  0  0  0  0  0  0  0
  153.0363  143.9204  160.9822 H   0  0  0  0  0  0  0  0  0  0  0  0
  151.5595  144.4136  157.8431 H   0  0  0  0  0  0  0  0  0  0  0  0
  149.5854  143.4480  156.4759 H   0  0  0  0  0  0  0  0  0  0  0  0
  148.0387  143.1312  155.2870 H   0  0  0  0  0  0  0  0  0  0  0  0
  146.0956  141.0027  155.9035 H   0  0  0  0  0  0  0  0  0  0  0  0
  145.8638  142.3985  154.8910 H   0  0  0  0  0  0  0  0  0  0  0  0
  146.6112  141.4528  153.0495 H   0  0  0  0  0  0  0  0  0  0  0  0
  148.9759  141.3697  153.5670 H   0  0  0  0  0  0  0  0  0  0  0  0
  148.5691  139.8562  152.7972 H   0  0  0  0  0  0  0  0  0  0  0  0
  148.7895  139.9246  154.5452 H   0  0  0  0  0  0  0  0  0  0  0  0
  146.6252  138.4979  155.5262 H   0  0  0  0  0  0  0  0  0  0  0  0
  145.3993  139.7040  155.8303 H   0  0  0  0  0  0  0  0  0  0  0  0
  144.4289  137.4531  155.9915 H   0  0  0  0  0  0  0  0  0  0  0  0
  143.6872  138.3540  154.6893 H   0  0  0  0  0  0  0  0  0  0  0  0
  145.8883  136.2473  154.4073 H   0  0  0  0  0  0  0  0  0  0  0  0
  144.2196  136.0676  153.9109 H   0  0  0  0  0  0  0  0  0  0  0  0
  145.7013  136.6391  151.9861 H   0  0  0  0  0  0  0  0  0  0  0  0
  144.4641  137.8472  152.2287 H   0  0  0  0  0  0  0  0  0  0  0  0
  147.3612  138.0437  153.1664 H   0  0  0  0  0  0  0  0  0  0  0  0
  146.8967  138.2665  150.6699 H   0  0  0  0  0  0  0  0  0  0  0  0
  147.6742  139.6594  151.3650 H   0  0  0  0  0  0  0  0  0  0  0  0
  145.9392  139.6988  151.0201 H   0  0  0  0  0  0  0  0  0  0  0  0
  145.1370  139.8978  153.4340 H   0  0  0  0  0  0  0  0  0  0  0  0
  1  2  1  0  0  0  0
  1 21  1  0  0  0  0
  1 22  1  0  0  0  0
  1 23  1  0  0  0  0
  2 20  1  0  0  0  0
  2  3  2  0  0  0  0
  3  4  1  0  0  0  0
  3 24  1  0  0  0  0
  4  5  1  0  0  0  0
  4 19  2  0  0  0  0
  5  6  1  0  0  0  0
  5 25  1  0  0  0  0
  6  7  2  0  0  0  0
  6  8  1  0  0  0  0
  8  9  1  0  0  0  0
  8 26  1  0  0  0  0
  9 10  1  0  0  0  0
  9 27  1  0  0  0  0
  9 28  1  0  0  0  0
 10 11  1  0  0  0  0
 10 12  1  0  0  0  0
 10 29  1  0  0  0  0
 11 30  1  0  0  0  0
 11 31  1  0  0  0  0
 11 32  1  0  0  0  0
 12 17  1  0  0  0  0
 12 13  1  0  0  0  0
 12 45  1  0  0  0  0
 13 14  1  0  0  0  0
 13 33  1  0  0  0  0
 13 34  1  0  0  0  0
 14 15  1  0  0  0  0
 14 35  1  0  0  0  0
 14 36  1  0  0  0  0
 15 16  1  0  0  0  0
 15 37  1  0  0  0  0
 15 38  1  0  0  0  0
 16 17  1  0  0  0  0
 16 39  1  0  0  0  0
 16 40  1  0  0  0  0
 17 18  1  0  0  0  0
 17 41  1  0  0  0  0
 18 42  1  0  0  0  0
 18 43  1  0  0  0  0
 18 44  1  0  0  0  0
 19 20  1  0  0  0  0
M  CHG  1  12   1
M  END
> <s_m_source_file>
AV-unprocessed.smi

> <i_m_source_file_index>
1978

> <i_lp_mmshare_version>
43012

> <i_f3d_flags>
0

> <s_epik_input>
W0NIM11jMVtjSF1jKG5vMSlbTkhdQyg9TylbTkhdW0NIMl1bQ0BIXShbQ0gzXSlOMltDSDJdW0NIMl1bQ0gyXVtDSDJdW0NASF0yW0NIM10=

> <s_epik_cmdline>
J2VwaWtfcHl0aG9uJywgJy1waCcsICc3LjAnLCAnLXRuJywgJzgnLCAnLW1hJywgJzIwMCcsICctbWV0YWxfYmluZGluZycsICctaW1hZScsICc8aW5maWxlLm1hZT4nLCAnLW9tYWUnLCAnPG91dGZpbGUubWFlPic=

> <r_epik_Ionization_Penalty>
0.00265971

> <r_epik_Ionization_Penalty_Charging>
0.00262393

> <r_epik_Ionization_Penalty_Neutral>
3.57846e-05

> <r_epik_State_Penalty>
0.00182566

> <r_epik_Charging_Adjusted_Penalty>
0.00444959

> <i_epik_Tot_Q>
1

> <i_epik_Tot_abs_Q>
1

> <r_epik_Metal_State_Penalty>
0.0216344

> <b_epik_Metal_Only>
0

> <s_lp_Force_Field>
OPLS_2005

> <r_lp_Energy>
21.4618

> <b_lp_Chiralities_Consistent>
1

> <s_lp_Variant>
AV-unprocessed.smi:1978-4

> <Gold.Version>
5.8.1

> <Gold.Id.Protein>
6NUR|6NUR_protein|mol2

> <Gold.PLP.Fitness>
38.2684

> <Gold.PLP.PLP>
-28.7436

> <Gold.PLP.part.hbond>
-4.0561

> <Gold.PLP.part.metal>
0.0000

> <Gold.PLP.part.buried>
0.3168

> <Gold.PLP.part.nonpolar>
-24.8445

> <Gold.PLP.part.repulsive>
0.0959

> <Gold.PLP.ligand.clash>
0.0000

> <Gold.PLP.ligand.torsion>
1.2363

> <Gold.PLP.Chemscore.Hbond>
3.9600

> <Gold.PLP.Chemscore.CHOScore>
0.0000

> <Gold.PLP.Chemscore.Metal>
0.0000

> <Gold.Chemscore.Hbonds>
donor molecule, donor type, donor heavy atom, donor atom, acceptor molecule, acceptor atom, score
      L1  H     5    25       P1  8028  1.00
      L1  H     8    26       P1  8028  0.88
      L1  H    12    45       P1 10175  2.00

> <Gold.PLP.Chemscore.Internal.Correction>
0.1175

> <Gold.Rescore>
     Score         DG    S(hbond)    S(metal)    S(lipo)     H(rot)  DE(clash)    DE(int)     intcor
     16.65     -19.77       2.78        0.00      76.60       1.55       0.71       2.42       ----

> <Gold.Chemscore.Fitness>
16.6483

> <Gold.Chemscore.DG>
-19.7740

> <Gold.Chemscore.ZeroCoef>
-5.4800

> <Gold.Chemscore.Hbond>
2.7823

> <Gold.Chemscore.Metal>
0.0000

> <Gold.Chemscore.Lipo>
76.6006

> <Gold.Chemscore.Internal_Hbond>
0.0000

> <Gold.Chemscore.DEClash>
0.7099

> <Gold.Chemscore.DEInternal>
2.4158

> <Gold.Chemscore.Rot>
1.5474

> <Gold.Chemscore.Internal.Correction>
   9.000000E+99

> <Gold.Chemscore.Hbonds>
donor molecule, donor type, donor heavy atom, donor atom, acceptor molecule, acceptor atom, score
      L1  H     5    25       P1  8028  0.95
      L1  H     8    26       P1  8028  0.74
      L1  H    12    45       P1 10175  1.00

> <Gold.Chemscore.Hbond.Weighted>
-9.2930

> <Gold.Chemscore.Metal.Weighted>
-0.0000

> <Gold.Chemscore.Lipo.Weighted>
-8.9623

> <Gold.Chemscore.Internal_Hbond.Weighted>
0.0000

> <Gold.Chemscore.DEClash.Weighted>
0.7099

> <Gold.Chemscore.DEInternal.Weighted>
2.4158

> <Gold.Chemscore.Rot.Weighted>
3.9612

> <Gold.Chemscore.Internal.Correction.Weighted>
   9.000000E+99

> <Gold.Protein.RotatedTorsions>
[ 6907 6896 6895 6894 ] final -166.49 input  -60.11 | X-H torsion
[ 7974 7965 7964 7962 ] final   44.72 input  175.53 | X-H torsion
[ 8008 7997 7996 7995 ] final    4.04 input   59.86 | X-H torsion
[ 10167 10162 10161 10158 ] final  128.23 input  -65.29 | X-H torsion
[ 10718 10713 10712 10709 ] final  -32.53 input   66.30 | X-H torsion
[ 10763 10752 10751 10750 ] final  -34.49 input  -60.55 | X-H torsion
[ 11005 11000 10999 10996 ] final -160.97 input  -57.11 | X-H torsion

> <Gold.Protein.ActiveResidues>
 VAL166  LYS551  ARG553  GLY616  TRP617  ASP618  TYR619  PRO620  LYS621  CYS622 
 ASP623  PHE694  ASN695  SER759  ASP760  ASP761  ALA762  ILE779  LEU786  VAL792 
 PHE793  MET794  SER795  GLU796  ALA797  LYS798  CYS799  TRP800  GLU811  SER814 

> <Gold.Protein.RotatedAtoms>
  151.4444  133.3634  159.2786 H   0  0  0  0  0  0  0  0  0  0  0  0  # atno 6907 bound_to 6896
  150.9135  134.8553  159.7452 H   0  0  0  0  0  0  0  0  0  0  0  0  # atno 6908 bound_to 6896
  152.4944  134.4376  159.9585 H   0  0  0  0  0  0  0  0  0  0  0  0  # atno 6909 bound_to 6896
  146.0543  139.5043  142.9698 H   0  0  0  0  0  0  0  0  0  0  0  0  # atno 7974 bound_to 7965
  154.7110  140.2692  155.6629 H   0  0  0  0  0  0  0  0  0  0  0  0  # atno 8008 bound_to 7997
  156.2795  140.2753  156.1676 H   0  0  0  0  0  0  0  0  0  0  0  0  # atno 8009 bound_to 7997
  155.0634  140.0371  157.2574 H   0  0  0  0  0  0  0  0  0  0  0  0  # atno 8010 bound_to 7997
  139.5538  144.6833  151.4244 H   0  0  0  0  0  0  0  0  0  0  0  0  # atno 10167 bound_to 10162
  156.3737  130.4344  149.7524 H   0  0  0  0  0  0  0  0  0  0  0  0  # atno 10718 bound_to 10713
  153.8475  135.6852  153.4796 H   0  0  0  0  0  0  0  0  0  0  0  0  # atno 10763 bound_to 10752
  153.1417  135.4655  154.9503 H   0  0  0  0  0  0  0  0  0  0  0  0  # atno 10764 bound_to 10752
  154.7817  135.3271  154.7922 H   0  0  0  0  0  0  0  0  0  0  0  0  # atno 10765 bound_to 10752
  140.6256  134.4705  157.5226 H   0  0  0  0  0  0  0  0  0  0  0  0  # atno 11005 bound_to 11000
  145.6670  141.0226  143.1678 LP  0  0  0  0  0  0  0  0  0  0  0  0  # atno 17320 bound_to 7965
  144.7140  139.8266  143.7405 LP  0  0  0  0  0  0  0  0  0  0  0  0  # atno 17321 bound_to 7965
  140.6806  143.8090  150.7117 LP  0  0  0  0  0  0  0  0  0  0  0  0  # atno 17342 bound_to 10162
  140.1542  143.4331  152.2111 LP  0  0  0  0  0  0  0  0  0  0  0  0  # atno 17343 bound_to 10162
  156.4642  130.7966  151.2985 LP  0  0  0  0  0  0  0  0  0  0  0  0  # atno 17370 bound_to 10713
  157.7486  131.0056  150.3120 LP  0  0  0  0  0  0  0  0  0  0  0  0  # atno 17371 bound_to 10713
  139.9136  134.8293  156.1442 LP  0  0  0  0  0  0  0  0  0  0  0  0  # atno 17394 bound_to 11000
  141.0712  133.6796  156.2144 LP  0  0  0  0  0  0  0  0  0  0  0  0  # atno 17395 bound_to 11000

$$$$
