AV-unprocessed.smi:1953|AV-procd|sdf|7893|dock8
  -GOLD-   2272010 53D 1   1.00000     0.00000
 Structure written by MMmdl.
 43 45  0  0  0  0  0  0  0  0  1 V2000
  153.4844  138.7185  154.3171 N   0  0  0  0  0  0  0  0  0  0  0  0
  152.3661  138.4508  154.4491 C   0  0  0  0  0  0  0  0  0  0  0  0
  150.9816  138.1424  154.5896 C   0  0  0  0  0  0  0  0  0  0  0  0
  150.0211  138.9300  154.0635 C   0  0  0  0  0  0  0  0  0  0  0  0
  148.6793  138.6385  154.1775 N   0  0  0  0  0  0  0  0  0  0  0  0
  147.6695  139.5587  153.7358 C   0  0  0  0  0  0  0  0  0  0  0  0
  147.8569  141.0493  153.9427 C   0  0  0  0  0  0  0  0  0  0  0  0
  146.8425  140.2958  154.7669 C   0  0  0  0  0  0  0  0  0  0  0  0
  148.2565  137.5255  154.9359 C   0  0  0  0  0  0  0  0  0  0  0  0
  147.0580  137.2935  155.1148 O   0  0  0  0  0  0  0  0  0  0  0  0
  149.2517  136.6823  155.4878 N   0  0  0  0  0  0  0  0  0  0  0  0
  148.8178  135.4782  156.2294 C   0  0  0  0  0  0  0  0  0  0  0  0
  149.1591  135.5420  157.7254 C   0  0  0  0  0  0  0  0  0  0  0  0
  150.2855  135.8699  158.1015 O   0  0  0  0  0  0  0  0  0  0  0  0
  148.1633  135.2325  158.5694 N   0  0  0  0  0  0  0  0  0  0  0  0
  148.2665  135.2083  160.0253 C   0  0  0  0  0  0  0  0  0  0  0  0
  147.9146  133.8085  160.5730 C   0  0  0  0  0  0  0  0  0  0  0  0
  147.9333  133.7837  162.1098 C   0  0  0  0  0  0  0  0  0  0  0  0
  146.9998  134.8536  162.6964 C   0  0  0  0  0  0  0  0  0  0  0  0
  147.3538  136.2497  162.1609 C   0  0  0  0  0  0  0  0  0  0  0  0
  147.3344  136.2790  160.6241 C   0  0  0  0  0  0  0  0  0  0  0  0
  150.6395  136.9327  155.3344 C   0  0  0  0  0  0  0  0  0  0  0  0
  151.4802  136.1660  155.8070 O   0  0  0  0  0  0  0  0  0  0  0  0
  150.3125  139.8192  153.5231 H   0  0  0  0  0  0  0  0  0  0  0  0
  147.1443  139.2698  152.8272 H   0  0  0  0  0  0  0  0  0  0  0  0
  148.7562  141.3896  154.4529 H   0  0  0  0  0  0  0  0  0  0  0  0
  147.4825  141.7137  153.1668 H   0  0  0  0  0  0  0  0  0  0  0  0
  145.7910  140.4595  154.5411 H   0  0  0  0  0  0  0  0  0  0  0  0
  147.0738  140.1393  155.8187 H   0  0  0  0  0  0  0  0  0  0  0  0
  147.7444  135.3095  156.1343 H   0  0  0  0  0  0  0  0  0  0  0  0
  149.2645  134.5824  155.7939 H   0  0  0  0  0  0  0  0  0  0  0  0
  147.2692  134.9810  158.1734 H   0  0  0  0  0  0  0  0  0  0  0  0
  149.2918  135.4524  160.3104 H   0  0  0  0  0  0  0  0  0  0  0  0
  146.9264  133.5110  160.2189 H   0  0  0  0  0  0  0  0  0  0  0  0
  148.6148  133.0650  160.1907 H   0  0  0  0  0  0  0  0  0  0  0  0
  147.6404  132.7966  162.4685 H   0  0  0  0  0  0  0  0  0  0  0  0
  148.9510  133.9520  162.4644 H   0  0  0  0  0  0  0  0  0  0  0  0
  145.9657  134.6159  162.4434 H   0  0  0  0  0  0  0  0  0  0  0  0
  147.0618  134.8454  163.7849 H   0  0  0  0  0  0  0  0  0  0  0  0
  146.6542  136.9872  162.5551 H   0  0  0  0  0  0  0  0  0  0  0  0
  148.3426  136.5387  162.5194 H   0  0  0  0  0  0  0  0  0  0  0  0
  147.6279  137.2690  160.2729 H   0  0  0  0  0  0  0  0  0  0  0  0
  146.3135  136.1175  160.2747 H   0  0  0  0  0  0  0  0  0  0  0  0
  1  2  3  0  0  0  0
  2  3  1  0  0  0  0
  3 22  1  0  0  0  0
  3  4  2  0  0  0  0
  4  5  1  0  0  0  0
  4 24  1  0  0  0  0
  5  6  1  0  0  0  0
  5  9  1  0  0  0  0
  6  8  1  0  0  0  0
  6  7  1  0  0  0  0
  6 25  1  0  0  0  0
  7  8  1  0  0  0  0
  7 26  1  0  0  0  0
  7 27  1  0  0  0  0
  8 28  1  0  0  0  0
  8 29  1  0  0  0  0
  9 10  2  0  0  0  0
  9 11  1  0  0  0  0
 11 12  1  0  0  0  0
 11 22  1  0  0  0  0
 12 13  1  0  0  0  0
 12 30  1  0  0  0  0
 12 31  1  0  0  0  0
 13 14  2  0  0  0  0
 13 15  1  0  0  0  0
 15 16  1  0  0  0  0
 15 32  1  0  0  0  0
 16 21  1  0  0  0  0
 16 17  1  0  0  0  0
 16 33  1  0  0  0  0
 17 18  1  0  0  0  0
 17 34  1  0  0  0  0
 17 35  1  0  0  0  0
 18 19  1  0  0  0  0
 18 36  1  0  0  0  0
 18 37  1  0  0  0  0
 19 20  1  0  0  0  0
 19 38  1  0  0  0  0
 19 39  1  0  0  0  0
 20 21  1  0  0  0  0
 20 40  1  0  0  0  0
 20 41  1  0  0  0  0
 21 42  1  0  0  0  0
 21 43  1  0  0  0  0
 22 23  2  0  0  0  0
M  END
> <s_m_source_file>
AV-unprocessed.smi

> <i_m_source_file_index>
1953

> <i_lp_mmshare_version>
43012

> <i_f3d_flags>
0

> <s_epik_input>
TiNDYzFbY0hdbihbQ0hdMltDSDJdW0NIMl0yKWMoPU8pbihjMT1PKVtDSDJdQyg9TylbTkhdW0NIXTNbQ0gyXVtDSDJdW0NIMl1bQ0gyXVtDSDJdMw==

> <s_epik_cmdline>
J2VwaWtfcHl0aG9uJywgJy1waCcsICc3LjAnLCAnLXRuJywgJzgnLCAnLW1hJywgJzIwMCcsICctbWV0YWxfYmluZGluZycsICctaW1hZScsICc8aW5maWxlLm1hZT4nLCAnLW9tYWUnLCAnPG91dGZpbGUubWFlPic=

> <r_lp_tautomer_probability>
1

> <r_epik_Ionization_Penalty>
1.91355e-08

> <r_epik_Ionization_Penalty_Charging>
8.86257e-11

> <r_epik_Ionization_Penalty_Neutral>
1.90469e-08

> <r_epik_State_Penalty>
-0

> <r_epik_Charging_Adjusted_Penalty>
8.86257e-11

> <i_epik_Tot_Q>
0

> <i_epik_Tot_abs_Q>
0

> <r_epik_Metal_State_Penalty>
-0

> <b_epik_Metal_Only>
0

> <s_lp_Force_Field>
OPLS_2005

> <r_lp_Energy>
34.5376

> <b_lp_Chiralities_Consistent>
1

> <s_lp_Variant>
AV-unprocessed.smi:1953-1

> <Gold.Version>
5.8.1

> <Gold.Id.Protein>
6NUR|6NUR_protein|mol2

> <Gold.PLP.Fitness>
49.1326

> <Gold.PLP.PLP>
-41.6715

> <Gold.PLP.part.hbond>
-3.0000

> <Gold.PLP.part.metal>
0.0000

> <Gold.PLP.part.buried>
-4.6029

> <Gold.PLP.part.nonpolar>
-33.6725

> <Gold.PLP.part.repulsive>
0.1294

> <Gold.PLP.ligand.clash>
0.0000

> <Gold.PLP.ligand.torsion>
0.4606

> <Gold.PLP.Chemscore.Hbond>
2.7280

> <Gold.PLP.Chemscore.CHOScore>
0.0000

> <Gold.PLP.Chemscore.Metal>
0.0000

> <Gold.Chemscore.Hbonds>
donor molecule, donor type, donor heavy atom, donor atom, acceptor molecule, acceptor atom, score
      P1  H  6896  6907       L1    14  0.80
      P1  H  7997  8009       L1     1  0.28
      P1  H 10752 10764       L1    23  1.00
      L1  C     4    24       P1  7957  0.77

> <Gold.PLP.Chemscore.Internal.Correction>
0.1983

> <Gold.Rescore>
     Score         DG    S(hbond)    S(metal)    S(lipo)     H(rot)  DE(clash)    DE(int)     intcor
     17.37     -19.38       2.76        0.00      78.00       1.73       0.01       2.00       ----

> <Gold.Chemscore.Fitness>
17.3701

> <Gold.Chemscore.DG>
-19.3811

> <Gold.Chemscore.ZeroCoef>
-5.4800

> <Gold.Chemscore.Hbond>
2.7556

> <Gold.Chemscore.Metal>
0.0000

> <Gold.Chemscore.Lipo>
77.9974

> <Gold.Chemscore.Internal_Hbond>
0.0000

> <Gold.Chemscore.DEClash>
0.0077

> <Gold.Chemscore.DEInternal>
2.0033

> <Gold.Chemscore.Rot>
1.7298

> <Gold.Chemscore.Internal.Correction>
   9.000000E+99

> <Gold.Chemscore.Hbonds>
donor molecule, donor type, donor heavy atom, donor atom, acceptor molecule, acceptor atom, score
      P1  H  6896  6907       L1    14  0.62
      P1  H  7997  8009       L1     1  0.28
      P1  H 10752 10764       L1    23  0.99

> <Gold.Chemscore.Hbond.Weighted>
-9.2037

> <Gold.Chemscore.Metal.Weighted>
-0.0000

> <Gold.Chemscore.Lipo.Weighted>
-9.1257

> <Gold.Chemscore.Internal_Hbond.Weighted>
0.0000

> <Gold.Chemscore.DEClash.Weighted>
0.0077

> <Gold.Chemscore.DEInternal.Weighted>
2.0033

> <Gold.Chemscore.Rot.Weighted>
4.4284

> <Gold.Chemscore.Internal.Correction.Weighted>
   9.000000E+99

> <Gold.Protein.RotatedTorsions>
[ 6907 6896 6895 6894 ] final  -52.38 input  -60.11 | X-H torsion
[ 7974 7965 7964 7962 ] final  -88.21 input  175.53 | X-H torsion
[ 8008 7997 7996 7995 ] final -125.19 input   59.86 | X-H torsion
[ 10167 10162 10161 10158 ] final   28.88 input  -65.29 | X-H torsion
[ 10718 10713 10712 10709 ] final  133.09 input   66.30 | X-H torsion
[ 10763 10752 10751 10750 ] final  -44.21 input  -60.55 | X-H torsion
[ 11005 11000 10999 10996 ] final   82.67 input  -57.11 | X-H torsion

> <Gold.Protein.ActiveResidues>
 VAL166  LYS551  ARG553  GLY616  TRP617  ASP618  TYR619  PRO620  LYS621  CYS622 
 ASP623  PHE694  ASN695  SER759  ASP760  ASP761  ALA762  ILE779  LEU786  VAL792 
 PHE793  MET794  SER795  GLU796  ALA797  LYS798  CYS799  TRP800  GLU811  SER814 

> <Gold.Protein.RotatedAtoms>
  150.8523  134.7851  159.7018 H   0  0  0  0  0  0  0  0  0  0  0  0  # atno 6907 bound_to 6896
  152.4584  134.5236  159.9799 H   0  0  0  0  0  0  0  0  0  0  0  0  # atno 6908 bound_to 6896
  151.5354  133.3403  159.2961 H   0  0  0  0  0  0  0  0  0  0  0  0  # atno 6909 bound_to 6896
  145.4561  140.9561  143.1995 H   0  0  0  0  0  0  0  0  0  0  0  0  # atno 7974 bound_to 7965
  155.2091  140.0418  157.2930 H   0  0  0  0  0  0  0  0  0  0  0  0  # atno 8008 bound_to 7997
  154.6023  140.2455  155.7747 H   0  0  0  0  0  0  0  0  0  0  0  0  # atno 8009 bound_to 7997
  156.2329  140.2932  156.0244 H   0  0  0  0  0  0  0  0  0  0  0  0  # atno 8010 bound_to 7997
  140.4814  144.0610  150.6266 H   0  0  0  0  0  0  0  0  0  0  0  0  # atno 10167 bound_to 10162
  157.4807  131.1085  150.9686 H   0  0  0  0  0  0  0  0  0  0  0  0  # atno 10718 bound_to 10713
  154.0084  135.6684  153.4763 H   0  0  0  0  0  0  0  0  0  0  0  0  # atno 10763 bound_to 10752
  153.0632  135.5016  154.8136 H   0  0  0  0  0  0  0  0  0  0  0  0  # atno 10764 bound_to 10752
  154.7011  135.3079  154.9304 H   0  0  0  0  0  0  0  0  0  0  0  0  # atno 10765 bound_to 10752
  139.9056  134.8089  156.2206 H   0  0  0  0  0  0  0  0  0  0  0  0  # atno 11005 bound_to 11000
  144.8031  139.6103  143.7063 LP  0  0  0  0  0  0  0  0  0  0  0  0  # atno 17320 bound_to 7965
  146.2477  139.6133  142.9448 LP  0  0  0  0  0  0  0  0  0  0  0  0  # atno 17321 bound_to 7965
  140.3853  143.2781  152.0123 LP  0  0  0  0  0  0  0  0  0  0  0  0  # atno 17342 bound_to 10162
  139.4834  144.6121  151.7413 LP  0  0  0  0  0  0  0  0  0  0  0  0  # atno 17343 bound_to 10162
  157.0420  130.5753  149.5357 LP  0  0  0  0  0  0  0  0  0  0  0  0  # atno 17370 bound_to 10713
  156.0120  130.5212  150.8017 LP  0  0  0  0  0  0  0  0  0  0  0  0  # atno 17371 bound_to 10713
  141.0408  133.6939  156.1594 LP  0  0  0  0  0  0  0  0  0  0  0  0  # atno 17394 bound_to 11000
  140.6958  134.4616  157.5587 LP  0  0  0  0  0  0  0  0  0  0  0  0  # atno 17395 bound_to 11000

$$$$
