AV-unprocessed.smi:3154|AV-procd|sdf|12022|dock1
  -GOLD-   2272017433D 1   1.00000     0.00000
 Structure written by MMmdl.
 35 36  0  0  0  0  0  0  0  0  2 V2000
  143.4716  136.1585  152.4752 C   0  0  0  0  0  0  0  0  0  0  0  0
  144.9197  136.4732  152.0630 C   0  0  1  0  0  0  0  0  0  0  0  0
  145.3190  135.7854  150.7367 C   0  0  0  0  0  0  0  0  0  0  0  0
  145.1753  134.3413  150.7813 N   0  0  0  0  0  0  0  0  0  0  0  0
  144.0171  133.5925  150.8037 C   0  0  0  0  0  0  0  0  0  0  0  0
  144.3847  132.2778  150.8333 C   0  0  0  0  0  0  0  0  0  0  0  0
  145.8069  132.3235  150.8185 C   0  0  0  0  0  0  0  0  0  0  0  0
  146.2768  133.5603  150.7838 N   0  0  0  0  0  0  0  0  0  0  0  0
  145.0954  137.9400  151.9789 N   0  3  0  0  0  0  0  0  0  0  0  0
  146.4964  138.4105  151.9023 C   0  0  0  0  0  0  0  0  0  0  0  0
  147.1791  138.4225  153.2716 C   0  0  0  0  0  0  0  0  0  0  0  0
  146.5449  138.1544  154.2930 O   0  0  0  0  0  0  0  0  0  0  0  0
  148.4823  138.7387  153.2723 N   0  0  0  0  0  0  0  0  0  0  0  0
  149.3179  138.8089  154.4273 C   0  0  0  0  0  0  0  0  0  0  0  0
  150.0172  140.1210  154.7103 C   0  0  0  0  0  0  0  0  0  0  0  0
  150.8093  138.9453  154.2082 C   0  0  0  0  0  0  0  0  0  0  0  0
  143.3245  135.0916  152.6451 H   0  0  0  0  0  0  0  0  0  0  0  0
  142.7633  136.4739  151.7083 H   0  0  0  0  0  0  0  0  0  0  0  0
  143.2082  136.6693  153.4020 H   0  0  0  0  0  0  0  0  0  0  0  0
  145.5685  136.1082  152.8607 H   0  0  0  0  0  0  0  0  0  0  0  0
  144.7067  136.1652  149.9174 H   0  0  0  0  0  0  0  0  0  0  0  0
  146.3548  136.0048  150.4778 H   0  0  0  0  0  0  0  0  0  0  0  0
  143.0391  134.0509  150.7991 H   0  0  0  0  0  0  0  0  0  0  0  0
  143.7366  131.4143  150.8584 H   0  0  0  0  0  0  0  0  0  0  0  0
  146.5064  131.5007  150.8301 H   0  0  0  0  0  0  0  0  0  0  0  0
  144.5842  138.2919  151.1821 H   0  0  0  0  0  0  0  0  0  0  0  0
  147.0631  137.7610  151.2337 H   0  0  0  0  0  0  0  0  0  0  0  0
  146.5309  139.4185  151.4892 H   0  0  0  0  0  0  0  0  0  0  0  0
  148.9205  138.9456  152.3863 H   0  0  0  0  0  0  0  0  0  0  0  0
  149.0162  138.2308  155.2998 H   0  0  0  0  0  0  0  0  0  0  0  0
  149.8524  140.9464  154.0201 H   0  0  0  0  0  0  0  0  0  0  0  0
  150.1477  140.4055  155.7525 H   0  0  0  0  0  0  0  0  0  0  0  0
  151.4673  138.4440  154.9154 H   0  0  0  0  0  0  0  0  0  0  0  0
  151.1736  138.9872  153.1833 H   0  0  0  0  0  0  0  0  0  0  0  0
  144.6953  138.3449  152.8134 H   0  0  0  0  0  0  0  0  0  0  0  0
  1  2  1  0  0  0  0
  1 17  1  0  0  0  0
  1 18  1  0  0  0  0
  1 19  1  0  0  0  0
  2  3  1  0  0  0  0
  2  9  1  0  0  0  0
  2 20  1  0  0  0  0
  3  4  1  0  0  0  0
  3 21  1  0  0  0  0
  3 22  1  0  0  0  0
  4  8  1  0  0  0  0
  4  5  1  0  0  0  0
  5  6  2  0  0  0  0
  5 23  1  0  0  0  0
  6  7  1  0  0  0  0
  6 24  1  0  0  0  0
  7  8  2  0  0  0  0
  7 25  1  0  0  0  0
  9 10  1  0  0  0  0
  9 26  1  0  0  0  0
  9 35  1  0  0  0  0
 10 11  1  0  0  0  0
 10 27  1  0  0  0  0
 10 28  1  0  0  0  0
 11 12  2  0  0  0  0
 11 13  1  0  0  0  0
 13 14  1  0  0  0  0
 13 29  1  0  0  0  0
 14 16  1  0  0  0  0
 14 15  1  0  0  0  0
 14 30  1  0  0  0  0
 15 16  1  0  0  0  0
 15 31  1  0  0  0  0
 15 32  1  0  0  0  0
 16 33  1  0  0  0  0
 16 34  1  0  0  0  0
M  CHG  1   9   1
M  END
> <s_m_source_file>
AV-unprocessed.smi

> <i_m_source_file_index>
3154

> <i_lp_mmshare_version>
43012

> <i_f3d_flags>
0

> <s_epik_input>
bjFbY0hdW2NIXVtjSF1uMVtDSDJdW0NAQEhdKFtDSDNdKVtOSF1bQ0gyXUMoPU8pW05IXVtDSF0yW0NIMl1bQ0gyXTI=

> <s_epik_cmdline>
J2VwaWtfcHl0aG9uJywgJy1waCcsICc3LjAnLCAnLXRuJywgJzgnLCAnLW1hJywgJzIwMCcsICctbWV0YWxfYmluZGluZycsICctaW1hZScsICc8aW5maWxlLm1hZT4nLCAnLW9tYWUnLCAnPG91dGZpbGUubWFlPic=

> <r_lp_tautomer_probability>
1

> <r_epik_Ionization_Penalty>
0.12065

> <r_epik_Ionization_Penalty_Charging>
0.120646

> <r_epik_Ionization_Penalty_Neutral>
4.1343e-06

> <r_epik_State_Penalty>
0.110186

> <r_epik_Charging_Adjusted_Penalty>
0.230832

> <i_epik_Tot_Q>
1

> <i_epik_Tot_abs_Q>
1

> <r_epik_Metal_State_Penalty>
0.110197

> <b_epik_Metal_Only>
0

> <s_lp_Force_Field>
OPLS_2005

> <r_lp_Energy>
15.3554

> <b_lp_Chiralities_Consistent>
1

> <s_lp_Variant>
AV-unprocessed.smi:3154-2

> <Gold.Version>
5.8.1

> <Gold.Id.Protein>
6NUR|6NUR_protein|mol2

> <Gold.PLP.Fitness>
46.3924

> <Gold.PLP.PLP>
-34.3956

> <Gold.PLP.part.hbond>
-4.0000

> <Gold.PLP.part.metal>
0.0000

> <Gold.PLP.part.buried>
-4.1530

> <Gold.PLP.part.nonpolar>
-27.8773

> <Gold.PLP.part.repulsive>
0.4047

> <Gold.PLP.ligand.clash>
0.0000

> <Gold.PLP.ligand.torsion>
0.3376

> <Gold.PLP.Chemscore.Hbond>
2.1529

> <Gold.PLP.Chemscore.CHOScore>
1.9981

> <Gold.PLP.Chemscore.Metal>
0.0000

> <Gold.Chemscore.Hbonds>
donor molecule, donor type, donor heavy atom, donor atom, acceptor molecule, acceptor atom, score
      L1  H     9    26       P1 10171  1.00
      L1  H     9    35       P1 10175  0.09
      L1  H    13    29       P1  7957  1.00
      L1  C     5    23       P1 10186  1.00
      L1  C     7    25       P1 10747  0.80

> <Gold.PLP.Chemscore.Internal.Correction>
0.2189

> <Gold.Rescore>
     Score         DG    S(hbond)    S(metal)    S(lipo)     H(rot)  DE(clash)    DE(int)     intcor
     14.43     -15.01       2.08        0.00      70.30       2.20       0.12       0.46       ----

> <Gold.Chemscore.Fitness>
14.4305

> <Gold.Chemscore.DG>
-15.0077

> <Gold.Chemscore.ZeroCoef>
-5.4800

> <Gold.Chemscore.Hbond>
2.0796

> <Gold.Chemscore.Metal>
0.0000

> <Gold.Chemscore.Lipo>
70.2964

> <Gold.Chemscore.Internal_Hbond>
0.0000

> <Gold.Chemscore.DEClash>
0.1165

> <Gold.Chemscore.DEInternal>
0.4607

> <Gold.Chemscore.Rot>
2.2042

> <Gold.Chemscore.Internal.Correction>
   9.000000E+99

> <Gold.Chemscore.Hbonds>
donor molecule, donor type, donor heavy atom, donor atom, acceptor molecule, acceptor atom, score
      L1  H     9    26       P1 10171  0.97
      L1  H     9    35       P1 10175  0.05
      L1  H    13    29       P1  7957  0.96

> <Gold.Chemscore.Hbond.Weighted>
-6.9457

> <Gold.Chemscore.Metal.Weighted>
-0.0000

> <Gold.Chemscore.Lipo.Weighted>
-8.2247

> <Gold.Chemscore.Internal_Hbond.Weighted>
0.0000

> <Gold.Chemscore.DEClash.Weighted>
0.1165

> <Gold.Chemscore.DEInternal.Weighted>
0.4607

> <Gold.Chemscore.Rot.Weighted>
5.6427

> <Gold.Chemscore.Internal.Correction.Weighted>
   9.000000E+99

> <Gold.Protein.RotatedTorsions>
[ 6907 6896 6895 6894 ] final -103.58 input  -60.11 | X-H torsion
[ 7974 7965 7964 7962 ] final   44.32 input  175.53 | X-H torsion
[ 8008 7997 7996 7995 ] final  110.19 input   59.86 | X-H torsion
[ 10167 10162 10161 10158 ] final -169.28 input  -65.29 | X-H torsion
[ 10718 10713 10712 10709 ] final  112.53 input   66.30 | X-H torsion
[ 10763 10752 10751 10750 ] final  -99.39 input  -60.55 | X-H torsion
[ 11005 11000 10999 10996 ] final  140.79 input  -57.11 | X-H torsion

> <Gold.Protein.ActiveResidues>
 VAL166  LYS551  ARG553  GLY616  TRP617  ASP618  TYR619  PRO620  LYS621  CYS622 
 ASP623  PHE694  ASN695  SER759  ASP760  ASP761  ALA762  ILE779  LEU786  VAL792 
 PHE793  MET794  SER795  GLU796  ALA797  LYS798  CYS799  TRP800  GLU811  SER814 

> <Gold.Protein.RotatedAtoms>
  150.7247  134.0407  159.3764 H   0  0  0  0  0  0  0  0  0  0  0  0  # atno 6907 bound_to 6896
  151.8380  135.0597  160.0454 H   0  0  0  0  0  0  0  0  0  0  0  0  # atno 6908 bound_to 6896
  152.2884  133.5501  159.5578 H   0  0  0  0  0  0  0  0  0  0  0  0  # atno 6909 bound_to 6896
  146.0578  139.5087  142.9677 H   0  0  0  0  0  0  0  0  0  0  0  0  # atno 7974 bound_to 7965
  156.2035  140.3043  155.9576 H   0  0  0  0  0  0  0  0  0  0  0  0  # atno 8008 bound_to 7997
  155.2898  140.0441  157.3039 H   0  0  0  0  0  0  0  0  0  0  0  0  # atno 8009 bound_to 7997
  154.5602  140.2318  155.8356 H   0  0  0  0  0  0  0  0  0  0  0  0  # atno 8010 bound_to 7997
  139.5932  144.1167  152.1659 H   0  0  0  0  0  0  0  0  0  0  0  0  # atno 10167 bound_to 10162
  157.6388  131.0969  150.6908 H   0  0  0  0  0  0  0  0  0  0  0  0  # atno 10718 bound_to 10713
  154.7494  135.4974  153.9262 H   0  0  0  0  0  0  0  0  0  0  0  0  # atno 10763 bound_to 10752
  153.1127  135.6713  153.9480 H   0  0  0  0  0  0  0  0  0  0  0  0  # atno 10764 bound_to 10752
  153.9235  135.3085  155.3426 H   0  0  0  0  0  0  0  0  0  0  0  0  # atno 10765 bound_to 10752
  140.0353  134.9332  157.0741 H   0  0  0  0  0  0  0  0  0  0  0  0  # atno 11005 bound_to 11000
  145.6613  141.0240  143.1707 LP  0  0  0  0  0  0  0  0  0  0  0  0  # atno 17320 bound_to 7965
  144.7158  139.8203  143.7399 LP  0  0  0  0  0  0  0  0  0  0  0  0  # atno 17321 bound_to 7965
  140.0747  144.5750  150.7166 LP  0  0  0  0  0  0  0  0  0  0  0  0  # atno 17342 bound_to 10162
  140.7191  143.2571  151.4339 LP  0  0  0  0  0  0  0  0  0  0  0  0  # atno 17343 bound_to 10162
  156.7235  130.4688  149.5517 LP  0  0  0  0  0  0  0  0  0  0  0  0  # atno 17370 bound_to 10713
  156.1649  130.6399  151.0766 LP  0  0  0  0  0  0  0  0  0  0  0  0  # atno 17371 bound_to 10713
  140.4157  134.1933  155.7163 LP  0  0  0  0  0  0  0  0  0  0  0  0  # atno 17394 bound_to 11000
  141.1854  133.8324  157.1106 LP  0  0  0  0  0  0  0  0  0  0  0  0  # atno 17395 bound_to 11000

$$$$
