AV-unprocessed.smi:2252|AV-procd|sdf|9112|dock4
  -GOLD-   2272012313D 1   1.00000     0.00000
 Structure written by MMmdl.
 44 46  0  0  0  0  0  0  0  0  3 V2000
  151.5540  144.4355  158.2706 C   0  0  0  0  0  0  0  0  0  0  0  0
  151.6969  143.6167  159.4596 N   0  0  0  0  0  0  0  0  0  0  0  0
  151.6278  144.0714  160.7699 C   0  0  0  0  0  0  0  0  0  0  0  0
  151.8103  142.9758  161.5779 C   0  0  0  0  0  0  0  0  0  0  0  0
  151.9917  141.8460  160.7885 N   0  0  0  0  0  0  0  0  0  0  0  0
  151.9180  142.2866  159.5329 C   0  0  0  0  0  0  0  0  0  0  0  0
  152.0532  141.4007  158.3230 C   0  0  0  0  0  0  0  0  0  0  0  0
  150.7772  141.3033  157.4564 C   0  0  0  0  0  0  0  0  0  0  0  0
  150.3191  139.9174  157.3843 N   0  5  0  0  0  0  0  0  0  0  0  0
  149.7966  139.3457  156.2615 C   0  0  0  0  0  0  0  0  0  0  0  0
  148.9981  138.4117  156.1380 O   0  0  0  0  0  0  0  0  0  0  0  0
  150.3291  140.0189  154.9815 C   0  0  1  0  0  0  0  0  0  0  0  0
  151.2878  139.0584  154.2386 C   0  0  0  0  0  0  0  0  0  0  0  0
  151.9439  137.9047  154.9668 C   0  0  0  0  0  0  0  0  0  0  0  0
  152.7778  139.0718  154.5052 C   0  0  0  0  0  0  0  0  0  0  0  0
  149.2284  140.5006  154.0987 N   0  3  0  0  0  0  0  0  0  0  0  0
  148.2260  139.4830  153.7166 C   0  0  0  0  0  0  0  0  0  0  0  0
  147.0391  140.2871  153.1992 C   0  0  0  0  0  0  0  0  0  0  0  0
  147.0251  141.5202  154.0998 C   0  0  0  0  0  0  0  0  0  0  0  0
  148.4694  141.6710  154.6006 C   0  0  0  0  0  0  0  0  0  0  0  0
  151.4369  145.4835  158.5469 H   0  0  0  0  0  0  0  0  0  0  0  0
  150.6755  144.1192  157.7081 H   0  0  0  0  0  0  0  0  0  0  0  0
  152.4394  144.3347  157.6425 H   0  0  0  0  0  0  0  0  0  0  0  0
  151.4576  145.1097  161.0133 H   0  0  0  0  0  0  0  0  0  0  0  0
  151.8242  142.9135  162.6559 H   0  0  0  0  0  0  0  0  0  0  0  0
  152.8753  141.7878  157.7193 H   0  0  0  0  0  0  0  0  0  0  0  0
  152.3655  140.4055  158.6408 H   0  0  0  0  0  0  0  0  0  0  0  0
  150.0070  141.9383  157.8947 H   0  0  0  0  0  0  0  0  0  0  0  0
  150.9732  141.7248  156.4697 H   0  0  0  0  0  0  0  0  0  0  0  0
  150.9016  140.8952  155.2912 H   0  0  0  0  0  0  0  0  0  0  0  0
  150.9874  138.8447  153.2140 H   0  0  0  0  0  0  0  0  0  0  0  0
  151.7622  137.8100  156.0358 H   0  0  0  0  0  0  0  0  0  0  0  0
  152.0454  136.9657  154.4267 H   0  0  0  0  0  0  0  0  0  0  0  0
  153.4393  138.9137  153.6560 H   0  0  0  0  0  0  0  0  0  0  0  0
  153.1538  139.7490  155.2693 H   0  0  0  0  0  0  0  0  0  0  0  0
  148.6083  138.7884  152.9678 H   0  0  0  0  0  0  0  0  0  0  0  0
  147.9299  138.9076  154.5953 H   0  0  0  0  0  0  0  0  0  0  0  0
  147.2208  140.5861  152.1660 H   0  0  0  0  0  0  0  0  0  0  0  0
  146.1032  139.7284  153.2280 H   0  0  0  0  0  0  0  0  0  0  0  0
  146.6742  142.4075  153.5716 H   0  0  0  0  0  0  0  0  0  0  0  0
  146.3575  141.3550  154.9465 H   0  0  0  0  0  0  0  0  0  0  0  0
  148.4703  141.6996  155.6908 H   0  0  0  0  0  0  0  0  0  0  0  0
  148.9298  142.5918  154.2413 H   0  0  0  0  0  0  0  0  0  0  0  0
  149.6672  140.7919  153.2364 H   0  0  0  0  0  0  0  0  0  0  0  0
  1  2  1  0  0  0  0
  1 21  1  0  0  0  0
  1 22  1  0  0  0  0
  1 23  1  0  0  0  0
  2  6  1  0  0  0  0
  2  3  1  0  0  0  0
  3  4  2  0  0  0  0
  3 24  1  0  0  0  0
  4  5  1  0  0  0  0
  4 25  1  0  0  0  0
  5  6  2  0  0  0  0
  6  7  1  0  0  0  0
  7  8  1  0  0  0  0
  7 26  1  0  0  0  0
  7 27  1  0  0  0  0
  8  9  1  0  0  0  0
  8 28  1  0  0  0  0
  8 29  1  0  0  0  0
  9 10  1  0  0  0  0
 10 11  2  0  0  0  0
 10 12  1  0  0  0  0
 12 13  1  0  0  0  0
 12 16  1  0  0  0  0
 12 30  1  0  0  0  0
 13 15  1  0  0  0  0
 13 14  1  0  0  0  0
 13 31  1  0  0  0  0
 14 15  1  0  0  0  0
 14 32  1  0  0  0  0
 14 33  1  0  0  0  0
 15 34  1  0  0  0  0
 15 35  1  0  0  0  0
 16 20  1  0  0  0  0
 16 17  1  0  0  0  0
 16 44  1  0  0  0  0
 17 18  1  0  0  0  0
 17 36  1  0  0  0  0
 17 37  1  0  0  0  0
 18 19  1  0  0  0  0
 18 38  1  0  0  0  0
 18 39  1  0  0  0  0
 19 20  1  0  0  0  0
 19 40  1  0  0  0  0
 19 41  1  0  0  0  0
 20 42  1  0  0  0  0
 20 43  1  0  0  0  0
M  CHG  1   9  -1
M  CHG  1  16   1
M  END
> <s_m_source_file>
AV-unprocessed.smi

> <i_m_source_file_index>
2252

> <i_lp_mmshare_version>
43012

> <i_f3d_flags>
0

> <s_epik_input>
W0NIM11uMVtjSF1bY0hdbmMxW0NIMl1bQ0gyXVtOSF1DKD1PKVtDQEhdKFtDSF0yW0NIMl1bQ0gyXTIpTjNbQ0gyXVtDSDJdW0NIMl1bQ0gyXTM=

> <s_epik_cmdline>
J2VwaWtfcHl0aG9uJywgJy1waCcsICc3LjAnLCAnLXRuJywgJzgnLCAnLW1hJywgJzIwMCcsICctbWV0YWxfYmluZGluZycsICctaW1hZScsICc8aW5maWxlLm1hZT4nLCAnLW9tYWUnLCAnPG91dGZpbGUubWFlPic=

> <r_lp_tautomer_probability>
1

> <r_epik_Ionization_Penalty>
7.86289

> <r_epik_Ionization_Penalty_Charging>
7.86289

> <r_epik_Ionization_Penalty_Neutral>
4.79398e-13

> <r_epik_State_Penalty>
7.18546

> <r_epik_Charging_Adjusted_Penalty>
15.0484

> <i_epik_Tot_Q>
0

> <i_epik_Tot_abs_Q>
2

> <r_epik_Metal_State_Penalty>
3.4294

> <b_epik_Metal_Only>
1

> <s_lp_Force_Field>
OPLS_2005

> <r_lp_Energy>
30.1163

> <b_lp_Chiralities_Consistent>
1

> <s_lp_Variant>
AV-unprocessed.smi:2252-10

> <Gold.Version>
5.8.1

> <Gold.Id.Protein>
6NUR|6NUR_protein|mol2

> <Gold.PLP.Fitness>
47.4373

> <Gold.PLP.PLP>
-47.4598

> <Gold.PLP.part.hbond>
-1.0185

> <Gold.PLP.part.metal>
0.0000

> <Gold.PLP.part.buried>
-3.6076

> <Gold.PLP.part.nonpolar>
-41.2138

> <Gold.PLP.part.repulsive>
0.1878

> <Gold.PLP.ligand.clash>
0.0000

> <Gold.PLP.ligand.torsion>
1.9069

> <Gold.PLP.Chemscore.Hbond>
0.8294

> <Gold.PLP.Chemscore.CHOScore>
0.0000

> <Gold.PLP.Chemscore.Metal>
0.0000

> <Gold.Chemscore.Hbonds>
donor molecule, donor type, donor heavy atom, donor atom, acceptor molecule, acceptor atom, score
      L1  H    16    44       P1  7957  0.39

> <Gold.PLP.Chemscore.Internal.Correction>
1.3030

> <Gold.Rescore>
     Score         DG    S(hbond)    S(metal)    S(lipo)     H(rot)  DE(clash)    DE(int)     intcor
     12.98     -16.84       0.95        0.00     111.20       1.88       0.45       3.42       ----

> <Gold.Chemscore.Fitness>
12.9755

> <Gold.Chemscore.DG>
-16.8431

> <Gold.Chemscore.ZeroCoef>
-5.4800

> <Gold.Chemscore.Hbond>
0.9489

> <Gold.Chemscore.Metal>
0.0000

> <Gold.Chemscore.Lipo>
111.1963

> <Gold.Chemscore.Internal_Hbond>
0.0000

> <Gold.Chemscore.DEClash>
0.4453

> <Gold.Chemscore.DEInternal>
3.4223

> <Gold.Chemscore.Rot>
1.8814

> <Gold.Chemscore.Internal.Correction>
   9.000000E+99

> <Gold.Chemscore.Hbonds>
donor molecule, donor type, donor heavy atom, donor atom, acceptor molecule, acceptor atom, score
      L1  H    16    44       P1  7957  0.39

> <Gold.Chemscore.Hbond.Weighted>
-3.1694

> <Gold.Chemscore.Metal.Weighted>
-0.0000

> <Gold.Chemscore.Lipo.Weighted>
-13.0100

> <Gold.Chemscore.Internal_Hbond.Weighted>
0.0000

> <Gold.Chemscore.DEClash.Weighted>
0.4453

> <Gold.Chemscore.DEInternal.Weighted>
3.4223

> <Gold.Chemscore.Rot.Weighted>
4.8163

> <Gold.Chemscore.Internal.Correction.Weighted>
   9.000000E+99

> <Gold.Protein.RotatedTorsions>
[ 6907 6896 6895 6894 ] final  124.15 input  -60.11 | X-H torsion
[ 7974 7965 7964 7962 ] final   89.52 input  175.53 | X-H torsion
[ 8008 7997 7996 7995 ] final   -2.60 input   59.86 | X-H torsion
[ 10167 10162 10161 10158 ] final   94.97 input  -65.29 | X-H torsion
[ 10718 10713 10712 10709 ] final   95.64 input   66.30 | X-H torsion
[ 10763 10752 10751 10750 ] final  -62.66 input  -60.55 | X-H torsion
[ 11005 11000 10999 10996 ] final   64.79 input  -57.11 | X-H torsion

> <Gold.Protein.ActiveResidues>
 VAL166  LYS551  ARG553  GLY616  TRP617  ASP618  TYR619  PRO620  LYS621  CYS622 
 ASP623  PHE694  ASN695  SER759  ASP760  ASP761  ALA762  ILE779  LEU786  VAL792 
 PHE793  MET794  SER795  GLU796  ALA797  LYS798  CYS799  TRP800  GLU811  SER814 

> <Gold.Protein.RotatedAtoms>
  152.4102  133.6951  159.6390 H   0  0  0  0  0  0  0  0  0  0  0  0  # atno 6907 bound_to 6896
  150.7983  133.8638  159.3248 H   0  0  0  0  0  0  0  0  0  0  0  0  # atno 6908 bound_to 6896
  151.6382  135.1017  160.0187 H   0  0  0  0  0  0  0  0  0  0  0  0  # atno 6909 bound_to 6896
  145.5312  139.2283  143.2618 H   0  0  0  0  0  0  0  0  0  0  0  0  # atno 7974 bound_to 7965
  154.6340  140.2530  155.7400 H   0  0  0  0  0  0  0  0  0  0  0  0  # atno 8008 bound_to 7997
  156.2494  140.2901  156.0624 H   0  0  0  0  0  0  0  0  0  0  0  0  # atno 8009 bound_to 7997
  155.1700  140.0386  157.2851 H   0  0  0  0  0  0  0  0  0  0  0  0  # atno 8010 bound_to 7997
  139.8033  144.6805  150.9737 H   0  0  0  0  0  0  0  0  0  0  0  0  # atno 10167 bound_to 10162
  157.6936  131.0552  150.4370 H   0  0  0  0  0  0  0  0  0  0  0  0  # atno 10718 bound_to 10713
  154.3033  135.6230  153.5434 H   0  0  0  0  0  0  0  0  0  0  0  0  # atno 10763 bound_to 10752
  152.9838  135.5683  154.5260 H   0  0  0  0  0  0  0  0  0  0  0  0  # atno 10764 bound_to 10752
  154.4894  135.2866  155.1484 H   0  0  0  0  0  0  0  0  0  0  0  0  # atno 10765 bound_to 10752
  139.9936  134.6552  156.0048 H   0  0  0  0  0  0  0  0  0  0  0  0  # atno 11005 bound_to 11000
  146.2043  140.6128  142.9088 LP  0  0  0  0  0  0  0  0  0  0  0  0  # atno 17320 bound_to 7965
  144.7625  140.5454  143.6726 LP  0  0  0  0  0  0  0  0  0  0  0  0  # atno 17321 bound_to 7965
  140.7820  143.4260  151.0768 LP  0  0  0  0  0  0  0  0  0  0  0  0  # atno 17342 bound_to 10162
  139.7930  143.8191  152.3154 LP  0  0  0  0  0  0  0  0  0  0  0  0  # atno 17343 bound_to 10162
  156.4732  130.4057  149.6505 LP  0  0  0  0  0  0  0  0  0  0  0  0  # atno 17370 bound_to 10713
  156.3578  130.7466  151.2434 LP  0  0  0  0  0  0  0  0  0  0  0  0  # atno 17371 bound_to 10713
  141.1586  133.6540  156.4244 LP  0  0  0  0  0  0  0  0  0  0  0  0  # atno 17394 bound_to 11000
  140.4860  134.6620  157.5191 LP  0  0  0  0  0  0  0  0  0  0  0  0  # atno 17395 bound_to 11000

$$$$
