AV-unprocessed.smi:2297|AV-procd|sdf|9222|dock6
  -GOLD-   2272012443D 1   1.00000     0.00000
 Structure written by MMmdl.
 44 45  0  0  0  0  0  0  0  0  1 V2000
  153.5347  141.4919  160.6266 C   0  0  0  0  0  0  0  0  0  0  0  0
  152.7136  142.0023  159.4604 C   0  0  0  0  0  0  0  0  0  0  0  0
  152.4572  143.3807  159.3189 C   0  0  0  0  0  0  0  0  0  0  0  0
  151.6923  143.8487  158.2329 C   0  0  0  0  0  0  0  0  0  0  0  0
  151.4193  145.3316  158.0879 C   0  0  0  0  0  0  0  0  0  0  0  0
  151.1854  142.9331  157.2883 C   0  0  0  0  0  0  0  0  0  0  0  0
  151.4324  141.5510  157.4152 C   0  0  0  0  0  0  0  0  0  0  0  0
  150.8981  140.7302  156.4456 O   0  0  0  0  0  0  0  0  0  0  0  0
  149.7069  141.1477  155.7890 C   0  0  0  0  0  0  0  0  0  0  0  0
  149.2500  140.0722  154.7887 C   0  0  2  0  0  0  0  0  0  0  0  0
  150.3674  139.7102  154.0023 O   0  0  0  0  0  0  0  0  0  0  0  0
  148.0840  140.5396  153.8884 C   0  0  0  0  0  0  0  0  0  0  0  0
  147.3361  139.4089  153.3142 N   0  0  0  0  0  0  0  0  0  0  0  0
  147.3487  139.3010  151.9140 C   0  0  0  0  0  0  0  0  0  0  0  0
  146.7279  138.3467  151.3009 N   0  0  0  0  0  0  0  0  0  0  0  0
  146.0183  137.3918  152.0351 C   0  0  0  0  0  0  0  0  0  0  0  0
  145.3184  136.3218  151.2163 C   0  0  0  0  0  0  0  0  0  0  0  0
  145.9697  137.4381  153.3945 C   0  0  0  0  0  0  0  0  0  0  0  0
  145.2077  136.4307  154.2466 C   0  0  0  0  0  0  0  0  0  0  0  0
  146.6802  138.5124  154.1065 C   0  0  0  0  0  0  0  0  0  0  0  0
  146.6926  138.6053  155.3356 O   0  0  0  0  0  0  0  0  0  0  0  0
  152.2025  141.0918  158.5134 C   0  0  0  0  0  0  0  0  0  0  0  0
  153.9475  142.3131  161.2135 H   0  0  0  0  0  0  0  0  0  0  0  0
  154.3637  140.8814  160.2679 H   0  0  0  0  0  0  0  0  0  0  0  0
  152.9161  140.8801  161.2835 H   0  0  0  0  0  0  0  0  0  0  0  0
  152.8462  144.0821  160.0429 H   0  0  0  0  0  0  0  0  0  0  0  0
  150.8302  145.5434  157.1952 H   0  0  0  0  0  0  0  0  0  0  0  0
  152.3566  145.8837  158.0159 H   0  0  0  0  0  0  0  0  0  0  0  0
  150.8692  145.7003  158.9540 H   0  0  0  0  0  0  0  0  0  0  0  0
  150.5991  143.2899  156.4540 H   0  0  0  0  0  0  0  0  0  0  0  0
  148.9139  141.3610  156.5084 H   0  0  0  0  0  0  0  0  0  0  0  0
  149.9103  142.0678  155.2389 H   0  0  0  0  0  0  0  0  0  0  0  0
  148.9593  139.1910  155.3619 H   0  0  0  0  0  0  0  0  0  0  0  0
  150.0592  139.4034  153.1635 H   0  0  0  0  0  0  0  0  0  0  0  0
  147.3918  141.1423  154.4794 H   0  0  0  0  0  0  0  0  0  0  0  0
  148.4455  141.2268  153.1203 H   0  0  0  0  0  0  0  0  0  0  0  0
  147.9169  140.0702  151.3881 H   0  0  0  0  0  0  0  0  0  0  0  0
  144.2408  136.3636  151.3762 H   0  0  0  0  0  0  0  0  0  0  0  0
  145.6751  135.3307  151.4977 H   0  0  0  0  0  0  0  0  0  0  0  0
  145.5039  136.4520  150.1495 H   0  0  0  0  0  0  0  0  0  0  0  0
  145.8868  135.9322  154.9392 H   0  0  0  0  0  0  0  0  0  0  0  0
  144.7132  135.6583  153.6602 H   0  0  0  0  0  0  0  0  0  0  0  0
  144.4407  136.9390  154.8322 H   0  0  0  0  0  0  0  0  0  0  0  0
  152.4150  140.0424  158.6505 H   0  0  0  0  0  0  0  0  0  0  0  0
  1  2  1  0  0  0  0
  1 23  1  0  0  0  0
  1 24  1  0  0  0  0
  1 25  1  0  0  0  0
  2 22  1  0  0  0  0
  2  3  2  0  0  0  0
  3  4  1  0  0  0  0
  3 26  1  0  0  0  0
  4  5  1  0  0  0  0
  4  6  2  0  0  0  0
  5 27  1  0  0  0  0
  5 28  1  0  0  0  0
  5 29  1  0  0  0  0
  6  7  1  0  0  0  0
  6 30  1  0  0  0  0
  7  8  1  0  0  0  0
  7 22  2  0  0  0  0
  8  9  1  0  0  0  0
  9 10  1  0  0  0  0
  9 31  1  0  0  0  0
  9 32  1  0  0  0  0
 10 11  1  0  0  0  0
 10 12  1  0  0  0  0
 10 33  1  0  0  0  0
 11 34  1  0  0  0  0
 12 13  1  0  0  0  0
 12 35  1  0  0  0  0
 12 36  1  0  0  0  0
 13 20  1  0  0  0  0
 13 14  1  0  0  0  0
 14 15  2  0  0  0  0
 14 37  1  0  0  0  0
 15 16  1  0  0  0  0
 16 17  1  0  0  0  0
 16 18  2  0  0  0  0
 17 38  1  0  0  0  0
 17 39  1  0  0  0  0
 17 40  1  0  0  0  0
 18 19  1  0  0  0  0
 18 20  1  0  0  0  0
 19 41  1  0  0  0  0
 19 42  1  0  0  0  0
 19 43  1  0  0  0  0
 20 21  2  0  0  0  0
 22 44  1  0  0  0  0
M  END
> <s_m_source_file>
AV-unprocessed.smi

> <i_m_source_file_index>
2297

> <i_lp_mmshare_version>
43012

> <i_f3d_flags>
0

> <s_epik_input>
W0NIM11jMVtjSF1jKFtDSDNdKVtjSF1jKFtjSF0xKU9bQ0gyXVtDQEhdKFtPSF0pW0NIMl1uMltjSF1uYyhbQ0gzXSljKFtDSDNdKWMyPU8=

> <s_epik_cmdline>
J2VwaWtfcHl0aG9uJywgJy1waCcsICc3LjAnLCAnLXRuJywgJzgnLCAnLW1hJywgJzIwMCcsICctbWV0YWxfYmluZGluZycsICctaW1hZScsICc8aW5maWxlLm1hZT4nLCAnLW9tYWUnLCAnPG91dGZpbGUubWFlPic=

> <r_lp_tautomer_probability>
1

> <r_epik_Ionization_Penalty>
3.72236e-05

> <r_epik_Ionization_Penalty_Charging>
8.38864e-08

> <r_epik_Ionization_Penalty_Neutral>
3.71397e-05

> <r_epik_State_Penalty>
-0

> <r_epik_Charging_Adjusted_Penalty>
8.38864e-08

> <i_epik_Tot_Q>
0

> <i_epik_Tot_abs_Q>
0

> <r_epik_Metal_State_Penalty>
-0

> <b_epik_Metal_Only>
0

> <s_lp_Force_Field>
OPLS_2005

> <r_lp_Energy>
24.6499

> <b_lp_Chiralities_Consistent>
1

> <s_lp_Variant>
AV-unprocessed.smi:2297-1

> <Gold.Version>
5.8.1

> <Gold.Id.Protein>
6NUR|6NUR_protein|mol2

> <Gold.PLP.Fitness>
49.0688

> <Gold.PLP.PLP>
-40.1568

> <Gold.PLP.part.hbond>
-3.0000

> <Gold.PLP.part.metal>
0.0000

> <Gold.PLP.part.buried>
3.1011

> <Gold.PLP.part.nonpolar>
-40.4985

> <Gold.PLP.part.repulsive>
0.4072

> <Gold.PLP.ligand.clash>
0.0000

> <Gold.PLP.ligand.torsion>
0.6281

> <Gold.PLP.Chemscore.Hbond>
2.9833

> <Gold.PLP.Chemscore.CHOScore>
0.3771

> <Gold.PLP.Chemscore.Metal>
0.0000

> <Gold.Chemscore.Hbonds>
donor molecule, donor type, donor heavy atom, donor atom, acceptor molecule, acceptor atom, score
      L1  H    11    34       P1  7957  0.62
      P1  H  7954  7966       L1    15  0.86
      P1  H  7989  7998       L1    11  1.00
      L1  C    14    37       P1  7957  0.07

> <Gold.PLP.Chemscore.Internal.Correction>
0.0874

> <Gold.Rescore>
     Score         DG    S(hbond)    S(metal)    S(lipo)     H(rot)  DE(clash)    DE(int)     intcor
     16.29     -19.03       1.78        0.00     115.75       2.32       2.11       0.63       ----

> <Gold.Chemscore.Fitness>
16.2928

> <Gold.Chemscore.DG>
-19.0307

> <Gold.Chemscore.ZeroCoef>
-5.4800

> <Gold.Chemscore.Hbond>
1.7832

> <Gold.Chemscore.Metal>
0.0000

> <Gold.Chemscore.Lipo>
115.7545

> <Gold.Chemscore.Internal_Hbond>
0.0000

> <Gold.Chemscore.DEClash>
2.1115

> <Gold.Chemscore.DEInternal>
0.6264

> <Gold.Chemscore.Rot>
2.3236

> <Gold.Chemscore.Internal.Correction>
   9.000000E+99

> <Gold.Chemscore.Hbonds>
donor molecule, donor type, donor heavy atom, donor atom, acceptor molecule, acceptor atom, score
      L1  H    11    34       P1  7957  0.61
      P1  H  7954  7966       L1    15  0.19
      P1  H  7989  7998       L1    11  0.25

> <Gold.Chemscore.Hbond.Weighted>
-5.9558

> <Gold.Chemscore.Metal.Weighted>
-0.0000

> <Gold.Chemscore.Lipo.Weighted>
-13.5433

> <Gold.Chemscore.Internal_Hbond.Weighted>
0.0000

> <Gold.Chemscore.DEClash.Weighted>
2.1115

> <Gold.Chemscore.DEInternal.Weighted>
0.6264

> <Gold.Chemscore.Rot.Weighted>
5.9484

> <Gold.Chemscore.Internal.Correction.Weighted>
   9.000000E+99

> <Gold.Protein.RotatedTorsions>
[ 6907 6896 6895 6894 ] final   43.65 input  -60.11 | X-H torsion
[ 7974 7965 7964 7962 ] final -159.80 input  175.53 | X-H torsion
[ 8008 7997 7996 7995 ] final   76.91 input   59.86 | X-H torsion
[ 10167 10162 10161 10158 ] final   65.95 input  -65.29 | X-H torsion
[ 10718 10713 10712 10709 ] final -123.34 input   66.30 | X-H torsion
[ 10763 10752 10751 10750 ] final   60.52 input  -60.55 | X-H torsion
[ 11005 11000 10999 10996 ] final -130.69 input  -57.11 | X-H torsion

> <Gold.Protein.ActiveResidues>
 VAL166  LYS551  ARG553  GLY616  TRP617  ASP618  TYR619  PRO620  LYS621  CYS622 
 ASP623  PHE694  ASN695  SER759  ASP760  ASP761  ALA762  ILE779  LEU786  VAL792 
 PHE793  MET794  SER795  GLU796  ALA797  LYS798  CYS799  TRP800  GLU811  SER814 

> <Gold.Protein.RotatedAtoms>
  152.2228  134.8396  160.0483 H   0  0  0  0  0  0  0  0  0  0  0  0  # atno 6907 bound_to 6896
  151.9174  133.3571  159.3893 H   0  0  0  0  0  0  0  0  0  0  0  0  # atno 6908 bound_to 6896
  150.7004  134.4596  159.5418 H   0  0  0  0  0  0  0  0  0  0  0  0  # atno 6909 bound_to 6896
  144.7451  140.3633  143.6091 H   0  0  0  0  0  0  0  0  0  0  0  0  # atno 7974 bound_to 7965
  155.8340  140.3465  155.5590 H   0  0  0  0  0  0  0  0  0  0  0  0  # atno 8008 bound_to 7997
  155.8211  140.0913  157.1868 H   0  0  0  0  0  0  0  0  0  0  0  0  # atno 8009 bound_to 7997
  154.4004  140.1430  156.3489 H   0  0  0  0  0  0  0  0  0  0  0  0  # atno 8010 bound_to 7997
  140.1057  144.4863  150.7009 H   0  0  0  0  0  0  0  0  0  0  0  0  # atno 10167 bound_to 10162
  156.1494  130.6524  150.9891 H   0  0  0  0  0  0  0  0  0  0  0  0  # atno 10718 bound_to 10713
  152.9923  135.5533  154.5887 H   0  0  0  0  0  0  0  0  0  0  0  0  # atno 10763 bound_to 10752
  154.5253  135.2810  155.1229 H   0  0  0  0  0  0  0  0  0  0  0  0  # atno 10764 bound_to 10752
  154.2566  135.6389  153.5312 H   0  0  0  0  0  0  0  0  0  0  0  0  # atno 10765 bound_to 10752
  140.9324  134.1302  157.4223 H   0  0  0  0  0  0  0  0  0  0  0  0  # atno 11005 bound_to 11000
  145.7154  139.1695  143.2515 LP  0  0  0  0  0  0  0  0  0  0  0  0  # atno 17320 bound_to 7965
  146.1316  140.7177  142.9409 LP  0  0  0  0  0  0  0  0  0  0  0  0  # atno 17321 bound_to 7965
  140.6953  143.2400  151.5017 LP  0  0  0  0  0  0  0  0  0  0  0  0  # atno 17342 bound_to 10162
  139.5646  144.2072  152.1745 LP  0  0  0  0  0  0  0  0  0  0  0  0  # atno 17343 bound_to 10162
  157.6644  131.0874  150.7763 LP  0  0  0  0  0  0  0  0  0  0  0  0  # atno 17370 bound_to 10713
  156.7832  130.4866  149.5397 LP  0  0  0  0  0  0  0  0  0  0  0  0  # atno 17371 bound_to 10713
  139.8799  135.0009  156.6038 LP  0  0  0  0  0  0  0  0  0  0  0  0  # atno 17394 bound_to 11000
  140.7845  133.8633  155.8595 LP  0  0  0  0  0  0  0  0  0  0  0  0  # atno 17395 bound_to 11000

$$$$
