AV-unprocessed.smi:45|AV-procd|sdf|409|dock2
  -GOLD-   2262016263D 1   1.00000     0.00000
 Structure written by MMmdl.
 61 64  0  0  0  0  0  0  0  0  2 V2000
  150.1402  130.7512  154.3044 C   0  0  0  0  0  0  0  0  0  0  0  0
  150.3845  131.9933  154.9481 O   0  0  0  0  0  0  0  0  0  0  0  0
  149.3156  132.8388  155.1612 C   0  0  0  0  0  0  0  0  0  0  0  0
  147.9711  132.5007  154.8651 C   0  0  0  0  0  0  0  0  0  0  0  0
  146.9339  133.4248  155.0933 C   0  0  0  0  0  0  0  0  0  0  0  0
  147.2154  134.6993  155.6220 C   0  0  0  0  0  0  0  0  0  0  0  0
  146.0694  135.6782  155.8439 C   0  0  0  0  0  0  0  0  0  0  0  0
  146.2059  136.9943  155.2271 N   0  0  0  0  0  0  0  0  0  0  0  0
  146.2108  137.1682  153.8308 C   0  0  0  0  0  0  0  0  0  0  0  0
  145.8440  136.1207  153.0574 N   0  0  0  0  0  0  0  0  0  0  0  0
  145.8175  136.2384  151.7230 C   0  0  0  0  0  0  0  0  0  0  0  0
  145.4462  135.1445  150.9459 N   0  0  0  0  0  0  0  0  0  0  0  0
  144.4144  135.2531  149.9220 C   0  0  0  0  0  0  0  0  0  0  0  0
  143.7331  133.8867  149.8705 C   0  0  0  0  0  0  0  0  0  0  0  0
  144.8457  132.9350  150.2923 C   0  0  0  0  0  0  0  0  0  0  0  0
  145.6391  133.7457  151.3277 C   0  0  1  0  0  0  0  0  0  0  0  0
  147.1261  133.3407  151.3869 C   0  0  0  0  0  0  0  0  0  0  0  0
  147.2412  131.9681  151.6946 O   0  0  0  0  0  0  0  0  0  0  0  0
  146.1311  137.3869  151.1041 N   0  3  0  0  0  0  0  0  0  0  0  0
  146.5079  138.4655  151.8305 C   0  0  0  0  0  0  0  0  0  0  0  0
  146.5617  138.4080  153.2395 C   0  0  0  0  0  0  0  0  0  0  0  0
  147.0222  139.6032  154.0309 C   0  0  0  0  0  0  0  0  0  0  0  0
  146.3697  140.0300  154.9836 O   0  0  0  0  0  0  0  0  0  0  0  0
  148.1651  140.1648  153.6058 N   0  0  0  0  0  0  0  0  0  0  0  0
  148.8220  141.2999  154.2436 C   0  0  0  0  0  0  0  0  0  0  0  0
  149.9452  140.8779  155.1756 C   0  0  0  0  0  0  0  0  0  0  0  0
  149.8547  141.2751  156.4485 N   0  0  0  0  0  0  0  0  0  0  0  0
  150.8473  140.8917  157.2804 C   0  0  0  0  0  0  0  0  0  0  0  0
  151.9298  140.1089  156.8310 C   0  0  0  0  0  0  0  0  0  0  0  0
  151.9173  139.7504  155.4680 C   0  0  0  0  0  0  0  0  0  0  0  0
  150.9219  140.1368  154.6404 N   0  0  0  0  0  0  0  0  0  0  0  0
  148.5493  135.0318  155.9420 C   0  0  0  0  0  0  0  0  0  0  0  0
  149.5896  134.1129  155.7055 C   0  0  0  0  0  0  0  0  0  0  0  0
  151.2120  134.5672  156.0849 Cl  0  0  0  0  0  0  0  0  0  0  0  0
  145.1828  133.6089  152.3094 H   0  0  0  0  0  0  0  0  0  0  0  0
  151.0798  130.2083  154.2036 H   0  0  0  0  0  0  0  0  0  0  0  0
  149.7330  130.8948  153.3026 H   0  0  0  0  0  0  0  0  0  0  0  0
  149.4604  130.1273  154.8864 H   0  0  0  0  0  0  0  0  0  0  0  0
  147.7076  131.5387  154.4526 H   0  0  0  0  0  0  0  0  0  0  0  0
  145.9169  133.1522  154.8521 H   0  0  0  0  0  0  0  0  0  0  0  0
  145.1395  135.2255  155.4974 H   0  0  0  0  0  0  0  0  0  0  0  0
  145.9554  135.8233  156.9183 H   0  0  0  0  0  0  0  0  0  0  0  0
  146.5697  137.7424  155.8008 H   0  0  0  0  0  0  0  0  0  0  0  0
  143.6947  136.0426  150.1424 H   0  0  0  0  0  0  0  0  0  0  0  0
  144.8906  135.4830  148.9684 H   0  0  0  0  0  0  0  0  0  0  0  0
  142.9211  133.8487  150.5982 H   0  0  0  0  0  0  0  0  0  0  0  0
  143.3194  133.6544  148.8888 H   0  0  0  0  0  0  0  0  0  0  0  0
  144.4699  131.9925  150.6919 H   0  0  0  0  0  0  0  0  0  0  0  0
  145.4690  132.7053  149.4265 H   0  0  0  0  0  0  0  0  0  0  0  0
  147.6233  133.5394  150.4369 H   0  0  0  0  0  0  0  0  0  0  0  0
  147.6636  133.9040  152.1479 H   0  0  0  0  0  0  0  0  0  0  0  0
  147.8957  131.5865  151.1289 H   0  0  0  0  0  0  0  0  0  0  0  0
  146.7643  139.3417  151.2522 H   0  0  0  0  0  0  0  0  0  0  0  0
  148.6321  139.7620  152.8067 H   0  0  0  0  0  0  0  0  0  0  0  0
  149.2357  141.9408  153.4646 H   0  0  0  0  0  0  0  0  0  0  0  0
  148.0856  141.9036  154.7780 H   0  0  0  0  0  0  0  0  0  0  0  0
  150.7780  141.2118  158.3094 H   0  0  0  0  0  0  0  0  0  0  0  0
  152.7245  139.8010  157.4942 H   0  0  0  0  0  0  0  0  0  0  0  0
  152.7078  139.1516  155.0406 H   0  0  0  0  0  0  0  0  0  0  0  0
  148.7880  135.9975  156.3628 H   0  0  0  0  0  0  0  0  0  0  0  0
  146.1046  137.4526  150.0864 H   0  0  0  0  0  0  0  0  0  0  0  0
  1  2  1  0  0  0  0
  1 36  1  0  0  0  0
  1 37  1  0  0  0  0
  1 38  1  0  0  0  0
  2  3  1  0  0  0  0
  3 33  1  0  0  0  0
  3  4  2  0  0  0  0
  4  5  1  0  0  0  0
  4 39  1  0  0  0  0
  5  6  2  0  0  0  0
  5 40  1  0  0  0  0
  6  7  1  0  0  0  0
  6 32  1  0  0  0  0
  7  8  1  0  0  0  0
  7 41  1  0  0  0  0
  7 42  1  0  0  0  0
  8  9  1  0  0  0  0
  8 43  1  0  0  0  0
  9 21  1  0  0  0  0
  9 10  2  0  0  0  0
 10 11  1  0  0  0  0
 11 12  1  0  0  0  0
 11 19  2  0  0  0  0
 12 16  1  0  0  0  0
 12 13  1  0  0  0  0
 13 14  1  0  0  0  0
 13 44  1  0  0  0  0
 13 45  1  0  0  0  0
 14 15  1  0  0  0  0
 14 46  1  0  0  0  0
 14 47  1  0  0  0  0
 15 16  1  0  0  0  0
 15 48  1  0  0  0  0
 15 49  1  0  0  0  0
 16 35  1  0  0  0  0
 16 17  1  0  0  0  0
 17 18  1  0  0  0  0
 17 50  1  0  0  0  0
 17 51  1  0  0  0  0
 18 52  1  0  0  0  0
 19 20  1  0  0  0  0
 19 61  1  0  0  0  0
 20 21  2  0  0  0  0
 20 53  1  0  0  0  0
 21 22  1  0  0  0  0
 22 23  2  0  0  0  0
 22 24  1  0  0  0  0
 24 25  1  0  0  0  0
 24 54  1  0  0  0  0
 25 26  1  0  0  0  0
 25 55  1  0  0  0  0
 25 56  1  0  0  0  0
 26 31  1  0  0  0  0
 26 27  2  0  0  0  0
 27 28  1  0  0  0  0
 28 29  2  0  0  0  0
 28 57  1  0  0  0  0
 29 30  1  0  0  0  0
 29 58  1  0  0  0  0
 30 31  2  0  0  0  0
 30 59  1  0  0  0  0
 32 33  2  0  0  0  0
 32 60  1  0  0  0  0
 33 34  1  0  0  0  0
M  CHG  1  19   1
M  END
> <s_m_source_file>
AV-unprocessed.smi

> <i_m_source_file_index>
45

> <i_lp_mmshare_version>
43012

> <i_f3d_flags>
0

> <s_epik_input>
W0NIM11PYzFbY0hdW2NIXWMoW2NIXWMxQ2wpW0NIMl1bTkhdYzJuYyhOM1tDSDJdW0NIMl1bQ0gyXVtDQEhdM1tDSDJdW09IXSluW2NIXWMyQyg9TylbTkhdW0NIMl1jNG5bY0hdW2NIXVtjSF1uNA==

> <s_epik_cmdline>
J2VwaWtfcHl0aG9uJywgJy1waCcsICc3LjAnLCAnLXRuJywgJzgnLCAnLW1hJywgJzIwMCcsICctbWV0YWxfYmluZGluZycsICctaW1hZScsICc8aW5maWxlLm1hZT4nLCAnLW9tYWUnLCAnPG91dGZpbGUubWFlPic=

> <r_lp_tautomer_probability>
0.575011

> <r_epik_Ionization_Penalty>
1.61454

> <r_epik_Ionization_Penalty_Charging>
1.61448

> <r_epik_Ionization_Penalty_Neutral>
6.30284e-05

> <r_epik_State_Penalty>
1.91123

> <r_epik_Charging_Adjusted_Penalty>
3.52572

> <i_epik_Tot_Q>
1

> <i_epik_Tot_abs_Q>
1

> <r_epik_Metal_State_Penalty>
1.95488

> <b_epik_Metal_Only>
0

> <s_epik_Chemistry_Notes>
This compound contains an electron-poor aromatic ring that is susceptible to covalent hydrolysis at low pH, typically resulting in measured values for nitrogen ring protonation that are around two units higher than predicted values.

> <s_lp_Force_Field>
OPLS_2005

> <r_lp_Energy>
32.8606

> <b_lp_Chiralities_Consistent>
1

> <s_lp_Variant>
AV-unprocessed.smi:45-3

> <Gold.Version>
5.8.1

> <Gold.Id.Protein>
6NUR|6NUR_protein|mol2

> <Gold.PLP.Fitness>
52.8007

> <Gold.PLP.PLP>
-46.9475

> <Gold.PLP.part.hbond>
-4.7720

> <Gold.PLP.part.metal>
0.0000

> <Gold.PLP.part.buried>
-2.4066

> <Gold.PLP.part.nonpolar>
-41.1062

> <Gold.PLP.part.repulsive>
0.5253

> <Gold.PLP.ligand.clash>
0.0000

> <Gold.PLP.ligand.torsion>
1.7949

> <Gold.PLP.Chemscore.Hbond>
2.9600

> <Gold.PLP.Chemscore.CHOScore>
0.0000

> <Gold.PLP.Chemscore.Metal>
0.0000

> <Gold.Chemscore.Hbonds>
donor molecule, donor type, donor heavy atom, donor atom, acceptor molecule, acceptor atom, score
      L1  H    18    52       P1 10747  1.00
      L1  H    24    54       P1  7957  0.98
      P1  H  7989  7998       L1    31  1.00

> <Gold.PLP.Chemscore.Internal.Correction>
0.5630

> <Gold.Rescore>
     Score         DG    S(hbond)    S(metal)    S(lipo)     H(rot)  DE(clash)    DE(int)     intcor
     14.57     -18.89       2.65        0.00     103.24       2.94       1.58       2.74       ----

> <Gold.Chemscore.Fitness>
14.5689

> <Gold.Chemscore.DG>
-18.8877

> <Gold.Chemscore.ZeroCoef>
-5.4800

> <Gold.Chemscore.Hbond>
2.6510

> <Gold.Chemscore.Metal>
0.0000

> <Gold.Chemscore.Lipo>
103.2365

> <Gold.Chemscore.Internal_Hbond>
0.0000

> <Gold.Chemscore.DEClash>
1.5830

> <Gold.Chemscore.DEInternal>
2.7357

> <Gold.Chemscore.Rot>
2.9395

> <Gold.Chemscore.Internal.Correction>
   9.000000E+99

> <Gold.Chemscore.Hbonds>
donor molecule, donor type, donor heavy atom, donor atom, acceptor molecule, acceptor atom, score
      L1  H    18    52       P1 10747  0.96
      L1  H    24    54       P1  7957  0.92
      P1  H  7989  7998       L1    31  0.38

> <Gold.Chemscore.Hbond.Weighted>
-8.8542

> <Gold.Chemscore.Metal.Weighted>
-0.0000

> <Gold.Chemscore.Lipo.Weighted>
-12.0787

> <Gold.Chemscore.Internal_Hbond.Weighted>
0.0000

> <Gold.Chemscore.DEClash.Weighted>
1.5830

> <Gold.Chemscore.DEInternal.Weighted>
2.7357

> <Gold.Chemscore.Rot.Weighted>
7.5251

> <Gold.Chemscore.Internal.Correction.Weighted>
   9.000000E+99

> <Gold.Protein.RotatedTorsions>
[ 6907 6896 6895 6894 ] final  118.45 input  -60.11 | X-H torsion
[ 7974 7965 7964 7962 ] final   26.40 input  175.53 | X-H torsion
[ 8008 7997 7996 7995 ] final  -88.14 input   59.86 | X-H torsion
[ 10167 10162 10161 10158 ] final -164.16 input  -65.29 | X-H torsion
[ 10718 10713 10712 10709 ] final  157.93 input   66.30 | X-H torsion
[ 10763 10752 10751 10750 ] final  -50.78 input  -60.55 | X-H torsion
[ 11005 11000 10999 10996 ] final   61.31 input  -57.11 | X-H torsion

> <Gold.Protein.ActiveResidues>
 VAL166  LYS551  ARG553  GLY616  TRP617  ASP618  TYR619  PRO620  LYS621  CYS622 
 ASP623  PHE694  ASN695  SER759  ASP760  ASP761  ALA762  ILE779  LEU786  VAL792 
 PHE793  MET794  SER795  GLU796  ALA797  LYS798  CYS799  TRP800  GLU811  SER814 

> <Gold.Protein.RotatedAtoms>
  152.4542  133.7690  159.6788 H   0  0  0  0  0  0  0  0  0  0  0  0  # atno 6907 bound_to 6896
  150.8463  133.7846  159.3048 H   0  0  0  0  0  0  0  0  0  0  0  0  # atno 6908 bound_to 6896
  151.5455  135.1071  159.9989 H   0  0  0  0  0  0  0  0  0  0  0  0  # atno 6909 bound_to 6896
  146.1839  139.7334  142.8880 H   0  0  0  0  0  0  0  0  0  0  0  0  # atno 7974 bound_to 7965
  154.6714  140.0557  157.0169 H   0  0  0  0  0  0  0  0  0  0  0  0  # atno 8008 bound_to 7997
  155.1083  140.3236  155.4510 H   0  0  0  0  0  0  0  0  0  0  0  0  # atno 8009 bound_to 7997
  156.2659  140.2019  156.6208 H   0  0  0  0  0  0  0  0  0  0  0  0  # atno 8010 bound_to 7997
  139.6270  144.0513  152.1983 H   0  0  0  0  0  0  0  0  0  0  0  0  # atno 10167 bound_to 10162
  157.1848  131.0641  151.2112 H   0  0  0  0  0  0  0  0  0  0  0  0  # atno 10718 bound_to 10713
  154.1159  135.6542  153.4894 H   0  0  0  0  0  0  0  0  0  0  0  0  # atno 10763 bound_to 10752
  153.0241  135.5258  154.7145 H   0  0  0  0  0  0  0  0  0  0  0  0  # atno 10764 bound_to 10752
  154.6339  135.2979  155.0154 H   0  0  0  0  0  0  0  0  0  0  0  0  # atno 10765 bound_to 10752
  140.0170  134.6210  155.9695 H   0  0  0  0  0  0  0  0  0  0  0  0  # atno 11005 bound_to 11000
  145.3995  141.0383  143.3078 LP  0  0  0  0  0  0  0  0  0  0  0  0  # atno 17320 bound_to 7965
  144.8363  139.5544  143.6920 LP  0  0  0  0  0  0  0  0  0  0  0  0  # atno 17321 bound_to 7965
  140.0169  144.6182  150.7600 LP  0  0  0  0  0  0  0  0  0  0  0  0  # atno 17342 bound_to 10162
  140.7417  143.2821  151.3567 LP  0  0  0  0  0  0  0  0  0  0  0  0  # atno 17343 bound_to 10162
  157.3918  130.7286  149.6703 LP  0  0  0  0  0  0  0  0  0  0  0  0  # atno 17370 bound_to 10713
  155.9719  130.4144  150.4132 LP  0  0  0  0  0  0  0  0  0  0  0  0  # atno 17371 bound_to 10713
  141.1749  133.6539  156.4792 LP  0  0  0  0  0  0  0  0  0  0  0  0  # atno 17394 bound_to 11000
  140.4453  134.6978  157.5012 LP  0  0  0  0  0  0  0  0  0  0  0  0  # atno 17395 bound_to 11000

$$$$
