AV-unprocessed.smi:220|AV-procd|sdf|1684|dock3
  -GOLD-   2262020123D 1   1.00000     0.00000
 Structure written by MMmdl.
 51 55  0  0  0  0  0  0  0  0  1 V2000
  153.0945  138.7587  160.3335 N   0  0  0  0  0  0  0  0  0  0  0  0
  154.0669  139.6668  160.4446 C   0  0  0  0  0  0  0  0  0  0  0  0
  155.1074  139.4370  161.0591 O   0  0  0  0  0  0  0  0  0  0  0  0
  153.8267  141.0242  159.7566 C   0  0  2  0  0  0  0  0  0  0  0  0
  153.8014  142.2124  160.7478 C   0  0  2  0  0  0  0  0  0  0  0  0
  153.1904  141.9888  162.1422 C   0  0  0  0  0  0  0  0  0  0  0  0
  152.7011  143.3752  162.5624 C   0  0  0  0  0  0  0  0  0  0  0  0
  152.2606  144.0657  161.2644 C   0  0  0  0  0  0  0  0  0  0  0  0
  152.8550  143.2308  160.1168 C   0  0  2  0  0  0  0  0  0  0  0  0
  151.8393  142.3545  159.3730 C   0  0  0  0  0  0  0  0  0  0  0  0
  152.5465  141.1203  159.0528 N   0  0  0  0  0  0  0  0  0  0  0  0
  152.1937  140.3835  157.9639 C   0  0  0  0  0  0  0  0  0  0  0  0
  152.8894  139.2388  157.7335 N   0  0  0  0  0  0  0  0  0  0  0  0
  152.6111  138.4719  156.6769 C   0  0  0  0  0  0  0  0  0  0  0  0
  151.6853  138.6556  155.7363 N   0  0  0  0  0  0  0  0  0  0  0  0
  150.9718  139.7953  155.9598 C   0  0  0  0  0  0  0  0  0  0  0  0
  151.1570  140.7113  157.0371 C   0  0  0  0  0  0  0  0  0  0  0  0
  150.2342  141.7458  156.9229 N   0  0  0  0  0  0  0  0  0  0  0  0
  149.5588  141.4670  155.8431 C   0  0  0  0  0  0  0  0  0  0  0  0
  149.9243  140.3027  155.2086 N   0  0  0  0  0  0  0  0  0  0  0  0
  149.3417  139.7484  153.9943 C   0  0  0  0  0  0  0  0  0  0  0  0
  147.8001  139.6615  154.0108 C   0  0  0  0  0  0  0  0  0  0  0  0
  147.3127  138.5012  153.1263 C   0  0  0  0  0  0  0  0  0  0  0  0
  147.6870  138.6962  151.7778 O   0  0  0  0  0  0  0  0  0  0  0  0
  147.1479  139.7361  155.3996 C   0  0  0  0  0  0  0  0  0  0  0  0
  146.6463  141.0692  155.1710 O   0  0  0  0  0  0  0  0  0  0  0  0
  147.0755  140.9972  153.7954 C   0  0  0  0  0  0  0  0  0  0  0  0
  153.2045  137.8528  160.7657 H   0  0  0  0  0  0  0  0  0  0  0  0
  152.2548  138.9789  159.8182 H   0  0  0  0  0  0  0  0  0  0  0  0
  154.6207  141.2087  159.0320 H   0  0  0  0  0  0  0  0  0  0  0  0
  154.7975  142.6428  160.8616 H   0  0  0  0  0  0  0  0  0  0  0  0
  152.3369  141.3112  162.0860 H   0  0  0  0  0  0  0  0  0  0  0  0
  153.9038  141.5669  162.8510 H   0  0  0  0  0  0  0  0  0  0  0  0
  151.9003  143.3254  163.3006 H   0  0  0  0  0  0  0  0  0  0  0  0
  153.5264  143.9313  163.0093 H   0  0  0  0  0  0  0  0  0  0  0  0
  151.1734  144.1173  161.1952 H   0  0  0  0  0  0  0  0  0  0  0  0
  152.6316  145.0908  161.2368 H   0  0  0  0  0  0  0  0  0  0  0  0
  153.3949  143.8540  159.4025 H   0  0  0  0  0  0  0  0  0  0  0  0
  150.9851  142.1031  160.0032 H   0  0  0  0  0  0  0  0  0  0  0  0
  151.4661  142.8672  158.4852 H   0  0  0  0  0  0  0  0  0  0  0  0
  153.2179  137.5850  156.5697 H   0  0  0  0  0  0  0  0  0  0  0  0
  148.7707  142.1107  155.4823 H   0  0  0  0  0  0  0  0  0  0  0  0
  149.6766  140.3640  153.1585 H   0  0  0  0  0  0  0  0  0  0  0  0
  149.7795  138.7647  153.8208 H   0  0  0  0  0  0  0  0  0  0  0  0
  147.6931  137.5398  153.4708 H   0  0  0  0  0  0  0  0  0  0  0  0
  146.2255  138.4232  153.1591 H   0  0  0  0  0  0  0  0  0  0  0  0
  148.5539  139.0720  151.7568 H   0  0  0  0  0  0  0  0  0  0  0  0
  146.3396  139.0190  155.5495 H   0  0  0  0  0  0  0  0  0  0  0  0
  147.8491  139.7037  156.2325 H   0  0  0  0  0  0  0  0  0  0  0  0
  147.7369  141.8206  153.5232 H   0  0  0  0  0  0  0  0  0  0  0  0
  146.2296  140.9376  153.1091 H   0  0  0  0  0  0  0  0  0  0  0  0
  1  2  1  0  0  0  0
  1 28  1  0  0  0  0
  1 29  1  0  0  0  0
  2  3  2  0  0  0  0
  2  4  1  0  0  0  0
  4 11  1  0  0  0  0
  4  5  1  0  0  0  0
  4 30  1  0  0  0  0
  5  9  1  0  0  0  0
  5  6  1  0  0  0  0
  5 31  1  0  0  0  0
  6  7  1  0  0  0  0
  6 32  1  0  0  0  0
  6 33  1  0  0  0  0
  7  8  1  0  0  0  0
  7 34  1  0  0  0  0
  7 35  1  0  0  0  0
  8  9  1  0  0  0  0
  8 36  1  0  0  0  0
  8 37  1  0  0  0  0
  9 10  1  0  0  0  0
  9 38  1  0  0  0  0
 10 11  1  0  0  0  0
 10 39  1  0  0  0  0
 10 40  1  0  0  0  0
 11 12  1  0  0  0  0
 12 17  1  0  0  0  0
 12 13  2  0  0  0  0
 13 14  1  0  0  0  0
 14 15  2  0  0  0  0
 14 41  1  0  0  0  0
 15 16  1  0  0  0  0
 16 20  1  0  0  0  0
 16 17  2  0  0  0  0
 17 18  1  0  0  0  0
 18 19  2  0  0  0  0
 19 20  1  0  0  0  0
 19 42  1  0  0  0  0
 20 21  1  0  0  0  0
 21 22  1  0  0  0  0
 21 43  1  0  0  0  0
 21 44  1  0  0  0  0
 22 27  1  0  0  0  0
 22 23  1  0  0  0  0
 22 25  1  0  0  0  0
 23 24  1  0  0  0  0
 23 45  1  0  0  0  0
 23 46  1  0  0  0  0
 24 47  1  0  0  0  0
 25 26  1  0  0  0  0
 25 48  1  0  0  0  0
 25 49  1  0  0  0  0
 26 27  1  0  0  0  0
 27 50  1  0  0  0  0
 27 51  1  0  0  0  0
M  END
> <s_m_source_file>
AV-unprocessed.smi

> <i_m_source_file_index>
220

> <i_lp_mmshare_version>
43012

> <i_f3d_flags>
0

> <s_epik_input>
W0NIMl0xW0NIMl1bQ0gyXVtDQEhdKFtDQEhdMTIpW0NIMl1OKFtDQEBIXTJDKD1PKVtOSDJdKWMobltjSF1uMyljKGMzNCluW2NIXW40W0NIMl1DNShbQ0gyXVtPSF0pW0NIMl1PW0NIMl01

> <s_epik_cmdline>
J2VwaWtfcHl0aG9uJywgJy1waCcsICc3LjAnLCAnLXRuJywgJzgnLCAnLW1hJywgJzIwMCcsICctbWV0YWxfYmluZGluZycsICctaW1hZScsICc8aW5maWxlLm1hZT4nLCAnLW9tYWUnLCAnPG91dGZpbGUubWFlPic=

> <r_lp_tautomer_probability>
1

> <r_epik_Ionization_Penalty>
0.00118987

> <r_epik_Ionization_Penalty_Charging>
0

> <r_epik_Ionization_Penalty_Neutral>
0.00118987

> <r_epik_State_Penalty>
0.000654261

> <r_epik_Charging_Adjusted_Penalty>
0.000654261

> <i_epik_Tot_Q>
0

> <i_epik_Tot_abs_Q>
0

> <r_epik_Metal_State_Penalty>
-0

> <b_epik_Metal_Only>
0

> <s_lp_Force_Field>
OPLS_2005

> <r_lp_Energy>
60.6153

> <b_lp_Chiralities_Consistent>
1

> <s_lp_Variant>
AV-unprocessed.smi:220-3

> <Gold.Version>
5.8.1

> <Gold.Id.Protein>
6NUR|6NUR_protein|mol2

> <Gold.PLP.Fitness>
56.7773

> <Gold.PLP.PLP>
-49.6047

> <Gold.PLP.part.hbond>
-3.2740

> <Gold.PLP.part.metal>
0.0000

> <Gold.PLP.part.buried>
-3.5374

> <Gold.PLP.part.nonpolar>
-44.7813

> <Gold.PLP.part.repulsive>
0.2827

> <Gold.PLP.ligand.clash>
0.0000

> <Gold.PLP.ligand.torsion>
0.8087

> <Gold.PLP.Chemscore.Hbond>
2.0024

> <Gold.PLP.Chemscore.CHOScore>
0.7883

> <Gold.PLP.Chemscore.Metal>
0.0000

> <Gold.Chemscore.Hbonds>
donor molecule, donor type, donor heavy atom, donor atom, acceptor molecule, acceptor atom, score
      L1  H    24    47       P1  7957  0.98
      P1  H  7954  7966       L1    24  0.19
      P1  H  7997  8010       L1    13  0.90
      L1  C    19    42       P1  8028  0.69

> <Gold.PLP.Chemscore.Internal.Correction>
0.4179

> <Gold.Rescore>
     Score         DG    S(hbond)    S(metal)    S(lipo)     H(rot)  DE(clash)    DE(int)     intcor
      8.50     -14.20       1.06        0.00     107.55       2.89       1.25       4.45       ----

> <Gold.Chemscore.Fitness>
8.5001

> <Gold.Chemscore.DG>
-14.2004

> <Gold.Chemscore.ZeroCoef>
-5.4800

> <Gold.Chemscore.Hbond>
1.0560

> <Gold.Chemscore.Metal>
0.0000

> <Gold.Chemscore.Lipo>
107.5548

> <Gold.Chemscore.Internal_Hbond>
0.0000

> <Gold.Chemscore.DEClash>
1.2514

> <Gold.Chemscore.DEInternal>
4.4488

> <Gold.Chemscore.Rot>
2.8869

> <Gold.Chemscore.Internal.Correction>
   9.000000E+99

> <Gold.Chemscore.Hbonds>
donor molecule, donor type, donor heavy atom, donor atom, acceptor molecule, acceptor atom, score
      L1  H    24    47       P1  7957  0.78
      P1  H  7997  8010       L1    13  0.04

> <Gold.Chemscore.Hbond.Weighted>
-3.5270

> <Gold.Chemscore.Metal.Weighted>
-0.0000

> <Gold.Chemscore.Lipo.Weighted>
-12.5839

> <Gold.Chemscore.Internal_Hbond.Weighted>
0.0000

> <Gold.Chemscore.DEClash.Weighted>
1.2514

> <Gold.Chemscore.DEInternal.Weighted>
4.4488

> <Gold.Chemscore.Rot.Weighted>
7.3905

> <Gold.Chemscore.Internal.Correction.Weighted>
   9.000000E+99

> <Gold.Protein.RotatedTorsions>
[ 6907 6896 6895 6894 ] final -102.28 input  -60.11 | X-H torsion
[ 7974 7965 7964 7962 ] final  -25.43 input  175.53 | X-H torsion
[ 8008 7997 7996 7995 ] final   31.43 input   59.86 | X-H torsion
[ 10167 10162 10161 10158 ] final    9.55 input  -65.29 | X-H torsion
[ 10718 10713 10712 10709 ] final -118.77 input   66.30 | X-H torsion
[ 10763 10752 10751 10750 ] final   44.49 input  -60.55 | X-H torsion
[ 11005 11000 10999 10996 ] final -138.24 input  -57.11 | X-H torsion

> <Gold.Protein.ActiveResidues>
 VAL166  LYS551  ARG553  GLY616  TRP617  ASP618  TYR619  PRO620  LYS621  CYS622 
 ASP623  PHE694  ASN695  SER759  ASP760  ASP761  ALA762  ILE779  LEU786  VAL792 
 PHE793  MET794  SER795  GLU796  ALA797  LYS798  CYS799  TRP800  GLU811  SER814 

> <Gold.Protein.RotatedAtoms>
  150.7189  134.0605  159.3829 H   0  0  0  0  0  0  0  0  0  0  0  0  # atno 6907 bound_to 6896
  151.8585  135.0530  160.0476 H   0  0  0  0  0  0  0  0  0  0  0  0  # atno 6908 bound_to 6896
  152.2736  133.5369  159.5490 H   0  0  0  0  0  0  0  0  0  0  0  0  # atno 6909 bound_to 6896
  146.1491  140.4886  142.8619 H   0  0  0  0  0  0  0  0  0  0  0  0  # atno 7974 bound_to 7965
  155.1064  140.3234  155.4533 H   0  0  0  0  0  0  0  0  0  0  0  0  # atno 8008 bound_to 7997
  156.2703  140.2052  156.6136 H   0  0  0  0  0  0  0  0  0  0  0  0  # atno 8009 bound_to 7997
  154.6790  140.0528  157.0233 H   0  0  0  0  0  0  0  0  0  0  0  0  # atno 8010 bound_to 7997
  140.6248  143.8125  150.7220 H   0  0  0  0  0  0  0  0  0  0  0  0  # atno 10167 bound_to 10162
  156.1131  130.6264  150.9333 H   0  0  0  0  0  0  0  0  0  0  0  0  # atno 10718 bound_to 10713
  152.9840  135.6069  154.3283 H   0  0  0  0  0  0  0  0  0  0  0  0  # atno 10763 bound_to 10752
  154.2988  135.2773  155.2622 H   0  0  0  0  0  0  0  0  0  0  0  0  # atno 10764 bound_to 10752
  154.4884  135.5898  153.6497 H   0  0  0  0  0  0  0  0  0  0  0  0  # atno 10765 bound_to 10752
  140.8634  134.2140  157.4694 H   0  0  0  0  0  0  0  0  0  0  0  0  # atno 11005 bound_to 11000
  144.7882  140.5979  143.6559 LP  0  0  0  0  0  0  0  0  0  0  0  0  # atno 17320 bound_to 7965
  145.4866  139.1491  143.3732 LP  0  0  0  0  0  0  0  0  0  0  0  0  # atno 17321 bound_to 7965
  140.1723  143.4184  152.1992 LP  0  0  0  0  0  0  0  0  0  0  0  0  # atno 17342 bound_to 10162
  139.5470  144.7307  151.4552 LP  0  0  0  0  0  0  0  0  0  0  0  0  # atno 17343 bound_to 10162
  157.6313  131.0921  150.8435 LP  0  0  0  0  0  0  0  0  0  0  0  0  # atno 17370 bound_to 10713
  156.8543  130.5091  149.5309 LP  0  0  0  0  0  0  0  0  0  0  0  0  # atno 17371 bound_to 10713
  139.8708  134.9740  156.4831 LP  0  0  0  0  0  0  0  0  0  0  0  0  # atno 17394 bound_to 11000
  140.8656  133.8026  155.9311 LP  0  0  0  0  0  0  0  0  0  0  0  0  # atno 17395 bound_to 11000

$$$$
