AV-unprocessed.smi:251|AV-procd|sdf|1934|dock5
  -GOLD-   2262021 53D 1   1.00000     0.00000
 Structure written by MMmdl.
 50 54  0  0  0  0  0  0  0  0  1 V2000
  151.8528  137.2246  153.8782 O   0  0  0  0  0  0  0  0  0  0  0  0
  151.7978  138.5541  154.3559 C   0  0  0  0  0  0  0  0  0  0  0  0
  151.2215  138.6397  155.7986 C   0  0  0  0  0  0  0  0  0  0  0  0
  151.6442  137.3994  156.6415 C   0  0  0  0  0  0  0  0  0  0  0  0
  150.7260  137.0463  157.7155 N   0  0  0  0  0  0  0  0  0  0  0  0
  150.7483  137.5224  159.0059 C   0  0  0  0  0  0  0  0  0  0  0  0
  149.8153  137.0538  159.7874 N   0  0  0  0  0  0  0  0  0  0  0  0
  149.0733  136.2047  158.9729 C   0  0  0  0  0  0  0  0  0  0  0  0
  147.9254  135.3780  159.1667 C   0  0  0  0  0  0  0  0  0  0  0  0
  147.2571  135.2448  160.3429 N   0  0  0  0  0  0  0  0  0  0  0  0
  147.5453  136.0866  161.5001 C   0  0  0  0  0  0  0  0  0  0  0  0
  146.4451  135.7958  162.4912 C   0  0  2  0  0  0  0  0  0  0  0  0
  146.1709  134.3893  162.9844 C   0  0  0  0  0  0  0  0  0  0  0  0
  145.4111  134.9586  161.8042 C   0  0  1  0  0  0  0  0  0  0  0  0
  143.9148  135.2273  161.9039 C   0  0  0  0  0  0  0  0  0  0  0  0
  143.5802  135.5282  163.1587 F   0  0  0  0  0  0  0  0  0  0  0  0
  143.5888  136.2472  161.1103 F   0  0  0  0  0  0  0  0  0  0  0  0
  143.2123  134.1577  161.5295 F   0  0  0  0  0  0  0  0  0  0  0  0
  145.8951  134.7134  160.3891 C   0  0  0  0  0  0  0  0  0  0  0  0
  147.4863  134.6677  158.0937 N   0  0  0  0  0  0  0  0  0  0  0  0
  148.1063  134.7610  156.9146 C   0  0  0  0  0  0  0  0  0  0  0  0
  149.1747  135.4893  156.5909 N   0  0  0  0  0  0  0  0  0  0  0  0
  149.6334  136.1973  157.6618 C   0  0  0  0  0  0  0  0  0  0  0  0
  151.7144  139.9153  156.5271 C   0  0  0  0  0  0  0  0  0  0  0  0
  151.1117  141.2089  155.9501 C   0  0  0  0  0  0  0  0  0  0  0  0
  149.6922  141.1408  155.9899 O   0  0  0  0  0  0  0  0  0  0  0  0
  149.1687  140.0799  155.2019 C   0  0  0  0  0  0  0  0  0  0  0  0
  149.6758  138.7262  155.7328 C   0  0  0  0  0  0  0  0  0  0  0  0
  151.5012  137.2062  153.0011 H   0  0  0  0  0  0  0  0  0  0  0  0
  152.8052  138.9626  154.2999 H   0  0  0  0  0  0  0  0  0  0  0  0
  151.2001  139.1456  153.6625 H   0  0  0  0  0  0  0  0  0  0  0  0
  151.7572  136.5257  155.9981 H   0  0  0  0  0  0  0  0  0  0  0  0
  152.6278  137.5622  157.0841 H   0  0  0  0  0  0  0  0  0  0  0  0
  151.4891  138.2275  159.3546 H   0  0  0  0  0  0  0  0  0  0  0  0
  148.5142  135.8470  161.9387 H   0  0  0  0  0  0  0  0  0  0  0  0
  147.5250  137.1413  161.2233 H   0  0  0  0  0  0  0  0  0  0  0  0
  146.1237  136.6199  163.1252 H   0  0  0  0  0  0  0  0  0  0  0  0
  146.9199  133.6254  162.7851 H   0  0  0  0  0  0  0  0  0  0  0  0
  145.6483  134.2862  163.9331 H   0  0  0  0  0  0  0  0  0  0  0  0
  145.2597  135.2346  159.6725 H   0  0  0  0  0  0  0  0  0  0  0  0
  145.8781  133.6462  160.1655 H   0  0  0  0  0  0  0  0  0  0  0  0
  147.6864  134.1660  156.1171 H   0  0  0  0  0  0  0  0  0  0  0  0
  151.4372  139.8589  157.5808 H   0  0  0  0  0  0  0  0  0  0  0  0
  152.8029  139.9744  156.5106 H   0  0  0  0  0  0  0  0  0  0  0  0
  151.4340  142.0634  156.5450 H   0  0  0  0  0  0  0  0  0  0  0  0
  151.4544  141.3936  154.9317 H   0  0  0  0  0  0  0  0  0  0  0  0
  148.0805  140.1127  155.2572 H   0  0  0  0  0  0  0  0  0  0  0  0
  149.4291  140.2246  154.1531 H   0  0  0  0  0  0  0  0  0  0  0  0
  149.2706  137.9215  155.1183 H   0  0  0  0  0  0  0  0  0  0  0  0
  149.2627  138.5825  156.7319 H   0  0  0  0  0  0  0  0  0  0  0  0
  1  2  1  0  0  0  0
  1 29  1  0  0  0  0
  2  3  1  0  0  0  0
  2 30  1  0  0  0  0
  2 31  1  0  0  0  0
  3 28  1  0  0  0  0
  3  4  1  0  0  0  0
  3 24  1  0  0  0  0
  4  5  1  0  0  0  0
  4 32  1  0  0  0  0
  4 33  1  0  0  0  0
  5 23  1  0  0  0  0
  5  6  1  0  0  0  0
  6  7  2  0  0  0  0
  6 34  1  0  0  0  0
  7  8  1  0  0  0  0
  8 23  2  0  0  0  0
  8  9  1  0  0  0  0
  9 10  1  0  0  0  0
  9 20  2  0  0  0  0
 10 19  1  0  0  0  0
 10 11  1  0  0  0  0
 11 12  1  0  0  0  0
 11 35  1  0  0  0  0
 11 36  1  0  0  0  0
 12 14  1  0  0  0  0
 12 13  1  0  0  0  0
 12 37  1  0  0  0  0
 13 14  1  0  0  0  0
 13 38  1  0  0  0  0
 13 39  1  0  0  0  0
 14 15  1  0  0  0  0
 14 19  1  0  0  0  0
 15 16  1  0  0  0  0
 15 17  1  0  0  0  0
 15 18  1  0  0  0  0
 19 40  1  0  0  0  0
 19 41  1  0  0  0  0
 20 21  1  0  0  0  0
 21 22  2  0  0  0  0
 21 42  1  0  0  0  0
 22 23  1  0  0  0  0
 24 25  1  0  0  0  0
 24 43  1  0  0  0  0
 24 44  1  0  0  0  0
 25 26  1  0  0  0  0
 25 45  1  0  0  0  0
 25 46  1  0  0  0  0
 26 27  1  0  0  0  0
 27 28  1  0  0  0  0
 27 47  1  0  0  0  0
 27 48  1  0  0  0  0
 28 49  1  0  0  0  0
 28 50  1  0  0  0  0
M  END
> <s_m_source_file>
AV-unprocessed.smi

> <i_m_source_file_index>
251

> <i_lp_mmshare_version>
43012

> <i_f3d_flags>
0

> <s_epik_input>
W0NIMl0xW0NIMl1PW0NIMl1bQ0gyXUMxKFtDSDJdW09IXSlbQ0gyXW4oW2NIXW4yKWMoYzIzKW5bY0hdbmMzTihbQ0gyXTQpW0NIMl1bQ0BIXShbQ0gyXTUpW0NAQF00NUMoRikoRilG

> <s_epik_cmdline>
J2VwaWtfcHl0aG9uJywgJy1waCcsICc3LjAnLCAnLXRuJywgJzgnLCAnLW1hJywgJzIwMCcsICctbWV0YWxfYmluZGluZycsICctaW1hZScsICc8aW5maWxlLm1hZT4nLCAnLW9tYWUnLCAnPG91dGZpbGUubWFlPic=

> <r_lp_tautomer_probability>
1

> <r_epik_Ionization_Penalty>
0.00226625

> <r_epik_Ionization_Penalty_Charging>
0

> <r_epik_Ionization_Penalty_Neutral>
0.00226625

> <r_epik_State_Penalty>
0.00138204

> <r_epik_Charging_Adjusted_Penalty>
0.00138204

> <i_epik_Tot_Q>
0

> <i_epik_Tot_abs_Q>
0

> <r_epik_Metal_State_Penalty>
-0

> <b_epik_Metal_Only>
0

> <s_lp_Force_Field>
OPLS_2005

> <r_lp_Energy>
66.9783

> <b_lp_Chiralities_Consistent>
1

> <s_lp_Variant>
AV-unprocessed.smi:251-1

> <Gold.Version>
5.8.1

> <Gold.Id.Protein>
6NUR|6NUR_protein|mol2

> <Gold.PLP.Fitness>
39.8653

> <Gold.PLP.PLP>
-36.5551

> <Gold.PLP.part.hbond>
-3.0000

> <Gold.PLP.part.metal>
0.0000

> <Gold.PLP.part.buried>
-4.8289

> <Gold.PLP.part.nonpolar>
-29.0016

> <Gold.PLP.part.repulsive>
0.0782

> <Gold.PLP.ligand.clash>
0.0000

> <Gold.PLP.ligand.torsion>
2.1636

> <Gold.PLP.Chemscore.Hbond>
1.9516

> <Gold.PLP.Chemscore.CHOScore>
0.0000

> <Gold.PLP.Chemscore.Metal>
0.0000

> <Gold.Chemscore.Hbonds>
donor molecule, donor type, donor heavy atom, donor atom, acceptor molecule, acceptor atom, score
      L1  H     1    29       P1  7949  0.85
      P1  H 10752 10764       L1     1  1.00

> <Gold.PLP.Chemscore.Internal.Correction>
1.7827

> <Gold.Rescore>
     Score         DG    S(hbond)    S(metal)    S(lipo)     H(rot)  DE(clash)    DE(int)     intcor
     12.17     -15.43       1.79        0.00      82.76       2.23       0.26       3.00       ----

> <Gold.Chemscore.Fitness>
12.1658

> <Gold.Chemscore.DG>
-15.4266

> <Gold.Chemscore.ZeroCoef>
-5.4800

> <Gold.Chemscore.Hbond>
1.7916

> <Gold.Chemscore.Metal>
0.0000

> <Gold.Chemscore.Lipo>
82.7582

> <Gold.Chemscore.Internal_Hbond>
0.0000

> <Gold.Chemscore.DEClash>
0.2603

> <Gold.Chemscore.DEInternal>
3.0005

> <Gold.Chemscore.Rot>
2.2344

> <Gold.Chemscore.Internal.Correction>
   9.000000E+99

> <Gold.Chemscore.Hbonds>
donor molecule, donor type, donor heavy atom, donor atom, acceptor molecule, acceptor atom, score
      L1  H     1    29       P1  7949  0.74
      P1  H 10752 10764       L1     1  0.73

> <Gold.Chemscore.Hbond.Weighted>
-5.9839

> <Gold.Chemscore.Metal.Weighted>
-0.0000

> <Gold.Chemscore.Lipo.Weighted>
-9.6827

> <Gold.Chemscore.Internal_Hbond.Weighted>
0.0000

> <Gold.Chemscore.DEClash.Weighted>
0.2603

> <Gold.Chemscore.DEInternal.Weighted>
3.0005

> <Gold.Chemscore.Rot.Weighted>
5.7200

> <Gold.Chemscore.Internal.Correction.Weighted>
   9.000000E+99

> <Gold.Protein.RotatedTorsions>
[ 6907 6896 6895 6894 ] final  -66.38 input  -60.11 | X-H torsion
[ 7974 7965 7964 7962 ] final  -90.09 input  175.53 | X-H torsion
[ 8008 7997 7996 7995 ] final  -42.69 input   59.86 | X-H torsion
[ 10167 10162 10161 10158 ] final   93.41 input  -65.29 | X-H torsion
[ 10718 10713 10712 10709 ] final -160.14 input   66.30 | X-H torsion
[ 10763 10752 10751 10750 ] final  -84.05 input  -60.55 | X-H torsion
[ 11005 11000 10999 10996 ] final  145.21 input  -57.11 | X-H torsion

> <Gold.Protein.ActiveResidues>
 VAL166  LYS551  ARG553  GLY616  TRP617  ASP618  TYR619  PRO620  LYS621  CYS622 
 ASP623  PHE694  ASN695  SER759  ASP760  ASP761  ALA762  ILE779  LEU786  VAL792 
 PHE793  MET794  SER795  GLU796  ALA797  LYS798  CYS799  TRP800  GLU811  SER814 

> <Gold.Protein.RotatedAtoms>
  150.7469  134.6030  159.6045 H   0  0  0  0  0  0  0  0  0  0  0  0  # atno 6907 bound_to 6896
  152.3386  134.7162  160.0279 H   0  0  0  0  0  0  0  0  0  0  0  0  # atno 6908 bound_to 6896
  151.7622  133.3298  159.3457 H   0  0  0  0  0  0  0  0  0  0  0  0  # atno 6909 bound_to 6896
  145.4311  140.9556  143.2127 H   0  0  0  0  0  0  0  0  0  0  0  0  # atno 7974 bound_to 7965
  154.3998  140.1467  156.3395 H   0  0  0  0  0  0  0  0  0  0  0  0  # atno 8008 bound_to 7997
  155.8369  140.3463  155.5586 H   0  0  0  0  0  0  0  0  0  0  0  0  # atno 8009 bound_to 7997
  155.8128  140.0886  157.1884 H   0  0  0  0  0  0  0  0  0  0  0  0  # atno 8010 bound_to 7997
  139.8182  144.6743  150.9552 H   0  0  0  0  0  0  0  0  0  0  0  0  # atno 10167 bound_to 10162
  156.5779  130.8717  151.2856 H   0  0  0  0  0  0  0  0  0  0  0  0  # atno 10718 bound_to 10713
  154.5950  135.5534  153.7316 H   0  0  0  0  0  0  0  0  0  0  0  0  # atno 10763 bound_to 10752
  153.0131  135.6352  154.1796 H   0  0  0  0  0  0  0  0  0  0  0  0  # atno 10764 bound_to 10752
  154.1736  135.2891  155.3053 H   0  0  0  0  0  0  0  0  0  0  0  0  # atno 10765 bound_to 10752
  140.0694  134.9160  157.1319 H   0  0  0  0  0  0  0  0  0  0  0  0  # atno 11005 bound_to 11000
  144.8182  139.5839  143.6999 LP  0  0  0  0  0  0  0  0  0  0  0  0  # atno 17320 bound_to 7965
  146.2606  139.6402  142.9364 LP  0  0  0  0  0  0  0  0  0  0  0  0  # atno 17321 bound_to 7965
  140.7814  143.4117  151.0982 LP  0  0  0  0  0  0  0  0  0  0  0  0  # atno 17342 bound_to 10162
  139.7779  143.8398  152.3132 LP  0  0  0  0  0  0  0  0  0  0  0  0  # atno 17343 bound_to 10162
  157.7333  130.9729  150.1972 LP  0  0  0  0  0  0  0  0  0  0  0  0  # atno 17370 bound_to 10713
  156.2657  130.3716  149.8084 LP  0  0  0  0  0  0  0  0  0  0  0  0  # atno 17371 bound_to 10713
  140.3650  134.2452  155.7183 LP  0  0  0  0  0  0  0  0  0  0  0  0  # atno 17394 bound_to 11000
  141.2006  133.7984  157.0483 LP  0  0  0  0  0  0  0  0  0  0  0  0  # atno 17395 bound_to 11000

$$$$
