AV-unprocessed.smi:2724|AV-procd|sdf|10514|dock2
  -GOLD-   2272014553D 1   1.00000     0.00000
 Structure written by MMmdl.
 26 27  0  0  0  0  0  0  0  0  2 V2000
  152.3794  140.1337  157.5760 O   0  0  0  0  0  0  0  0  0  0  0  0
  152.6383  140.4502  158.9281 C   0  0  1  0  0  0  0  0  0  0  0  0
  153.6248  139.4592  159.5459 C   0  0  0  0  0  0  0  0  0  0  0  0
  154.2288  140.2051  160.7383 C   0  0  0  0  0  0  0  0  0  0  0  0
  154.1079  141.7029  160.4151 C   0  0  0  0  0  0  0  0  0  0  0  0
  153.3434  141.8050  159.0813 C   0  0  2  0  0  0  0  0  0  0  0  0
  152.4084  143.0055  159.0015 C   0  0  0  0  0  0  0  0  0  0  0  0
  152.4061  143.9735  160.0312 C   0  0  0  0  0  0  0  0  0  0  0  0
  151.5394  145.0825  159.9416 C   0  0  0  0  0  0  0  0  0  0  0  0
  150.6901  145.2015  158.8231 C   0  0  0  0  0  0  0  0  0  0  0  0
  150.7178  144.2588  157.8560 N   0  3  0  0  0  0  0  0  0  0  0  0
  151.5343  143.1835  157.9044 C   0  0  0  0  0  0  0  0  0  0  0  0
  151.4747  140.3295  157.3865 H   0  0  0  0  0  0  0  0  0  0  0  0
  151.7083  140.4260  159.4975 H   0  0  0  0  0  0  0  0  0  0  0  0
  153.1539  138.5183  159.8323 H   0  0  0  0  0  0  0  0  0  0  0  0
  154.4172  139.2274  158.8319 H   0  0  0  0  0  0  0  0  0  0  0  0
  153.6621  139.9777  161.6420 H   0  0  0  0  0  0  0  0  0  0  0  0
  155.2615  139.9054  160.9183 H   0  0  0  0  0  0  0  0  0  0  0  0
  153.5678  142.1903  161.2275 H   0  0  0  0  0  0  0  0  0  0  0  0
  155.0816  142.1891  160.3474 H   0  0  0  0  0  0  0  0  0  0  0  0
  154.0906  141.8877  158.2896 H   0  0  0  0  0  0  0  0  0  0  0  0
  153.0624  143.8720  160.8835 H   0  0  0  0  0  0  0  0  0  0  0  0
  151.5274  145.8313  160.7203 H   0  0  0  0  0  0  0  0  0  0  0  0
  149.9955  146.0153  158.6736 H   0  0  0  0  0  0  0  0  0  0  0  0
  151.4625  142.5023  157.0690 H   0  0  0  0  0  0  0  0  0  0  0  0
  150.0952  144.3635  157.0542 H   0  0  0  0  0  0  0  0  0  0  0  0
  1  2  1  0  0  0  0
  1 13  1  0  0  0  0
  2  6  1  0  0  0  0
  2  3  1  0  0  0  0
  2 14  1  0  0  0  0
  3  4  1  0  0  0  0
  3 15  1  0  0  0  0
  3 16  1  0  0  0  0
  4  5  1  0  0  0  0
  4 17  1  0  0  0  0
  4 18  1  0  0  0  0
  5  6  1  0  0  0  0
  5 19  1  0  0  0  0
  5 20  1  0  0  0  0
  6  7  1  0  0  0  0
  6 21  1  0  0  0  0
  7 12  1  0  0  0  0
  7  8  2  0  0  0  0
  8  9  1  0  0  0  0
  8 22  1  0  0  0  0
  9 10  2  0  0  0  0
  9 23  1  0  0  0  0
 10 11  1  0  0  0  0
 10 24  1  0  0  0  0
 11 12  2  0  0  0  0
 11 26  1  0  0  0  0
 12 25  1  0  0  0  0
M  CHG  1  11   1
M  END
> <s_m_source_file>
AV-unprocessed.smi

> <i_m_source_file_index>
2724

> <i_lp_mmshare_version>
43012

> <i_f3d_flags>
0

> <s_epik_input>
W09IXVtDQEBIXTFbQ0gyXVtDSDJdW0NIMl1bQ0BIXTFjMltjSF1bY0hdW2NIXW5bY0hdMg==

> <s_epik_cmdline>
J2VwaWtfcHl0aG9uJywgJy1waCcsICc3LjAnLCAnLXRuJywgJzgnLCAnLW1hJywgJzIwMCcsICctbWV0YWxfYmluZGluZycsICctaW1hZScsICc8aW5maWxlLm1hZT4nLCAnLW9tYWUnLCAnPG91dGZpbGUubWFlPic=

> <r_epik_Ionization_Penalty>
2.09455

> <r_epik_Ionization_Penalty_Charging>
2.09455

> <r_epik_Ionization_Penalty_Neutral>
5.26757e-08

> <r_epik_State_Penalty>
2.23025

> <r_epik_Charging_Adjusted_Penalty>
4.3248

> <i_epik_Tot_Q>
1

> <i_epik_Tot_abs_Q>
1

> <r_epik_Metal_State_Penalty>
6.30911

> <b_epik_Metal_Only>
0

> <s_lp_Force_Field>
OPLS_2005

> <r_lp_Energy>
27.5939

> <b_lp_Chiralities_Consistent>
1

> <s_lp_Variant>
AV-unprocessed.smi:2724-8

> <Gold.Version>
5.8.1

> <Gold.Id.Protein>
6NUR|6NUR_protein|mol2

> <Gold.PLP.Fitness>
40.8489

> <Gold.PLP.PLP>
-32.0333

> <Gold.PLP.part.hbond>
-2.0000

> <Gold.PLP.part.metal>
0.0000

> <Gold.PLP.part.buried>
-2.7833

> <Gold.PLP.part.nonpolar>
-26.3411

> <Gold.PLP.part.repulsive>
0.0454

> <Gold.PLP.ligand.clash>
0.0000

> <Gold.PLP.ligand.torsion>
0.0803

> <Gold.PLP.Chemscore.Hbond>
2.9920

> <Gold.PLP.Chemscore.CHOScore>
0.0000

> <Gold.PLP.Chemscore.Metal>
0.0000

> <Gold.Chemscore.Hbonds>
donor molecule, donor type, donor heavy atom, donor atom, acceptor molecule, acceptor atom, score
      L1  H    11    26       P1  8028  2.00
      P1  H  7997  8009       L1     1  0.49

> <Gold.PLP.Chemscore.Internal.Correction>
0.0001

> <Gold.Rescore>
     Score         DG    S(hbond)    S(metal)    S(lipo)     H(rot)  DE(clash)    DE(int)     intcor
     20.04     -20.34       1.84        0.00     103.99       1.35       0.02       0.28       ----

> <Gold.Chemscore.Fitness>
20.0351

> <Gold.Chemscore.DG>
-20.3408

> <Gold.Chemscore.ZeroCoef>
-5.4800

> <Gold.Chemscore.Hbond>
1.8411

> <Gold.Chemscore.Metal>
0.0000

> <Gold.Chemscore.Lipo>
103.9887

> <Gold.Chemscore.Internal_Hbond>
0.0000

> <Gold.Chemscore.DEClash>
0.0215

> <Gold.Chemscore.DEInternal>
0.2842

> <Gold.Chemscore.Rot>
1.3496

> <Gold.Chemscore.Internal.Correction>
   9.000000E+99

> <Gold.Chemscore.Hbonds>
donor molecule, donor type, donor heavy atom, donor atom, acceptor molecule, acceptor atom, score
      L1  H    11    26       P1  8028  0.74
      P1  H  7997  8009       L1     1  0.09

> <Gold.Chemscore.Hbond.Weighted>
-6.1492

> <Gold.Chemscore.Metal.Weighted>
-0.0000

> <Gold.Chemscore.Lipo.Weighted>
-12.1667

> <Gold.Chemscore.Internal_Hbond.Weighted>
0.0000

> <Gold.Chemscore.DEClash.Weighted>
0.0215

> <Gold.Chemscore.DEInternal.Weighted>
0.2842

> <Gold.Chemscore.Rot.Weighted>
3.4550

> <Gold.Chemscore.Internal.Correction.Weighted>
   9.000000E+99

> <Gold.Protein.RotatedTorsions>
[ 6907 6896 6895 6894 ] final   75.40 input  -60.11 | X-H torsion
[ 7974 7965 7964 7962 ] final -102.62 input  175.53 | X-H torsion
[ 8008 7997 7996 7995 ] final  164.36 input   59.86 | X-H torsion
[ 10167 10162 10161 10158 ] final -114.45 input  -65.29 | X-H torsion
[ 10718 10713 10712 10709 ] final  172.57 input   66.30 | X-H torsion
[ 10763 10752 10751 10750 ] final  -79.29 input  -60.55 | X-H torsion
[ 11005 11000 10999 10996 ] final   97.03 input  -57.11 | X-H torsion

> <Gold.Protein.ActiveResidues>
 VAL166  LYS551  ARG553  GLY616  TRP617  ASP618  TYR619  PRO620  LYS621  CYS622 
 ASP623  PHE694  ASN695  SER759  ASP760  ASP761  ALA762  ILE779  LEU786  VAL792 
 PHE793  MET794  SER795  GLU796  ALA797  LYS798  CYS799  TRP800  GLU811  SER814 

> <Gold.Protein.RotatedAtoms>
  152.5024  134.4125  159.9453 H   0  0  0  0  0  0  0  0  0  0  0  0  # atno 6907 bound_to 6896
  151.4094  133.3726  159.2750 H   0  0  0  0  0  0  0  0  0  0  0  0  # atno 6908 bound_to 6896
  150.9303  134.8740  159.7606 H   0  0  0  0  0  0  0  0  0  0  0  0  # atno 6909 bound_to 6896
  145.2664  140.9285  143.3011 H   0  0  0  0  0  0  0  0  0  0  0  0  # atno 7974 bound_to 7965
  156.1886  140.1699  156.8136 H   0  0  0  0  0  0  0  0  0  0  0  0  # atno 8008 bound_to 7997
  154.5444  140.0730  156.8596 H   0  0  0  0  0  0  0  0  0  0  0  0  # atno 8009 bound_to 7997
  155.3151  140.3370  155.4245 H   0  0  0  0  0  0  0  0  0  0  0  0  # atno 8010 bound_to 7997
  140.1009  143.4614  152.1813 H   0  0  0  0  0  0  0  0  0  0  0  0  # atno 10167 bound_to 10162
  156.9769  131.0107  151.2891 H   0  0  0  0  0  0  0  0  0  0  0  0  # atno 10718 bound_to 10713
  154.5368  135.5700  153.6805 H   0  0  0  0  0  0  0  0  0  0  0  0  # atno 10763 bound_to 10752
  152.9953  135.6218  154.2556 H   0  0  0  0  0  0  0  0  0  0  0  0  # atno 10764 bound_to 10752
  154.2485  135.2860  155.2806 H   0  0  0  0  0  0  0  0  0  0  0  0  # atno 10765 bound_to 10752
  139.8778  134.8980  156.4247 H   0  0  0  0  0  0  0  0  0  0  0  0  # atno 11005 bound_to 11000
  144.9373  139.4229  143.6466 LP  0  0  0  0  0  0  0  0  0  0  0  0  # atno 17320 bound_to 7965
  146.3260  139.8315  142.8907 LP  0  0  0  0  0  0  0  0  0  0  0  0  # atno 17321 bound_to 7965
  139.5672  144.7442  151.3990 LP  0  0  0  0  0  0  0  0  0  0  0  0  # atno 17342 bound_to 10162
  140.6978  143.7705  150.7355 LP  0  0  0  0  0  0  0  0  0  0  0  0  # atno 17343 bound_to 10162
  157.5553  130.8209  149.8196 LP  0  0  0  0  0  0  0  0  0  0  0  0  # atno 17370 bound_to 10713
  156.0260  130.3779  150.1823 LP  0  0  0  0  0  0  0  0  0  0  0  0  # atno 17371 bound_to 10713
  140.9109  133.7712  155.9791 LP  0  0  0  0  0  0  0  0  0  0  0  0  # atno 17394 bound_to 11000
  140.8547  134.2912  157.5260 LP  0  0  0  0  0  0  0  0  0  0  0  0  # atno 17395 bound_to 11000

$$$$
