AV-unprocessed.smi:160|AV-procd|sdf|1347|dock7
  -GOLD-   2262019 53D 1   1.00000     0.00000
 Structure written by MMmdl.
 29 30  0  0  0  0  0  0  0  0  1 V2000
  153.9740  141.3683  159.9699 N   0  0  0  0  0  0  0  0  0  0  0  0
  152.6542  141.5546  159.8709 C   0  0  0  0  0  0  0  0  0  0  0  0
  152.0171  142.2108  160.6935 O   0  0  0  0  0  0  0  0  0  0  0  0
  151.9837  140.9129  158.6882 C   0  0  0  0  0  0  0  0  0  0  0  0
  150.6325  140.9852  158.4903 N   0  0  0  0  0  0  0  0  0  0  0  0
  150.5526  140.2978  157.3584 C   0  0  0  0  0  0  0  0  0  0  0  0
  151.7253  139.8244  156.9201 N   0  0  0  0  0  0  0  0  0  0  0  0
  152.0720  139.0720  155.6739 C   0  0  2  0  0  0  0  0  0  0  0  0
  151.5047  139.7439  154.5867 O   0  0  0  0  0  0  0  0  0  0  0  0
  150.3463  139.0632  154.1083 C   0  0  2  0  0  0  0  0  0  0  0  0
  149.0833  139.5596  154.8499 C   0  0  0  0  0  0  0  0  0  0  0  0
  147.9605  138.8089  154.4399 O   0  0  0  0  0  0  0  0  0  0  0  0
  150.7261  137.5983  154.3670 C   0  0  2  0  0  0  0  0  0  0  0  0
  149.6056  136.7385  154.4351 O   0  0  0  0  0  0  0  0  0  0  0  0
  151.4788  137.6494  155.6909 C   0  0  1  0  0  0  0  0  0  0  0  0
  152.4877  136.6599  155.7049 O   0  0  0  0  0  0  0  0  0  0  0  0
  152.6900  140.2508  157.7723 N   0  0  0  0  0  0  0  0  0  0  0  0
  153.1612  139.1113  155.6263 H   0  0  0  0  0  0  0  0  0  0  0  0
  150.2273  139.2337  153.0375 H   0  0  0  0  0  0  0  0  0  0  0  0
  151.3890  137.2634  153.5670 H   0  0  0  0  0  0  0  0  0  0  0  0
  150.7972  137.5266  156.5345 H   0  0  0  0  0  0  0  0  0  0  0  0
  154.4835  141.7726  160.7417 H   0  0  0  0  0  0  0  0  0  0  0  0
  154.4527  140.8216  159.2687 H   0  0  0  0  0  0  0  0  0  0  0  0
  149.6193  140.1338  156.8396 H   0  0  0  0  0  0  0  0  0  0  0  0
  149.1845  139.4018  155.9235 H   0  0  0  0  0  0  0  0  0  0  0  0
  148.9019  140.6237  154.7072 H   0  0  0  0  0  0  0  0  0  0  0  0
  148.2365  138.1934  153.7780 H   0  0  0  0  0  0  0  0  0  0  0  0
  149.3670  136.4922  153.5543 H   0  0  0  0  0  0  0  0  0  0  0  0
  152.7985  136.5634  156.5925 H   0  0  0  0  0  0  0  0  0  0  0  0
  1  2  1  0  0  0  0
  1 22  1  0  0  0  0
  1 23  1  0  0  0  0
  2  3  2  0  0  0  0
  2  4  1  0  0  0  0
  4 17  2  0  0  0  0
  4  5  1  0  0  0  0
  5  6  2  0  0  0  0
  6  7  1  0  0  0  0
  6 24  1  0  0  0  0
  7  8  1  0  0  0  0
  7 17  1  0  0  0  0
  8 18  1  0  0  0  0
  8 15  1  0  0  0  0
  8  9  1  0  0  0  0
  9 10  1  0  0  0  0
 10 19  1  0  0  0  0
 10 11  1  0  0  0  0
 10 13  1  0  0  0  0
 11 12  1  0  0  0  0
 11 25  1  0  0  0  0
 11 26  1  0  0  0  0
 12 27  1  0  0  0  0
 13 20  1  0  0  0  0
 13 14  1  0  0  0  0
 13 15  1  0  0  0  0
 14 28  1  0  0  0  0
 15 21  1  0  0  0  0
 15 16  1  0  0  0  0
 16 29  1  0  0  0  0
M  END
> <s_m_source_file>
AV-unprocessed.smi

> <i_m_source_file_index>
160

> <i_lp_mmshare_version>
43012

> <i_f3d_flags>
0

> <s_epik_input>
W05IMl1DKD1PKWMxbltjSF1uKG4xKVtDQEBIXTJPW0NASF0oW0NIMl1bT0hdKVtDQEBIXShbT0hdKVtDQEhdMltPSF0=

> <s_epik_cmdline>
J2VwaWtfcHl0aG9uJywgJy1waCcsICc3LjAnLCAnLXRuJywgJzgnLCAnLW1hJywgJzIwMCcsICctbWV0YWxfYmluZGluZycsICctaW1hZScsICc8aW5maWxlLm1hZT4nLCAnLW9tYWUnLCAnPG91dGZpbGUubWFlPic=

> <r_lp_tautomer_probability>
1

> <r_epik_Ionization_Penalty>
1.06932e-05

> <r_epik_Ionization_Penalty_Charging>
0

> <r_epik_Ionization_Penalty_Neutral>
1.06932e-05

> <r_epik_State_Penalty>
-0

> <r_epik_Charging_Adjusted_Penalty>
0

> <i_epik_Tot_Q>
0

> <i_epik_Tot_abs_Q>
0

> <r_epik_Metal_State_Penalty>
0.0142097

> <b_epik_Metal_Only>
0

> <s_epik_Chemistry_Notes>
This compound contains an acetal/aminal-like group ( X-CH(R)-Y where X, Y are N, S, or O) that may be acid/base labile, releasing an aldehyde.

> <s_lp_Force_Field>
OPLS_2005

> <r_lp_Energy>
36.3531

> <b_lp_Chiralities_Consistent>
1

> <s_lp_Variant>
AV-unprocessed.smi:160-5

> <Gold.Version>
5.8.1

> <Gold.Id.Protein>
6NUR|6NUR_protein|mol2

> <Gold.PLP.Fitness>
37.3419

> <Gold.PLP.PLP>
-25.6651

> <Gold.PLP.part.hbond>
-4.1062

> <Gold.PLP.part.metal>
0.0000

> <Gold.PLP.part.buried>
-5.2942

> <Gold.PLP.part.nonpolar>
-16.9574

> <Gold.PLP.part.repulsive>
0.1662

> <Gold.PLP.ligand.clash>
0.0217

> <Gold.PLP.ligand.torsion>
0.1190

> <Gold.PLP.Chemscore.Hbond>
3.9600

> <Gold.PLP.Chemscore.CHOScore>
0.0000

> <Gold.PLP.Chemscore.Metal>
0.0000

> <Gold.Chemscore.Hbonds>
donor molecule, donor type, donor heavy atom, donor atom, acceptor molecule, acceptor atom, score
      L1  H    14    28       P1  7948  1.00
      P1  H  7989  7998       L1     9  1.00
      P1  H  7997  8008       L1    17  0.96
      P1  H 10752 10765       L1    16  0.83

> <Gold.PLP.Chemscore.Internal.Correction>
0.0565

> <Gold.Rescore>
     Score         DG    S(hbond)    S(metal)    S(lipo)     H(rot)  DE(clash)    DE(int)     intcor
      7.55      -8.86       3.27        0.00      24.46       4.06       0.12       1.18       ----

> <Gold.Chemscore.Fitness>
7.5542

> <Gold.Chemscore.DG>
-8.8592

> <Gold.Chemscore.ZeroCoef>
-5.4800

> <Gold.Chemscore.Hbond>
3.2667

> <Gold.Chemscore.Metal>
0.0000

> <Gold.Chemscore.Lipo>
24.4624

> <Gold.Chemscore.Internal_Hbond>
0.0000

> <Gold.Chemscore.DEClash>
0.1214

> <Gold.Chemscore.DEInternal>
1.1836

> <Gold.Chemscore.Rot>
4.0600

> <Gold.Chemscore.Internal.Correction>
   9.000000E+99

> <Gold.Chemscore.Hbonds>
donor molecule, donor type, donor heavy atom, donor atom, acceptor molecule, acceptor atom, score
      L1  H    14    28       P1  7948  0.85
      P1  H  7989  7998       L1     9  0.29
      P1  H  7997  8008       L1    17  0.65
      P1  H 10752 10765       L1    16  0.31

> <Gold.Chemscore.Hbond.Weighted>
-10.9107

> <Gold.Chemscore.Metal.Weighted>
-0.0000

> <Gold.Chemscore.Lipo.Weighted>
-2.8621

> <Gold.Chemscore.Internal_Hbond.Weighted>
0.0000

> <Gold.Chemscore.DEClash.Weighted>
0.1214

> <Gold.Chemscore.DEInternal.Weighted>
1.1836

> <Gold.Chemscore.Rot.Weighted>
10.3936

> <Gold.Chemscore.Internal.Correction.Weighted>
   9.000000E+99

> <Gold.Protein.RotatedTorsions>
[ 6907 6896 6895 6894 ] final   62.17 input  -60.11 | X-H torsion
[ 7974 7965 7964 7962 ] final   36.36 input  175.53 | X-H torsion
[ 8008 7997 7996 7995 ] final  -77.68 input   59.86 | X-H torsion
[ 10167 10162 10161 10158 ] final -175.22 input  -65.29 | X-H torsion
[ 10718 10713 10712 10709 ] final   61.66 input   66.30 | X-H torsion
[ 10763 10752 10751 10750 ] final -153.44 input  -60.55 | X-H torsion
[ 11005 11000 10999 10996 ] final  -83.39 input  -57.11 | X-H torsion

> <Gold.Protein.ActiveResidues>
 VAL166  LYS551  ARG553  GLY616  TRP617  ASP618  TYR619  PRO620  LYS621  CYS622 
 ASP623  PHE694  ASN695  SER759  ASP760  ASP761  ALA762  ILE779  LEU786  VAL792 
 PHE793  MET794  SER795  GLU796  ALA797  LYS798  CYS799  TRP800  GLU811  SER814 

> <Gold.Protein.RotatedAtoms>
  152.4150  134.6057  160.0012 H   0  0  0  0  0  0  0  0  0  0  0  0  # atno 6907 bound_to 6896
  151.6224  133.3332  159.3099 H   0  0  0  0  0  0  0  0  0  0  0  0  # atno 6908 bound_to 6896
  150.8039  134.7191  159.6692 H   0  0  0  0  0  0  0  0  0  0  0  0  # atno 6909 bound_to 6896
  146.1217  139.6027  142.9285 H   0  0  0  0  0  0  0  0  0  0  0  0  # atno 7974 bound_to 7965
  154.5619  140.0706  156.8832 H   0  0  0  0  0  0  0  0  0  0  0  0  # atno 8008 bound_to 7997
  155.2796  140.3371  155.4241 H   0  0  0  0  0  0  0  0  0  0  0  0  # atno 8009 bound_to 7997
  156.2049  140.1736  156.7807 H   0  0  0  0  0  0  0  0  0  0  0  0  # atno 8010 bound_to 7997
  139.5592  144.1912  152.1211 H   0  0  0  0  0  0  0  0  0  0  0  0  # atno 10167 bound_to 10162
  157.5844  130.9007  149.9488 H   0  0  0  0  0  0  0  0  0  0  0  0  # atno 10718 bound_to 10713
  154.7928  135.3213  154.7738 H   0  0  0  0  0  0  0  0  0  0  0  0  # atno 10763 bound_to 10752
  153.8423  135.6870  153.4806 H   0  0  0  0  0  0  0  0  0  0  0  0  # atno 10764 bound_to 10752
  153.1605  135.4662  154.9706 H   0  0  0  0  0  0  0  0  0  0  0  0  # atno 10765 bound_to 10752
  141.1658  133.7292  156.8712 H   0  0  0  0  0  0  0  0  0  0  0  0  # atno 11005 bound_to 11000
  145.5452  141.0418  143.2308 LP  0  0  0  0  0  0  0  0  0  0  0  0  # atno 17320 bound_to 7965
  144.7603  139.6973  143.7237 LP  0  0  0  0  0  0  0  0  0  0  0  0  # atno 17321 bound_to 7965
  140.1422  144.5191  150.6737 LP  0  0  0  0  0  0  0  0  0  0  0  0  # atno 17342 bound_to 10162
  140.6870  143.2355  151.5235 LP  0  0  0  0  0  0  0  0  0  0  0  0  # atno 17343 bound_to 10162
  156.0892  130.3665  150.0428 LP  0  0  0  0  0  0  0  0  0  0  0  0  # atno 17370 bound_to 10713
  156.8562  130.9476  151.3621 LP  0  0  0  0  0  0  0  0  0  0  0  0  # atno 17371 bound_to 10713
  140.1780  134.9053  157.2914 LP  0  0  0  0  0  0  0  0  0  0  0  0  # atno 17394 bound_to 11000
  140.2427  134.3776  155.7474 LP  0  0  0  0  0  0  0  0  0  0  0  0  # atno 17395 bound_to 11000

$$$$
