AV-unprocessed.smi:623|AV-procd|sdf|3094|dock3
  -GOLD-   22720 0 13D 1   1.00000     0.00000
 Structure written by MMmdl.
 45 47  0  0  0  0  0  0  0  0  1 V2000
  151.8233  138.3255  156.9976 C   0  0  0  0  0  0  0  0  0  0  0  0
  150.5445  138.8552  156.2892 C   0  0  0  0  0  0  0  0  0  0  0  0
  149.9334  139.8988  157.2657 C   0  0  0  0  0  0  0  0  0  0  0  0
  150.7934  139.3857  154.8632 C   0  0  1  0  0  0  0  0  0  0  0  0
  151.2574  138.1347  154.0823 C   0  0  0  0  0  0  0  0  0  0  0  0
  150.4347  137.0065  154.7354 C   0  0  0  0  0  0  0  0  0  0  0  0
  149.5596  137.7749  155.7642 C   0  0  1  0  0  0  0  0  0  0  0  0
  148.9457  136.8561  156.8349 C   0  0  0  0  0  0  0  0  0  0  0  0
  148.5047  138.6209  154.9784 C   0  0  2  0  0  0  0  0  0  0  0  0
  147.7929  137.8781  153.9401 N   0  0  0  0  0  0  0  0  0  0  0  0
  146.4840  137.5861  153.9462 C   0  0  0  0  0  0  0  0  0  0  0  0
  145.7029  137.9729  154.8152 O   0  0  0  0  0  0  0  0  0  0  0  0
  145.9854  136.7042  152.7985 C   0  0  0  0  0  0  0  0  0  0  0  0
  144.6475  136.1722  153.0898 N   0  0  0  0  0  0  0  0  0  0  0  0
  143.5193  136.9024  152.7432 C   0  0  0  0  0  0  0  0  0  0  0  0
  142.2544  136.4693  152.9568 C   0  0  0  0  0  0  0  0  0  0  0  0
  142.0137  135.1734  153.5815 C   0  0  0  0  0  0  0  0  0  0  0  0
  140.9067  134.6951  153.8189 O   0  0  0  0  0  0  0  0  0  0  0  0
  143.1727  134.4672  153.9130 N   0  0  0  0  0  0  0  0  0  0  0  0
  144.4792  134.9067  153.6936 C   0  0  0  0  0  0  0  0  0  0  0  0
  145.4311  134.1994  154.0210 O   0  0  0  0  0  0  0  0  0  0  0  0
  149.3778  139.7339  154.3548 C   0  0  0  0  0  0  0  0  0  0  0  0
  143.0556  133.5625  154.3457 H   0  0  0  0  0  0  0  0  0  0  0  0
  152.5079  139.1466  157.2127 H   0  0  0  0  0  0  0  0  0  0  0  0
  152.3957  137.5929  156.4334 H   0  0  0  0  0  0  0  0  0  0  0  0
  151.5747  137.8597  157.9514 H   0  0  0  0  0  0  0  0  0  0  0  0
  149.0148  140.3709  156.9252 H   0  0  0  0  0  0  0  0  0  0  0  0
  150.6411  140.7060  157.4567 H   0  0  0  0  0  0  0  0  0  0  0  0
  149.7050  139.4398  158.2280 H   0  0  0  0  0  0  0  0  0  0  0  0
  151.4922  140.2201  154.7972 H   0  0  0  0  0  0  0  0  0  0  0  0
  151.0612  138.2188  153.0128 H   0  0  0  0  0  0  0  0  0  0  0  0
  152.3275  137.9609  154.1980 H   0  0  0  0  0  0  0  0  0  0  0  0
  149.8635  136.4327  154.0060 H   0  0  0  0  0  0  0  0  0  0  0  0
  151.0874  136.2860  155.2283 H   0  0  0  0  0  0  0  0  0  0  0  0
  148.3137  136.0927  156.3811 H   0  0  0  0  0  0  0  0  0  0  0  0
  148.3301  137.4193  157.5366 H   0  0  0  0  0  0  0  0  0  0  0  0
  149.7162  136.3406  157.4079 H   0  0  0  0  0  0  0  0  0  0  0  0
  147.7766  139.0662  155.6582 H   0  0  0  0  0  0  0  0  0  0  0  0
  148.3518  137.5176  153.1806 H   0  0  0  0  0  0  0  0  0  0  0  0
  145.9860  137.2779  151.8697 H   0  0  0  0  0  0  0  0  0  0  0  0
  146.6922  135.8898  152.6296 H   0  0  0  0  0  0  0  0  0  0  0  0
  143.6500  137.8665  152.2722 H   0  0  0  0  0  0  0  0  0  0  0  0
  141.4163  137.0844  152.6627 H   0  0  0  0  0  0  0  0  0  0  0  0
  149.0631  140.7194  154.6991 H   0  0  0  0  0  0  0  0  0  0  0  0
  149.3312  139.7562  153.2650 H   0  0  0  0  0  0  0  0  0  0  0  0
  1  2  1  0  0  0  0
  1 24  1  0  0  0  0
  1 25  1  0  0  0  0
  1 26  1  0  0  0  0
  2  7  1  0  0  0  0
  2  3  1  0  0  0  0
  2  4  1  0  0  0  0
  3 27  1  0  0  0  0
  3 28  1  0  0  0  0
  3 29  1  0  0  0  0
  4 22  1  0  0  0  0
  4  5  1  0  0  0  0
  4 30  1  0  0  0  0
  5  6  1  0  0  0  0
  5 31  1  0  0  0  0
  5 32  1  0  0  0  0
  6  7  1  0  0  0  0
  6 33  1  0  0  0  0
  6 34  1  0  0  0  0
  7  8  1  0  0  0  0
  7  9  1  0  0  0  0
  8 35  1  0  0  0  0
  8 36  1  0  0  0  0
  8 37  1  0  0  0  0
  9 10  1  0  0  0  0
  9 22  1  0  0  0  0
  9 38  1  0  0  0  0
 10 11  1  0  0  0  0
 10 39  1  0  0  0  0
 11 12  2  0  0  0  0
 11 13  1  0  0  0  0
 13 14  1  0  0  0  0
 13 40  1  0  0  0  0
 13 41  1  0  0  0  0
 14 20  1  0  0  0  0
 14 15  1  0  0  0  0
 15 16  2  0  0  0  0
 15 42  1  0  0  0  0
 16 17  1  0  0  0  0
 16 43  1  0  0  0  0
 17 18  2  0  0  0  0
 17 19  1  0  0  0  0
 19 23  1  0  0  0  0
 19 20  1  0  0  0  0
 20 21  2  0  0  0  0
 22 44  1  0  0  0  0
 22 45  1  0  0  0  0
M  END
> <s_m_source_file>
AV-unprocessed.smi

> <i_m_source_file_index>
623

> <i_lp_mmshare_version>
43012

> <i_f3d_flags>
0

> <s_epik_input>
W0NIM11bQ0BdMTJDKFtDSDNdKShbQ0gzXSlbQ0BIXShbQ0gyXVtDSDJdMSlbQ0gyXVtDQEBIXTJbTkhdQyg9TylbQ0gyXW4zW2NIXVtjSF1jKD1PKVtuSF1jMz1P

> <s_epik_cmdline>
J2VwaWtfcHl0aG9uJywgJy1waCcsICc3LjAnLCAnLXRuJywgJzgnLCAnLW1hJywgJzIwMCcsICctbWV0YWxfYmluZGluZycsICctaW1hZScsICc8aW5maWxlLm1hZT4nLCAnLW9tYWUnLCAnPG91dGZpbGUubWFlPic=

> <r_lp_tautomer_probability>
0.999537

> <r_epik_Ionization_Penalty>
0.00303563

> <r_epik_Ionization_Penalty_Charging>
0.00303561

> <r_epik_Ionization_Penalty_Neutral>
2.03238e-08

> <r_epik_State_Penalty>
0.00213308

> <r_epik_Charging_Adjusted_Penalty>
0.00516869

> <i_epik_Tot_Q>
0

> <i_epik_Tot_abs_Q>
0

> <r_epik_Metal_State_Penalty>
0.361714

> <b_epik_Metal_Only>
0

> <s_lp_Force_Field>
OPLS_2005

> <r_lp_Energy>
57.3757

> <b_lp_Chiralities_Consistent>
1

> <s_lp_Variant>
AV-unprocessed.smi:623-4

> <Gold.Version>
5.8.1

> <Gold.Id.Protein>
6NUR|6NUR_protein|mol2

> <Gold.PLP.Fitness>
40.0089

> <Gold.PLP.PLP>
-26.2268

> <Gold.PLP.part.hbond>
-3.7993

> <Gold.PLP.part.metal>
0.0000

> <Gold.PLP.part.buried>
-4.3419

> <Gold.PLP.part.nonpolar>
-17.7487

> <Gold.PLP.part.repulsive>
0.3528

> <Gold.PLP.ligand.clash>
0.0000

> <Gold.PLP.ligand.torsion>
0.6181

> <Gold.PLP.Chemscore.Hbond>
3.0000

> <Gold.PLP.Chemscore.CHOScore>
2.0000

> <Gold.PLP.Chemscore.Metal>
0.0000

> <Gold.Chemscore.Hbonds>
donor molecule, donor type, donor heavy atom, donor atom, acceptor molecule, acceptor atom, score
      L1  H    10    39       P1  7948  1.00
      L1  H    19    23       P1 10957  1.00
      P1  H 11000 11005       L1    18  1.00
      L1  C    15    42       P1 10171  0.93
      L1  C    15    42       P1 10175  0.90

> <Gold.PLP.Chemscore.Internal.Correction>
0.0183

> <Gold.Rescore>
     Score         DG    S(hbond)    S(metal)    S(lipo)     H(rot)  DE(clash)    DE(int)     intcor
     17.53     -18.19       2.97        0.00      60.23       1.66       0.01       0.65       ----

> <Gold.Chemscore.Fitness>
17.5279

> <Gold.Chemscore.DG>
-18.1875

> <Gold.Chemscore.ZeroCoef>
-5.4800

> <Gold.Chemscore.Hbond>
2.9707

> <Gold.Chemscore.Metal>
0.0000

> <Gold.Chemscore.Lipo>
60.2296

> <Gold.Chemscore.Internal_Hbond>
0.0000

> <Gold.Chemscore.DEClash>
0.0076

> <Gold.Chemscore.DEInternal>
0.6520

> <Gold.Chemscore.Rot>
1.6647

> <Gold.Chemscore.Internal.Correction>
   9.000000E+99

> <Gold.Chemscore.Hbonds>
donor molecule, donor type, donor heavy atom, donor atom, acceptor molecule, acceptor atom, score
      L1  H    10    39       P1  7948  0.99
      L1  H    19    23       P1 10957  1.00
      P1  H 11000 11005       L1    18  0.93

> <Gold.Chemscore.Hbond.Weighted>
-9.9223

> <Gold.Chemscore.Metal.Weighted>
-0.0000

> <Gold.Chemscore.Lipo.Weighted>
-7.0469

> <Gold.Chemscore.Internal_Hbond.Weighted>
0.0000

> <Gold.Chemscore.DEClash.Weighted>
0.0076

> <Gold.Chemscore.DEInternal.Weighted>
0.6520

> <Gold.Chemscore.Rot.Weighted>
4.2617

> <Gold.Chemscore.Internal.Correction.Weighted>
   9.000000E+99

> <Gold.Protein.RotatedTorsions>
[ 6907 6896 6895 6894 ] final  174.92 input  -60.11 | X-H torsion
[ 7974 7965 7964 7962 ] final  -12.69 input  175.53 | X-H torsion
[ 8008 7997 7996 7995 ] final   83.47 input   59.86 | X-H torsion
[ 10167 10162 10161 10158 ] final    4.82 input  -65.29 | X-H torsion
[ 10718 10713 10712 10709 ] final   47.80 input   66.30 | X-H torsion
[ 10763 10752 10751 10750 ] final -119.43 input  -60.55 | X-H torsion
[ 11005 11000 10999 10996 ] final   19.66 input  -57.11 | X-H torsion

> <Gold.Protein.ActiveResidues>
 VAL166  LYS551  ARG553  GLY616  TRP617  ASP618  TYR619  PRO620  LYS621  CYS622 
 ASP623  PHE694  ASN695  SER759  ASP760  ASP761  ALA762  ILE779  LEU786  VAL792 
 PHE793  MET794  SER795  GLU796  ALA797  LYS798  CYS799  TRP800  GLU811  SER814 

> <Gold.Protein.RotatedAtoms>
  151.7446  133.3324  159.3374 H   0  0  0  0  0  0  0  0  0  0  0  0  # atno 6907 bound_to 6896
  150.7559  134.6247  159.6164 H   0  0  0  0  0  0  0  0  0  0  0  0  # atno 6908 bound_to 6896
  152.3508  134.7010  160.0288 H   0  0  0  0  0  0  0  0  0  0  0  0  # atno 6909 bound_to 6896
  146.2143  140.3094  142.8381 H   0  0  0  0  0  0  0  0  0  0  0  0  # atno 7974 bound_to 7965
  155.9243  140.3419  155.6198 H   0  0  0  0  0  0  0  0  0  0  0  0  # atno 8008 bound_to 7997
  155.7235  140.0786  157.2339 H   0  0  0  0  0  0  0  0  0  0  0  0  # atno 8009 bound_to 7997
  154.4074  140.1601  156.2416 H   0  0  0  0  0  0  0  0  0  0  0  0  # atno 8010 bound_to 7997
  140.6515  143.7533  150.7582 H   0  0  0  0  0  0  0  0  0  0  0  0  # atno 10167 bound_to 10162
  157.4621  130.8203  149.7898 H   0  0  0  0  0  0  0  0  0  0  0  0  # atno 10718 bound_to 10713
  154.8617  135.4239  154.2297 H   0  0  0  0  0  0  0  0  0  0  0  0  # atno 10763 bound_to 10752
  153.3285  135.6986  153.6974 H   0  0  0  0  0  0  0  0  0  0  0  0  # atno 10764 bound_to 10752
  153.6001  135.3538  155.2915 H   0  0  0  0  0  0  0  0  0  0  0  0  # atno 10765 bound_to 10752
  140.4112  134.1616  155.7667 H   0  0  0  0  0  0  0  0  0  0  0  0  # atno 11005 bound_to 11000
  144.8999  140.7630  143.5873 LP  0  0  0  0  0  0  0  0  0  0  0  0  # atno 17320 bound_to 7965
  145.3019  139.1847  143.4685 LP  0  0  0  0  0  0  0  0  0  0  0  0  # atno 17321 bound_to 7965
  140.1185  143.4634  152.2327 LP  0  0  0  0  0  0  0  0  0  0  0  0  # atno 17342 bound_to 10162
  139.5731  144.7473  151.3838 LP  0  0  0  0  0  0  0  0  0  0  0  0  # atno 17343 bound_to 10162
  156.0033  130.3868  150.2522 LP  0  0  0  0  0  0  0  0  0  0  0  0  # atno 17370 bound_to 10713
  157.0700  131.0114  151.3193 LP  0  0  0  0  0  0  0  0  0  0  0  0  # atno 17371 bound_to 10713
  141.1820  133.8393  157.1223 LP  0  0  0  0  0  0  0  0  0  0  0  0  # atno 17394 bound_to 11000
  140.0266  134.9921  157.0698 LP  0  0  0  0  0  0  0  0  0  0  0  0  # atno 17395 bound_to 11000

$$$$
