AV-unprocessed.smi:794|AV-procd|sdf|3756|dock4
  -GOLD-   22720 1193D 1   1.00000     0.00000
 Structure written by MMmdl.
 41 43  0  0  0  0  0  0  0  0  1 V2000
  142.4829  142.8133  159.9983 C   0  0  0  0  0  0  0  0  0  0  0  0
  143.3099  144.0155  159.6603 C   0  0  0  0  0  0  0  0  0  0  0  0
  144.7031  143.9428  159.7496 N   0  0  0  0  0  0  0  0  0  0  0  0
  145.2929  145.0952  159.4163 C   0  0  0  0  0  0  0  0  0  0  0  0
  146.6964  145.3071  159.4177 N   0  0  0  0  0  0  0  0  0  0  0  0
  147.6740  144.3970  159.5716 C   0  0  0  0  0  0  0  0  0  0  0  0
  147.5008  143.1896  159.7408 O   0  0  0  0  0  0  0  0  0  0  0  0
  148.8830  144.9734  159.5165 N   0  0  0  0  0  0  0  0  0  0  0  0
  150.1606  144.2710  159.6166 C   0  0  2  0  0  0  0  0  0  0  0  0
  150.8914  144.6585  160.9212 C   0  0  1  0  0  0  0  0  0  0  0  0
  152.0080  143.6323  161.1844 C   0  0  0  0  0  0  0  0  0  0  0  0
  153.0465  143.9867  160.1034 C   0  0  0  0  0  0  0  0  0  0  0  0
  152.3847  145.1678  159.3604 C   0  0  2  0  0  0  0  0  0  0  0  0
  151.6959  145.8891  160.5120 C   0  0  0  0  0  0  0  0  0  0  0  0
  151.1660  144.7137  158.5218 C   0  0  1  0  0  0  0  0  0  0  0  0
  151.4729  143.6478  157.4523 C   0  0  0  0  0  0  0  0  0  0  0  0
  152.2634  144.2050  156.4244 O   0  0  0  0  0  0  0  0  0  0  0  0
  144.1623  146.3603  158.9675 S   0  0  0  0  0  0  0  0  0  0  0  0
  142.8483  145.2459  159.2527 C   0  0  0  0  0  0  0  0  0  0  0  0
  141.4301  145.6658  159.0536 C   0  0  0  0  0  0  0  0  0  0  0  0
  141.7612  143.0418  160.7826 H   0  0  0  0  0  0  0  0  0  0  0  0
  143.0987  141.9851  160.3504 H   0  0  0  0  0  0  0  0  0  0  0  0
  141.9271  142.4632  159.1285 H   0  0  0  0  0  0  0  0  0  0  0  0
  146.9903  146.2630  159.2818 H   0  0  0  0  0  0  0  0  0  0  0  0
  148.9267  145.9723  159.3780 H   0  0  0  0  0  0  0  0  0  0  0  0
  149.9925  143.1923  159.5967 H   0  0  0  0  0  0  0  0  0  0  0  0
  150.2298  144.8015  161.7764 H   0  0  0  0  0  0  0  0  0  0  0  0
  152.4321  143.7657  162.1805 H   0  0  0  0  0  0  0  0  0  0  0  0
  151.6580  142.6022  161.1064 H   0  0  0  0  0  0  0  0  0  0  0  0
  153.9796  144.3058  160.5696 H   0  0  0  0  0  0  0  0  0  0  0  0
  153.2828  143.1450  159.4535 H   0  0  0  0  0  0  0  0  0  0  0  0
  153.0920  145.7805  158.8006 H   0  0  0  0  0  0  0  0  0  0  0  0
  151.0756  146.7279  160.1917 H   0  0  0  0  0  0  0  0  0  0  0  0
  152.3860  146.2321  161.2852 H   0  0  0  0  0  0  0  0  0  0  0  0
  150.7872  145.6012  158.0101 H   0  0  0  0  0  0  0  0  0  0  0  0
  152.0218  142.8153  157.8930 H   0  0  0  0  0  0  0  0  0  0  0  0
  150.5607  143.2429  157.0142 H   0  0  0  0  0  0  0  0  0  0  0  0
  152.0624  145.1257  156.3537 H   0  0  0  0  0  0  0  0  0  0  0  0
  140.9352  145.0233  158.3250 H   0  0  0  0  0  0  0  0  0  0  0  0
  141.3681  146.6926  158.6925 H   0  0  0  0  0  0  0  0  0  0  0  0
  140.8750  145.6047  159.9897 H   0  0  0  0  0  0  0  0  0  0  0  0
  1  2  1  0  0  0  0
  1 21  1  0  0  0  0
  1 22  1  0  0  0  0
  1 23  1  0  0  0  0
  2 19  2  0  0  0  0
  2  3  1  0  0  0  0
  3  4  2  0  0  0  0
  4  5  1  0  0  0  0
  4 18  1  0  0  0  0
  5  6  1  0  0  0  0
  5 24  1  0  0  0  0
  6  7  2  0  0  0  0
  6  8  1  0  0  0  0
  8  9  1  0  0  0  0
  8 25  1  0  0  0  0
  9 15  1  0  0  0  0
  9 10  1  0  0  0  0
  9 26  1  0  0  0  0
 10 14  1  0  0  0  0
 10 11  1  0  0  0  0
 10 27  1  0  0  0  0
 11 12  1  0  0  0  0
 11 28  1  0  0  0  0
 11 29  1  0  0  0  0
 12 13  1  0  0  0  0
 12 30  1  0  0  0  0
 12 31  1  0  0  0  0
 13 14  1  0  0  0  0
 13 15  1  0  0  0  0
 13 32  1  0  0  0  0
 14 33  1  0  0  0  0
 14 34  1  0  0  0  0
 15 16  1  0  0  0  0
 15 35  1  0  0  0  0
 16 17  1  0  0  0  0
 16 36  1  0  0  0  0
 16 37  1  0  0  0  0
 17 38  1  0  0  0  0
 18 19  1  0  0  0  0
 19 20  1  0  0  0  0
 20 39  1  0  0  0  0
 20 40  1  0  0  0  0
 20 41  1  0  0  0  0
M  END
> <s_m_source_file>
AV-unprocessed.smi

> <i_m_source_file_index>
794

> <i_lp_mmshare_version>
43012

> <i_f3d_flags>
0

> <s_epik_input>
W0NIM11jMW5jKHNjMVtDSDNdKVtOSF1DKD1PKVtOSF1bQ0BIXShbQ0BASF0yMylbQ0BIXShbQ0gyXVtPSF0pW0NAQEhdKFtDSDJdMylbQ0gyXVtDSDJdMg==

> <s_epik_cmdline>
J2VwaWtfcHl0aG9uJywgJy1waCcsICc3LjAnLCAnLXRuJywgJzgnLCAnLW1hJywgJzIwMCcsICctbWV0YWxfYmluZGluZycsICctaW1hZScsICc8aW5maWxlLm1hZT4nLCAnLW9tYWUnLCAnPG91dGZpbGUubWFlPic=

> <r_lp_tautomer_probability>
0.999

> <r_epik_Ionization_Penalty>
0.000713029

> <r_epik_Ionization_Penalty_Charging>
0

> <r_epik_Ionization_Penalty_Neutral>
0.000713029

> <r_epik_State_Penalty>
0.000177984

> <r_epik_Charging_Adjusted_Penalty>
0.000177984

> <i_epik_Tot_Q>
0

> <i_epik_Tot_abs_Q>
0

> <r_epik_Metal_State_Penalty>
-0

> <b_epik_Metal_Only>
0

> <s_lp_Force_Field>
OPLS_2005

> <r_lp_Energy>
47.5891

> <b_lp_Chiralities_Consistent>
1

> <s_lp_Variant>
AV-unprocessed.smi:794-1

> <Gold.Version>
5.8.1

> <Gold.Id.Protein>
6NUR|6NUR_protein|mol2

> <Gold.PLP.Fitness>
42.7111

> <Gold.PLP.PLP>
-34.1668

> <Gold.PLP.part.hbond>
-3.0000

> <Gold.PLP.part.metal>
0.0000

> <Gold.PLP.part.buried>
-4.4772

> <Gold.PLP.part.nonpolar>
-27.7767

> <Gold.PLP.part.repulsive>
0.3187

> <Gold.PLP.ligand.clash>
0.0000

> <Gold.PLP.ligand.torsion>
0.1542

> <Gold.PLP.Chemscore.Hbond>
2.9440

> <Gold.PLP.Chemscore.CHOScore>
0.0000

> <Gold.PLP.Chemscore.Metal>
0.0000

> <Gold.Chemscore.Hbonds>
donor molecule, donor type, donor heavy atom, donor atom, acceptor molecule, acceptor atom, score
      P1  H  6933  6944       L1     7  0.67

> <Gold.PLP.Chemscore.Internal.Correction>
0.0206

> <Gold.Rescore>
     Score         DG    S(hbond)    S(metal)    S(lipo)     H(rot)  DE(clash)    DE(int)     intcor
     22.38     -23.91       3.45        0.00      97.83       1.78       0.04       1.48       ----

> <Gold.Chemscore.Fitness>
22.3844

> <Gold.Chemscore.DG>
-23.9081

> <Gold.Chemscore.ZeroCoef>
-5.4800

> <Gold.Chemscore.Hbond>
3.4546

> <Gold.Chemscore.Metal>
0.0000

> <Gold.Chemscore.Lipo>
97.8293

> <Gold.Chemscore.Internal_Hbond>
0.0000

> <Gold.Chemscore.DEClash>
0.0396

> <Gold.Chemscore.DEInternal>
1.4841

> <Gold.Chemscore.Rot>
1.7798

> <Gold.Chemscore.Internal.Correction>
   9.000000E+99

> <Gold.Chemscore.Hbonds>
donor molecule, donor type, donor heavy atom, donor atom, acceptor molecule, acceptor atom, score
      L1  H     5    24       P1  8029  0.02
      L1  H     8    25       P1  8029  0.01
      P1  H  6933  6944       L1     7  0.61

> <Gold.Chemscore.Hbond.Weighted>
-11.5383

> <Gold.Chemscore.Metal.Weighted>
-0.0000

> <Gold.Chemscore.Lipo.Weighted>
-11.4460

> <Gold.Chemscore.Internal_Hbond.Weighted>
0.0000

> <Gold.Chemscore.DEClash.Weighted>
0.0396

> <Gold.Chemscore.DEInternal.Weighted>
1.4841

> <Gold.Chemscore.Rot.Weighted>
4.5562

> <Gold.Chemscore.Internal.Correction.Weighted>
   9.000000E+99

> <Gold.Protein.RotatedTorsions>
[ 6907 6896 6895 6894 ] final   14.38 input  -60.11 | X-H torsion
[ 7974 7965 7964 7962 ] final -112.21 input  175.53 | X-H torsion
[ 8008 7997 7996 7995 ] final   46.30 input   59.86 | X-H torsion
[ 10167 10162 10161 10158 ] final  -88.90 input  -65.29 | X-H torsion
[ 10718 10713 10712 10709 ] final  -81.94 input   66.30 | X-H torsion
[ 10763 10752 10751 10750 ] final -132.89 input  -60.55 | X-H torsion
[ 11005 11000 10999 10996 ] final -137.39 input  -57.11 | X-H torsion

> <Gold.Protein.ActiveResidues>
 VAL166  LYS551  ARG553  GLY616  TRP617  ASP618  TYR619  PRO620  LYS621  CYS622 
 ASP623  PHE694  ASN695  SER759  ASP760  ASP761  ALA762  ILE779  LEU786  VAL792 
 PHE793  MET794  SER795  GLU796  ALA797  LYS798  CYS799  TRP800  GLU811  SER814 

> <Gold.Protein.RotatedAtoms>
  151.8013  135.0708  160.0400 H   0  0  0  0  0  0  0  0  0  0  0  0  # atno 6907 bound_to 6896
  152.3086  133.5725  159.5674 H   0  0  0  0  0  0  0  0  0  0  0  0  # atno 6908 bound_to 6896
  150.7309  134.0101  159.3709 H   0  0  0  0  0  0  0  0  0  0  0  0  # atno 6909 bound_to 6896
  145.1467  140.8807  143.3670 H   0  0  0  0  0  0  0  0  0  0  0  0  # atno 7974 bound_to 7965
  155.3501  140.3413  155.4239 H   0  0  0  0  0  0  0  0  0  0  0  0  # atno 8008 bound_to 7997
  156.1768  140.1650  156.8383 H   0  0  0  0  0  0  0  0  0  0  0  0  # atno 8009 bound_to 7997
  154.5291  140.0749  156.8295 H   0  0  0  0  0  0  0  0  0  0  0  0  # atno 8010 bound_to 7997
  140.3701  143.2798  151.9510 H   0  0  0  0  0  0  0  0  0  0  0  0  # atno 10167 bound_to 10162
  156.0041  130.4619  150.4030 H   0  0  0  0  0  0  0  0  0  0  0  0  # atno 10718 bound_to 10713
  154.8738  135.3783  154.4484 H   0  0  0  0  0  0  0  0  0  0  0  0  # atno 10763 bound_to 10752
  153.5162  135.7029  153.5760 H   0  0  0  0  0  0  0  0  0  0  0  0  # atno 10764 bound_to 10752
  153.4027  135.3944  155.1964 H   0  0  0  0  0  0  0  0  0  0  0  0  # atno 10765 bound_to 10752
  140.8716  134.2044  157.4647 H   0  0  0  0  0  0  0  0  0  0  0  0  # atno 11005 bound_to 11000
  145.0474  139.3210  143.5946 LP  0  0  0  0  0  0  0  0  0  0  0  0  # atno 17320 bound_to 7965
  146.3499  139.9870  142.8689 LP  0  0  0  0  0  0  0  0  0  0  0  0  # atno 17321 bound_to 7965
  139.4804  144.5914  151.7764 LP  0  0  0  0  0  0  0  0  0  0  0  0  # atno 17342 bound_to 10162
  140.5041  144.1124  150.5978 LP  0  0  0  0  0  0  0  0  0  0  0  0  # atno 17343 bound_to 10162
  157.2097  131.0457  151.2606 LP  0  0  0  0  0  0  0  0  0  0  0  0  # atno 17370 bound_to 10713
  157.3900  130.7277  149.6690 LP  0  0  0  0  0  0  0  0  0  0  0  0  # atno 17371 bound_to 10713
  139.8712  134.9776  156.4967 LP  0  0  0  0  0  0  0  0  0  0  0  0  # atno 17394 bound_to 11000
  140.8567  133.8091  155.9223 LP  0  0  0  0  0  0  0  0  0  0  0  0  # atno 17395 bound_to 11000

$$$$
