AV-unprocessed.smi:2289|AV-procd|sdf|9209|dock1
  -GOLD-   2272012423D 1   1.00000     0.00000
 Structure written by MMmdl.
 40 41  0  0  0  0  0  0  0  0  1 V2000
  150.6250  135.4896  154.5767 C   0  0  0  0  0  0  0  0  0  0  0  0
  150.3021  136.7728  155.3215 C   0  0  0  0  0  0  0  0  0  0  0  0
  150.5158  137.9554  154.6077 N   0  0  0  0  0  0  0  0  0  0  0  0
  150.2645  139.0962  155.1614 C   0  0  0  0  0  0  0  0  0  0  0  0
  149.7774  139.1889  156.4762 N   0  0  0  0  0  0  0  0  0  0  0  0
  149.5200  140.5482  156.9827 C   0  0  0  0  0  0  0  0  0  0  0  0
  150.3887  141.6096  156.2694 C   0  0  1  0  0  0  0  0  0  0  0  0
  149.6028  142.2417  155.2798 O   0  0  0  0  0  0  0  0  0  0  0  0
  150.8824  142.6949  157.2499 C   0  0  0  0  0  0  0  0  0  0  0  0
  151.7609  142.1437  158.3698 C   0  0  0  0  0  0  0  0  0  0  0  0
  152.2399  140.8213  158.2354 C   0  0  0  0  0  0  0  0  0  0  0  0
  153.0556  140.2446  159.2245 C   0  0  0  0  0  0  0  0  0  0  0  0
  153.3975  140.9877  160.3661 C   0  0  0  0  0  0  0  0  0  0  0  0
  152.9195  142.3022  160.5168 C   0  0  0  0  0  0  0  0  0  0  0  0
  152.0973  142.8972  159.5301 C   0  0  0  0  0  0  0  0  0  0  0  0
  151.5859  144.3220  159.7492 C   0  0  0  0  0  0  0  0  0  0  0  0
  151.9881  144.8176  160.9203 F   0  0  0  0  0  0  0  0  0  0  0  0
  152.0377  145.1341  158.7945 F   0  0  0  0  0  0  0  0  0  0  0  0
  150.2528  144.3328  159.7426 F   0  0  0  0  0  0  0  0  0  0  0  0
  149.5392  138.0846  157.2414 C   0  0  0  0  0  0  0  0  0  0  0  0
  149.1072  138.1730  158.3919 O   0  0  0  0  0  0  0  0  0  0  0  0
  149.8326  136.7930  156.5990 C   0  0  0  0  0  0  0  0  0  0  0  0
  149.5806  135.5372  157.4245 C   0  0  0  0  0  0  0  0  0  0  0  0
  151.4231  134.9453  155.0820 H   0  0  0  0  0  0  0  0  0  0  0  0
  150.9528  135.6939  153.5568 H   0  0  0  0  0  0  0  0  0  0  0  0
  149.7453  134.8477  154.5212 H   0  0  0  0  0  0  0  0  0  0  0  0
  150.4080  140.0481  154.6467 H   0  0  0  0  0  0  0  0  0  0  0  0
  148.4627  140.8136  156.9219 H   0  0  0  0  0  0  0  0  0  0  0  0
  149.7329  140.5632  158.0535 H   0  0  0  0  0  0  0  0  0  0  0  0
  151.2434  141.1260  155.7956 H   0  0  0  0  0  0  0  0  0  0  0  0
  149.3899  143.1141  155.5744 H   0  0  0  0  0  0  0  0  0  0  0  0
  151.3585  143.5068  156.7037 H   0  0  0  0  0  0  0  0  0  0  0  0
  150.0207  143.1512  157.7387 H   0  0  0  0  0  0  0  0  0  0  0  0
  151.9809  140.2393  157.3629 H   0  0  0  0  0  0  0  0  0  0  0  0
  153.4170  139.2335  159.1074 H   0  0  0  0  0  0  0  0  0  0  0  0
  154.0231  140.5488  161.1293 H   0  0  0  0  0  0  0  0  0  0  0  0
  153.1926  142.8464  161.4085 H   0  0  0  0  0  0  0  0  0  0  0  0
  148.5242  135.4649  157.6842 H   0  0  0  0  0  0  0  0  0  0  0  0
  150.1547  135.5740  158.3507 H   0  0  0  0  0  0  0  0  0  0  0  0
  149.8562  134.6197  156.9073 H   0  0  0  0  0  0  0  0  0  0  0  0
  1  2  1  0  0  0  0
  1 24  1  0  0  0  0
  1 25  1  0  0  0  0
  1 26  1  0  0  0  0
  2 22  2  0  0  0  0
  2  3  1  0  0  0  0
  3  4  2  0  0  0  0
  4  5  1  0  0  0  0
  4 27  1  0  0  0  0
  5  6  1  0  0  0  0
  5 20  1  0  0  0  0
  6  7  1  0  0  0  0
  6 28  1  0  0  0  0
  6 29  1  0  0  0  0
  7  8  1  0  0  0  0
  7  9  1  0  0  0  0
  7 30  1  0  0  0  0
  8 31  1  0  0  0  0
  9 10  1  0  0  0  0
  9 32  1  0  0  0  0
  9 33  1  0  0  0  0
 10 15  1  0  0  0  0
 10 11  2  0  0  0  0
 11 12  1  0  0  0  0
 11 34  1  0  0  0  0
 12 13  2  0  0  0  0
 12 35  1  0  0  0  0
 13 14  1  0  0  0  0
 13 36  1  0  0  0  0
 14 15  2  0  0  0  0
 14 37  1  0  0  0  0
 15 16  1  0  0  0  0
 16 17  1  0  0  0  0
 16 18  1  0  0  0  0
 16 19  1  0  0  0  0
 20 21  2  0  0  0  0
 20 22  1  0  0  0  0
 22 23  1  0  0  0  0
 23 38  1  0  0  0  0
 23 39  1  0  0  0  0
 23 40  1  0  0  0  0
M  END
> <s_m_source_file>
AV-unprocessed.smi

> <i_m_source_file_index>
2289

> <i_lp_mmshare_version>
43012

> <i_f3d_flags>
0

> <s_epik_input>
W0NIM11jMW5bY0hdbihjKD1PKWMxW0NIM10pW0NIMl1bQ0BIXShbT0hdKVtDSDJdYzJbY0hdW2NIXVtjSF1bY0hdYzJDKEYpKEYpRg==

> <s_epik_cmdline>
J2VwaWtfcHl0aG9uJywgJy1waCcsICc3LjAnLCAnLXRuJywgJzgnLCAnLW1hJywgJzIwMCcsICctbWV0YWxfYmluZGluZycsICctaW1hZScsICc8aW5maWxlLm1hZT4nLCAnLW9tYWUnLCAnPG91dGZpbGUubWFlPic=

> <r_lp_tautomer_probability>
1

> <r_epik_Ionization_Penalty>
8.92636e-05

> <r_epik_Ionization_Penalty_Charging>
8.63033e-08

> <r_epik_Ionization_Penalty_Neutral>
8.91773e-05

> <r_epik_State_Penalty>
-0

> <r_epik_Charging_Adjusted_Penalty>
8.63033e-08

> <i_epik_Tot_Q>
0

> <i_epik_Tot_abs_Q>
0

> <r_epik_Metal_State_Penalty>
-0

> <b_epik_Metal_Only>
0

> <s_lp_Force_Field>
OPLS_2005

> <r_lp_Energy>
23.2294

> <b_lp_Chiralities_Consistent>
1

> <s_lp_Variant>
AV-unprocessed.smi:2289-2

> <Gold.Version>
5.8.1

> <Gold.Id.Protein>
6NUR|6NUR_protein|mol2

> <Gold.PLP.Fitness>
46.2532

> <Gold.PLP.PLP>
-45.1902

> <Gold.PLP.part.hbond>
-1.0131

> <Gold.PLP.part.metal>
0.0000

> <Gold.PLP.part.buried>
-6.7667

> <Gold.PLP.part.nonpolar>
-36.9828

> <Gold.PLP.part.repulsive>
0.1705

> <Gold.PLP.ligand.clash>
1.3706

> <Gold.PLP.ligand.torsion>
1.0631

> <Gold.PLP.Chemscore.Hbond>
1.0000

> <Gold.PLP.Chemscore.CHOScore>
0.0000

> <Gold.PLP.Chemscore.Metal>
0.0000

> <Gold.Chemscore.Hbonds>
donor molecule, donor type, donor heavy atom, donor atom, acceptor molecule, acceptor atom, score
      L1  H     8    31       P1  8028  1.00

> <Gold.PLP.Chemscore.Internal.Correction>
1.5598

> <Gold.Rescore>
     Score         DG    S(hbond)    S(metal)    S(lipo)     H(rot)  DE(clash)    DE(int)     intcor
     12.50     -14.57       1.00        0.00     101.04       2.37       0.06       2.01       ----

> <Gold.Chemscore.Fitness>
12.4978

> <Gold.Chemscore.DG>
-14.5668

> <Gold.Chemscore.ZeroCoef>
-5.4800

> <Gold.Chemscore.Hbond>
0.9963

> <Gold.Chemscore.Metal>
0.0000

> <Gold.Chemscore.Lipo>
101.0377

> <Gold.Chemscore.Internal_Hbond>
0.0000

> <Gold.Chemscore.DEClash>
0.0578

> <Gold.Chemscore.DEInternal>
2.0112

> <Gold.Chemscore.Rot>
2.3681

> <Gold.Chemscore.Internal.Correction>
   9.000000E+99

> <Gold.Chemscore.Hbonds>
donor molecule, donor type, donor heavy atom, donor atom, acceptor molecule, acceptor atom, score
      L1  H     8    31       P1  8028  1.00

> <Gold.Chemscore.Hbond.Weighted>
-3.3278

> <Gold.Chemscore.Metal.Weighted>
-0.0000

> <Gold.Chemscore.Lipo.Weighted>
-11.8214

> <Gold.Chemscore.Internal_Hbond.Weighted>
0.0000

> <Gold.Chemscore.DEClash.Weighted>
0.0578

> <Gold.Chemscore.DEInternal.Weighted>
2.0112

> <Gold.Chemscore.Rot.Weighted>
6.0624

> <Gold.Chemscore.Internal.Correction.Weighted>
   9.000000E+99

> <Gold.Protein.RotatedTorsions>
[ 6907 6896 6895 6894 ] final   97.94 input  -60.11 | X-H torsion
[ 7974 7965 7964 7962 ] final -155.52 input  175.53 | X-H torsion
[ 8008 7997 7996 7995 ] final  149.05 input   59.86 | X-H torsion
[ 10167 10162 10161 10158 ] final   39.29 input  -65.29 | X-H torsion
[ 10718 10713 10712 10709 ] final   85.89 input   66.30 | X-H torsion
[ 10763 10752 10751 10750 ] final  -31.61 input  -60.55 | X-H torsion
[ 11005 11000 10999 10996 ] final  -93.42 input  -57.11 | X-H torsion

> <Gold.Protein.ActiveResidues>
 VAL166  LYS551  ARG553  GLY616  TRP617  ASP618  TYR619  PRO620  LYS621  CYS622 
 ASP623  PHE694  ASN695  SER759  ASP760  ASP761  ALA762  ILE779  LEU786  VAL792 
 PHE793  MET794  SER795  GLU796  ALA797  LYS798  CYS799  TRP800  GLU811  SER814 

> <Gold.Protein.RotatedAtoms>
  152.5416  134.0656  159.8171 H   0  0  0  0  0  0  0  0  0  0  0  0  # atno 6907 bound_to 6896
  151.0778  133.5407  159.2630 H   0  0  0  0  0  0  0  0  0  0  0  0  # atno 6908 bound_to 6896
  151.2245  135.0540  159.9017 H   0  0  0  0  0  0  0  0  0  0  0  0  # atno 6909 bound_to 6896
  144.7636  140.4237  143.5958 H   0  0  0  0  0  0  0  0  0  0  0  0  # atno 7974 bound_to 7965
  156.2769  140.2112  156.5797 H   0  0  0  0  0  0  0  0  0  0  0  0  # atno 8008 bound_to 7997
  154.7069  140.0515  157.0536 H   0  0  0  0  0  0  0  0  0  0  0  0  # atno 8009 bound_to 7997
  155.0658  140.3171  155.4649 H   0  0  0  0  0  0  0  0  0  0  0  0  # atno 8010 bound_to 7997
  140.3854  144.1924  150.6130 H   0  0  0  0  0  0  0  0  0  0  0  0  # atno 10167 bound_to 10162
  157.6921  131.0193  150.2891 H   0  0  0  0  0  0  0  0  0  0  0  0  # atno 10718 bound_to 10713
  153.8002  135.6891  153.4857 H   0  0  0  0  0  0  0  0  0  0  0  0  # atno 10763 bound_to 10752
  153.1693  135.4549  154.9879 H   0  0  0  0  0  0  0  0  0  0  0  0  # atno 10764 bound_to 10752
  154.8009  135.3337  154.7492 H   0  0  0  0  0  0  0  0  0  0  0  0  # atno 10765 bound_to 10752
  141.1497  133.7887  157.0157 H   0  0  0  0  0  0  0  0  0  0  0  0  # atno 11005 bound_to 11000
  145.6541  139.1570  143.2845 LP  0  0  0  0  0  0  0  0  0  0  0  0  # atno 17320 bound_to 7965
  146.1723  140.6627  142.9227 LP  0  0  0  0  0  0  0  0  0  0  0  0  # atno 17321 bound_to 7965
  140.4895  143.2352  151.8839 LP  0  0  0  0  0  0  0  0  0  0  0  0  # atno 17342 bound_to 10162
  139.4792  144.5182  151.8839 LP  0  0  0  0  0  0  0  0  0  0  0  0  # atno 17343 bound_to 10162
  156.3425  130.3817  149.7397 LP  0  0  0  0  0  0  0  0  0  0  0  0  # atno 17370 bound_to 10713
  156.4901  130.8081  151.3091 LP  0  0  0  0  0  0  0  0  0  0  0  0  # atno 17371 bound_to 10713
  140.0848  134.9627  157.1682 LP  0  0  0  0  0  0  0  0  0  0  0  0  # atno 17394 bound_to 11000
  140.3526  134.2581  155.7196 LP  0  0  0  0  0  0  0  0  0  0  0  0  # atno 17395 bound_to 11000

$$$$
