AV-unprocessed.smi:1641|AV-procd|sdf|6558|dock4
  -GOLD-   22720 7243D 1   1.00000     0.00000
 Structure written by MMmdl.
 41 42  0  0  0  0  0  0  0  0  1 V2000
  143.5870  132.2084  149.0189 C   0  0  0  0  0  0  0  0  0  0  0  0
  144.6031  133.0218  149.7452 C   0  0  0  0  0  0  0  0  0  0  0  0
  145.8596  132.6027  149.9382 N   0  0  0  0  0  0  0  0  0  0  0  0
  146.6218  133.5288  150.6369 N   0  0  0  0  0  0  0  0  0  0  0  0
  145.9140  134.6223  150.9520 C   0  0  0  0  0  0  0  0  0  0  0  0
  146.4451  135.7282  151.6668 N   0  0  0  0  0  0  0  0  0  0  0  0
  145.7874  136.6276  152.4191 C   0  0  0  0  0  0  0  0  0  0  0  0
  144.5749  136.6245  152.6330 O   0  0  0  0  0  0  0  0  0  0  0  0
  146.6273  137.5453  152.9207 N   0  0  0  0  0  0  0  0  0  0  0  0
  146.2416  138.6758  153.7600 C   0  0  0  0  0  0  0  0  0  0  0  0
  147.1469  139.9002  153.5177 C   0  0  0  0  0  0  0  0  0  0  0  0
  148.3111  140.0045  154.3967 N   0  0  0  0  0  0  0  0  0  0  0  0
  149.3265  138.9956  154.1115 C   0  0  0  0  0  0  0  0  0  0  0  0
  150.5164  139.0952  155.0825 C   0  0  1  0  0  0  0  0  0  0  0  0
  151.6263  138.0969  154.7382 C   0  0  0  0  0  0  0  0  0  0  0  0
  151.0666  140.4108  155.0265 O   0  0  0  0  0  0  0  0  0  0  0  0
  150.1362  141.4705  155.2569 C   0  0  2  0  0  0  0  0  0  0  0  0
  149.7467  141.5745  156.7415 C   0  0  0  0  0  0  0  0  0  0  0  0
  148.9223  141.3257  154.3176 C   0  0  0  0  0  0  0  0  0  0  0  0
  144.2409  134.6050  150.4218 S   0  0  0  0  0  0  0  0  0  0  0  0
  144.0463  131.6950  148.1736 H   0  0  0  0  0  0  0  0  0  0  0  0
  142.7882  132.8485  148.6436 H   0  0  0  0  0  0  0  0  0  0  0  0
  143.1557  131.4655  149.6897 H   0  0  0  0  0  0  0  0  0  0  0  0
  147.4446  135.8488  151.5967 H   0  0  0  0  0  0  0  0  0  0  0  0
  147.6074  137.4654  152.6932 H   0  0  0  0  0  0  0  0  0  0  0  0
  145.1852  138.9170  153.6390 H   0  0  0  0  0  0  0  0  0  0  0  0
  146.3525  138.3578  154.7968 H   0  0  0  0  0  0  0  0  0  0  0  0
  147.4780  139.9012  152.4783 H   0  0  0  0  0  0  0  0  0  0  0  0
  146.5315  140.7940  153.6317 H   0  0  0  0  0  0  0  0  0  0  0  0
  148.9016  137.9957  154.1870 H   0  0  0  0  0  0  0  0  0  0  0  0
  149.6796  139.1070  153.0851 H   0  0  0  0  0  0  0  0  0  0  0  0
  150.1742  138.8883  156.0971 H   0  0  0  0  0  0  0  0  0  0  0  0
  151.2587  137.0715  154.7852 H   0  0  0  0  0  0  0  0  0  0  0  0
  152.4588  138.1834  155.4369 H   0  0  0  0  0  0  0  0  0  0  0  0
  152.0140  138.2687  153.7336 H   0  0  0  0  0  0  0  0  0  0  0  0
  150.6534  142.3946  154.9972 H   0  0  0  0  0  0  0  0  0  0  0  0
  149.1274  142.4538  156.9185 H   0  0  0  0  0  0  0  0  0  0  0  0
  150.6326  141.6620  157.3706 H   0  0  0  0  0  0  0  0  0  0  0  0
  149.1809  140.7063  157.0797 H   0  0  0  0  0  0  0  0  0  0  0  0
  149.2430  141.5153  153.2919 H   0  0  0  0  0  0  0  0  0  0  0  0
  148.1854  142.0938  154.5553 H   0  0  0  0  0  0  0  0  0  0  0  0
  1  2  1  0  0  0  0
  1 21  1  0  0  0  0
  1 22  1  0  0  0  0
  1 23  1  0  0  0  0
  2 20  1  0  0  0  0
  2  3  2  0  0  0  0
  3  4  1  0  0  0  0
  4  5  2  0  0  0  0
  5  6  1  0  0  0  0
  5 20  1  0  0  0  0
  6  7  1  0  0  0  0
  6 24  1  0  0  0  0
  7  8  2  0  0  0  0
  7  9  1  0  0  0  0
  9 10  1  0  0  0  0
  9 25  1  0  0  0  0
 10 11  1  0  0  0  0
 10 26  1  0  0  0  0
 10 27  1  0  0  0  0
 11 12  1  0  0  0  0
 11 28  1  0  0  0  0
 11 29  1  0  0  0  0
 12 19  1  0  0  0  0
 12 13  1  0  0  0  0
 13 14  1  0  0  0  0
 13 30  1  0  0  0  0
 13 31  1  0  0  0  0
 14 15  1  0  0  0  0
 14 16  1  0  0  0  0
 14 32  1  0  0  0  0
 15 33  1  0  0  0  0
 15 34  1  0  0  0  0
 15 35  1  0  0  0  0
 16 17  1  0  0  0  0
 17 18  1  0  0  0  0
 17 19  1  0  0  0  0
 17 36  1  0  0  0  0
 18 37  1  0  0  0  0
 18 38  1  0  0  0  0
 18 39  1  0  0  0  0
 19 40  1  0  0  0  0
 19 41  1  0  0  0  0
M  END
> <s_m_source_file>
AV-unprocessed.smi

> <i_m_source_file_index>
1641

> <i_lp_mmshare_version>
43012

> <i_f3d_flags>
0

> <s_epik_input>
W0NIM11jMW5uYyhzMSlbTkhdQyg9TylbTkhdW0NIMl1bQ0gyXU4yW0NIMl1bQ0BASF0oW0NIM10pT1tDQEBIXShbQ0gzXSlbQ0gyXTI=

> <s_epik_cmdline>
J2VwaWtfcHl0aG9uJywgJy1waCcsICc3LjAnLCAnLXRuJywgJzgnLCAnLW1hJywgJzIwMCcsICctbWV0YWxfYmluZGluZycsICctaW1hZScsICc8aW5maWxlLm1hZT4nLCAnLW9tYWUnLCAnPG91dGZpbGUubWFlPic=

> <r_lp_tautomer_probability>
1

> <r_epik_Ionization_Penalty>
0.221104

> <r_epik_Ionization_Penalty_Charging>
0

> <r_epik_Ionization_Penalty_Neutral>
0.221104

> <r_epik_State_Penalty>
0.209349

> <r_epik_Charging_Adjusted_Penalty>
0.209349

> <i_epik_Tot_Q>
0

> <i_epik_Tot_abs_Q>
0

> <r_epik_Metal_State_Penalty>
0.560954

> <b_epik_Metal_Only>
0

> <s_lp_Force_Field>
OPLS_2005

> <r_lp_Energy>
25.2137

> <b_lp_Chiralities_Consistent>
1

> <s_lp_Variant>
AV-unprocessed.smi:1641-3

> <Gold.Version>
5.8.1

> <Gold.Id.Protein>
6NUR|6NUR_protein|mol2

> <Gold.PLP.Fitness>
39.4502

> <Gold.PLP.PLP>
-32.0125

> <Gold.PLP.part.hbond>
-3.0000

> <Gold.PLP.part.metal>
0.0000

> <Gold.PLP.part.buried>
-0.8587

> <Gold.PLP.part.nonpolar>
-28.4867

> <Gold.PLP.part.repulsive>
1.0000

> <Gold.PLP.ligand.clash>
0.0000

> <Gold.PLP.ligand.torsion>
0.5972

> <Gold.PLP.Chemscore.Hbond>
2.8723

> <Gold.PLP.Chemscore.CHOScore>
0.0000

> <Gold.PLP.Chemscore.Metal>
0.0000

> <Gold.Chemscore.Hbonds>
donor molecule, donor type, donor heavy atom, donor atom, acceptor molecule, acceptor atom, score
      L1  H     6    24       P1  7948  1.00
      L1  H     9    25       P1  7948  0.86
      P1  H  7989  7998       L1    16  0.95

> <Gold.PLP.Chemscore.Internal.Correction>
0.0152

> <Gold.Rescore>
     Score         DG    S(hbond)    S(metal)    S(lipo)     H(rot)  DE(clash)    DE(int)     intcor
     16.17     -18.07       2.23        0.00      79.01       1.60       0.21       1.68       ----

> <Gold.Chemscore.Fitness>
16.1738

> <Gold.Chemscore.DG>
-18.0686

> <Gold.Chemscore.ZeroCoef>
-5.4800

> <Gold.Chemscore.Hbond>
2.2258

> <Gold.Chemscore.Metal>
0.0000

> <Gold.Chemscore.Lipo>
79.0079

> <Gold.Chemscore.Internal_Hbond>
0.0000

> <Gold.Chemscore.DEClash>
0.2111

> <Gold.Chemscore.DEInternal>
1.6837

> <Gold.Chemscore.Rot>
1.5975

> <Gold.Chemscore.Internal.Correction>
   9.000000E+99

> <Gold.Chemscore.Hbonds>
donor molecule, donor type, donor heavy atom, donor atom, acceptor molecule, acceptor atom, score
      L1  H     6    24       P1  7948  0.94
      L1  H     9    25       P1  7948  0.82
      P1  H  7989  7998       L1    16  0.19

> <Gold.Chemscore.Hbond.Weighted>
-7.4342

> <Gold.Chemscore.Metal.Weighted>
-0.0000

> <Gold.Chemscore.Lipo.Weighted>
-9.2439

> <Gold.Chemscore.Internal_Hbond.Weighted>
0.0000

> <Gold.Chemscore.DEClash.Weighted>
0.2111

> <Gold.Chemscore.DEInternal.Weighted>
1.6837

> <Gold.Chemscore.Rot.Weighted>
4.0896

> <Gold.Chemscore.Internal.Correction.Weighted>
   9.000000E+99

> <Gold.Protein.RotatedTorsions>
[ 6907 6896 6895 6894 ] final  -98.84 input  -60.11 | X-H torsion
[ 7974 7965 7964 7962 ] final  115.52 input  175.53 | X-H torsion
[ 8008 7997 7996 7995 ] final -158.53 input   59.86 | X-H torsion
[ 10167 10162 10161 10158 ] final  -55.90 input  -65.29 | X-H torsion
[ 10718 10713 10712 10709 ] final -128.21 input   66.30 | X-H torsion
[ 10763 10752 10751 10750 ] final -154.95 input  -60.55 | X-H torsion
[ 11005 11000 10999 10996 ] final   81.33 input  -57.11 | X-H torsion

> <Gold.Protein.ActiveResidues>
 VAL166  LYS551  ARG553  GLY616  TRP617  ASP618  TYR619  PRO620  LYS621  CYS622 
 ASP623  PHE694  ASN695  SER759  ASP760  ASP761  ALA762  ILE779  LEU786  VAL792 
 PHE793  MET794  SER795  GLU796  ALA797  LYS798  CYS799  TRP800  GLU811  SER814 

> <Gold.Protein.RotatedAtoms>
  150.7060  134.1132  159.4007 H   0  0  0  0  0  0  0  0  0  0  0  0  # atno 6907 bound_to 6896
  151.9119  135.0333  160.0524 H   0  0  0  0  0  0  0  0  0  0  0  0  # atno 6908 bound_to 6896
  152.2329  133.5037  159.5262 H   0  0  0  0  0  0  0  0  0  0  0  0  # atno 6909 bound_to 6896
  145.1910  139.3000  143.4368 H   0  0  0  0  0  0  0  0  0  0  0  0  # atno 7974 bound_to 7965
  155.7490  140.0824  157.2210 H   0  0  0  0  0  0  0  0  0  0  0  0  # atno 8008 bound_to 7997
  154.4014  140.1564  156.2758 H   0  0  0  0  0  0  0  0  0  0  0  0  # atno 8009 bound_to 7997
  155.8949  140.3413  155.5986 H   0  0  0  0  0  0  0  0  0  0  0  0  # atno 8010 bound_to 7997
  140.6348  143.2477  151.5147 H   0  0  0  0  0  0  0  0  0  0  0  0  # atno 10167 bound_to 10162
  156.1929  130.6807  151.0447 H   0  0  0  0  0  0  0  0  0  0  0  0  # atno 10718 bound_to 10713
  154.7822  135.3178  154.7965 H   0  0  0  0  0  0  0  0  0  0  0  0  # atno 10763 bound_to 10752
  153.8674  135.6847  153.4781 H   0  0  0  0  0  0  0  0  0  0  0  0  # atno 10764 bound_to 10752
  153.1462  135.4718  154.9507 H   0  0  0  0  0  0  0  0  0  0  0  0  # atno 10765 bound_to 10752
  139.9102  134.7989  156.2028 H   0  0  0  0  0  0  0  0  0  0  0  0  # atno 11005 bound_to 11000
  146.3436  140.2123  142.8590 LP  0  0  0  0  0  0  0  0  0  0  0  0  # atno 17320 bound_to 7965
  145.0041  140.8657  143.5264 LP  0  0  0  0  0  0  0  0  0  0  0  0  # atno 17321 bound_to 7965
  139.5559  144.2276  152.1611 LP  0  0  0  0  0  0  0  0  0  0  0  0  # atno 17342 bound_to 10162
  140.1530  144.5097  150.6676 LP  0  0  0  0  0  0  0  0  0  0  0  0  # atno 17343 bound_to 10162
  157.6940  131.0800  150.7023 LP  0  0  0  0  0  0  0  0  0  0  0  0  # atno 17370 bound_to 10713
  156.7080  130.4643  149.5555 LP  0  0  0  0  0  0  0  0  0  0  0  0  # atno 17371 bound_to 10713
  141.0514  133.6887  156.1779 LP  0  0  0  0  0  0  0  0  0  0  0  0  # atno 17394 bound_to 11000
  140.6804  134.4773  157.5589 LP  0  0  0  0  0  0  0  0  0  0  0  0  # atno 17395 bound_to 11000

$$$$
