AV-unprocessed.smi:3175|AV-procd|sdf|12122|dock1
  -GOLD-   2272017563D 1   1.00000     0.00000
 Structure written by MMmdl.
 37 38  0  0  0  0  0  0  0  0  1 V2000
  154.1872  138.9574  158.6450 O   0  0  0  0  0  0  0  0  0  0  0  0
  154.1616  138.6435  159.8352 C   0  0  0  0  0  0  0  0  0  0  0  0
  154.0657  137.1705  160.2451 C   0  0  0  0  0  0  0  0  0  0  0  0
  154.6311  136.8897  161.6528 C   0  0  0  0  0  0  0  0  0  0  0  0
  154.9237  135.4092  161.9073 C   0  0  0  0  0  0  0  0  0  0  0  0
  154.9969  135.2737  163.4323 C   0  0  0  0  0  0  0  0  0  0  0  0
  154.2055  136.4578  164.0091 C   0  0  0  0  0  0  0  0  0  0  0  0
  153.6924  137.2583  162.8073 C   0  0  0  0  0  0  0  0  0  0  0  0
  154.2016  139.5396  160.8327 N   0  0  0  0  0  0  0  0  0  0  0  0
  154.2628  140.9870  160.6557 C   0  0  0  0  0  0  0  0  0  0  0  0
  153.0032  141.6997  161.1836 C   0  0  0  0  0  0  0  0  0  0  0  0
  152.6390  142.9429  160.3904 C   0  0  0  0  0  0  0  0  0  0  0  0
  152.7578  142.9634  158.9856 C   0  0  0  0  0  0  0  0  0  0  0  0
  152.4171  144.1413  158.2933 C   0  0  0  0  0  0  0  0  0  0  0  0
  151.9705  145.2513  159.0378 C   0  0  0  0  0  0  0  0  0  0  0  0
  151.8520  145.2432  160.3829 N   0  0  0  0  0  0  0  0  0  0  0  0
  152.1793  144.1092  161.0392 C   0  0  0  0  0  0  0  0  0  0  0  0
  153.0273  136.8395  160.1898 H   0  0  0  0  0  0  0  0  0  0  0  0
  154.6141  136.5836  159.5076 H   0  0  0  0  0  0  0  0  0  0  0  0
  155.5656  137.4387  161.7835 H   0  0  0  0  0  0  0  0  0  0  0  0
  154.1032  134.7975  161.5293 H   0  0  0  0  0  0  0  0  0  0  0  0
  155.8375  135.0740  161.4156 H   0  0  0  0  0  0  0  0  0  0  0  0
  154.5982  134.3149  163.7650 H   0  0  0  0  0  0  0  0  0  0  0  0
  156.0342  135.3279  163.7650 H   0  0  0  0  0  0  0  0  0  0  0  0
  153.3844  136.1283  164.6465 H   0  0  0  0  0  0  0  0  0  0  0  0
  154.8632  137.0777  164.6197 H   0  0  0  0  0  0  0  0  0  0  0  0
  153.6693  138.3307  163.0047 H   0  0  0  0  0  0  0  0  0  0  0  0
  152.6743  136.9448  162.5715 H   0  0  0  0  0  0  0  0  0  0  0  0
  154.1702  139.1962  161.7818 H   0  0  0  0  0  0  0  0  0  0  0  0
  155.1390  141.3479  161.1950 H   0  0  0  0  0  0  0  0  0  0  0  0
  154.4262  141.2337  159.6055 H   0  0  0  0  0  0  0  0  0  0  0  0
  152.1579  141.0108  161.1671 H   0  0  0  0  0  0  0  0  0  0  0  0
  153.1455  141.9751  162.2296 H   0  0  0  0  0  0  0  0  0  0  0  0
  153.1061  142.0940  158.4475 H   0  0  0  0  0  0  0  0  0  0  0  0
  152.4965  144.1935  157.2175 H   0  0  0  0  0  0  0  0  0  0  0  0
  151.7013  146.1707  158.5392 H   0  0  0  0  0  0  0  0  0  0  0  0
  152.0782  144.1370  162.1143 H   0  0  0  0  0  0  0  0  0  0  0  0
  1  2  2  0  0  0  0
  2  3  1  0  0  0  0
  2  9  1  0  0  0  0
  3  4  1  0  0  0  0
  3 18  1  0  0  0  0
  3 19  1  0  0  0  0
  4  8  1  0  0  0  0
  4  5  1  0  0  0  0
  4 20  1  0  0  0  0
  5  6  1  0  0  0  0
  5 21  1  0  0  0  0
  5 22  1  0  0  0  0
  6  7  1  0  0  0  0
  6 23  1  0  0  0  0
  6 24  1  0  0  0  0
  7  8  1  0  0  0  0
  7 25  1  0  0  0  0
  7 26  1  0  0  0  0
  8 27  1  0  0  0  0
  8 28  1  0  0  0  0
  9 10  1  0  0  0  0
  9 29  1  0  0  0  0
 10 11  1  0  0  0  0
 10 30  1  0  0  0  0
 10 31  1  0  0  0  0
 11 12  1  0  0  0  0
 11 32  1  0  0  0  0
 11 33  1  0  0  0  0
 12 17  1  0  0  0  0
 12 13  2  0  0  0  0
 13 14  1  0  0  0  0
 13 34  1  0  0  0  0
 14 15  2  0  0  0  0
 14 35  1  0  0  0  0
 15 16  1  0  0  0  0
 15 36  1  0  0  0  0
 16 17  2  0  0  0  0
 17 37  1  0  0  0  0
M  END
> <s_m_source_file>
AV-unprocessed.smi

> <i_m_source_file_index>
3175

> <i_lp_mmshare_version>
43012

> <i_f3d_flags>
0

> <s_epik_input>
W0NIMl0xW0NIMl1bQ0gyXVtDSDJdW0NIXTFbQ0gyXUMoPU8pW05IXVtDSDJdW0NIMl1jMltjSF1bY0hdW2NIXW5bY0hdMg==

> <s_epik_cmdline>
J2VwaWtfcHl0aG9uJywgJy1waCcsICc3LjAnLCAnLXRuJywgJzgnLCAnLW1hJywgJzIwMCcsICctbWV0YWxfYmluZGluZycsICctaW1hZScsICc8aW5maWxlLm1hZT4nLCAnLW9tYWUnLCAnPG91dGZpbGUubWFlPic=

> <r_epik_Ionization_Penalty>
0.013409

> <r_epik_Ionization_Penalty_Charging>
0

> <r_epik_Ionization_Penalty_Neutral>
0.013409

> <r_epik_State_Penalty>
0.010434

> <r_epik_Charging_Adjusted_Penalty>
0.010434

> <i_epik_Tot_Q>
0

> <i_epik_Tot_abs_Q>
0

> <r_epik_Metal_State_Penalty>
0.0102027

> <b_epik_Metal_Only>
0

> <s_lp_Force_Field>
OPLS_2005

> <r_lp_Energy>
19.7305

> <b_lp_Chiralities_Consistent>
1

> <s_lp_Variant>
AV-unprocessed.smi:3175-1

> <Gold.Version>
5.8.1

> <Gold.Id.Protein>
6NUR|6NUR_protein|mol2

> <Gold.PLP.Fitness>
45.4352

> <Gold.PLP.PLP>
-44.4496

> <Gold.PLP.part.hbond>
-1.0000

> <Gold.PLP.part.metal>
0.0000

> <Gold.PLP.part.buried>
-4.8171

> <Gold.PLP.part.nonpolar>
-38.4413

> <Gold.PLP.part.repulsive>
0.1969

> <Gold.PLP.ligand.clash>
0.0000

> <Gold.PLP.ligand.torsion>
1.0152

> <Gold.PLP.Chemscore.Hbond>
1.0000

> <Gold.PLP.Chemscore.CHOScore>
0.0000

> <Gold.PLP.Chemscore.Metal>
0.0000

> <Gold.Chemscore.Hbonds>
donor molecule, donor type, donor heavy atom, donor atom, acceptor molecule, acceptor atom, score
      P1  H  7997  8009       L1     1  1.00

> <Gold.PLP.Chemscore.Internal.Correction>
0.0160

> <Gold.Rescore>
     Score         DG    S(hbond)    S(metal)    S(lipo)     H(rot)  DE(clash)    DE(int)     intcor
     19.01     -20.06       1.00        0.00     128.66       1.48       0.08       0.96       ----

> <Gold.Chemscore.Fitness>
19.0145

> <Gold.Chemscore.DG>
-20.0611

> <Gold.Chemscore.ZeroCoef>
-5.4800

> <Gold.Chemscore.Hbond>
0.9966

> <Gold.Chemscore.Metal>
0.0000

> <Gold.Chemscore.Lipo>
128.6642

> <Gold.Chemscore.Internal_Hbond>
0.0000

> <Gold.Chemscore.DEClash>
0.0820

> <Gold.Chemscore.DEInternal>
0.9646

> <Gold.Chemscore.Rot>
1.4848

> <Gold.Chemscore.Internal.Correction>
   9.000000E+99

> <Gold.Chemscore.Hbonds>
donor molecule, donor type, donor heavy atom, donor atom, acceptor molecule, acceptor atom, score
      P1  H  7997  8009       L1     1  1.00

> <Gold.Chemscore.Hbond.Weighted>
-3.3286

> <Gold.Chemscore.Metal.Weighted>
-0.0000

> <Gold.Chemscore.Lipo.Weighted>
-15.0537

> <Gold.Chemscore.Internal_Hbond.Weighted>
0.0000

> <Gold.Chemscore.DEClash.Weighted>
0.0820

> <Gold.Chemscore.DEInternal.Weighted>
0.9646

> <Gold.Chemscore.Rot.Weighted>
3.8012

> <Gold.Chemscore.Internal.Correction.Weighted>
   9.000000E+99

> <Gold.Protein.RotatedTorsions>
[ 6907 6896 6895 6894 ] final   32.29 input  -60.11 | X-H torsion
[ 7974 7965 7964 7962 ] final   94.61 input  175.53 | X-H torsion
[ 8008 7997 7996 7995 ] final  134.46 input   59.86 | X-H torsion
[ 10167 10162 10161 10158 ] final -106.71 input  -65.29 | X-H torsion
[ 10718 10713 10712 10709 ] final -147.37 input   66.30 | X-H torsion
[ 10763 10752 10751 10750 ] final   33.59 input  -60.55 | X-H torsion
[ 11005 11000 10999 10996 ] final -153.82 input  -57.11 | X-H torsion

> <Gold.Protein.ActiveResidues>
 VAL166  LYS551  ARG553  GLY616  TRP617  ASP618  TYR619  PRO620  LYS621  CYS622 
 ASP623  PHE694  ASN695  SER759  ASP760  ASP761  ALA762  ILE779  LEU786  VAL792 
 PHE793  MET794  SER795  GLU796  ALA797  LYS798  CYS799  TRP800  GLU811  SER814 

> <Gold.Protein.RotatedAtoms>
  152.0724  134.9525  160.0574 H   0  0  0  0  0  0  0  0  0  0  0  0  # atno 6907 bound_to 6896
  152.0846  133.4165  159.4524 H   0  0  0  0  0  0  0  0  0  0  0  0  # atno 6908 bound_to 6896
  150.6836  134.2862  159.4691 H   0  0  0  0  0  0  0  0  0  0  0  0  # atno 6909 bound_to 6896
  145.4632  139.2286  143.2976 H   0  0  0  0  0  0  0  0  0  0  0  0  # atno 7974 bound_to 7965
  156.2999  140.2495  156.3421 H   0  0  0  0  0  0  0  0  0  0  0  0  # atno 8008 bound_to 7997
  154.9045  140.0405  157.1931 H   0  0  0  0  0  0  0  0  0  0  0  0  # atno 8009 bound_to 7997
  154.8467  140.2899  155.5628 H   0  0  0  0  0  0  0  0  0  0  0  0  # atno 8010 bound_to 7997
  140.1848  143.3938  152.1253 H   0  0  0  0  0  0  0  0  0  0  0  0  # atno 10167 bound_to 10162
  156.4067  130.7961  151.2176 H   0  0  0  0  0  0  0  0  0  0  0  0  # atno 10718 bound_to 10713
  153.0204  135.6383  154.1536 H   0  0  0  0  0  0  0  0  0  0  0  0  # atno 10763 bound_to 10752
  154.1271  135.2843  155.3196 H   0  0  0  0  0  0  0  0  0  0  0  0  # atno 10764 bound_to 10752
  154.6221  135.5521  153.7649 H   0  0  0  0  0  0  0  0  0  0  0  0  # atno 10765 bound_to 10752
  140.7040  134.3906  157.5206 H   0  0  0  0  0  0  0  0  0  0  0  0  # atno 11005 bound_to 11000
  146.2439  140.5403  142.8922 LP  0  0  0  0  0  0  0  0  0  0  0  0  # atno 17320 bound_to 7965
  144.7990  140.6177  143.6491 LP  0  0  0  0  0  0  0  0  0  0  0  0  # atno 17321 bound_to 7965
  139.5281  144.7126  151.5157 LP  0  0  0  0  0  0  0  0  0  0  0  0  # atno 17342 bound_to 10162
  140.6495  143.8725  150.6771 LP  0  0  0  0  0  0  0  0  0  0  0  0  # atno 17343 bound_to 10162
  157.7506  131.0270  150.3987 LP  0  0  0  0  0  0  0  0  0  0  0  0  # atno 17370 bound_to 10713
  156.4277  130.3965  149.6782 LP  0  0  0  0  0  0  0  0  0  0  0  0  # atno 17371 bound_to 10713
  139.8889  134.8844  156.2449 LP  0  0  0  0  0  0  0  0  0  0  0  0  # atno 17394 bound_to 11000
  141.0140  133.7079  156.1158 LP  0  0  0  0  0  0  0  0  0  0  0  0  # atno 17395 bound_to 11000

$$$$
