AV-unprocessed.smi:638|AV-procd|sdf|3143|dock8
  -GOLD-   22720 0 73D 1   1.00000     0.00000
 Structure written by MMmdl.
 41 42  0  0  0  0  0  0  0  0  3 V2000
  143.9318  136.1876  155.2504 N   0  0  0  0  0  0  0  0  0  0  0  0
  144.9911  135.8885  154.8930 C   0  0  0  0  0  0  0  0  0  0  0  0
  146.3425  135.5082  154.4361 C   0  0  0  0  0  0  0  0  0  0  0  0
  146.9287  136.5934  153.6409 N   0  0  0  0  0  0  0  0  0  0  0  0
  146.8925  137.9085  153.9116 C   0  0  0  0  0  0  0  0  0  0  0  0
  146.3473  138.3812  154.9090 O   0  0  0  0  0  0  0  0  0  0  0  0
  147.6101  138.8198  152.9068 C   0  0  0  0  0  0  0  0  0  0  0  0
  148.7493  139.5409  153.4981 N   0  0  0  0  0  0  0  0  0  0  0  0
  149.8422  138.7659  153.9341 C   0  0  0  0  0  0  0  0  0  0  0  0
  150.9318  139.3205  154.5005 C   0  0  0  0  0  0  0  0  0  0  0  0
  152.0413  138.5090  154.9508 N   0  3  0  0  0  0  0  0  0  0  0  0
  153.0790  139.0680  155.2907 O   0  0  0  0  0  0  0  0  0  0  0  0
  151.9134  137.2885  154.9794 O   0  5  0  0  0  0  0  0  0  0  0  0
  150.9538  140.7628  154.6500 C   0  0  0  0  0  0  0  0  0  0  0  0
  149.9101  141.5089  154.2384 C   0  0  0  0  0  0  0  0  0  0  0  0
  148.7228  140.9026  153.6278 C   0  0  0  0  0  0  0  0  0  0  0  0
  147.7626  141.5772  153.2552 O   0  0  0  0  0  0  0  0  0  0  0  0
  147.2111  135.1834  155.6833 C   0  0  0  0  0  0  0  0  0  0  0  0
  148.7117  134.9460  155.4133 C   0  0  0  0  0  0  0  0  0  0  0  0
  149.1013  133.5065  155.0353 C   0  0  0  0  0  0  0  0  0  0  0  0
  148.1534  132.7588  154.0819 C   0  0  0  0  0  0  0  0  0  0  0  0
  147.4715  133.6216  153.0086 C   0  0  0  0  0  0  0  0  0  0  0  0
  146.1735  134.2815  153.5131 C   0  0  0  0  0  0  0  0  0  0  0  0
  147.4069  136.3109  152.7979 H   0  0  0  0  0  0  0  0  0  0  0  0
  147.9390  138.2050  152.0680 H   0  0  0  0  0  0  0  0  0  0  0  0
  146.8975  139.5272  152.4780 H   0  0  0  0  0  0  0  0  0  0  0  0
  149.7250  137.7021  153.7852 H   0  0  0  0  0  0  0  0  0  0  0  0
  151.8064  141.2550  155.0941 H   0  0  0  0  0  0  0  0  0  0  0  0
  149.9469  142.5816  154.3602 H   0  0  0  0  0  0  0  0  0  0  0  0
  147.1329  136.0204  156.3779 H   0  0  0  0  0  0  0  0  0  0  0  0
  146.7928  134.3327  156.2228 H   0  0  0  0  0  0  0  0  0  0  0  0
  149.0810  135.6322  154.6522 H   0  0  0  0  0  0  0  0  0  0  0  0
  149.2691  135.2088  156.3130 H   0  0  0  0  0  0  0  0  0  0  0  0
  150.0988  133.5337  154.5953 H   0  0  0  0  0  0  0  0  0  0  0  0
  149.2027  132.9137  155.9451 H   0  0  0  0  0  0  0  0  0  0  0  0
  148.7259  131.9705  153.5919 H   0  0  0  0  0  0  0  0  0  0  0  0
  147.3920  132.2364  154.6626 H   0  0  0  0  0  0  0  0  0  0  0  0
  148.1632  134.3533  152.5900 H   0  0  0  0  0  0  0  0  0  0  0  0
  147.2014  132.9657  152.1804 H   0  0  0  0  0  0  0  0  0  0  0  0
  145.5637  133.5294  154.0159 H   0  0  0  0  0  0  0  0  0  0  0  0
  145.5861  134.5844  152.6449 H   0  0  0  0  0  0  0  0  0  0  0  0
  1  2  3  0  0  0  0
  2  3  1  0  0  0  0
  3 23  1  0  0  0  0
  3  4  1  0  0  0  0
  3 18  1  0  0  0  0
  4  5  1  0  0  0  0
  4 24  1  0  0  0  0
  5  6  2  0  0  0  0
  5  7  1  0  0  0  0
  7  8  1  0  0  0  0
  7 25  1  0  0  0  0
  7 26  1  0  0  0  0
  8 16  1  0  0  0  0
  8  9  1  0  0  0  0
  9 10  2  0  0  0  0
  9 27  1  0  0  0  0
 10 11  1  0  0  0  0
 10 14  1  0  0  0  0
 11 12  2  0  0  0  0
 11 13  1  0  0  0  0
 14 15  2  0  0  0  0
 14 28  1  0  0  0  0
 15 16  1  0  0  0  0
 15 29  1  0  0  0  0
 16 17  2  0  0  0  0
 18 19  1  0  0  0  0
 18 30  1  0  0  0  0
 18 31  1  0  0  0  0
 19 20  1  0  0  0  0
 19 32  1  0  0  0  0
 19 33  1  0  0  0  0
 20 21  1  0  0  0  0
 20 34  1  0  0  0  0
 20 35  1  0  0  0  0
 21 22  1  0  0  0  0
 21 36  1  0  0  0  0
 21 37  1  0  0  0  0
 22 23  1  0  0  0  0
 22 38  1  0  0  0  0
 22 39  1  0  0  0  0
 23 40  1  0  0  0  0
 23 41  1  0  0  0  0
M  CHG  1  11   1
M  CHG  1  13  -1
M  END
> <s_m_source_file>
AV-unprocessed.smi

> <i_m_source_file_index>
638

> <i_lp_mmshare_version>
43012

> <i_f3d_flags>
0

> <s_epik_input>
W0NIMl0xW0NIMl1bQ0gyXVtDSDJdW0NIMl1bQ0gyXUMxKEMjTilbTkhdQyg9TylbQ0gyXW4yW2NIXWMoW04rXSg9TylbTy1dKVtjSF1bY0hdYzI9Tw==

> <s_epik_cmdline>
J2VwaWtfcHl0aG9uJywgJy1waCcsICc3LjAnLCAnLXRuJywgJzgnLCAnLW1hJywgJzIwMCcsICctbWV0YWxfYmluZGluZycsICctaW1hZScsICc8aW5maWxlLm1hZT4nLCAnLW9tYWUnLCAnPG91dGZpbGUubWFlPic=

> <r_lp_tautomer_probability>
1

> <r_epik_Ionization_Penalty>
4.51205e-07

> <r_epik_Ionization_Penalty_Charging>
6.24361e-11

> <r_epik_Ionization_Penalty_Neutral>
4.51142e-07

> <r_epik_State_Penalty>
-0

> <r_epik_Charging_Adjusted_Penalty>
6.24361e-11

> <i_epik_Tot_Q>
0

> <i_epik_Tot_abs_Q>
2

> <r_epik_Metal_State_Penalty>
-0

> <b_epik_Metal_Only>
0

> <s_lp_Force_Field>
OPLS_2005

> <r_lp_Energy>
29.2466

> <b_lp_Chiralities_Consistent>
1

> <s_lp_Variant>
AV-unprocessed.smi:638-1

> <Gold.Version>
5.8.1

> <Gold.Id.Protein>
6NUR|6NUR_protein|mol2

> <Gold.PLP.Fitness>
44.2646

> <Gold.PLP.PLP>
-33.6030

> <Gold.PLP.part.hbond>
-3.0000

> <Gold.PLP.part.metal>
0.0000

> <Gold.PLP.part.buried>
-0.9770

> <Gold.PLP.part.nonpolar>
-30.2066

> <Gold.PLP.part.repulsive>
0.3307

> <Gold.PLP.ligand.clash>
0.0000

> <Gold.PLP.ligand.torsion>
0.4584

> <Gold.PLP.Chemscore.Hbond>
2.8560

> <Gold.PLP.Chemscore.CHOScore>
1.0000

> <Gold.PLP.Chemscore.Metal>
0.0000

> <Gold.Chemscore.Hbonds>
donor molecule, donor type, donor heavy atom, donor atom, acceptor molecule, acceptor atom, score
      L1  H     4    24       P1  7948  0.98
      P1  H  7997  8010       L1    12  1.00
      P1  H 10752 10763       L1    13  0.93
      L1  C     9    27       P1  7948  1.00

> <Gold.PLP.Chemscore.Internal.Correction>
0.0105

> <Gold.Rescore>
     Score         DG    S(hbond)    S(metal)    S(lipo)     H(rot)  DE(clash)    DE(int)     intcor
     16.33     -18.44       2.87        0.00      64.45       1.63       0.11       2.00       ----

> <Gold.Chemscore.Fitness>
16.3343

> <Gold.Chemscore.DG>
-18.4388

> <Gold.Chemscore.ZeroCoef>
-5.4800

> <Gold.Chemscore.Hbond>
2.8704

> <Gold.Chemscore.Metal>
0.0000

> <Gold.Chemscore.Lipo>
64.4546

> <Gold.Chemscore.Internal_Hbond>
0.0000

> <Gold.Chemscore.DEClash>
0.1094

> <Gold.Chemscore.DEInternal>
1.9950

> <Gold.Chemscore.Rot>
1.6287

> <Gold.Chemscore.Internal.Correction>
   9.000000E+99

> <Gold.Chemscore.Hbonds>
donor molecule, donor type, donor heavy atom, donor atom, acceptor molecule, acceptor atom, score
      L1  H     4    24       P1  7948  0.93
      P1  H  7997  8010       L1    12  0.99
      P1  H 10752 10763       L1    13  0.85

> <Gold.Chemscore.Hbond.Weighted>
-9.5870

> <Gold.Chemscore.Metal.Weighted>
-0.0000

> <Gold.Chemscore.Lipo.Weighted>
-7.5412

> <Gold.Chemscore.Internal_Hbond.Weighted>
0.0000

> <Gold.Chemscore.DEClash.Weighted>
0.1094

> <Gold.Chemscore.DEInternal.Weighted>
1.9950

> <Gold.Chemscore.Rot.Weighted>
4.1694

> <Gold.Chemscore.Internal.Correction.Weighted>
   9.000000E+99

> <Gold.Protein.RotatedTorsions>
[ 6907 6896 6895 6894 ] final    8.44 input  -60.11 | X-H torsion
[ 7974 7965 7964 7962 ] final  -69.77 input  175.53 | X-H torsion
[ 8008 7997 7996 7995 ] final  107.12 input   59.86 | X-H torsion
[ 10167 10162 10161 10158 ] final  -87.13 input  -65.29 | X-H torsion
[ 10718 10713 10712 10709 ] final   31.94 input   66.30 | X-H torsion
[ 10763 10752 10751 10750 ] final   55.66 input  -60.55 | X-H torsion
[ 11005 11000 10999 10996 ] final   68.54 input  -57.11 | X-H torsion

> <Gold.Protein.ActiveResidues>
 VAL166  LYS551  ARG553  GLY616  TRP617  ASP618  TYR619  PRO620  LYS621  CYS622 
 ASP623  PHE694  ASN695  SER759  ASP760  ASP761  ALA762  ILE779  LEU786  VAL792 
 PHE793  MET794  SER795  GLU796  ALA797  LYS798  CYS799  TRP800  GLU811  SER814 

> <Gold.Protein.RotatedAtoms>
  151.7061  135.0921  160.0259 H   0  0  0  0  0  0  0  0  0  0  0  0  # atno 6907 bound_to 6896
  152.3690  133.6390  159.6081 H   0  0  0  0  0  0  0  0  0  0  0  0  # atno 6908 bound_to 6896
  150.7659  133.9217  159.3441 H   0  0  0  0  0  0  0  0  0  0  0  0  # atno 6909 bound_to 6896
  145.6995  140.9122  143.0738 H   0  0  0  0  0  0  0  0  0  0  0  0  # atno 7974 bound_to 7965
  156.1799  140.3100  155.9129 H   0  0  0  0  0  0  0  0  0  0  0  0  # atno 8008 bound_to 7997
  155.3407  140.0465  157.3062 H   0  0  0  0  0  0  0  0  0  0  0  0  # atno 8009 bound_to 7997
  154.5331  140.2237  155.8780 H   0  0  0  0  0  0  0  0  0  0  0  0  # atno 8010 bound_to 7997
  140.3875  143.2720  151.9307 H   0  0  0  0  0  0  0  0  0  0  0  0  # atno 10167 bound_to 10162
  157.2789  130.7245  149.6545 H   0  0  0  0  0  0  0  0  0  0  0  0  # atno 10718 bound_to 10713
  152.9820  135.5703  154.5103 H   0  0  0  0  0  0  0  0  0  0  0  0  # atno 10763 bound_to 10752
  154.4608  135.2781  155.1716 H   0  0  0  0  0  0  0  0  0  0  0  0  # atno 10764 bound_to 10752
  154.3305  135.6250  153.5602 H   0  0  0  0  0  0  0  0  0  0  0  0  # atno 10765 bound_to 10752
  139.9705  134.6908  156.0456 H   0  0  0  0  0  0  0  0  0  0  0  0  # atno 11005 bound_to 11000
  144.6972  139.8929  143.7454 LP  0  0  0  0  0  0  0  0  0  0  0  0  # atno 17320 bound_to 7965
  146.0810  139.3798  143.0464 LP  0  0  0  0  0  0  0  0  0  0  0  0  # atno 17321 bound_to 7965
  139.4791  144.5760  151.8011 LP  0  0  0  0  0  0  0  0  0  0  0  0  # atno 17342 bound_to 10162
  140.4874  144.1360  150.5943 LP  0  0  0  0  0  0  0  0  0  0  0  0  # atno 17343 bound_to 10162
  155.9664  130.4344  150.5048 LP  0  0  0  0  0  0  0  0  0  0  0  0  # atno 17370 bound_to 10713
  157.2988  131.0641  151.2083 LP  0  0  0  0  0  0  0  0  0  0  0  0  # atno 17371 bound_to 10713
  141.1385  133.6570  156.3661 LP  0  0  0  0  0  0  0  0  0  0  0  0  # atno 17394 bound_to 11000
  140.5303  134.6219  157.5348 LP  0  0  0  0  0  0  0  0  0  0  0  0  # atno 17395 bound_to 11000

$$$$
