AV-unprocessed.smi:2379|AV-procd|sdf|9451|dock1
  -GOLD-   2272013 83D 1   1.00000     0.00000
 Structure written by MMmdl.
 53 55  0  0  0  0  0  0  0  0  2 V2000
  154.1923  141.1576  161.2279 C   0  0  0  0  0  0  0  0  0  0  0  0
  153.2806  141.7025  160.1485 C   0  0  0  0  0  0  0  0  0  0  0  0
  153.2324  143.0820  159.8710 C   0  0  0  0  0  0  0  0  0  0  0  0
  152.3633  143.5258  158.8550 C   0  0  0  0  0  0  0  0  0  0  0  0
  152.2594  144.9956  158.5056 C   0  0  0  0  0  0  0  0  0  0  0  0
  151.5784  142.6912  158.1403 N   0  0  0  0  0  0  0  0  0  0  0  0
  151.6162  141.3608  158.3996 C   0  0  0  0  0  0  0  0  0  0  0  0
  150.8321  140.4004  157.7070 N   0  0  0  0  0  0  0  0  0  0  0  0
  149.8335  140.6170  156.8332 C   0  0  0  0  0  0  0  0  0  0  0  0
  149.4212  141.7218  156.4783 O   0  0  0  0  0  0  0  0  0  0  0  0
  149.3307  139.4609  156.3758 N   0  0  0  0  0  0  0  0  0  0  0  0
  148.2484  139.3412  155.4030 C   0  0  2  0  0  0  0  0  0  0  0  0
  147.8026  137.8731  155.2999 C   0  0  0  0  0  0  0  0  0  0  0  0
  146.7387  137.6848  154.2053 C   0  0  0  0  0  0  0  0  0  0  0  0
  147.2302  138.1771  152.8927 N   0  3  1  0  0  0  0  0  0  0  0  0
  146.3047  137.8704  151.7718 C   0  0  0  0  0  0  0  0  0  0  0  0
  145.7009  136.4589  151.8988 C   0  0  2  0  0  0  0  0  0  0  0  0
  145.5896  135.6770  150.6035 C   0  0  0  0  0  0  0  0  0  0  0  0
  144.5480  134.6175  150.9530 C   0  0  0  0  0  0  0  0  0  0  0  0
  143.7116  135.2029  151.9468 O   0  0  0  0  0  0  0  0  0  0  0  0
  144.2409  136.4610  152.3507 C   0  0  0  0  0  0  0  0  0  0  0  0
  147.6098  139.6121  152.9598 C   0  0  0  0  0  0  0  0  0  0  0  0
  148.6994  139.8446  154.0187 C   0  0  0  0  0  0  0  0  0  0  0  0
  152.4595  140.8328  159.4029 C   0  0  0  0  0  0  0  0  0  0  0  0
  154.8689  141.9275  161.6004 H   0  0  0  0  0  0  0  0  0  0  0  0
  154.7941  140.3362  160.8382 H   0  0  0  0  0  0  0  0  0  0  0  0
  153.6024  140.7854  162.0656 H   0  0  0  0  0  0  0  0  0  0  0  0
  153.8443  143.7813  160.4224 H   0  0  0  0  0  0  0  0  0  0  0  0
  153.0097  145.5822  159.0362 H   0  0  0  0  0  0  0  0  0  0  0  0
  151.2744  145.3784  158.7736 H   0  0  0  0  0  0  0  0  0  0  0  0
  152.4069  145.1447  157.4356 H   0  0  0  0  0  0  0  0  0  0  0  0
  151.0651  139.4365  157.8942 H   0  0  0  0  0  0  0  0  0  0  0  0
  149.7284  138.6009  156.7242 H   0  0  0  0  0  0  0  0  0  0  0  0
  147.3963  139.9354  155.7394 H   0  0  0  0  0  0  0  0  0  0  0  0
  148.6625  137.2389  155.0777 H   0  0  0  0  0  0  0  0  0  0  0  0
  147.4082  137.5334  156.2583 H   0  0  0  0  0  0  0  0  0  0  0  0
  146.4901  136.6252  154.1317 H   0  0  0  0  0  0  0  0  0  0  0  0
  145.8207  138.2101  154.4739 H   0  0  0  0  0  0  0  0  0  0  0  0
  145.4784  138.5833  151.7761 H   0  0  0  0  0  0  0  0  0  0  0  0
  146.8011  138.0040  150.8091 H   0  0  0  0  0  0  0  0  0  0  0  0
  146.2801  135.8757  152.6171 H   0  0  0  0  0  0  0  0  0  0  0  0
  145.2149  136.3163  149.8024 H   0  0  0  0  0  0  0  0  0  0  0  0
  146.5353  135.2408  150.2801 H   0  0  0  0  0  0  0  0  0  0  0  0
  143.9713  134.3013  150.0832 H   0  0  0  0  0  0  0  0  0  0  0  0
  145.0278  133.7357  151.3802 H   0  0  0  0  0  0  0  0  0  0  0  0
  144.1355  136.6093  153.4257 H   0  0  0  0  0  0  0  0  0  0  0  0
  143.6805  137.2485  151.8445 H   0  0  0  0  0  0  0  0  0  0  0  0
  147.9736  139.9515  151.9907 H   0  0  0  0  0  0  0  0  0  0  0  0
  146.7291  140.2134  153.1918 H   0  0  0  0  0  0  0  0  0  0  0  0
  148.9430  140.9070  154.0636 H   0  0  0  0  0  0  0  0  0  0  0  0
  149.6135  139.3315  153.7159 H   0  0  0  0  0  0  0  0  0  0  0  0
  152.4797  139.7706  159.6009 H   0  0  0  0  0  0  0  0  0  0  0  0
  148.0769  137.6597  152.7041 H   0  0  0  0  0  0  0  0  0  0  0  0
  1  2  1  0  0  0  0
  1 25  1  0  0  0  0
  1 26  1  0  0  0  0
  1 27  1  0  0  0  0
  2 24  1  0  0  0  0
  2  3  2  0  0  0  0
  3  4  1  0  0  0  0
  3 28  1  0  0  0  0
  4  5  1  0  0  0  0
  4  6  2  0  0  0  0
  5 29  1  0  0  0  0
  5 30  1  0  0  0  0
  5 31  1  0  0  0  0
  6  7  1  0  0  0  0
  7  8  1  0  0  0  0
  7 24  2  0  0  0  0
  8  9  1  0  0  0  0
  8 32  1  0  0  0  0
  9 10  2  0  0  0  0
  9 11  1  0  0  0  0
 11 12  1  0  0  0  0
 11 33  1  0  0  0  0
 12 23  1  0  0  0  0
 12 13  1  0  0  0  0
 12 34  1  0  0  0  0
 13 14  1  0  0  0  0
 13 35  1  0  0  0  0
 13 36  1  0  0  0  0
 14 15  1  0  0  0  0
 14 37  1  0  0  0  0
 14 38  1  0  0  0  0
 15 16  1  0  0  0  0
 15 22  1  0  0  0  0
 15 53  1  0  0  0  0
 16 17  1  0  0  0  0
 16 39  1  0  0  0  0
 16 40  1  0  0  0  0
 17 21  1  0  0  0  0
 17 18  1  0  0  0  0
 17 41  1  0  0  0  0
 18 19  1  0  0  0  0
 18 42  1  0  0  0  0
 18 43  1  0  0  0  0
 19 20  1  0  0  0  0
 19 44  1  0  0  0  0
 19 45  1  0  0  0  0
 20 21  1  0  0  0  0
 21 46  1  0  0  0  0
 21 47  1  0  0  0  0
 22 23  1  0  0  0  0
 22 48  1  0  0  0  0
 22 49  1  0  0  0  0
 23 50  1  0  0  0  0
 23 51  1  0  0  0  0
 24 52  1  0  0  0  0
M  CHG  1  15   1
M  END
> <s_m_source_file>
AV-unprocessed.smi

> <i_m_source_file_index>
2379

> <i_lp_mmshare_version>
43012

> <i_f3d_flags>
0

> <s_epik_input>
W0NIM11jMVtjSF1jKFtDSDNdKW5jKFtjSF0xKVtOSF1DKD1PKVtOSF1bQ0hdMltDSDJdW0NIMl1OKFtDSDJdW0NIMl0yKVtDSDJdW0NAQEhdM1tDSDJdW0NIMl1PW0NIMl0z

> <s_epik_cmdline>
J2VwaWtfcHl0aG9uJywgJy1waCcsICc3LjAnLCAnLXRuJywgJzgnLCAnLW1hJywgJzIwMCcsICctbWV0YWxfYmluZGluZycsICctaW1hZScsICc8aW5maWxlLm1hZT4nLCAnLW9tYWUnLCAnPG91dGZpbGUubWFlPic=

> <r_epik_Ionization_Penalty>
0.00766556

> <r_epik_Ionization_Penalty_Charging>
0.00747775

> <r_epik_Ionization_Penalty_Neutral>
0.00018781

> <r_epik_State_Penalty>
0.00558817

> <r_epik_Charging_Adjusted_Penalty>
0.0130659

> <i_epik_Tot_Q>
1

> <i_epik_Tot_abs_Q>
1

> <r_epik_Metal_State_Penalty>
-0

> <b_epik_Metal_Only>
0

> <s_lp_Force_Field>
OPLS_2005

> <r_lp_Energy>
36.075

> <b_lp_Chiralities_Consistent>
1

> <s_lp_Variant>
AV-unprocessed.smi:2379-1

> <Gold.Version>
5.8.1

> <Gold.Id.Protein>
6NUR|6NUR_protein|mol2

> <Gold.PLP.Fitness>
46.8545

> <Gold.PLP.PLP>
-42.4467

> <Gold.PLP.part.hbond>
-1.0000

> <Gold.PLP.part.metal>
0.0000

> <Gold.PLP.part.buried>
-1.7028

> <Gold.PLP.part.nonpolar>
-40.8106

> <Gold.PLP.part.repulsive>
0.5088

> <Gold.PLP.ligand.clash>
0.0000

> <Gold.PLP.ligand.torsion>
0.8207

> <Gold.PLP.Chemscore.Hbond>
2.0000

> <Gold.PLP.Chemscore.CHOScore>
0.0000

> <Gold.PLP.Chemscore.Metal>
0.0000

> <Gold.Chemscore.Hbonds>
donor molecule, donor type, donor heavy atom, donor atom, acceptor molecule, acceptor atom, score
      L1  H    15    53       P1  7948  2.00

> <Gold.PLP.Chemscore.Internal.Correction>
0.0492

> <Gold.Rescore>
     Score         DG    S(hbond)    S(metal)    S(lipo)     H(rot)  DE(clash)    DE(int)     intcor
     15.94     -18.33       0.96        0.00     112.59       1.37       0.38       2.01       ----

> <Gold.Chemscore.Fitness>
15.9449

> <Gold.Chemscore.DG>
-18.3328

> <Gold.Chemscore.ZeroCoef>
-5.4800

> <Gold.Chemscore.Hbond>
0.9560

> <Gold.Chemscore.Metal>
0.0000

> <Gold.Chemscore.Lipo>
112.5923

> <Gold.Chemscore.Internal_Hbond>
0.0000

> <Gold.Chemscore.DEClash>
0.3781

> <Gold.Chemscore.DEInternal>
2.0098

> <Gold.Chemscore.Rot>
1.3725

> <Gold.Chemscore.Internal.Correction>
   9.000000E+99

> <Gold.Chemscore.Hbonds>
donor molecule, donor type, donor heavy atom, donor atom, acceptor molecule, acceptor atom, score
      L1  H    15    53       P1  7948  0.94

> <Gold.Chemscore.Hbond.Weighted>
-3.1931

> <Gold.Chemscore.Metal.Weighted>
-0.0000

> <Gold.Chemscore.Lipo.Weighted>
-13.1733

> <Gold.Chemscore.Internal_Hbond.Weighted>
0.0000

> <Gold.Chemscore.DEClash.Weighted>
0.3781

> <Gold.Chemscore.DEInternal.Weighted>
2.0098

> <Gold.Chemscore.Rot.Weighted>
3.5136

> <Gold.Chemscore.Internal.Correction.Weighted>
   9.000000E+99

> <Gold.Protein.RotatedTorsions>
[ 6907 6896 6895 6894 ] final -146.10 input  -60.11 | X-H torsion
[ 7974 7965 7964 7962 ] final  -54.02 input  175.53 | X-H torsion
[ 8008 7997 7996 7995 ] final -146.86 input   59.86 | X-H torsion
[ 10167 10162 10161 10158 ] final -140.95 input  -65.29 | X-H torsion
[ 10718 10713 10712 10709 ] final   85.86 input   66.30 | X-H torsion
[ 10763 10752 10751 10750 ] final  112.10 input  -60.55 | X-H torsion
[ 11005 11000 10999 10996 ] final   61.44 input  -57.11 | X-H torsion

> <Gold.Protein.ActiveResidues>
 VAL166  LYS551  ARG553  GLY616  TRP617  ASP618  TYR619  PRO620  LYS621  CYS622 
 ASP623  PHE694  ASN695  SER759  ASP760  ASP761  ALA762  ILE779  LEU786  VAL792 
 PHE793  MET794  SER795  GLU796  ALA797  LYS798  CYS799  TRP800  GLU811  SER814 

> <Gold.Protein.RotatedAtoms>
  151.1370  133.4997  159.2597 H   0  0  0  0  0  0  0  0  0  0  0  0  # atno 6907 bound_to 6896
  151.1696  135.0311  159.8756 H   0  0  0  0  0  0  0  0  0  0  0  0  # atno 6908 bound_to 6896
  152.5461  134.1234  159.8462 H   0  0  0  0  0  0  0  0  0  0  0  0  # atno 6909 bound_to 6896
  145.8903  140.8076  142.9795 H   0  0  0  0  0  0  0  0  0  0  0  0  # atno 7974 bound_to 7965
  155.5663  140.0630  157.2817 H   0  0  0  0  0  0  0  0  0  0  0  0  # atno 8008 bound_to 7997
  154.4375  140.1877  156.0879 H   0  0  0  0  0  0  0  0  0  0  0  0  # atno 8009 bound_to 7997
  156.0410  140.3295  155.7247 H   0  0  0  0  0  0  0  0  0  0  0  0  # atno 8010 bound_to 7997
  139.8232  143.7546  152.2666 H   0  0  0  0  0  0  0  0  0  0  0  0  # atno 10167 bound_to 10162
  157.6921  131.0192  150.2885 H   0  0  0  0  0  0  0  0  0  0  0  0  # atno 10718 bound_to 10713
  153.4729  135.3696  155.2400 H   0  0  0  0  0  0  0  0  0  0  0  0  # atno 10763 bound_to 10752
  154.8756  135.3936  154.3791 H   0  0  0  0  0  0  0  0  0  0  0  0  # atno 10764 bound_to 10752
  153.4382  135.7083  153.6251 H   0  0  0  0  0  0  0  0  0  0  0  0  # atno 10765 bound_to 10752
  140.0161  134.6223  155.9708 H   0  0  0  0  0  0  0  0  0  0  0  0  # atno 11005 bound_to 11000
  144.6730  140.1519  143.7429 LP  0  0  0  0  0  0  0  0  0  0  0  0  # atno 17320 bound_to 7965
  145.8917  139.2379  143.1546 LP  0  0  0  0  0  0  0  0  0  0  0  0  # atno 17321 bound_to 7965
  139.7731  144.7470  151.0196 LP  0  0  0  0  0  0  0  0  0  0  0  0  # atno 17342 bound_to 10162
  140.7812  143.4623  151.0260 LP  0  0  0  0  0  0  0  0  0  0  0  0  # atno 17343 bound_to 10162
  156.3420  130.3817  149.7401 LP  0  0  0  0  0  0  0  0  0  0  0  0  # atno 17370 bound_to 10713
  156.4907  130.8083  151.3093 LP  0  0  0  0  0  0  0  0  0  0  0  0  # atno 17371 bound_to 10713
  141.1743  133.6539  156.4771 LP  0  0  0  0  0  0  0  0  0  0  0  0  # atno 17394 bound_to 11000
  140.4469  134.6965  157.5020 LP  0  0  0  0  0  0  0  0  0  0  0  0  # atno 17395 bound_to 11000

$$$$
