AV-unprocessed.smi:1274|AV-procd|sdf|5340|dock3
  -GOLD-   22720 4473D 1   1.00000     0.00000
 Structure written by MMmdl.
 37 38  0  0  0  0  0  0  0  0  1 V2000
  151.9709  138.1897  158.9111 O   0  0  0  0  0  0  0  0  0  0  0  0
  153.0506  139.0027  158.3312 S   0  0  0  0  0  0  0  0  0  0  0  0
  154.4071  138.4561  158.1729 O   0  0  0  0  0  0  0  0  0  0  0  0
  152.5432  139.6107  156.7979 N   0  0  0  0  0  0  0  0  0  0  0  0
  151.2496  139.2078  156.2422 C   0  0  0  0  0  0  0  0  0  0  0  0
  151.1214  139.5947  154.7579 C   0  0  0  0  0  0  0  0  0  0  0  0
  149.6944  139.9217  154.3545 C   0  0  0  0  0  0  0  0  0  0  0  0
  149.1964  141.2367  154.4576 C   0  0  0  0  0  0  0  0  0  0  0  0
  147.8603  141.4866  154.0898 C   0  0  0  0  0  0  0  0  0  0  0  0
  147.0772  140.4074  153.6336 C   0  0  0  0  0  0  0  0  0  0  0  0
  147.5435  139.1443  153.5290 N   0  0  0  0  0  0  0  0  0  0  0  0
  148.8264  138.9140  153.8814 C   0  0  0  0  0  0  0  0  0  0  0  0
  153.1403  140.4945  159.2074 N   0  0  0  0  0  0  0  0  0  0  0  0
  152.0311  141.4549  159.0173 C   0  0  0  0  0  0  0  0  0  0  0  0
  152.3907  142.8498  159.5541 C   0  0  0  0  0  0  0  0  0  0  0  0
  152.8284  142.7823  161.0194 C   0  0  0  0  0  0  0  0  0  0  0  0
  153.9987  141.8041  161.1503 C   0  0  0  0  0  0  0  0  0  0  0  0
  153.6332  140.4161  160.5973 C   0  0  0  0  0  0  0  0  0  0  0  0
  153.2945  139.5850  156.1089 H   0  0  0  0  0  0  0  0  0  0  0  0
  151.1515  138.1272  156.3497 H   0  0  0  0  0  0  0  0  0  0  0  0
  150.4478  139.6570  156.8289 H   0  0  0  0  0  0  0  0  0  0  0  0
  151.7466  140.4653  154.5563 H   0  0  0  0  0  0  0  0  0  0  0  0
  151.5075  138.8007  154.1190 H   0  0  0  0  0  0  0  0  0  0  0  0
  149.8246  142.0387  154.8166 H   0  0  0  0  0  0  0  0  0  0  0  0
  147.4442  142.4809  154.1577 H   0  0  0  0  0  0  0  0  0  0  0  0
  146.0481  140.5628  153.3452 H   0  0  0  0  0  0  0  0  0  0  0  0
  149.1655  137.8925  153.7918 H   0  0  0  0  0  0  0  0  0  0  0  0
  151.7791  141.5327  157.9604 H   0  0  0  0  0  0  0  0  0  0  0  0
  151.1429  141.0732  159.5226 H   0  0  0  0  0  0  0  0  0  0  0  0
  153.1914  143.2788  158.9502 H   0  0  0  0  0  0  0  0  0  0  0  0
  151.5352  143.5176  159.4515 H   0  0  0  0  0  0  0  0  0  0  0  0
  153.1199  143.7716  161.3734 H   0  0  0  0  0  0  0  0  0  0  0  0
  151.9958  142.4550  161.6433 H   0  0  0  0  0  0  0  0  0  0  0  0
  154.8640  142.1946  160.6131 H   0  0  0  0  0  0  0  0  0  0  0  0
  154.2966  141.7193  162.1957 H   0  0  0  0  0  0  0  0  0  0  0  0
  152.8673  139.9489  161.2179 H   0  0  0  0  0  0  0  0  0  0  0  0
  154.5103  139.7701  160.6391 H   0  0  0  0  0  0  0  0  0  0  0  0
  1  2  2  0  0  0  0
  2  3  2  0  0  0  0
  2  4  1  0  0  0  0
  2 13  1  0  0  0  0
  4  5  1  0  0  0  0
  4 19  1  0  0  0  0
  5  6  1  0  0  0  0
  5 20  1  0  0  0  0
  5 21  1  0  0  0  0
  6  7  1  0  0  0  0
  6 22  1  0  0  0  0
  6 23  1  0  0  0  0
  7 12  1  0  0  0  0
  7  8  2  0  0  0  0
  8  9  1  0  0  0  0
  8 24  1  0  0  0  0
  9 10  2  0  0  0  0
  9 25  1  0  0  0  0
 10 11  1  0  0  0  0
 10 26  1  0  0  0  0
 11 12  2  0  0  0  0
 12 27  1  0  0  0  0
 13 18  1  0  0  0  0
 13 14  1  0  0  0  0
 14 15  1  0  0  0  0
 14 28  1  0  0  0  0
 14 29  1  0  0  0  0
 15 16  1  0  0  0  0
 15 30  1  0  0  0  0
 15 31  1  0  0  0  0
 16 17  1  0  0  0  0
 16 32  1  0  0  0  0
 16 33  1  0  0  0  0
 17 18  1  0  0  0  0
 17 34  1  0  0  0  0
 17 35  1  0  0  0  0
 18 36  1  0  0  0  0
 18 37  1  0  0  0  0
M  END
> <s_m_source_file>
AV-unprocessed.smi

> <i_m_source_file_index>
1274

> <i_lp_mmshare_version>
43012

> <i_f3d_flags>
0

> <s_epik_input>
W0NIMl0xW0NIMl1bQ0gyXVtDSDJdW0NIMl1OMVMoPU8pKD1PKVtOSF1bQ0gyXVtDSDJdYzJbY0hdW2NIXVtjSF1uW2NIXTI=

> <s_epik_cmdline>
J2VwaWtfcHl0aG9uJywgJy1waCcsICc3LjAnLCAnLXRuJywgJzgnLCAnLW1hJywgJzIwMCcsICctbWV0YWxfYmluZGluZycsICctaW1hZScsICc8aW5maWxlLm1hZT4nLCAnLW9tYWUnLCAnPG91dGZpbGUubWFlPic=

> <r_epik_Ionization_Penalty>
0.0259724

> <r_epik_Ionization_Penalty_Charging>
0

> <r_epik_Ionization_Penalty_Neutral>
0.0259724

> <r_epik_State_Penalty>
0.0167858

> <r_epik_Charging_Adjusted_Penalty>
0.0167858

> <i_epik_Tot_Q>
0

> <i_epik_Tot_abs_Q>
0

> <r_epik_Metal_State_Penalty>
0.268382

> <b_epik_Metal_Only>
0

> <s_lp_Force_Field>
OPLS_2005

> <r_lp_Energy>
7.33886

> <b_lp_Chiralities_Consistent>
1

> <s_lp_Variant>
AV-unprocessed.smi:1274-1

> <Gold.Version>
5.8.1

> <Gold.Id.Protein>
6NUR|6NUR_protein|mol2

> <Gold.PLP.Fitness>
41.8233

> <Gold.PLP.PLP>
-34.8026

> <Gold.PLP.part.hbond>
-2.0000

> <Gold.PLP.part.metal>
0.0000

> <Gold.PLP.part.buried>
1.8947

> <Gold.PLP.part.nonpolar>
-33.4473

> <Gold.PLP.part.repulsive>
0.2055

> <Gold.PLP.ligand.clash>
0.0000

> <Gold.PLP.ligand.torsion>
1.0539

> <Gold.PLP.Chemscore.Hbond>
0.7920

> <Gold.PLP.Chemscore.CHOScore>
1.9977

> <Gold.PLP.Chemscore.Metal>
0.0000

> <Gold.Chemscore.Hbonds>
donor molecule, donor type, donor heavy atom, donor atom, acceptor molecule, acceptor atom, score
      P1  H  7997  8010       L1     3  0.79
      L1  C    10    26       P1 10175  1.00
      L1  C    12    27       P1  7948  0.99

> <Gold.PLP.Chemscore.Internal.Correction>
0.7595

> <Gold.Rescore>
     Score         DG    S(hbond)    S(metal)    S(lipo)     H(rot)  DE(clash)    DE(int)     intcor
     12.39     -13.81       0.26        0.00     100.68       1.69       0.36       1.06       ----

> <Gold.Chemscore.Fitness>
12.3924

> <Gold.Chemscore.DG>
-13.8065

> <Gold.Chemscore.ZeroCoef>
-5.4800

> <Gold.Chemscore.Hbond>
0.2608

> <Gold.Chemscore.Metal>
0.0000

> <Gold.Chemscore.Lipo>
100.6789

> <Gold.Chemscore.Internal_Hbond>
0.0000

> <Gold.Chemscore.DEClash>
0.3587

> <Gold.Chemscore.DEInternal>
1.0553

> <Gold.Chemscore.Rot>
1.6891

> <Gold.Chemscore.Internal.Correction>
   9.000000E+99

> <Gold.Chemscore.Hbonds>
donor molecule, donor type, donor heavy atom, donor atom, acceptor molecule, acceptor atom, score
      P1  H  7997  8010       L1     3  0.15

> <Gold.Chemscore.Hbond.Weighted>
-0.8712

> <Gold.Chemscore.Metal.Weighted>
-0.0000

> <Gold.Chemscore.Lipo.Weighted>
-11.7794

> <Gold.Chemscore.Internal_Hbond.Weighted>
0.0000

> <Gold.Chemscore.DEClash.Weighted>
0.3587

> <Gold.Chemscore.DEInternal.Weighted>
1.0553

> <Gold.Chemscore.Rot.Weighted>
4.3241

> <Gold.Chemscore.Internal.Correction.Weighted>
   9.000000E+99

> <Gold.Protein.RotatedTorsions>
[ 6907 6896 6895 6894 ] final -113.36 input  -60.11 | X-H torsion
[ 7974 7965 7964 7962 ] final -175.78 input  175.53 | X-H torsion
[ 8008 7997 7996 7995 ] final   -6.74 input   59.86 | X-H torsion
[ 10167 10162 10161 10158 ] final  162.86 input  -65.29 | X-H torsion
[ 10718 10713 10712 10709 ] final  -15.78 input   66.30 | X-H torsion
[ 10763 10752 10751 10750 ] final  -57.65 input  -60.55 | X-H torsion
[ 11005 11000 10999 10996 ] final -109.22 input  -57.11 | X-H torsion

> <Gold.Protein.ActiveResidues>
 VAL166  LYS551  ARG553  GLY616  TRP617  ASP618  TYR619  PRO620  LYS621  CYS622 
 ASP623  PHE694  ASN695  SER759  ASP760  ASP761  ALA762  ILE779  LEU786  VAL792 
 PHE793  MET794  SER795  GLU796  ALA797  LYS798  CYS799  TRP800  GLU811  SER814 

> <Gold.Protein.RotatedAtoms>
  150.7824  133.8956  159.3325 H   0  0  0  0  0  0  0  0  0  0  0  0  # atno 6907 bound_to 6896
  151.6815  135.0959  160.0226 H   0  0  0  0  0  0  0  0  0  0  0  0  # atno 6908 bound_to 6896
  152.3879  133.6598  159.6249 H   0  0  0  0  0  0  0  0  0  0  0  0  # atno 6909 bound_to 6896
  144.7127  140.1269  143.6401 H   0  0  0  0  0  0  0  0  0  0  0  0  # atno 7974 bound_to 7965
  154.5908  140.2425  155.7924 H   0  0  0  0  0  0  0  0  0  0  0  0  # atno 8008 bound_to 7997
  156.2245  140.2987  155.9988 H   0  0  0  0  0  0  0  0  0  0  0  0  # atno 8009 bound_to 7997
  155.2378  140.0406  157.2961 H   0  0  0  0  0  0  0  0  0  0  0  0  # atno 8010 bound_to 7997
  139.4866  144.4395  151.8970 H   0  0  0  0  0  0  0  0  0  0  0  0  # atno 10167 bound_to 10162
  156.5969  130.4814  149.6256 H   0  0  0  0  0  0  0  0  0  0  0  0  # atno 10718 bound_to 10713
  154.2258  135.6369  153.5159 H   0  0  0  0  0  0  0  0  0  0  0  0  # atno 10763 bound_to 10752
  152.9959  135.5507  154.6066 H   0  0  0  0  0  0  0  0  0  0  0  0  # atno 10764 bound_to 10752
  154.5537  135.2903  155.0959 H   0  0  0  0  0  0  0  0  0  0  0  0  # atno 10765 bound_to 10752
  141.0859  133.9140  157.2186 H   0  0  0  0  0  0  0  0  0  0  0  0  # atno 11005 bound_to 11000
  145.9322  139.2613  143.1318 LP  0  0  0  0  0  0  0  0  0  0  0  0  # atno 17320 bound_to 7965
  145.9511  140.8908  143.0258 LP  0  0  0  0  0  0  0  0  0  0  0  0  # atno 17321 bound_to 7965
  140.3846  144.2693  150.5905 LP  0  0  0  0  0  0  0  0  0  0  0  0  # atno 17342 bound_to 10162
  140.5202  143.2268  151.8400 LP  0  0  0  0  0  0  0  0  0  0  0  0  # atno 17343 bound_to 10162
  156.2502  130.6902  151.1637 LP  0  0  0  0  0  0  0  0  0  0  0  0  # atno 17370 bound_to 10713
  157.7289  131.0628  150.5797 LP  0  0  0  0  0  0  0  0  0  0  0  0  # atno 17371 bound_to 10713
  139.9677  135.0137  156.9431 LP  0  0  0  0  0  0  0  0  0  0  0  0  # atno 17394 bound_to 11000
  140.5364  134.0763  155.7329 LP  0  0  0  0  0  0  0  0  0  0  0  0  # atno 17395 bound_to 11000

$$$$
