AV-unprocessed.smi:228|AV-procd|sdf|1746|dock8
  -GOLD-   2262020263D 1   1.00000     0.00000
 Structure written by MMmdl.
 59 62  0  0  0  0  0  0  0  0  1 V2000
  147.1176  139.3180  157.0263 C   0  0  0  0  0  0  0  0  0  0  0  0
  147.0900  139.0877  155.5874 N   0  0  0  0  0  0  0  0  0  0  0  0
  147.3245  140.2319  154.7020 C   0  0  0  0  0  0  0  0  0  0  0  0
  148.8078  140.3942  154.3126 C   0  0  1  0  0  0  0  0  0  0  0  0
  148.8430  141.1290  153.1066 O   0  0  0  0  0  0  0  0  0  0  0  0
  149.6303  141.1661  155.3690 C   0  0  0  0  0  0  0  0  0  0  0  0
  150.5199  140.3549  156.2006 N   0  0  0  0  0  0  0  0  0  0  0  0
  151.2412  141.1497  157.1942 C   0  0  0  0  0  0  0  0  0  0  0  0
  152.2063  140.2897  158.0293 C   0  0  0  0  0  0  0  0  0  0  0  0
  153.1128  139.6101  157.1674 O   0  0  0  0  0  0  0  0  0  0  0  0
  152.4485  138.7849  156.2165 C   0  0  0  0  0  0  0  0  0  0  0  0
  151.4898  139.6433  155.3741 C   0  0  0  0  0  0  0  0  0  0  0  0
  146.5400  137.9428  155.0929 C   0  0  0  0  0  0  0  0  0  0  0  0
  146.2144  136.9578  155.9721 N   0  0  0  0  0  0  0  0  0  0  0  0
  145.6773  135.8109  155.5495 C   0  0  0  0  0  0  0  0  0  0  0  0
  145.3892  135.4365  154.3037 N   0  0  0  0  0  0  0  0  0  0  0  0
  145.7178  136.4100  153.4079 C   0  0  0  0  0  0  0  0  0  0  0  0
  146.2837  137.6834  153.7105 C   0  0  0  0  0  0  0  0  0  0  0  0
  146.4686  138.3950  152.5286 N   0  0  0  0  0  0  0  0  0  0  0  0
  146.0259  137.6008  151.5936 C   0  0  0  0  0  0  0  0  0  0  0  0
  145.5836  136.3744  152.0310 N   0  0  0  0  0  0  0  0  0  0  0  0
  145.0163  135.3264  151.2336 C   0  0  0  0  0  0  0  0  0  0  0  0
  144.3950  134.0895  151.8884 C   0  0  0  0  0  0  0  0  0  0  0  0
  144.9179  133.2022  150.7371 C   0  0  0  0  0  0  0  0  0  0  0  0
  145.5949  131.8940  151.1750 C   0  0  0  0  0  0  0  0  0  0  0  0
  146.8640  132.1351  151.7484 O   0  0  0  0  0  0  0  0  0  0  0  0
  143.9163  132.8415  149.6170 C   0  0  0  0  0  0  0  0  0  0  0  0
  142.6715  132.3814  150.1027 O   0  0  0  0  0  0  0  0  0  0  0  0
  145.8984  134.3587  150.4372 C   0  0  0  0  0  0  0  0  0  0  0  0
  147.4786  138.4359  157.5559 H   0  0  0  0  0  0  0  0  0  0  0  0
  146.1232  139.5709  157.3951 H   0  0  0  0  0  0  0  0  0  0  0  0
  147.7852  140.1443  157.2718 H   0  0  0  0  0  0  0  0  0  0  0  0
  146.7377  140.0621  153.7984 H   0  0  0  0  0  0  0  0  0  0  0  0
  146.9385  141.1626  155.1180 H   0  0  0  0  0  0  0  0  0  0  0  0
  149.2288  139.4090  154.1179 H   0  0  0  0  0  0  0  0  0  0  0  0
  148.7680  140.5238  152.3847 H   0  0  0  0  0  0  0  0  0  0  0  0
  150.2135  141.9288  154.8507 H   0  0  0  0  0  0  0  0  0  0  0  0
  148.9574  141.7131  156.0286 H   0  0  0  0  0  0  0  0  0  0  0  0
  151.8034  141.9422  156.6979 H   0  0  0  0  0  0  0  0  0  0  0  0
  150.5439  141.6392  157.8723 H   0  0  0  0  0  0  0  0  0  0  0  0
  152.7719  140.9159  158.7195 H   0  0  0  0  0  0  0  0  0  0  0  0
  151.6552  139.5656  158.6314 H   0  0  0  0  0  0  0  0  0  0  0  0
  153.1916  138.3079  155.5772 H   0  0  0  0  0  0  0  0  0  0  0  0
  151.9064  137.9887  156.7289 H   0  0  0  0  0  0  0  0  0  0  0  0
  150.9692  139.0033  154.6610 H   0  0  0  0  0  0  0  0  0  0  0  0
  152.0693  140.3570  154.7863 H   0  0  0  0  0  0  0  0  0  0  0  0
  145.4475  135.0895  156.3198 H   0  0  0  0  0  0  0  0  0  0  0  0
  146.0182  137.8901  150.5527 H   0  0  0  0  0  0  0  0  0  0  0  0
  144.2947  135.8159  150.5787 H   0  0  0  0  0  0  0  0  0  0  0  0
  144.8576  133.8536  152.8484 H   0  0  0  0  0  0  0  0  0  0  0  0
  143.3091  134.1275  151.9799 H   0  0  0  0  0  0  0  0  0  0  0  0
  144.9795  131.3524  151.8944 H   0  0  0  0  0  0  0  0  0  0  0  0
  145.7364  131.2248  150.3257 H   0  0  0  0  0  0  0  0  0  0  0  0
  147.5286  131.8694  151.1312 H   0  0  0  0  0  0  0  0  0  0  0  0
  143.7226  133.7045  148.9792 H   0  0  0  0  0  0  0  0  0  0  0  0
  144.3192  132.0611  148.9708 H   0  0  0  0  0  0  0  0  0  0  0  0
  142.0335  133.0700  149.9937 H   0  0  0  0  0  0  0  0  0  0  0  0
  146.0018  134.6117  149.3815 H   0  0  0  0  0  0  0  0  0  0  0  0
  146.8768  134.2137  150.8981 H   0  0  0  0  0  0  0  0  0  0  0  0
  1  2  1  0  0  0  0
  1 30  1  0  0  0  0
  1 31  1  0  0  0  0
  1 32  1  0  0  0  0
  2  3  1  0  0  0  0
  2 13  1  0  0  0  0
  3  4  1  0  0  0  0
  3 33  1  0  0  0  0
  3 34  1  0  0  0  0
  4  5  1  0  0  0  0
  4  6  1  0  0  0  0
  4 35  1  0  0  0  0
  5 36  1  0  0  0  0
  6  7  1  0  0  0  0
  6 37  1  0  0  0  0
  6 38  1  0  0  0  0
  7 12  1  0  0  0  0
  7  8  1  0  0  0  0
  8  9  1  0  0  0  0
  8 39  1  0  0  0  0
  8 40  1  0  0  0  0
  9 10  1  0  0  0  0
  9 41  1  0  0  0  0
  9 42  1  0  0  0  0
 10 11  1  0  0  0  0
 11 12  1  0  0  0  0
 11 43  1  0  0  0  0
 11 44  1  0  0  0  0
 12 45  1  0  0  0  0
 12 46  1  0  0  0  0
 13 18  1  0  0  0  0
 13 14  2  0  0  0  0
 14 15  1  0  0  0  0
 15 16  2  0  0  0  0
 15 47  1  0  0  0  0
 16 17  1  0  0  0  0
 17 21  1  0  0  0  0
 17 18  2  0  0  0  0
 18 19  1  0  0  0  0
 19 20  2  0  0  0  0
 20 21  1  0  0  0  0
 20 48  1  0  0  0  0
 21 22  1  0  0  0  0
 22 29  1  0  0  0  0
 22 23  1  0  0  0  0
 22 49  1  0  0  0  0
 23 24  1  0  0  0  0
 23 50  1  0  0  0  0
 23 51  1  0  0  0  0
 24 25  1  0  0  0  0
 24 27  1  0  0  0  0
 24 29  1  0  0  0  0
 25 26  1  0  0  0  0
 25 52  1  0  0  0  0
 25 53  1  0  0  0  0
 26 54  1  0  0  0  0
 27 28  1  0  0  0  0
 27 55  1  0  0  0  0
 27 56  1  0  0  0  0
 28 57  1  0  0  0  0
 29 58  1  0  0  0  0
 29 59  1  0  0  0  0
M  END
> <s_m_source_file>
AV-unprocessed.smi

> <i_m_source_file_index>
228

> <i_lp_mmshare_version>
43012

> <i_f3d_flags>
0

> <s_epik_input>
W0NIMl0xW0NIMl1PW0NIMl1bQ0gyXU4xW0NIMl1bQ0BASF0oW09IXSlbQ0gyXU4oW0NIM10pYyhuW2NIXW4yKWMoYzIzKW5bY0hdbjNbQ0hdKFtDSDJdNClbQ0gyXUM0KFtDSDJdW09IXSlbQ0gyXVtPSF0=

> <s_epik_cmdline>
J2VwaWtfcHl0aG9uJywgJy1waCcsICc3LjAnLCAnLXRuJywgJzgnLCAnLW1hJywgJzIwMCcsICctbWV0YWxfYmluZGluZycsICctaW1hZScsICc8aW5maWxlLm1hZT4nLCAnLW9tYWUnLCAnPG91dGZpbGUubWFlPic=

> <r_lp_tautomer_probability>
1

> <r_epik_Ionization_Penalty>
0.423559

> <r_epik_Ionization_Penalty_Charging>
0

> <r_epik_Ionization_Penalty_Neutral>
0.423559

> <r_epik_State_Penalty>
0.438466

> <r_epik_Charging_Adjusted_Penalty>
0.438466

> <i_epik_Tot_Q>
0

> <i_epik_Tot_abs_Q>
0

> <r_epik_Metal_State_Penalty>
0.436601

> <b_epik_Metal_Only>
0

> <s_lp_Force_Field>
OPLS_2005

> <r_lp_Energy>
57.656

> <b_lp_Chiralities_Consistent>
1

> <s_lp_Variant>
AV-unprocessed.smi:228-4

> <Gold.Version>
5.8.1

> <Gold.Id.Protein>
6NUR|6NUR_protein|mol2

> <Gold.PLP.Fitness>
52.7725

> <Gold.PLP.PLP>
-40.1250

> <Gold.PLP.part.hbond>
-5.9080

> <Gold.PLP.part.metal>
0.0000

> <Gold.PLP.part.buried>
-3.3802

> <Gold.PLP.part.nonpolar>
-31.4269

> <Gold.PLP.part.repulsive>
0.3560

> <Gold.PLP.ligand.clash>
0.0000

> <Gold.PLP.ligand.torsion>
2.2762

> <Gold.PLP.Chemscore.Hbond>
4.8000

> <Gold.PLP.Chemscore.CHOScore>
0.6498

> <Gold.PLP.Chemscore.Metal>
0.0000

> <Gold.Chemscore.Hbonds>
donor molecule, donor type, donor heavy atom, donor atom, acceptor molecule, acceptor atom, score
      L1  H     5    36       P1  7957  0.78
      L1  H    26    54       P1 10747  1.00
      L1  H    28    57       P1 10186  1.00
      P1  H  7997  8009       L1    10  0.86
      P1  H  8011  8017       L1     5  0.95
      L1  C    20    48       P1 10171  0.67

> <Gold.PLP.Chemscore.Internal.Correction>
0.8505

> <Gold.Rescore>
     Score         DG    S(hbond)    S(metal)    S(lipo)     H(rot)  DE(clash)    DE(int)     intcor
     11.76     -17.54       4.04        0.00      89.70       4.66       1.26       4.52       ----

> <Gold.Chemscore.Fitness>
11.7587

> <Gold.Chemscore.DG>
-17.5371

> <Gold.Chemscore.ZeroCoef>
-5.4800

> <Gold.Chemscore.Hbond>
4.0396

> <Gold.Chemscore.Metal>
0.0000

> <Gold.Chemscore.Lipo>
89.6967

> <Gold.Chemscore.Internal_Hbond>
0.0000

> <Gold.Chemscore.DEClash>
1.2603

> <Gold.Chemscore.DEInternal>
4.5181

> <Gold.Chemscore.Rot>
4.6600

> <Gold.Chemscore.Internal.Correction>
   9.000000E+99

> <Gold.Chemscore.Hbonds>
donor molecule, donor type, donor heavy atom, donor atom, acceptor molecule, acceptor atom, score
      L1  H     5    36       P1  7957  0.74
      L1  H    26    54       P1 10747  0.98
      L1  H    28    57       P1 10186  1.00
      P1  H  7997  8009       L1    10  0.81
      P1  H  8011  8017       L1     5  0.21

> <Gold.Chemscore.Hbond.Weighted>
-13.4923

> <Gold.Chemscore.Metal.Weighted>
-0.0000

> <Gold.Chemscore.Lipo.Weighted>
-10.4945

> <Gold.Chemscore.Internal_Hbond.Weighted>
0.0000

> <Gold.Chemscore.DEClash.Weighted>
1.2603

> <Gold.Chemscore.DEInternal.Weighted>
4.5181

> <Gold.Chemscore.Rot.Weighted>
11.9297

> <Gold.Chemscore.Internal.Correction.Weighted>
   9.000000E+99

> <Gold.Protein.RotatedTorsions>
[ 6907 6896 6895 6894 ] final    9.23 input  -60.11 | X-H torsion
[ 7974 7965 7964 7962 ] final    8.14 input  175.53 | X-H torsion
[ 8008 7997 7996 7995 ] final  163.22 input   59.86 | X-H torsion
[ 10167 10162 10161 10158 ] final  -53.49 input  -65.29 | X-H torsion
[ 10718 10713 10712 10709 ] final    9.94 input   66.30 | X-H torsion
[ 10763 10752 10751 10750 ] final -153.74 input  -60.55 | X-H torsion
[ 11005 11000 10999 10996 ] final   83.94 input  -57.11 | X-H torsion

> <Gold.Protein.ActiveResidues>
 VAL166  LYS551  ARG553  GLY616  TRP617  ASP618  TYR619  PRO620  LYS621  CYS622 
 ASP623  PHE694  ASN695  SER759  ASP760  ASP761  ALA762  ILE779  LEU786  VAL792 
 PHE793  MET794  SER795  GLU796  ALA797  LYS798  CYS799  TRP800  GLU811  SER814 

> <Gold.Protein.RotatedAtoms>
  151.7188  135.0898  160.0280 H   0  0  0  0  0  0  0  0  0  0  0  0  # atno 6907 bound_to 6896
  152.3615  133.6299  159.6027 H   0  0  0  0  0  0  0  0  0  0  0  0  # atno 6908 bound_to 6896
  150.7608  133.9332  159.3475 H   0  0  0  0  0  0  0  0  0  0  0  0  # atno 6909 bound_to 6896
  146.2419  139.9978  142.8419 H   0  0  0  0  0  0  0  0  0  0  0  0  # atno 7974 bound_to 7965
  156.1973  140.1729  156.7971 H   0  0  0  0  0  0  0  0  0  0  0  0  # atno 8008 bound_to 7997
  154.5546  140.0711  156.8754 H   0  0  0  0  0  0  0  0  0  0  0  0  # atno 8009 bound_to 7997
  155.2962  140.3358  155.4252 H   0  0  0  0  0  0  0  0  0  0  0  0  # atno 8010 bound_to 7997
  140.6482  143.2548  151.4800 H   0  0  0  0  0  0  0  0  0  0  0  0  # atno 10167 bound_to 10162
  156.9736  130.5979  149.5671 H   0  0  0  0  0  0  0  0  0  0  0  0  # atno 10718 bound_to 10713
  154.7907  135.3206  154.7784 H   0  0  0  0  0  0  0  0  0  0  0  0  # atno 10763 bound_to 10752
  153.8474  135.6865  153.4800 H   0  0  0  0  0  0  0  0  0  0  0  0  # atno 10764 bound_to 10752
  153.1576  135.4674  154.9666 H   0  0  0  0  0  0  0  0  0  0  0  0  # atno 10765 bound_to 10752
  139.9015  134.8181  156.2377 H   0  0  0  0  0  0  0  0  0  0  0  0  # atno 11005 bound_to 11000
  145.1444  140.9589  143.4470 LP  0  0  0  0  0  0  0  0  0  0  0  0  # atno 17320 bound_to 7965
  145.0265  139.3378  143.6046 LP  0  0  0  0  0  0  0  0  0  0  0  0  # atno 17321 bound_to 7965
  139.5694  144.1964  152.1814 LP  0  0  0  0  0  0  0  0  0  0  0  0  # atno 17342 bound_to 10162
  140.1256  144.5334  150.6835 LP  0  0  0  0  0  0  0  0  0  0  0  0  # atno 17343 bound_to 10162
  156.0272  130.5366  150.8439 LP  0  0  0  0  0  0  0  0  0  0  0  0  # atno 17370 bound_to 10713
  157.5575  131.0945  150.9607 LP  0  0  0  0  0  0  0  0  0  0  0  0  # atno 17371 bound_to 10713
  141.0305  133.6991  156.1421 LP  0  0  0  0  0  0  0  0  0  0  0  0  # atno 17394 bound_to 11000
  140.7104  134.4468  157.5582 LP  0  0  0  0  0  0  0  0  0  0  0  0  # atno 17395 bound_to 11000

$$$$
