AV-unprocessed.smi:153|AV-procd|sdf|1259|dock1
  -GOLD-   2262018503D 1   1.00000     0.00000
 Structure written by MMmdl.
 59 62  0  0  0  0  0  0  0  0  1 V2000
  139.5858  146.0402  154.6975 C   0  0  0  0  0  0  0  0  0  0  0  0
  140.4104  145.0561  155.5425 C   0  0  1  0  0  0  0  0  0  0  0  0
  139.5719  144.0051  156.0070 O   0  0  0  0  0  0  0  0  0  0  0  0
  140.3964  142.8917  156.2989 C   0  0  0  0  0  0  0  0  0  0  0  0
  141.3444  142.8723  155.1098 C   0  0  0  0  0  0  0  0  0  0  0  0
  141.6078  144.3579  154.8408 C   0  0  1  0  0  0  0  0  0  0  0  0
  141.5970  144.5593  153.4368 O   0  0  0  0  0  0  0  0  0  0  0  0
  142.9603  144.8701  155.4023 C   0  0  0  0  0  0  0  0  0  0  0  0
  144.1090  144.0638  155.0160 N   0  0  0  0  0  0  0  0  0  0  0  0
  144.7947  144.1252  153.8267 C   0  0  0  0  0  0  0  0  0  0  0  0
  145.7856  143.2861  153.7182 N   0  0  0  0  0  0  0  0  0  0  0  0
  145.8048  142.5966  154.9274 C   0  0  0  0  0  0  0  0  0  0  0  0
  146.6066  141.5472  155.4810 C   0  0  0  0  0  0  0  0  0  0  0  0
  147.6285  140.9055  154.8364 N   0  0  0  0  0  0  0  0  0  0  0  0
  147.9267  141.2757  153.4537 C   0  0  0  0  0  0  0  0  0  0  0  0
  148.7069  140.2757  155.5975 C   0  0  0  0  0  0  0  0  0  0  0  0
  149.8802  141.2386  155.8940 C   0  0  2  0  0  0  0  0  0  0  0  0
  151.1068  140.6549  155.5052 O   0  0  0  0  0  0  0  0  0  0  0  0
  149.9659  141.6822  157.3717 C   0  0  0  0  0  0  0  0  0  0  0  0
  151.1804  142.3938  157.7791 N   0  0  0  0  0  0  0  0  0  0  0  0
  151.6113  141.9658  159.1060 C   0  0  0  0  0  0  0  0  0  0  0  0
  152.8882  142.6928  159.5607 C   0  0  0  0  0  0  0  0  0  0  0  0
  152.6699  144.0990  159.5326 O   0  0  0  0  0  0  0  0  0  0  0  0
  152.2924  144.5689  158.2430 C   0  0  0  0  0  0  0  0  0  0  0  0
  151.0155  143.8456  157.7810 C   0  0  0  0  0  0  0  0  0  0  0  0
  146.3062  141.1631  156.7524 N   0  0  0  0  0  0  0  0  0  0  0  0
  145.3023  141.7277  157.4268 C   0  0  0  0  0  0  0  0  0  0  0  0
  144.4696  142.6880  157.0289 N   0  0  0  0  0  0  0  0  0  0  0  0
  144.7611  143.0968  155.7621 C   0  0  0  0  0  0  0  0  0  0  0  0
  140.2063  146.8560  154.3260 H   0  0  0  0  0  0  0  0  0  0  0  0
  138.7835  146.4792  155.2909 H   0  0  0  0  0  0  0  0  0  0  0  0
  139.1267  145.5451  153.8411 H   0  0  0  0  0  0  0  0  0  0  0  0
  140.7656  145.5817  156.4305 H   0  0  0  0  0  0  0  0  0  0  0  0
  140.9370  143.0603  157.2317 H   0  0  0  0  0  0  0  0  0  0  0  0
  139.8163  141.9735  156.3918 H   0  0  0  0  0  0  0  0  0  0  0  0
  142.2371  142.2784  155.2986 H   0  0  0  0  0  0  0  0  0  0  0  0
  140.8262  142.4133  154.2658 H   0  0  0  0  0  0  0  0  0  0  0  0
  140.9112  144.0265  153.0644 H   0  0  0  0  0  0  0  0  0  0  0  0
  143.1392  145.8935  155.0695 H   0  0  0  0  0  0  0  0  0  0  0  0
  142.9239  144.9085  156.4917 H   0  0  0  0  0  0  0  0  0  0  0  0
  144.5314  144.8098  153.0334 H   0  0  0  0  0  0  0  0  0  0  0  0
  147.0568  141.1224  152.8142 H   0  0  0  0  0  0  0  0  0  0  0  0
  148.7394  140.6713  153.0506 H   0  0  0  0  0  0  0  0  0  0  0  0
  148.2269  142.3224  153.3908 H   0  0  0  0  0  0  0  0  0  0  0  0
  148.2978  139.8591  156.5150 H   0  0  0  0  0  0  0  0  0  0  0  0
  149.0756  139.4035  155.0564 H   0  0  0  0  0  0  0  0  0  0  0  0
  149.7740  142.1479  155.3015 H   0  0  0  0  0  0  0  0  0  0  0  0
  151.0109  139.7153  155.5295 H   0  0  0  0  0  0  0  0  0  0  0  0
  149.0802  142.2588  157.6433 H   0  0  0  0  0  0  0  0  0  0  0  0
  149.9041  140.7689  157.9650 H   0  0  0  0  0  0  0  0  0  0  0  0
  150.8158  142.1482  159.8301 H   0  0  0  0  0  0  0  0  0  0  0  0
  151.7931  140.8904  159.1071 H   0  0  0  0  0  0  0  0  0  0  0  0
  153.1552  142.3934  160.5744 H   0  0  0  0  0  0  0  0  0  0  0  0
  153.7303  142.4347  158.9167 H   0  0  0  0  0  0  0  0  0  0  0  0
  152.1228  145.6446  158.2903 H   0  0  0  0  0  0  0  0  0  0  0  0
  153.1063  144.4035  157.5353 H   0  0  0  0  0  0  0  0  0  0  0  0
  150.7624  144.1990  156.7826 H   0  0  0  0  0  0  0  0  0  0  0  0
  150.1864  144.1233  158.4335 H   0  0  0  0  0  0  0  0  0  0  0  0
  145.1403  141.3512  158.4261 H   0  0  0  0  0  0  0  0  0  0  0  0
  1  2  1  0  0  0  0
  1 30  1  0  0  0  0
  1 31  1  0  0  0  0
  1 32  1  0  0  0  0
  2  6  1  0  0  0  0
  2  3  1  0  0  0  0
  2 33  1  0  0  0  0
  3  4  1  0  0  0  0
  4  5  1  0  0  0  0
  4 34  1  0  0  0  0
  4 35  1  0  0  0  0
  5  6  1  0  0  0  0
  5 36  1  0  0  0  0
  5 37  1  0  0  0  0
  6  7  1  0  0  0  0
  6  8  1  0  0  0  0
  7 38  1  0  0  0  0
  8  9  1  0  0  0  0
  8 39  1  0  0  0  0
  8 40  1  0  0  0  0
  9 29  1  0  0  0  0
  9 10  1  0  0  0  0
 10 11  2  0  0  0  0
 10 41  1  0  0  0  0
 11 12  1  0  0  0  0
 12 29  2  0  0  0  0
 12 13  1  0  0  0  0
 13 14  1  0  0  0  0
 13 26  2  0  0  0  0
 14 15  1  0  0  0  0
 14 16  1  0  0  0  0
 15 42  1  0  0  0  0
 15 43  1  0  0  0  0
 15 44  1  0  0  0  0
 16 17  1  0  0  0  0
 16 45  1  0  0  0  0
 16 46  1  0  0  0  0
 17 18  1  0  0  0  0
 17 19  1  0  0  0  0
 17 47  1  0  0  0  0
 18 48  1  0  0  0  0
 19 20  1  0  0  0  0
 19 49  1  0  0  0  0
 19 50  1  0  0  0  0
 20 25  1  0  0  0  0
 20 21  1  0  0  0  0
 21 22  1  0  0  0  0
 21 51  1  0  0  0  0
 21 52  1  0  0  0  0
 22 23  1  0  0  0  0
 22 53  1  0  0  0  0
 22 54  1  0  0  0  0
 23 24  1  0  0  0  0
 24 25  1  0  0  0  0
 24 55  1  0  0  0  0
 24 56  1  0  0  0  0
 25 57  1  0  0  0  0
 25 58  1  0  0  0  0
 26 27  1  0  0  0  0
 27 28  2  0  0  0  0
 27 59  1  0  0  0  0
 28 29  1  0  0  0  0
M  END
> <s_m_source_file>
AV-unprocessed.smi

> <i_m_source_file_index>
153

> <i_lp_mmshare_version>
43012

> <i_f3d_flags>
0

> <s_epik_input>
W0NIMl0xW0NIMl1PW0NAQEhdKFtDSDNdKVtDQEBdMShbT0hdKVtDSDJdbihbY0hdbjIpYyhjMjMpbltjSF1uYzNOKFtDSDNdKVtDSDJdW0NASF0oW09IXSlbQ0gyXU40W0NIMl1bQ0gyXU9bQ0gyXVtDSDJdNA==

> <s_epik_cmdline>
J2VwaWtfcHl0aG9uJywgJy1waCcsICc3LjAnLCAnLXRuJywgJzgnLCAnLW1hJywgJzIwMCcsICctbWV0YWxfYmluZGluZycsICctaW1hZScsICc8aW5maWxlLm1hZT4nLCAnLW9tYWUnLCAnPG91dGZpbGUubWFlPic=

> <r_lp_tautomer_probability>
1

> <r_epik_Ionization_Penalty>
0.424123

> <r_epik_Ionization_Penalty_Charging>
0

> <r_epik_Ionization_Penalty_Neutral>
0.424123

> <r_epik_State_Penalty>
0.421495

> <r_epik_Charging_Adjusted_Penalty>
0.421495

> <i_epik_Tot_Q>
0

> <i_epik_Tot_abs_Q>
0

> <r_epik_Metal_State_Penalty>
0.421223

> <b_epik_Metal_Only>
0

> <s_lp_Force_Field>
OPLS_2005

> <r_lp_Energy>
57.6451

> <b_lp_Chiralities_Consistent>
1

> <s_lp_Variant>
AV-unprocessed.smi:153-10

> <Gold.Version>
5.8.1

> <Gold.Id.Protein>
6NUR|6NUR_protein|mol2

> <Gold.PLP.Fitness>
47.1714

> <Gold.PLP.PLP>
-44.8940

> <Gold.PLP.part.hbond>
-4.0950

> <Gold.PLP.part.metal>
0.0000

> <Gold.PLP.part.buried>
-6.2206

> <Gold.PLP.part.nonpolar>
-34.8223

> <Gold.PLP.part.repulsive>
0.3528

> <Gold.PLP.ligand.clash>
0.0000

> <Gold.PLP.ligand.torsion>
2.0449

> <Gold.PLP.Chemscore.Hbond>
1.8564

> <Gold.PLP.Chemscore.CHOScore>
0.0000

> <Gold.PLP.Chemscore.Metal>
0.0000

> <Gold.Chemscore.Hbonds>
donor molecule, donor type, donor heavy atom, donor atom, acceptor molecule, acceptor atom, score
      L1  H     7    38       P1 10162  0.80
      P1  H  7989  7998       L1    18  0.74

> <Gold.PLP.Chemscore.Internal.Correction>
0.7978

> <Gold.Rescore>
     Score         DG    S(hbond)    S(metal)    S(lipo)     H(rot)  DE(clash)    DE(int)     intcor
      7.97     -11.96       1.34        0.00      94.07       3.52       0.75       3.24       ----

> <Gold.Chemscore.Fitness>
7.9652

> <Gold.Chemscore.DG>
-11.9554

> <Gold.Chemscore.ZeroCoef>
-5.4800

> <Gold.Chemscore.Hbond>
1.3391

> <Gold.Chemscore.Metal>
0.0000

> <Gold.Chemscore.Lipo>
94.0721

> <Gold.Chemscore.Internal_Hbond>
0.0000

> <Gold.Chemscore.DEClash>
0.7461

> <Gold.Chemscore.DEInternal>
3.2441

> <Gold.Chemscore.Rot>
3.5170

> <Gold.Chemscore.Internal.Correction>
   9.000000E+99

> <Gold.Chemscore.Hbonds>
donor molecule, donor type, donor heavy atom, donor atom, acceptor molecule, acceptor atom, score
      L1  H     7    38       P1 10162  0.61
      P1  H  7989  7998       L1    18  0.17

> <Gold.Chemscore.Hbond.Weighted>
-4.4726

> <Gold.Chemscore.Metal.Weighted>
-0.0000

> <Gold.Chemscore.Lipo.Weighted>
-11.0064

> <Gold.Chemscore.Internal_Hbond.Weighted>
0.0000

> <Gold.Chemscore.DEClash.Weighted>
0.7461

> <Gold.Chemscore.DEInternal.Weighted>
3.2441

> <Gold.Chemscore.Rot.Weighted>
9.0036

> <Gold.Chemscore.Internal.Correction.Weighted>
   9.000000E+99

> <Gold.Protein.RotatedTorsions>
[ 6907 6896 6895 6894 ] final  -38.58 input  -60.11 | X-H torsion
[ 7974 7965 7964 7962 ] final  168.05 input  175.53 | X-H torsion
[ 8008 7997 7996 7995 ] final -162.86 input   59.86 | X-H torsion
[ 10167 10162 10161 10158 ] final   68.05 input  -65.29 | X-H torsion
[ 10718 10713 10712 10709 ] final  -90.07 input   66.30 | X-H torsion
[ 10763 10752 10751 10750 ] final  111.97 input  -60.55 | X-H torsion
[ 11005 11000 10999 10996 ] final  171.68 input  -57.11 | X-H torsion

> <Gold.Protein.ActiveResidues>
 VAL166  LYS551  ARG553  GLY616  TRP617  ASP618  TYR619  PRO620  LYS621  CYS622 
 ASP623  PHE694  ASN695  SER759  ASP760  ASP761  ALA762  ILE779  LEU786  VAL792 
 PHE793  MET794  SER795  GLU796  ALA797  LYS798  CYS799  TRP800  GLU811  SER814 

> <Gold.Protein.RotatedAtoms>
  151.0008  134.9320  159.7952 H   0  0  0  0  0  0  0  0  0  0  0  0  # atno 6907 bound_to 6896
  152.5277  134.3157  159.9140 H   0  0  0  0  0  0  0  0  0  0  0  0  # atno 6908 bound_to 6896
  151.3163  133.4017  159.2685 H   0  0  0  0  0  0  0  0  0  0  0  0  # atno 6909 bound_to 6896
  144.7402  139.8850  143.6399 H   0  0  0  0  0  0  0  0  0  0  0  0  # atno 7974 bound_to 7965
  155.8129  140.0908  157.1893 H   0  0  0  0  0  0  0  0  0  0  0  0  # atno 8008 bound_to 7997
  154.3979  140.1451  156.3468 H   0  0  0  0  0  0  0  0  0  0  0  0  # atno 8009 bound_to 7997
  155.8346  140.3441  155.5596 H   0  0  0  0  0  0  0  0  0  0  0  0  # atno 8010 bound_to 7997
  140.0828  144.5056  150.7150 H   0  0  0  0  0  0  0  0  0  0  0  0  # atno 10167 bound_to 10162
  155.9986  130.4896  150.5267 H   0  0  0  0  0  0  0  0  0  0  0  0  # atno 10718 bound_to 10713
  153.4711  135.3700  155.2391 H   0  0  0  0  0  0  0  0  0  0  0  0  # atno 10763 bound_to 10752
  154.8757  135.3931  154.3811 H   0  0  0  0  0  0  0  0  0  0  0  0  # atno 10764 bound_to 10752
  153.4399  135.7084  153.6240 H   0  0  0  0  0  0  0  0  0  0  0  0  # atno 10765 bound_to 10752
  140.3215  134.7433  157.4068 H   0  0  0  0  0  0  0  0  0  0  0  0  # atno 11005 bound_to 11000
  146.1183  139.4197  143.0244 LP  0  0  0  0  0  0  0  0  0  0  0  0  # atno 17320 bound_to 7965
  145.7342  141.0031  143.1335 LP  0  0  0  0  0  0  0  0  0  0  0  0  # atno 17321 bound_to 7965
  140.7069  143.2474  151.4700 LP  0  0  0  0  0  0  0  0  0  0  0  0  # atno 17342 bound_to 10162
  139.5769  144.1797  152.1916 LP  0  0  0  0  0  0  0  0  0  0  0  0  # atno 17343 bound_to 10162
  157.3221  131.0684  151.1924 LP  0  0  0  0  0  0  0  0  0  0  0  0  # atno 17370 bound_to 10713
  157.2833  130.6761  149.6077 LP  0  0  0  0  0  0  0  0  0  0  0  0  # atno 17371 bound_to 10713
  140.0937  134.5566  155.8419 LP  0  0  0  0  0  0  0  0  0  0  0  0  # atno 17394 bound_to 11000
  141.2085  133.6674  156.6377 LP  0  0  0  0  0  0  0  0  0  0  0  0  # atno 17395 bound_to 11000

$$$$
