AV-unprocessed.smi:2746|AV-procd|sdf|10575|dock2
  -GOLD-   2272015 23D 1   1.00000     0.00000
 Structure written by MMmdl.
 38 39  0  0  0  0  0  0  0  0  3 V2000
  146.4064  142.8477  153.8058 C   0  0  0  0  0  0  0  0  0  0  0  0
  146.9731  141.8270  154.4747 C   0  0  0  0  0  0  0  0  0  0  0  0
  148.4510  141.4566  154.4979 C   0  0  2  0  0  0  0  0  0  0  0  0
  148.6318  139.9799  154.1182 C   0  0  0  0  0  0  0  0  0  0  0  0
  149.1488  141.6959  155.7649 N   0  5  0  0  0  0  0  0  0  0  0  0
  150.4590  141.4032  155.9973 C   0  0  0  0  0  0  0  0  0  0  0  0
  151.1950  140.5798  155.4420 O   0  0  0  0  0  0  0  0  0  0  0  0
  151.0216  142.1813  157.1555 C   0  0  0  0  0  0  0  0  0  0  0  0
  151.8361  141.5948  158.1555 C   0  0  0  0  0  0  0  0  0  0  0  0
  152.3143  142.3726  159.2376 C   0  0  0  0  0  0  0  0  0  0  0  0
  153.1304  141.7788  160.2238 N   0  0  0  0  0  0  0  0  0  0  0  0
  153.3469  142.5711  161.4321 C   0  0  0  0  0  0  0  0  0  0  0  0
  153.9510  141.6960  162.5443 C   0  0  0  0  0  0  0  0  0  0  0  0
  155.1362  141.0643  162.0709 O   0  0  0  0  0  0  0  0  0  0  0  0
  154.8744  140.2088  160.9634 C   0  0  0  0  0  0  0  0  0  0  0  0
  154.3108  141.0350  159.7947 C   0  0  0  0  0  0  0  0  0  0  0  0
  151.9480  143.7420  159.2814 C   0  0  0  0  0  0  0  0  0  0  0  0
  151.1222  144.2757  158.2732 C   0  0  0  0  0  0  0  0  0  0  0  0
  150.6920  143.4870  157.2677 N   0  3  0  0  0  0  0  0  0  0  0  0
  146.9755  143.5332  153.1933 H   0  0  0  0  0  0  0  0  0  0  0  0
  145.3409  143.0116  153.8661 H   0  0  0  0  0  0  0  0  0  0  0  0
  146.3310  141.1889  155.0641 H   0  0  0  0  0  0  0  0  0  0  0  0
  148.8919  142.0410  153.6889 H   0  0  0  0  0  0  0  0  0  0  0  0
  148.1746  139.7639  153.1520 H   0  0  0  0  0  0  0  0  0  0  0  0
  148.1751  139.3191  154.8561 H   0  0  0  0  0  0  0  0  0  0  0  0
  149.6876  139.7167  154.0434 H   0  0  0  0  0  0  0  0  0  0  0  0
  152.1031  140.5506  158.0815 H   0  0  0  0  0  0  0  0  0  0  0  0
  154.0250  143.3924  161.1963 H   0  0  0  0  0  0  0  0  0  0  0  0
  152.4228  143.0190  161.7948 H   0  0  0  0  0  0  0  0  0  0  0  0
  154.1978  142.3091  163.4112 H   0  0  0  0  0  0  0  0  0  0  0  0
  153.2344  140.9445  162.8800 H   0  0  0  0  0  0  0  0  0  0  0  0
  155.8015  139.7195  160.6650 H   0  0  0  0  0  0  0  0  0  0  0  0
  154.1778  139.4209  161.2544 H   0  0  0  0  0  0  0  0  0  0  0  0
  154.0570  140.3681  158.9698 H   0  0  0  0  0  0  0  0  0  0  0  0
  155.0683  141.7326  159.4347 H   0  0  0  0  0  0  0  0  0  0  0  0
  152.2730  144.3917  160.0797 H   0  0  0  0  0  0  0  0  0  0  0  0
  150.7923  145.3036  158.2428 H   0  0  0  0  0  0  0  0  0  0  0  0
  150.0911  143.8906  156.5486 H   0  0  0  0  0  0  0  0  0  0  0  0
  1  2  2  0  0  0  0
  1 20  1  0  0  0  0
  1 21  1  0  0  0  0
  2  3  1  0  0  0  0
  2 22  1  0  0  0  0
  3  4  1  0  0  0  0
  3  5  1  0  0  0  0
  3 23  1  0  0  0  0
  4 24  1  0  0  0  0
  4 25  1  0  0  0  0
  4 26  1  0  0  0  0
  5  6  1  0  0  0  0
  6  7  2  0  0  0  0
  6  8  1  0  0  0  0
  8 19  1  0  0  0  0
  8  9  2  0  0  0  0
  9 10  1  0  0  0  0
  9 27  1  0  0  0  0
 10 11  1  0  0  0  0
 10 17  2  0  0  0  0
 11 16  1  0  0  0  0
 11 12  1  0  0  0  0
 12 13  1  0  0  0  0
 12 28  1  0  0  0  0
 12 29  1  0  0  0  0
 13 14  1  0  0  0  0
 13 30  1  0  0  0  0
 13 31  1  0  0  0  0
 14 15  1  0  0  0  0
 15 16  1  0  0  0  0
 15 32  1  0  0  0  0
 15 33  1  0  0  0  0
 16 34  1  0  0  0  0
 16 35  1  0  0  0  0
 17 18  1  0  0  0  0
 17 36  1  0  0  0  0
 18 19  2  0  0  0  0
 18 37  1  0  0  0  0
 19 38  1  0  0  0  0
M  CHG  1   5  -1
M  CHG  1  19   1
M  END
> <s_m_source_file>
AV-unprocessed.smi

> <i_m_source_file_index>
2746

> <i_lp_mmshare_version>
43012

> <i_f3d_flags>
0

> <s_epik_input>
W0NIMl09W0NIXVtDQEhdKFtDSDNdKVtOSF1DKD1PKWMxW2NIXWMoW2NIXVtjSF1uMSlOMltDSDJdW0NIMl1PW0NIMl1bQ0gyXTI=

> <s_epik_cmdline>
J2VwaWtfcHl0aG9uJywgJy1waCcsICc3LjAnLCAnLXRuJywgJzgnLCAnLW1hJywgJzIwMCcsICctbWV0YWxfYmluZGluZycsICctaW1hZScsICc8aW5maWxlLm1hZT4nLCAnLW9tYWUnLCAnPG91dGZpbGUubWFlPic=

> <r_lp_tautomer_probability>
1

> <r_epik_Ionization_Penalty>
4.23471

> <r_epik_Ionization_Penalty_Charging>
4.23471

> <r_epik_Ionization_Penalty_Neutral>
3.18831e-12

> <r_epik_State_Penalty>
4.68748

> <r_epik_Charging_Adjusted_Penalty>
8.92219

> <i_epik_Tot_Q>
0

> <i_epik_Tot_abs_Q>
2

> <r_epik_Metal_State_Penalty>
1.16626

> <b_epik_Metal_Only>
1

> <s_lp_Force_Field>
OPLS_2005

> <r_lp_Energy>
19.089

> <b_lp_Chiralities_Consistent>
1

> <s_lp_Variant>
AV-unprocessed.smi:2746-5

> <Gold.Version>
5.8.1

> <Gold.Id.Protein>
6NUR|6NUR_protein|mol2

> <Gold.PLP.Fitness>
52.2397

> <Gold.PLP.PLP>
-45.0821

> <Gold.PLP.part.hbond>
-3.0000

> <Gold.PLP.part.metal>
0.0000

> <Gold.PLP.part.buried>
-5.6574

> <Gold.PLP.part.nonpolar>
-36.3277

> <Gold.PLP.part.repulsive>
0.7732

> <Gold.PLP.ligand.clash>
0.0000

> <Gold.PLP.ligand.torsion>
1.0514

> <Gold.PLP.Chemscore.Hbond>
2.8480

> <Gold.PLP.Chemscore.CHOScore>
0.0000

> <Gold.PLP.Chemscore.Metal>
0.0000

> <Gold.Chemscore.Hbonds>
donor molecule, donor type, donor heavy atom, donor atom, acceptor molecule, acceptor atom, score
      L1  H    19    38       P1  8028  2.00
      P1  H  7989  7998       L1     7  0.86

> <Gold.PLP.Chemscore.Internal.Correction>
0.7165

> <Gold.Rescore>
     Score         DG    S(hbond)    S(metal)    S(lipo)     H(rot)  DE(clash)    DE(int)     intcor
     18.17     -21.46       1.81        0.00     112.73       1.27       1.44       1.84       ----

> <Gold.Chemscore.Fitness>
18.1718

> <Gold.Chemscore.DG>
-21.4557

> <Gold.Chemscore.ZeroCoef>
-5.4800

> <Gold.Chemscore.Hbond>
1.8109

> <Gold.Chemscore.Metal>
0.0000

> <Gold.Chemscore.Lipo>
112.7286

> <Gold.Chemscore.Internal_Hbond>
0.0000

> <Gold.Chemscore.DEClash>
1.4434

> <Gold.Chemscore.DEInternal>
1.8405

> <Gold.Chemscore.Rot>
1.2742

> <Gold.Chemscore.Internal.Correction>
   9.000000E+99

> <Gold.Chemscore.Hbonds>
donor molecule, donor type, donor heavy atom, donor atom, acceptor molecule, acceptor atom, score
      L1  H    19    38       P1  8028  1.00
      P1  H  7989  7998       L1     7  0.78

> <Gold.Chemscore.Hbond.Weighted>
-6.0484

> <Gold.Chemscore.Metal.Weighted>
-0.0000

> <Gold.Chemscore.Lipo.Weighted>
-13.1892

> <Gold.Chemscore.Internal_Hbond.Weighted>
0.0000

> <Gold.Chemscore.DEClash.Weighted>
1.4434

> <Gold.Chemscore.DEInternal.Weighted>
1.8405

> <Gold.Chemscore.Rot.Weighted>
3.2619

> <Gold.Chemscore.Internal.Correction.Weighted>
   9.000000E+99

> <Gold.Protein.RotatedTorsions>
[ 6907 6896 6895 6894 ] final -134.64 input  -60.11 | X-H torsion
[ 7974 7965 7964 7962 ] final -121.73 input  175.53 | X-H torsion
[ 8008 7997 7996 7995 ] final  117.24 input   59.86 | X-H torsion
[ 10167 10162 10161 10158 ] final    1.09 input  -65.29 | X-H torsion
[ 10718 10713 10712 10709 ] final  -65.35 input   66.30 | X-H torsion
[ 10763 10752 10751 10750 ] final -154.85 input  -60.55 | X-H torsion
[ 11005 11000 10999 10996 ] final   53.82 input  -57.11 | X-H torsion

> <Gold.Protein.ActiveResidues>
 VAL166  LYS551  ARG553  GLY616  TRP617  ASP618  TYR619  PRO620  LYS621  CYS622 
 ASP623  PHE694  ASN695  SER759  ASP760  ASP761  ALA762  ILE779  LEU786  VAL792 
 PHE793  MET794  SER795  GLU796  ALA797  LYS798  CYS799  TRP800  GLU811  SER814 

> <Gold.Protein.RotatedAtoms>
  150.9883  133.6175  159.2711 H   0  0  0  0  0  0  0  0  0  0  0  0  # atno 6907 bound_to 6896
  151.3406  135.0861  159.9379 H   0  0  0  0  0  0  0  0  0  0  0  0  # atno 6908 bound_to 6896
  152.5238  133.9495  159.7719 H   0  0  0  0  0  0  0  0  0  0  0  0  # atno 6909 bound_to 6896
  145.0371  140.8115  143.4288 H   0  0  0  0  0  0  0  0  0  0  0  0  # atno 7974 bound_to 7965
  156.2483  140.2900  156.0648 H   0  0  0  0  0  0  0  0  0  0  0  0  # atno 8008 bound_to 7997
  155.1736  140.0402  157.2885 H   0  0  0  0  0  0  0  0  0  0  0  0  # atno 8009 bound_to 7997
  154.6309  140.2499  155.7442 H   0  0  0  0  0  0  0  0  0  0  0  0  # atno 8010 bound_to 7997
  140.6699  143.7078  150.7901 H   0  0  0  0  0  0  0  0  0  0  0  0  # atno 10167 bound_to 10162
  156.0675  130.4246  150.1551 H   0  0  0  0  0  0  0  0  0  0  0  0  # atno 10718 bound_to 10713
  154.7829  135.3180  154.7950 H   0  0  0  0  0  0  0  0  0  0  0  0  # atno 10763 bound_to 10752
  153.8657  135.6849  153.4783 H   0  0  0  0  0  0  0  0  0  0  0  0  # atno 10764 bound_to 10752
  153.1471  135.4715  154.9520 H   0  0  0  0  0  0  0  0  0  0  0  0  # atno 10765 bound_to 10752
  140.0736  134.5436  155.9020 H   0  0  0  0  0  0  0  0  0  0  0  0  # atno 11005 bound_to 11000
  145.1695  139.2412  143.5349 LP  0  0  0  0  0  0  0  0  0  0  0  0  # atno 17320 bound_to 7965
  146.3505  140.1443  142.8594 LP  0  0  0  0  0  0  0  0  0  0  0  0  # atno 17321 bound_to 7965
  140.0762  143.5013  152.2554 LP  0  0  0  0  0  0  0  0  0  0  0  0  # atno 17342 bound_to 10162
  139.5962  144.7568  151.3280 LP  0  0  0  0  0  0  0  0  0  0  0  0  # atno 17343 bound_to 10162
  156.9608  130.9804  151.3479 LP  0  0  0  0  0  0  0  0  0  0  0  0  # atno 17370 bound_to 10713
  157.5725  130.8320  149.8411 LP  0  0  0  0  0  0  0  0  0  0  0  0  # atno 17371 bound_to 10713
  141.2021  133.6623  156.5988 LP  0  0  0  0  0  0  0  0  0  0  0  0  # atno 17394 bound_to 11000
  140.3591  134.7703  157.4521 LP  0  0  0  0  0  0  0  0  0  0  0  0  # atno 17395 bound_to 11000

$$$$
