AV-unprocessed.smi:1446|AV-procd|sdf|5890|dock2
  -GOLD-   22720 5573D 1   1.00000     0.00000
 Structure written by MMmdl.
 47 48  0  0  0  0  0  0  0  0  1 V2000
  159.8634  142.4438  164.7728 C   0  0  0  0  0  0  0  0  0  0  0  0
  158.5202  142.9758  165.2597 C   0  0  0  0  0  0  0  0  0  0  0  0
  158.1400  144.0972  164.9241 O   0  0  0  0  0  0  0  0  0  0  0  0
  157.8116  142.1587  166.0544 N   0  0  0  0  0  0  0  0  0  0  0  0
  156.4977  142.4590  166.6281 C   0  0  1  0  0  0  0  0  0  0  0  0
  155.5322  142.8456  165.4905 C   0  0  0  0  0  0  0  0  0  0  0  0
  154.9765  143.9456  165.5020 O   0  0  0  0  0  0  0  0  0  0  0  0
  155.3775  141.9222  164.5228 N   0  0  0  0  0  0  0  0  0  0  0  0
  154.5991  142.0086  163.3386 C   0  0  0  0  0  0  0  0  0  0  0  0
  153.5371  142.9358  163.3871 C   0  0  0  0  0  0  0  0  0  0  0  0
  152.6969  143.0859  162.2678 C   0  0  0  0  0  0  0  0  0  0  0  0
  152.9246  142.3056  161.1119 C   0  0  0  0  0  0  0  0  0  0  0  0
  152.0892  142.4364  159.9811 N   0  0  0  0  0  0  0  0  0  0  0  0
  151.9471  143.7586  159.3784 C   0  0  0  0  0  0  0  0  0  0  0  0
  150.7858  143.7660  158.3697 C   0  0  0  0  0  0  0  0  0  0  0  0
  150.9849  142.7407  157.4023 O   0  0  0  0  0  0  0  0  0  0  0  0
  151.0085  141.4484  157.9994 C   0  0  0  0  0  0  0  0  0  0  0  0
  152.1738  141.3566  159.0004 C   0  0  0  0  0  0  0  0  0  0  0  0
  154.0214  141.4108  161.1578 C   0  0  0  0  0  0  0  0  0  0  0  0
  154.8273  141.2643  162.2304 N   0  0  0  0  0  0  0  0  0  0  0  0
  155.9710  141.1928  167.3672 C   0  0  0  0  0  0  0  0  0  0  0  0
  154.7155  141.4668  168.2215 C   0  0  0  0  0  0  0  0  0  0  0  0
  157.0559  140.5569  168.2588 C   0  0  0  0  0  0  0  0  0  0  0  0
  159.7283  141.5092  164.2279 H   0  0  0  0  0  0  0  0  0  0  0  0
  160.5283  142.2596  165.6170 H   0  0  0  0  0  0  0  0  0  0  0  0
  160.3464  143.1600  164.1074 H   0  0  0  0  0  0  0  0  0  0  0  0
  158.2022  141.2529  166.2701 H   0  0  0  0  0  0  0  0  0  0  0  0
  156.5870  143.2829  167.3396 H   0  0  0  0  0  0  0  0  0  0  0  0
  155.8877  141.0599  164.6455 H   0  0  0  0  0  0  0  0  0  0  0  0
  153.3628  143.5302  164.2721 H   0  0  0  0  0  0  0  0  0  0  0  0
  151.8940  143.8069  162.3058 H   0  0  0  0  0  0  0  0  0  0  0  0
  151.7594  144.5068  160.1488 H   0  0  0  0  0  0  0  0  0  0  0  0
  152.8764  144.0283  158.8749 H   0  0  0  0  0  0  0  0  0  0  0  0
  149.8295  143.6236  158.8760 H   0  0  0  0  0  0  0  0  0  0  0  0
  150.7364  144.7290  157.8613 H   0  0  0  0  0  0  0  0  0  0  0  0
  150.0563  141.2462  158.4925 H   0  0  0  0  0  0  0  0  0  0  0  0
  151.1264  140.6985  157.2172 H   0  0  0  0  0  0  0  0  0  0  0  0
  153.1249  141.4357  158.4720 H   0  0  0  0  0  0  0  0  0  0  0  0
  152.1557  140.3764  159.4748 H   0  0  0  0  0  0  0  0  0  0  0  0
  154.2691  140.7720  160.3238 H   0  0  0  0  0  0  0  0  0  0  0  0
  155.6947  140.4464  166.6200 H   0  0  0  0  0  0  0  0  0  0  0  0
  154.9041  142.2454  168.9613 H   0  0  0  0  0  0  0  0  0  0  0  0
  154.4040  140.5702  168.7580 H   0  0  0  0  0  0  0  0  0  0  0  0
  153.8642  141.7794  167.6167 H   0  0  0  0  0  0  0  0  0  0  0  0
  157.4100  141.2618  169.0117 H   0  0  0  0  0  0  0  0  0  0  0  0
  157.9187  140.2262  167.6805 H   0  0  0  0  0  0  0  0  0  0  0  0
  156.6717  139.6805  168.7816 H   0  0  0  0  0  0  0  0  0  0  0  0
  1  2  1  0  0  0  0
  1 24  1  0  0  0  0
  1 25  1  0  0  0  0
  1 26  1  0  0  0  0
  2  3  2  0  0  0  0
  2  4  1  0  0  0  0
  4  5  1  0  0  0  0
  4 27  1  0  0  0  0
  5  6  1  0  0  0  0
  5 21  1  0  0  0  0
  5 28  1  0  0  0  0
  6  7  2  0  0  0  0
  6  8  1  0  0  0  0
  8  9  1  0  0  0  0
  8 29  1  0  0  0  0
  9 20  1  0  0  0  0
  9 10  2  0  0  0  0
 10 11  1  0  0  0  0
 10 30  1  0  0  0  0
 11 12  2  0  0  0  0
 11 31  1  0  0  0  0
 12 13  1  0  0  0  0
 12 19  1  0  0  0  0
 13 18  1  0  0  0  0
 13 14  1  0  0  0  0
 14 15  1  0  0  0  0
 14 32  1  0  0  0  0
 14 33  1  0  0  0  0
 15 16  1  0  0  0  0
 15 34  1  0  0  0  0
 15 35  1  0  0  0  0
 16 17  1  0  0  0  0
 17 18  1  0  0  0  0
 17 36  1  0  0  0  0
 17 37  1  0  0  0  0
 18 38  1  0  0  0  0
 18 39  1  0  0  0  0
 19 20  2  0  0  0  0
 19 40  1  0  0  0  0
 21 22  1  0  0  0  0
 21 23  1  0  0  0  0
 21 41  1  0  0  0  0
 22 42  1  0  0  0  0
 22 43  1  0  0  0  0
 22 44  1  0  0  0  0
 23 45  1  0  0  0  0
 23 46  1  0  0  0  0
 23 47  1  0  0  0  0
M  END
> <s_m_source_file>
AV-unprocessed.smi

> <i_m_source_file_index>
1446

> <i_lp_mmshare_version>
43012

> <i_f3d_flags>
0

> <s_epik_input>
W0NIM11DKD1PKVtOSF1bQ0BASF0oW0NIXShbQ0gzXSlbQ0gzXSlDKD1PKVtOSF1jMVtjSF1bY0hdYyhbY0hdbjEpTjJbQ0gyXVtDSDJdT1tDSDJdW0NIMl0y

> <s_epik_cmdline>
J2VwaWtfcHl0aG9uJywgJy1waCcsICc3LjAnLCAnLXRuJywgJzgnLCAnLW1hJywgJzIwMCcsICctbWV0YWxfYmluZGluZycsICctaW1hZScsICc8aW5maWxlLm1hZT4nLCAnLW9tYWUnLCAnPG91dGZpbGUubWFlPic=

> <r_lp_tautomer_probability>
1

> <r_epik_Ionization_Penalty>
0.00298315

> <r_epik_Ionization_Penalty_Charging>
0

> <r_epik_Ionization_Penalty_Neutral>
0.00298315

> <r_epik_State_Penalty>
0.0038483

> <r_epik_Charging_Adjusted_Penalty>
0.0038483

> <i_epik_Tot_Q>
0

> <i_epik_Tot_abs_Q>
0

> <r_epik_Metal_State_Penalty>
-0

> <b_epik_Metal_Only>
0

> <s_lp_Force_Field>
OPLS_2005

> <r_lp_Energy>
27.8209

> <b_lp_Chiralities_Consistent>
1

> <s_lp_Variant>
AV-unprocessed.smi:1446-2

> <Gold.Version>
5.8.1

> <Gold.Id.Protein>
6NUR|6NUR_protein|mol2

> <Gold.PLP.Fitness>
41.6952

> <Gold.PLP.PLP>
-42.3391

> <Gold.PLP.part.hbond>
-3.8654

> <Gold.PLP.part.metal>
0.0000

> <Gold.PLP.part.buried>
-5.0535

> <Gold.PLP.part.nonpolar>
-33.4811

> <Gold.PLP.part.repulsive>
0.1945

> <Gold.PLP.ligand.clash>
0.0000

> <Gold.PLP.ligand.torsion>
0.5296

> <Gold.PLP.Chemscore.Hbond>
0.0000

> <Gold.PLP.Chemscore.CHOScore>
0.0000

> <Gold.PLP.Chemscore.Metal>
0.0000

> <Gold.PLP.Chemscore.Internal.Correction>
0.4154

> <Gold.Rescore>
     Score         DG    S(hbond)    S(metal)    S(lipo)     H(rot)  DE(clash)    DE(int)     intcor
      8.42     -11.68       0.00        0.00      91.08       1.74       0.20       3.06       ----

> <Gold.Chemscore.Fitness>
8.4244

> <Gold.Chemscore.DG>
-11.6844

> <Gold.Chemscore.ZeroCoef>
-5.4800

> <Gold.Chemscore.Hbond>
0.0004

> <Gold.Chemscore.Metal>
0.0000

> <Gold.Chemscore.Lipo>
91.0761

> <Gold.Chemscore.Internal_Hbond>
0.0000

> <Gold.Chemscore.DEClash>
0.2017

> <Gold.Chemscore.DEInternal>
3.0583

> <Gold.Chemscore.Rot>
1.7394

> <Gold.Chemscore.Internal.Correction>
   9.000000E+99

> <Gold.Chemscore.Hbond.Weighted>
-0.0012

> <Gold.Chemscore.Metal.Weighted>
-0.0000

> <Gold.Chemscore.Lipo.Weighted>
-10.6559

> <Gold.Chemscore.Internal_Hbond.Weighted>
0.0000

> <Gold.Chemscore.DEClash.Weighted>
0.2017

> <Gold.Chemscore.DEInternal.Weighted>
3.0583

> <Gold.Chemscore.Rot.Weighted>
4.4528

> <Gold.Chemscore.Internal.Correction.Weighted>
   9.000000E+99

> <Gold.Protein.RotatedTorsions>
[ 6907 6896 6895 6894 ] final  122.87 input  -60.11 | X-H torsion
[ 7974 7965 7964 7962 ] final  148.82 input  175.53 | X-H torsion
[ 8008 7997 7996 7995 ] final -108.87 input   59.86 | X-H torsion
[ 10167 10162 10161 10158 ] final -152.00 input  -65.29 | X-H torsion
[ 10718 10713 10712 10709 ] final   67.80 input   66.30 | X-H torsion
[ 10763 10752 10751 10750 ] final  173.16 input  -60.55 | X-H torsion
[ 11005 11000 10999 10996 ] final   54.80 input  -57.11 | X-H torsion

> <Gold.Protein.ActiveResidues>
 VAL166  LYS551  ARG553  GLY616  TRP617  ASP618  TYR619  PRO620  LYS621  CYS622 
 ASP623  PHE694  ASN695  SER759  ASP760  ASP761  ALA762  ILE779  LEU786  VAL792 
 PHE793  MET794  SER795  GLU796  ALA797  LYS798  CYS799  TRP800  GLU811  SER814 

> <Gold.Protein.RotatedAtoms>
  152.4208  133.7113  159.6480 H   0  0  0  0  0  0  0  0  0  0  0  0  # atno 6907 bound_to 6896
  150.8084  133.8456  159.3200 H   0  0  0  0  0  0  0  0  0  0  0  0  # atno 6908 bound_to 6896
  151.6173  135.1037  160.0146 H   0  0  0  0  0  0  0  0  0  0  0  0  # atno 6909 bound_to 6896
  144.8485  139.6202  143.5984 H   0  0  0  0  0  0  0  0  0  0  0  0  # atno 7974 bound_to 7965
  154.9508  140.0401  157.2143 H   0  0  0  0  0  0  0  0  0  0  0  0  # atno 8008 bound_to 7997
  154.7980  140.2847  155.5920 H   0  0  0  0  0  0  0  0  0  0  0  0  # atno 8009 bound_to 7997
  156.2958  140.2560  156.2842 H   0  0  0  0  0  0  0  0  0  0  0  0  # atno 8010 bound_to 7997
  139.7219  143.8944  152.2506 H   0  0  0  0  0  0  0  0  0  0  0  0  # atno 10167 bound_to 10162
  157.6252  130.9340  150.0292 H   0  0  0  0  0  0  0  0  0  0  0  0  # atno 10718 bound_to 10713
  154.4362  135.2761  155.1879 H   0  0  0  0  0  0  0  0  0  0  0  0  # atno 10763 bound_to 10752
  154.3764  135.6097  153.5771 H   0  0  0  0  0  0  0  0  0  0  0  0  # atno 10764 bound_to 10752
  152.9838  135.5870  154.4681 H   0  0  0  0  0  0  0  0  0  0  0  0  # atno 10765 bound_to 10752
  140.0657  134.5539  155.9102 H   0  0  0  0  0  0  0  0  0  0  0  0  # atno 11005 bound_to 11000
  146.2765  139.6765  142.9259 LP  0  0  0  0  0  0  0  0  0  0  0  0  # atno 17320 bound_to 7965
  145.4548  141.0430  143.2784 LP  0  0  0  0  0  0  0  0  0  0  0  0  # atno 17321 bound_to 7965
  139.8842  144.7001  150.8843 LP  0  0  0  0  0  0  0  0  0  0  0  0  # atno 17342 bound_to 10162
  140.7755  143.3637  151.1780 LP  0  0  0  0  0  0  0  0  0  0  0  0  # atno 17343 bound_to 10162
  156.1420  130.3642  149.9568 LP  0  0  0  0  0  0  0  0  0  0  0  0  # atno 17370 bound_to 10713
  156.7607  130.9150  151.3641 LP  0  0  0  0  0  0  0  0  0  0  0  0  # atno 17371 bound_to 10713
  141.1992  133.6605  156.5830 LP  0  0  0  0  0  0  0  0  0  0  0  0  # atno 17394 bound_to 11000
  140.3702  134.7612  157.4593 LP  0  0  0  0  0  0  0  0  0  0  0  0  # atno 17395 bound_to 11000

$$$$
