AV-unprocessed.smi:322|AV-procd|sdf|2336|dock4
  -GOLD-   2262022243D 1   1.00000     0.00000
 Structure written by MMmdl.
 43 45  0  0  0  0  0  0  0  0  1 V2000
  151.8469  137.0890  154.6397 O   0  0  0  0  0  0  0  0  0  0  0  0
  152.0072  138.4702  154.8938 C   0  0  0  0  0  0  0  0  0  0  0  0
  150.7116  139.2271  154.9766 C   0  0  0  0  0  0  0  0  0  0  0  0
  150.4181  140.2529  154.1740 N   0  0  0  0  0  0  0  0  0  0  0  0
  149.1532  140.6175  154.5912 C   0  0  0  0  0  0  0  0  0  0  0  0
  148.2947  141.6429  154.1342 C   0  0  0  0  0  0  0  0  0  0  0  0
  147.0270  141.8279  154.7239 C   0  0  0  0  0  0  0  0  0  0  0  0
  146.6002  140.9922  155.7760 C   0  0  0  0  0  0  0  0  0  0  0  0
  147.4399  139.9643  156.2459 C   0  0  0  0  0  0  0  0  0  0  0  0
  148.7046  139.7840  155.6540 C   0  0  0  0  0  0  0  0  0  0  0  0
  149.7500  138.8921  155.8734 N   0  0  0  0  0  0  0  0  0  0  0  0
  149.7775  137.8249  156.8642 C   0  0  0  0  0  0  0  0  0  0  0  0
  149.4369  138.3233  158.2841 C   0  0  1  0  0  0  0  0  0  0  0  0
  149.6869  137.3312  159.2596 O   0  0  0  0  0  0  0  0  0  0  0  0
  150.1774  139.6125  158.6752 C   0  0  0  0  0  0  0  0  0  0  0  0
  151.5534  139.3366  158.8833 O   0  0  0  0  0  0  0  0  0  0  0  0
  152.3542  140.5058  158.9311 C   0  0  0  0  0  0  0  0  0  0  0  0
  152.4497  141.0737  160.3347 C   0  0  0  0  0  0  0  0  0  0  0  0
  153.2755  140.4598  161.3014 C   0  0  0  0  0  0  0  0  0  0  0  0
  153.3712  141.0008  162.5983 C   0  0  0  0  0  0  0  0  0  0  0  0
  152.6472  142.1618  162.9328 C   0  0  0  0  0  0  0  0  0  0  0  0
  152.7636  142.8241  164.5217 Cl  0  0  0  0  0  0  0  0  0  0  0  0
  151.8303  142.7832  161.9683 C   0  0  0  0  0  0  0  0  0  0  0  0
  151.7347  142.2424  160.6712 C   0  0  0  0  0  0  0  0  0  0  0  0
  151.2598  136.7297  155.2870 H   0  0  0  0  0  0  0  0  0  0  0  0
  152.5482  138.5954  155.8320 H   0  0  0  0  0  0  0  0  0  0  0  0
  152.6282  138.8864  154.1013 H   0  0  0  0  0  0  0  0  0  0  0  0
  148.6125  142.2880  153.3287 H   0  0  0  0  0  0  0  0  0  0  0  0
  146.3791  142.6153  154.3673 H   0  0  0  0  0  0  0  0  0  0  0  0
  145.6280  141.1407  156.2227 H   0  0  0  0  0  0  0  0  0  0  0  0
  147.1170  139.3239  157.0535 H   0  0  0  0  0  0  0  0  0  0  0  0
  149.0743  137.0519  156.5514 H   0  0  0  0  0  0  0  0  0  0  0  0
  150.7618  137.3559  156.8526 H   0  0  0  0  0  0  0  0  0  0  0  0
  148.3676  138.5290  158.3371 H   0  0  0  0  0  0  0  0  0  0  0  0
  150.4302  137.6007  159.7777 H   0  0  0  0  0  0  0  0  0  0  0  0
  150.0815  140.3384  157.8663 H   0  0  0  0  0  0  0  0  0  0  0  0
  149.7312  140.0614  159.5643 H   0  0  0  0  0  0  0  0  0  0  0  0
  153.3631  140.2815  158.5819 H   0  0  0  0  0  0  0  0  0  0  0  0
  151.9371  141.2619  158.2637 H   0  0  0  0  0  0  0  0  0  0  0  0
  153.8388  139.5719  161.0533 H   0  0  0  0  0  0  0  0  0  0  0  0
  154.0021  140.5252  163.3347 H   0  0  0  0  0  0  0  0  0  0  0  0
  151.2773  143.6759  162.2211 H   0  0  0  0  0  0  0  0  0  0  0  0
  151.1092  142.7272  159.9361 H   0  0  0  0  0  0  0  0  0  0  0  0
  1  2  1  0  0  0  0
  1 25  1  0  0  0  0
  2  3  1  0  0  0  0
  2 26  1  0  0  0  0
  2 27  1  0  0  0  0
  3 11  1  0  0  0  0
  3  4  2  0  0  0  0
  4  5  1  0  0  0  0
  5 10  2  0  0  0  0
  5  6  1  0  0  0  0
  6  7  2  0  0  0  0
  6 28  1  0  0  0  0
  7  8  1  0  0  0  0
  7 29  1  0  0  0  0
  8  9  2  0  0  0  0
  8 30  1  0  0  0  0
  9 10  1  0  0  0  0
  9 31  1  0  0  0  0
 10 11  1  0  0  0  0
 11 12  1  0  0  0  0
 12 13  1  0  0  0  0
 12 32  1  0  0  0  0
 12 33  1  0  0  0  0
 13 14  1  0  0  0  0
 13 15  1  0  0  0  0
 13 34  1  0  0  0  0
 14 35  1  0  0  0  0
 15 16  1  0  0  0  0
 15 36  1  0  0  0  0
 15 37  1  0  0  0  0
 16 17  1  0  0  0  0
 17 18  1  0  0  0  0
 17 38  1  0  0  0  0
 17 39  1  0  0  0  0
 18 24  1  0  0  0  0
 18 19  2  0  0  0  0
 19 20  1  0  0  0  0
 19 40  1  0  0  0  0
 20 21  2  0  0  0  0
 20 41  1  0  0  0  0
 21 22  1  0  0  0  0
 21 23  1  0  0  0  0
 23 24  2  0  0  0  0
 23 42  1  0  0  0  0
 24 43  1  0  0  0  0
M  END
> <s_m_source_file>
AV-unprocessed.smi

> <i_m_source_file_index>
322

> <i_lp_mmshare_version>
43012

> <i_f3d_flags>
0

> <s_epik_input>
W2NIXTFbY0hdW2NIXVtjSF1jKGMxMiluKGMobjIpW0NIMl1bT0hdKVtDSDJdW0NASF0oW09IXSlbQ0gyXU9bQ0gyXWMzW2NIXVtjSF1jKENsKVtjSF1bY0hdMw==

> <s_epik_cmdline>
J2VwaWtfcHl0aG9uJywgJy1waCcsICc3LjAnLCAnLXRuJywgJzgnLCAnLW1hJywgJzIwMCcsICctbWV0YWxfYmluZGluZycsICctaW1hZScsICc8aW5maWxlLm1hZT4nLCAnLW9tYWUnLCAnPG91dGZpbGUubWFlPic=

> <r_epik_Ionization_Penalty>
0.0649918

> <r_epik_Ionization_Penalty_Charging>
0

> <r_epik_Ionization_Penalty_Neutral>
0.0649918

> <r_epik_State_Penalty>
0.0565791

> <r_epik_Charging_Adjusted_Penalty>
0.0565791

> <i_epik_Tot_Q>
0

> <i_epik_Tot_abs_Q>
0

> <r_epik_Metal_State_Penalty>
5.93658e-05

> <b_epik_Metal_Only>
0

> <s_lp_Force_Field>
OPLS_2005

> <r_lp_Energy>
15.9671

> <b_lp_Chiralities_Consistent>
1

> <s_lp_Variant>
AV-unprocessed.smi:322-2

> <Gold.Version>
5.8.1

> <Gold.Id.Protein>
6NUR|6NUR_protein|mol2

> <Gold.PLP.Fitness>
53.6211

> <Gold.PLP.PLP>
-48.6267

> <Gold.PLP.part.hbond>
-2.7079

> <Gold.PLP.part.metal>
0.0000

> <Gold.PLP.part.buried>
-4.9255

> <Gold.PLP.part.nonpolar>
-39.0091

> <Gold.PLP.part.repulsive>
0.7348

> <Gold.PLP.ligand.clash>
0.0000

> <Gold.PLP.ligand.torsion>
0.5853

> <Gold.PLP.Chemscore.Hbond>
2.0000

> <Gold.PLP.Chemscore.CHOScore>
0.0000

> <Gold.PLP.Chemscore.Metal>
0.0000

> <Gold.Chemscore.Hbonds>
donor molecule, donor type, donor heavy atom, donor atom, acceptor molecule, acceptor atom, score
      P1  H  7989  7998       L1     4  0.96
      P1  H 10752 10765       L1     1  0.90

> <Gold.PLP.Chemscore.Internal.Correction>
0.1649

> <Gold.Rescore>
     Score         DG    S(hbond)    S(metal)    S(lipo)     H(rot)  DE(clash)    DE(int)     intcor
     17.35     -18.75       1.92        0.00     127.08       3.13       0.08       1.33       ----

> <Gold.Chemscore.Fitness>
17.3452

> <Gold.Chemscore.DG>
-18.7547

> <Gold.Chemscore.ZeroCoef>
-5.4800

> <Gold.Chemscore.Hbond>
1.9248

> <Gold.Chemscore.Metal>
0.0000

> <Gold.Chemscore.Lipo>
127.0775

> <Gold.Chemscore.Internal_Hbond>
0.0000

> <Gold.Chemscore.DEClash>
0.0799

> <Gold.Chemscore.DEInternal>
1.3295

> <Gold.Chemscore.Rot>
3.1337

> <Gold.Chemscore.Internal.Correction>
   9.000000E+99

> <Gold.Chemscore.Hbonds>
donor molecule, donor type, donor heavy atom, donor atom, acceptor molecule, acceptor atom, score
      P1  H  7989  7998       L1     4  0.80
      P1  H 10752 10765       L1     1  0.17

> <Gold.Chemscore.Hbond.Weighted>
-6.4290

> <Gold.Chemscore.Metal.Weighted>
-0.0000

> <Gold.Chemscore.Lipo.Weighted>
-14.8681

> <Gold.Chemscore.Internal_Hbond.Weighted>
0.0000

> <Gold.Chemscore.DEClash.Weighted>
0.0799

> <Gold.Chemscore.DEInternal.Weighted>
1.3295

> <Gold.Chemscore.Rot.Weighted>
8.0224

> <Gold.Chemscore.Internal.Correction.Weighted>
   9.000000E+99

> <Gold.Protein.RotatedTorsions>
[ 6907 6896 6895 6894 ] final -147.99 input  -60.11 | X-H torsion
[ 7974 7965 7964 7962 ] final   40.18 input  175.53 | X-H torsion
[ 8008 7997 7996 7995 ] final -113.44 input   59.86 | X-H torsion
[ 10167 10162 10161 10158 ] final  -25.90 input  -65.29 | X-H torsion
[ 10718 10713 10712 10709 ] final   89.06 input   66.30 | X-H torsion
[ 10763 10752 10751 10750 ] final  173.11 input  -60.55 | X-H torsion
[ 11005 11000 10999 10996 ] final -146.82 input  -57.11 | X-H torsion

> <Gold.Protein.ActiveResidues>
 VAL166  LYS551  ARG553  GLY616  TRP617  ASP618  TYR619  PRO620  LYS621  CYS622 
 ASP623  PHE694  ASN695  SER759  ASP760  ASP761  ALA762  ILE779  LEU786  VAL792 
 PHE793  MET794  SER795  GLU796  ALA797  LYS798  CYS799  TRP800  GLU811  SER814 

> <Gold.Protein.RotatedAtoms>
  151.1635  133.4829  159.2593 H   0  0  0  0  0  0  0  0  0  0  0  0  # atno 6907 bound_to 6896
  151.1429  135.0188  159.8644 H   0  0  0  0  0  0  0  0  0  0  0  0  # atno 6908 bound_to 6896
  152.5462  134.1527  159.8578 H   0  0  0  0  0  0  0  0  0  0  0  0  # atno 6909 bound_to 6896
  146.0926  139.5564  142.9466 H   0  0  0  0  0  0  0  0  0  0  0  0  # atno 7974 bound_to 7965
  155.0207  140.0393  157.2436 H   0  0  0  0  0  0  0  0  0  0  0  0  # atno 8008 bound_to 7997
  154.7380  140.2743  155.6374 H   0  0  0  0  0  0  0  0  0  0  0  0  # atno 8009 bound_to 7997
  156.2857  140.2671  156.2100 H   0  0  0  0  0  0  0  0  0  0  0  0  # atno 8010 bound_to 7997
  140.7285  143.4225  151.0929 H   0  0  0  0  0  0  0  0  0  0  0  0  # atno 10167 bound_to 10162
  157.6953  131.0318  150.3368 H   0  0  0  0  0  0  0  0  0  0  0  0  # atno 10718 bound_to 10713
  154.4355  135.2761  155.1884 H   0  0  0  0  0  0  0  0  0  0  0  0  # atno 10763 bound_to 10752
  154.3772  135.6095  153.5775 H   0  0  0  0  0  0  0  0  0  0  0  0  # atno 10764 bound_to 10752
  152.9838  135.5871  154.4673 H   0  0  0  0  0  0  0  0  0  0  0  0  # atno 10765 bound_to 10752
  140.7780  134.3112  157.5054 H   0  0  0  0  0  0  0  0  0  0  0  0  # atno 11005 bound_to 11000
  145.6010  141.0355  143.2018 LP  0  0  0  0  0  0  0  0  0  0  0  0  # atno 17320 bound_to 7965
  144.7371  139.7554  143.7325 LP  0  0  0  0  0  0  0  0  0  0  0  0  # atno 17321 bound_to 7965
  139.7872  143.8270  152.3146 LP  0  0  0  0  0  0  0  0  0  0  0  0  # atno 17342 bound_to 10162
  139.8241  144.7283  150.9534 LP  0  0  0  0  0  0  0  0  0  0  0  0  # atno 17343 bound_to 10162
  156.3834  130.3884  149.7084 LP  0  0  0  0  0  0  0  0  0  0  0  0  # atno 17370 bound_to 10713
  156.4458  130.7883  151.2904 LP  0  0  0  0  0  0  0  0  0  0  0  0  # atno 17371 bound_to 10713
  139.8746  134.9301  156.3493 LP  0  0  0  0  0  0  0  0  0  0  0  0  # atno 17394 bound_to 11000
  140.9510  133.7451  156.0272 LP  0  0  0  0  0  0  0  0  0  0  0  0  # atno 17395 bound_to 11000

$$$$
