AV-unprocessed.smi:679|AV-procd|sdf|3322|dock8
  -GOLD-   22720 0293D 1   1.00000     0.00000
 Structure written by MMmdl.
 41 43  0  0  0  0  0  0  0  0  1 V2000
  150.3052  141.6541  156.0182 C   0  0  0  0  0  0  0  0  0  0  0  0
  149.5970  141.8531  157.3599 C   0  0  0  0  0  0  0  0  0  0  0  0
  150.3799  142.7183  158.1643 O   0  0  0  0  0  0  0  0  0  0  0  0
  151.3479  142.0299  158.9406 C   0  0  1  0  0  0  0  0  0  0  0  0
  152.4043  141.2730  158.1296 C   0  0  0  0  0  0  0  0  0  0  0  0
  153.4412  141.7754  159.1413 C   0  0  2  0  0  0  0  0  0  0  0  0
  153.6095  140.8229  160.2400 N   0  0  0  0  0  0  0  0  0  0  0  0
  154.0941  139.5801  160.1057 C   0  0  0  0  0  0  0  0  0  0  0  0
  154.4486  139.1083  159.0244 O   0  0  0  0  0  0  0  0  0  0  0  0
  154.2041  138.7583  161.3938 C   0  0  0  0  0  0  0  0  0  0  0  0
  154.4211  137.3470  161.1278 N   0  0  0  0  0  0  0  0  0  0  0  0
  155.3922  136.5188  161.5187 C   0  0  0  0  0  0  0  0  0  0  0  0
  155.2144  135.2967  161.0409 N   0  0  0  0  0  0  0  0  0  0  0  0
  154.0451  135.4126  160.3079 N   0  0  0  0  0  0  0  0  0  0  0  0
  153.5713  136.6273  160.3538 N   0  0  0  0  0  0  0  0  0  0  0  0
  152.4765  142.9446  159.4760 C   0  0  0  0  0  0  0  0  0  0  0  0
  152.7154  144.2589  158.7283 C   0  0  0  0  0  0  0  0  0  0  0  0
  151.9052  145.3432  159.4466 C   0  0  0  0  0  0  0  0  0  0  0  0
  151.6275  144.7945  160.8497 C   0  0  0  0  0  0  0  0  0  0  0  0
  152.3454  143.4450  160.9134 C   0  0  0  0  0  0  0  0  0  0  0  0
  149.7279  140.9988  155.3655 H   0  0  0  0  0  0  0  0  0  0  0  0
  151.2892  141.2059  156.1580 H   0  0  0  0  0  0  0  0  0  0  0  0
  150.4399  142.6055  155.5031 H   0  0  0  0  0  0  0  0  0  0  0  0
  148.6075  142.2831  157.1975 H   0  0  0  0  0  0  0  0  0  0  0  0
  149.4627  140.8909  157.8559 H   0  0  0  0  0  0  0  0  0  0  0  0
  150.9052  141.4180  159.7296 H   0  0  0  0  0  0  0  0  0  0  0  0
  152.2662  140.1915  158.0957 H   0  0  0  0  0  0  0  0  0  0  0  0
  152.5531  141.6892  157.1320 H   0  0  0  0  0  0  0  0  0  0  0  0
  154.3754  142.0882  158.6716 H   0  0  0  0  0  0  0  0  0  0  0  0
  153.3451  141.1361  161.1628 H   0  0  0  0  0  0  0  0  0  0  0  0
  155.0268  139.1455  161.9969 H   0  0  0  0  0  0  0  0  0  0  0  0
  153.2933  138.8581  161.9858 H   0  0  0  0  0  0  0  0  0  0  0  0
  156.2208  136.8086  162.1479 H   0  0  0  0  0  0  0  0  0  0  0  0
  153.7741  144.5186  158.7694 H   0  0  0  0  0  0  0  0  0  0  0  0
  152.4530  144.2010  157.6713 H   0  0  0  0  0  0  0  0  0  0  0  0
  152.4484  146.2880  159.4780 H   0  0  0  0  0  0  0  0  0  0  0  0
  150.9638  145.5224  158.9255 H   0  0  0  0  0  0  0  0  0  0  0  0
  151.9705  145.4707  161.6332 H   0  0  0  0  0  0  0  0  0  0  0  0
  150.5543  144.6530  160.9831 H   0  0  0  0  0  0  0  0  0  0  0  0
  151.8138  142.7431  161.5566 H   0  0  0  0  0  0  0  0  0  0  0  0
  153.3350  143.5873  161.3497 H   0  0  0  0  0  0  0  0  0  0  0  0
  1  2  1  0  0  0  0
  1 21  1  0  0  0  0
  1 22  1  0  0  0  0
  1 23  1  0  0  0  0
  2  3  1  0  0  0  0
  2 24  1  0  0  0  0
  2 25  1  0  0  0  0
  3  4  1  0  0  0  0
  4 16  1  0  0  0  0
  4  5  1  0  0  0  0
  4 26  1  0  0  0  0
  5  6  1  0  0  0  0
  5 27  1  0  0  0  0
  5 28  1  0  0  0  0
  6  7  1  0  0  0  0
  6 16  1  0  0  0  0
  6 29  1  0  0  0  0
  7  8  1  0  0  0  0
  7 30  1  0  0  0  0
  8  9  2  0  0  0  0
  8 10  1  0  0  0  0
 10 11  1  0  0  0  0
 10 31  1  0  0  0  0
 10 32  1  0  0  0  0
 11 15  1  0  0  0  0
 11 12  1  0  0  0  0
 12 13  2  0  0  0  0
 12 33  1  0  0  0  0
 13 14  1  0  0  0  0
 14 15  2  0  0  0  0
 16 20  1  0  0  0  0
 16 17  1  0  0  0  0
 17 18  1  0  0  0  0
 17 34  1  0  0  0  0
 17 35  1  0  0  0  0
 18 19  1  0  0  0  0
 18 36  1  0  0  0  0
 18 37  1  0  0  0  0
 19 20  1  0  0  0  0
 19 38  1  0  0  0  0
 19 39  1  0  0  0  0
 20 40  1  0  0  0  0
 20 41  1  0  0  0  0
M  END
> <s_m_source_file>
AV-unprocessed.smi

> <i_m_source_file_index>
679

> <i_lp_mmshare_version>
43012

> <i_f3d_flags>
0

> <s_epik_input>
W0NIMl0xW0NIMl1bQ0gyXVtDSDJdQzEyW0NASF0oT1tDSDJdW0NIM10pW0NIMl1bQ0BIXTJbTkhdQyg9TylbQ0gyXW4zW2NIXW5ubjM=

> <s_epik_cmdline>
J2VwaWtfcHl0aG9uJywgJy1waCcsICc3LjAnLCAnLXRuJywgJzgnLCAnLW1hJywgJzIwMCcsICctbWV0YWxfYmluZGluZycsICctaW1hZScsICc8aW5maWxlLm1hZT4nLCAnLW9tYWUnLCAnPG91dGZpbGUubWFlPic=

> <r_lp_tautomer_probability>
1

> <r_epik_Ionization_Penalty>
7.96741e-07

> <r_epik_Ionization_Penalty_Charging>
0

> <r_epik_Ionization_Penalty_Neutral>
7.96741e-07

> <r_epik_State_Penalty>
-0

> <r_epik_Charging_Adjusted_Penalty>
0

> <i_epik_Tot_Q>
0

> <i_epik_Tot_abs_Q>
0

> <r_epik_Metal_State_Penalty>
-0

> <b_epik_Metal_Only>
0

> <s_lp_Force_Field>
OPLS_2005

> <r_lp_Energy>
39.7046

> <b_lp_Chiralities_Consistent>
1

> <s_lp_Variant>
AV-unprocessed.smi:679-4

> <Gold.Version>
5.8.1

> <Gold.Id.Protein>
6NUR|6NUR_protein|mol2

> <Gold.PLP.Fitness>
42.6677

> <Gold.PLP.PLP>
-37.4527

> <Gold.PLP.part.hbond>
-2.5655

> <Gold.PLP.part.metal>
0.0000

> <Gold.PLP.part.buried>
-4.9435

> <Gold.PLP.part.nonpolar>
-29.4491

> <Gold.PLP.part.repulsive>
0.1910

> <Gold.PLP.ligand.clash>
0.0000

> <Gold.PLP.ligand.torsion>
0.5690

> <Gold.PLP.Chemscore.Hbond>
2.0000

> <Gold.PLP.Chemscore.CHOScore>
0.0000

> <Gold.PLP.Chemscore.Metal>
0.0000

> <Gold.Chemscore.Hbonds>
donor molecule, donor type, donor heavy atom, donor atom, acceptor molecule, acceptor atom, score
      P1  H  6896  6909       L1    14  1.00
      P1  H  7997  8008       L1     9  1.00

> <Gold.PLP.Chemscore.Internal.Correction>
0.3530

> <Gold.Rescore>
     Score         DG    S(hbond)    S(metal)    S(lipo)     H(rot)  DE(clash)    DE(int)     intcor
     16.91     -18.16       1.85        0.00     108.39       2.41       0.54       0.72       ----

> <Gold.Chemscore.Fitness>
16.9094

> <Gold.Chemscore.DG>
-18.1634

> <Gold.Chemscore.ZeroCoef>
-5.4800

> <Gold.Chemscore.Hbond>
1.8469

> <Gold.Chemscore.Metal>
0.0000

> <Gold.Chemscore.Lipo>
108.3878

> <Gold.Chemscore.Internal_Hbond>
0.0000

> <Gold.Chemscore.DEClash>
0.5366

> <Gold.Chemscore.DEInternal>
0.7173

> <Gold.Chemscore.Rot>
2.4089

> <Gold.Chemscore.Internal.Correction>
   9.000000E+99

> <Gold.Chemscore.Hbonds>
donor molecule, donor type, donor heavy atom, donor atom, acceptor molecule, acceptor atom, score
      P1  H  6896  6909       L1    14  0.35
      P1  H  7997  8008       L1     9  0.93

> <Gold.Chemscore.Hbond.Weighted>
-6.1688

> <Gold.Chemscore.Metal.Weighted>
-0.0000

> <Gold.Chemscore.Lipo.Weighted>
-12.6814

> <Gold.Chemscore.Internal_Hbond.Weighted>
0.0000

> <Gold.Chemscore.DEClash.Weighted>
0.5366

> <Gold.Chemscore.DEInternal.Weighted>
0.7173

> <Gold.Chemscore.Rot.Weighted>
6.1668

> <Gold.Chemscore.Internal.Correction.Weighted>
   9.000000E+99

> <Gold.Protein.RotatedTorsions>
[ 6907 6896 6895 6894 ] final -164.94 input  -60.11 | X-H torsion
[ 7974 7965 7964 7962 ] final -104.23 input  175.53 | X-H torsion
[ 8008 7997 7996 7995 ] final -119.86 input   59.86 | X-H torsion
[ 10167 10162 10161 10158 ] final  120.63 input  -65.29 | X-H torsion
[ 10718 10713 10712 10709 ] final -166.09 input   66.30 | X-H torsion
[ 10763 10752 10751 10750 ] final  -57.44 input  -60.55 | X-H torsion
[ 11005 11000 10999 10996 ] final   34.09 input  -57.11 | X-H torsion

> <Gold.Protein.ActiveResidues>
 VAL166  LYS551  ARG553  GLY616  TRP617  ASP618  TYR619  PRO620  LYS621  CYS622 
 ASP623  PHE694  ASN695  SER759  ASP760  ASP761  ALA762  ILE779  LEU786  VAL792 
 PHE793  MET794  SER795  GLU796  ALA797  LYS798  CYS799  TRP800  GLU811  SER814 

> <Gold.Protein.RotatedAtoms>
  151.4198  133.3701  159.2754 H   0  0  0  0  0  0  0  0  0  0  0  0  # atno 6907 bound_to 6896
  150.9302  134.8718  159.7556 H   0  0  0  0  0  0  0  0  0  0  0  0  # atno 6908 bound_to 6896
  152.5024  134.4142  159.9511 H   0  0  0  0  0  0  0  0  0  0  0  0  # atno 6909 bound_to 6896
  145.2458  140.9221  143.3124 H   0  0  0  0  0  0  0  0  0  0  0  0  # atno 7974 bound_to 7965
  155.1225  140.0399  157.2754 H   0  0  0  0  0  0  0  0  0  0  0  0  # atno 8008 bound_to 7997
  154.6602  140.2589  155.7091 H   0  0  0  0  0  0  0  0  0  0  0  0  # atno 8009 bound_to 7997
  156.2616  140.2818  156.1072 H   0  0  0  0  0  0  0  0  0  0  0  0  # atno 8010 bound_to 7997
  139.5970  144.7045  151.3153 H   0  0  0  0  0  0  0  0  0  0  0  0  # atno 10167 bound_to 10162
  156.6628  130.9053  151.3032 H   0  0  0  0  0  0  0  0  0  0  0  0  # atno 10718 bound_to 10713
  154.2225  135.6375  153.5149 H   0  0  0  0  0  0  0  0  0  0  0  0  # atno 10763 bound_to 10752
  152.9966  135.5500  154.6099 H   0  0  0  0  0  0  0  0  0  0  0  0  # atno 10764 bound_to 10752
  154.5563  135.2905  155.0936 H   0  0  0  0  0  0  0  0  0  0  0  0  # atno 10765 bound_to 10752
  140.2564  134.3243  155.7872 H   0  0  0  0  0  0  0  0  0  0  0  0  # atno 11005 bound_to 11000
  144.9547  139.4044  143.6385 LP  0  0  0  0  0  0  0  0  0  0  0  0  # atno 17320 bound_to 7965
  146.3316  139.8572  142.8862 LP  0  0  0  0  0  0  0  0  0  0  0  0  # atno 17321 bound_to 7965
  140.7220  143.7110  150.7769 LP  0  0  0  0  0  0  0  0  0  0  0  0  # atno 17342 bound_to 10162
  140.0679  143.5090  152.2595 LP  0  0  0  0  0  0  0  0  0  0  0  0  # atno 17343 bound_to 10162
  157.7104  130.9433  150.1069 LP  0  0  0  0  0  0  0  0  0  0  0  0  # atno 17370 bound_to 10713
  156.1998  130.3659  149.8803 LP  0  0  0  0  0  0  0  0  0  0  0  0  # atno 17371 bound_to 10713
  141.2195  133.7383  156.9118 LP  0  0  0  0  0  0  0  0  0  0  0  0  # atno 17394 bound_to 11000
  140.1507  134.9232  157.2589 LP  0  0  0  0  0  0  0  0  0  0  0  0  # atno 17395 bound_to 11000

$$$$
