AV-unprocessed.smi:197|AV-procd|sdf|1546|dock6
  -GOLD-   2262019403D 1   1.00000     0.00000
 Structure written by MMmdl.
 54 57  0  0  0  0  0  0  0  0  1 V2000
  152.0461  144.8098  158.9199 C   0  0  0  0  0  0  0  0  0  0  0  0
  151.0554  143.8024  158.7886 O   0  0  0  0  0  0  0  0  0  0  0  0
  151.2965  142.8741  157.7387 C   0  0  0  0  0  0  0  0  0  0  0  0
  150.2904  141.7070  157.7340 C   0  0  0  0  0  0  0  0  0  0  0  0
  150.1767  140.9615  156.3775 C   0  0  2  0  0  0  0  0  0  0  0  0
  149.6427  141.8943  155.2647 C   0  0  0  0  0  0  0  0  0  0  0  0
  149.5171  141.1869  154.0359 O   0  0  0  0  0  0  0  0  0  0  0  0
  148.5964  140.1088  154.1347 C   0  0  0  0  0  0  0  0  0  0  0  0
  149.1096  139.1100  155.1803 C   0  0  0  0  0  0  0  0  0  0  0  0
  149.3101  139.7782  156.4607 N   0  0  0  0  0  0  0  0  0  0  0  0
  149.5976  138.8792  157.4288 C   0  0  0  0  0  0  0  0  0  0  0  0
  150.8993  138.7567  157.7860 N   0  0  0  0  0  0  0  0  0  0  0  0
  151.2538  137.8762  158.7265 C   0  0  0  0  0  0  0  0  0  0  0  0
  150.4803  137.0380  159.4198 N   0  0  0  0  0  0  0  0  0  0  0  0
  149.1688  137.1647  159.0673 C   0  0  0  0  0  0  0  0  0  0  0  0
  148.6415  138.0601  158.0949 C   0  0  0  0  0  0  0  0  0  0  0  0
  147.2615  137.9179  158.0197 N   0  0  0  0  0  0  0  0  0  0  0  0
  146.9905  136.9792  158.8844 C   0  0  0  0  0  0  0  0  0  0  0  0
  148.0787  136.4623  159.5509 N   0  0  0  0  0  0  0  0  0  0  0  0
  148.0632  135.4072  160.5525 C   0  0  0  0  0  0  0  0  0  0  0  0
  147.1629  135.7245  161.7721 C   0  0  2  0  0  0  0  0  0  0  0  0
  147.7067  136.8465  162.4478 O   0  0  0  0  0  0  0  0  0  0  0  0
  147.1007  134.5553  162.7615 C   0  0  0  0  0  0  0  0  0  0  0  0
  145.6594  134.0670  162.6724 C   0  0  0  0  0  0  0  0  0  0  0  0
  144.9404  135.2537  162.3905 O   0  0  0  0  0  0  0  0  0  0  0  0
  145.6752  135.9545  161.3983 C   0  0  1  0  0  0  0  0  0  0  0  0
  145.1914  137.4099  161.2909 C   0  0  0  0  0  0  0  0  0  0  0  0
  151.8233  145.4253  159.7913 H   0  0  0  0  0  0  0  0  0  0  0  0
  152.0691  145.4679  158.0529 H   0  0  0  0  0  0  0  0  0  0  0  0
  153.0374  144.3778  159.0601 H   0  0  0  0  0  0  0  0  0  0  0  0
  151.2860  143.3869  156.7757 H   0  0  0  0  0  0  0  0  0  0  0  0
  152.3093  142.4905  157.8563 H   0  0  0  0  0  0  0  0  0  0  0  0
  150.5747  141.0197  158.5299 H   0  0  0  0  0  0  0  0  0  0  0  0
  149.3082  142.0845  158.0200 H   0  0  0  0  0  0  0  0  0  0  0  0
  151.1704  140.6295  156.0778 H   0  0  0  0  0  0  0  0  0  0  0  0
  148.6803  142.3263  155.5439 H   0  0  0  0  0  0  0  0  0  0  0  0
  150.3268  142.7248  155.0953 H   0  0  0  0  0  0  0  0  0  0  0  0
  147.6051  140.4796  154.3997 H   0  0  0  0  0  0  0  0  0  0  0  0
  148.5085  139.6248  153.1620 H   0  0  0  0  0  0  0  0  0  0  0  0
  148.3947  138.2930  155.2909 H   0  0  0  0  0  0  0  0  0  0  0  0
  150.0505  138.6720  154.8437 H   0  0  0  0  0  0  0  0  0  0  0  0
  152.3086  137.8347  158.9537 H   0  0  0  0  0  0  0  0  0  0  0  0
  145.9829  136.6293  159.0556 H   0  0  0  0  0  0  0  0  0  0  0  0
  147.7344  134.4838  160.0736 H   0  0  0  0  0  0  0  0  0  0  0  0
  149.0902  135.2316  160.8759 H   0  0  0  0  0  0  0  0  0  0  0  0
  147.7437  136.6481  163.3711 H   0  0  0  0  0  0  0  0  0  0  0  0
  147.8141  133.7607  162.5404 H   0  0  0  0  0  0  0  0  0  0  0  0
  147.2980  134.8907  163.7812 H   0  0  0  0  0  0  0  0  0  0  0  0
  145.5357  133.3577  161.8525 H   0  0  0  0  0  0  0  0  0  0  0  0
  145.3156  133.5948  163.5930 H   0  0  0  0  0  0  0  0  0  0  0  0
  145.4599  135.4500  160.4557 H   0  0  0  0  0  0  0  0  0  0  0  0
  145.7530  137.9550  160.5332 H   0  0  0  0  0  0  0  0  0  0  0  0
  145.2928  137.9417  162.2370 H   0  0  0  0  0  0  0  0  0  0  0  0
  144.1394  137.4446  161.0075 H   0  0  0  0  0  0  0  0  0  0  0  0
  1  2  1  0  0  0  0
  1 28  1  0  0  0  0
  1 29  1  0  0  0  0
  1 30  1  0  0  0  0
  2  3  1  0  0  0  0
  3  4  1  0  0  0  0
  3 31  1  0  0  0  0
  3 32  1  0  0  0  0
  4  5  1  0  0  0  0
  4 33  1  0  0  0  0
  4 34  1  0  0  0  0
  5 10  1  0  0  0  0
  5  6  1  0  0  0  0
  5 35  1  0  0  0  0
  6  7  1  0  0  0  0
  6 36  1  0  0  0  0
  6 37  1  0  0  0  0
  7  8  1  0  0  0  0
  8  9  1  0  0  0  0
  8 38  1  0  0  0  0
  8 39  1  0  0  0  0
  9 10  1  0  0  0  0
  9 40  1  0  0  0  0
  9 41  1  0  0  0  0
 10 11  1  0  0  0  0
 11 16  1  0  0  0  0
 11 12  2  0  0  0  0
 12 13  1  0  0  0  0
 13 14  2  0  0  0  0
 13 42  1  0  0  0  0
 14 15  1  0  0  0  0
 15 19  1  0  0  0  0
 15 16  2  0  0  0  0
 16 17  1  0  0  0  0
 17 18  2  0  0  0  0
 18 19  1  0  0  0  0
 18 43  1  0  0  0  0
 19 20  1  0  0  0  0
 20 21  1  0  0  0  0
 20 44  1  0  0  0  0
 20 45  1  0  0  0  0
 21 26  1  0  0  0  0
 21 22  1  0  0  0  0
 21 23  1  0  0  0  0
 22 46  1  0  0  0  0
 23 24  1  0  0  0  0
 23 47  1  0  0  0  0
 23 48  1  0  0  0  0
 24 25  1  0  0  0  0
 24 49  1  0  0  0  0
 24 50  1  0  0  0  0
 25 26  1  0  0  0  0
 26 27  1  0  0  0  0
 26 51  1  0  0  0  0
 27 52  1  0  0  0  0
 27 53  1  0  0  0  0
 27 54  1  0  0  0  0
M  END
> <s_m_source_file>
AV-unprocessed.smi

> <i_m_source_file_index>
197

> <i_lp_mmshare_version>
43012

> <i_f3d_flags>
0

> <s_epik_input>
W0NIM11PW0NIMl1bQ0gyXVtDQEBIXTFbQ0gyXU9bQ0gyXVtDSDJdTjFjKG5bY0hdbjIpYyhjMjMpbltjSF1uM1tDSDJdW0NAQF00KFtPSF0pW0NIMl1bQ0gyXU9bQ0BIXTRbQ0gzXQ==

> <s_epik_cmdline>
J2VwaWtfcHl0aG9uJywgJy1waCcsICc3LjAnLCAnLXRuJywgJzgnLCAnLW1hJywgJzIwMCcsICctbWV0YWxfYmluZGluZycsICctaW1hZScsICc8aW5maWxlLm1hZT4nLCAnLW9tYWUnLCAnPG91dGZpbGUubWFlPic=

> <r_lp_tautomer_probability>
1

> <r_epik_Ionization_Penalty>
0.000106218

> <r_epik_Ionization_Penalty_Charging>
0

> <r_epik_Ionization_Penalty_Neutral>
0.000106218

> <r_epik_State_Penalty>
-0

> <r_epik_Charging_Adjusted_Penalty>
0

> <i_epik_Tot_Q>
0

> <i_epik_Tot_abs_Q>
0

> <r_epik_Metal_State_Penalty>
-0

> <b_epik_Metal_Only>
0

> <s_lp_Force_Field>
OPLS_2005

> <r_lp_Energy>
42.2513

> <b_lp_Chiralities_Consistent>
1

> <s_lp_Variant>
AV-unprocessed.smi:197-3

> <Gold.Version>
5.8.1

> <Gold.Id.Protein>
6NUR|6NUR_protein|mol2

> <Gold.PLP.Fitness>
49.7686

> <Gold.PLP.PLP>
-41.9551

> <Gold.PLP.part.hbond>
-3.9687

> <Gold.PLP.part.metal>
0.0000

> <Gold.PLP.part.buried>
-4.4754

> <Gold.PLP.part.nonpolar>
-34.4651

> <Gold.PLP.part.repulsive>
0.8464

> <Gold.PLP.ligand.clash>
0.0000

> <Gold.PLP.ligand.torsion>
0.7669

> <Gold.PLP.Chemscore.Hbond>
3.0267

> <Gold.PLP.Chemscore.CHOScore>
0.0000

> <Gold.PLP.Chemscore.Metal>
0.0000

> <Gold.Chemscore.Hbonds>
donor molecule, donor type, donor heavy atom, donor atom, acceptor molecule, acceptor atom, score
      P1  H  6896  6908       L1    14  0.83
      P1  H  6931  6943       L1    22  1.00
      P1  H  7989  7998       L1     7  0.23
      P1  H  8011  8017       L1     7  0.62

> <Gold.PLP.Chemscore.Internal.Correction>
0.2674

> <Gold.Rescore>
     Score         DG    S(hbond)    S(metal)    S(lipo)     H(rot)  DE(clash)    DE(int)     intcor
     15.11     -17.12       2.28        0.00      96.50       2.84       0.52       1.49       ----

> <Gold.Chemscore.Fitness>
15.1062

> <Gold.Chemscore.DG>
-17.1172

> <Gold.Chemscore.ZeroCoef>
-5.4800

> <Gold.Chemscore.Hbond>
2.2773

> <Gold.Chemscore.Metal>
0.0000

> <Gold.Chemscore.Lipo>
96.5017

> <Gold.Chemscore.Internal_Hbond>
0.0000

> <Gold.Chemscore.DEClash>
0.5167

> <Gold.Chemscore.DEInternal>
1.4943

> <Gold.Chemscore.Rot>
2.8358

> <Gold.Chemscore.Internal.Correction>
   9.000000E+99

> <Gold.Chemscore.Hbonds>
donor molecule, donor type, donor heavy atom, donor atom, acceptor molecule, acceptor atom, score
      P1  H  6896  6908       L1    14  0.75
      P1  H  6931  6943       L1    22  0.76
      P1  H  7989  7998       L1     7  0.08
      P1  H  8011  8017       L1     7  0.53

> <Gold.Chemscore.Hbond.Weighted>
-7.6061

> <Gold.Chemscore.Metal.Weighted>
-0.0000

> <Gold.Chemscore.Lipo.Weighted>
-11.2907

> <Gold.Chemscore.Internal_Hbond.Weighted>
0.0000

> <Gold.Chemscore.DEClash.Weighted>
0.5167

> <Gold.Chemscore.DEInternal.Weighted>
1.4943

> <Gold.Chemscore.Rot.Weighted>
7.2596

> <Gold.Chemscore.Internal.Correction.Weighted>
   9.000000E+99

> <Gold.Protein.RotatedTorsions>
[ 6907 6896 6895 6894 ] final -143.36 input  -60.11 | X-H torsion
[ 7974 7965 7964 7962 ] final    2.76 input  175.53 | X-H torsion
[ 8008 7997 7996 7995 ] final -104.59 input   59.86 | X-H torsion
[ 10167 10162 10161 10158 ] final -158.90 input  -65.29 | X-H torsion
[ 10718 10713 10712 10709 ] final -174.81 input   66.30 | X-H torsion
[ 10763 10752 10751 10750 ] final  144.44 input  -60.55 | X-H torsion
[ 11005 11000 10999 10996 ] final -162.98 input  -57.11 | X-H torsion

> <Gold.Protein.ActiveResidues>
 VAL166  LYS551  ARG553  GLY616  TRP617  ASP618  TYR619  PRO620  LYS621  CYS622 
 ASP623  PHE694  ASN695  SER759  ASP760  ASP761  ALA762  ILE779  LEU786  VAL792 
 PHE793  MET794  SER795  GLU796  ALA797  LYS798  CYS799  TRP800  GLU811  SER814 

> <Gold.Protein.RotatedAtoms>
  151.0994  133.5255  159.2610 H   0  0  0  0  0  0  0  0  0  0  0  0  # atno 6907 bound_to 6896
  151.2091  135.0473  159.8914 H   0  0  0  0  0  0  0  0  0  0  0  0  # atno 6908 bound_to 6896
  152.5441  134.0812  159.8290 H   0  0  0  0  0  0  0  0  0  0  0  0  # atno 6909 bound_to 6896
  146.2444  140.0787  142.8358 H   0  0  0  0  0  0  0  0  0  0  0  0  # atno 7974 bound_to 7965
  154.8876  140.0417  157.1819 H   0  0  0  0  0  0  0  0  0  0  0  0  # atno 8008 bound_to 7997
  154.8574  140.2938  155.5539 H   0  0  0  0  0  0  0  0  0  0  0  0  # atno 8009 bound_to 7997
  156.2997  140.2453  156.3543 H   0  0  0  0  0  0  0  0  0  0  0  0  # atno 8010 bound_to 7997
  139.6656  143.9835  152.2253 H   0  0  0  0  0  0  0  0  0  0  0  0  # atno 10167 bound_to 10162
  156.7906  130.9517  151.3120 H   0  0  0  0  0  0  0  0  0  0  0  0  # atno 10718 bound_to 10713
  153.9888  135.2934  155.3414 H   0  0  0  0  0  0  0  0  0  0  0  0  # atno 10763 bound_to 10752
  154.7226  135.5102  153.8839 H   0  0  0  0  0  0  0  0  0  0  0  0  # atno 10764 bound_to 10752
  153.0819  135.6681  154.0143 H   0  0  0  0  0  0  0  0  0  0  0  0  # atno 10765 bound_to 10752
  140.6032  134.4926  157.5207 H   0  0  0  0  0  0  0  0  0  0  0  0  # atno 11005 bound_to 11000
  145.0752  140.9183  143.4858 LP  0  0  0  0  0  0  0  0  0  0  0  0  # atno 17320 bound_to 7965
  145.0929  139.2877  143.5726 LP  0  0  0  0  0  0  0  0  0  0  0  0  # atno 17321 bound_to 7965
  139.9585  144.6573  150.8102 LP  0  0  0  0  0  0  0  0  0  0  0  0  # atno 17342 bound_to 10162
  140.7598  143.3137  151.2784 LP  0  0  0  0  0  0  0  0  0  0  0  0  # atno 17343 bound_to 10162
  157.6602  130.8959  149.9814 LP  0  0  0  0  0  0  0  0  0  0  0  0  # atno 17370 bound_to 10713
  156.1161  130.3648  149.9966 LP  0  0  0  0  0  0  0  0  0  0  0  0  # atno 17371 bound_to 10713
  139.9223  134.8123  156.1172 LP  0  0  0  0  0  0  0  0  0  0  0  0  # atno 17394 bound_to 11000
  141.0858  133.6735  156.2433 LP  0  0  0  0  0  0  0  0  0  0  0  0  # atno 17395 bound_to 11000

$$$$
