AV-unprocessed.smi:102|AV-procd|sdf|957|dock10
  -GOLD-   2262017493D 1   1.00000     0.00000
 Structure written by MMmdl.
 44 45  0  0  0  0  0  0  0  0  1 V2000
  142.2210  134.4056  159.5006 C   0  0  0  0  0  0  0  0  0  0  0  0
  143.2883  134.3608  158.4144 C   0  0  0  0  0  0  0  0  0  0  0  0
  142.9869  134.2820  157.2232 O   0  0  0  0  0  0  0  0  0  0  0  0
  144.5336  134.4140  158.9109 O   0  0  0  0  0  0  0  0  0  0  0  0
  145.6368  134.4954  158.0245 C   0  0  0  0  0  0  0  0  0  0  0  0
  145.9604  135.9768  157.7496 C   0  0  2  0  0  0  0  0  0  0  0  0
  147.2212  136.0685  157.0942 O   0  0  0  0  0  0  0  0  0  0  0  0
  148.2395  136.0674  158.0481 C   0  0  1  0  0  0  0  0  0  0  0  0
  149.3701  136.9419  157.5573 N   0  0  0  0  0  0  0  0  0  0  0  0
  149.3323  137.4790  156.2775 C   0  0  0  0  0  0  0  0  0  0  0  0
  150.2965  138.2955  155.7904 C   0  0  0  0  0  0  0  0  0  0  0  0
  150.1926  138.7719  154.5380 F   0  0  0  0  0  0  0  0  0  0  0  0
  151.4433  138.6671  156.6138 C   0  0  0  0  0  0  0  0  0  0  0  0
  152.3683  139.3962  156.2612 O   0  0  0  0  0  0  0  0  0  0  0  0
  151.4289  138.1222  157.9010 N   0  0  0  0  0  0  0  0  0  0  0  0
  150.4396  137.2831  158.4168 C   0  0  0  0  0  0  0  0  0  0  0  0
  150.5233  136.8805  159.5754 O   0  0  0  0  0  0  0  0  0  0  0  0
  147.6398  136.5534  159.3847 C   0  0  2  0  0  0  0  0  0  0  0  0
  147.7438  135.5260  160.3660 O   0  0  0  0  0  0  0  0  0  0  0  0
  147.5597  135.8139  161.6662 C   0  0  0  0  0  0  0  0  0  0  0  0
  147.2378  134.5793  162.4978 C   0  0  0  0  0  0  0  0  0  0  0  0
  147.6419  136.9300  162.1787 O   0  0  0  0  0  0  0  0  0  0  0  0
  146.1825  136.8221  159.0082 C   0  0  2  0  0  0  0  0  0  0  0  0
  145.2464  136.5362  160.0431 O   0  0  0  0  0  0  0  0  0  0  0  0
  145.0798  137.3947  161.0641 C   0  0  0  0  0  0  0  0  0  0  0  0
  144.0436  136.9077  162.0681 C   0  0  0  0  0  0  0  0  0  0  0  0
  145.6742  138.4615  161.2183 O   0  0  0  0  0  0  0  0  0  0  0  0
  152.1960  138.3618  158.5120 H   0  0  0  0  0  0  0  0  0  0  0  0
  142.6718  134.5107  160.4879 H   0  0  0  0  0  0  0  0  0  0  0  0
  141.6326  133.4881  159.4867 H   0  0  0  0  0  0  0  0  0  0  0  0
  141.5502  135.2488  159.3360 H   0  0  0  0  0  0  0  0  0  0  0  0
  146.4901  134.0070  158.4967 H   0  0  0  0  0  0  0  0  0  0  0  0
  145.4260  133.9585  157.0989 H   0  0  0  0  0  0  0  0  0  0  0  0
  145.1762  136.4163  157.1321 H   0  0  0  0  0  0  0  0  0  0  0  0
  148.6456  135.0564  158.1139 H   0  0  0  0  0  0  0  0  0  0  0  0
  148.5046  137.2385  155.6256 H   0  0  0  0  0  0  0  0  0  0  0  0
  148.1210  137.4695  159.7305 H   0  0  0  0  0  0  0  0  0  0  0  0
  148.1349  134.2228  163.0041 H   0  0  0  0  0  0  0  0  0  0  0  0
  146.8528  133.7766  161.8683 H   0  0  0  0  0  0  0  0  0  0  0  0
  146.4863  134.8155  163.2512 H   0  0  0  0  0  0  0  0  0  0  0  0
  146.0856  137.8677  158.7137 H   0  0  0  0  0  0  0  0  0  0  0  0
  144.1890  135.8487  162.2824 H   0  0  0  0  0  0  0  0  0  0  0  0
  143.0382  137.0466  161.6703 H   0  0  0  0  0  0  0  0  0  0  0  0
  144.1259  137.4630  163.0025 H   0  0  0  0  0  0  0  0  0  0  0  0
  1  2  1  0  0  0  0
  1 29  1  0  0  0  0
  1 30  1  0  0  0  0
  1 31  1  0  0  0  0
  2  3  2  0  0  0  0
  2  4  1  0  0  0  0
  4  5  1  0  0  0  0
  5  6  1  0  0  0  0
  5 32  1  0  0  0  0
  5 33  1  0  0  0  0
  6 23  1  0  0  0  0
  6  7  1  0  0  0  0
  6 34  1  0  0  0  0
  7  8  1  0  0  0  0
  8  9  1  0  0  0  0
  8 18  1  0  0  0  0
  8 35  1  0  0  0  0
  9 16  1  0  0  0  0
  9 10  1  0  0  0  0
 10 11  2  0  0  0  0
 10 36  1  0  0  0  0
 11 12  1  0  0  0  0
 11 13  1  0  0  0  0
 13 14  2  0  0  0  0
 13 15  1  0  0  0  0
 15 28  1  0  0  0  0
 15 16  1  0  0  0  0
 16 17  2  0  0  0  0
 18 19  1  0  0  0  0
 18 23  1  0  0  0  0
 18 37  1  0  0  0  0
 19 20  1  0  0  0  0
 20 21  1  0  0  0  0
 20 22  2  0  0  0  0
 21 38  1  0  0  0  0
 21 39  1  0  0  0  0
 21 40  1  0  0  0  0
 23 24  1  0  0  0  0
 23 41  1  0  0  0  0
 24 25  1  0  0  0  0
 25 26  1  0  0  0  0
 25 27  2  0  0  0  0
 26 42  1  0  0  0  0
 26 43  1  0  0  0  0
 26 44  1  0  0  0  0
M  END
> <s_m_source_file>
AV-unprocessed.smi

> <i_m_source_file_index>
102

> <i_lp_mmshare_version>
43012

> <i_f3d_flags>
0

> <s_epik_input>
W0NIM11DKD1PKU9bQ0gyXVtDQEBIXTFPW0NASF0oW0NAQEhdKE9DKD1PKVtDSDNdKVtDQEhdMU9DKD1PKVtDSDNdKW4yW2NIXWMoRiljKD1PKVtuSF1jMj1P

> <s_epik_cmdline>
J2VwaWtfcHl0aG9uJywgJy1waCcsICc3LjAnLCAnLXRuJywgJzgnLCAnLW1hJywgJzIwMCcsICctbWV0YWxfYmluZGluZycsICctaW1hZScsICc8aW5maWxlLm1hZT4nLCAnLW9tYWUnLCAnPG91dGZpbGUubWFlPic=

> <r_lp_tautomer_probability>
0.999537

> <r_epik_Ionization_Penalty>
0.058267

> <r_epik_Ionization_Penalty_Charging>
0.058267

> <r_epik_Ionization_Penalty_Neutral>
6.57791e-16

> <r_epik_State_Penalty>
0.0503774

> <r_epik_Charging_Adjusted_Penalty>
0.108644

> <i_epik_Tot_Q>
0

> <i_epik_Tot_abs_Q>
0

> <r_epik_Metal_State_Penalty>
2.6644

> <b_epik_Metal_Only>
0

> <s_epik_Chemistry_Notes>
This compound has an ester and may undergo hydrolysis at high or low pH. This compound contains an acetal/aminal-like group ( X-CH(R)-Y where X, Y are N, S, or O) that may be acid/base labile, releasing an aldehyde.

> <s_lp_Force_Field>
OPLS_2005

> <r_lp_Energy>
12.818

> <b_lp_Chiralities_Consistent>
1

> <s_lp_Variant>
AV-unprocessed.smi:102-13

> <Gold.Version>
5.8.1

> <Gold.Id.Protein>
6NUR|6NUR_protein|mol2

> <Gold.PLP.Fitness>
39.5113

> <Gold.PLP.PLP>
-27.5185

> <Gold.PLP.part.hbond>
-4.8200

> <Gold.PLP.part.metal>
0.0000

> <Gold.PLP.part.buried>
-7.0689

> <Gold.PLP.part.nonpolar>
-16.4623

> <Gold.PLP.part.repulsive>
0.1413

> <Gold.PLP.ligand.clash>
0.0000

> <Gold.PLP.ligand.torsion>
0.9798

> <Gold.PLP.Chemscore.Hbond>
4.6240

> <Gold.PLP.Chemscore.CHOScore>
0.0000

> <Gold.PLP.Chemscore.Metal>
0.0000

> <Gold.Chemscore.Hbonds>
donor molecule, donor type, donor heavy atom, donor atom, acceptor molecule, acceptor atom, score
      P1  H  6896  6908       L1    17  1.00
      P1  H  6931  6943       L1    22  1.00
      P1  H  6934  6947       L1    27  0.58
      P1  H  7997  8010       L1    14  0.83
      P1  H 11000 11005       L1     3  0.85

> <Gold.PLP.Chemscore.Internal.Correction>
0.0804

> <Gold.Rescore>
     Score         DG    S(hbond)    S(metal)    S(lipo)     H(rot)  DE(clash)    DE(int)     intcor
      9.54     -13.39       4.57        0.00      25.70       4.05       0.02       3.83       ----

> <Gold.Chemscore.Fitness>
9.5383

> <Gold.Chemscore.DG>
-13.3873

> <Gold.Chemscore.ZeroCoef>
-5.4800

> <Gold.Chemscore.Hbond>
4.5730

> <Gold.Chemscore.Metal>
0.0000

> <Gold.Chemscore.Lipo>
25.6977

> <Gold.Chemscore.Internal_Hbond>
0.0000

> <Gold.Chemscore.DEClash>
0.0208

> <Gold.Chemscore.DEInternal>
3.8281

> <Gold.Chemscore.Rot>
4.0520

> <Gold.Chemscore.Internal.Correction>
   9.000000E+99

> <Gold.Chemscore.Hbonds>
donor molecule, donor type, donor heavy atom, donor atom, acceptor molecule, acceptor atom, score
      P1  H  6896  6908       L1    17  0.92
      P1  H  6931  6943       L1    22  0.96
      P1  H  6934  6947       L1    27  0.57
      P1  H  7997  8010       L1    14  0.82
      P1  H 11000 11005       L1     3  0.71

> <Gold.Chemscore.Hbond.Weighted>
-15.2738

> <Gold.Chemscore.Metal.Weighted>
-0.0000

> <Gold.Chemscore.Lipo.Weighted>
-3.0066

> <Gold.Chemscore.Internal_Hbond.Weighted>
0.0000

> <Gold.Chemscore.DEClash.Weighted>
0.0208

> <Gold.Chemscore.DEInternal.Weighted>
3.8281

> <Gold.Chemscore.Rot.Weighted>
10.3732

> <Gold.Chemscore.Internal.Correction.Weighted>
   9.000000E+99

> <Gold.Protein.RotatedTorsions>
[ 6907 6896 6895 6894 ] final -157.23 input  -60.11 | X-H torsion
[ 7974 7965 7964 7962 ] final  -41.95 input  175.53 | X-H torsion
[ 8008 7997 7996 7995 ] final   74.96 input   59.86 | X-H torsion
[ 10167 10162 10161 10158 ] final -169.58 input  -65.29 | X-H torsion
[ 10718 10713 10712 10709 ] final  -30.86 input   66.30 | X-H torsion
[ 10763 10752 10751 10750 ] final  -19.84 input  -60.55 | X-H torsion
[ 11005 11000 10999 10996 ] final  -89.35 input  -57.11 | X-H torsion

> <Gold.Protein.ActiveResidues>
 VAL166  LYS551  ARG553  GLY616  TRP617  ASP618  TYR619  PRO620  LYS621  CYS622 
 ASP623  PHE694  ASN695  SER759  ASP760  ASP761  ALA762  ILE779  LEU786  VAL792 
 PHE793  MET794  SER795  GLU796  ALA797  LYS798  CYS799  TRP800  GLU811  SER814 

> <Gold.Protein.RotatedAtoms>
  151.2996  133.4128  159.2638 H   0  0  0  0  0  0  0  0  0  0  0  0  # atno 6907 bound_to 6896
  151.0206  134.9467  159.8068 H   0  0  0  0  0  0  0  0  0  0  0  0  # atno 6908 bound_to 6896
  152.5323  134.2959  159.9113 H   0  0  0  0  0  0  0  0  0  0  0  0  # atno 6909 bound_to 6896
  146.0162  140.6905  142.9200 H   0  0  0  0  0  0  0  0  0  0  0  0  # atno 7974 bound_to 7965
  155.8059  140.3475  155.5429 H   0  0  0  0  0  0  0  0  0  0  0  0  # atno 8008 bound_to 7997
  155.8490  140.0953  157.1707 H   0  0  0  0  0  0  0  0  0  0  0  0  # atno 8009 bound_to 7997
  154.4007  140.1380  156.3809 H   0  0  0  0  0  0  0  0  0  0  0  0  # atno 8010 bound_to 7997
  139.5914  144.1206  152.1638 H   0  0  0  0  0  0  0  0  0  0  0  0  # atno 10167 bound_to 10162
  156.3946  130.4379  149.7369 H   0  0  0  0  0  0  0  0  0  0  0  0  # atno 10718 bound_to 10713
  153.6111  135.6996  153.5346 H   0  0  0  0  0  0  0  0  0  0  0  0  # atno 10763 bound_to 10752
  153.3016  135.4127  155.1257 H   0  0  0  0  0  0  0  0  0  0  0  0  # atno 10764 bound_to 10752
  154.8563  135.3650  154.5649 H   0  0  0  0  0  0  0  0  0  0  0  0  # atno 10765 bound_to 10752
  141.1586  133.7625  156.9582 H   0  0  0  0  0  0  0  0  0  0  0  0  # atno 11005 bound_to 11000
  144.6972  140.3485  143.7186 LP  0  0  0  0  0  0  0  0  0  0  0  0  # atno 17320 bound_to 7965
  145.7265  139.1724  143.2455 LP  0  0  0  0  0  0  0  0  0  0  0  0  # atno 17321 bound_to 7965
  140.0781  144.5723  150.7142 LP  0  0  0  0  0  0  0  0  0  0  0  0  # atno 17342 bound_to 10162
  140.7176  143.2558  151.4384 LP  0  0  0  0  0  0  0  0  0  0  0  0  # atno 17343 bound_to 10162
  156.4409  130.7860  151.2882 LP  0  0  0  0  0  0  0  0  0  0  0  0  # atno 17370 bound_to 10713
  157.7501  131.0125  150.3387 LP  0  0  0  0  0  0  0  0  0  0  0  0  # atno 17371 bound_to 10713
  140.1211  134.9416  157.2204 LP  0  0  0  0  0  0  0  0  0  0  0  0  # atno 17394 bound_to 11000
  140.3071  134.3065  155.7275 LP  0  0  0  0  0  0  0  0  0  0  0  0  # atno 17395 bound_to 11000

$$$$
