AV-unprocessed.smi:50|AV-procd|sdf|497|dock8
  -GOLD-   2262016373D 1   1.00000     0.00000
 Structure written by MMmdl.
 42 43  0  0  0  0  0  0  0  0  2 V2000
  144.3885  132.9466  149.8632 C   0  0  0  0  0  0  0  0  0  0  0  0
  145.0013  132.6684  151.2469 C   0  0  0  0  0  0  0  0  0  0  0  0
  144.2122  133.4143  152.3410 C   0  0  0  0  0  0  0  0  0  0  0  0
  146.5345  132.9231  151.2640 C   0  0  2  0  0  0  0  0  0  0  0  0
  147.1430  132.5212  149.9948 N   0  0  0  0  0  0  0  0  0  0  0  0
  147.2610  132.3311  152.4875 C   0  0  0  0  0  0  0  0  0  0  0  0
  146.7130  131.5986  153.3116 O   0  0  0  0  0  0  0  0  0  0  0  0
  148.5548  132.7038  152.5236 O   0  0  0  0  0  0  0  0  0  0  0  0
  149.2302  132.7812  153.7676 C   0  0  0  0  0  0  0  0  0  0  0  0
  148.8828  134.1056  154.4514 C   0  0  0  0  0  0  0  0  0  0  0  0
  148.9745  133.9297  155.8549 O   0  0  0  0  0  0  0  0  0  0  0  0
  148.9675  135.1312  156.5503 C   0  0  0  0  0  0  0  0  0  0  0  0
  150.2254  135.8011  156.2876 N   0  0  0  0  0  0  0  0  0  0  0  0
  151.4646  135.3216  156.5091 C   0  0  0  0  0  0  0  0  0  0  0  0
  152.4616  136.1416  156.1787 N   0  0  0  0  0  0  0  0  0  0  0  0
  151.7767  137.2536  155.7010 C   0  0  0  0  0  0  0  0  0  0  0  0
  152.2534  138.5511  155.1638 C   0  0  0  0  0  0  0  0  0  0  0  0
  153.4628  138.7629  155.0960 O   0  0  0  0  0  0  0  0  0  0  0  0
  151.2731  139.4242  154.7792 N   0  5  0  0  0  0  0  0  0  0  0  0
  149.9211  139.0755  154.9078 C   0  0  0  0  0  0  0  0  0  0  0  0
  149.0703  140.0705  154.4785 N   0  0  0  0  0  0  0  0  0  0  0  0
  149.4295  137.9530  155.3729 N   0  0  0  0  0  0  0  0  0  0  0  0
  150.4216  137.0702  155.7573 C   0  0  0  0  0  0  0  0  0  0  0  0
  146.6622  134.0046  151.3215 H   0  0  0  0  0  0  0  0  0  0  0  0
  144.4386  134.0048  149.6048 H   0  0  0  0  0  0  0  0  0  0  0  0
  143.3397  132.6507  149.8340 H   0  0  0  0  0  0  0  0  0  0  0  0
  144.9072  132.3886  149.0834 H   0  0  0  0  0  0  0  0  0  0  0  0
  144.8595  131.6022  151.4312 H   0  0  0  0  0  0  0  0  0  0  0  0
  144.2020  134.4912  152.1730 H   0  0  0  0  0  0  0  0  0  0  0  0
  144.6316  133.2325  153.3308 H   0  0  0  0  0  0  0  0  0  0  0  0
  143.1743  133.0814  152.3633 H   0  0  0  0  0  0  0  0  0  0  0  0
  147.2436  133.3052  149.3663 H   0  0  0  0  0  0  0  0  0  0  0  0
  148.0702  132.1447  150.1320 H   0  0  0  0  0  0  0  0  0  0  0  0
  148.9372  131.9446  154.4035 H   0  0  0  0  0  0  0  0  0  0  0  0
  150.3069  132.7129  153.6064 H   0  0  0  0  0  0  0  0  0  0  0  0
  149.5717  134.8870  154.1261 H   0  0  0  0  0  0  0  0  0  0  0  0
  147.8738  134.4147  154.1739 H   0  0  0  0  0  0  0  0  0  0  0  0
  148.1503  135.7706  156.2124 H   0  0  0  0  0  0  0  0  0  0  0  0
  148.8760  134.9585  157.6239 H   0  0  0  0  0  0  0  0  0  0  0  0
  151.6408  134.3409  156.9258 H   0  0  0  0  0  0  0  0  0  0  0  0
  149.3876  140.9552  154.1110 H   0  0  0  0  0  0  0  0  0  0  0  0
  148.0649  139.9828  154.5006 H   0  0  0  0  0  0  0  0  0  0  0  0
  1  2  1  0  0  0  0
  1 25  1  0  0  0  0
  1 26  1  0  0  0  0
  1 27  1  0  0  0  0
  2  3  1  0  0  0  0
  2  4  1  0  0  0  0
  2 28  1  0  0  0  0
  3 29  1  0  0  0  0
  3 30  1  0  0  0  0
  3 31  1  0  0  0  0
  4 24  1  0  0  0  0
  4  5  1  0  0  0  0
  4  6  1  0  0  0  0
  5 32  1  0  0  0  0
  5 33  1  0  0  0  0
  6  7  2  0  0  0  0
  6  8  1  0  0  0  0
  8  9  1  0  0  0  0
  9 10  1  0  0  0  0
  9 34  1  0  0  0  0
  9 35  1  0  0  0  0
 10 11  1  0  0  0  0
 10 36  1  0  0  0  0
 10 37  1  0  0  0  0
 11 12  1  0  0  0  0
 12 13  1  0  0  0  0
 12 38  1  0  0  0  0
 12 39  1  0  0  0  0
 13 23  1  0  0  0  0
 13 14  1  0  0  0  0
 14 15  2  0  0  0  0
 14 40  1  0  0  0  0
 15 16  1  0  0  0  0
 16 23  2  0  0  0  0
 16 17  1  0  0  0  0
 17 18  2  0  0  0  0
 17 19  1  0  0  0  0
 19 20  1  0  0  0  0
 20 21  1  0  0  0  0
 20 22  2  0  0  0  0
 21 41  1  0  0  0  0
 21 42  1  0  0  0  0
 22 23  1  0  0  0  0
M  CHG  1  19  -1
M  END
> <s_m_source_file>
AV-unprocessed.smi

> <i_m_source_file_index>
50

> <i_lp_mmshare_version>
43012

> <i_f3d_flags>
0

> <s_epik_input>
W0NIM11bQ0hdKFtDSDNdKVtDQEhdKFtOSDJdKUMoPU8pT1tDSDJdW0NIMl1PW0NIMl1uKFtjSF1uMSljKGMxMiluYyhbTkgyXSlbbkhdYzI9Tw==

> <s_epik_cmdline>
J2VwaWtfcHl0aG9uJywgJy1waCcsICc3LjAnLCAnLXRuJywgJzgnLCAnLW1hJywgJzIwMCcsICctbWV0YWxfYmluZGluZycsICctaW1hZScsICc8aW5maWxlLm1hZT4nLCAnLW9tYWUnLCAnPG91dGZpbGUubWFlPic=

> <r_lp_tautomer_probability>
0.99994

> <r_epik_Ionization_Penalty>
4.26118

> <r_epik_Ionization_Penalty_Charging>
1.23364e-10

> <r_epik_Ionization_Penalty_Neutral>
4.26118

> <r_epik_State_Penalty>
4.27372

> <r_epik_Charging_Adjusted_Penalty>
4.27372

> <i_epik_Tot_Q>
-1

> <i_epik_Tot_abs_Q>
1

> <r_epik_Metal_State_Penalty>
1.24306

> <b_epik_Metal_Only>
1

> <s_epik_Chemistry_Notes>
This compound has an ester and may undergo hydrolysis at high or low pH. This compound contains an acetal/aminal-like group ( X-CH(R)-Y where X, Y are N, S, or O) that may be acid/base labile, releasing an aldehyde.

> <s_lp_Force_Field>
OPLS_2005

> <r_lp_Energy>
24.4723

> <b_lp_Chiralities_Consistent>
1

> <s_lp_Variant>
AV-unprocessed.smi:50-7

> <Gold.Version>
5.8.1

> <Gold.Id.Protein>
6NUR|6NUR_protein|mol2

> <Gold.PLP.Fitness>
44.9392

> <Gold.PLP.PLP>
-34.7631

> <Gold.PLP.part.hbond>
-5.3896

> <Gold.PLP.part.metal>
0.0000

> <Gold.PLP.part.buried>
-5.7356

> <Gold.PLP.part.nonpolar>
-24.3781

> <Gold.PLP.part.repulsive>
1.1864

> <Gold.PLP.ligand.clash>
0.0000

> <Gold.PLP.ligand.torsion>
1.0331

> <Gold.PLP.Chemscore.Hbond>
4.0000

> <Gold.PLP.Chemscore.CHOScore>
0.0000

> <Gold.PLP.Chemscore.Metal>
0.0000

> <Gold.Chemscore.Hbonds>
donor molecule, donor type, donor heavy atom, donor atom, acceptor molecule, acceptor atom, score
      L1  H     5    33       P1 10747  0.96
      P1  H  7989  7998       L1    19  1.00
      P1  H  7997  8008       L1    18  0.96
      P1  H 10752 10763       L1    15  0.90

> <Gold.PLP.Chemscore.Internal.Correction>
0.2421

> <Gold.Rescore>
     Score         DG    S(hbond)    S(metal)    S(lipo)     H(rot)  DE(clash)    DE(int)     intcor
      9.27     -10.85       3.60        0.00      46.43       4.72       0.19       1.39       ----

> <Gold.Chemscore.Fitness>
9.2724

> <Gold.Chemscore.DG>
-10.8502

> <Gold.Chemscore.ZeroCoef>
-5.4800

> <Gold.Chemscore.Hbond>
3.6023

> <Gold.Chemscore.Metal>
0.0000

> <Gold.Chemscore.Lipo>
46.4259

> <Gold.Chemscore.Internal_Hbond>
0.0000

> <Gold.Chemscore.DEClash>
0.1907

> <Gold.Chemscore.DEInternal>
1.3871

> <Gold.Chemscore.Rot>
4.7239

> <Gold.Chemscore.Internal.Correction>
   9.000000E+99

> <Gold.Chemscore.Hbonds>
donor molecule, donor type, donor heavy atom, donor atom, acceptor molecule, acceptor atom, score
      L1  H     5    33       P1 10747  0.89
      P1  H  7989  7998       L1    19  0.88
      P1  H  7997  8008       L1    18  0.92
      P1  H 10752 10763       L1    15  0.13

> <Gold.Chemscore.Hbond.Weighted>
-12.0317

> <Gold.Chemscore.Metal.Weighted>
-0.0000

> <Gold.Chemscore.Lipo.Weighted>
-5.4318

> <Gold.Chemscore.Internal_Hbond.Weighted>
0.0000

> <Gold.Chemscore.DEClash.Weighted>
0.1907

> <Gold.Chemscore.DEInternal.Weighted>
1.3871

> <Gold.Chemscore.Rot.Weighted>
12.0933

> <Gold.Chemscore.Internal.Correction.Weighted>
   9.000000E+99

> <Gold.Protein.RotatedTorsions>
[ 6907 6896 6895 6894 ] final  -51.70 input  -60.11 | X-H torsion
[ 7974 7965 7964 7962 ] final    5.51 input  175.53 | X-H torsion
[ 8008 7997 7996 7995 ] final  -24.96 input   59.86 | X-H torsion
[ 10167 10162 10161 10158 ] final -138.61 input  -65.29 | X-H torsion
[ 10718 10713 10712 10709 ] final -148.34 input   66.30 | X-H torsion
[ 10763 10752 10751 10750 ] final   74.34 input  -60.55 | X-H torsion
[ 11005 11000 10999 10996 ] final  -99.40 input  -57.11 | X-H torsion

> <Gold.Protein.ActiveResidues>
 VAL166  LYS551  ARG553  GLY616  TRP617  ASP618  TYR619  PRO620  LYS621  CYS622 
 ASP623  PHE694  ASN695  SER759  ASP760  ASP761  ALA762  ILE779  LEU786  VAL792 
 PHE793  MET794  SER795  GLU796  ALA797  LYS798  CYS799  TRP800  GLU811  SER814 

> <Gold.Protein.RotatedAtoms>
  150.8587  134.7933  159.7065 H   0  0  0  0  0  0  0  0  0  0  0  0  # atno 6907 bound_to 6896
  152.4631  134.5136  159.9771 H   0  0  0  0  0  0  0  0  0  0  0  0  # atno 6908 bound_to 6896
  151.5244  133.3422  159.2942 H   0  0  0  0  0  0  0  0  0  0  0  0  # atno 6909 bound_to 6896
  146.2440  140.0373  142.8385 H   0  0  0  0  0  0  0  0  0  0  0  0  # atno 7974 bound_to 7965
  154.4501  140.1939  156.0545 H   0  0  0  0  0  0  0  0  0  0  0  0  # atno 8008 bound_to 7997
  156.0629  140.3294  155.7456 H   0  0  0  0  0  0  0  0  0  0  0  0  # atno 8009 bound_to 7997
  155.5383  140.0584  157.2866 H   0  0  0  0  0  0  0  0  0  0  0  0  # atno 8010 bound_to 7997
  139.8461  143.7259  152.2661 H   0  0  0  0  0  0  0  0  0  0  0  0  # atno 10167 bound_to 10162
  156.4190  130.8019  151.2241 H   0  0  0  0  0  0  0  0  0  0  0  0  # atno 10718 bound_to 10713
  153.0580  135.5029  154.8028 H   0  0  0  0  0  0  0  0  0  0  0  0  # atno 10763 bound_to 10752
  154.6838  135.2973  154.9578 H   0  0  0  0  0  0  0  0  0  0  0  0  # atno 10764 bound_to 10752
  154.0355  135.6724  153.4837 H   0  0  0  0  0  0  0  0  0  0  0  0  # atno 10765 bound_to 10752
  141.1310  133.8319  157.0967 H   0  0  0  0  0  0  0  0  0  0  0  0  # atno 11005 bound_to 11000
  145.1101  140.9399  143.4662 LP  0  0  0  0  0  0  0  0  0  0  0  0  # atno 17320 bound_to 7965
  145.0585  139.3124  143.5892 LP  0  0  0  0  0  0  0  0  0  0  0  0  # atno 17321 bound_to 7965
  139.7511  144.7534  151.0505 LP  0  0  0  0  0  0  0  0  0  0  0  0  # atno 17342 bound_to 10162
  140.7793  143.4859  150.9957 LP  0  0  0  0  0  0  0  0  0  0  0  0  # atno 17343 bound_to 10162
  157.7508  131.0234  150.3832 LP  0  0  0  0  0  0  0  0  0  0  0  0  # atno 17370 bound_to 10713
  156.4145  130.3941  149.6868 LP  0  0  0  0  0  0  0  0  0  0  0  0  # atno 17371 bound_to 10713
  140.0359  134.9878  157.0869 LP  0  0  0  0  0  0  0  0  0  0  0  0  # atno 17394 bound_to 11000
  140.4212  134.1879  155.7164 LP  0  0  0  0  0  0  0  0  0  0  0  0  # atno 17395 bound_to 11000

$$$$
