AV-unprocessed.smi:2900|AV-procd|sdf|11148|dock8
  -GOLD-   2272016 23D 1   1.00000     0.00000
 Structure written by MMmdl.
 35 36  0  0  0  0  0  0  0  0  1 V2000
  153.3815  139.0799  159.4755 O   0  0  0  0  0  0  0  0  0  0  0  0
  153.1139  140.2785  159.4001 C   0  0  0  0  0  0  0  0  0  0  0  0
  153.5902  141.2679  160.3635 C   0  0  0  0  0  0  0  0  0  0  0  0
  153.2722  142.5755  160.2551 C   0  0  0  0  0  0  0  0  0  0  0  0
  152.4317  143.0188  159.1557 C   0  0  0  0  0  0  0  0  0  0  0  0
  152.0207  144.4554  158.9468 C   0  0  0  0  0  0  0  0  0  0  0  0
  152.4818  144.9229  157.7865 F   0  0  0  0  0  0  0  0  0  0  0  0
  150.6910  144.5545  158.9448 F   0  0  0  0  0  0  0  0  0  0  0  0
  152.4999  145.2172  159.9307 F   0  0  0  0  0  0  0  0  0  0  0  0
  152.0054  142.1468  158.2998 N   0  0  0  0  0  0  0  0  0  0  0  0
  152.3441  140.8083  158.4051 N   0  0  0  0  0  0  0  0  0  0  0  0
  151.7899  139.9626  157.3397 C   0  0  0  0  0  0  0  0  0  0  0  0
  151.0918  140.7755  156.2258 C   0  0  1  0  0  0  0  0  0  0  0  0
  151.4412  140.1788  154.9936 O   0  0  0  0  0  0  0  0  0  0  0  0
  149.5568  140.7825  156.3396 C   0  0  0  0  0  0  0  0  0  0  0  0
  149.0146  141.4073  155.1840 O   0  0  0  0  0  0  0  0  0  0  0  0
  147.7215  141.8809  155.2446 C   0  0  0  0  0  0  0  0  0  0  0  0
  147.1722  142.3937  154.0512 C   0  0  0  0  0  0  0  0  0  0  0  0
  145.8580  142.8989  154.0205 C   0  0  0  0  0  0  0  0  0  0  0  0
  145.0763  142.8972  155.1903 C   0  0  0  0  0  0  0  0  0  0  0  0
  145.6117  142.3894  156.3883 C   0  0  0  0  0  0  0  0  0  0  0  0
  146.9259  141.8831  156.4188 C   0  0  0  0  0  0  0  0  0  0  0  0
  154.2146  140.9427  161.1828 H   0  0  0  0  0  0  0  0  0  0  0  0
  153.6367  143.2888  160.9791 H   0  0  0  0  0  0  0  0  0  0  0  0
  152.5933  139.3602  156.9113 H   0  0  0  0  0  0  0  0  0  0  0  0
  151.0860  139.2414  157.7607 H   0  0  0  0  0  0  0  0  0  0  0  0
  151.4668  141.7994  156.2298 H   0  0  0  0  0  0  0  0  0  0  0  0
  151.6314  139.2661  155.1485 H   0  0  0  0  0  0  0  0  0  0  0  0
  149.1724  139.7688  156.4680 H   0  0  0  0  0  0  0  0  0  0  0  0
  149.2535  141.3667  157.2083 H   0  0  0  0  0  0  0  0  0  0  0  0
  147.7650  142.3989  153.1484 H   0  0  0  0  0  0  0  0  0  0  0  0
  145.4504  143.2877  153.0989 H   0  0  0  0  0  0  0  0  0  0  0  0
  144.0685  143.2849  155.1687 H   0  0  0  0  0  0  0  0  0  0  0  0
  145.0133  142.3879  157.2874 H   0  0  0  0  0  0  0  0  0  0  0  0
  147.3000  141.5026  157.3570 H   0  0  0  0  0  0  0  0  0  0  0  0
  1  2  2  0  0  0  0
  2 11  1  0  0  0  0
  2  3  1  0  0  0  0
  3  4  2  0  0  0  0
  3 23  1  0  0  0  0
  4  5  1  0  0  0  0
  4 24  1  0  0  0  0
  5  6  1  0  0  0  0
  5 10  2  0  0  0  0
  6  7  1  0  0  0  0
  6  8  1  0  0  0  0
  6  9  1  0  0  0  0
 10 11  1  0  0  0  0
 11 12  1  0  0  0  0
 12 13  1  0  0  0  0
 12 25  1  0  0  0  0
 12 26  1  0  0  0  0
 13 14  1  0  0  0  0
 13 15  1  0  0  0  0
 13 27  1  0  0  0  0
 14 28  1  0  0  0  0
 15 16  1  0  0  0  0
 15 29  1  0  0  0  0
 15 30  1  0  0  0  0
 16 17  1  0  0  0  0
 17 22  1  0  0  0  0
 17 18  2  0  0  0  0
 18 19  1  0  0  0  0
 18 31  1  0  0  0  0
 19 20  2  0  0  0  0
 19 32  1  0  0  0  0
 20 21  1  0  0  0  0
 20 33  1  0  0  0  0
 21 22  2  0  0  0  0
 21 34  1  0  0  0  0
 22 35  1  0  0  0  0
M  END
> <s_m_source_file>
AV-unprocessed.smi

> <i_m_source_file_index>
2900

> <i_lp_mmshare_version>
43012

> <i_f3d_flags>
0

> <s_epik_input>
Tz1jMVtjSF1bY0hdYyhDKEYpKEYpRilubjFbQ0gyXVtDQEhdKFtPSF0pW0NIMl1PYzJbY0hdW2NIXVtjSF1bY0hdW2NIXTI=

> <s_epik_cmdline>
J2VwaWtfcHl0aG9uJywgJy1waCcsICc3LjAnLCAnLXRuJywgJzgnLCAnLW1hJywgJzIwMCcsICctbWV0YWxfYmluZGluZycsICctaW1hZScsICc8aW5maWxlLm1hZT4nLCAnLW9tYWUnLCAnPG91dGZpbGUubWFlPic=

> <r_lp_tautomer_probability>
1

> <r_epik_Ionization_Penalty>
1.22578e-07

> <r_epik_Ionization_Penalty_Charging>
5.40425e-09

> <r_epik_Ionization_Penalty_Neutral>
1.17174e-07

> <r_epik_State_Penalty>
-0

> <r_epik_Charging_Adjusted_Penalty>
5.40425e-09

> <i_epik_Tot_Q>
0

> <i_epik_Tot_abs_Q>
0

> <r_epik_Metal_State_Penalty>
-0

> <b_epik_Metal_Only>
0

> <s_lp_Force_Field>
OPLS_2005

> <r_lp_Energy>
32.4131

> <b_lp_Chiralities_Consistent>
1

> <s_lp_Variant>
AV-unprocessed.smi:2900-2

> <Gold.Version>
5.8.1

> <Gold.Id.Protein>
6NUR|6NUR_protein|mol2

> <Gold.PLP.Fitness>
51.2979

> <Gold.PLP.PLP>
-49.8077

> <Gold.PLP.part.hbond>
-1.0000

> <Gold.PLP.part.metal>
0.0000

> <Gold.PLP.part.buried>
-7.4504

> <Gold.PLP.part.nonpolar>
-41.5443

> <Gold.PLP.part.repulsive>
0.1365

> <Gold.PLP.ligand.clash>
0.0000

> <Gold.PLP.ligand.torsion>
0.7740

> <Gold.PLP.Chemscore.Hbond>
1.0000

> <Gold.PLP.Chemscore.CHOScore>
0.0000

> <Gold.PLP.Chemscore.Metal>
0.0000

> <Gold.Chemscore.Hbonds>
donor molecule, donor type, donor heavy atom, donor atom, acceptor molecule, acceptor atom, score
      P1  H  7989  7998       L1    14  1.00

> <Gold.PLP.Chemscore.Internal.Correction>
0.0382

> <Gold.Rescore>
     Score         DG    S(hbond)    S(metal)    S(lipo)     H(rot)  DE(clash)    DE(int)     intcor
     10.85     -12.82       0.98        0.00      92.38       2.63       0.87       1.10       ----

> <Gold.Chemscore.Fitness>
10.8467

> <Gold.Chemscore.DG>
-12.8181

> <Gold.Chemscore.ZeroCoef>
-5.4800

> <Gold.Chemscore.Hbond>
0.9794

> <Gold.Chemscore.Metal>
0.0000

> <Gold.Chemscore.Lipo>
92.3845

> <Gold.Chemscore.Internal_Hbond>
0.0000

> <Gold.Chemscore.DEClash>
0.8736

> <Gold.Chemscore.DEInternal>
1.0979

> <Gold.Chemscore.Rot>
2.6336

> <Gold.Chemscore.Internal.Correction>
   9.000000E+99

> <Gold.Chemscore.Hbonds>
donor molecule, donor type, donor heavy atom, donor atom, acceptor molecule, acceptor atom, score
      P1  H  7989  7998       L1    14  0.96

> <Gold.Chemscore.Hbond.Weighted>
-3.2711

> <Gold.Chemscore.Metal.Weighted>
-0.0000

> <Gold.Chemscore.Lipo.Weighted>
-10.8090

> <Gold.Chemscore.Internal_Hbond.Weighted>
0.0000

> <Gold.Chemscore.DEClash.Weighted>
0.8736

> <Gold.Chemscore.DEInternal.Weighted>
1.0979

> <Gold.Chemscore.Rot.Weighted>
6.7420

> <Gold.Chemscore.Internal.Correction.Weighted>
   9.000000E+99

> <Gold.Protein.RotatedTorsions>
[ 6907 6896 6895 6894 ] final -106.06 input  -60.11 | X-H torsion
[ 7974 7965 7964 7962 ] final  -27.30 input  175.53 | X-H torsion
[ 8008 7997 7996 7995 ] final    0.69 input   59.86 | X-H torsion
[ 10167 10162 10161 10158 ] final -151.94 input  -65.29 | X-H torsion
[ 10718 10713 10712 10709 ] final -103.97 input   66.30 | X-H torsion
[ 10763 10752 10751 10750 ] final   48.05 input  -60.55 | X-H torsion
[ 11005 11000 10999 10996 ] final   64.04 input  -57.11 | X-H torsion

> <Gold.Protein.ActiveResidues>
 VAL166  LYS551  ARG553  GLY616  TRP617  ASP618  TYR619  PRO620  LYS621  CYS622 
 ASP623  PHE694  ASN695  SER759  ASP760  ASP761  ALA762  ILE779  LEU786  VAL792 
 PHE793  MET794  SER795  GLU796  ALA797  LYS798  CYS799  TRP800  GLU811  SER814 

> <Gold.Protein.RotatedAtoms>
  150.7369  134.0032  159.3644 H   0  0  0  0  0  0  0  0  0  0  0  0  # atno 6907 bound_to 6896
  151.7988  135.0713  160.0407 H   0  0  0  0  0  0  0  0  0  0  0  0  # atno 6908 bound_to 6896
  152.3156  133.5762  159.5746 H   0  0  0  0  0  0  0  0  0  0  0  0  # atno 6909 bound_to 6896
  146.1367  140.5134  142.8670 H   0  0  0  0  0  0  0  0  0  0  0  0  # atno 7974 bound_to 7965
  154.6710  140.2612  155.7007 H   0  0  0  0  0  0  0  0  0  0  0  0  # atno 8008 bound_to 7997
  156.2658  140.2829  156.1140 H   0  0  0  0  0  0  0  0  0  0  0  0  # atno 8009 bound_to 7997
  155.1169  140.0376  157.2729 H   0  0  0  0  0  0  0  0  0  0  0  0  # atno 8010 bound_to 7997
  139.7224  143.8936  152.2508 H   0  0  0  0  0  0  0  0  0  0  0  0  # atno 10167 bound_to 10162
  156.0286  130.5493  150.7329 H   0  0  0  0  0  0  0  0  0  0  0  0  # atno 10718 bound_to 10713
  152.9795  135.5956  154.3862 H   0  0  0  0  0  0  0  0  0  0  0  0  # atno 10763 bound_to 10752
  154.3522  135.2767  155.2367 H   0  0  0  0  0  0  0  0  0  0  0  0  # atno 10764 bound_to 10752
  154.4402  135.6015  153.6179 H   0  0  0  0  0  0  0  0  0  0  0  0  # atno 10765 bound_to 10752
  139.9984  134.6480  155.9971 H   0  0  0  0  0  0  0  0  0  0  0  0  # atno 11005 bound_to 11000
  144.7747  140.5714  143.6646 LP  0  0  0  0  0  0  0  0  0  0  0  0  # atno 17320 bound_to 7965
  145.5140  139.1478  143.3589 LP  0  0  0  0  0  0  0  0  0  0  0  0  # atno 17321 bound_to 7965
  139.8836  144.7004  150.8850 LP  0  0  0  0  0  0  0  0  0  0  0  0  # atno 17342 bound_to 10162
  140.7756  143.3642  151.1771 LP  0  0  0  0  0  0  0  0  0  0  0  0  # atno 17343 bound_to 10162
  157.4917  131.0911  151.0419 LP  0  0  0  0  0  0  0  0  0  0  0  0  # atno 17370 bound_to 10713
  157.0824  130.5908  149.5423 LP  0  0  0  0  0  0  0  0  0  0  0  0  # atno 17371 bound_to 10713
  141.1623  133.6538  156.4360 LP  0  0  0  0  0  0  0  0  0  0  0  0  # atno 17394 bound_to 11000
  140.4774  134.6697  157.5156 LP  0  0  0  0  0  0  0  0  0  0  0  0  # atno 17395 bound_to 11000

$$$$
