AV-unprocessed.smi:370|AV-procd|sdf|2436|dock5
  -GOLD-   2262022373D 1   1.00000     0.00000
 Structure written by MMmdl.
 42 43  0  0  0  0  0  0  0  0  1 V2000
  143.7642  132.4731  149.2980 C   0  0  0  0  0  0  0  0  0  0  0  0
  144.7577  133.2239  150.1164 C   0  0  0  0  0  0  0  0  0  0  0  0
  144.7427  134.4645  150.6886 C   0  0  0  0  0  0  0  0  0  0  0  0
  146.0175  134.5395  151.3217 C   0  0  0  0  0  0  0  0  0  0  0  0
  146.5246  135.6388  152.0614 N   0  0  0  0  0  0  0  0  0  0  0  0
  145.8454  136.5319  152.8005 C   0  0  0  0  0  0  0  0  0  0  0  0
  144.6287  136.5242  152.9868 O   0  0  0  0  0  0  0  0  0  0  0  0
  146.6711  137.4445  153.3316 N   0  0  0  0  0  0  0  0  0  0  0  0
  146.2810  138.5454  154.2126 C   0  0  0  0  0  0  0  0  0  0  0  0
  147.0971  139.8448  153.9481 C   0  0  0  0  0  0  0  0  0  0  0  0
  147.1982  140.0156  152.4129 C   0  0  0  0  0  0  0  0  0  0  0  0
  146.2389  141.0203  154.4815 C   0  0  0  0  0  0  0  0  0  0  0  0
  148.4273  139.8050  154.6192 N   0  0  0  0  0  0  0  0  0  0  0  0
  149.3758  138.8377  154.0539 C   0  0  0  0  0  0  0  0  0  0  0  0
  150.6780  138.7608  154.8684 C   0  0  0  0  0  0  0  0  0  0  0  0
  151.2705  140.0513  154.9453 O   0  0  0  0  0  0  0  0  0  0  0  0
  150.4059  141.0094  155.5431 C   0  0  0  0  0  0  0  0  0  0  0  0
  149.0989  141.1042  154.7377 C   0  0  0  0  0  0  0  0  0  0  0  0
  146.7391  133.4482  151.1431 N   0  0  0  0  0  0  0  0  0  0  0  0
  145.9372  132.5973  150.3736 O   0  0  0  0  0  0  0  0  0  0  0  0
  142.8009  132.9837  149.2899 H   0  0  0  0  0  0  0  0  0  0  0  0
  143.6115  131.4704  149.6975 H   0  0  0  0  0  0  0  0  0  0  0  0
  144.1057  132.3792  148.2671 H   0  0  0  0  0  0  0  0  0  0  0  0
  143.9427  135.1881  150.6477 H   0  0  0  0  0  0  0  0  0  0  0  0
  147.5264  135.7560  152.0260 H   0  0  0  0  0  0  0  0  0  0  0  0
  147.6571  137.3609  153.1321 H   0  0  0  0  0  0  0  0  0  0  0  0
  145.2144  138.7193  154.0734 H   0  0  0  0  0  0  0  0  0  0  0  0
  146.3709  138.2513  155.2599 H   0  0  0  0  0  0  0  0  0  0  0  0
  146.2076  140.0503  151.9580 H   0  0  0  0  0  0  0  0  0  0  0  0
  147.7307  139.1903  151.9408 H   0  0  0  0  0  0  0  0  0  0  0  0
  147.7030  140.9396  152.1320 H   0  0  0  0  0  0  0  0  0  0  0  0
  145.2069  140.9511  154.1353 H   0  0  0  0  0  0  0  0  0  0  0  0
  146.6076  141.9884  154.1432 H   0  0  0  0  0  0  0  0  0  0  0  0
  146.2149  141.0401  155.5715 H   0  0  0  0  0  0  0  0  0  0  0  0
  148.9445  137.8390  154.0265 H   0  0  0  0  0  0  0  0  0  0  0  0
  149.6204  139.1055  153.0260 H   0  0  0  0  0  0  0  0  0  0  0  0
  150.4835  138.3800  155.8724 H   0  0  0  0  0  0  0  0  0  0  0  0
  151.3806  138.0741  154.3963 H   0  0  0  0  0  0  0  0  0  0  0  0
  150.2023  140.7312  156.5783 H   0  0  0  0  0  0  0  0  0  0  0  0
  150.9080  141.9766  155.5649 H   0  0  0  0  0  0  0  0  0  0  0  0
  149.3246  141.5039  153.7490 H   0  0  0  0  0  0  0  0  0  0  0  0
  148.4571  141.8296  155.2343 H   0  0  0  0  0  0  0  0  0  0  0  0
  1  2  1  0  0  0  0
  1 21  1  0  0  0  0
  1 22  1  0  0  0  0
  1 23  1  0  0  0  0
  2 20  1  0  0  0  0
  2  3  2  0  0  0  0
  3  4  1  0  0  0  0
  3 24  1  0  0  0  0
  4  5  1  0  0  0  0
  4 19  2  0  0  0  0
  5  6  1  0  0  0  0
  5 25  1  0  0  0  0
  6  7  2  0  0  0  0
  6  8  1  0  0  0  0
  8  9  1  0  0  0  0
  8 26  1  0  0  0  0
  9 10  1  0  0  0  0
  9 27  1  0  0  0  0
  9 28  1  0  0  0  0
 10 11  1  0  0  0  0
 10 12  1  0  0  0  0
 10 13  1  0  0  0  0
 11 29  1  0  0  0  0
 11 30  1  0  0  0  0
 11 31  1  0  0  0  0
 12 32  1  0  0  0  0
 12 33  1  0  0  0  0
 12 34  1  0  0  0  0
 13 18  1  0  0  0  0
 13 14  1  0  0  0  0
 14 15  1  0  0  0  0
 14 35  1  0  0  0  0
 14 36  1  0  0  0  0
 15 16  1  0  0  0  0
 15 37  1  0  0  0  0
 15 38  1  0  0  0  0
 16 17  1  0  0  0  0
 17 18  1  0  0  0  0
 17 39  1  0  0  0  0
 17 40  1  0  0  0  0
 18 41  1  0  0  0  0
 18 42  1  0  0  0  0
 19 20  1  0  0  0  0
M  END
> <s_m_source_file>
AV-unprocessed.smi

> <i_m_source_file_index>
370

> <i_lp_mmshare_version>
43012

> <i_f3d_flags>
0

> <s_epik_input>
W0NIM11jMVtjSF1jKG5vMSlbTkhdQyg9TylbTkhdW0NIMl1DKFtDSDNdKShbQ0gzXSlOMltDSDJdW0NIMl1PW0NIMl1bQ0gyXTI=

> <s_epik_cmdline>
J2VwaWtfcHl0aG9uJywgJy1waCcsICc3LjAnLCAnLXRuJywgJzgnLCAnLW1hJywgJzIwMCcsICctbWV0YWxfYmluZGluZycsICctaW1hZScsICc8aW5maWxlLm1hZT4nLCAnLW9tYWUnLCAnPG91dGZpbGUubWFlPic=

> <r_epik_Ionization_Penalty>
0.214074

> <r_epik_Ionization_Penalty_Charging>
0

> <r_epik_Ionization_Penalty_Neutral>
0.214074

> <r_epik_State_Penalty>
0.204211

> <r_epik_Charging_Adjusted_Penalty>
0.204211

> <i_epik_Tot_Q>
0

> <i_epik_Tot_abs_Q>
0

> <r_epik_Metal_State_Penalty>
0.217151

> <b_epik_Metal_Only>
0

> <s_lp_Force_Field>
OPLS_2005

> <r_lp_Energy>
40.6457

> <b_lp_Chiralities_Consistent>
1

> <s_lp_Variant>
AV-unprocessed.smi:370-1

> <Gold.Version>
5.8.1

> <Gold.Id.Protein>
6NUR|6NUR_protein|mol2

> <Gold.PLP.Fitness>
36.4752

> <Gold.PLP.PLP>
-30.6409

> <Gold.PLP.part.hbond>
-2.9473

> <Gold.PLP.part.metal>
0.0000

> <Gold.PLP.part.buried>
-3.5546

> <Gold.PLP.part.nonpolar>
-25.8787

> <Gold.PLP.part.repulsive>
0.6648

> <Gold.PLP.ligand.clash>
0.0000

> <Gold.PLP.ligand.torsion>
0.8780

> <Gold.PLP.Chemscore.Hbond>
2.5080

> <Gold.PLP.Chemscore.CHOScore>
0.0000

> <Gold.PLP.Chemscore.Metal>
0.0000

> <Gold.Chemscore.Hbonds>
donor molecule, donor type, donor heavy atom, donor atom, acceptor molecule, acceptor atom, score
      L1  H     5    25       P1  7948  0.89
      L1  H     8    26       P1  7948  0.59
      P1  H  7989  7998       L1    16  1.00

> <Gold.PLP.Chemscore.Internal.Correction>
0.0662

> <Gold.Rescore>
     Score         DG    S(hbond)    S(metal)    S(lipo)     H(rot)  DE(clash)    DE(int)     intcor
     17.26     -18.71       2.57        0.00      73.83       1.55       0.22       1.23       ----

> <Gold.Chemscore.Fitness>
17.2554

> <Gold.Chemscore.DG>
-18.7095

> <Gold.Chemscore.ZeroCoef>
-5.4800

> <Gold.Chemscore.Hbond>
2.5664

> <Gold.Chemscore.Metal>
0.0000

> <Gold.Chemscore.Lipo>
73.8291

> <Gold.Chemscore.Internal_Hbond>
0.0000

> <Gold.Chemscore.DEClash>
0.2208

> <Gold.Chemscore.DEInternal>
1.2332

> <Gold.Chemscore.Rot>
1.5548

> <Gold.Chemscore.Internal.Correction>
   9.000000E+99

> <Gold.Chemscore.Hbonds>
donor molecule, donor type, donor heavy atom, donor atom, acceptor molecule, acceptor atom, score
      L1  H     5    25       P1  7948  0.86
      L1  H     8    26       P1  7948  0.57
      P1  H  7989  7998       L1    16  0.25

> <Gold.Chemscore.Hbond.Weighted>
-8.5717

> <Gold.Chemscore.Metal.Weighted>
-0.0000

> <Gold.Chemscore.Lipo.Weighted>
-8.6380

> <Gold.Chemscore.Internal_Hbond.Weighted>
0.0000

> <Gold.Chemscore.DEClash.Weighted>
0.2208

> <Gold.Chemscore.DEInternal.Weighted>
1.2332

> <Gold.Chemscore.Rot.Weighted>
3.9802

> <Gold.Chemscore.Internal.Correction.Weighted>
   9.000000E+99

> <Gold.Protein.RotatedTorsions>
[ 6907 6896 6895 6894 ] final   87.39 input  -60.11 | X-H torsion
[ 7974 7965 7964 7962 ] final   80.73 input  175.53 | X-H torsion
[ 8008 7997 7996 7995 ] final   24.59 input   59.86 | X-H torsion
[ 10167 10162 10161 10158 ] final  -11.74 input  -65.29 | X-H torsion
[ 10718 10713 10712 10709 ] final  120.93 input   66.30 | X-H torsion
[ 10763 10752 10751 10750 ] final   10.97 input  -60.55 | X-H torsion
[ 11005 11000 10999 10996 ] final -157.73 input  -57.11 | X-H torsion

> <Gold.Protein.ActiveResidues>
 VAL166  LYS551  ARG553  GLY616  TRP617  ASP618  TYR619  PRO620  LYS621  CYS622 
 ASP623  PHE694  ASN695  SER759  ASP760  ASP761  ALA762  ILE779  LEU786  VAL792 
 PHE793  MET794  SER795  GLU796  ALA797  LYS798  CYS799  TRP800  GLU811  SER814 

> <Gold.Protein.RotatedAtoms>
  152.5410  134.2284  159.8814 H   0  0  0  0  0  0  0  0  0  0  0  0  # atno 6907 bound_to 6896
  151.2257  133.4471  159.2609 H   0  0  0  0  0  0  0  0  0  0  0  0  # atno 6908 bound_to 6896
  151.0763  134.9843  159.8389 H   0  0  0  0  0  0  0  0  0  0  0  0  # atno 6909 bound_to 6896
  145.6474  139.2439  143.1996 H   0  0  0  0  0  0  0  0  0  0  0  0  # atno 7974 bound_to 7965
  154.9986  140.3122  155.4876 H   0  0  0  0  0  0  0  0  0  0  0  0  # atno 8008 bound_to 7997
  156.2928  140.2236  156.5036 H   0  0  0  0  0  0  0  0  0  0  0  0  # atno 8009 bound_to 7997
  154.7638  140.0457  157.0984 H   0  0  0  0  0  0  0  0  0  0  0  0  # atno 8010 bound_to 7997
  140.7145  143.5607  150.9198 H   0  0  0  0  0  0  0  0  0  0  0  0  # atno 10167 bound_to 10162
  157.5855  131.1070  150.8104 H   0  0  0  0  0  0  0  0  0  0  0  0  # atno 10718 bound_to 10713
  153.1975  135.6851  153.8273 H   0  0  0  0  0  0  0  0  0  0  0  0  # atno 10763 bound_to 10752
  153.7550  135.3218  155.3328 H   0  0  0  0  0  0  0  0  0  0  0  0  # atno 10764 bound_to 10752
  154.8153  135.4690  154.0727 H   0  0  0  0  0  0  0  0  0  0  0  0  # atno 10765 bound_to 10752
  140.6615  134.4345  157.5234 H   0  0  0  0  0  0  0  0  0  0  0  0  # atno 11005 bound_to 11000
  146.1232  140.7282  142.9448 LP  0  0  0  0  0  0  0  0  0  0  0  0  # atno 17320 bound_to 7965
  144.7135  140.4126  143.7062 LP  0  0  0  0  0  0  0  0  0  0  0  0  # atno 17321 bound_to 7965
  139.9333  143.6468  152.3071 LP  0  0  0  0  0  0  0  0  0  0  0  0  # atno 17342 bound_to 10162
  139.6926  144.7645  151.1412 LP  0  0  0  0  0  0  0  0  0  0  0  0  # atno 17343 bound_to 10162
  156.8539  130.5090  149.5309 LP  0  0  0  0  0  0  0  0  0  0  0  0  # atno 17370 bound_to 10713
  156.0903  130.5891  150.9722 LP  0  0  0  0  0  0  0  0  0  0  0  0  # atno 17371 bound_to 10713
  139.9011  134.8553  156.1891 LP  0  0  0  0  0  0  0  0  0  0  0  0  # atno 17394 bound_to 11000
  141.0462  133.6912  156.1687 LP  0  0  0  0  0  0  0  0  0  0  0  0  # atno 17395 bound_to 11000

$$$$
