AV-unprocessed.smi:255|AV-procd|sdf|1952|dock3
  -GOLD-   2262021 93D 1   1.00000     0.00000
 Structure written by MMmdl.
 44 47  0  0  0  0  0  0  0  0  1 V2000
  146.8970  137.8317  162.5808 O   0  0  0  0  0  0  0  0  0  0  0  0
  148.0181  137.0187  162.8511 C   0  0  0  0  0  0  0  0  0  0  0  0
  147.7461  135.5696  162.3907 C   0  0  1  0  0  0  0  0  0  0  0  0
  146.3095  135.0859  162.5973 C   0  0  0  0  0  0  0  0  0  0  0  0
  146.2507  133.8363  161.7164 C   0  0  1  0  0  0  0  0  0  0  0  0
  145.0674  133.7278  161.1121 F   0  0  0  0  0  0  0  0  0  0  0  0
  147.4002  133.9987  160.7059 C   0  0  0  0  0  0  0  0  0  0  0  0
  148.0428  135.2824  160.9853 N   0  0  0  0  0  0  0  0  0  0  0  0
  147.7812  136.2731  160.0949 C   0  0  0  0  0  0  0  0  0  0  0  0
  146.5105  136.7193  159.9043 N   0  0  0  0  0  0  0  0  0  0  0  0
  146.2728  137.7223  159.0543 C   0  0  0  0  0  0  0  0  0  0  0  0
  147.1421  138.4093  158.3102 N   0  0  0  0  0  0  0  0  0  0  0  0
  148.4169  137.9590  158.4922 C   0  0  0  0  0  0  0  0  0  0  0  0
  148.8193  136.9068  159.3612 C   0  0  0  0  0  0  0  0  0  0  0  0
  150.1965  136.7405  159.3032 N   0  0  0  0  0  0  0  0  0  0  0  0
  150.5879  137.6499  158.4527 C   0  0  0  0  0  0  0  0  0  0  0  0
  149.5836  138.4147  157.9009 N   0  0  0  0  0  0  0  0  0  0  0  0
  149.7388  139.5020  156.9443 C   0  0  0  0  0  0  0  0  0  0  0  0
  150.6248  139.1795  155.7128 C   0  0  1  0  0  0  0  0  0  0  0  0
  150.2865  140.1254  154.7147 O   0  0  0  0  0  0  0  0  0  0  0  0
  152.1322  139.2707  155.9510 C   0  0  0  0  0  0  0  0  0  0  0  0
  152.6959  138.2627  154.9589 C   0  0  0  0  0  0  0  0  0  0  0  0
  151.7591  137.2033  155.0380 O   0  0  0  0  0  0  0  0  0  0  0  0
  150.4540  137.7668  155.1107 C   0  0  0  0  0  0  0  0  0  0  0  0
  148.4073  134.9191  162.9658 H   0  0  0  0  0  0  0  0  0  0  0  0
  146.3945  132.9329  162.3098 H   0  0  0  0  0  0  0  0  0  0  0  0
  147.1245  138.4368  161.8914 H   0  0  0  0  0  0  0  0  0  0  0  0
  148.8896  137.4431  162.3511 H   0  0  0  0  0  0  0  0  0  0  0  0
  148.2068  137.0491  163.9246 H   0  0  0  0  0  0  0  0  0  0  0  0
  146.0768  134.8762  163.6415 H   0  0  0  0  0  0  0  0  0  0  0  0
  145.6033  135.8371  162.2402 H   0  0  0  0  0  0  0  0  0  0  0  0
  148.1361  133.2062  160.8439 H   0  0  0  0  0  0  0  0  0  0  0  0
  147.0461  133.9217  159.6767 H   0  0  0  0  0  0  0  0  0  0  0  0
  145.2387  138.0189  158.9599 H   0  0  0  0  0  0  0  0  0  0  0  0
  151.6301  137.7885  158.2045 H   0  0  0  0  0  0  0  0  0  0  0  0
  148.7431  139.8014  156.6138 H   0  0  0  0  0  0  0  0  0  0  0  0
  150.1473  140.3604  157.4793 H   0  0  0  0  0  0  0  0  0  0  0  0
  149.4017  140.4196  154.8688 H   0  0  0  0  0  0  0  0  0  0  0  0
  152.5387  140.2744  155.8200 H   0  0  0  0  0  0  0  0  0  0  0  0
  152.3970  138.9393  156.9530 H   0  0  0  0  0  0  0  0  0  0  0  0
  152.7117  138.6698  153.9467 H   0  0  0  0  0  0  0  0  0  0  0  0
  153.7021  137.9318  155.2167 H   0  0  0  0  0  0  0  0  0  0  0  0
  149.8197  137.1146  155.7062 H   0  0  0  0  0  0  0  0  0  0  0  0
  150.0224  137.8007  154.1092 H   0  0  0  0  0  0  0  0  0  0  0  0
  1  2  1  0  0  0  0
  1 27  1  0  0  0  0
  2  3  1  0  0  0  0
  2 28  1  0  0  0  0
  2 29  1  0  0  0  0
  3 25  1  0  0  0  0
  3  8  1  0  0  0  0
  3  4  1  0  0  0  0
  4  5  1  0  0  0  0
  4 30  1  0  0  0  0
  4 31  1  0  0  0  0
  5 26  1  0  0  0  0
  5  6  1  0  0  0  0
  5  7  1  0  0  0  0
  7  8  1  0  0  0  0
  7 32  1  0  0  0  0
  7 33  1  0  0  0  0
  8  9  1  0  0  0  0
  9 14  1  0  0  0  0
  9 10  2  0  0  0  0
 10 11  1  0  0  0  0
 11 12  2  0  0  0  0
 11 34  1  0  0  0  0
 12 13  1  0  0  0  0
 13 17  1  0  0  0  0
 13 14  2  0  0  0  0
 14 15  1  0  0  0  0
 15 16  2  0  0  0  0
 16 17  1  0  0  0  0
 16 35  1  0  0  0  0
 17 18  1  0  0  0  0
 18 19  1  0  0  0  0
 18 36  1  0  0  0  0
 18 37  1  0  0  0  0
 19 24  1  0  0  0  0
 19 20  1  0  0  0  0
 19 21  1  0  0  0  0
 20 38  1  0  0  0  0
 21 22  1  0  0  0  0
 21 39  1  0  0  0  0
 21 40  1  0  0  0  0
 22 23  1  0  0  0  0
 22 41  1  0  0  0  0
 22 42  1  0  0  0  0
 23 24  1  0  0  0  0
 24 43  1  0  0  0  0
 24 44  1  0  0  0  0
M  END
> <s_m_source_file>
AV-unprocessed.smi

> <i_m_source_file_index>
255

> <i_lp_mmshare_version>
43012

> <i_f3d_flags>
0

> <s_epik_input>
W09IXVtDSDJdW0NAQEhdMVtDSDJdW0NASF0oRilbQ0gyXU4xYyhuW2NIXW4yKWMoYzIzKW5bY0hdbjNbQ0gyXVtDQEBdNChbT0hdKVtDSDJdW0NIMl1PW0NIMl00

> <s_epik_cmdline>
J2VwaWtfcHl0aG9uJywgJy1waCcsICc3LjAnLCAnLXRuJywgJzgnLCAnLW1hJywgJzIwMCcsICctbWV0YWxfYmluZGluZycsICctaW1hZScsICc8aW5maWxlLm1hZT4nLCAnLW9tYWUnLCAnPG91dGZpbGUubWFlPic=

> <r_lp_tautomer_probability>
1

> <r_epik_Ionization_Penalty>
0.0058098

> <r_epik_Ionization_Penalty_Charging>
0

> <r_epik_Ionization_Penalty_Neutral>
0.0058098

> <r_epik_State_Penalty>
0.00411166

> <r_epik_Charging_Adjusted_Penalty>
0.00411166

> <i_epik_Tot_Q>
0

> <i_epik_Tot_abs_Q>
0

> <r_epik_Metal_State_Penalty>
-0

> <b_epik_Metal_Only>
0

> <s_lp_Force_Field>
OPLS_2005

> <r_lp_Energy>
52.3077

> <b_lp_Chiralities_Consistent>
1

> <s_lp_Variant>
AV-unprocessed.smi:255-4

> <Gold.Version>
5.8.1

> <Gold.Id.Protein>
6NUR|6NUR_protein|mol2

> <Gold.PLP.Fitness>
44.1397

> <Gold.PLP.PLP>
-36.5971

> <Gold.PLP.part.hbond>
-5.2350

> <Gold.PLP.part.metal>
0.0000

> <Gold.PLP.part.buried>
-3.0698

> <Gold.PLP.part.nonpolar>
-28.3609

> <Gold.PLP.part.repulsive>
0.0818

> <Gold.PLP.ligand.clash>
0.0000

> <Gold.PLP.ligand.torsion>
0.7088

> <Gold.PLP.Chemscore.Hbond>
2.9600

> <Gold.PLP.Chemscore.CHOScore>
0.0000

> <Gold.PLP.Chemscore.Metal>
0.0000

> <Gold.Chemscore.Hbonds>
donor molecule, donor type, donor heavy atom, donor atom, acceptor molecule, acceptor atom, score
      P1  H  6896  6909       L1    15  1.00
      P1  H  7989  7998       L1    20  1.00
      P1  H 10752 10765       L1    23  0.99

> <Gold.PLP.Chemscore.Internal.Correction>
0.0802

> <Gold.Rescore>
     Score         DG    S(hbond)    S(metal)    S(lipo)     H(rot)  DE(clash)    DE(int)     intcor
     12.80     -13.96       2.63        0.00      70.24       3.33       0.22       0.94       ----

> <Gold.Chemscore.Fitness>
12.7966

> <Gold.Chemscore.DG>
-13.9643

> <Gold.Chemscore.ZeroCoef>
-5.4800

> <Gold.Chemscore.Hbond>
2.6300

> <Gold.Chemscore.Metal>
0.0000

> <Gold.Chemscore.Lipo>
70.2389

> <Gold.Chemscore.Internal_Hbond>
0.0000

> <Gold.Chemscore.DEClash>
0.2243

> <Gold.Chemscore.DEInternal>
0.9434

> <Gold.Chemscore.Rot>
3.3273

> <Gold.Chemscore.Internal.Correction>
   9.000000E+99

> <Gold.Chemscore.Hbonds>
donor molecule, donor type, donor heavy atom, donor atom, acceptor molecule, acceptor atom, score
      P1  H  6896  6909       L1    15  0.96
      P1  H  7989  7998       L1    20  0.97
      P1  H 10752 10765       L1    23  0.23

> <Gold.Chemscore.Hbond.Weighted>
-8.7842

> <Gold.Chemscore.Metal.Weighted>
-0.0000

> <Gold.Chemscore.Lipo.Weighted>
-8.2179

> <Gold.Chemscore.Internal_Hbond.Weighted>
0.0000

> <Gold.Chemscore.DEClash.Weighted>
0.2243

> <Gold.Chemscore.DEInternal.Weighted>
0.9434

> <Gold.Chemscore.Rot.Weighted>
8.5179

> <Gold.Chemscore.Internal.Correction.Weighted>
   9.000000E+99

> <Gold.Protein.RotatedTorsions>
[ 6907 6896 6895 6894 ] final   83.25 input  -60.11 | X-H torsion
[ 7974 7965 7964 7962 ] final   39.50 input  175.53 | X-H torsion
[ 8008 7997 7996 7995 ] final  -95.94 input   59.86 | X-H torsion
[ 10167 10162 10161 10158 ] final    1.67 input  -65.29 | X-H torsion
[ 10718 10713 10712 10709 ] final  175.56 input   66.30 | X-H torsion
[ 10763 10752 10751 10750 ] final  177.14 input  -60.55 | X-H torsion
[ 11005 11000 10999 10996 ] final   91.03 input  -57.11 | X-H torsion

> <Gold.Protein.ActiveResidues>
 VAL166  LYS551  ARG553  GLY616  TRP617  ASP618  TYR619  PRO620  LYS621  CYS622 
 ASP623  PHE694  ASN695  SER759  ASP760  ASP761  ALA762  ILE779  LEU786  VAL792 
 PHE793  MET794  SER795  GLU796  ALA797  LYS798  CYS799  TRP800  GLU811  SER814 

> <Gold.Protein.RotatedAtoms>
  152.5322  134.2924  159.9047 H   0  0  0  0  0  0  0  0  0  0  0  0  # atno 6907 bound_to 6896
  151.2876  133.4174  159.2638 H   0  0  0  0  0  0  0  0  0  0  0  0  # atno 6908 bound_to 6896
  151.0229  134.9498  159.8126 H   0  0  0  0  0  0  0  0  0  0  0  0  # atno 6909 bound_to 6896
  146.0979  139.5644  142.9433 H   0  0  0  0  0  0  0  0  0  0  0  0  # atno 7974 bound_to 7965
  154.7680  140.0475  157.1028 H   0  0  0  0  0  0  0  0  0  0  0  0  # atno 8008 bound_to 7997
  154.9856  140.3107  155.4908 H   0  0  0  0  0  0  0  0  0  0  0  0  # atno 8009 bound_to 7997
  156.2916  140.2228  156.4958 H   0  0  0  0  0  0  0  0  0  0  0  0  # atno 8010 bound_to 7997
  140.6672  143.7148  150.7850 H   0  0  0  0  0  0  0  0  0  0  0  0  # atno 10167 bound_to 10162
  156.9331  130.9977  151.2983 H   0  0  0  0  0  0  0  0  0  0  0  0  # atno 10718 bound_to 10713
  154.4905  135.2779  155.1500 H   0  0  0  0  0  0  0  0  0  0  0  0  # atno 10763 bound_to 10752
  154.3174  135.6216  153.5496 H   0  0  0  0  0  0  0  0  0  0  0  0  # atno 10764 bound_to 10752
  152.9887  135.5734  154.5325 H   0  0  0  0  0  0  0  0  0  0  0  0  # atno 10765 bound_to 10752
  139.8845  134.8649  156.3370 H   0  0  0  0  0  0  0  0  0  0  0  0  # atno 11005 bound_to 11000
  145.5912  141.0369  143.2069 LP  0  0  0  0  0  0  0  0  0  0  0  0  # atno 17320 bound_to 7965
  144.7409  139.7451  143.7311 LP  0  0  0  0  0  0  0  0  0  0  0  0  # atno 17321 bound_to 7965
  140.0827  143.4953  152.2521 LP  0  0  0  0  0  0  0  0  0  0  0  0  # atno 17342 bound_to 10162
  139.5925  144.7555  151.3366 LP  0  0  0  0  0  0  0  0  0  0  0  0  # atno 17343 bound_to 10162
  157.5834  130.8392  149.8555 LP  0  0  0  0  0  0  0  0  0  0  0  0  # atno 17370 bound_to 10713
  156.0438  130.3732  150.1368 LP  0  0  0  0  0  0  0  0  0  0  0  0  # atno 17371 bound_to 10713
  140.9685  133.7343  156.0500 LP  0  0  0  0  0  0  0  0  0  0  0  0  # atno 17394 bound_to 11000
  140.7901  134.3627  157.5466 LP  0  0  0  0  0  0  0  0  0  0  0  0  # atno 17395 bound_to 11000

$$$$
