AV-unprocessed.smi:2281|AV-procd|sdf|9194|dock7
  -GOLD-   2272012413D 1   1.00000     0.00000
 Structure written by MMmdl.
 40 41  0  0  0  0  0  0  0  0  1 V2000
  147.6668  139.0070  153.1941 C   0  0  0  0  0  0  0  0  0  0  0  0
  148.6712  139.7656  154.0432 C   0  0  0  0  0  0  0  0  0  0  0  0
  148.2855  141.0514  154.4309 N   0  0  0  0  0  0  0  0  0  0  0  0
  149.0681  141.7624  155.1744 C   0  0  0  0  0  0  0  0  0  0  0  0
  150.3135  141.2779  155.6160 N   0  0  0  0  0  0  0  0  0  0  0  0
  151.1143  142.1694  156.4829 C   0  0  0  0  0  0  0  0  0  0  0  0
  150.5241  142.4034  157.9073 C   0  0  2  0  0  0  0  0  0  0  0  0
  149.3948  141.3877  158.1823 C   0  0  0  0  0  0  0  0  0  0  0  0
  149.8239  143.6345  157.8701 O   0  0  0  0  0  0  0  0  0  0  0  0
  151.5885  142.3653  159.0148 C   0  0  0  0  0  0  0  0  0  0  0  0
  151.7458  143.4458  159.9150 C   0  0  0  0  0  0  0  0  0  0  0  0
  152.7448  143.4119  160.9054 C   0  0  0  0  0  0  0  0  0  0  0  0
  153.6007  142.3004  161.0096 C   0  0  0  0  0  0  0  0  0  0  0  0
  153.4615  141.2145  160.1194 C   0  0  0  0  0  0  0  0  0  0  0  0
  154.3821  140.0062  160.1993 C   0  0  0  0  0  0  0  0  0  0  0  0
  155.6420  140.3856  159.9850 F   0  0  0  0  0  0  0  0  0  0  0  0
  154.2970  139.4679  161.4154 F   0  0  0  0  0  0  0  0  0  0  0  0
  154.0637  139.0763  159.2982 F   0  0  0  0  0  0  0  0  0  0  0  0
  152.4595  141.2568  159.1277 C   0  0  0  0  0  0  0  0  0  0  0  0
  150.7847  140.0532  155.2410 C   0  0  0  0  0  0  0  0  0  0  0  0
  151.9008  139.6565  155.5806 O   0  0  0  0  0  0  0  0  0  0  0  0
  149.8731  139.2464  154.4140 C   0  0  0  0  0  0  0  0  0  0  0  0
  150.3440  137.8496  154.0278 C   0  0  0  0  0  0  0  0  0  0  0  0
  148.1037  138.7414  152.2311 H   0  0  0  0  0  0  0  0  0  0  0  0
  146.7757  139.6062  153.0022 H   0  0  0  0  0  0  0  0  0  0  0  0
  147.3529  138.0934  153.6995 H   0  0  0  0  0  0  0  0  0  0  0  0
  148.8069  142.7680  155.5084 H   0  0  0  0  0  0  0  0  0  0  0  0
  152.1468  141.8192  156.5449 H   0  0  0  0  0  0  0  0  0  0  0  0
  151.2071  143.1405  155.9922 H   0  0  0  0  0  0  0  0  0  0  0  0
  149.7515  140.3582  158.1673 H   0  0  0  0  0  0  0  0  0  0  0  0
  148.6068  141.4559  157.4306 H   0  0  0  0  0  0  0  0  0  0  0  0
  148.9347  141.5602  159.1564 H   0  0  0  0  0  0  0  0  0  0  0  0
  149.5267  143.7862  156.9860 H   0  0  0  0  0  0  0  0  0  0  0  0
  151.1127  144.3182  159.8503 H   0  0  0  0  0  0  0  0  0  0  0  0
  152.8572  144.2441  161.5847 H   0  0  0  0  0  0  0  0  0  0  0  0
  154.3647  142.2936  161.7727 H   0  0  0  0  0  0  0  0  0  0  0  0
  152.3783  140.4301  158.4384 H   0  0  0  0  0  0  0  0  0  0  0  0
  150.5159  137.2513  154.9232 H   0  0  0  0  0  0  0  0  0  0  0  0
  151.2818  137.9077  153.4740 H   0  0  0  0  0  0  0  0  0  0  0  0
  149.6303  137.3113  153.4063 H   0  0  0  0  0  0  0  0  0  0  0  0
  1  2  1  0  0  0  0
  1 24  1  0  0  0  0
  1 25  1  0  0  0  0
  1 26  1  0  0  0  0
  2 22  2  0  0  0  0
  2  3  1  0  0  0  0
  3  4  2  0  0  0  0
  4  5  1  0  0  0  0
  4 27  1  0  0  0  0
  5  6  1  0  0  0  0
  5 20  1  0  0  0  0
  6  7  1  0  0  0  0
  6 28  1  0  0  0  0
  6 29  1  0  0  0  0
  7  8  1  0  0  0  0
  7  9  1  0  0  0  0
  7 10  1  0  0  0  0
  8 30  1  0  0  0  0
  8 31  1  0  0  0  0
  8 32  1  0  0  0  0
  9 33  1  0  0  0  0
 10 19  1  0  0  0  0
 10 11  2  0  0  0  0
 11 12  1  0  0  0  0
 11 34  1  0  0  0  0
 12 13  2  0  0  0  0
 12 35  1  0  0  0  0
 13 14  1  0  0  0  0
 13 36  1  0  0  0  0
 14 15  1  0  0  0  0
 14 19  2  0  0  0  0
 15 16  1  0  0  0  0
 15 17  1  0  0  0  0
 15 18  1  0  0  0  0
 19 37  1  0  0  0  0
 20 21  2  0  0  0  0
 20 22  1  0  0  0  0
 22 23  1  0  0  0  0
 23 38  1  0  0  0  0
 23 39  1  0  0  0  0
 23 40  1  0  0  0  0
M  END
> <s_m_source_file>
AV-unprocessed.smi

> <i_m_source_file_index>
2281

> <i_lp_mmshare_version>
43012

> <i_f3d_flags>
0

> <s_epik_input>
W0NIM11jMW5bY0hdbihjKD1PKWMxW0NIM10pW0NIMl1bQ0BAXShbQ0gzXSkoW09IXSljMltjSF1bY0hdW2NIXWMoQyhGKShGKUYpW2NIXTI=

> <s_epik_cmdline>
J2VwaWtfcHl0aG9uJywgJy1waCcsICc3LjAnLCAnLXRuJywgJzgnLCAnLW1hJywgJzIwMCcsICctbWV0YWxfYmluZGluZycsICctaW1hZScsICc8aW5maWxlLm1hZT4nLCAnLW9tYWUnLCAnPG91dGZpbGUubWFlPic=

> <r_lp_tautomer_probability>
1

> <r_epik_Ionization_Penalty>
5.68222e-05

> <r_epik_Ionization_Penalty_Charging>
9.07816e-08

> <r_epik_Ionization_Penalty_Neutral>
5.67314e-05

> <r_epik_State_Penalty>
-0

> <r_epik_Charging_Adjusted_Penalty>
9.07816e-08

> <i_epik_Tot_Q>
0

> <i_epik_Tot_abs_Q>
0

> <r_epik_Metal_State_Penalty>
-0

> <b_epik_Metal_Only>
0

> <s_lp_Force_Field>
OPLS_2005

> <r_lp_Energy>
21.2776

> <b_lp_Chiralities_Consistent>
1

> <s_lp_Variant>
AV-unprocessed.smi:2281-2

> <Gold.Version>
5.8.1

> <Gold.Id.Protein>
6NUR|6NUR_protein|mol2

> <Gold.PLP.Fitness>
46.7873

> <Gold.PLP.PLP>
-44.1243

> <Gold.PLP.part.hbond>
-1.8502

> <Gold.PLP.part.metal>
0.0000

> <Gold.PLP.part.buried>
0.6884

> <Gold.PLP.part.nonpolar>
-41.7248

> <Gold.PLP.part.repulsive>
0.1214

> <Gold.PLP.ligand.clash>
1.3599

> <Gold.PLP.ligand.torsion>
1.1234

> <Gold.PLP.Chemscore.Hbond>
1.0000

> <Gold.PLP.Chemscore.CHOScore>
0.9978

> <Gold.PLP.Chemscore.Metal>
0.0000

> <Gold.Chemscore.Hbonds>
donor molecule, donor type, donor heavy atom, donor atom, acceptor molecule, acceptor atom, score
      L1  H     9    33       P1  8028  1.00
      L1  C     4    27       P1  8028  0.80

> <Gold.PLP.Chemscore.Internal.Correction>
0.2763

> <Gold.Rescore>
     Score         DG    S(hbond)    S(metal)    S(lipo)     H(rot)  DE(clash)    DE(int)     intcor
     14.76     -16.12       0.86        0.00     112.14       2.09       0.26       1.10       ----

> <Gold.Chemscore.Fitness>
14.7576

> <Gold.Chemscore.DG>
-16.1234

> <Gold.Chemscore.ZeroCoef>
-5.4800

> <Gold.Chemscore.Hbond>
0.8573

> <Gold.Chemscore.Metal>
0.0000

> <Gold.Chemscore.Lipo>
112.1384

> <Gold.Chemscore.Internal_Hbond>
0.0000

> <Gold.Chemscore.DEClash>
0.2642

> <Gold.Chemscore.DEInternal>
1.1016

> <Gold.Chemscore.Rot>
2.0860

> <Gold.Chemscore.Internal.Correction>
   9.000000E+99

> <Gold.Chemscore.Hbonds>
donor molecule, donor type, donor heavy atom, donor atom, acceptor molecule, acceptor atom, score
      L1  H     9    33       P1  8028  0.84

> <Gold.Chemscore.Hbond.Weighted>
-2.8634

> <Gold.Chemscore.Metal.Weighted>
-0.0000

> <Gold.Chemscore.Lipo.Weighted>
-13.1202

> <Gold.Chemscore.Internal_Hbond.Weighted>
0.0000

> <Gold.Chemscore.DEClash.Weighted>
0.2642

> <Gold.Chemscore.DEInternal.Weighted>
1.1016

> <Gold.Chemscore.Rot.Weighted>
5.3402

> <Gold.Chemscore.Internal.Correction.Weighted>
   9.000000E+99

> <Gold.Protein.RotatedTorsions>
[ 6907 6896 6895 6894 ] final -143.29 input  -60.11 | X-H torsion
[ 7974 7965 7964 7962 ] final   61.61 input  175.53 | X-H torsion
[ 8008 7997 7996 7995 ] final   66.06 input   59.86 | X-H torsion
[ 10167 10162 10161 10158 ] final  102.98 input  -65.29 | X-H torsion
[ 10718 10713 10712 10709 ] final  108.77 input   66.30 | X-H torsion
[ 10763 10752 10751 10750 ] final   82.36 input  -60.55 | X-H torsion
[ 11005 11000 10999 10996 ] final  -36.77 input  -57.11 | X-H torsion

> <Gold.Protein.ActiveResidues>
 VAL166  LYS551  ARG553  GLY616  TRP617  ASP618  TYR619  PRO620  LYS621  CYS622 
 ASP623  PHE694  ASN695  SER759  ASP760  ASP761  ALA762  ILE779  LEU786  VAL792 
 PHE793  MET794  SER795  GLU796  ALA797  LYS798  CYS799  TRP800  GLU811  SER814 

> <Gold.Protein.RotatedAtoms>
  151.0985  133.5261  159.2610 H   0  0  0  0  0  0  0  0  0  0  0  0  # atno 6907 bound_to 6896
  151.2101  135.0477  159.8917 H   0  0  0  0  0  0  0  0  0  0  0  0  # atno 6908 bound_to 6896
  152.5441  134.0802  159.8285 H   0  0  0  0  0  0  0  0  0  0  0  0  # atno 6909 bound_to 6896
  145.8828  139.3455  143.0695 H   0  0  0  0  0  0  0  0  0  0  0  0  # atno 7974 bound_to 7965
  155.6715  140.3497  155.4820 H   0  0  0  0  0  0  0  0  0  0  0  0  # atno 8008 bound_to 7997
  155.9684  140.1151  157.0857 H   0  0  0  0  0  0  0  0  0  0  0  0  # atno 8009 bound_to 7997
  154.4160  140.1162  156.5259 H   0  0  0  0  0  0  0  0  0  0  0  0  # atno 8010 bound_to 7997
  139.7303  144.7037  151.0733 H   0  0  0  0  0  0  0  0  0  0  0  0  # atno 10167 bound_to 10162
  157.6571  131.0900  150.6355 H   0  0  0  0  0  0  0  0  0  0  0  0  # atno 10718 bound_to 10713
  153.1196  135.4731  154.9173 H   0  0  0  0  0  0  0  0  0  0  0  0  # atno 10763 bound_to 10752
  154.7562  135.3119  154.8467 H   0  0  0  0  0  0  0  0  0  0  0  0  # atno 10764 bound_to 10752
  153.9035  135.6872  153.4808 H   0  0  0  0  0  0  0  0  0  0  0  0  # atno 10765 bound_to 10752
  140.9900  133.7010  156.1834 H   0  0  0  0  0  0  0  0  0  0  0  0  # atno 11005 bound_to 11000
  145.9002  140.9247  143.0507 LP  0  0  0  0  0  0  0  0  0  0  0  0  # atno 17320 bound_to 7965
  144.6727  140.1023  143.7460 LP  0  0  0  0  0  0  0  0  0  0  0  0  # atno 17321 bound_to 7965
  140.7770  143.5052  150.9721 LP  0  0  0  0  0  0  0  0  0  0  0  0  # atno 17342 bound_to 10162
  139.8740  143.7156  152.3163 LP  0  0  0  0  0  0  0  0  0  0  0  0  # atno 17343 bound_to 10162
  156.6661  130.4526  149.5672 LP  0  0  0  0  0  0  0  0  0  0  0  0  # atno 17370 bound_to 10713
  156.2032  130.6633  151.1190 LP  0  0  0  0  0  0  0  0  0  0  0  0  # atno 17371 bound_to 10713
  140.7054  134.4519  157.5584 LP  0  0  0  0  0  0  0  0  0  0  0  0  # atno 17394 bound_to 11000
  139.8988  134.8605  156.1986 LP  0  0  0  0  0  0  0  0  0  0  0  0  # atno 17395 bound_to 11000

$$$$
