AV-unprocessed.smi:92|AV-procd|sdf|848|dock4
  -GOLD-   2262017283D 1   1.00000     0.00000
 Structure written by MMmdl.
 61 64  0  0  0  0  0  0  0  0  2 V2000
  152.7625  144.4129  158.2845 C   0  0  0  0  0  0  0  0  0  0  0  0
  151.4130  143.7375  158.0011 C   0  0  0  0  0  0  0  0  0  0  0  0
  151.5567  142.2963  157.6742 N   0  3  1  0  0  0  0  0  0  0  0  0
  151.9947  141.4965  158.8468 C   0  0  0  0  0  0  0  0  0  0  0  0
  152.2811  140.0396  158.4509 C   0  0  0  0  0  0  0  0  0  0  0  0
  151.0516  139.4052  157.7725 C   0  0  2  0  0  0  0  0  0  0  0  0
  151.2146  137.9712  157.4838 N   0  0  0  0  0  0  0  0  0  0  0  0
  152.5191  137.4052  157.1330 C   0  0  0  0  0  0  0  0  0  0  0  0
  150.1268  137.3471  156.9582 C   0  0  0  0  0  0  0  0  0  0  0  0
  148.8884  137.8520  157.2056 N   0  0  0  0  0  0  0  0  0  0  0  0
  147.8013  137.2433  156.7247 C   0  0  0  0  0  0  0  0  0  0  0  0
  147.7255  136.1370  155.9846 N   0  0  0  0  0  0  0  0  0  0  0  0
  148.9625  135.6257  155.7232 C   0  0  0  0  0  0  0  0  0  0  0  0
  150.2045  136.1645  156.1670 C   0  0  0  0  0  0  0  0  0  0  0  0
  151.2513  135.3821  155.6938 N   0  0  0  0  0  0  0  0  0  0  0  0
  150.6636  134.4323  155.0197 C   0  0  0  0  0  0  0  0  0  0  0  0
  149.2889  134.4979  154.9862 N   0  0  0  0  0  0  0  0  0  0  0  0
  148.4081  133.5814  154.3160 C   0  0  0  0  0  0  0  0  0  0  0  0
  148.7195  133.0616  152.9098 C   0  0  0  0  0  0  0  0  0  0  0  0
  147.2041  133.0206  152.6012 C   0  0  0  0  0  0  0  0  0  0  0  0
  146.7767  133.4893  151.1960 C   0  0  0  0  0  0  0  0  0  0  0  0
  147.0499  132.5279  150.1960 O   0  0  0  0  0  0  0  0  0  0  0  0
  146.5549  131.6446  152.8403 C   0  0  0  0  0  0  0  0  0  0  0  0
  146.9890  130.6907  151.8920 O   0  0  0  0  0  0  0  0  0  0  0  0
  147.0547  134.0341  153.7610 C   0  0  0  0  0  0  0  0  0  0  0  0
  150.5766  140.2651  156.5700 C   0  0  2  0  0  0  0  0  0  0  0  0
  151.4868  140.2254  155.3278 C   0  0  0  0  0  0  0  0  0  0  0  0
  150.3418  141.7160  157.0402 C   0  0  0  0  0  0  0  0  0  0  0  0
  152.6141  145.4439  158.6064 H   0  0  0  0  0  0  0  0  0  0  0  0
  153.4022  144.4411  157.4030 H   0  0  0  0  0  0  0  0  0  0  0  0
  153.3033  143.8949  159.0770 H   0  0  0  0  0  0  0  0  0  0  0  0
  150.7968  143.8444  158.8948 H   0  0  0  0  0  0  0  0  0  0  0  0
  150.8834  144.2532  157.1987 H   0  0  0  0  0  0  0  0  0  0  0  0
  152.8980  141.9318  159.2759 H   0  0  0  0  0  0  0  0  0  0  0  0
  151.2268  141.5336  159.6214 H   0  0  0  0  0  0  0  0  0  0  0  0
  153.1466  140.0154  157.7882 H   0  0  0  0  0  0  0  0  0  0  0  0
  152.5539  139.4687  159.3393 H   0  0  0  0  0  0  0  0  0  0  0  0
  150.2646  139.4780  158.5206 H   0  0  0  0  0  0  0  0  0  0  0  0
  152.4828  136.3154  157.1656 H   0  0  0  0  0  0  0  0  0  0  0  0
  153.2871  137.7121  157.8416 H   0  0  0  0  0  0  0  0  0  0  0  0
  152.8393  137.6973  156.1347 H   0  0  0  0  0  0  0  0  0  0  0  0
  146.8572  137.7075  156.9684 H   0  0  0  0  0  0  0  0  0  0  0  0
  151.2238  133.6529  154.5237 H   0  0  0  0  0  0  0  0  0  0  0  0
  148.2626  132.7401  154.9962 H   0  0  0  0  0  0  0  0  0  0  0  0
  149.2728  133.7822  152.3068 H   0  0  0  0  0  0  0  0  0  0  0  0
  149.2148  132.0902  152.8934 H   0  0  0  0  0  0  0  0  0  0  0  0
  145.7083  133.7057  151.1680 H   0  0  0  0  0  0  0  0  0  0  0  0
  147.2915  134.4085  150.9147 H   0  0  0  0  0  0  0  0  0  0  0  0
  147.7325  131.9540  150.5085 H   0  0  0  0  0  0  0  0  0  0  0  0
  146.7824  131.2730  153.8401 H   0  0  0  0  0  0  0  0  0  0  0  0
  145.4680  131.7042  152.7777 H   0  0  0  0  0  0  0  0  0  0  0  0
  147.7989  130.9932  151.5101 H   0  0  0  0  0  0  0  0  0  0  0  0
  146.2142  133.8474  154.4298 H   0  0  0  0  0  0  0  0  0  0  0  0
  147.0565  135.0737  153.4324 H   0  0  0  0  0  0  0  0  0  0  0  0
  149.6055  139.8849  156.2498 H   0  0  0  0  0  0  0  0  0  0  0  0
  152.5196  140.4795  155.5647 H   0  0  0  0  0  0  0  0  0  0  0  0
  151.1417  140.9290  154.5699 H   0  0  0  0  0  0  0  0  0  0  0  0
  151.4756  139.2418  154.8611 H   0  0  0  0  0  0  0  0  0  0  0  0
  149.5203  141.7419  157.7582 H   0  0  0  0  0  0  0  0  0  0  0  0
  150.0241  142.3216  156.1922 H   0  0  0  0  0  0  0  0  0  0  0  0
  152.3023  142.2315  156.9959 H   0  0  0  0  0  0  0  0  0  0  0  0
  1  2  1  0  0  0  0
  1 29  1  0  0  0  0
  1 30  1  0  0  0  0
  1 31  1  0  0  0  0
  2  3  1  0  0  0  0
  2 32  1  0  0  0  0
  2 33  1  0  0  0  0
  3 28  1  0  0  0  0
  3  4  1  0  0  0  0
  3 61  1  0  0  0  0
  4  5  1  0  0  0  0
  4 34  1  0  0  0  0
  4 35  1  0  0  0  0
  5  6  1  0  0  0  0
  5 36  1  0  0  0  0
  5 37  1  0  0  0  0
  6  7  1  0  0  0  0
  6 26  1  0  0  0  0
  6 38  1  0  0  0  0
  7  8  1  0  0  0  0
  7  9  1  0  0  0  0
  8 39  1  0  0  0  0
  8 40  1  0  0  0  0
  8 41  1  0  0  0  0
  9 14  1  0  0  0  0
  9 10  2  0  0  0  0
 10 11  1  0  0  0  0
 11 12  2  0  0  0  0
 11 42  1  0  0  0  0
 12 13  1  0  0  0  0
 13 17  1  0  0  0  0
 13 14  2  0  0  0  0
 14 15  1  0  0  0  0
 15 16  2  0  0  0  0
 16 17  1  0  0  0  0
 16 43  1  0  0  0  0
 17 18  1  0  0  0  0
 18 25  1  0  0  0  0
 18 19  1  0  0  0  0
 18 44  1  0  0  0  0
 19 20  1  0  0  0  0
 19 45  1  0  0  0  0
 19 46  1  0  0  0  0
 20 21  1  0  0  0  0
 20 23  1  0  0  0  0
 20 25  1  0  0  0  0
 21 22  1  0  0  0  0
 21 47  1  0  0  0  0
 21 48  1  0  0  0  0
 22 49  1  0  0  0  0
 23 24  1  0  0  0  0
 23 50  1  0  0  0  0
 23 51  1  0  0  0  0
 24 52  1  0  0  0  0
 25 53  1  0  0  0  0
 25 54  1  0  0  0  0
 26 27  1  0  0  0  0
 26 28  1  0  0  0  0
 26 55  1  0  0  0  0
 27 56  1  0  0  0  0
 27 57  1  0  0  0  0
 27 58  1  0  0  0  0
 28 59  1  0  0  0  0
 28 60  1  0  0  0  0
M  CHG  1   3   1
M  END
> <s_m_source_file>
AV-unprocessed.smi

> <i_m_source_file_index>
92

> <i_lp_mmshare_version>
43012

> <i_f3d_flags>
0

> <s_epik_input>
W0NIM11bQ0gyXU4xW0NIMl1bQ0gyXVtDQEhdKFtDQEBIXShbQ0gzXSlbQ0gyXTEpTihbQ0gzXSljKG5bY0hdbjIpYyhjMjMpbltjSF1uM1tDSF0oW0NIMl00KVtDSDJdQzQoW0NIMl1bT0hdKVtDSDJdW09IXQ==

> <s_epik_cmdline>
J2VwaWtfcHl0aG9uJywgJy1waCcsICc3LjAnLCAnLXRuJywgJzgnLCAnLW1hJywgJzIwMCcsICctbWV0YWxfYmluZGluZycsICctaW1hZScsICc8aW5maWxlLm1hZT4nLCAnLW9tYWUnLCAnPG91dGZpbGUubWFlPic=

> <r_lp_tautomer_probability>
1

> <r_epik_Ionization_Penalty>
0.00235514

> <r_epik_Ionization_Penalty_Charging>
0.00137877

> <r_epik_Ionization_Penalty_Neutral>
0.000976366

> <r_epik_State_Penalty>
-0

> <r_epik_Charging_Adjusted_Penalty>
0.00137877

> <i_epik_Tot_Q>
1

> <i_epik_Tot_abs_Q>
1

> <r_epik_Metal_State_Penalty>
-0

> <b_epik_Metal_Only>
0

> <s_lp_Force_Field>
OPLS_2005

> <r_lp_Energy>
56.4815

> <b_lp_Chiralities_Consistent>
1

> <s_lp_Variant>
AV-unprocessed.smi:92-8

> <Gold.Version>
5.8.1

> <Gold.Id.Protein>
6NUR|6NUR_protein|mol2

> <Gold.PLP.Fitness>
47.7446

> <Gold.PLP.PLP>
-40.1349

> <Gold.PLP.part.hbond>
-3.1185

> <Gold.PLP.part.metal>
0.0000

> <Gold.PLP.part.buried>
-4.5949

> <Gold.PLP.part.nonpolar>
-31.9122

> <Gold.PLP.part.repulsive>
0.1391

> <Gold.PLP.ligand.clash>
0.0000

> <Gold.PLP.ligand.torsion>
1.3383

> <Gold.PLP.Chemscore.Hbond>
2.9760

> <Gold.PLP.Chemscore.CHOScore>
0.0000

> <Gold.PLP.Chemscore.Metal>
0.0000

> <Gold.Chemscore.Hbonds>
donor molecule, donor type, donor heavy atom, donor atom, acceptor molecule, acceptor atom, score
      L1  H    22    49       P1 10747  1.00
      L1  H    24    52       P1 10747  0.98
      P1  H 10752 10763       L1    15  1.00

> <Gold.PLP.Chemscore.Internal.Correction>
1.3583

> <Gold.Rescore>
     Score         DG    S(hbond)    S(metal)    S(lipo)     H(rot)  DE(clash)    DE(int)     intcor
     14.69     -17.48       2.58        0.00      99.26       3.22       0.05       2.74       ----

> <Gold.Chemscore.Fitness>
14.6894

> <Gold.Chemscore.DG>
-17.4751

> <Gold.Chemscore.ZeroCoef>
-5.4800

> <Gold.Chemscore.Hbond>
2.5836

> <Gold.Chemscore.Metal>
0.0000

> <Gold.Chemscore.Lipo>
99.2649

> <Gold.Chemscore.Internal_Hbond>
0.0000

> <Gold.Chemscore.DEClash>
0.0456

> <Gold.Chemscore.DEInternal>
2.7401

> <Gold.Chemscore.Rot>
3.2219

> <Gold.Chemscore.Internal.Correction>
   9.000000E+99

> <Gold.Chemscore.Hbonds>
donor molecule, donor type, donor heavy atom, donor atom, acceptor molecule, acceptor atom, score
      L1  H    22    49       P1 10747  0.96
      L1  H    24    52       P1 10747  0.93
      P1  H 10752 10763       L1    15  0.39

> <Gold.Chemscore.Hbond.Weighted>
-8.6293

> <Gold.Chemscore.Metal.Weighted>
-0.0000

> <Gold.Chemscore.Lipo.Weighted>
-11.6140

> <Gold.Chemscore.Internal_Hbond.Weighted>
0.0000

> <Gold.Chemscore.DEClash.Weighted>
0.0456

> <Gold.Chemscore.DEInternal.Weighted>
2.7401

> <Gold.Chemscore.Rot.Weighted>
8.2482

> <Gold.Chemscore.Internal.Correction.Weighted>
   9.000000E+99

> <Gold.Protein.RotatedTorsions>
[ 6907 6896 6895 6894 ] final  -28.12 input  -60.11 | X-H torsion
[ 7974 7965 7964 7962 ] final  -95.71 input  175.53 | X-H torsion
[ 8008 7997 7996 7995 ] final  -58.41 input   59.86 | X-H torsion
[ 10167 10162 10161 10158 ] final -156.68 input  -65.29 | X-H torsion
[ 10718 10713 10712 10709 ] final  149.19 input   66.30 | X-H torsion
[ 10763 10752 10751 10750 ] final   74.26 input  -60.55 | X-H torsion
[ 11005 11000 10999 10996 ] final  110.95 input  -57.11 | X-H torsion

> <Gold.Protein.ActiveResidues>
 VAL166  LYS551  ARG553  GLY616  TRP617  ASP618  TYR619  PRO620  LYS621  CYS622 
 ASP623  PHE694  ASN695  SER759  ASP760  ASP761  ALA762  ILE779  LEU786  VAL792 
 PHE793  MET794  SER795  GLU796  ALA797  LYS798  CYS799  TRP800  GLU811  SER814 

> <Gold.Protein.RotatedAtoms>
  151.1374  135.0162  159.8610 H   0  0  0  0  0  0  0  0  0  0  0  0  # atno 6907 bound_to 6896
  152.5452  134.1538  159.8540 H   0  0  0  0  0  0  0  0  0  0  0  0  # atno 6908 bound_to 6896
  151.1611  133.4799  159.2627 H   0  0  0  0  0  0  0  0  0  0  0  0  # atno 6909 bound_to 6896
  145.3565  140.9485  143.2525 H   0  0  0  0  0  0  0  0  0  0  0  0  # atno 7974 bound_to 7965
  154.4308  140.1084  156.5953 H   0  0  0  0  0  0  0  0  0  0  0  0  # atno 8008 bound_to 7997
  155.5969  140.3493  155.4563 H   0  0  0  0  0  0  0  0  0  0  0  0  # atno 8009 bound_to 7997
  156.0204  140.1238  157.0353 H   0  0  0  0  0  0  0  0  0  0  0  0  # atno 8010 bound_to 7997
  139.6831  143.9547  152.2347 H   0  0  0  0  0  0  0  0  0  0  0  0  # atno 10167 bound_to 10162
  157.2993  131.0868  151.1403 H   0  0  0  0  0  0  0  0  0  0  0  0  # atno 10718 bound_to 10713
  153.0575  135.5032  154.8016 H   0  0  0  0  0  0  0  0  0  0  0  0  # atno 10763 bound_to 10752
  154.6831  135.2971  154.9588 H   0  0  0  0  0  0  0  0  0  0  0  0  # atno 10764 bound_to 10752
  154.0368  135.6722  153.4838 H   0  0  0  0  0  0  0  0  0  0  0  0  # atno 10765 bound_to 10752
  139.8893  134.9496  156.6357 H   0  0  0  0  0  0  0  0  0  0  0  0  # atno 11005 bound_to 11000
  144.8679  139.5081  143.6782 LP  0  0  0  0  0  0  0  0  0  0  0  0  # atno 17320 bound_to 7965
  146.2946  139.7239  142.9136 LP  0  0  0  0  0  0  0  0  0  0  0  0  # atno 17321 bound_to 7965
  139.9343  144.6722  150.8331 LP  0  0  0  0  0  0  0  0  0  0  0  0  # atno 17342 bound_to 10162
  140.7659  143.3287  151.2457 LP  0  0  0  0  0  0  0  0  0  0  0  0  # atno 17343 bound_to 10162
  157.2768  130.6731  149.6046 LP  0  0  0  0  0  0  0  0  0  0  0  0  # atno 17370 bound_to 10713
  155.9670  130.4462  150.5531 LP  0  0  0  0  0  0  0  0  0  0  0  0  # atno 17371 bound_to 10713
  140.7632  133.8800  155.8434 LP  0  0  0  0  0  0  0  0  0  0  0  0  # atno 17394 bound_to 11000
  140.9904  134.1286  157.4413 LP  0  0  0  0  0  0  0  0  0  0  0  0  # atno 17395 bound_to 11000

$$$$
