AV-unprocessed.smi:2195|AV-procd|sdf|8906|dock7
  -GOLD-   2272012123D 1   1.00000     0.00000
 Structure written by MMmdl.
 40 42  0  0  0  0  0  0  0  0  2 V2000
  146.0237  133.2227  162.5571 C   0  0  0  0  0  0  0  0  0  0  0  0
  146.8775  134.2610  161.8585 C   0  0  0  0  0  0  0  0  0  0  0  0
  147.3572  134.0318  160.5536 C   0  0  0  0  0  0  0  0  0  0  0  0
  148.1497  135.0030  159.9121 C   0  0  0  0  0  0  0  0  0  0  0  0
  148.4750  136.2131  160.5590 C   0  0  0  0  0  0  0  0  0  0  0  0
  149.2543  137.1070  159.8567 O   0  0  0  0  0  0  0  0  0  0  0  0
  149.2050  137.0745  158.4357 C   0  0  0  0  0  0  0  0  0  0  0  0
  149.3082  138.5022  157.8739 C   0  0  2  0  0  0  0  0  0  0  0  0
  149.5478  138.4401  156.4818 O   0  0  0  0  0  0  0  0  0  0  0  0
  150.3543  139.3742  158.5979 C   0  0  0  0  0  0  0  0  0  0  0  0
  150.3905  140.7562  158.0994 N   0  0  0  0  0  0  0  0  0  0  0  0
  149.6039  141.3657  157.1714 C   0  0  0  0  0  0  0  0  0  0  0  0
  150.0240  142.6562  157.0586 N   0  3  0  0  0  0  0  0  0  0  0  0
  151.0962  142.8750  157.9262 C   0  0  0  0  0  0  0  0  0  0  0  0
  151.8538  144.0169  158.1682 C   0  0  0  0  0  0  0  0  0  0  0  0
  152.8858  143.9014  159.1225 C   0  0  0  0  0  0  0  0  0  0  0  0
  153.1336  142.6860  159.7929 C   0  0  0  0  0  0  0  0  0  0  0  0
  152.3588  141.5348  159.5404 C   0  0  0  0  0  0  0  0  0  0  0  0
  151.3388  141.6574  158.5974 C   0  0  0  0  0  0  0  0  0  0  0  0
  147.9912  136.4362  161.8729 C   0  0  0  0  0  0  0  0  0  0  0  0
  147.1988  135.4649  162.5155 C   0  0  0  0  0  0  0  0  0  0  0  0
  145.7588  132.4074  161.8833 H   0  0  0  0  0  0  0  0  0  0  0  0
  145.1005  133.6735  162.9221 H   0  0  0  0  0  0  0  0  0  0  0  0
  146.5609  132.8022  163.4074 H   0  0  0  0  0  0  0  0  0  0  0  0
  147.1202  133.1122  160.0391 H   0  0  0  0  0  0  0  0  0  0  0  0
  148.5114  134.8180  158.9113 H   0  0  0  0  0  0  0  0  0  0  0  0
  150.0002  136.4472  158.0291 H   0  0  0  0  0  0  0  0  0  0  0  0
  148.2517  136.6452  158.1228 H   0  0  0  0  0  0  0  0  0  0  0  0
  148.3306  138.9719  157.9891 H   0  0  0  0  0  0  0  0  0  0  0  0
  150.1572  137.7377  156.3126 H   0  0  0  0  0  0  0  0  0  0  0  0
  150.1181  139.4243  159.6616 H   0  0  0  0  0  0  0  0  0  0  0  0
  151.3543  138.9450  158.5285 H   0  0  0  0  0  0  0  0  0  0  0  0
  148.7915  140.9087  156.6248 H   0  0  0  0  0  0  0  0  0  0  0  0
  151.6675  144.9488  157.6546 H   0  0  0  0  0  0  0  0  0  0  0  0
  153.5007  144.7616  159.3437 H   0  0  0  0  0  0  0  0  0  0  0  0
  153.9354  142.6344  160.5151 H   0  0  0  0  0  0  0  0  0  0  0  0
  152.5614  140.6070  160.0548 H   0  0  0  0  0  0  0  0  0  0  0  0
  148.2134  137.3450  162.4112 H   0  0  0  0  0  0  0  0  0  0  0  0
  146.8379  135.6474  163.5171 H   0  0  0  0  0  0  0  0  0  0  0  0
  149.6074  143.3355  156.4347 H   0  0  0  0  0  0  0  0  0  0  0  0
  1  2  1  0  0  0  0
  1 22  1  0  0  0  0
  1 23  1  0  0  0  0
  1 24  1  0  0  0  0
  2 21  1  0  0  0  0
  2  3  2  0  0  0  0
  3  4  1  0  0  0  0
  3 25  1  0  0  0  0
  4  5  2  0  0  0  0
  4 26  1  0  0  0  0
  5  6  1  0  0  0  0
  5 20  1  0  0  0  0
  6  7  1  0  0  0  0
  7  8  1  0  0  0  0
  7 27  1  0  0  0  0
  7 28  1  0  0  0  0
  8  9  1  0  0  0  0
  8 10  1  0  0  0  0
  8 29  1  0  0  0  0
  9 30  1  0  0  0  0
 10 11  1  0  0  0  0
 10 31  1  0  0  0  0
 10 32  1  0  0  0  0
 11 19  1  0  0  0  0
 11 12  1  0  0  0  0
 12 13  2  0  0  0  0
 12 33  1  0  0  0  0
 13 14  1  0  0  0  0
 13 40  1  0  0  0  0
 14 19  2  0  0  0  0
 14 15  1  0  0  0  0
 15 16  2  0  0  0  0
 15 34  1  0  0  0  0
 16 17  1  0  0  0  0
 16 35  1  0  0  0  0
 17 18  2  0  0  0  0
 17 36  1  0  0  0  0
 18 19  1  0  0  0  0
 18 37  1  0  0  0  0
 20 21  2  0  0  0  0
 20 38  1  0  0  0  0
 21 39  1  0  0  0  0
M  CHG  1  13   1
M  END
> <s_m_source_file>
AV-unprocessed.smi

> <i_m_source_file_index>
2195

> <i_lp_mmshare_version>
43012

> <i_f3d_flags>
0

> <s_epik_input>
W0NIM11jMVtjSF1bY0hdYyhbY0hdW2NIXTEpT1tDSDJdW0NASF0oW09IXSlbQ0gyXW4oW2NIXW4yKWMoYzIzKVtjSF1bY0hdW2NIXVtjSF0z

> <s_epik_cmdline>
J2VwaWtfcHl0aG9uJywgJy1waCcsICc3LjAnLCAnLXRuJywgJzgnLCAnLW1hJywgJzIwMCcsICctbWV0YWxfYmluZGluZycsICctaW1hZScsICc8aW5maWxlLm1hZT4nLCAnLW9tYWUnLCAnPG91dGZpbGUubWFlPic=

> <r_lp_tautomer_probability>
1

> <r_epik_Ionization_Penalty>
1.3774

> <r_epik_Ionization_Penalty_Charging>
1.37739

> <r_epik_Ionization_Penalty_Neutral>
2.3993e-06

> <r_epik_State_Penalty>
1.45762

> <r_epik_Charging_Adjusted_Penalty>
2.83501

> <i_epik_Tot_Q>
1

> <i_epik_Tot_abs_Q>
1

> <r_epik_Metal_State_Penalty>
5.49752

> <b_epik_Metal_Only>
0

> <s_lp_Force_Field>
OPLS_2005

> <r_lp_Energy>
21.3932

> <b_lp_Chiralities_Consistent>
1

> <s_lp_Variant>
AV-unprocessed.smi:2195-3

> <Gold.Version>
5.8.1

> <Gold.Id.Protein>
6NUR|6NUR_protein|mol2

> <Gold.PLP.Fitness>
49.8142

> <Gold.PLP.PLP>
-45.2324

> <Gold.PLP.part.hbond>
-2.0000

> <Gold.PLP.part.metal>
0.0000

> <Gold.PLP.part.buried>
-4.6343

> <Gold.PLP.part.nonpolar>
-38.9174

> <Gold.PLP.part.repulsive>
0.0232

> <Gold.PLP.ligand.clash>
0.0000

> <Gold.PLP.ligand.torsion>
0.7479

> <Gold.PLP.Chemscore.Hbond>
2.0081

> <Gold.PLP.Chemscore.CHOScore>
0.0000

> <Gold.PLP.Chemscore.Metal>
0.0000

> <Gold.Chemscore.Hbonds>
donor molecule, donor type, donor heavy atom, donor atom, acceptor molecule, acceptor atom, score
      L1  H    13    40       P1  8028  2.00
      P1  H  6931  6943       L1     6  0.01

> <Gold.PLP.Chemscore.Internal.Correction>
0.0533

> <Gold.Rescore>
     Score         DG    S(hbond)    S(metal)    S(lipo)     H(rot)  DE(clash)    DE(int)     intcor
     16.72     -17.62       1.00        0.00     124.94       2.27       0.08       0.83       ----

> <Gold.Chemscore.Fitness>
16.7151

> <Gold.Chemscore.DG>
-17.6210

> <Gold.Chemscore.ZeroCoef>
-5.4800

> <Gold.Chemscore.Hbond>
0.9999

> <Gold.Chemscore.Metal>
0.0000

> <Gold.Chemscore.Lipo>
124.9424

> <Gold.Chemscore.Internal_Hbond>
0.0000

> <Gold.Chemscore.DEClash>
0.0805

> <Gold.Chemscore.DEInternal>
0.8254

> <Gold.Chemscore.Rot>
2.2723

> <Gold.Chemscore.Internal.Correction>
   9.000000E+99

> <Gold.Chemscore.Hbonds>
donor molecule, donor type, donor heavy atom, donor atom, acceptor molecule, acceptor atom, score
      L1  H    13    40       P1  8028  1.00

> <Gold.Chemscore.Hbond.Weighted>
-3.3398

> <Gold.Chemscore.Metal.Weighted>
-0.0000

> <Gold.Chemscore.Lipo.Weighted>
-14.6183

> <Gold.Chemscore.Internal_Hbond.Weighted>
0.0000

> <Gold.Chemscore.DEClash.Weighted>
0.0805

> <Gold.Chemscore.DEInternal.Weighted>
0.8254

> <Gold.Chemscore.Rot.Weighted>
5.8170

> <Gold.Chemscore.Internal.Correction.Weighted>
   9.000000E+99

> <Gold.Protein.RotatedTorsions>
[ 6907 6896 6895 6894 ] final   17.55 input  -60.11 | X-H torsion
[ 7974 7965 7964 7962 ] final  174.18 input  175.53 | X-H torsion
[ 8008 7997 7996 7995 ] final  -22.02 input   59.86 | X-H torsion
[ 10167 10162 10161 10158 ] final -172.80 input  -65.29 | X-H torsion
[ 10718 10713 10712 10709 ] final -140.90 input   66.30 | X-H torsion
[ 10763 10752 10751 10750 ] final   60.04 input  -60.55 | X-H torsion
[ 11005 11000 10999 10996 ] final  -31.19 input  -57.11 | X-H torsion

> <Gold.Protein.ActiveResidues>
 VAL166  LYS551  ARG553  GLY616  TRP617  ASP618  TYR619  PRO620  LYS621  CYS622 
 ASP623  PHE694  ASN695  SER759  ASP760  ASP761  ALA762  ILE779  LEU786  VAL792 
 PHE793  MET794  SER795  GLU796  ALA797  LYS798  CYS799  TRP800  GLU811  SER814 

> <Gold.Protein.RotatedAtoms>
  151.8514  135.0556  160.0459 H   0  0  0  0  0  0  0  0  0  0  0  0  # atno 6907 bound_to 6896
  152.2734  133.5398  159.5461 H   0  0  0  0  0  0  0  0  0  0  0  0  # atno 6908 bound_to 6896
  150.7160  134.0582  159.3864 H   0  0  0  0  0  0  0  0  0  0  0  0  # atno 6909 bound_to 6896
  144.7227  139.9758  143.6438 H   0  0  0  0  0  0  0  0  0  0  0  0  # atno 7974 bound_to 7965
  154.4669  140.2019  156.0094 H   0  0  0  0  0  0  0  0  0  0  0  0  # atno 8008 bound_to 7997
  156.0943  140.3253  155.7828 H   0  0  0  0  0  0  0  0  0  0  0  0  # atno 8009 bound_to 7997
  155.4904  140.0545  157.2945 H   0  0  0  0  0  0  0  0  0  0  0  0  # atno 8010 bound_to 7997
  139.5724  144.1610  152.1403 H   0  0  0  0  0  0  0  0  0  0  0  0  # atno 10167 bound_to 10162
  156.3277  130.7569  151.1680 H   0  0  0  0  0  0  0  0  0  0  0  0  # atno 10718 bound_to 10713
  152.9910  135.5550  154.5810 H   0  0  0  0  0  0  0  0  0  0  0  0  # atno 10763 bound_to 10752
  154.5192  135.2806  155.1279 H   0  0  0  0  0  0  0  0  0  0  0  0  # atno 10764 bound_to 10752
  154.2640  135.6376  153.5338 H   0  0  0  0  0  0  0  0  0  0  0  0  # atno 10765 bound_to 10752
  140.9447  133.7257  156.1128 H   0  0  0  0  0  0  0  0  0  0  0  0  # atno 11005 bound_to 11000
  146.0527  139.3526  143.0630 LP  0  0  0  0  0  0  0  0  0  0  0  0  # atno 17320 bound_to 7965
  145.8194  140.9686  143.0906 LP  0  0  0  0  0  0  0  0  0  0  0  0  # atno 17321 bound_to 7965
  140.1146  144.5427  150.6902 LP  0  0  0  0  0  0  0  0  0  0  0  0  # atno 17342 bound_to 10162
  140.7008  143.2434  151.4869 LP  0  0  0  0  0  0  0  0  0  0  0  0  # atno 17343 bound_to 10162
  157.7424  131.0490  150.5024 LP  0  0  0  0  0  0  0  0  0  0  0  0  # atno 17370 bound_to 10713
  156.5186  130.4156  149.6263 LP  0  0  0  0  0  0  0  0  0  0  0  0  # atno 17371 bound_to 10713
  140.7686  134.3858  157.5512 LP  0  0  0  0  0  0  0  0  0  0  0  0  # atno 17394 bound_to 11000
  139.8830  134.9007  156.2795 LP  0  0  0  0  0  0  0  0  0  0  0  0  # atno 17395 bound_to 11000

$$$$
