AV-unprocessed.smi:3330|AV-procd|sdf|12807|dock6
  -GOLD-   2272019173D 1   1.00000     0.00000
 Structure written by MMmdl.
 38 39  0  0  0  0  0  0  0  0  1 V2000
  151.3477  140.9312  158.4678 C   0  0  0  0  0  0  0  0  0  0  0  0
  150.9502  142.4029  158.2170 C   0  0  2  0  0  0  0  0  0  0  0  0
  150.7363  142.6104  156.7876 N   0  0  0  0  0  0  0  0  0  0  0  0
  149.9050  141.5824  156.1796 C   0  0  0  0  0  0  0  0  0  0  0  0
  149.3739  142.0949  154.8321 C   0  0  0  0  0  0  0  0  0  0  0  0
  148.3405  141.2060  154.2950 N   0  0  0  0  0  0  0  0  0  0  0  0
  148.5062  139.8927  154.0906 C   0  0  0  0  0  0  0  0  0  0  0  0
  149.5160  139.2218  154.3025 O   0  0  0  0  0  0  0  0  0  0  0  0
  147.2141  139.3264  153.5433 C   0  0  0  0  0  0  0  0  0  0  0  0
  146.4169  140.5339  153.5278 N   0  0  0  0  0  0  0  0  0  0  0  0
  147.0959  141.6004  153.9699 C   0  0  0  0  0  0  0  0  0  0  0  0
  146.6430  142.7403  154.0618 O   0  0  0  0  0  0  0  0  0  0  0  0
  152.0245  143.4161  158.6976 C   0  0  1  0  0  0  0  0  0  0  0  0
  151.5636  144.8792  158.5585 C   0  0  0  0  0  0  0  0  0  0  0  0
  152.4344  143.1637  160.0738 N   0  0  0  0  0  0  0  0  0  0  0  0
  152.2597  143.9631  161.1861 C   0  0  0  0  0  0  0  0  0  0  0  0
  152.8017  143.3048  162.2523 C   0  0  0  0  0  0  0  0  0  0  0  0
  153.2923  142.0947  161.6877 C   0  0  0  0  0  0  0  0  0  0  0  0
  153.0733  142.0140  160.3856 N   0  0  0  0  0  0  0  0  0  0  0  0
  151.4882  140.7271  159.5292 H   0  0  0  0  0  0  0  0  0  0  0  0
  152.2796  140.6820  157.9591 H   0  0  0  0  0  0  0  0  0  0  0  0
  150.5844  140.2349  158.1228 H   0  0  0  0  0  0  0  0  0  0  0  0
  150.0223  142.6137  158.7508 H   0  0  0  0  0  0  0  0  0  0  0  0
  151.6222  142.6821  156.3074 H   0  0  0  0  0  0  0  0  0  0  0  0
  150.4793  140.6693  156.0260 H   0  0  0  0  0  0  0  0  0  0  0  0
  149.0735  141.3412  156.8435 H   0  0  0  0  0  0  0  0  0  0  0  0
  148.9683  143.1021  154.9475 H   0  0  0  0  0  0  0  0  0  0  0  0
  150.1942  142.1867  154.1176 H   0  0  0  0  0  0  0  0  0  0  0  0
  147.3460  138.9178  152.5408 H   0  0  0  0  0  0  0  0  0  0  0  0
  146.7907  138.5719  154.2069 H   0  0  0  0  0  0  0  0  0  0  0  0
  145.4557  140.5554  153.2192 H   0  0  0  0  0  0  0  0  0  0  0  0
  152.9099  143.2912  158.0704 H   0  0  0  0  0  0  0  0  0  0  0  0
  151.3627  145.1385  157.5191 H   0  0  0  0  0  0  0  0  0  0  0  0
  152.3296  145.5660  158.9199 H   0  0  0  0  0  0  0  0  0  0  0  0
  150.6526  145.0672  159.1275 H   0  0  0  0  0  0  0  0  0  0  0  0
  151.7675  144.9227  161.1266 H   0  0  0  0  0  0  0  0  0  0  0  0
  152.8406  143.6367  163.2790 H   0  0  0  0  0  0  0  0  0  0  0  0
  153.7974  141.2778  162.1815 H   0  0  0  0  0  0  0  0  0  0  0  0
  1  2  1  0  0  0  0
  1 20  1  0  0  0  0
  1 21  1  0  0  0  0
  1 22  1  0  0  0  0
  2  3  1  0  0  0  0
  2 13  1  0  0  0  0
  2 23  1  0  0  0  0
  3  4  1  0  0  0  0
  3 24  1  0  0  0  0
  4  5  1  0  0  0  0
  4 25  1  0  0  0  0
  4 26  1  0  0  0  0
  5  6  1  0  0  0  0
  5 27  1  0  0  0  0
  5 28  1  0  0  0  0
  6 11  1  0  0  0  0
  6  7  1  0  0  0  0
  7  8  2  0  0  0  0
  7  9  1  0  0  0  0
  9 10  1  0  0  0  0
  9 29  1  0  0  0  0
  9 30  1  0  0  0  0
 10 11  1  0  0  0  0
 10 31  1  0  0  0  0
 11 12  2  0  0  0  0
 13 14  1  0  0  0  0
 13 15  1  0  0  0  0
 13 32  1  0  0  0  0
 14 33  1  0  0  0  0
 14 34  1  0  0  0  0
 14 35  1  0  0  0  0
 15 19  1  0  0  0  0
 15 16  1  0  0  0  0
 16 17  2  0  0  0  0
 16 36  1  0  0  0  0
 17 18  1  0  0  0  0
 17 37  1  0  0  0  0
 18 19  2  0  0  0  0
 18 38  1  0  0  0  0
M  END
> <s_m_source_file>
AV-unprocessed.smi

> <i_m_source_file_index>
3330

> <i_lp_mmshare_version>
43012

> <i_f3d_flags>
0

> <s_epik_input>
bjFbY0hdW2NIXVtjSF1uMVtDQEBIXShbQ0gzXSlbQ0BIXShbQ0gzXSlbTkhdW0NIMl1bQ0gyXU4yQyg9TylbQ0gyXVtOSF1DMj1P

> <s_epik_cmdline>
J2VwaWtfcHl0aG9uJywgJy1waCcsICc3LjAnLCAnLXRuJywgJzgnLCAnLW1hJywgJzIwMCcsICctbWV0YWxfYmluZGluZycsICctaW1hZScsICc8aW5maWxlLm1hZT4nLCAnLW9tYWUnLCAnPG91dGZpbGUubWFlPic=

> <r_lp_tautomer_probability>
1

> <r_epik_Ionization_Penalty>
2.2997

> <r_epik_Ionization_Penalty_Charging>
0

> <r_epik_Ionization_Penalty_Neutral>
2.2997

> <r_epik_State_Penalty>
2.44917

> <r_epik_Charging_Adjusted_Penalty>
2.44917

> <i_epik_Tot_Q>
0

> <i_epik_Tot_abs_Q>
0

> <r_epik_Metal_State_Penalty>
2.52438

> <b_epik_Metal_Only>
0

> <s_lp_Force_Field>
OPLS_2005

> <r_lp_Energy>
27.6633

> <b_lp_Chiralities_Consistent>
1

> <s_lp_Variant>
AV-unprocessed.smi:3330-7

> <Gold.Version>
5.8.1

> <Gold.Id.Protein>
6NUR|6NUR_protein|mol2

> <Gold.PLP.Fitness>
46.2459

> <Gold.PLP.PLP>
-43.8109

> <Gold.PLP.part.hbond>
-1.9917

> <Gold.PLP.part.metal>
0.0000

> <Gold.PLP.part.buried>
-3.4840

> <Gold.PLP.part.nonpolar>
-38.6719

> <Gold.PLP.part.repulsive>
0.3672

> <Gold.PLP.ligand.clash>
0.0000

> <Gold.PLP.ligand.torsion>
0.3512

> <Gold.PLP.Chemscore.Hbond>
1.0000

> <Gold.PLP.Chemscore.CHOScore>
0.0000

> <Gold.PLP.Chemscore.Metal>
0.0000

> <Gold.Chemscore.Hbonds>
donor molecule, donor type, donor heavy atom, donor atom, acceptor molecule, acceptor atom, score
      L1  H    10    31       P1 10175  1.00

> <Gold.PLP.Chemscore.Internal.Correction>
0.1375

> <Gold.Rescore>
     Score         DG    S(hbond)    S(metal)    S(lipo)     H(rot)  DE(clash)    DE(int)     intcor
     11.33     -13.21       0.99        0.00      94.63       2.60       0.27       1.61       ----

> <Gold.Chemscore.Fitness>
11.3266

> <Gold.Chemscore.DG>
-13.2069

> <Gold.Chemscore.ZeroCoef>
-5.4800

> <Gold.Chemscore.Hbond>
0.9878

> <Gold.Chemscore.Metal>
0.0000

> <Gold.Chemscore.Lipo>
94.6257

> <Gold.Chemscore.Internal_Hbond>
0.0000

> <Gold.Chemscore.DEClash>
0.2661

> <Gold.Chemscore.DEInternal>
1.6142

> <Gold.Chemscore.Rot>
2.5952

> <Gold.Chemscore.Internal.Correction>
   9.000000E+99

> <Gold.Chemscore.Hbonds>
donor molecule, donor type, donor heavy atom, donor atom, acceptor molecule, acceptor atom, score
      L1  H    10    31       P1 10175  0.90

> <Gold.Chemscore.Hbond.Weighted>
-3.2994

> <Gold.Chemscore.Metal.Weighted>
-0.0000

> <Gold.Chemscore.Lipo.Weighted>
-11.0712

> <Gold.Chemscore.Internal_Hbond.Weighted>
0.0000

> <Gold.Chemscore.DEClash.Weighted>
0.2661

> <Gold.Chemscore.DEInternal.Weighted>
1.6142

> <Gold.Chemscore.Rot.Weighted>
6.6437

> <Gold.Chemscore.Internal.Correction.Weighted>
   9.000000E+99

> <Gold.Protein.RotatedTorsions>
[ 6907 6896 6895 6894 ] final   87.16 input  -60.11 | X-H torsion
[ 7974 7965 7964 7962 ] final  -83.54 input  175.53 | X-H torsion
[ 8008 7997 7996 7995 ] final   -2.34 input   59.86 | X-H torsion
[ 10167 10162 10161 10158 ] final  168.13 input  -65.29 | X-H torsion
[ 10718 10713 10712 10709 ] final -145.26 input   66.30 | X-H torsion
[ 10763 10752 10751 10750 ] final   55.47 input  -60.55 | X-H torsion
[ 11005 11000 10999 10996 ] final   47.02 input  -57.11 | X-H torsion

> <Gold.Protein.ActiveResidues>
 VAL166  LYS551  ARG553  GLY616  TRP617  ASP618  TYR619  PRO620  LYS621  CYS622 
 ASP623  PHE694  ASN695  SER759  ASP760  ASP761  ALA762  ILE779  LEU786  VAL792 
 PHE793  MET794  SER795  GLU796  ALA797  LYS798  CYS799  TRP800  GLU811  SER814 

> <Gold.Protein.RotatedAtoms>
  152.5406  134.2319  159.8827 H   0  0  0  0  0  0  0  0  0  0  0  0  # atno 6907 bound_to 6896
  151.2291  133.4453  159.2610 H   0  0  0  0  0  0  0  0  0  0  0  0  # atno 6908 bound_to 6896
  151.0733  134.9825  159.8375 H   0  0  0  0  0  0  0  0  0  0  0  0  # atno 6909 bound_to 6896
  145.5186  140.9533  143.1668 H   0  0  0  0  0  0  0  0  0  0  0  0  # atno 7974 bound_to 7965
  154.6368  140.2537  155.7369 H   0  0  0  0  0  0  0  0  0  0  0  0  # atno 8008 bound_to 7997
  156.2508  140.2895  156.0664 H   0  0  0  0  0  0  0  0  0  0  0  0  # atno 8009 bound_to 7997
  155.1659  140.0385  157.2843 H   0  0  0  0  0  0  0  0  0  0  0  0  # atno 8010 bound_to 7997
  139.4961  144.3847  151.9583 H   0  0  0  0  0  0  0  0  0  0  0  0  # atno 10167 bound_to 10162
  156.3803  130.7833  151.2025 H   0  0  0  0  0  0  0  0  0  0  0  0  # atno 10718 bound_to 10713
  152.9817  135.5709  154.5072 H   0  0  0  0  0  0  0  0  0  0  0  0  # atno 10763 bound_to 10752
  154.4582  135.2780  155.1734 H   0  0  0  0  0  0  0  0  0  0  0  0  # atno 10764 bound_to 10752
  154.3333  135.6244  153.5615 H   0  0  0  0  0  0  0  0  0  0  0  0  # atno 10765 bound_to 10752
  140.1316  134.4698  155.8517 H   0  0  0  0  0  0  0  0  0  0  0  0  # atno 11005 bound_to 11000
  144.7688  139.6782  143.7203 LP  0  0  0  0  0  0  0  0  0  0  0  0  # atno 17320 bound_to 7965
  146.2120  139.5484  142.9674 LP  0  0  0  0  0  0  0  0  0  0  0  0  # atno 17321 bound_to 7965
  140.3284  144.3345  150.5993 LP  0  0  0  0  0  0  0  0  0  0  0  0  # atno 17342 bound_to 10162
  140.5665  143.2185  151.7674 LP  0  0  0  0  0  0  0  0  0  0  0  0  # atno 17343 bound_to 10162
  157.7492  131.0346  150.4325 LP  0  0  0  0  0  0  0  0  0  0  0  0  # atno 17370 bound_to 10713
  156.4567  130.4023  149.6601 LP  0  0  0  0  0  0  0  0  0  0  0  0  # atno 17371 bound_to 10713
  141.2171  133.6798  156.7080 LP  0  0  0  0  0  0  0  0  0  0  0  0  # atno 17394 bound_to 11000
  140.2834  134.8298  157.3954 LP  0  0  0  0  0  0  0  0  0  0  0  0  # atno 17395 bound_to 11000

$$$$
