AV-unprocessed.smi:29|AV-procd|sdf|192|dock6
  -GOLD-   2262015463D 1   1.00000     0.00000
 Structure written by MMmdl.
 56 59  0  0  0  0  0  0  0  0  1 V2000
  150.6992  137.0789  159.5652 O   0  0  0  0  0  0  0  0  0  0  0  0
  149.9639  137.4478  158.6516 C   0  0  0  0  0  0  0  0  0  0  0  0
  148.9550  136.4381  158.0739 C   0  0  0  0  0  0  0  0  0  0  0  0
  148.2676  135.5897  159.0767 N   0  0  0  0  0  0  0  0  0  0  0  0
  148.2038  134.1932  158.8493 C   0  0  0  0  0  0  0  0  0  0  0  0
  148.6715  133.6900  157.8270 O   0  0  0  0  0  0  0  0  0  0  0  0
  147.5559  133.4149  159.8973 C   0  0  0  0  0  0  0  0  0  0  0  0
  147.5011  132.0762  159.7946 F   0  0  0  0  0  0  0  0  0  0  0  0
  147.0179  134.0163  160.9776 C   0  0  0  0  0  0  0  0  0  0  0  0
  147.0223  135.3901  161.1563 N   0  0  0  0  0  0  0  0  0  0  0  0
  146.4608  136.0592  162.4024 C   0  0  1  0  0  0  0  0  0  0  0  0
  145.3809  137.1142  162.1247 C   0  0  0  0  0  0  0  0  0  0  0  0
  144.0785  136.3432  162.3201 C   0  0  0  0  0  0  0  0  0  0  0  0
  144.5161  134.9270  162.7089 C   0  0  0  0  0  0  0  0  0  0  0  0
  145.8454  135.0866  163.1851 O   0  0  0  0  0  0  0  0  0  0  0  0
  147.6945  136.2035  160.2164 C   0  0  0  0  0  0  0  0  0  0  0  0
  147.7685  137.4235  160.3781 O   0  0  0  0  0  0  0  0  0  0  0  0
  149.9879  138.6766  158.0998 N   0  0  0  0  0  0  0  0  0  0  0  0
  150.8091  139.8066  158.3822 C   0  0  0  0  0  0  0  0  0  0  0  0
  151.8300  139.8023  159.3650 C   0  0  0  0  0  0  0  0  0  0  0  0
  152.6102  140.9526  159.6043 C   0  0  0  0  0  0  0  0  0  0  0  0
  153.6973  140.9205  160.6688 C   0  0  0  0  0  0  0  0  0  0  0  0
  153.7430  139.7399  161.2872 F   0  0  0  0  0  0  0  0  0  0  0  0
  154.8784  141.1490  160.0960 F   0  0  0  0  0  0  0  0  0  0  0  0
  153.4745  141.8629  161.5853 F   0  0  0  0  0  0  0  0  0  0  0  0
  152.3568  142.1264  158.8661 C   0  0  0  0  0  0  0  0  0  0  0  0
  151.3365  142.1472  157.8990 C   0  0  0  0  0  0  0  0  0  0  0  0
  150.5559  140.9953  157.6521 C   0  0  0  0  0  0  0  0  0  0  0  0
  149.5272  141.0260  156.6943 N   0  0  0  0  0  0  0  0  0  0  0  0
  148.3910  141.8509  157.0833 C   0  0  0  0  0  0  0  0  0  0  0  0
  147.2593  141.7001  156.0538 C   0  0  0  0  0  0  0  0  0  0  0  0
  147.7469  142.0188  154.7535 O   0  0  0  0  0  0  0  0  0  0  0  0
  148.8098  141.1582  154.3530 C   0  0  0  0  0  0  0  0  0  0  0  0
  149.9849  141.2922  155.3369 C   0  0  0  0  0  0  0  0  0  0  0  0
  148.2295  136.9902  157.4742 H   0  0  0  0  0  0  0  0  0  0  0  0
  149.4790  135.8237  157.3404 H   0  0  0  0  0  0  0  0  0  0  0  0
  146.5766  133.3747  161.7236 H   0  0  0  0  0  0  0  0  0  0  0  0
  147.3226  136.4982  162.9080 H   0  0  0  0  0  0  0  0  0  0  0  0
  145.4628  137.8915  162.8853 H   0  0  0  0  0  0  0  0  0  0  0  0
  145.4937  137.5943  161.1531 H   0  0  0  0  0  0  0  0  0  0  0  0
  143.4944  136.7969  163.1215 H   0  0  0  0  0  0  0  0  0  0  0  0
  143.4615  136.3378  161.4213 H   0  0  0  0  0  0  0  0  0  0  0  0
  143.8725  134.4847  163.4695 H   0  0  0  0  0  0  0  0  0  0  0  0
  144.5125  134.2653  161.8417 H   0  0  0  0  0  0  0  0  0  0  0  0
  149.3550  138.8076  157.3238 H   0  0  0  0  0  0  0  0  0  0  0  0
  152.0312  138.9297  159.9645 H   0  0  0  0  0  0  0  0  0  0  0  0
  152.9354  143.0210  159.0415 H   0  0  0  0  0  0  0  0  0  0  0  0
  151.1531  143.0588  157.3494 H   0  0  0  0  0  0  0  0  0  0  0  0
  148.0390  141.5535  158.0721 H   0  0  0  0  0  0  0  0  0  0  0  0
  148.6956  142.8962  157.1477 H   0  0  0  0  0  0  0  0  0  0  0  0
  146.8644  140.6850  156.0641 H   0  0  0  0  0  0  0  0  0  0  0  0
  146.4326  142.3664  156.2996 H   0  0  0  0  0  0  0  0  0  0  0  0
  148.4577  140.1273  154.3071 H   0  0  0  0  0  0  0  0  0  0  0  0
  149.1289  141.4301  153.3469 H   0  0  0  0  0  0  0  0  0  0  0  0
  150.4041  142.2971  155.2754 H   0  0  0  0  0  0  0  0  0  0  0  0
  150.7784  140.5929  155.0701 H   0  0  0  0  0  0  0  0  0  0  0  0
  1  2  2  0  0  0  0
  2  3  1  0  0  0  0
  2 18  1  0  0  0  0
  3  4  1  0  0  0  0
  3 35  1  0  0  0  0
  3 36  1  0  0  0  0
  4 16  1  0  0  0  0
  4  5  1  0  0  0  0
  5  6  2  0  0  0  0
  5  7  1  0  0  0  0
  7  8  1  0  0  0  0
  7  9  2  0  0  0  0
  9 10  1  0  0  0  0
  9 37  1  0  0  0  0
 10 11  1  0  0  0  0
 10 16  1  0  0  0  0
 11 15  1  0  0  0  0
 11 12  1  0  0  0  0
 11 38  1  0  0  0  0
 12 13  1  0  0  0  0
 12 39  1  0  0  0  0
 12 40  1  0  0  0  0
 13 14  1  0  0  0  0
 13 41  1  0  0  0  0
 13 42  1  0  0  0  0
 14 15  1  0  0  0  0
 14 43  1  0  0  0  0
 14 44  1  0  0  0  0
 16 17  2  0  0  0  0
 18 19  1  0  0  0  0
 18 45  1  0  0  0  0
 19 28  1  0  0  0  0
 19 20  2  0  0  0  0
 20 21  1  0  0  0  0
 20 46  1  0  0  0  0
 21 22  1  0  0  0  0
 21 26  2  0  0  0  0
 22 23  1  0  0  0  0
 22 24  1  0  0  0  0
 22 25  1  0  0  0  0
 26 27  1  0  0  0  0
 26 47  1  0  0  0  0
 27 28  2  0  0  0  0
 27 48  1  0  0  0  0
 28 29  1  0  0  0  0
 29 34  1  0  0  0  0
 29 30  1  0  0  0  0
 30 31  1  0  0  0  0
 30 49  1  0  0  0  0
 30 50  1  0  0  0  0
 31 32  1  0  0  0  0
 31 51  1  0  0  0  0
 31 52  1  0  0  0  0
 32 33  1  0  0  0  0
 33 34  1  0  0  0  0
 33 53  1  0  0  0  0
 33 54  1  0  0  0  0
 34 55  1  0  0  0  0
 34 56  1  0  0  0  0
M  END
> <s_m_source_file>
AV-unprocessed.smi

> <i_m_source_file_index>
29

> <i_lp_mmshare_version>
43012

> <i_f3d_flags>
0

> <s_epik_input>
TzFbQ0gyXVtDSDJdW0NIMl1bQ0BIXTFuKGMyPU8pW2NIXWMoRiljKD1PKW4yW0NIMl1DKD1PKVtOSF1jM1tjSF1jKEMoRikoRilGKVtjSF1bY0hdYzNONFtDSDJdW0NIMl1PW0NIMl1bQ0gyXTQ=

> <s_epik_cmdline>
J2VwaWtfcHl0aG9uJywgJy1waCcsICc3LjAnLCAnLXRuJywgJzgnLCAnLW1hJywgJzIwMCcsICctbWV0YWxfYmluZGluZycsICctaW1hZScsICc8aW5maWxlLm1hZT4nLCAnLW9tYWUnLCAnPG91dGZpbGUubWFlPic=

> <r_lp_tautomer_probability>
1

> <r_epik_Ionization_Penalty>
3.5967e-06

> <r_epik_Ionization_Penalty_Charging>
3.88729e-08

> <r_epik_Ionization_Penalty_Neutral>
3.55783e-06

> <r_epik_State_Penalty>
-0

> <r_epik_Charging_Adjusted_Penalty>
3.88729e-08

> <i_epik_Tot_Q>
0

> <i_epik_Tot_abs_Q>
0

> <r_epik_Metal_State_Penalty>
-0

> <b_epik_Metal_Only>
0

> <s_epik_Chemistry_Notes>
This compound contains an acetal/aminal-like group ( X-CH(R)-Y where X, Y are N, S, or O) that may be acid/base labile, releasing an aldehyde.

> <s_lp_Force_Field>
OPLS_2005

> <r_lp_Energy>
46.7793

> <b_lp_Chiralities_Consistent>
1

> <s_lp_Variant>
AV-unprocessed.smi:29-2

> <Gold.Version>
5.8.1

> <Gold.Id.Protein>
6NUR|6NUR_protein|mol2

> <Gold.PLP.Fitness>
62.6570

> <Gold.PLP.PLP>
-57.4037

> <Gold.PLP.part.hbond>
-4.0000

> <Gold.PLP.part.metal>
0.0000

> <Gold.PLP.part.buried>
-8.7142

> <Gold.PLP.part.nonpolar>
-45.1589

> <Gold.PLP.part.repulsive>
0.8251

> <Gold.PLP.ligand.clash>
1.3482

> <Gold.PLP.ligand.torsion>
0.5347

> <Gold.PLP.Chemscore.Hbond>
2.2623

> <Gold.PLP.Chemscore.CHOScore>
0.0000

> <Gold.PLP.Chemscore.Metal>
0.0000

> <Gold.Chemscore.Hbonds>
donor molecule, donor type, donor heavy atom, donor atom, acceptor molecule, acceptor atom, score
      P1  H  6896  6909       L1     1  0.94
      P1  H  6931  6943       L1    17  0.46
      P1  H  6934  6947       L1    17  0.83

> <Gold.PLP.Chemscore.Internal.Correction>
0.8841

> <Gold.Rescore>
     Score         DG    S(hbond)    S(metal)    S(lipo)     H(rot)  DE(clash)    DE(int)     intcor
     14.05     -18.35       2.06        0.00      94.06       1.96       0.34       3.96       ----

> <Gold.Chemscore.Fitness>
14.0484

> <Gold.Chemscore.DG>
-18.3518

> <Gold.Chemscore.ZeroCoef>
-5.4800

> <Gold.Chemscore.Hbond>
2.0642

> <Gold.Chemscore.Metal>
0.0000

> <Gold.Chemscore.Lipo>
94.0627

> <Gold.Chemscore.Internal_Hbond>
0.0000

> <Gold.Chemscore.DEClash>
0.3434

> <Gold.Chemscore.DEInternal>
3.9601

> <Gold.Chemscore.Rot>
1.9641

> <Gold.Chemscore.Internal.Correction>
   9.000000E+99

> <Gold.Chemscore.Hbonds>
donor molecule, donor type, donor heavy atom, donor atom, acceptor molecule, acceptor atom, score
      P1  H  6896  6909       L1     1  0.90
      P1  H  6931  6943       L1    17  0.44
      P1  H  6934  6947       L1    17  0.81

> <Gold.Chemscore.Hbond.Weighted>
-6.8945

> <Gold.Chemscore.Metal.Weighted>
-0.0000

> <Gold.Chemscore.Lipo.Weighted>
-11.0053

> <Gold.Chemscore.Internal_Hbond.Weighted>
0.0000

> <Gold.Chemscore.DEClash.Weighted>
0.3434

> <Gold.Chemscore.DEInternal.Weighted>
3.9601

> <Gold.Chemscore.Rot.Weighted>
5.0280

> <Gold.Chemscore.Internal.Correction.Weighted>
   9.000000E+99

> <Gold.Protein.RotatedTorsions>
[ 6907 6896 6895 6894 ] final  102.61 input  -60.11 | X-H torsion
[ 7974 7965 7964 7962 ] final   42.36 input  175.53 | X-H torsion
[ 8008 7997 7996 7995 ] final   -4.20 input   59.86 | X-H torsion
[ 10167 10162 10161 10158 ] final  118.71 input  -65.29 | X-H torsion
[ 10718 10713 10712 10709 ] final  121.75 input   66.30 | X-H torsion
[ 10763 10752 10751 10750 ] final  132.44 input  -60.55 | X-H torsion
[ 11005 11000 10999 10996 ] final  -59.75 input  -57.11 | X-H torsion

> <Gold.Protein.ActiveResidues>
 VAL166  LYS551  ARG553  GLY616  TRP617  ASP618  TYR619  PRO620  LYS621  CYS622 
 ASP623  PHE694  ASN695  SER759  ASP760  ASP761  ALA762  ILE779  LEU786  VAL792 
 PHE793  MET794  SER795  GLU796  ALA797  LYS798  CYS799  TRP800  GLU811  SER814 

> <Gold.Protein.RotatedAtoms>
  152.5319  133.9950  159.7867 H   0  0  0  0  0  0  0  0  0  0  0  0  # atno 6907 bound_to 6896
  151.0179  133.5896  159.2682 H   0  0  0  0  0  0  0  0  0  0  0  0  # atno 6908 bound_to 6896
  151.2947  135.0758  159.9270 H   0  0  0  0  0  0  0  0  0  0  0  0  # atno 6909 bound_to 6896
  146.0747  139.5309  142.9575 H   0  0  0  0  0  0  0  0  0  0  0  0  # atno 7974 bound_to 7965
  154.6168  140.2490  155.7599 H   0  0  0  0  0  0  0  0  0  0  0  0  # atno 8008 bound_to 7997
  156.2403  140.2935  156.0376 H   0  0  0  0  0  0  0  0  0  0  0  0  # atno 8009 bound_to 7997
  155.1962  140.0393  157.2899 H   0  0  0  0  0  0  0  0  0  0  0  0  # atno 8010 bound_to 7997
  139.6094  144.7078  151.2879 H   0  0  0  0  0  0  0  0  0  0  0  0  # atno 10167 bound_to 10162
  157.5794  131.1076  150.8216 H   0  0  0  0  0  0  0  0  0  0  0  0  # atno 10718 bound_to 10713
  153.7907  135.3155  155.3378 H   0  0  0  0  0  0  0  0  0  0  0  0  # atno 10763 bound_to 10752
  154.8127  135.4657  154.0562 H   0  0  0  0  0  0  0  0  0  0  0  0  # atno 10764 bound_to 10752
  153.1879  135.6904  153.8478 H   0  0  0  0  0  0  0  0  0  0  0  0  # atno 10765 bound_to 10752
  141.1260  133.6618  156.5119 H   0  0  0  0  0  0  0  0  0  0  0  0  # atno 11005 bound_to 11000
  145.6328  141.0300  143.1854 LP  0  0  0  0  0  0  0  0  0  0  0  0  # atno 17320 bound_to 7965
  144.7254  139.7894  143.7367 LP  0  0  0  0  0  0  0  0  0  0  0  0  # atno 17321 bound_to 7965
  140.7308  143.6869  150.7954 LP  0  0  0  0  0  0  0  0  0  0  0  0  # atno 17342 bound_to 10162
  140.0461  143.5297  152.2695 LP  0  0  0  0  0  0  0  0  0  0  0  0  # atno 17343 bound_to 10162
  156.8666  130.5131  149.5300 LP  0  0  0  0  0  0  0  0  0  0  0  0  # atno 17370 bound_to 10713
  156.0840  130.5843  150.9614 LP  0  0  0  0  0  0  0  0  0  0  0  0  # atno 17371 bound_to 10713
  140.4362  134.7057  157.4968 LP  0  0  0  0  0  0  0  0  0  0  0  0  # atno 17394 bound_to 11000
  140.0260  134.6476  155.9172 LP  0  0  0  0  0  0  0  0  0  0  0  0  # atno 17395 bound_to 11000

$$$$
