AV-unprocessed.smi:910|AV-procd|sdf|4135|dock10
  -GOLD-   22720 2 43D 1   1.00000     0.00000
 Structure written by MMmdl.
 45 46  0  0  0  0  0  0  0  0  2 V2000
  146.0830  137.2249  162.8122 C   0  0  0  0  0  0  0  0  0  0  0  0
  147.0008  136.4920  161.8848 C   0  0  0  0  0  0  0  0  0  0  0  0
  147.8182  137.1494  160.9778 N   0  0  0  0  0  0  0  0  0  0  0  0
  148.4915  136.1936  160.3348 C   0  0  0  0  0  0  0  0  0  0  0  0
  149.4008  136.3778  159.3639 N   0  5  0  0  0  0  0  0  0  0  0  0
  149.6102  137.6178  158.8670 C   0  0  0  0  0  0  0  0  0  0  0  0
  148.7557  138.4916  158.6995 O   0  0  0  0  0  0  0  0  0  0  0  0
  150.8883  137.8632  158.5445 N   0  0  0  0  0  0  0  0  0  0  0  0
  151.4072  139.1160  158.0049 C   0  0  0  0  0  0  0  0  0  0  0  0
  151.5695  140.1762  159.1027 C   0  0  0  0  0  0  0  0  0  0  0  0
  152.8500  140.7773  158.9779 O   0  0  0  0  0  0  0  0  0  0  0  0
  152.9440  142.0725  159.5555 C   0  0  1  0  0  0  0  0  0  0  0  0
  151.8403  142.9698  158.9566 C   0  0  0  0  0  0  0  0  0  0  0  0
  151.8009  144.3462  159.6362 C   0  0  0  0  0  0  0  0  0  0  0  0
  151.6262  144.2051  161.1548 C   0  0  0  0  0  0  0  0  0  0  0  0
  152.7261  143.3177  161.7572 C   0  0  0  0  0  0  0  0  0  0  0  0
  152.7757  141.9308  161.0851 C   0  0  2  0  0  0  0  0  0  0  0  0
  153.8889  141.0688  161.7023 C   0  0  0  0  0  0  0  0  0  0  0  0
  148.1476  134.9464  160.7662 O   0  0  0  0  0  0  0  0  0  0  0  0
  147.2126  135.1468  161.7441 C   0  0  0  0  0  0  0  0  0  0  0  0
  146.6474  133.9449  162.4208 C   0  0  0  0  0  0  0  0  0  0  0  0
  145.0438  136.9491  162.6336 H   0  0  0  0  0  0  0  0  0  0  0  0
  146.1644  138.3050  162.6861 H   0  0  0  0  0  0  0  0  0  0  0  0
  146.3132  136.9960  163.8528 H   0  0  0  0  0  0  0  0  0  0  0  0
  151.5566  137.1226  158.6996 H   0  0  0  0  0  0  0  0  0  0  0  0
  152.3680  138.9205  157.5286 H   0  0  0  0  0  0  0  0  0  0  0  0
  150.7432  139.4845  157.2214 H   0  0  0  0  0  0  0  0  0  0  0  0
  150.8025  140.9436  158.9913 H   0  0  0  0  0  0  0  0  0  0  0  0
  151.4329  139.7266  160.0866 H   0  0  0  0  0  0  0  0  0  0  0  0
  153.9243  142.5094  159.3540 H   0  0  0  0  0  0  0  0  0  0  0  0
  151.9904  143.1004  157.8852 H   0  0  0  0  0  0  0  0  0  0  0  0
  150.8716  142.4813  159.0714 H   0  0  0  0  0  0  0  0  0  0  0  0
  152.7232  144.8871  159.4211 H   0  0  0  0  0  0  0  0  0  0  0  0
  150.9876  144.9425  159.2220 H   0  0  0  0  0  0  0  0  0  0  0  0
  151.6431  145.1889  161.6243 H   0  0  0  0  0  0  0  0  0  0  0  0
  150.6478  143.7747  161.3728 H   0  0  0  0  0  0  0  0  0  0  0  0
  153.6914  143.8144  161.6479 H   0  0  0  0  0  0  0  0  0  0  0  0
  152.5568  143.2068  162.8287 H   0  0  0  0  0  0  0  0  0  0  0  0
  151.8243  141.4320  161.2772 H   0  0  0  0  0  0  0  0  0  0  0  0
  154.8723  141.5057  161.5259 H   0  0  0  0  0  0  0  0  0  0  0  0
  153.8920  140.0631  161.2814 H   0  0  0  0  0  0  0  0  0  0  0  0
  153.7567  140.9704  162.7799 H   0  0  0  0  0  0  0  0  0  0  0  0
  145.8170  134.2171  163.0726 H   0  0  0  0  0  0  0  0  0  0  0  0
  147.4067  133.4524  163.0281 H   0  0  0  0  0  0  0  0  0  0  0  0
  146.2805  133.2260  161.6882 H   0  0  0  0  0  0  0  0  0  0  0  0
  1 22  1  0  0  0  0
  1 23  1  0  0  0  0
  1 24  1  0  0  0  0
  1  2  1  0  0  0  0
  2  3  1  0  0  0  0
  2 20  2  0  0  0  0
  3  4  2  0  0  0  0
  4 19  1  0  0  0  0
  4  5  1  0  0  0  0
  5  6  1  0  0  0  0
  6  8  1  0  0  0  0
  6  7  2  0  0  0  0
  8  9  1  0  0  0  0
  8 25  1  0  0  0  0
  9 10  1  0  0  0  0
  9 26  1  0  0  0  0
  9 27  1  0  0  0  0
 10 11  1  0  0  0  0
 10 28  1  0  0  0  0
 10 29  1  0  0  0  0
 11 12  1  0  0  0  0
 12 17  1  0  0  0  0
 12 13  1  0  0  0  0
 12 30  1  0  0  0  0
 13 14  1  0  0  0  0
 13 31  1  0  0  0  0
 13 32  1  0  0  0  0
 14 15  1  0  0  0  0
 14 33  1  0  0  0  0
 14 34  1  0  0  0  0
 15 16  1  0  0  0  0
 15 35  1  0  0  0  0
 15 36  1  0  0  0  0
 16 17  1  0  0  0  0
 16 37  1  0  0  0  0
 16 38  1  0  0  0  0
 17 18  1  0  0  0  0
 17 39  1  0  0  0  0
 18 40  1  0  0  0  0
 18 41  1  0  0  0  0
 18 42  1  0  0  0  0
 19 20  1  0  0  0  0
 20 21  1  0  0  0  0
 21 43  1  0  0  0  0
 21 44  1  0  0  0  0
 21 45  1  0  0  0  0
M  CHG  1   5  -1
M  END
> <s_m_source_file>
AV-unprocessed.smi

> <i_m_source_file_index>
910

> <i_lp_mmshare_version>
43012

> <i_f3d_flags>
0

> <s_epik_input>
W0NIM11jMW5jKG9jMVtDSDNdKVtOSF1DKD1PKVtOSF1bQ0gyXVtDSDJdT1tDQEBIXTJbQ0gyXVtDSDJdW0NIMl1bQ0gyXVtDQEhdMltDSDNd

> <s_epik_cmdline>
J2VwaWtfcHl0aG9uJywgJy1waCcsICc3LjAnLCAnLXRuJywgJzgnLCAnLW1hJywgJzIwMCcsICctbWV0YWxfYmluZGluZycsICctaW1hZScsICc8aW5maWxlLm1hZT4nLCAnLW9tYWUnLCAnPG91dGZpbGUubWFlPic=

> <r_lp_tautomer_probability>
0.107061

> <r_epik_Ionization_Penalty>
10.1763

> <r_epik_Ionization_Penalty_Charging>
7.13067

> <r_epik_Ionization_Penalty_Neutral>
3.04564

> <r_epik_State_Penalty>
5.57927

> <r_epik_Charging_Adjusted_Penalty>
12.7099

> <i_epik_Tot_Q>
-1

> <i_epik_Tot_abs_Q>
1

> <r_epik_Metal_State_Penalty>
1.52303

> <b_epik_Metal_Only>
1

> <s_lp_Force_Field>
OPLS_2005

> <r_lp_Energy>
4.71828

> <b_lp_Chiralities_Consistent>
1

> <s_lp_Variant>
AV-unprocessed.smi:910-20

> <Gold.Version>
5.8.1

> <Gold.Id.Protein>
6NUR|6NUR_protein|mol2

> <Gold.PLP.Fitness>
56.3892

> <Gold.PLP.PLP>
-46.9665

> <Gold.PLP.part.hbond>
-3.3010

> <Gold.PLP.part.metal>
0.0000

> <Gold.PLP.part.buried>
-5.3004

> <Gold.PLP.part.nonpolar>
-39.2392

> <Gold.PLP.part.repulsive>
0.1236

> <Gold.PLP.ligand.clash>
0.0000

> <Gold.PLP.ligand.torsion>
0.8603

> <Gold.PLP.Chemscore.Hbond>
3.6960

> <Gold.PLP.Chemscore.CHOScore>
0.0000

> <Gold.PLP.Chemscore.Metal>
0.0000

> <Gold.Chemscore.Hbonds>
donor molecule, donor type, donor heavy atom, donor atom, acceptor molecule, acceptor atom, score
      P1  H  6896  6909       L1     5  1.59
      P1  H  6931  6943       L1     3  0.93
      P1  H  6934  6947       L1     3  0.83

> <Gold.PLP.Chemscore.Internal.Correction>
0.0554

> <Gold.Rescore>
     Score         DG    S(hbond)    S(metal)    S(lipo)     H(rot)  DE(clash)    DE(int)     intcor
     19.50     -21.87       1.94        0.00     119.98       1.62       0.18       2.19       ----

> <Gold.Chemscore.Fitness>
19.4994

> <Gold.Chemscore.DG>
-21.8720

> <Gold.Chemscore.ZeroCoef>
-5.4800

> <Gold.Chemscore.Hbond>
1.9443

> <Gold.Chemscore.Metal>
0.0000

> <Gold.Chemscore.Lipo>
119.9772

> <Gold.Chemscore.Internal_Hbond>
0.0000

> <Gold.Chemscore.DEClash>
0.1821

> <Gold.Chemscore.DEInternal>
2.1905

> <Gold.Chemscore.Rot>
1.6169

> <Gold.Chemscore.Internal.Correction>
   9.000000E+99

> <Gold.Chemscore.Hbonds>
donor molecule, donor type, donor heavy atom, donor atom, acceptor molecule, acceptor atom, score
      P1  H  6896  6909       L1     5  0.35
      P1  H  6931  6943       L1     3  0.47
      P1  H  6934  6947       L1     3  0.45

> <Gold.Chemscore.Hbond.Weighted>
-6.4939

> <Gold.Chemscore.Metal.Weighted>
-0.0000

> <Gold.Chemscore.Lipo.Weighted>
-14.0373

> <Gold.Chemscore.Internal_Hbond.Weighted>
0.0000

> <Gold.Chemscore.DEClash.Weighted>
0.1821

> <Gold.Chemscore.DEInternal.Weighted>
2.1905

> <Gold.Chemscore.Rot.Weighted>
4.1393

> <Gold.Chemscore.Internal.Correction.Weighted>
   9.000000E+99

> <Gold.Protein.RotatedTorsions>
[ 6907 6896 6895 6894 ] final   73.82 input  -60.11 | X-H torsion
[ 7974 7965 7964 7962 ] final   -9.86 input  175.53 | X-H torsion
[ 8008 7997 7996 7995 ] final   20.94 input   59.86 | X-H torsion
[ 10167 10162 10161 10158 ] final  -65.64 input  -65.29 | X-H torsion
[ 10718 10713 10712 10709 ] final  -21.44 input   66.30 | X-H torsion
[ 10763 10752 10751 10750 ] final -145.10 input  -60.55 | X-H torsion
[ 11005 11000 10999 10996 ] final   39.59 input  -57.11 | X-H torsion

> <Gold.Protein.ActiveResidues>
 VAL166  LYS551  ARG553  GLY616  TRP617  ASP618  TYR619  PRO620  LYS621  CYS622 
 ASP623  PHE694  ASN695  SER759  ASP760  ASP761  ALA762  ILE779  LEU786  VAL792 
 PHE793  MET794  SER795  GLU796  ALA797  LYS798  CYS799  TRP800  GLU811  SER814 

> <Gold.Protein.RotatedAtoms>
  152.4943  134.4364  159.9528 H   0  0  0  0  0  0  0  0  0  0  0  0  # atno 6907 bound_to 6896
  151.4346  133.3654  159.2781 H   0  0  0  0  0  0  0  0  0  0  0  0  # atno 6908 bound_to 6896
  150.9131  134.8571  159.7498 H   0  0  0  0  0  0  0  0  0  0  0  0  # atno 6909 bound_to 6896
  146.2239  140.2679  142.8355 H   0  0  0  0  0  0  0  0  0  0  0  0  # atno 7974 bound_to 7965
  154.9431  140.3056  155.5111 H   0  0  0  0  0  0  0  0  0  0  0  0  # atno 8008 bound_to 7997
  156.2994  140.2332  156.4439 H   0  0  0  0  0  0  0  0  0  0  0  0  # atno 8009 bound_to 7997
  154.8126  140.0427  157.1342 H   0  0  0  0  0  0  0  0  0  0  0  0  # atno 8010 bound_to 7997
  140.5715  143.2318  151.6529 H   0  0  0  0  0  0  0  0  0  0  0  0  # atno 10167 bound_to 10162
  156.5182  130.4626  149.6611 H   0  0  0  0  0  0  0  0  0  0  0  0  # atno 10718 bound_to 10713
  154.8398  135.3422  154.6451 H   0  0  0  0  0  0  0  0  0  0  0  0  # atno 10763 bound_to 10752
  153.7063  135.6966  153.5054 H   0  0  0  0  0  0  0  0  0  0  0  0  # atno 10764 bound_to 10752
  153.2485  135.4361  155.0727 H   0  0  0  0  0  0  0  0  0  0  0  0  # atno 10765 bound_to 10752
  140.2013  134.3866  155.8094 H   0  0  0  0  0  0  0  0  0  0  0  0  # atno 11005 bound_to 11000
  144.9290  140.7954  143.5701 LP  0  0  0  0  0  0  0  0  0  0  0  0  # atno 17320 bound_to 7965
  145.2621  139.1988  143.4886 LP  0  0  0  0  0  0  0  0  0  0  0  0  # atno 17321 bound_to 7965
  139.5120  144.3491  152.0669 LP  0  0  0  0  0  0  0  0  0  0  0  0  # atno 17342 bound_to 10162
  140.2629  144.4047  150.6179 LP  0  0  0  0  0  0  0  0  0  0  0  0  # atno 17343 bound_to 10162
  156.3175  130.7262  151.2168 LP  0  0  0  0  0  0  0  0  0  0  0  0  # atno 17370 bound_to 10713
  157.7441  131.0464  150.4894 LP  0  0  0  0  0  0  0  0  0  0  0  0  # atno 17371 bound_to 10713
  141.2227  133.7095  156.8263 LP  0  0  0  0  0  0  0  0  0  0  0  0  # atno 17394 bound_to 11000
  140.2051  134.8869  157.3212 LP  0  0  0  0  0  0  0  0  0  0  0  0  # atno 17395 bound_to 11000

$$$$
