AV-unprocessed.smi:2212|AV-procd|sdf|8954|dock7
  -GOLD-   2272012173D 1   1.00000     0.00000
 Structure written by MMmdl.
 31 32  0  0  0  0  0  0  0  0  1 V2000
  147.4633  139.3089  153.3352 C   0  0  0  0  0  0  0  0  0  0  0  0
  147.2193  140.0172  154.5433 O   0  0  0  0  0  0  0  0  0  0  0  0
  147.4122  141.4312  154.4903 C   0  0  0  0  0  0  0  0  0  0  0  0
  148.8955  141.8051  154.3635 C   0  0  0  0  0  0  0  0  0  0  0  0
  149.5470  141.7821  155.6665 N   0  0  0  0  0  0  0  0  0  0  0  0
  150.7075  141.1685  155.9345 C   0  0  0  0  0  0  0  0  0  0  0  0
  151.3204  140.5364  155.0682 O   0  0  0  0  0  0  0  0  0  0  0  0
  151.0434  141.3401  157.2690 N   0  0  0  0  0  0  0  0  0  0  0  0
  151.1784  142.5394  157.7467 C   0  0  0  0  0  0  0  0  0  0  0  0
  151.0806  143.8045  157.1732 N   0  0  0  0  0  0  0  0  0  0  0  0
  151.3287  144.7329  158.1453 C   0  0  0  0  0  0  0  0  0  0  0  0
  151.5733  144.0852  159.2804 C   0  0  0  0  0  0  0  0  0  0  0  0
  151.4894  142.7420  159.0675 O   0  0  0  0  0  0  0  0  0  0  0  0
  146.4391  142.0042  153.4425 C   0  0  0  0  0  0  0  0  0  0  0  0
  146.0639  143.0973  154.4447 C   0  0  0  0  0  0  0  0  0  0  0  0
  146.5529  142.1553  155.5461 C   0  0  0  0  0  0  0  0  0  0  0  0
  147.3819  138.2390  153.5261 H   0  0  0  0  0  0  0  0  0  0  0  0
  148.4629  139.5006  152.9448 H   0  0  0  0  0  0  0  0  0  0  0  0
  146.7320  139.5565  152.5661 H   0  0  0  0  0  0  0  0  0  0  0  0
  149.4019  141.1027  153.6995 H   0  0  0  0  0  0  0  0  0  0  0  0
  149.0210  142.7892  153.9116 H   0  0  0  0  0  0  0  0  0  0  0  0
  149.0853  142.2775  156.4161 H   0  0  0  0  0  0  0  0  0  0  0  0
  150.8675  144.0413  156.2148 H   0  0  0  0  0  0  0  0  0  0  0  0
  151.3028  145.7876  157.9141 H   0  0  0  0  0  0  0  0  0  0  0  0
  151.8115  144.4200  160.2793 H   0  0  0  0  0  0  0  0  0  0  0  0
  146.9091  142.3715  152.5297 H   0  0  0  0  0  0  0  0  0  0  0  0
  145.6039  141.3375  153.2199 H   0  0  0  0  0  0  0  0  0  0  0  0
  146.6794  143.9930  154.3468 H   0  0  0  0  0  0  0  0  0  0  0  0
  145.0009  143.3361  154.4849 H   0  0  0  0  0  0  0  0  0  0  0  0
  145.7490  141.5366  155.9493 H   0  0  0  0  0  0  0  0  0  0  0  0
  147.1184  142.6438  156.3401 H   0  0  0  0  0  0  0  0  0  0  0  0
  1  2  1  0  0  0  0
  1 17  1  0  0  0  0
  1 18  1  0  0  0  0
  1 19  1  0  0  0  0
  2  3  1  0  0  0  0
  3 16  1  0  0  0  0
  3  4  1  0  0  0  0
  3 14  1  0  0  0  0
  4  5  1  0  0  0  0
  4 20  1  0  0  0  0
  4 21  1  0  0  0  0
  5 22  1  0  0  0  0
  5  6  1  0  0  0  0
  6  8  1  0  0  0  0
  6  7  2  0  0  0  0
  8  9  2  0  0  0  0
  9 13  1  0  0  0  0
  9 10  1  0  0  0  0
 10 23  1  0  0  0  0
 10 11  1  0  0  0  0
 11 24  1  0  0  0  0
 11 12  2  0  0  0  0
 12 25  1  0  0  0  0
 12 13  1  0  0  0  0
 14 15  1  0  0  0  0
 14 26  1  0  0  0  0
 14 27  1  0  0  0  0
 15 16  1  0  0  0  0
 15 28  1  0  0  0  0
 15 29  1  0  0  0  0
 16 30  1  0  0  0  0
 16 31  1  0  0  0  0
M  END
> <s_m_source_file>
AV-unprocessed.smi

> <i_m_source_file_index>
2212

> <i_lp_mmshare_version>
43012

> <i_f3d_flags>
0

> <s_epik_input>
W0NIMl0xW0NIMl1bQ0gyXUMxKE9bQ0gzXSlbQ0gyXVtOSF1DKD1PKVtOSF1jMm5bY0hdW2NIXW8y

> <s_epik_cmdline>
J2VwaWtfcHl0aG9uJywgJy1waCcsICc3LjAnLCAnLXRuJywgJzgnLCAnLW1hJywgJzIwMCcsICctbWV0YWxfYmluZGluZycsICctaW1hZScsICc8aW5maWxlLm1hZT4nLCAnLW9tYWUnLCAnPG91dGZpbGUubWFlPic=

> <r_lp_tautomer_probability>
0.107061

> <r_epik_Ionization_Penalty>
1.29244

> <r_epik_Ionization_Penalty_Charging>
1.29208

> <r_epik_Ionization_Penalty_Neutral>
0.000357989

> <r_epik_State_Penalty>
2.59896

> <r_epik_Charging_Adjusted_Penalty>
3.89105

> <i_epik_Tot_Q>
0

> <i_epik_Tot_abs_Q>
0

> <r_epik_Metal_State_Penalty>
3.62496

> <b_epik_Metal_Only>
0

> <s_lp_Force_Field>
OPLS_2005

> <r_lp_Energy>
41.2438

> <b_lp_Chiralities_Consistent>
1

> <s_lp_Variant>
AV-unprocessed.smi:2212-4

> <Gold.Version>
5.8.1

> <Gold.Id.Protein>
6NUR|6NUR_protein|mol2

> <Gold.PLP.Fitness>
33.6001

> <Gold.PLP.PLP>
-32.2486

> <Gold.PLP.part.hbond>
-2.8073

> <Gold.PLP.part.metal>
0.0000

> <Gold.PLP.part.buried>
-4.4630

> <Gold.PLP.part.nonpolar>
-24.5772

> <Gold.PLP.part.repulsive>
0.2847

> <Gold.PLP.ligand.clash>
0.0040

> <Gold.PLP.ligand.torsion>
1.0691

> <Gold.PLP.Chemscore.Hbond>
1.0728

> <Gold.PLP.Chemscore.CHOScore>
0.0000

> <Gold.PLP.Chemscore.Metal>
0.0000

> <Gold.Chemscore.Hbonds>
donor molecule, donor type, donor heavy atom, donor atom, acceptor molecule, acceptor atom, score
      L1  H    10    23       P1  8028  0.30
      P1  H  7989  7998       L1     7  0.93

> <Gold.PLP.Chemscore.Internal.Correction>
0.2753

> <Gold.Rescore>
     Score         DG    S(hbond)    S(metal)    S(lipo)     H(rot)  DE(clash)    DE(int)     intcor
     11.38     -13.79       1.84        0.00      54.39       1.64       0.00       2.41       ----

> <Gold.Chemscore.Fitness>
11.3754

> <Gold.Chemscore.DG>
-13.7871

> <Gold.Chemscore.ZeroCoef>
-5.4800

> <Gold.Chemscore.Hbond>
1.8396

> <Gold.Chemscore.Metal>
0.0000

> <Gold.Chemscore.Lipo>
54.3927

> <Gold.Chemscore.Internal_Hbond>
0.0000

> <Gold.Chemscore.DEClash>
0.0000

> <Gold.Chemscore.DEInternal>
2.4116

> <Gold.Chemscore.Rot>
1.6411

> <Gold.Chemscore.Internal.Correction>
   9.000000E+99

> <Gold.Chemscore.Hbonds>
donor molecule, donor type, donor heavy atom, donor atom, acceptor molecule, acceptor atom, score
      L1  H    10    23       P1  8028  0.30
      P1  H  7989  7998       L1     7  0.89

> <Gold.Chemscore.Hbond.Weighted>
-6.1442

> <Gold.Chemscore.Metal.Weighted>
-0.0000

> <Gold.Chemscore.Lipo.Weighted>
-6.3639

> <Gold.Chemscore.Internal_Hbond.Weighted>
0.0000

> <Gold.Chemscore.DEClash.Weighted>
0.0000

> <Gold.Chemscore.DEInternal.Weighted>
2.4116

> <Gold.Chemscore.Rot.Weighted>
4.2011

> <Gold.Chemscore.Internal.Correction.Weighted>
   9.000000E+99

> <Gold.Protein.RotatedTorsions>
[ 6907 6896 6895 6894 ] final  153.73 input  -60.11 | X-H torsion
[ 7974 7965 7964 7962 ] final -168.62 input  175.53 | X-H torsion
[ 8008 7997 7996 7995 ] final -142.92 input   59.86 | X-H torsion
[ 10167 10162 10161 10158 ] final  139.60 input  -65.29 | X-H torsion
[ 10718 10713 10712 10709 ] final  -75.02 input   66.30 | X-H torsion
[ 10763 10752 10751 10750 ] final   46.12 input  -60.55 | X-H torsion
[ 11005 11000 10999 10996 ] final  -98.16 input  -57.11 | X-H torsion

> <Gold.Protein.ActiveResidues>
 VAL166  LYS551  ARG553  GLY616  TRP617  ASP618  TYR619  PRO620  LYS621  CYS622 
 ASP623  PHE694  ASN695  SER759  ASP760  ASP761  ALA762  ILE779  LEU786  VAL792 
 PHE793  MET794  SER795  GLU796  ALA797  LYS798  CYS799  TRP800  GLU811  SER814 

> <Gold.Protein.RotatedAtoms>
  152.0686  133.4095  159.4448 H   0  0  0  0  0  0  0  0  0  0  0  0  # atno 6907 bound_to 6896
  150.6864  134.3118  159.4759 H   0  0  0  0  0  0  0  0  0  0  0  0  # atno 6908 bound_to 6896
  152.0947  134.9382  160.0621 H   0  0  0  0  0  0  0  0  0  0  0  0  # atno 6909 bound_to 6896
  144.7200  140.2343  143.6300 H   0  0  0  0  0  0  0  0  0  0  0  0  # atno 7974 bound_to 7965
  155.5021  140.0576  157.2937 H   0  0  0  0  0  0  0  0  0  0  0  0  # atno 8008 bound_to 7997
  154.4583  140.1984  156.0265 H   0  0  0  0  0  0  0  0  0  0  0  0  # atno 8009 bound_to 7997
  156.0842  140.3242  155.7736 H   0  0  0  0  0  0  0  0  0  0  0  0  # atno 8010 bound_to 7997
  139.5074  144.6285  151.5877 H   0  0  0  0  0  0  0  0  0  0  0  0  # atno 10167 bound_to 10162
  156.0222  130.4431  150.2980 H   0  0  0  0  0  0  0  0  0  0  0  0  # atno 10718 bound_to 10713
  152.9815  135.6018  154.3547 H   0  0  0  0  0  0  0  0  0  0  0  0  # atno 10763 bound_to 10752
  154.3234  135.2769  155.2510 H   0  0  0  0  0  0  0  0  0  0  0  0  # atno 10764 bound_to 10752
  154.4666  135.5952  153.6348 H   0  0  0  0  0  0  0  0  0  0  0  0  # atno 10765 bound_to 10752
  141.1354  133.8225  157.0803 H   0  0  0  0  0  0  0  0  0  0  0  0  # atno 11005 bound_to 11000
  145.8381  139.2117  143.1843 LP  0  0  0  0  0  0  0  0  0  0  0  0  # atno 17320 bound_to 7965
  146.0371  140.8201  142.9847 LP  0  0  0  0  0  0  0  0  0  0  0  0  # atno 17321 bound_to 7965
  140.6010  143.9610  150.6386 LP  0  0  0  0  0  0  0  0  0  0  0  0  # atno 17342 bound_to 10162
  140.2822  143.3382  152.1141 LP  0  0  0  0  0  0  0  0  0  0  0  0  # atno 17343 bound_to 10162
  157.1083  131.0214  151.3058 LP  0  0  0  0  0  0  0  0  0  0  0  0  # atno 17370 bound_to 10713
  157.4725  130.7717  149.7337 LP  0  0  0  0  0  0  0  0  0  0  0  0  # atno 17371 bound_to 10713
  140.0456  134.9832  157.1042 LP  0  0  0  0  0  0  0  0  0  0  0  0  # atno 17394 bound_to 11000
  140.4068  134.2024  155.7163 LP  0  0  0  0  0  0  0  0  0  0  0  0  # atno 17395 bound_to 11000

$$$$
