AV-unprocessed.smi:943|AV-procd|sdf|4229|dock6
  -GOLD-   22720 2133D 1   1.00000     0.00000
 Structure written by MMmdl.
 43 44  0  0  0  0  0  0  0  0  1 V2000
  151.2903  140.3759  156.0878 C   0  0  0  0  0  0  0  0  0  0  0  0
  151.2396  140.4248  157.6246 C   0  0  2  0  0  0  0  0  0  0  0  0
  152.2656  141.4432  158.1776 C   0  0  0  0  0  0  0  0  0  0  0  0
  151.8818  142.1631  159.4939 C   0  0  0  0  0  0  0  0  0  0  0  0
  151.5468  143.6568  159.2828 C   0  0  0  0  0  0  0  0  0  0  0  0
  151.2185  144.3631  160.6080 C   0  0  0  0  0  0  0  0  0  0  0  0
  152.3544  144.2033  161.6274 C   0  0  0  0  0  0  0  0  0  0  0  0
  152.6765  142.7201  161.8570 C   0  0  0  0  0  0  0  0  0  0  0  0
  153.0129  142.0151  160.5335 C   0  0  0  0  0  0  0  0  0  0  0  0
  151.4547  139.0199  158.2055 C   0  0  0  0  0  0  0  0  0  0  0  0
  152.5566  138.4757  158.1283 O   0  0  0  0  0  0  0  0  0  0  0  0
  150.3950  138.4519  158.7973 N   0  0  0  0  0  0  0  0  0  0  0  0
  150.4128  137.1505  159.4522 C   0  0  0  0  0  0  0  0  0  0  0  0
  149.0500  136.4469  159.3440 C   0  0  0  0  0  0  0  0  0  0  0  0
  148.4915  136.0240  160.6721 C   0  0  0  0  0  0  0  0  0  0  0  0
  148.2546  134.7373  161.0941 C   0  0  0  0  0  0  0  0  0  0  0  0
  147.6019  134.6872  162.7096 S   0  0  0  0  0  0  0  0  0  0  0  0
  147.6769  136.4406  162.7426 C   0  0  0  0  0  0  0  0  0  0  0  0
  148.1540  136.9904  161.6257 N   0  0  0  0  0  0  0  0  0  0  0  0
  150.5804  139.6498  155.6891 H   0  0  0  0  0  0  0  0  0  0  0  0
  152.2830  140.1041  155.7260 H   0  0  0  0  0  0  0  0  0  0  0  0
  151.0377  141.3457  155.6588 H   0  0  0  0  0  0  0  0  0  0  0  0
  150.2376  140.7595  157.8960 H   0  0  0  0  0  0  0  0  0  0  0  0
  153.2189  140.9326  158.3235 H   0  0  0  0  0  0  0  0  0  0  0  0
  152.4556  142.1966  157.4119 H   0  0  0  0  0  0  0  0  0  0  0  0
  150.9993  141.6779  159.9130 H   0  0  0  0  0  0  0  0  0  0  0  0
  152.3864  144.1588  158.8002 H   0  0  0  0  0  0  0  0  0  0  0  0
  150.6940  143.7652  158.6129 H   0  0  0  0  0  0  0  0  0  0  0  0
  151.0280  145.4213  160.4275 H   0  0  0  0  0  0  0  0  0  0  0  0
  150.2988  143.9486  161.0221 H   0  0  0  0  0  0  0  0  0  0  0  0
  153.2448  144.7219  161.2695 H   0  0  0  0  0  0  0  0  0  0  0  0
  152.0777  144.6755  162.5705 H   0  0  0  0  0  0  0  0  0  0  0  0
  153.5118  142.6248  162.5513 H   0  0  0  0  0  0  0  0  0  0  0  0
  151.8243  142.2286  162.3282 H   0  0  0  0  0  0  0  0  0  0  0  0
  153.2052  140.9591  160.7267 H   0  0  0  0  0  0  0  0  0  0  0  0
  153.9393  142.4269  160.1309 H   0  0  0  0  0  0  0  0  0  0  0  0
  149.5274  138.9677  158.8216 H   0  0  0  0  0  0  0  0  0  0  0  0
  151.1903  136.5280  159.0074 H   0  0  0  0  0  0  0  0  0  0  0  0
  150.6735  137.2850  160.5035 H   0  0  0  0  0  0  0  0  0  0  0  0
  148.3459  137.1136  158.8446 H   0  0  0  0  0  0  0  0  0  0  0  0
  149.1474  135.5804  158.6889 H   0  0  0  0  0  0  0  0  0  0  0  0
  148.4252  133.8180  160.5538 H   0  0  0  0  0  0  0  0  0  0  0  0
  147.3715  137.0585  163.5740 H   0  0  0  0  0  0  0  0  0  0  0  0
  1  2  1  0  0  0  0
  1 20  1  0  0  0  0
  1 21  1  0  0  0  0
  1 22  1  0  0  0  0
  2  3  1  0  0  0  0
  2 10  1  0  0  0  0
  2 23  1  0  0  0  0
  3  4  1  0  0  0  0
  3 24  1  0  0  0  0
  3 25  1  0  0  0  0
  4  9  1  0  0  0  0
  4  5  1  0  0  0  0
  4 26  1  0  0  0  0
  5  6  1  0  0  0  0
  5 27  1  0  0  0  0
  5 28  1  0  0  0  0
  6  7  1  0  0  0  0
  6 29  1  0  0  0  0
  6 30  1  0  0  0  0
  7  8  1  0  0  0  0
  7 31  1  0  0  0  0
  7 32  1  0  0  0  0
  8  9  1  0  0  0  0
  8 33  1  0  0  0  0
  8 34  1  0  0  0  0
  9 35  1  0  0  0  0
  9 36  1  0  0  0  0
 10 11  2  0  0  0  0
 10 12  1  0  0  0  0
 12 13  1  0  0  0  0
 12 37  1  0  0  0  0
 13 14  1  0  0  0  0
 13 38  1  0  0  0  0
 13 39  1  0  0  0  0
 14 15  1  0  0  0  0
 14 40  1  0  0  0  0
 14 41  1  0  0  0  0
 15 19  1  0  0  0  0
 15 16  2  0  0  0  0
 16 17  1  0  0  0  0
 16 42  1  0  0  0  0
 17 18  1  0  0  0  0
 18 19  2  0  0  0  0
 18 43  1  0  0  0  0
M  END
> <s_m_source_file>
AV-unprocessed.smi

> <i_m_source_file_index>
943

> <i_lp_mmshare_version>
43012

> <i_f3d_flags>
0

> <s_epik_input>
W0NIMl0xW0NIMl1bQ0gyXVtDSDJdW0NIMl1bQ0hdMVtDSDJdW0NAQEhdKFtDSDNdKUMoPU8pW05IXVtDSDJdW0NIMl1jMltjSF1zW2NIXW4y

> <s_epik_cmdline>
J2VwaWtfcHl0aG9uJywgJy1waCcsICc3LjAnLCAnLXRuJywgJzgnLCAnLW1hJywgJzIwMCcsICctbWV0YWxfYmluZGluZycsICctaW1hZScsICc8aW5maWxlLm1hZT4nLCAnLW9tYWUnLCAnPG91dGZpbGUubWFlPic=

> <r_lp_tautomer_probability>
1

> <r_epik_Ionization_Penalty>
0.000194757

> <r_epik_Ionization_Penalty_Charging>
0

> <r_epik_Ionization_Penalty_Neutral>
0.000194757

> <r_epik_State_Penalty>
-0

> <r_epik_Charging_Adjusted_Penalty>
0

> <i_epik_Tot_Q>
0

> <i_epik_Tot_abs_Q>
0

> <r_epik_Metal_State_Penalty>
-0

> <b_epik_Metal_Only>
0

> <s_lp_Force_Field>
OPLS_2005

> <r_lp_Energy>
6.00362

> <b_lp_Chiralities_Consistent>
1

> <s_lp_Variant>
AV-unprocessed.smi:943-1

> <Gold.Version>
5.8.1

> <Gold.Id.Protein>
6NUR|6NUR_protein|mol2

> <Gold.PLP.Fitness>
47.5270

> <Gold.PLP.PLP>
-45.6283

> <Gold.PLP.part.hbond>
-2.0000

> <Gold.PLP.part.metal>
0.0000

> <Gold.PLP.part.buried>
-5.4300

> <Gold.PLP.part.nonpolar>
-38.2144

> <Gold.PLP.part.repulsive>
0.1941

> <Gold.PLP.ligand.clash>
0.0000

> <Gold.PLP.ligand.torsion>
1.7639

> <Gold.PLP.Chemscore.Hbond>
1.7680

> <Gold.PLP.Chemscore.CHOScore>
0.0000

> <Gold.PLP.Chemscore.Metal>
0.0000

> <Gold.Chemscore.Hbonds>
donor molecule, donor type, donor heavy atom, donor atom, acceptor molecule, acceptor atom, score
      P1  H  6931  6943       L1    19  1.00
      P1  H  6934  6947       L1    19  0.13

> <Gold.PLP.Chemscore.Internal.Correction>
0.1225

> <Gold.Rescore>
     Score         DG    S(hbond)    S(metal)    S(lipo)     H(rot)  DE(clash)    DE(int)     intcor
     19.24     -20.93       1.39        0.00     126.88       1.58       0.09       1.60       ----

> <Gold.Chemscore.Fitness>
19.2440

> <Gold.Chemscore.DG>
-20.9316

> <Gold.Chemscore.ZeroCoef>
-5.4800

> <Gold.Chemscore.Hbond>
1.3917

> <Gold.Chemscore.Metal>
0.0000

> <Gold.Chemscore.Lipo>
126.8829

> <Gold.Chemscore.Internal_Hbond>
0.0000

> <Gold.Chemscore.DEClash>
0.0876

> <Gold.Chemscore.DEInternal>
1.6000

> <Gold.Chemscore.Rot>
1.5789

> <Gold.Chemscore.Internal.Correction>
   9.000000E+99

> <Gold.Chemscore.Hbonds>
donor molecule, donor type, donor heavy atom, donor atom, acceptor molecule, acceptor atom, score
      P1  H  6931  6943       L1    19  0.78
      P1  H  6934  6947       L1    19  0.12

> <Gold.Chemscore.Hbond.Weighted>
-4.6482

> <Gold.Chemscore.Metal.Weighted>
-0.0000

> <Gold.Chemscore.Lipo.Weighted>
-14.8453

> <Gold.Chemscore.Internal_Hbond.Weighted>
0.0000

> <Gold.Chemscore.DEClash.Weighted>
0.0876

> <Gold.Chemscore.DEInternal.Weighted>
1.6000

> <Gold.Chemscore.Rot.Weighted>
4.0419

> <Gold.Chemscore.Internal.Correction.Weighted>
   9.000000E+99

> <Gold.Protein.RotatedTorsions>
[ 6907 6896 6895 6894 ] final  -94.87 input  -60.11 | X-H torsion
[ 7974 7965 7964 7962 ] final -168.14 input  175.53 | X-H torsion
[ 8008 7997 7996 7995 ] final   77.57 input   59.86 | X-H torsion
[ 10167 10162 10161 10158 ] final  -56.09 input  -65.29 | X-H torsion
[ 10718 10713 10712 10709 ] final -126.88 input   66.30 | X-H torsion
[ 10763 10752 10751 10750 ] final   16.65 input  -60.55 | X-H torsion
[ 11005 11000 10999 10996 ] final  159.09 input  -57.11 | X-H torsion

> <Gold.Protein.ActiveResidues>
 VAL166  LYS551  ARG553  GLY616  TRP617  ASP618  TYR619  PRO620  LYS621  CYS622 
 ASP623  PHE694  ASN695  SER759  ASP760  ASP761  ALA762  ILE779  LEU786  VAL792 
 PHE793  MET794  SER795  GLU796  ALA797  LYS798  CYS799  TRP800  GLU811  SER814 

> <Gold.Protein.RotatedAtoms>
  150.6951  134.1745  159.4224 H   0  0  0  0  0  0  0  0  0  0  0  0  # atno 6907 bound_to 6896
  151.9721  135.0069  160.0562 H   0  0  0  0  0  0  0  0  0  0  0  0  # atno 6908 bound_to 6896
  152.1832  133.4686  159.5005 H   0  0  0  0  0  0  0  0  0  0  0  0  # atno 6909 bound_to 6896
  144.7209  140.2414  143.6291 H   0  0  0  0  0  0  0  0  0  0  0  0  # atno 7974 bound_to 7965
  155.8435  140.3461  155.5647 H   0  0  0  0  0  0  0  0  0  0  0  0  # atno 8008 bound_to 7997
  155.8115  140.0899  157.1921 H   0  0  0  0  0  0  0  0  0  0  0  0  # atno 8009 bound_to 7997
  154.4005  140.1447  156.3380 H   0  0  0  0  0  0  0  0  0  0  0  0  # atno 8010 bound_to 7997
  140.6337  143.2472  151.5173 H   0  0  0  0  0  0  0  0  0  0  0  0  # atno 10167 bound_to 10162
  156.1806  130.6729  151.0299 H   0  0  0  0  0  0  0  0  0  0  0  0  # atno 10718 bound_to 10713
  153.1411  135.6760  153.9025 H   0  0  0  0  0  0  0  0  0  0  0  0  # atno 10763 bound_to 10752
  153.8481  135.3096  155.3432 H   0  0  0  0  0  0  0  0  0  0  0  0  # atno 10764 bound_to 10752
  154.7788  135.4899  153.9885 H   0  0  0  0  0  0  0  0  0  0  0  0  # atno 10765 bound_to 10752
  140.1928  134.8395  157.2931 H   0  0  0  0  0  0  0  0  0  0  0  0  # atno 11005 bound_to 11000
  145.8316  139.2088  143.1879 LP  0  0  0  0  0  0  0  0  0  0  0  0  # atno 17320 bound_to 7965
  146.0426  140.8150  142.9821 LP  0  0  0  0  0  0  0  0  0  0  0  0  # atno 17321 bound_to 7965
  139.5549  144.2300  152.1595 LP  0  0  0  0  0  0  0  0  0  0  0  0  # atno 17342 bound_to 10162
  140.1551  144.5078  150.6665 LP  0  0  0  0  0  0  0  0  0  0  0  0  # atno 17343 bound_to 10162
  157.6865  131.0823  150.7227 LP  0  0  0  0  0  0  0  0  0  0  0  0  # atno 17370 bound_to 10713
  156.7284  130.4702  149.5505 LP  0  0  0  0  0  0  0  0  0  0  0  0  # atno 17371 bound_to 10713
  140.2141  134.4103  155.7598 LP  0  0  0  0  0  0  0  0  0  0  0  0  # atno 17394 bound_to 11000
  141.2226  133.7133  156.8385 LP  0  0  0  0  0  0  0  0  0  0  0  0  # atno 17395 bound_to 11000

$$$$
