AV-unprocessed.smi:2009|AV-procd|sdf|8148|dock4
  -GOLD-   2272010393D 1   1.00000     0.00000
 Structure written by MMmdl.
 37 38  0  0  0  0  0  0  0  0  2 V2000
  152.3654  140.0969  158.2840 C   0  0  0  0  0  0  0  0  0  0  0  0
  150.9161  140.5062  157.9889 C   0  0  1  0  0  0  0  0  0  0  0  0
  150.8351  141.8769  157.2714 C   0  0  0  0  0  0  0  0  0  0  0  0
  151.4339  142.9799  158.0184 N   0  0  0  0  0  0  0  0  0  0  0  0
  151.5301  144.3109  157.6580 C   0  0  0  0  0  0  0  0  0  0  0  0
  152.1797  144.9637  158.6657 C   0  0  0  0  0  0  0  0  0  0  0  0
  152.4573  143.9357  159.6089 C   0  0  0  0  0  0  0  0  0  0  0  0
  152.0201  142.7499  159.2173 N   0  0  0  0  0  0  0  0  0  0  0  0
  150.2964  139.4791  157.1630 N   0  5  0  0  0  0  0  0  0  0  0  0
  150.7447  139.3259  155.6122 S   0  0  0  0  0  0  0  0  0  0  0  0
  151.8023  140.2659  155.2069 O   0  0  0  0  0  0  0  0  0  0  0  0
  150.8776  137.9206  155.1936 O   0  0  0  0  0  0  0  0  0  0  0  0
  149.2760  139.9184  154.8935 N   0  0  0  0  0  0  0  0  0  0  0  0
  148.5449  138.9927  154.0031 C   0  0  0  0  0  0  0  0  0  0  0  0
  147.1037  139.4676  153.7523 C   0  0  0  0  0  0  0  0  0  0  0  0
  147.0747  140.9002  153.2143 C   0  0  0  0  0  0  0  0  0  0  0  0
  147.8184  141.8173  154.1881 C   0  0  0  0  0  0  0  0  0  0  0  0
  149.2547  141.3248  154.4287 C   0  0  0  0  0  0  0  0  0  0  0  0
  152.8596  140.8380  158.9125 H   0  0  0  0  0  0  0  0  0  0  0  0
  152.9471  139.9982  157.3667 H   0  0  0  0  0  0  0  0  0  0  0  0
  152.4057  139.1422  158.8101 H   0  0  0  0  0  0  0  0  0  0  0  0
  150.4111  140.6067  158.9508 H   0  0  0  0  0  0  0  0  0  0  0  0
  151.3354  141.8132  156.3038 H   0  0  0  0  0  0  0  0  0  0  0  0
  149.7964  142.1328  157.0571 H   0  0  0  0  0  0  0  0  0  0  0  0
  151.1209  144.6768  156.7276 H   0  0  0  0  0  0  0  0  0  0  0  0
  152.4182  146.0153  158.7205 H   0  0  0  0  0  0  0  0  0  0  0  0
  152.9632  144.0152  160.5597 H   0  0  0  0  0  0  0  0  0  0  0  0
  149.0881  138.9051  153.0613 H   0  0  0  0  0  0  0  0  0  0  0  0
  148.5155  137.9971  154.4449 H   0  0  0  0  0  0  0  0  0  0  0  0
  146.6089  138.7963  153.0503 H   0  0  0  0  0  0  0  0  0  0  0  0
  146.5361  139.4141  154.6825 H   0  0  0  0  0  0  0  0  0  0  0  0
  147.5447  140.9396  152.2308 H   0  0  0  0  0  0  0  0  0  0  0  0
  146.0455  141.2366  153.0880 H   0  0  0  0  0  0  0  0  0  0  0  0
  147.8361  142.8361  153.8005 H   0  0  0  0  0  0  0  0  0  0  0  0
  147.2835  141.8564  155.1381 H   0  0  0  0  0  0  0  0  0  0  0  0
  149.7351  141.9761  155.1579 H   0  0  0  0  0  0  0  0  0  0  0  0
  149.8401  141.4015  153.5118 H   0  0  0  0  0  0  0  0  0  0  0  0
  1  2  1  0  0  0  0
  1 19  1  0  0  0  0
  1 20  1  0  0  0  0
  1 21  1  0  0  0  0
  2  3  1  0  0  0  0
  2  9  1  0  0  0  0
  2 22  1  0  0  0  0
  3  4  1  0  0  0  0
  3 23  1  0  0  0  0
  3 24  1  0  0  0  0
  4  8  1  0  0  0  0
  4  5  1  0  0  0  0
  5  6  2  0  0  0  0
  5 25  1  0  0  0  0
  6  7  1  0  0  0  0
  6 26  1  0  0  0  0
  7  8  2  0  0  0  0
  7 27  1  0  0  0  0
  9 10  1  0  0  0  0
 10 11  2  0  0  0  0
 10 12  2  0  0  0  0
 10 13  1  0  0  0  0
 13 18  1  0  0  0  0
 13 14  1  0  0  0  0
 14 15  1  0  0  0  0
 14 28  1  0  0  0  0
 14 29  1  0  0  0  0
 15 16  1  0  0  0  0
 15 30  1  0  0  0  0
 15 31  1  0  0  0  0
 16 17  1  0  0  0  0
 16 32  1  0  0  0  0
 16 33  1  0  0  0  0
 17 18  1  0  0  0  0
 17 34  1  0  0  0  0
 17 35  1  0  0  0  0
 18 36  1  0  0  0  0
 18 37  1  0  0  0  0
M  CHG  1   9  -1
M  END
> <s_m_source_file>
AV-unprocessed.smi

> <i_m_source_file_index>
2009

> <i_lp_mmshare_version>
43012

> <i_f3d_flags>
0

> <s_epik_input>
bjFbY0hdW2NIXVtjSF1uMVtDSDJdW0NAQEhdKFtDSDNdKVtOSF1TKD1PKSg9TylOMltDSDJdW0NIMl1bQ0gyXVtDSDJdW0NIMl0y

> <s_epik_cmdline>
J2VwaWtfcHl0aG9uJywgJy1waCcsICc3LjAnLCAnLXRuJywgJzgnLCAnLW1hJywgJzIwMCcsICctbWV0YWxfYmluZGluZycsICctaW1hZScsICc8aW5maWxlLm1hZT4nLCAnLW9tYWUnLCAnPG91dGZpbGUubWFlPic=

> <r_lp_tautomer_probability>
1

> <r_epik_Ionization_Penalty>
1.75622

> <r_epik_Ionization_Penalty_Charging>
1.7562

> <r_epik_Ionization_Penalty_Neutral>
2.38826e-05

> <r_epik_State_Penalty>
1.86645

> <r_epik_Charging_Adjusted_Penalty>
3.62264

> <i_epik_Tot_Q>
-1

> <i_epik_Tot_abs_Q>
1

> <r_epik_Metal_State_Penalty>
0.460135

> <b_epik_Metal_Only>
0

> <s_lp_Force_Field>
OPLS_2005

> <r_lp_Energy>
6.21629

> <b_lp_Chiralities_Consistent>
1

> <s_lp_Variant>
AV-unprocessed.smi:2009-4

> <Gold.Version>
5.8.1

> <Gold.Id.Protein>
6NUR|6NUR_protein|mol2

> <Gold.PLP.Fitness>
43.2263

> <Gold.PLP.PLP>
-38.1049

> <Gold.PLP.part.hbond>
-1.0000

> <Gold.PLP.part.metal>
0.0000

> <Gold.PLP.part.buried>
-4.3746

> <Gold.PLP.part.nonpolar>
-33.1875

> <Gold.PLP.part.repulsive>
0.1970

> <Gold.PLP.ligand.clash>
0.0000

> <Gold.PLP.ligand.torsion>
1.0352

> <Gold.PLP.Chemscore.Hbond>
0.8640

> <Gold.PLP.Chemscore.CHOScore>
1.0000

> <Gold.PLP.Chemscore.Metal>
0.0000

> <Gold.Chemscore.Hbonds>
donor molecule, donor type, donor heavy atom, donor atom, acceptor molecule, acceptor atom, score
      P1  H  7989  7998       L1    11  0.83
      L1  C     5    25       P1  8028  1.00

> <Gold.PLP.Chemscore.Internal.Correction>
1.5996

> <Gold.Rescore>
     Score         DG    S(hbond)    S(metal)    S(lipo)     H(rot)  DE(clash)    DE(int)     intcor
     11.72     -15.43       0.93        0.00      92.78       1.57       0.07       3.64       ----

> <Gold.Chemscore.Fitness>
11.7243

> <Gold.Chemscore.DG>
-15.4339

> <Gold.Chemscore.ZeroCoef>
-5.4800

> <Gold.Chemscore.Hbond>
0.9311

> <Gold.Chemscore.Metal>
0.0000

> <Gold.Chemscore.Lipo>
92.7844

> <Gold.Chemscore.Internal_Hbond>
0.0000

> <Gold.Chemscore.DEClash>
0.0742

> <Gold.Chemscore.DEInternal>
3.6354

> <Gold.Chemscore.Rot>
1.5672

> <Gold.Chemscore.Internal.Correction>
   9.000000E+99

> <Gold.Chemscore.Hbonds>
donor molecule, donor type, donor heavy atom, donor atom, acceptor molecule, acceptor atom, score
      P1  H  7989  7998       L1    11  0.75

> <Gold.Chemscore.Hbond.Weighted>
-3.1100

> <Gold.Chemscore.Metal.Weighted>
-0.0000

> <Gold.Chemscore.Lipo.Weighted>
-10.8558

> <Gold.Chemscore.Internal_Hbond.Weighted>
0.0000

> <Gold.Chemscore.DEClash.Weighted>
0.0742

> <Gold.Chemscore.DEInternal.Weighted>
3.6354

> <Gold.Chemscore.Rot.Weighted>
4.0119

> <Gold.Chemscore.Internal.Correction.Weighted>
   9.000000E+99

> <Gold.Protein.RotatedTorsions>
[ 6907 6896 6895 6894 ] final -113.47 input  -60.11 | X-H torsion
[ 7974 7965 7964 7962 ] final -157.76 input  175.53 | X-H torsion
[ 8008 7997 7996 7995 ] final -129.51 input   59.86 | X-H torsion
[ 10167 10162 10161 10158 ] final  106.56 input  -65.29 | X-H torsion
[ 10718 10713 10712 10709 ] final   32.50 input   66.30 | X-H torsion
[ 10763 10752 10751 10750 ] final -133.05 input  -60.55 | X-H torsion
[ 11005 11000 10999 10996 ] final  -86.93 input  -57.11 | X-H torsion

> <Gold.Protein.ActiveResidues>
 VAL166  LYS551  ARG553  GLY616  TRP617  ASP618  TYR619  PRO620  LYS621  CYS622 
 ASP623  PHE694  ASN695  SER759  ASP760  ASP761  ALA762  ILE779  LEU786  VAL792 
 PHE793  MET794  SER795  GLU796  ALA797  LYS798  CYS799  TRP800  GLU811  SER814 

> <Gold.Protein.RotatedAtoms>
  150.7831  133.8941  159.3321 H   0  0  0  0  0  0  0  0  0  0  0  0  # atno 6907 bound_to 6896
  151.6798  135.0961  160.0223 H   0  0  0  0  0  0  0  0  0  0  0  0  # atno 6908 bound_to 6896
  152.3888  133.6610  159.6256 H   0  0  0  0  0  0  0  0  0  0  0  0  # atno 6909 bound_to 6896
  144.7534  140.3924  143.6030 H   0  0  0  0  0  0  0  0  0  0  0  0  # atno 7974 bound_to 7965
  155.2804  140.0444  157.3015 H   0  0  0  0  0  0  0  0  0  0  0  0  # atno 8008 bound_to 7997
  154.5600  140.2343  155.8318 H   0  0  0  0  0  0  0  0  0  0  0  0  # atno 8009 bound_to 7997
  156.2039  140.3018  155.9593 H   0  0  0  0  0  0  0  0  0  0  0  0  # atno 8010 bound_to 7997
  139.6999  144.7096  151.1203 H   0  0  0  0  0  0  0  0  0  0  0  0  # atno 10167 bound_to 10162
  157.2859  130.7278  149.6583 H   0  0  0  0  0  0  0  0  0  0  0  0  # atno 10718 bound_to 10713
  154.8737  135.3778  154.4509 H   0  0  0  0  0  0  0  0  0  0  0  0  # atno 10763 bound_to 10752
  153.5185  135.7029  153.5749 H   0  0  0  0  0  0  0  0  0  0  0  0  # atno 10764 bound_to 10752
  153.4006  135.3949  155.1951 H   0  0  0  0  0  0  0  0  0  0  0  0  # atno 10765 bound_to 10752
  141.1623  133.7482  156.9233 H   0  0  0  0  0  0  0  0  0  0  0  0  # atno 11005 bound_to 11000
  145.6863  139.1629  143.2672 LP  0  0  0  0  0  0  0  0  0  0  0  0  # atno 17320 bound_to 7965
  146.1515  140.6919  142.9320 LP  0  0  0  0  0  0  0  0  0  0  0  0  # atno 17321 bound_to 7965
  140.7706  143.5439  150.9281 LP  0  0  0  0  0  0  0  0  0  0  0  0  # atno 17342 bound_to 10162
  139.9120  143.6709  152.3113 LP  0  0  0  0  0  0  0  0  0  0  0  0  # atno 17343 bound_to 10162
  155.9665  130.4323  150.4960 LP  0  0  0  0  0  0  0  0  0  0  0  0  # atno 17370 bound_to 10713
  157.2913  131.0627  151.2132 LP  0  0  0  0  0  0  0  0  0  0  0  0  # atno 17371 bound_to 10713
  140.1436  134.9277  157.2500 LP  0  0  0  0  0  0  0  0  0  0  0  0  # atno 17394 bound_to 11000
  140.2807  134.3354  155.7344 LP  0  0  0  0  0  0  0  0  0  0  0  0  # atno 17395 bound_to 11000

$$$$
