AV-unprocessed.smi:714|AV-procd|sdf|3483|dock3
  -GOLD-   22720 0473D 1   1.00000     0.00000
 Structure written by MMmdl.
 38 39  0  0  0  0  0  0  0  0  1 V2000
  150.7983  133.1512  156.3266 C   0  0  0  0  0  0  0  0  0  0  0  0
  150.3582  133.6173  155.2872 C   0  0  0  0  0  0  0  0  0  0  0  0
  149.8162  134.1675  154.0333 C   0  0  0  0  0  0  0  0  0  0  0  0
  149.6066  135.6098  154.0964 N   0  0  0  0  0  0  0  0  0  0  0  0
  150.4188  136.4946  154.7020 C   0  0  0  0  0  0  0  0  0  0  0  0
  151.4533  136.1424  155.2715 O   0  0  0  0  0  0  0  0  0  0  0  0
  149.9514  137.8802  154.6156 C   0  0  0  0  0  0  0  0  0  0  0  0
  148.7769  138.2787  153.8574 C   0  0  0  0  0  0  0  0  0  0  0  0
  148.4234  139.5757  153.7778 C   0  0  0  0  0  0  0  0  0  0  0  0
  149.1876  140.6302  154.4505 C   0  0  0  0  0  0  0  0  0  0  0  0
  148.8776  141.8165  154.3410 O   0  0  0  0  0  0  0  0  0  0  0  0
  150.2520  140.2131  155.2052 N   0  0  0  0  0  0  0  0  0  0  0  0
  151.0961  141.2101  155.9097 C   0  0  1  0  0  0  0  0  0  0  0  0
  150.2904  142.1836  156.7999 C   0  0  0  0  0  0  0  0  0  0  0  0
  150.6670  141.8706  158.2542 C   0  0  0  0  0  0  0  0  0  0  0  0
  151.7869  140.9514  158.1661 N   0  0  0  0  0  0  0  0  0  0  0  0
  152.4752  140.5027  159.3752 C   0  0  0  0  0  0  0  0  0  0  0  0
  153.3224  141.6163  160.0168 C   0  0  0  0  0  0  0  0  0  0  0  0
  154.5231  141.1255  160.3209 F   0  0  0  0  0  0  0  0  0  0  0  0
  153.4847  142.6420  159.1815 F   0  0  0  0  0  0  0  0  0  0  0  0
  152.7450  142.0504  161.1372 F   0  0  0  0  0  0  0  0  0  0  0  0
  152.0207  140.5292  156.9182 C   0  0  0  0  0  0  0  0  0  0  0  0
  152.8713  139.7045  156.5858 O   0  0  0  0  0  0  0  0  0  0  0  0
  150.6350  138.8522  155.2495 C   0  0  0  0  0  0  0  0  0  0  0  0
  151.1795  132.7426  157.2354 H   0  0  0  0  0  0  0  0  0  0  0  0
  150.4840  133.8972  153.2141 H   0  0  0  0  0  0  0  0  0  0  0  0
  148.8598  133.6817  153.8399 H   0  0  0  0  0  0  0  0  0  0  0  0
  148.7748  135.9660  153.6485 H   0  0  0  0  0  0  0  0  0  0  0  0
  148.1660  137.5524  153.3418 H   0  0  0  0  0  0  0  0  0  0  0  0
  147.5492  139.8487  153.2050 H   0  0  0  0  0  0  0  0  0  0  0  0
  151.7115  141.7998  155.2287 H   0  0  0  0  0  0  0  0  0  0  0  0
  150.5876  143.2070  156.5671 H   0  0  0  0  0  0  0  0  0  0  0  0
  149.2125  142.1405  156.6390 H   0  0  0  0  0  0  0  0  0  0  0  0
  150.9385  142.7722  158.8044 H   0  0  0  0  0  0  0  0  0  0  0  0
  149.8402  141.3880  158.7769 H   0  0  0  0  0  0  0  0  0  0  0  0
  151.7348  140.1472  160.0931 H   0  0  0  0  0  0  0  0  0  0  0  0
  153.1044  139.6428  159.1397 H   0  0  0  0  0  0  0  0  0  0  0  0
  151.5313  138.6546  155.8184 H   0  0  0  0  0  0  0  0  0  0  0  0
  1  2  3  0  0  0  0
  1 25  1  0  0  0  0
  2  3  1  0  0  0  0
  3  4  1  0  0  0  0
  3 26  1  0  0  0  0
  3 27  1  0  0  0  0
  4  5  1  0  0  0  0
  4 28  1  0  0  0  0
  5  6  2  0  0  0  0
  5  7  1  0  0  0  0
  7 24  2  0  0  0  0
  7  8  1  0  0  0  0
  8  9  2  0  0  0  0
  8 29  1  0  0  0  0
  9 10  1  0  0  0  0
  9 30  1  0  0  0  0
 10 11  2  0  0  0  0
 10 12  1  0  0  0  0
 12 13  1  0  0  0  0
 12 24  1  0  0  0  0
 13 22  1  0  0  0  0
 13 14  1  0  0  0  0
 13 31  1  0  0  0  0
 14 15  1  0  0  0  0
 14 32  1  0  0  0  0
 14 33  1  0  0  0  0
 15 16  1  0  0  0  0
 15 34  1  0  0  0  0
 15 35  1  0  0  0  0
 16 17  1  0  0  0  0
 16 22  1  0  0  0  0
 17 18  1  0  0  0  0
 17 36  1  0  0  0  0
 17 37  1  0  0  0  0
 18 19  1  0  0  0  0
 18 20  1  0  0  0  0
 18 21  1  0  0  0  0
 22 23  2  0  0  0  0
 24 38  1  0  0  0  0
M  END
> <s_m_source_file>
AV-unprocessed.smi

> <i_m_source_file_index>
714

> <i_lp_mmshare_version>
43012

> <i_f3d_flags>
0

> <s_epik_input>
W0NIXSNDW0NIMl1bTkhdQyg9TyljMVtjSF1bY0hdYyg9TyluKFtjSF0xKVtDQEBIXTJbQ0gyXVtDSDJdTihDMj1PKVtDSDJdQyhGKShGKUY=

> <s_epik_cmdline>
J2VwaWtfcHl0aG9uJywgJy1waCcsICc3LjAnLCAnLXRuJywgJzgnLCAnLW1hJywgJzIwMCcsICctbWV0YWxfYmluZGluZycsICctaW1hZScsICc8aW5maWxlLm1hZT4nLCAnLW9tYWUnLCAnPG91dGZpbGUubWFlPic=

> <r_lp_tautomer_probability>
1

> <r_epik_Ionization_Penalty>
2.95503e-06

> <r_epik_Ionization_Penalty_Charging>
5.74209e-08

> <r_epik_Ionization_Penalty_Neutral>
2.89761e-06

> <r_epik_State_Penalty>
-0

> <r_epik_Charging_Adjusted_Penalty>
5.74209e-08

> <i_epik_Tot_Q>
0

> <i_epik_Tot_abs_Q>
0

> <r_epik_Metal_State_Penalty>
-0

> <b_epik_Metal_Only>
0

> <s_lp_Force_Field>
OPLS_2005

> <r_lp_Energy>
33.0774

> <b_lp_Chiralities_Consistent>
1

> <s_lp_Variant>
AV-unprocessed.smi:714-2

> <Gold.Version>
5.8.1

> <Gold.Id.Protein>
6NUR|6NUR_protein|mol2

> <Gold.PLP.Fitness>
50.1916

> <Gold.PLP.PLP>
-45.6732

> <Gold.PLP.part.hbond>
-4.0000

> <Gold.PLP.part.metal>
0.0000

> <Gold.PLP.part.buried>
1.4645

> <Gold.PLP.part.nonpolar>
-42.2031

> <Gold.PLP.part.repulsive>
0.2980

> <Gold.PLP.ligand.clash>
0.6301

> <Gold.PLP.ligand.torsion>
1.5057

> <Gold.PLP.Chemscore.Hbond>
2.6583

> <Gold.PLP.Chemscore.CHOScore>
0.0000

> <Gold.PLP.Chemscore.Metal>
0.0000

> <Gold.Chemscore.Hbonds>
donor molecule, donor type, donor heavy atom, donor atom, acceptor molecule, acceptor atom, score
      L1  H     4    28       P1  7948  0.26
      P1  H  7997  8009       L1    23  1.00
      P1  H  8011  8017       L1    11  0.17
      P1  H 10752 10764       L1     6  1.00

> <Gold.PLP.Chemscore.Internal.Correction>
0.1850

> <Gold.Rescore>
     Score         DG    S(hbond)    S(metal)    S(lipo)     H(rot)  DE(clash)    DE(int)     intcor
     10.76     -16.30       2.02        0.00      70.27       1.61       0.28       5.26       ----

> <Gold.Chemscore.Fitness>
10.7640

> <Gold.Chemscore.DG>
-16.3049

> <Gold.Chemscore.ZeroCoef>
-5.4800

> <Gold.Chemscore.Hbond>
2.0160

> <Gold.Chemscore.Metal>
0.0000

> <Gold.Chemscore.Lipo>
70.2747

> <Gold.Chemscore.Internal_Hbond>
0.0000

> <Gold.Chemscore.DEClash>
0.2845

> <Gold.Chemscore.DEInternal>
5.2564

> <Gold.Chemscore.Rot>
1.6136

> <Gold.Chemscore.Internal.Correction>
   9.000000E+99

> <Gold.Chemscore.Hbonds>
donor molecule, donor type, donor heavy atom, donor atom, acceptor molecule, acceptor atom, score
      L1  H     4    28       P1  7948  0.26
      P1  H  7997  8009       L1    23  0.92
      P1  H  8011  8017       L1    11  0.08
      P1  H 10752 10764       L1     6  0.98

> <Gold.Chemscore.Hbond.Weighted>
-6.7335

> <Gold.Chemscore.Metal.Weighted>
-0.0000

> <Gold.Chemscore.Lipo.Weighted>
-8.2221

> <Gold.Chemscore.Internal_Hbond.Weighted>
0.0000

> <Gold.Chemscore.DEClash.Weighted>
0.2845

> <Gold.Chemscore.DEInternal.Weighted>
5.2564

> <Gold.Chemscore.Rot.Weighted>
4.1308

> <Gold.Chemscore.Internal.Correction.Weighted>
   9.000000E+99

> <Gold.Protein.RotatedTorsions>
[ 6907 6896 6895 6894 ] final -151.73 input  -60.11 | X-H torsion
[ 7974 7965 7964 7962 ] final  -74.26 input  175.53 | X-H torsion
[ 8008 7997 7996 7995 ] final -178.97 input   59.86 | X-H torsion
[ 10167 10162 10161 10158 ] final  -97.72 input  -65.29 | X-H torsion
[ 10718 10713 10712 10709 ] final -124.09 input   66.30 | X-H torsion
[ 10763 10752 10751 10750 ] final  -69.29 input  -60.55 | X-H torsion
[ 11005 11000 10999 10996 ] final  142.17 input  -57.11 | X-H torsion

> <Gold.Protein.ActiveResidues>
 VAL166  LYS551  ARG553  GLY616  TRP617  ASP618  TYR619  PRO620  LYS621  CYS622 
 ASP623  PHE694  ASN695  SER759  ASP760  ASP761  ALA762  ILE779  LEU786  VAL792 
 PHE793  MET794  SER795  GLU796  ALA797  LYS798  CYS799  TRP800  GLU811  SER814 

> <Gold.Protein.RotatedAtoms>
  151.2173  133.4522  159.2599 H   0  0  0  0  0  0  0  0  0  0  0  0  # atno 6907 bound_to 6896
  151.0918  134.9921  159.8417 H   0  0  0  0  0  0  0  0  0  0  0  0  # atno 6908 bound_to 6896
  152.5435  134.2106  159.8801 H   0  0  0  0  0  0  0  0  0  0  0  0  # atno 6909 bound_to 6896
  145.6414  140.9309  143.1033 H   0  0  0  0  0  0  0  0  0  0  0  0  # atno 7974 bound_to 7965
  156.0251  140.1269  157.0317 H   0  0  0  0  0  0  0  0  0  0  0  0  # atno 8008 bound_to 7997
  154.4327  140.1061  156.6089 H   0  0  0  0  0  0  0  0  0  0  0  0  # atno 8009 bound_to 7997
  155.5889  140.3469  155.4563 H   0  0  0  0  0  0  0  0  0  0  0  0  # atno 8010 bound_to 7997
  140.2804  143.3285  152.0447 H   0  0  0  0  0  0  0  0  0  0  0  0  # atno 10167 bound_to 10162
  156.1558  130.6567  150.9979 H   0  0  0  0  0  0  0  0  0  0  0  0  # atno 10718 bound_to 10713
  154.4013  135.6030  153.5899 H   0  0  0  0  0  0  0  0  0  0  0  0  # atno 10763 bound_to 10752
  152.9788  135.5907  154.4181 H   0  0  0  0  0  0  0  0  0  0  0  0  # atno 10764 bound_to 10752
  154.3980  135.2842  155.2092 H   0  0  0  0  0  0  0  0  0  0  0  0  # atno 10765 bound_to 10752
  140.0457  134.9282  157.0924 H   0  0  0  0  0  0  0  0  0  0  0  0  # atno 11005 bound_to 11000
  144.7156  139.8210  143.7400 LP  0  0  0  0  0  0  0  0  0  0  0  0  # atno 17320 bound_to 7965
  146.1277  139.4306  143.0188 LP  0  0  0  0  0  0  0  0  0  0  0  0  # atno 17321 bound_to 7965
  139.4964  144.6595  151.6496 LP  0  0  0  0  0  0  0  0  0  0  0  0  # atno 17342 bound_to 10162
  140.5816  143.9936  150.6272 LP  0  0  0  0  0  0  0  0  0  0  0  0  # atno 17343 bound_to 10162
  157.6693  131.0865  150.7651 LP  0  0  0  0  0  0  0  0  0  0  0  0  # atno 17370 bound_to 10713
  156.7716  130.4830  149.5417 LP  0  0  0  0  0  0  0  0  0  0  0  0  # atno 17371 bound_to 10713
  140.3998  134.2095  155.7164 LP  0  0  0  0  0  0  0  0  0  0  0  0  # atno 17394 bound_to 11000
  141.1905  133.8215  157.0914 LP  0  0  0  0  0  0  0  0  0  0  0  0  # atno 17395 bound_to 11000

$$$$
