AV-unprocessed.smi:3308|AV-procd|sdf|12710|dock5
  -GOLD-   2272019 43D 1   1.00000     0.00000
 Structure written by MMmdl.
 41 42  0  0  0  0  0  0  0  0  2 V2000
  149.6570  139.7642  154.2789 C   0  0  0  0  0  0  0  0  0  0  0  0
  148.8503  141.0538  154.4955 C   0  0  2  0  0  0  0  0  0  0  0  0
  149.2050  141.6587  155.8000 N   0  3  0  0  0  0  0  0  0  0  0  0
  150.6501  141.8960  156.0065 C   0  0  0  0  0  0  0  0  0  0  0  0
  151.1416  141.3604  157.3583 C   0  0  0  0  0  0  0  0  0  0  0  0
  151.1158  140.1487  157.5802 O   0  0  0  0  0  0  0  0  0  0  0  0
  151.5863  142.2487  158.2705 N   0  0  0  0  0  0  0  0  0  0  0  0
  152.0935  141.8705  159.5881 C   0  0  0  0  0  0  0  0  0  0  0  0
  152.7372  143.1331  160.1613 C   0  0  0  0  0  0  0  0  0  0  0  0
  152.0128  144.2732  159.4592 C   0  0  0  0  0  0  0  0  0  0  0  0
  151.6420  143.6994  158.0910 C   0  0  0  0  0  0  0  0  0  0  0  0
  147.3197  140.8381  154.3628 C   0  0  1  0  0  0  0  0  0  0  0  0
  146.4997  142.1452  154.3124 C   0  0  0  0  0  0  0  0  0  0  0  0
  147.0045  139.9551  153.2442 N   0  0  0  0  0  0  0  0  0  0  0  0
  147.1480  140.2123  151.8961 C   0  0  0  0  0  0  0  0  0  0  0  0
  146.6826  139.1224  151.2179 C   0  0  0  0  0  0  0  0  0  0  0  0
  146.2558  138.2397  152.2482 C   0  0  0  0  0  0  0  0  0  0  0  0
  146.4395  138.7437  153.4574 N   0  0  0  0  0  0  0  0  0  0  0  0
  149.4030  139.2964  153.3273 H   0  0  0  0  0  0  0  0  0  0  0  0
  149.4783  139.0345  155.0687 H   0  0  0  0  0  0  0  0  0  0  0  0
  150.7272  139.9731  154.2641 H   0  0  0  0  0  0  0  0  0  0  0  0
  149.1540  141.7382  153.7010 H   0  0  0  0  0  0  0  0  0  0  0  0
  148.7249  142.5446  155.8769 H   0  0  0  0  0  0  0  0  0  0  0  0
  151.2037  141.4189  155.1970 H   0  0  0  0  0  0  0  0  0  0  0  0
  150.8515  142.9667  155.9604 H   0  0  0  0  0  0  0  0  0  0  0  0
  151.2574  141.5496  160.2114 H   0  0  0  0  0  0  0  0  0  0  0  0
  152.8110  141.0501  159.5344 H   0  0  0  0  0  0  0  0  0  0  0  0
  152.6636  143.1901  161.2476 H   0  0  0  0  0  0  0  0  0  0  0  0
  153.7952  143.1563  159.8967 H   0  0  0  0  0  0  0  0  0  0  0  0
  151.1047  144.5216  160.0103 H   0  0  0  0  0  0  0  0  0  0  0  0
  152.6174  145.1777  159.3880 H   0  0  0  0  0  0  0  0  0  0  0  0
  152.4121  143.9397  157.3568 H   0  0  0  0  0  0  0  0  0  0  0  0
  150.6944  144.1106  157.7403 H   0  0  0  0  0  0  0  0  0  0  0  0
  146.9937  140.3077  155.2590 H   0  0  0  0  0  0  0  0  0  0  0  0
  146.6113  142.7232  155.2294 H   0  0  0  0  0  0  0  0  0  0  0  0
  145.4364  141.9309  154.1986 H   0  0  0  0  0  0  0  0  0  0  0  0
  146.7967  142.7847  153.4806 H   0  0  0  0  0  0  0  0  0  0  0  0
  147.5652  141.1404  151.5339 H   0  0  0  0  0  0  0  0  0  0  0  0
  146.6492  138.9787  150.1481 H   0  0  0  0  0  0  0  0  0  0  0  0
  145.8161  137.2579  152.1541 H   0  0  0  0  0  0  0  0  0  0  0  0
  148.8766  141.0547  156.5398 H   0  0  0  0  0  0  0  0  0  0  0  0
  1  2  1  0  0  0  0
  1 19  1  0  0  0  0
  1 20  1  0  0  0  0
  1 21  1  0  0  0  0
  2  3  1  0  0  0  0
  2 12  1  0  0  0  0
  2 22  1  0  0  0  0
  3  4  1  0  0  0  0
  3 23  1  0  0  0  0
  3 41  1  0  0  0  0
  4  5  1  0  0  0  0
  4 24  1  0  0  0  0
  4 25  1  0  0  0  0
  5  6  2  0  0  0  0
  5  7  1  0  0  0  0
  7 11  1  0  0  0  0
  7  8  1  0  0  0  0
  8  9  1  0  0  0  0
  8 26  1  0  0  0  0
  8 27  1  0  0  0  0
  9 10  1  0  0  0  0
  9 28  1  0  0  0  0
  9 29  1  0  0  0  0
 10 11  1  0  0  0  0
 10 30  1  0  0  0  0
 10 31  1  0  0  0  0
 11 32  1  0  0  0  0
 11 33  1  0  0  0  0
 12 13  1  0  0  0  0
 12 14  1  0  0  0  0
 12 34  1  0  0  0  0
 13 35  1  0  0  0  0
 13 36  1  0  0  0  0
 13 37  1  0  0  0  0
 14 18  1  0  0  0  0
 14 15  1  0  0  0  0
 15 16  2  0  0  0  0
 15 38  1  0  0  0  0
 16 17  1  0  0  0  0
 16 39  1  0  0  0  0
 17 18  2  0  0  0  0
 17 40  1  0  0  0  0
M  CHG  1   3   1
M  END
> <s_m_source_file>
AV-unprocessed.smi

> <i_m_source_file_index>
3308

> <i_lp_mmshare_version>
43012

> <i_f3d_flags>
0

> <s_epik_input>
bjFbY0hdW2NIXVtjSF1uMVtDQEBIXShbQ0gzXSlbQ0BIXShbQ0gzXSlbTkhdW0NIMl1DKD1PKU4yW0NIMl1bQ0gyXVtDSDJdW0NIMl0y

> <s_epik_cmdline>
J2VwaWtfcHl0aG9uJywgJy1waCcsICc3LjAnLCAnLXRuJywgJzgnLCAnLW1hJywgJzIwMCcsICctbWV0YWxfYmluZGluZycsICctaW1hZScsICc8aW5maWxlLm1hZT4nLCAnLW9tYWUnLCAnPG91dGZpbGUubWFlPic=

> <r_lp_tautomer_probability>
1

> <r_epik_Ionization_Penalty>
0.141739

> <r_epik_Ionization_Penalty_Charging>
0.141731

> <r_epik_Ionization_Penalty_Neutral>
8.82171e-06

> <r_epik_State_Penalty>
0.131043

> <r_epik_Charging_Adjusted_Penalty>
0.272773

> <i_epik_Tot_Q>
1

> <i_epik_Tot_abs_Q>
1

> <r_epik_Metal_State_Penalty>
0.131385

> <b_epik_Metal_Only>
0

> <s_lp_Force_Field>
OPLS_2005

> <r_lp_Energy>
34.1001

> <b_lp_Chiralities_Consistent>
1

> <s_lp_Variant>
AV-unprocessed.smi:3308-3

> <Gold.Version>
5.8.1

> <Gold.Id.Protein>
6NUR|6NUR_protein|mol2

> <Gold.PLP.Fitness>
49.7429

> <Gold.PLP.PLP>
-43.1282

> <Gold.PLP.part.hbond>
-1.0000

> <Gold.PLP.part.metal>
0.0000

> <Gold.PLP.part.buried>
-1.2001

> <Gold.PLP.part.nonpolar>
-42.9932

> <Gold.PLP.part.repulsive>
0.2892

> <Gold.PLP.ligand.clash>
0.0000

> <Gold.PLP.ligand.torsion>
0.6049

> <Gold.PLP.Chemscore.Hbond>
2.0000

> <Gold.PLP.Chemscore.CHOScore>
0.5511

> <Gold.PLP.Chemscore.Metal>
0.0000

> <Gold.Chemscore.Hbonds>
donor molecule, donor type, donor heavy atom, donor atom, acceptor molecule, acceptor atom, score
      L1  H     3    23       P1  8028  1.15
      L1  C    15    38       P1  7957  0.20

> <Gold.PLP.Chemscore.Internal.Correction>
0.1712

> <Gold.Rescore>
     Score         DG    S(hbond)    S(metal)    S(lipo)     H(rot)  DE(clash)    DE(int)     intcor
     15.43     -17.47       0.99        0.00     113.17       1.78       1.55       0.49       ----

> <Gold.Chemscore.Fitness>
15.4324

> <Gold.Chemscore.DG>
-17.4741

> <Gold.Chemscore.ZeroCoef>
-5.4800

> <Gold.Chemscore.Hbond>
0.9938

> <Gold.Chemscore.Metal>
0.0000

> <Gold.Chemscore.Lipo>
113.1703

> <Gold.Chemscore.Internal_Hbond>
0.0000

> <Gold.Chemscore.DEClash>
1.5523

> <Gold.Chemscore.DEInternal>
0.4895

> <Gold.Chemscore.Rot>
1.7836

> <Gold.Chemscore.Internal.Correction>
   9.000000E+99

> <Gold.Chemscore.Hbonds>
donor molecule, donor type, donor heavy atom, donor atom, acceptor molecule, acceptor atom, score
      L1  H     3    23       P1  8028  0.54

> <Gold.Chemscore.Hbond.Weighted>
-3.3192

> <Gold.Chemscore.Metal.Weighted>
-0.0000

> <Gold.Chemscore.Lipo.Weighted>
-13.2409

> <Gold.Chemscore.Internal_Hbond.Weighted>
0.0000

> <Gold.Chemscore.DEClash.Weighted>
1.5523

> <Gold.Chemscore.DEInternal.Weighted>
0.4895

> <Gold.Chemscore.Rot.Weighted>
4.5660

> <Gold.Chemscore.Internal.Correction.Weighted>
   9.000000E+99

> <Gold.Protein.RotatedTorsions>
[ 6907 6896 6895 6894 ] final -108.62 input  -60.11 | X-H torsion
[ 7974 7965 7964 7962 ] final  174.09 input  175.53 | X-H torsion
[ 8008 7997 7996 7995 ] final -156.60 input   59.86 | X-H torsion
[ 10167 10162 10161 10158 ] final -148.03 input  -65.29 | X-H torsion
[ 10718 10713 10712 10709 ] final    1.69 input   66.30 | X-H torsion
[ 10763 10752 10751 10750 ] final  112.13 input  -60.55 | X-H torsion
[ 11005 11000 10999 10996 ] final  165.54 input  -57.11 | X-H torsion

> <Gold.Protein.ActiveResidues>
 VAL166  LYS551  ARG553  GLY616  TRP617  ASP618  TYR619  PRO620  LYS621  CYS622 
 ASP623  PHE694  ASN695  SER759  ASP760  ASP761  ALA762  ILE779  LEU786  VAL792 
 PHE793  MET794  SER795  GLU796  ALA797  LYS798  CYS799  TRP800  GLU811  SER814 

> <Gold.Protein.RotatedAtoms>
  150.7513  133.9650  159.3527 H   0  0  0  0  0  0  0  0  0  0  0  0  # atno 6907 bound_to 6896
  151.7579  135.0815  160.0350 H   0  0  0  0  0  0  0  0  0  0  0  0  # atno 6908 bound_to 6896
  152.3423  133.6044  159.5921 H   0  0  0  0  0  0  0  0  0  0  0  0  # atno 6909 bound_to 6896
  144.7229  139.9744  143.6437 H   0  0  0  0  0  0  0  0  0  0  0  0  # atno 7974 bound_to 7965
  155.7197  140.0788  157.2336 H   0  0  0  0  0  0  0  0  0  0  0  0  # atno 8008 bound_to 7997
  154.4047  140.1615  156.2442 H   0  0  0  0  0  0  0  0  0  0  0  0  # atno 8009 bound_to 7997
  155.9208  140.3398  155.6174 H   0  0  0  0  0  0  0  0  0  0  0  0  # atno 8010 bound_to 7997
  139.7568  143.8435  152.2599 H   0  0  0  0  0  0  0  0  0  0  0  0  # atno 10167 bound_to 10162
  156.8520  130.5557  149.5669 H   0  0  0  0  0  0  0  0  0  0  0  0  # atno 10718 bound_to 10713
  153.4733  135.3695  155.2403 H   0  0  0  0  0  0  0  0  0  0  0  0  # atno 10763 bound_to 10752
  154.8756  135.3937  154.3786 H   0  0  0  0  0  0  0  0  0  0  0  0  # atno 10764 bound_to 10752
  153.4378  135.7083  153.6254 H   0  0  0  0  0  0  0  0  0  0  0  0  # atno 10765 bound_to 10752
  140.2572  134.7931  157.3556 H   0  0  0  0  0  0  0  0  0  0  0  0  # atno 11005 bound_to 11000
  146.0537  139.3536  143.0624 LP  0  0  0  0  0  0  0  0  0  0  0  0  # atno 17320 bound_to 7965
  145.8182  140.9692  143.0913 LP  0  0  0  0  0  0  0  0  0  0  0  0  # atno 17321 bound_to 7965
  139.8430  144.7201  150.9307 LP  0  0  0  0  0  0  0  0  0  0  0  0  # atno 17342 bound_to 10162
  140.7803  143.3966  151.1219 LP  0  0  0  0  0  0  0  0  0  0  0  0  # atno 17343 bound_to 10162
  156.0823  130.5830  150.9585 LP  0  0  0  0  0  0  0  0  0  0  0  0  # atno 17370 bound_to 10713
  157.6298  131.0922  150.8463 LP  0  0  0  0  0  0  0  0  0  0  0  0  # atno 17371 bound_to 10713
  140.1500  134.4861  155.7968 LP  0  0  0  0  0  0  0  0  0  0  0  0  # atno 17394 bound_to 11000
  141.2195  133.6859  156.7362 LP  0  0  0  0  0  0  0  0  0  0  0  0  # atno 17395 bound_to 11000

$$$$
