AV-unprocessed.smi:1862|AV-procd|sdf|7549|dock7
  -GOLD-   22720 9263D 1   1.00000     0.00000
 Structure written by MMmdl.
 40 41  0  0  0  0  0  0  0  0  1 V2000
  144.6759  143.8698  161.8949 C   0  0  0  0  0  0  0  0  0  0  0  0
  146.0090  144.4909  161.4418 C   0  0  0  0  0  0  0  0  0  0  0  0
  146.1805  144.6803  159.9089 C   0  0  0  0  0  0  0  0  0  0  0  0
  145.7597  143.3894  159.1730 C   0  0  0  0  0  0  0  0  0  0  0  0
  145.2786  145.8273  159.4121 C   0  0  0  0  0  0  0  0  0  0  0  0
  147.5610  145.0357  159.5529 N   0  0  0  0  0  0  0  0  0  0  0  0
  148.6959  144.7491  160.2164 C   0  0  0  0  0  0  0  0  0  0  0  0
  148.7300  144.1214  161.2752 O   0  0  0  0  0  0  0  0  0  0  0  0
  149.9922  145.2671  159.5845 C   0  0  0  0  0  0  0  0  0  0  0  0
  150.8941  144.1307  159.1954 C   0  0  0  0  0  0  0  0  0  0  0  0
  152.1613  143.8853  159.6657 C   0  0  0  0  0  0  0  0  0  0  0  0
  152.8608  142.4608  158.9465 S   0  0  0  0  0  0  0  0  0  0  0  0
  151.3743  142.2403  158.0188 C   0  0  0  0  0  0  0  0  0  0  0  0
  151.1047  141.1952  157.0860 N   0  0  0  0  0  0  0  0  0  0  0  0
  149.9980  141.2803  156.1381 C   0  0  0  0  0  0  0  0  0  0  0  0
  150.0877  139.9760  155.3522 C   0  0  0  0  0  0  0  0  0  0  0  0
  151.2299  139.3340  155.9591 N   0  0  0  0  0  0  0  0  0  0  0  0
  151.7914  140.0444  156.9400 C   0  0  0  0  0  0  0  0  0  0  0  0
  152.7731  139.6743  157.5813 O   0  0  0  0  0  0  0  0  0  0  0  0
  150.4567  143.1811  158.2658 N   0  0  0  0  0  0  0  0  0  0  0  0
  144.6454  143.7862  162.9814 H   0  0  0  0  0  0  0  0  0  0  0  0
  144.5373  142.8679  161.4899 H   0  0  0  0  0  0  0  0  0  0  0  0
  143.8227  144.4773  161.5935 H   0  0  0  0  0  0  0  0  0  0  0  0
  146.1247  145.4501  161.9468 H   0  0  0  0  0  0  0  0  0  0  0  0
  146.8249  143.8728  161.8181 H   0  0  0  0  0  0  0  0  0  0  0  0
  144.7074  143.1632  159.3487 H   0  0  0  0  0  0  0  0  0  0  0  0
  146.3306  142.5218  159.5038 H   0  0  0  0  0  0  0  0  0  0  0  0
  145.8981  143.4819  158.0951 H   0  0  0  0  0  0  0  0  0  0  0  0
  144.2335  145.6499  159.6676 H   0  0  0  0  0  0  0  0  0  0  0  0
  145.3347  145.9342  158.3279 H   0  0  0  0  0  0  0  0  0  0  0  0
  145.5640  146.7873  159.8427 H   0  0  0  0  0  0  0  0  0  0  0  0
  147.6631  145.5633  158.6983 H   0  0  0  0  0  0  0  0  0  0  0  0
  149.7627  145.8794  158.7113 H   0  0  0  0  0  0  0  0  0  0  0  0
  150.4847  145.9259  160.3006 H   0  0  0  0  0  0  0  0  0  0  0  0
  152.7261  144.4584  160.3858 H   0  0  0  0  0  0  0  0  0  0  0  0
  149.0456  141.3645  156.6638 H   0  0  0  0  0  0  0  0  0  0  0  0
  150.1147  142.1470  155.4858 H   0  0  0  0  0  0  0  0  0  0  0  0
  149.1938  139.3629  155.4711 H   0  0  0  0  0  0  0  0  0  0  0  0
  150.2630  140.1484  154.2897 H   0  0  0  0  0  0  0  0  0  0  0  0
  151.5653  138.4303  155.6581 H   0  0  0  0  0  0  0  0  0  0  0  0
  1  2  1  0  0  0  0
  1 21  1  0  0  0  0
  1 22  1  0  0  0  0
  1 23  1  0  0  0  0
  2  3  1  0  0  0  0
  2 24  1  0  0  0  0
  2 25  1  0  0  0  0
  3  4  1  0  0  0  0
  3  5  1  0  0  0  0
  3  6  1  0  0  0  0
  4 26  1  0  0  0  0
  4 27  1  0  0  0  0
  4 28  1  0  0  0  0
  5 29  1  0  0  0  0
  5 30  1  0  0  0  0
  5 31  1  0  0  0  0
  6  7  1  0  0  0  0
  6 32  1  0  0  0  0
  7  8  2  0  0  0  0
  7  9  1  0  0  0  0
  9 10  1  0  0  0  0
  9 33  1  0  0  0  0
  9 34  1  0  0  0  0
 10 20  1  0  0  0  0
 10 11  2  0  0  0  0
 11 12  1  0  0  0  0
 11 35  1  0  0  0  0
 12 13  1  0  0  0  0
 13 14  1  0  0  0  0
 13 20  2  0  0  0  0
 14 18  1  0  0  0  0
 14 15  1  0  0  0  0
 15 16  1  0  0  0  0
 15 36  1  0  0  0  0
 15 37  1  0  0  0  0
 16 17  1  0  0  0  0
 16 38  1  0  0  0  0
 16 39  1  0  0  0  0
 17 18  1  0  0  0  0
 17 40  1  0  0  0  0
 18 19  2  0  0  0  0
M  END
> <s_m_source_file>
AV-unprocessed.smi

> <i_m_source_file_index>
1862

> <i_lp_mmshare_version>
43012

> <i_f3d_flags>
0

> <s_epik_input>
W0NIM11bQ0gyXUMoW0NIM10pKFtDSDNdKVtOSF1DKD1PKVtDSDJdYzFbY0hdc2MobjEpTjJbQ0gyXVtDSDJdW05IXUMyPU8=

> <s_epik_cmdline>
J2VwaWtfcHl0aG9uJywgJy1waCcsICc3LjAnLCAnLXRuJywgJzgnLCAnLW1hJywgJzIwMCcsICctbWV0YWxfYmluZGluZycsICctaW1hZScsICc8aW5maWxlLm1hZT4nLCAnLW9tYWUnLCAnPG91dGZpbGUubWFlPic=

> <r_lp_tautomer_probability>
1

> <r_epik_Ionization_Penalty>
0.000124031

> <r_epik_Ionization_Penalty_Charging>
0

> <r_epik_Ionization_Penalty_Neutral>
0.000124031

> <r_epik_State_Penalty>
-0

> <r_epik_Charging_Adjusted_Penalty>
0

> <i_epik_Tot_Q>
0

> <i_epik_Tot_abs_Q>
0

> <r_epik_Metal_State_Penalty>
-0

> <b_epik_Metal_Only>
0

> <s_lp_Force_Field>
OPLS_2005

> <r_lp_Energy>
34.1106

> <b_lp_Chiralities_Consistent>
1

> <s_lp_Variant>
AV-unprocessed.smi:1862-1

> <Gold.Version>
5.8.1

> <Gold.Id.Protein>
6NUR|6NUR_protein|mol2

> <Gold.PLP.Fitness>
46.1609

> <Gold.PLP.PLP>
-39.5505

> <Gold.PLP.part.hbond>
-2.7280

> <Gold.PLP.part.metal>
0.0000

> <Gold.PLP.part.buried>
-5.7574

> <Gold.PLP.part.nonpolar>
-31.4761

> <Gold.PLP.part.repulsive>
0.5931

> <Gold.PLP.ligand.clash>
0.0000

> <Gold.PLP.ligand.torsion>
0.7571

> <Gold.PLP.Chemscore.Hbond>
2.7040

> <Gold.PLP.Chemscore.CHOScore>
0.0000

> <Gold.PLP.Chemscore.Metal>
0.0000

> <Gold.Chemscore.Hbonds>
donor molecule, donor type, donor heavy atom, donor atom, acceptor molecule, acceptor atom, score
      L1  H     6    32       P1  8029  0.88
      P1  H  6933  6944       L1     8  0.74
      P1  H  7997  8009       L1    19  0.98

> <Gold.PLP.Chemscore.Internal.Correction>
0.0127

> <Gold.Rescore>
     Score         DG    S(hbond)    S(metal)    S(lipo)     H(rot)  DE(clash)    DE(int)     intcor
     16.83     -18.82       2.89        0.00      69.28       1.72       0.08       1.91       ----

> <Gold.Chemscore.Fitness>
16.8298

> <Gold.Chemscore.DG>
-18.8184

> <Gold.Chemscore.ZeroCoef>
-5.4800

> <Gold.Chemscore.Hbond>
2.8871

> <Gold.Chemscore.Metal>
0.0000

> <Gold.Chemscore.Lipo>
69.2805

> <Gold.Chemscore.Internal_Hbond>
0.0000

> <Gold.Chemscore.DEClash>
0.0825

> <Gold.Chemscore.DEInternal>
1.9061

> <Gold.Chemscore.Rot>
1.7228

> <Gold.Chemscore.Internal.Correction>
   9.000000E+99

> <Gold.Chemscore.Hbonds>
donor molecule, donor type, donor heavy atom, donor atom, acceptor molecule, acceptor atom, score
      L1  H     6    32       P1  8029  0.85
      P1  H  6933  6944       L1     8  0.74
      P1  H  7997  8009       L1    19  0.56

> <Gold.Chemscore.Hbond.Weighted>
-9.6429

> <Gold.Chemscore.Metal.Weighted>
-0.0000

> <Gold.Chemscore.Lipo.Weighted>
-8.1058

> <Gold.Chemscore.Internal_Hbond.Weighted>
0.0000

> <Gold.Chemscore.DEClash.Weighted>
0.0825

> <Gold.Chemscore.DEInternal.Weighted>
1.9061

> <Gold.Chemscore.Rot.Weighted>
4.4103

> <Gold.Chemscore.Internal.Correction.Weighted>
   9.000000E+99

> <Gold.Protein.RotatedTorsions>
[ 6907 6896 6895 6894 ] final -138.19 input  -60.11 | X-H torsion
[ 7974 7965 7964 7962 ] final    5.64 input  175.53 | X-H torsion
[ 8008 7997 7996 7995 ] final -170.21 input   59.86 | X-H torsion
[ 10167 10162 10161 10158 ] final -157.45 input  -65.29 | X-H torsion
[ 10718 10713 10712 10709 ] final -160.69 input   66.30 | X-H torsion
[ 10763 10752 10751 10750 ] final   39.33 input  -60.55 | X-H torsion
[ 11005 11000 10999 10996 ] final -115.08 input  -57.11 | X-H torsion

> <Gold.Protein.ActiveResidues>
 VAL166  LYS551  ARG553  GLY616  TRP617  ASP618  TYR619  PRO620  LYS621  CYS622 
 ASP623  PHE694  ASN695  SER759  ASP760  ASP761  ALA762  ILE779  LEU786  VAL792 
 PHE793  MET794  SER795  GLU796  ALA797  LYS798  CYS799  TRP800  GLU811  SER814 

> <Gold.Protein.RotatedAtoms>
  151.0319  133.5783  159.2659 H   0  0  0  0  0  0  0  0  0  0  0  0  # atno 6907 bound_to 6896
  151.2861  135.0727  159.9197 H   0  0  0  0  0  0  0  0  0  0  0  0  # atno 6908 bound_to 6896
  152.5346  134.0025  159.7955 H   0  0  0  0  0  0  0  0  0  0  0  0  # atno 6909 bound_to 6896
  146.2439  140.0353  142.8386 H   0  0  0  0  0  0  0  0  0  0  0  0  # atno 7974 bound_to 7965
  155.9153  140.1064  157.1248 H   0  0  0  0  0  0  0  0  0  0  0  0  # atno 8008 bound_to 7997
  154.4045  140.1266  156.4675 H   0  0  0  0  0  0  0  0  0  0  0  0  # atno 8009 bound_to 7997
  155.7261  140.3469  155.5040 H   0  0  0  0  0  0  0  0  0  0  0  0  # atno 8010 bound_to 7997
  139.6770  143.9647  152.2316 H   0  0  0  0  0  0  0  0  0  0  0  0  # atno 10167 bound_to 10162
  156.5857  130.8749  151.2876 H   0  0  0  0  0  0  0  0  0  0  0  0  # atno 10718 bound_to 10713
  152.9971  135.6223  154.2449 H   0  0  0  0  0  0  0  0  0  0  0  0  # atno 10763 bound_to 10752
  154.2188  135.2797  155.2934 H   0  0  0  0  0  0  0  0  0  0  0  0  # atno 10764 bound_to 10752
  154.5545  135.5723  153.7010 H   0  0  0  0  0  0  0  0  0  0  0  0  # atno 10765 bound_to 10752
  141.0511  133.9686  157.2835 H   0  0  0  0  0  0  0  0  0  0  0  0  # atno 11005 bound_to 11000
  145.1118  140.9409  143.4652 LP  0  0  0  0  0  0  0  0  0  0  0  0  # atno 17320 bound_to 7965
  145.0569  139.3137  143.5900 LP  0  0  0  0  0  0  0  0  0  0  0  0  # atno 17321 bound_to 7965
  139.9426  144.6672  150.8251 LP  0  0  0  0  0  0  0  0  0  0  0  0  # atno 17342 bound_to 10162
  140.7639  143.3234  151.2570 LP  0  0  0  0  0  0  0  0  0  0  0  0  # atno 17343 bound_to 10162
  157.7316  130.9702  150.1886 LP  0  0  0  0  0  0  0  0  0  0  0  0  # atno 17370 bound_to 10713
  156.2593  130.3709  149.8148 LP  0  0  0  0  0  0  0  0  0  0  0  0  # atno 17371 bound_to 10713
  139.9351  135.0197  156.8529 LP  0  0  0  0  0  0  0  0  0  0  0  0  # atno 17394 bound_to 11000
  140.6054  134.0132  155.7554 LP  0  0  0  0  0  0  0  0  0  0  0  0  # atno 17395 bound_to 11000

$$$$
