AV-unprocessed.smi:1213|AV-procd|sdf|5088|dock3
  -GOLD-   22720 4143D 1   1.00000     0.00000
 Structure written by MMmdl.
 36 37  0  0  0  0  0  0  0  0  3 V2000
  148.9234  142.5593  154.4056 N   0  5  0  0  0  0  0  0  0  0  0  0
  148.0759  141.6079  154.8412 C   0  0  0  0  0  0  0  0  0  0  0  0
  148.3119  140.6830  155.6158 O   0  0  0  0  0  0  0  0  0  0  0  0
  146.6617  141.7805  154.2776 C   0  0  0  0  0  0  0  0  0  0  0  0
  146.3244  140.6437  153.3854 N   0  3  2  0  0  0  0  0  0  0  0  0
  146.4357  139.3330  154.0744 C   0  0  0  0  0  0  0  0  0  0  0  0
  145.9414  138.1877  153.1747 C   0  0  0  0  0  0  0  0  0  0  0  0
  146.7042  138.1604  151.8406 C   0  0  1  0  0  0  0  0  0  0  0  0
  146.1578  137.1195  150.9747 N   0  0  0  0  0  0  0  0  0  0  0  0
  145.8262  135.8825  151.3731 C   0  0  0  0  0  0  0  0  0  0  0  0
  145.9410  135.4918  152.5352 O   0  0  0  0  0  0  0  0  0  0  0  0
  145.3669  135.1458  150.3464 N   0  0  0  0  0  0  0  0  0  0  0  0
  144.9300  133.7950  150.3633 C   0  0  0  0  0  0  0  0  0  0  0  0
  144.0914  133.2620  149.4670 N   0  0  0  0  0  0  0  0  0  0  0  0
  143.8341  131.9135  149.7267 C   0  0  0  0  0  0  0  0  0  0  0  0
  144.4891  131.4328  150.8331 C   0  0  0  0  0  0  0  0  0  0  0  0
  145.4635  132.6610  151.5956 S   0  0  0  0  0  0  0  0  0  0  0  0
  146.6072  139.5401  151.1648 C   0  0  0  0  0  0  0  0  0  0  0  0
  147.0863  140.6557  152.1074 C   0  0  0  0  0  0  0  0  0  0  0  0
  148.7344  143.5384  154.6526 H   0  0  0  0  0  0  0  0  0  0  0  0
  145.9052  141.8930  155.0575 H   0  0  0  0  0  0  0  0  0  0  0  0
  146.6612  142.7127  153.7109 H   0  0  0  0  0  0  0  0  0  0  0  0
  147.4729  139.1625  154.3678 H   0  0  0  0  0  0  0  0  0  0  0  0
  145.8444  139.3469  154.9908 H   0  0  0  0  0  0  0  0  0  0  0  0
  146.0598  137.2356  153.6933 H   0  0  0  0  0  0  0  0  0  0  0  0
  144.8727  138.3093  152.9905 H   0  0  0  0  0  0  0  0  0  0  0  0
  147.7525  137.9386  152.0510 H   0  0  0  0  0  0  0  0  0  0  0  0
  146.0308  137.3558  150.0014 H   0  0  0  0  0  0  0  0  0  0  0  0
  145.3324  135.5997  149.4456 H   0  0  0  0  0  0  0  0  0  0  0  0
  143.1694  131.3704  149.0713 H   0  0  0  0  0  0  0  0  0  0  0  0
  144.4573  130.4346  151.2437 H   0  0  0  0  0  0  0  0  0  0  0  0
  147.2011  139.5558  150.2502 H   0  0  0  0  0  0  0  0  0  0  0  0
  145.5761  139.7373  150.8669 H   0  0  0  0  0  0  0  0  0  0  0  0
  146.9693  141.6167  151.6060 H   0  0  0  0  0  0  0  0  0  0  0  0
  148.1510  140.5383  152.3159 H   0  0  0  0  0  0  0  0  0  0  0  0
  145.3493  140.7606  153.1488 H   0  0  0  0  0  0  0  0  0  0  0  0
  1  2  1  0  0  0  0
  1 20  1  0  0  0  0
  2  3  2  0  0  0  0
  2  4  1  0  0  0  0
  4  5  1  0  0  0  0
  4 21  1  0  0  0  0
  4 22  1  0  0  0  0
  5 19  1  0  0  0  0
  5  6  1  0  0  0  0
  5 36  1  0  0  0  0
  6  7  1  0  0  0  0
  6 23  1  0  0  0  0
  6 24  1  0  0  0  0
  7  8  1  0  0  0  0
  7 25  1  0  0  0  0
  7 26  1  0  0  0  0
  8  9  1  0  0  0  0
  8 18  1  0  0  0  0
  8 27  1  0  0  0  0
  9 10  1  0  0  0  0
  9 28  1  0  0  0  0
 10 11  2  0  0  0  0
 10 12  1  0  0  0  0
 12 13  1  0  0  0  0
 12 29  1  0  0  0  0
 13 17  1  0  0  0  0
 13 14  2  0  0  0  0
 14 15  1  0  0  0  0
 15 16  2  0  0  0  0
 15 30  1  0  0  0  0
 16 17  1  0  0  0  0
 16 31  1  0  0  0  0
 18 19  1  0  0  0  0
 18 32  1  0  0  0  0
 18 33  1  0  0  0  0
 19 34  1  0  0  0  0
 19 35  1  0  0  0  0
M  CHG  1   1  -1
M  CHG  1   5   1
M  END
> <s_m_source_file>
AV-unprocessed.smi

> <i_m_source_file_index>
1213

> <i_lp_mmshare_version>
43012

> <i_f3d_flags>
0

> <s_epik_input>
W05IMl1DKD1PKVtDSDJdTjFbQ0gyXVtDSDJdW0NIXShbQ0gyXVtDSDJdMSlbTkhdQyg9TylbTkhdYzJuW2NIXVtjSF1zMg==

> <s_epik_cmdline>
J2VwaWtfcHl0aG9uJywgJy1waCcsICc3LjAnLCAnLXRuJywgJzgnLCAnLW1hJywgJzIwMCcsICctbWV0YWxfYmluZGluZycsICctaW1hZScsICc8aW5maWxlLm1hZT4nLCAnLW9tYWUnLCAnPG91dGZpbGUubWFlPic=

> <r_lp_tautomer_probability>
0.999

> <r_epik_Ionization_Penalty>
5.73166

> <r_epik_Ionization_Penalty_Charging>
5.73152

> <r_epik_Ionization_Penalty_Neutral>
0.000139308

> <r_epik_State_Penalty>
6.57436

> <r_epik_Charging_Adjusted_Penalty>
12.3059

> <i_epik_Tot_Q>
0

> <i_epik_Tot_abs_Q>
2

> <r_epik_Metal_State_Penalty>
2.57084

> <b_epik_Metal_Only>
1

> <s_lp_Force_Field>
OPLS_2005

> <r_lp_Energy>
5.64095

> <b_lp_Chiralities_Consistent>
1

> <s_lp_Variant>
AV-unprocessed.smi:1213-5

> <Gold.Version>
5.8.1

> <Gold.Id.Protein>
6NUR|6NUR_protein|mol2

> <Gold.PLP.Fitness>
41.2203

> <Gold.PLP.PLP>
-28.7043

> <Gold.PLP.part.hbond>
-5.8344

> <Gold.PLP.part.metal>
0.0000

> <Gold.PLP.part.buried>
4.2491

> <Gold.PLP.part.nonpolar>
-28.8820

> <Gold.PLP.part.repulsive>
0.6152

> <Gold.PLP.ligand.clash>
0.0000

> <Gold.PLP.ligand.torsion>
0.3928

> <Gold.PLP.Chemscore.Hbond>
3.4290

> <Gold.PLP.Chemscore.CHOScore>
0.9960

> <Gold.PLP.Chemscore.Metal>
0.0000

> <Gold.Chemscore.Hbonds>
donor molecule, donor type, donor heavy atom, donor atom, acceptor molecule, acceptor atom, score
      L1  H     1    20       P1  8028  0.99
      L1  H     5    36       P1 10175  2.00
      L1  H    12    29       P1  7921  0.41
      P1  H  8011  8017       L1     1  0.05
      L1  C    15    30       P1 10952  0.80

> <Gold.PLP.Chemscore.Internal.Correction>
0.0268

> <Gold.Rescore>
     Score         DG    S(hbond)    S(metal)    S(lipo)     H(rot)  DE(clash)    DE(int)     intcor
      8.15     -16.78       2.26        0.00      76.72       2.04       4.53       4.10       ----

> <Gold.Chemscore.Fitness>
8.1534

> <Gold.Chemscore.DG>
-16.7817

> <Gold.Chemscore.ZeroCoef>
-5.4800

> <Gold.Chemscore.Hbond>
2.2560

> <Gold.Chemscore.Metal>
0.0000

> <Gold.Chemscore.Lipo>
76.7210

> <Gold.Chemscore.Internal_Hbond>
0.0000

> <Gold.Chemscore.DEClash>
4.5323

> <Gold.Chemscore.DEInternal>
4.0960

> <Gold.Chemscore.Rot>
2.0350

> <Gold.Chemscore.Internal.Correction>
   9.000000E+99

> <Gold.Chemscore.Hbonds>
donor molecule, donor type, donor heavy atom, donor atom, acceptor molecule, acceptor atom, score
      L1  H     1    20       P1  8028  0.88
      L1  H     5    36       P1 10175  0.70
      L1  H    12    29       P1  7921  0.40
      P1  H  8011  8017       L1     1  0.04

> <Gold.Chemscore.Hbond.Weighted>
-7.5349

> <Gold.Chemscore.Metal.Weighted>
-0.0000

> <Gold.Chemscore.Lipo.Weighted>
-8.9764

> <Gold.Chemscore.Internal_Hbond.Weighted>
0.0000

> <Gold.Chemscore.DEClash.Weighted>
4.5323

> <Gold.Chemscore.DEInternal.Weighted>
4.0960

> <Gold.Chemscore.Rot.Weighted>
5.2096

> <Gold.Chemscore.Internal.Correction.Weighted>
   9.000000E+99

> <Gold.Protein.RotatedTorsions>
[ 6907 6896 6895 6894 ] final  -80.44 input  -60.11 | X-H torsion
[ 7974 7965 7964 7962 ] final  -17.78 input  175.53 | X-H torsion
[ 8008 7997 7996 7995 ] final  122.98 input   59.86 | X-H torsion
[ 10167 10162 10161 10158 ] final  -57.80 input  -65.29 | X-H torsion
[ 10718 10713 10712 10709 ] final -110.43 input   66.30 | X-H torsion
[ 10763 10752 10751 10750 ] final -154.20 input  -60.55 | X-H torsion
[ 11005 11000 10999 10996 ] final -157.36 input  -57.11 | X-H torsion

> <Gold.Protein.ActiveResidues>
 VAL166  LYS551  ARG553  GLY616  TRP617  ASP618  TYR619  PRO620  LYS621  CYS622 
 ASP623  PHE694  ASN695  SER759  ASP760  ASP761  ALA762  ILE779  LEU786  VAL792 
 PHE793  MET794  SER795  GLU796  ALA797  LYS798  CYS799  TRP800  GLU811  SER814 

> <Gold.Protein.RotatedAtoms>
  150.6929  134.3970  159.5101 H   0  0  0  0  0  0  0  0  0  0  0  0  # atno 6907 bound_to 6896
  152.1749  134.8800  160.0540 H   0  0  0  0  0  0  0  0  0  0  0  0  # atno 6908 bound_to 6896
  151.9812  133.3723  159.4145 H   0  0  0  0  0  0  0  0  0  0  0  0  # atno 6909 bound_to 6896
  146.1924  140.3828  142.8453 H   0  0  0  0  0  0  0  0  0  0  0  0  # atno 7974 bound_to 7965
  156.2748  140.2773  156.1554 H   0  0  0  0  0  0  0  0  0  0  0  0  # atno 8008 bound_to 7997
  155.0809  140.0388  157.2656 H   0  0  0  0  0  0  0  0  0  0  0  0  # atno 8009 bound_to 7997
  154.6965  140.2640  155.6767 H   0  0  0  0  0  0  0  0  0  0  0  0  # atno 8010 bound_to 7997
  140.6236  143.2429  151.5419 H   0  0  0  0  0  0  0  0  0  0  0  0  # atno 10167 bound_to 10162
  156.0590  130.5815  150.8236 H   0  0  0  0  0  0  0  0  0  0  0  0  # atno 10718 bound_to 10713
  154.7875  135.3195  154.7853 H   0  0  0  0  0  0  0  0  0  0  0  0  # atno 10763 bound_to 10752
  153.8550  135.6858  153.4793 H   0  0  0  0  0  0  0  0  0  0  0  0  # atno 10764 bound_to 10752
  153.1532  135.4691  154.9606 H   0  0  0  0  0  0  0  0  0  0  0  0  # atno 10765 bound_to 10752
  140.6654  134.4304  157.5233 H   0  0  0  0  0  0  0  0  0  0  0  0  # atno 11005 bound_to 11000
  144.8513  140.7005  143.6166 LP  0  0  0  0  0  0  0  0  0  0  0  0  # atno 17320 bound_to 7965
  145.3750  139.1650  143.4311 LP  0  0  0  0  0  0  0  0  0  0  0  0  # atno 17321 bound_to 7965
  139.5460  144.2519  152.1443 LP  0  0  0  0  0  0  0  0  0  0  0  0  # atno 17342 bound_to 10162
  140.1745  144.4903  150.6561 LP  0  0  0  0  0  0  0  0  0  0  0  0  # atno 17343 bound_to 10162
  157.5585  131.0945  150.9594 LP  0  0  0  0  0  0  0  0  0  0  0  0  # atno 17370 bound_to 10713
  156.9837  130.5537  149.5298 LP  0  0  0  0  0  0  0  0  0  0  0  0  # atno 17371 bound_to 10713
  139.8999  134.8581  156.1941 LP  0  0  0  0  0  0  0  0  0  0  0  0  # atno 17394 bound_to 11000
  141.0433  133.6926  156.1637 LP  0  0  0  0  0  0  0  0  0  0  0  0  # atno 17395 bound_to 11000

$$$$
