AV-unprocessed.smi:66|AV-procd|sdf|623|dock1
  -GOLD-   2262016513D 1   1.00000     0.00000
 Structure written by MMmdl.
 28 30  0  0  0  0  0  0  0  0  2 V2000
  152.8899  136.6477  159.1774 O   0  0  0  0  0  0  0  0  0  0  0  0
  153.1341  137.6338  158.4484 C   0  0  0  0  0  0  0  0  0  0  0  0
  154.2112  138.2705  158.4292 O   0  5  0  0  0  0  0  0  0  0  0  0
  152.0104  138.0947  157.5081 C   0  0  2  0  0  0  0  0  0  0  0  0
  151.6166  137.0102  156.4803 C   0  0  0  0  0  0  0  0  0  0  0  0
  151.5765  137.7503  155.1432 C   0  0  2  0  0  0  0  0  0  0  0  0
  151.9002  136.9143  154.0525 O   0  0  0  0  0  0  0  0  0  0  0  0
  152.5968  138.8648  155.3452 C   0  0  0  0  0  0  0  0  0  0  0  0
  152.4158  139.2732  156.7352 N   0  0  0  0  0  0  0  0  0  0  0  0
  151.7829  140.4979  157.0500 C   0  0  0  0  0  0  0  0  0  0  0  0
  150.9387  141.0737  156.1596 N   0  0  0  0  0  0  0  0  0  0  0  0
  150.3548  142.2330  156.4901 C   0  0  0  0  0  0  0  0  0  0  0  0
  150.4789  142.9528  157.6156 N   0  0  0  0  0  0  0  0  0  0  0  0
  151.3130  142.4035  158.5081 C   0  0  0  0  0  0  0  0  0  0  0  0
  151.6356  142.9265  159.7531 N   0  0  0  0  0  0  0  0  0  0  0  0
  152.4869  142.0154  160.2221 C   0  0  0  0  0  0  0  0  0  0  0  0
  152.7457  140.9714  159.4186 N   0  0  0  0  0  0  0  0  0  0  0  0
  151.9935  141.1714  158.2726 C   0  0  0  0  0  0  0  0  0  0  0  0
  153.3612  140.1979  159.6351 H   0  0  0  0  0  0  0  0  0  0  0  0
  151.1272  138.3330  158.1031 H   0  0  0  0  0  0  0  0  0  0  0  0
  152.3587  136.2101  156.4430 H   0  0  0  0  0  0  0  0  0  0  0  0
  150.6574  136.5487  156.7162 H   0  0  0  0  0  0  0  0  0  0  0  0
  150.5867  138.1827  154.9897 H   0  0  0  0  0  0  0  0  0  0  0  0
  151.2664  137.0629  153.3671 H   0  0  0  0  0  0  0  0  0  0  0  0
  153.6121  138.4773  155.2466 H   0  0  0  0  0  0  0  0  0  0  0  0
  152.4931  139.6550  154.6018 H   0  0  0  0  0  0  0  0  0  0  0  0
  149.6904  142.6463  155.7458 H   0  0  0  0  0  0  0  0  0  0  0  0
  152.9439  142.1105  161.1961 H   0  0  0  0  0  0  0  0  0  0  0  0
  1  2  2  0  0  0  0
  2  3  1  0  0  0  0
  2  4  1  0  0  0  0
  4  9  1  0  0  0  0
  4  5  1  0  0  0  0
  4 20  1  0  0  0  0
  5  6  1  0  0  0  0
  5 21  1  0  0  0  0
  5 22  1  0  0  0  0
  6  7  1  0  0  0  0
  6  8  1  0  0  0  0
  6 23  1  0  0  0  0
  7 24  1  0  0  0  0
  8  9  1  0  0  0  0
  8 25  1  0  0  0  0
  8 26  1  0  0  0  0
  9 10  1  0  0  0  0
 10 18  1  0  0  0  0
 10 11  2  0  0  0  0
 11 12  1  0  0  0  0
 12 13  2  0  0  0  0
 12 27  1  0  0  0  0
 13 14  1  0  0  0  0
 14 18  2  0  0  0  0
 14 15  1  0  0  0  0
 15 16  2  0  0  0  0
 16 17  1  0  0  0  0
 16 28  1  0  0  0  0
 17 19  1  0  0  0  0
 17 18  1  0  0  0  0
M  CHG  1   3  -1
M  END
> <s_m_source_file>
AV-unprocessed.smi

> <i_m_source_file_index>
66

> <i_lp_mmshare_version>
43012

> <i_f3d_flags>
0

> <s_epik_input>
Tz1DKFtPSF0pW0NAQEhdMVtDSDJdW0NAQEhdKFtPSF0pW0NIMl1OMWMobltjSF1uMiljKGMyMylbbkhdW2NIXW4z

> <s_epik_cmdline>
J2VwaWtfcHl0aG9uJywgJy1waCcsICc3LjAnLCAnLXRuJywgJzgnLCAnLW1hJywgJzIwMCcsICctbWV0YWxfYmluZGluZycsICctaW1hZScsICc8aW5maWxlLm1hZT4nLCAnLW9tYWUnLCAnPG91dGZpbGUubWFlPic=

> <r_lp_tautomer_probability>
0.0419193

> <r_epik_Ionization_Penalty>
0.0157405

> <r_epik_Ionization_Penalty_Charging>
0.000248217

> <r_epik_Ionization_Penalty_Neutral>
0.0154923

> <r_epik_State_Penalty>
1.99742

> <r_epik_Charging_Adjusted_Penalty>
1.99767

> <i_epik_Tot_Q>
-1

> <i_epik_Tot_abs_Q>
1

> <r_epik_Metal_State_Penalty>
2.31035

> <b_epik_Metal_Only>
0

> <s_lp_Force_Field>
OPLS_2005

> <r_lp_Energy>
22.103

> <b_lp_Chiralities_Consistent>
1

> <s_lp_Variant>
AV-unprocessed.smi:66-7

> <Gold.Version>
5.8.1

> <Gold.Id.Protein>
6NUR|6NUR_protein|mol2

> <Gold.PLP.Fitness>
41.3706

> <Gold.PLP.PLP>
-25.5090

> <Gold.PLP.part.hbond>
-4.8111

> <Gold.PLP.part.metal>
0.0000

> <Gold.PLP.part.buried>
-5.4985

> <Gold.PLP.part.nonpolar>
-16.7523

> <Gold.PLP.part.repulsive>
0.2829

> <Gold.PLP.ligand.clash>
0.0000

> <Gold.PLP.ligand.torsion>
0.3983

> <Gold.PLP.Chemscore.Hbond>
4.4923

> <Gold.PLP.Chemscore.CHOScore>
0.9857

> <Gold.PLP.Chemscore.Metal>
0.0000

> <Gold.Chemscore.Hbonds>
donor molecule, donor type, donor heavy atom, donor atom, acceptor molecule, acceptor atom, score
      L1  H     7    24       P1  7949  0.34
      P1  H  6896  6909       L1     1  1.98
      P1  H  7997  8010       L1     3  1.14
      P1  H 10752 10763       L1     7  1.00
      L1  C    12    27       P1  8028  0.95

> <Gold.PLP.Chemscore.Internal.Correction>
0.2244

> <Gold.Rescore>
     Score         DG    S(hbond)    S(metal)    S(lipo)     H(rot)  DE(clash)    DE(int)     intcor
     11.20     -11.60       2.59        0.00      32.69       2.48       0.02       0.39       ----

> <Gold.Chemscore.Fitness>
11.1975

> <Gold.Chemscore.DG>
-11.6023

> <Gold.Chemscore.ZeroCoef>
-5.4800

> <Gold.Chemscore.Hbond>
2.5858

> <Gold.Chemscore.Metal>
0.0000

> <Gold.Chemscore.Lipo>
32.6901

> <Gold.Chemscore.Internal_Hbond>
0.0000

> <Gold.Chemscore.DEClash>
0.0153

> <Gold.Chemscore.DEInternal>
0.3895

> <Gold.Chemscore.Rot>
2.4762

> <Gold.Chemscore.Internal.Correction>
   9.000000E+99

> <Gold.Chemscore.Hbonds>
donor molecule, donor type, donor heavy atom, donor atom, acceptor molecule, acceptor atom, score
      L1  H     7    24       P1  7949  0.22
      P1  H  6896  6909       L1     1  0.89
      P1  H  7997  8010       L1     3  0.55
      P1  H 10752 10763       L1     7  0.97

> <Gold.Chemscore.Hbond.Weighted>
-8.6366

> <Gold.Chemscore.Metal.Weighted>
-0.0000

> <Gold.Chemscore.Lipo.Weighted>
-3.8247

> <Gold.Chemscore.Internal_Hbond.Weighted>
0.0000

> <Gold.Chemscore.DEClash.Weighted>
0.0153

> <Gold.Chemscore.DEInternal.Weighted>
0.3895

> <Gold.Chemscore.Rot.Weighted>
6.3391

> <Gold.Chemscore.Internal.Correction.Weighted>
   9.000000E+99

> <Gold.Protein.RotatedTorsions>
[ 6907 6896 6895 6894 ] final  146.45 input  -60.11 | X-H torsion
[ 7974 7965 7964 7962 ] final   37.49 input  175.53 | X-H torsion
[ 8008 7997 7996 7995 ] final    8.12 input   59.86 | X-H torsion
[ 10167 10162 10161 10158 ] final -158.46 input  -65.29 | X-H torsion
[ 10718 10713 10712 10709 ] final   35.37 input   66.30 | X-H torsion
[ 10763 10752 10751 10750 ] final   38.27 input  -60.55 | X-H torsion
[ 11005 11000 10999 10996 ] final -126.27 input  -57.11 | X-H torsion

> <Gold.Protein.ActiveResidues>
 VAL166  LYS551  ARG553  GLY616  TRP617  ASP618  TYR619  PRO620  LYS621  CYS622 
 ASP623  PHE694  ASN695  SER759  ASP760  ASP761  ALA762  ILE779  LEU786  VAL792 
 PHE793  MET794  SER795  GLU796  ALA797  LYS798  CYS799  TRP800  GLU811  SER814 

> <Gold.Protein.RotatedAtoms>
  152.1677  133.4623  159.4892 H   0  0  0  0  0  0  0  0  0  0  0  0  # atno 6907 bound_to 6896
  150.6915  134.1992  159.4324 H   0  0  0  0  0  0  0  0  0  0  0  0  # atno 6908 bound_to 6896
  151.9897  134.9985  160.0611 H   0  0  0  0  0  0  0  0  0  0  0  0  # atno 6909 bound_to 6896
  146.1134  139.5888  142.9337 H   0  0  0  0  0  0  0  0  0  0  0  0  # atno 7974 bound_to 7965
  154.7627  140.2787  155.6201 H   0  0  0  0  0  0  0  0  0  0  0  0  # atno 8008 bound_to 7997
  156.2919  140.2657  156.2337 H   0  0  0  0  0  0  0  0  0  0  0  0  # atno 8009 bound_to 7997
  154.9997  140.0373  157.2344 H   0  0  0  0  0  0  0  0  0  0  0  0  # atno 8010 bound_to 7997
  139.6690  143.9778  152.2272 H   0  0  0  0  0  0  0  0  0  0  0  0  # atno 10167 bound_to 10162
  157.3219  130.7452  149.6790 H   0  0  0  0  0  0  0  0  0  0  0  0  # atno 10718 bound_to 10713
  153.0007  135.6254  154.2277 H   0  0  0  0  0  0  0  0  0  0  0  0  # atno 10763 bound_to 10752
  154.2019  135.2804  155.2989 H   0  0  0  0  0  0  0  0  0  0  0  0  # atno 10764 bound_to 10752
  154.5676  135.5686  153.7124 H   0  0  0  0  0  0  0  0  0  0  0  0  # atno 10765 bound_to 10752
  140.9695  134.0825  157.3885 H   0  0  0  0  0  0  0  0  0  0  0  0  # atno 11005 bound_to 11000
  145.5617  141.0403  143.2222 LP  0  0  0  0  0  0  0  0  0  0  0  0  # atno 17320 bound_to 7965
  144.7531  139.7143  143.7265 LP  0  0  0  0  0  0  0  0  0  0  0  0  # atno 17321 bound_to 7965
  139.9538  144.6603  150.8146 LP  0  0  0  0  0  0  0  0  0  0  0  0  # atno 17342 bound_to 10162
  140.7611  143.3165  151.2720 LP  0  0  0  0  0  0  0  0  0  0  0  0  # atno 17343 bound_to 10162
  155.9686  130.4220  150.4498 LP  0  0  0  0  0  0  0  0  0  0  0  0  # atno 17370 bound_to 10713
  157.2515  131.0547  151.2376 LP  0  0  0  0  0  0  0  0  0  0  0  0  # atno 17371 bound_to 10713
  139.8907  135.0113  156.6749 LP  0  0  0  0  0  0  0  0  0  0  0  0  # atno 17394 bound_to 11000
  140.7350  133.9026  155.8238 LP  0  0  0  0  0  0  0  0  0  0  0  0  # atno 17395 bound_to 11000

$$$$
