AV-unprocessed.smi:1762|AV-procd|sdf|7103|dock6
  -GOLD-   22720 8323D 1   1.00000     0.00000
 Structure written by MMmdl.
 52 53  0  0  0  0  0  0  0  0  1 V2000
  153.6330  138.6112  160.2552 C   0  0  0  0  0  0  0  0  0  0  0  0
  153.8678  139.6281  159.1241 C   0  0  1  0  0  0  0  0  0  0  0  0
  152.7980  139.5684  158.0155 C   0  0  0  0  0  0  0  0  0  0  0  0
  151.5055  140.1365  158.4191 N   0  0  0  0  0  0  0  0  0  0  0  0
  150.4704  140.0476  157.3505 C   0  0  2  0  0  0  0  0  0  0  0  0
  149.6660  138.7258  157.3877 C   0  0  0  0  0  0  0  0  0  0  0  0
  148.6594  138.5889  156.6914 O   0  0  0  0  0  0  0  0  0  0  0  0
  150.1370  137.7557  158.1874 N   0  0  0  0  0  0  0  0  0  0  0  0
  149.5422  136.4314  158.3368 C   0  0  0  0  0  0  0  0  0  0  0  0
  148.2557  136.4436  159.1860 C   0  0  0  0  0  0  0  0  0  0  0  0
  148.1554  135.2789  160.1575 C   0  0  0  0  0  0  0  0  0  0  0  0
  148.0396  135.5118  161.5445 C   0  0  0  0  0  0  0  0  0  0  0  0
  147.9681  134.4016  162.4082 C   0  0  0  0  0  0  0  0  0  0  0  0
  148.0159  133.1073  161.8555 C   0  0  0  0  0  0  0  0  0  0  0  0
  148.1338  132.9805  160.4574 C   0  0  0  0  0  0  0  0  0  0  0  0
  148.2032  134.0384  159.6213 N   0  0  0  0  0  0  0  0  0  0  0  0
  150.9914  140.3359  155.9020 C   0  0  0  0  0  0  0  0  0  0  0  0
  149.9074  140.8889  154.9545 C   0  0  0  0  0  0  0  0  0  0  0  0
  151.7144  139.1402  155.2508 C   0  0  0  0  0  0  0  0  0  0  0  0
  151.7356  141.4986  158.9267 C   0  0  0  0  0  0  0  0  0  0  0  0
  152.7748  141.5485  160.0609 C   0  0  2  0  0  0  0  0  0  0  0  0
  153.0793  142.9848  160.5015 C   0  0  0  0  0  0  0  0  0  0  0  0
  153.9935  140.9577  159.6224 O   0  0  0  0  0  0  0  0  0  0  0  0
  153.6632  137.5909  159.8723 H   0  0  0  0  0  0  0  0  0  0  0  0
  152.6645  138.7471  160.7360 H   0  0  0  0  0  0  0  0  0  0  0  0
  154.4030  138.6978  161.0219 H   0  0  0  0  0  0  0  0  0  0  0  0
  154.8296  139.3819  158.6733 H   0  0  0  0  0  0  0  0  0  0  0  0
  153.1690  140.0977  157.1364 H   0  0  0  0  0  0  0  0  0  0  0  0
  152.6972  138.5244  157.7265 H   0  0  0  0  0  0  0  0  0  0  0  0
  149.7429  140.8346  157.5607 H   0  0  0  0  0  0  0  0  0  0  0  0
  150.9748  137.9439  158.7184 H   0  0  0  0  0  0  0  0  0  0  0  0
  149.3159  136.0534  157.3395 H   0  0  0  0  0  0  0  0  0  0  0  0
  150.2694  135.7407  158.7666 H   0  0  0  0  0  0  0  0  0  0  0  0
  148.2008  137.3758  159.7493 H   0  0  0  0  0  0  0  0  0  0  0  0
  147.3819  136.4383  158.5325 H   0  0  0  0  0  0  0  0  0  0  0  0
  148.0101  136.5168  161.9388 H   0  0  0  0  0  0  0  0  0  0  0  0
  147.8803  134.5405  163.4756 H   0  0  0  0  0  0  0  0  0  0  0  0
  147.9639  132.2330  162.4874 H   0  0  0  0  0  0  0  0  0  0  0  0
  148.1754  132.0042  159.9979 H   0  0  0  0  0  0  0  0  0  0  0  0
  151.7152  141.1465  155.9659 H   0  0  0  0  0  0  0  0  0  0  0  0
  149.1555  140.1392  154.7066 H   0  0  0  0  0  0  0  0  0  0  0  0
  150.3479  141.2252  154.0156 H   0  0  0  0  0  0  0  0  0  0  0  0
  149.3961  141.7436  155.3980 H   0  0  0  0  0  0  0  0  0  0  0  0
  151.0347  138.3118  155.0532 H   0  0  0  0  0  0  0  0  0  0  0  0
  152.5207  138.7667  155.8822 H   0  0  0  0  0  0  0  0  0  0  0  0
  152.1593  139.4287  154.2981 H   0  0  0  0  0  0  0  0  0  0  0  0
  152.0561  142.1447  158.1076 H   0  0  0  0  0  0  0  0  0  0  0  0
  150.8215  141.9328  159.3295 H   0  0  0  0  0  0  0  0  0  0  0  0
  152.3947  141.0019  160.9242 H   0  0  0  0  0  0  0  0  0  0  0  0
  152.1758  143.4908  160.8428 H   0  0  0  0  0  0  0  0  0  0  0  0
  153.5007  143.5678  159.6824 H   0  0  0  0  0  0  0  0  0  0  0  0
  153.7975  142.9968  161.3217 H   0  0  0  0  0  0  0  0  0  0  0  0
  1  2  1  0  0  0  0
  1 24  1  0  0  0  0
  1 25  1  0  0  0  0
  1 26  1  0  0  0  0
  2 23  1  0  0  0  0
  2  3  1  0  0  0  0
  2 27  1  0  0  0  0
  3  4  1  0  0  0  0
  3 28  1  0  0  0  0
  3 29  1  0  0  0  0
  4  5  1  0  0  0  0
  4 20  1  0  0  0  0
  5  6  1  0  0  0  0
  5 17  1  0  0  0  0
  5 30  1  0  0  0  0
  6  7  2  0  0  0  0
  6  8  1  0  0  0  0
  8  9  1  0  0  0  0
  8 31  1  0  0  0  0
  9 10  1  0  0  0  0
  9 32  1  0  0  0  0
  9 33  1  0  0  0  0
 10 11  1  0  0  0  0
 10 34  1  0  0  0  0
 10 35  1  0  0  0  0
 11 16  1  0  0  0  0
 11 12  2  0  0  0  0
 12 13  1  0  0  0  0
 12 36  1  0  0  0  0
 13 14  2  0  0  0  0
 13 37  1  0  0  0  0
 14 15  1  0  0  0  0
 14 38  1  0  0  0  0
 15 16  2  0  0  0  0
 15 39  1  0  0  0  0
 17 18  1  0  0  0  0
 17 19  1  0  0  0  0
 17 40  1  0  0  0  0
 18 41  1  0  0  0  0
 18 42  1  0  0  0  0
 18 43  1  0  0  0  0
 19 44  1  0  0  0  0
 19 45  1  0  0  0  0
 19 46  1  0  0  0  0
 20 21  1  0  0  0  0
 20 47  1  0  0  0  0
 20 48  1  0  0  0  0
 21 22  1  0  0  0  0
 21 23  1  0  0  0  0
 21 49  1  0  0  0  0
 22 50  1  0  0  0  0
 22 51  1  0  0  0  0
 22 52  1  0  0  0  0
M  END
> <s_m_source_file>
AV-unprocessed.smi

> <i_m_source_file_index>
1762

> <i_lp_mmshare_version>
43012

> <i_f3d_flags>
0

> <s_epik_input>
W0NIM11bQ0BASF0xW0NIMl1OKFtDSDJdW0NASF0oTzEpW0NIM10pW0NAQEhdKFtDSF0oW0NIM10pW0NIM10pQyg9TylbTkhdW0NIMl1bQ0gyXWMyW2NIXVtjSF1bY0hdW2NIXW4y

> <s_epik_cmdline>
J2VwaWtfcHl0aG9uJywgJy1waCcsICc3LjAnLCAnLXRuJywgJzgnLCAnLW1hJywgJzIwMCcsICctbWV0YWxfYmluZGluZycsICctaW1hZScsICc8aW5maWxlLm1hZT4nLCAnLW9tYWUnLCAnPG91dGZpbGUubWFlPic=

> <r_epik_Ionization_Penalty>
0.0399736

> <r_epik_Ionization_Penalty_Charging>
0

> <r_epik_Ionization_Penalty_Neutral>
0.0399736

> <r_epik_State_Penalty>
0.0317634

> <r_epik_Charging_Adjusted_Penalty>
0.0317634

> <i_epik_Tot_Q>
0

> <i_epik_Tot_abs_Q>
0

> <r_epik_Metal_State_Penalty>
0.0307795

> <b_epik_Metal_Only>
0

> <s_lp_Force_Field>
OPLS_2005

> <r_lp_Energy>
29.7417

> <b_lp_Chiralities_Consistent>
1

> <s_lp_Variant>
AV-unprocessed.smi:1762-5

> <Gold.Version>
5.8.1

> <Gold.Id.Protein>
6NUR|6NUR_protein|mol2

> <Gold.PLP.Fitness>
39.1712

> <Gold.PLP.PLP>
-41.8424

> <Gold.PLP.part.hbond>
0.0000

> <Gold.PLP.part.metal>
0.0000

> <Gold.PLP.part.buried>
-3.0485

> <Gold.PLP.part.nonpolar>
-38.0962

> <Gold.PLP.part.repulsive>
0.1401

> <Gold.PLP.ligand.clash>
0.0000

> <Gold.PLP.ligand.torsion>
1.4766

> <Gold.PLP.Chemscore.Hbond>
0.0000

> <Gold.PLP.Chemscore.CHOScore>
0.0000

> <Gold.PLP.Chemscore.Metal>
0.0000

> <Gold.Chemscore.Hbonds>
donor molecule, donor type, donor heavy atom, donor atom, acceptor molecule, acceptor atom, score
      P1  H  6896  6909       L1    16  0.01

> <Gold.PLP.Chemscore.Internal.Correction>
0.2821

> <Gold.Rescore>
     Score         DG    S(hbond)    S(metal)    S(lipo)     H(rot)  DE(clash)    DE(int)     intcor
     14.37     -16.12       0.00        0.00     125.94       1.60       0.03       1.72       ----

> <Gold.Chemscore.Fitness>
14.3695

> <Gold.Chemscore.DG>
-16.1206

> <Gold.Chemscore.ZeroCoef>
-5.4800

> <Gold.Chemscore.Hbond>
0.0000

> <Gold.Chemscore.Metal>
0.0000

> <Gold.Chemscore.Lipo>
125.9379

> <Gold.Chemscore.Internal_Hbond>
0.0000

> <Gold.Chemscore.DEClash>
0.0337

> <Gold.Chemscore.DEInternal>
1.7174

> <Gold.Chemscore.Rot>
1.5993

> <Gold.Chemscore.Internal.Correction>
   9.000000E+99

> <Gold.Chemscore.Hbond.Weighted>
-0.0000

> <Gold.Chemscore.Metal.Weighted>
-0.0000

> <Gold.Chemscore.Lipo.Weighted>
-14.7347

> <Gold.Chemscore.Internal_Hbond.Weighted>
0.0000

> <Gold.Chemscore.DEClash.Weighted>
0.0337

> <Gold.Chemscore.DEInternal.Weighted>
1.7174

> <Gold.Chemscore.Rot.Weighted>
4.0941

> <Gold.Chemscore.Internal.Correction.Weighted>
   9.000000E+99

> <Gold.Protein.RotatedTorsions>
[ 6907 6896 6895 6894 ] final   28.22 input  -60.11 | X-H torsion
[ 7974 7965 7964 7962 ] final -144.23 input  175.53 | X-H torsion
[ 8008 7997 7996 7995 ] final   -2.90 input   59.86 | X-H torsion
[ 10167 10162 10161 10158 ] final  -27.82 input  -65.29 | X-H torsion
[ 10718 10713 10712 10709 ] final   26.80 input   66.30 | X-H torsion
[ 10763 10752 10751 10750 ] final -134.22 input  -60.55 | X-H torsion
[ 11005 11000 10999 10996 ] final  149.83 input  -57.11 | X-H torsion

> <Gold.Protein.ActiveResidues>
 VAL166  LYS551  ARG553  GLY616  TRP617  ASP618  TYR619  PRO620  LYS621  CYS622 
 ASP623  PHE694  ASN695  SER759  ASP760  ASP761  ALA762  ILE779  LEU786  VAL792 
 PHE793  MET794  SER795  GLU796  ALA797  LYS798  CYS799  TRP800  GLU811  SER814 

> <Gold.Protein.RotatedAtoms>
  152.0137  134.9862  160.0568 H   0  0  0  0  0  0  0  0  0  0  0  0  # atno 6907 bound_to 6896
  152.1404  133.4456  159.4772 H   0  0  0  0  0  0  0  0  0  0  0  0  # atno 6908 bound_to 6896
  150.6864  134.2231  159.4447 H   0  0  0  0  0  0  0  0  0  0  0  0  # atno 6909 bound_to 6896
  144.8312  140.5736  143.5513 H   0  0  0  0  0  0  0  0  0  0  0  0  # atno 7974 bound_to 7965
  154.6307  140.2523  155.7437 H   0  0  0  0  0  0  0  0  0  0  0  0  # atno 8008 bound_to 7997
  156.2478  140.2907  156.0578 H   0  0  0  0  0  0  0  0  0  0  0  0  # atno 8009 bound_to 7997
  155.1749  140.0387  157.2861 H   0  0  0  0  0  0  0  0  0  0  0  0  # atno 8010 bound_to 7997
  140.7274  143.4061  151.1183 H   0  0  0  0  0  0  0  0  0  0  0  0  # atno 10167 bound_to 10162
  157.2116  130.6937  149.6231 H   0  0  0  0  0  0  0  0  0  0  0  0  # atno 10718 bound_to 10713
  154.8722  135.3741  154.4700 H   0  0  0  0  0  0  0  0  0  0  0  0  # atno 10763 bound_to 10752
  153.5361  135.7027  153.5664 H   0  0  0  0  0  0  0  0  0  0  0  0  # atno 10764 bound_to 10752
  153.3847  135.3987  155.1846 H   0  0  0  0  0  0  0  0  0  0  0  0  # atno 10765 bound_to 10752
  140.1079  134.8943  157.1892 H   0  0  0  0  0  0  0  0  0  0  0  0  # atno 11005 bound_to 11000
  145.4891  139.1490  143.3720 LP  0  0  0  0  0  0  0  0  0  0  0  0  # atno 17320 bound_to 7965
  146.2615  140.5028  142.8851 LP  0  0  0  0  0  0  0  0  0  0  0  0  # atno 17321 bound_to 7965
  139.7688  143.8525  152.3116 LP  0  0  0  0  0  0  0  0  0  0  0  0  # atno 17342 bound_to 10162
  139.8436  144.7198  150.9300 LP  0  0  0  0  0  0  0  0  0  0  0  0  # atno 17343 bound_to 10162
  155.9690  130.4549  150.5868 LP  0  0  0  0  0  0  0  0  0  0  0  0  # atno 17370 bound_to 10713
  157.3666  131.0758  151.1592 LP  0  0  0  0  0  0  0  0  0  0  0  0  # atno 17371 bound_to 10713
  140.3131  134.3001  155.7262 LP  0  0  0  0  0  0  0  0  0  0  0  0  # atno 17394 bound_to 11000
  141.2123  133.7663  156.9805 LP  0  0  0  0  0  0  0  0  0  0  0  0  # atno 17395 bound_to 11000

$$$$
