AV-unprocessed.smi:3056|AV-procd|sdf|11651|dock6
  -GOLD-   2272017 53D 1   1.00000     0.00000
 Structure written by MMmdl.
 48 49  0  0  0  0  0  0  0  0  2 V2000
  144.3456  132.9703  149.5827 C   0  0  0  0  0  0  0  0  0  0  0  0
  145.2348  133.1497  150.7794 C   0  0  0  0  0  0  0  0  0  0  0  0
  145.1511  134.1496  151.7887 C   0  0  0  0  0  0  0  0  0  0  0  0
  146.0900  134.0257  152.7121 N   0  0  0  0  0  0  0  0  0  0  0  0
  146.8146  132.9538  152.3250 N   0  0  0  0  0  0  0  0  0  0  0  0
  147.9424  132.5141  153.1414 C   0  0  2  0  0  0  0  0  0  0  0  0
  147.8469  131.0116  153.4611 C   0  0  0  0  0  0  0  0  0  0  0  0
  148.1675  133.4084  154.3909 C   0  0  1  0  0  0  0  0  0  0  0  0
  148.7753  132.6299  155.5692 C   0  0  0  0  0  0  0  0  0  0  0  0
  149.0269  134.5749  154.0864 N   0  3  0  0  0  0  0  0  0  0  0  0
  149.0112  135.6524  155.0995 C   0  0  0  0  0  0  0  0  0  0  0  0
  150.4244  136.1023  155.4979 C   0  0  0  0  0  0  0  0  0  0  0  0
  151.3127  135.2535  155.5921 O   0  0  0  0  0  0  0  0  0  0  0  0
  150.6524  137.4171  155.7293 N   0  0  0  0  0  0  0  0  0  0  0  0
  151.9443  138.0242  156.0647 C   0  0  0  0  0  0  0  0  0  0  0  0
  152.3459  138.9661  154.9162 C   0  0  0  0  0  0  0  0  0  0  0  0
  151.3279  139.9448  154.7205 O   0  0  0  0  0  0  0  0  0  0  0  0
  150.0497  139.3858  154.4202 C   0  0  2  0  0  0  0  0  0  0  0  0
  149.0596  140.5367  154.2130 C   0  0  0  0  0  0  0  0  0  0  0  0
  149.6261  138.4511  155.5712 C   0  0  0  0  0  0  0  0  0  0  0  0
  146.3123  132.4026  151.1617 C   0  0  0  0  0  0  0  0  0  0  0  0
  143.4074  133.5150  149.6893 H   0  0  0  0  0  0  0  0  0  0  0  0
  144.0911  131.9224  149.4229 H   0  0  0  0  0  0  0  0  0  0  0  0
  144.8232  133.3288  148.6707 H   0  0  0  0  0  0  0  0  0  0  0  0
  144.4375  134.9555  151.8785 H   0  0  0  0  0  0  0  0  0  0  0  0
  148.8367  132.6212  152.5244 H   0  0  0  0  0  0  0  0  0  0  0  0
  148.7176  130.6745  154.0241 H   0  0  0  0  0  0  0  0  0  0  0  0
  147.8029  130.4224  152.5446 H   0  0  0  0  0  0  0  0  0  0  0  0
  146.9587  130.7725  154.0459 H   0  0  0  0  0  0  0  0  0  0  0  0
  147.1941  133.7700  154.7271 H   0  0  0  0  0  0  0  0  0  0  0  0
  148.1661  131.7615  155.8212 H   0  0  0  0  0  0  0  0  0  0  0  0
  148.8368  133.2551  156.4605 H   0  0  0  0  0  0  0  0  0  0  0  0
  149.7824  132.2763  155.3465 H   0  0  0  0  0  0  0  0  0  0  0  0
  149.9805  134.2523  154.0030 H   0  0  0  0  0  0  0  0  0  0  0  0
  148.4642  136.5112  154.7111 H   0  0  0  0  0  0  0  0  0  0  0  0
  148.4832  135.2887  155.9821 H   0  0  0  0  0  0  0  0  0  0  0  0
  151.8443  138.5891  156.9927 H   0  0  0  0  0  0  0  0  0  0  0  0
  152.7405  137.3036  156.2424 H   0  0  0  0  0  0  0  0  0  0  0  0
  153.2810  139.4736  155.1532 H   0  0  0  0  0  0  0  0  0  0  0  0
  152.5095  138.4078  153.9932 H   0  0  0  0  0  0  0  0  0  0  0  0
  150.1210  138.8161  153.4917 H   0  0  0  0  0  0  0  0  0  0  0  0
  148.0670  140.1605  153.9640 H   0  0  0  0  0  0  0  0  0  0  0  0
  149.3818  141.1867  153.3990 H   0  0  0  0  0  0  0  0  0  0  0  0
  148.9709  141.1475  155.1118 H   0  0  0  0  0  0  0  0  0  0  0  0
  148.6368  138.0382  155.3693 H   0  0  0  0  0  0  0  0  0  0  0  0
  149.5339  139.0123  156.5023 H   0  0  0  0  0  0  0  0  0  0  0  0
  146.7567  131.5319  150.7024 H   0  0  0  0  0  0  0  0  0  0  0  0
  148.7461  134.9573  153.1947 H   0  0  0  0  0  0  0  0  0  0  0  0
  1  2  1  0  0  0  0
  1 22  1  0  0  0  0
  1 23  1  0  0  0  0
  1 24  1  0  0  0  0
  2 21  2  0  0  0  0
  2  3  1  0  0  0  0
  3  4  2  0  0  0  0
  3 25  1  0  0  0  0
  4  5  1  0  0  0  0
  5  6  1  0  0  0  0
  5 21  1  0  0  0  0
  6  7  1  0  0  0  0
  6  8  1  0  0  0  0
  6 26  1  0  0  0  0
  7 27  1  0  0  0  0
  7 28  1  0  0  0  0
  7 29  1  0  0  0  0
  8  9  1  0  0  0  0
  8 10  1  0  0  0  0
  8 30  1  0  0  0  0
  9 31  1  0  0  0  0
  9 32  1  0  0  0  0
  9 33  1  0  0  0  0
 10 11  1  0  0  0  0
 10 34  1  0  0  0  0
 10 48  1  0  0  0  0
 11 12  1  0  0  0  0
 11 35  1  0  0  0  0
 11 36  1  0  0  0  0
 12 13  2  0  0  0  0
 12 14  1  0  0  0  0
 14 20  1  0  0  0  0
 14 15  1  0  0  0  0
 15 16  1  0  0  0  0
 15 37  1  0  0  0  0
 15 38  1  0  0  0  0
 16 17  1  0  0  0  0
 16 39  1  0  0  0  0
 16 40  1  0  0  0  0
 17 18  1  0  0  0  0
 18 19  1  0  0  0  0
 18 20  1  0  0  0  0
 18 41  1  0  0  0  0
 19 42  1  0  0  0  0
 19 43  1  0  0  0  0
 19 44  1  0  0  0  0
 20 45  1  0  0  0  0
 20 46  1  0  0  0  0
 21 47  1  0  0  0  0
M  CHG  1  10   1
M  END
> <s_m_source_file>
AV-unprocessed.smi

> <i_m_source_file_index>
3056

> <i_lp_mmshare_version>
43012

> <i_f3d_flags>
0

> <s_epik_input>
W0NIM11jMVtjSF1ubihbY0hdMSlbQ0BIXShbQ0gzXSlbQ0BIXShbQ0gzXSlbTkhdW0NIMl1DKD1PKU4yW0NIMl1bQ0gyXU9bQ0BASF0oW0NIM10pW0NIMl0y

> <s_epik_cmdline>
J2VwaWtfcHl0aG9uJywgJy1waCcsICc3LjAnLCAnLXRuJywgJzgnLCAnLW1hJywgJzIwMCcsICctbWV0YWxfYmluZGluZycsICctaW1hZScsICc8aW5maWxlLm1hZT4nLCAnLW9tYWUnLCAnPG91dGZpbGUubWFlPic=

> <r_lp_tautomer_probability>
1

> <r_epik_Ionization_Penalty>
0.233715

> <r_epik_Ionization_Penalty_Charging>
0.233698

> <r_epik_Ionization_Penalty_Neutral>
1.68157e-05

> <r_epik_State_Penalty>
0.225221

> <r_epik_Charging_Adjusted_Penalty>
0.458919

> <i_epik_Tot_Q>
1

> <i_epik_Tot_abs_Q>
1

> <r_epik_Metal_State_Penalty>
0.225535

> <b_epik_Metal_Only>
0

> <s_lp_Force_Field>
OPLS_2005

> <r_lp_Energy>
29.3518

> <b_lp_Chiralities_Consistent>
1

> <s_lp_Variant>
AV-unprocessed.smi:3056-7

> <Gold.Version>
5.8.1

> <Gold.Id.Protein>
6NUR|6NUR_protein|mol2

> <Gold.PLP.Fitness>
46.8367

> <Gold.PLP.PLP>
-35.0413

> <Gold.PLP.part.hbond>
-3.0000

> <Gold.PLP.part.metal>
0.0000

> <Gold.PLP.part.buried>
-2.9104

> <Gold.PLP.part.nonpolar>
-28.8805

> <Gold.PLP.part.repulsive>
0.2345

> <Gold.PLP.ligand.clash>
0.0000

> <Gold.PLP.ligand.torsion>
1.6619

> <Gold.PLP.Chemscore.Hbond>
3.9840

> <Gold.PLP.Chemscore.CHOScore>
1.0000

> <Gold.PLP.Chemscore.Metal>
0.0000

> <Gold.Chemscore.Hbonds>
donor molecule, donor type, donor heavy atom, donor atom, acceptor molecule, acceptor atom, score
      L1  H    10    48       P1  7948  1.98
      P1  H  7989  7998       L1    17  1.00
      P1  H 10752 10765       L1    13  1.00
      L1  C    21    47       P1 10747  1.00

> <Gold.PLP.Chemscore.Internal.Correction>
0.1672

> <Gold.Rescore>
     Score         DG    S(hbond)    S(metal)    S(lipo)     H(rot)  DE(clash)    DE(int)     intcor
     16.00     -17.64       2.03        0.00      83.96       1.74       0.07       1.58       ----

> <Gold.Chemscore.Fitness>
15.9976

> <Gold.Chemscore.DG>
-17.6412

> <Gold.Chemscore.ZeroCoef>
-5.4800

> <Gold.Chemscore.Hbond>
2.0300

> <Gold.Chemscore.Metal>
0.0000

> <Gold.Chemscore.Lipo>
83.9614

> <Gold.Chemscore.Internal_Hbond>
0.0000

> <Gold.Chemscore.DEClash>
0.0664

> <Gold.Chemscore.DEInternal>
1.5772

> <Gold.Chemscore.Rot>
1.7354

> <Gold.Chemscore.Internal.Correction>
   9.000000E+99

> <Gold.Chemscore.Hbonds>
donor molecule, donor type, donor heavy atom, donor atom, acceptor molecule, acceptor atom, score
      L1  H    10    48       P1  7948  0.42
      P1  H  7989  7998       L1    17  0.38
      P1  H 10752 10765       L1    13  0.95

> <Gold.Chemscore.Hbond.Weighted>
-6.7803

> <Gold.Chemscore.Metal.Weighted>
-0.0000

> <Gold.Chemscore.Lipo.Weighted>
-9.8235

> <Gold.Chemscore.Internal_Hbond.Weighted>
0.0000

> <Gold.Chemscore.DEClash.Weighted>
0.0664

> <Gold.Chemscore.DEInternal.Weighted>
1.5772

> <Gold.Chemscore.Rot.Weighted>
4.4426

> <Gold.Chemscore.Internal.Correction.Weighted>
   9.000000E+99

> <Gold.Protein.RotatedTorsions>
[ 6907 6896 6895 6894 ] final  155.78 input  -60.11 | X-H torsion
[ 7974 7965 7964 7962 ] final  -24.69 input  175.53 | X-H torsion
[ 8008 7997 7996 7995 ] final   53.30 input   59.86 | X-H torsion
[ 10167 10162 10161 10158 ] final  -33.32 input  -65.29 | X-H torsion
[ 10718 10713 10712 10709 ] final  118.56 input   66.30 | X-H torsion
[ 10763 10752 10751 10750 ] final -164.76 input  -60.55 | X-H torsion
[ 11005 11000 10999 10996 ] final   88.99 input  -57.11 | X-H torsion

> <Gold.Protein.ActiveResidues>
 VAL166  LYS551  ARG553  GLY616  TRP617  ASP618  TYR619  PRO620  LYS621  CYS622 
 ASP623  PHE694  ASN695  SER759  ASP760  ASP761  ALA762  ILE779  LEU786  VAL792 
 PHE793  MET794  SER795  GLU796  ALA797  LYS798  CYS799  TRP800  GLU811  SER814 

> <Gold.Protein.RotatedAtoms>
  152.0392  133.3970  159.4329 H   0  0  0  0  0  0  0  0  0  0  0  0  # atno 6907 bound_to 6896
  150.6876  134.3433  159.4887 H   0  0  0  0  0  0  0  0  0  0  0  0  # atno 6908 bound_to 6896
  152.1230  134.9191  160.0613 H   0  0  0  0  0  0  0  0  0  0  0  0  # atno 6909 bound_to 6896
  146.1539  140.4785  142.8600 H   0  0  0  0  0  0  0  0  0  0  0  0  # atno 7974 bound_to 7965
  155.4660  140.3463  155.4319 H   0  0  0  0  0  0  0  0  0  0  0  0  # atno 8008 bound_to 7997
  156.1130  140.1466  156.9340 H   0  0  0  0  0  0  0  0  0  0  0  0  # atno 8009 bound_to 7997
  154.4770  140.0882  156.7264 H   0  0  0  0  0  0  0  0  0  0  0  0  # atno 8010 bound_to 7997
  140.7206  143.3629  151.1927 H   0  0  0  0  0  0  0  0  0  0  0  0  # atno 10167 bound_to 10162
  157.6022  131.1049  150.7773 H   0  0  0  0  0  0  0  0  0  0  0  0  # atno 10718 bound_to 10713
  154.6997  135.2985  154.9359 H   0  0  0  0  0  0  0  0  0  0  0  0  # atno 10763 bound_to 10752
  154.0296  135.6672  153.4783 H   0  0  0  0  0  0  0  0  0  0  0  0  # atno 10764 bound_to 10752
  153.0672  135.5081  154.8134 H   0  0  0  0  0  0  0  0  0  0  0  0  # atno 10765 bound_to 10752
  139.8884  134.8523  156.3079 H   0  0  0  0  0  0  0  0  0  0  0  0  # atno 11005 bound_to 11000
  144.7938  140.6084  143.6523 LP  0  0  0  0  0  0  0  0  0  0  0  0  # atno 17320 bound_to 7965
  145.4756  139.1499  143.3790 LP  0  0  0  0  0  0  0  0  0  0  0  0  # atno 17321 bound_to 7965
  139.7185  143.9261  152.2976 LP  0  0  0  0  0  0  0  0  0  0  0  0  # atno 17342 bound_to 10162
  139.9010  144.6911  150.8665 LP  0  0  0  0  0  0  0  0  0  0  0  0  # atno 17343 bound_to 10162
  156.8170  130.4971  149.5348 LP  0  0  0  0  0  0  0  0  0  0  0  0  # atno 17370 bound_to 10713
  156.1098  130.6032  151.0029 LP  0  0  0  0  0  0  0  0  0  0  0  0  # atno 17371 bound_to 10713
  140.9870  133.7232  156.0756 LP  0  0  0  0  0  0  0  0  0  0  0  0  # atno 17394 bound_to 11000
  140.7675  134.3870  157.5514 LP  0  0  0  0  0  0  0  0  0  0  0  0  # atno 17395 bound_to 11000

$$$$
