AV-unprocessed.smi:693|AV-procd|sdf|3374|dock3
  -GOLD-   22720 0353D 1   1.00000     0.00000
 Structure written by MMmdl.
 47 48  0  0  0  0  0  0  0  0  2 V2000
  152.0254  145.3944  160.0858 C   0  0  0  0  0  0  0  0  0  0  0  0
  151.9769  143.9997  159.4989 C   0  0  0  0  0  0  0  0  0  0  0  0
  152.7065  142.9246  160.0502 C   0  0  0  0  0  0  0  0  0  0  0  0
  152.6166  141.6516  159.4496 C   0  0  0  0  0  0  0  0  0  0  0  0
  151.8008  141.4795  158.3097 C   0  0  0  0  0  0  0  0  0  0  0  0
  151.6812  140.1246  157.6406 C   0  0  0  0  0  0  0  0  0  0  0  0
  151.9254  140.2031  156.1245 C   0  0  0  0  0  0  0  0  0  0  0  0
  150.6808  140.3961  155.3904 N   0  0  0  0  0  0  0  0  0  0  0  0
  149.9630  139.4215  154.8060 C   0  0  0  0  0  0  0  0  0  0  0  0
  150.3220  138.2431  154.8308 O   0  0  0  0  0  0  0  0  0  0  0  0
  148.8372  139.8443  154.1764 N   0  0  0  0  0  0  0  0  0  0  0  0
  148.4263  141.2436  153.9775 C   0  0  0  0  0  0  0  0  0  0  0  0
  147.2993  141.5624  154.9731 C   0  0  0  0  0  0  0  0  0  0  0  0
  146.1193  140.5871  154.8004 C   0  0  0  0  0  0  0  0  0  0  0  0
  146.5719  139.1040  154.7953 C   0  0  1  0  0  0  0  0  0  0  0  0
  145.4308  138.1164  154.4583 C   0  0  0  0  0  0  0  0  0  0  0  0
  145.4087  137.6668  152.9934 C   0  0  0  0  0  0  0  0  0  0  0  0
  145.0284  138.5704  152.0868 N   0  0  0  0  0  0  0  0  0  0  0  0
  145.7075  136.5156  152.6834 O   0  0  0  0  0  0  0  0  0  0  0  0
  147.7538  138.9208  153.8158 C   0  0  0  0  0  0  0  0  0  0  0  0
  151.0939  142.5909  157.8029 C   0  0  0  0  0  0  0  0  0  0  0  0
  151.2062  143.7941  158.4072 N   0  3  0  0  0  0  0  0  0  0  0  0
  152.5021  145.3896  161.0666 H   0  0  0  0  0  0  0  0  0  0  0  0
  151.0191  145.7985  160.2003 H   0  0  0  0  0  0  0  0  0  0  0  0
  152.5925  146.0589  159.4337 H   0  0  0  0  0  0  0  0  0  0  0  0
  153.3283  143.0707  160.9216 H   0  0  0  0  0  0  0  0  0  0  0  0
  153.1684  140.8189  159.8610 H   0  0  0  0  0  0  0  0  0  0  0  0
  152.3960  139.4441  158.1052 H   0  0  0  0  0  0  0  0  0  0  0  0
  150.6913  139.7115  157.8396 H   0  0  0  0  0  0  0  0  0  0  0  0
  152.5837  141.0417  155.8966 H   0  0  0  0  0  0  0  0  0  0  0  0
  152.4317  139.3041  155.7684 H   0  0  0  0  0  0  0  0  0  0  0  0
  150.3331  141.3415  155.3211 H   0  0  0  0  0  0  0  0  0  0  0  0
  149.2353  141.9654  154.0881 H   0  0  0  0  0  0  0  0  0  0  0  0
  148.0662  141.3711  152.9555 H   0  0  0  0  0  0  0  0  0  0  0  0
  147.6834  141.4959  155.9919 H   0  0  0  0  0  0  0  0  0  0  0  0
  146.9567  142.5884  154.8374 H   0  0  0  0  0  0  0  0  0  0  0  0
  145.3929  140.7691  155.5918 H   0  0  0  0  0  0  0  0  0  0  0  0
  145.6123  140.8104  153.8606 H   0  0  0  0  0  0  0  0  0  0  0  0
  146.9389  138.8630  155.7948 H   0  0  0  0  0  0  0  0  0  0  0  0
  145.5057  137.2316  155.0917 H   0  0  0  0  0  0  0  0  0  0  0  0
  144.4690  138.5731  154.6961 H   0  0  0  0  0  0  0  0  0  0  0  0
  144.9969  138.3215  151.1088 H   0  0  0  0  0  0  0  0  0  0  0  0
  144.7724  139.5008  152.3837 H   0  0  0  0  0  0  0  0  0  0  0  0
  147.4310  139.1243  152.7937 H   0  0  0  0  0  0  0  0  0  0  0  0
  148.0850  137.8811  153.8134 H   0  0  0  0  0  0  0  0  0  0  0  0
  150.4457  142.5538  156.9392 H   0  0  0  0  0  0  0  0  0  0  0  0
  150.6860  144.5829  158.0221 H   0  0  0  0  0  0  0  0  0  0  0  0
  1  2  1  0  0  0  0
  1 23  1  0  0  0  0
  1 24  1  0  0  0  0
  1 25  1  0  0  0  0
  2 22  1  0  0  0  0
  2  3  2  0  0  0  0
  3  4  1  0  0  0  0
  3 26  1  0  0  0  0
  4  5  2  0  0  0  0
  4 27  1  0  0  0  0
  5  6  1  0  0  0  0
  5 21  1  0  0  0  0
  6  7  1  0  0  0  0
  6 28  1  0  0  0  0
  6 29  1  0  0  0  0
  7  8  1  0  0  0  0
  7 30  1  0  0  0  0
  7 31  1  0  0  0  0
  8  9  1  0  0  0  0
  8 32  1  0  0  0  0
  9 10  2  0  0  0  0
  9 11  1  0  0  0  0
 11 20  1  0  0  0  0
 11 12  1  0  0  0  0
 12 13  1  0  0  0  0
 12 33  1  0  0  0  0
 12 34  1  0  0  0  0
 13 14  1  0  0  0  0
 13 35  1  0  0  0  0
 13 36  1  0  0  0  0
 14 15  1  0  0  0  0
 14 37  1  0  0  0  0
 14 38  1  0  0  0  0
 15 16  1  0  0  0  0
 15 20  1  0  0  0  0
 15 39  1  0  0  0  0
 16 17  1  0  0  0  0
 16 40  1  0  0  0  0
 16 41  1  0  0  0  0
 17 18  1  0  0  0  0
 17 19  2  0  0  0  0
 18 42  1  0  0  0  0
 18 43  1  0  0  0  0
 20 44  1  0  0  0  0
 20 45  1  0  0  0  0
 21 22  2  0  0  0  0
 21 46  1  0  0  0  0
 22 47  1  0  0  0  0
M  CHG  1  22   1
M  END
> <s_m_source_file>
AV-unprocessed.smi

> <i_m_source_file_index>
693

> <i_lp_mmshare_version>
43012

> <i_f3d_flags>
0

> <s_epik_input>
W0NIM11jMVtjSF1bY0hdYyhbY0hdbjEpW0NIMl1bQ0gyXVtOSF1DKD1PKU4yW0NIMl1bQ0gyXVtDSDJdW0NASF0oW0NIMl0yKVtDSDJdQyg9TylbTkgyXQ==

> <s_epik_cmdline>
J2VwaWtfcHl0aG9uJywgJy1waCcsICc3LjAnLCAnLXRuJywgJzgnLCAnLW1hJywgJzIwMCcsICctbWV0YWxfYmluZGluZycsICctaW1hZScsICc8aW5maWxlLm1hZT4nLCAnLW9tYWUnLCAnPG91dGZpbGUubWFlPic=

> <r_epik_Ionization_Penalty>
1.41666

> <r_epik_Ionization_Penalty_Charging>
1.4166

> <r_epik_Ionization_Penalty_Neutral>
5.77403e-05

> <r_epik_State_Penalty>
1.50002

> <r_epik_Charging_Adjusted_Penalty>
2.91662

> <i_epik_Tot_Q>
1

> <i_epik_Tot_abs_Q>
1

> <r_epik_Metal_State_Penalty>
1.55252

> <b_epik_Metal_Only>
0

> <s_lp_Force_Field>
OPLS_2005

> <r_lp_Energy>
32.8943

> <b_lp_Chiralities_Consistent>
1

> <s_lp_Variant>
AV-unprocessed.smi:693-3

> <Gold.Version>
5.8.1

> <Gold.Id.Protein>
6NUR|6NUR_protein|mol2

> <Gold.PLP.Fitness>
43.2005

> <Gold.PLP.PLP>
-40.4814

> <Gold.PLP.part.hbond>
-1.7885

> <Gold.PLP.part.metal>
0.0000

> <Gold.PLP.part.buried>
-5.1333

> <Gold.PLP.part.nonpolar>
-34.9816

> <Gold.PLP.part.repulsive>
1.3280

> <Gold.PLP.ligand.clash>
0.0000

> <Gold.PLP.ligand.torsion>
1.1356

> <Gold.PLP.Chemscore.Hbond>
1.6400

> <Gold.PLP.Chemscore.CHOScore>
0.0000

> <Gold.PLP.Chemscore.Metal>
0.0000

> <Gold.Chemscore.Hbonds>
donor molecule, donor type, donor heavy atom, donor atom, acceptor molecule, acceptor atom, score
      L1  H    18    42       P1 10171  0.69
      L1  H    18    43       P1 10175  0.71

> <Gold.PLP.Chemscore.Internal.Correction>
0.0704

> <Gold.Rescore>
     Score         DG    S(hbond)    S(metal)    S(lipo)     H(rot)  DE(clash)    DE(int)     intcor
     14.72     -16.42       1.52        0.00     101.11       2.34       0.64       1.07       ----

> <Gold.Chemscore.Fitness>
14.7191

> <Gold.Chemscore.DG>
-16.4231

> <Gold.Chemscore.ZeroCoef>
-5.4800

> <Gold.Chemscore.Hbond>
1.5245

> <Gold.Chemscore.Metal>
0.0000

> <Gold.Chemscore.Lipo>
101.1088

> <Gold.Chemscore.Internal_Hbond>
0.0000

> <Gold.Chemscore.DEClash>
0.6361

> <Gold.Chemscore.DEInternal>
1.0679

> <Gold.Chemscore.Rot>
2.3354

> <Gold.Chemscore.Internal.Correction>
   9.000000E+99

> <Gold.Chemscore.Hbonds>
donor molecule, donor type, donor heavy atom, donor atom, acceptor molecule, acceptor atom, score
      L1  H    18    42       P1 10171  0.70
      L1  H    18    43       P1 10175  0.70

> <Gold.Chemscore.Hbond.Weighted>
-5.0919

> <Gold.Chemscore.Metal.Weighted>
-0.0000

> <Gold.Chemscore.Lipo.Weighted>
-11.8297

> <Gold.Chemscore.Internal_Hbond.Weighted>
0.0000

> <Gold.Chemscore.DEClash.Weighted>
0.6361

> <Gold.Chemscore.DEInternal.Weighted>
1.0679

> <Gold.Chemscore.Rot.Weighted>
5.9785

> <Gold.Chemscore.Internal.Correction.Weighted>
   9.000000E+99

> <Gold.Protein.RotatedTorsions>
[ 6907 6896 6895 6894 ] final   28.36 input  -60.11 | X-H torsion
[ 7974 7965 7964 7962 ] final -179.08 input  175.53 | X-H torsion
[ 8008 7997 7996 7995 ] final  -72.76 input   59.86 | X-H torsion
[ 10167 10162 10161 10158 ] final   94.43 input  -65.29 | X-H torsion
[ 10718 10713 10712 10709 ] final  157.75 input   66.30 | X-H torsion
[ 10763 10752 10751 10750 ] final -109.40 input  -60.55 | X-H torsion
[ 11005 11000 10999 10996 ] final -115.26 input  -57.11 | X-H torsion

> <Gold.Protein.ActiveResidues>
 VAL166  LYS551  ARG553  GLY616  TRP617  ASP618  TYR619  PRO620  LYS621  CYS622 
 ASP623  PHE694  ASN695  SER759  ASP760  ASP761  ALA762  ILE779  LEU786  VAL792 
 PHE793  MET794  SER795  GLU796  ALA797  LYS798  CYS799  TRP800  GLU811  SER814 

> <Gold.Protein.RotatedAtoms>
  152.0158  134.9850  160.0569 H   0  0  0  0  0  0  0  0  0  0  0  0  # atno 6907 bound_to 6896
  152.1385  133.4445  159.4763 H   0  0  0  0  0  0  0  0  0  0  0  0  # atno 6908 bound_to 6896
  150.6863  134.2253  159.4456 H   0  0  0  0  0  0  0  0  0  0  0  0  # atno 6909 bound_to 6896
  144.7134  140.0771  143.6427 H   0  0  0  0  0  0  0  0  0  0  0  0  # atno 7974 bound_to 7965
  154.5192  140.0791  156.8139 H   0  0  0  0  0  0  0  0  0  0  0  0  # atno 8008 bound_to 7997
  155.3614  140.3418  155.4223 H   0  0  0  0  0  0  0  0  0  0  0  0  # atno 8009 bound_to 7997
  156.1662  140.1604  156.8515 H   0  0  0  0  0  0  0  0  0  0  0  0  # atno 8010 bound_to 7997
  139.8084  144.6784  150.9672 H   0  0  0  0  0  0  0  0  0  0  0  0  # atno 10167 bound_to 10162
  157.1872  131.0646  151.2099 H   0  0  0  0  0  0  0  0  0  0  0  0  # atno 10718 bound_to 10713
  154.8191  135.4602  154.0726 H   0  0  0  0  0  0  0  0  0  0  0  0  # atno 10763 bound_to 10752
  153.2095  135.6880  153.8138 H   0  0  0  0  0  0  0  0  0  0  0  0  # atno 10764 bound_to 10752
  153.7594  135.3286  155.3311 H   0  0  0  0  0  0  0  0  0  0  0  0  # atno 10765 bound_to 10752
  141.0499  133.9704  157.2854 H   0  0  0  0  0  0  0  0  0  0  0  0  # atno 11005 bound_to 11000
  145.9734  139.2886  143.1085 LP  0  0  0  0  0  0  0  0  0  0  0  0  # atno 17320 bound_to 7965
  145.9091  140.9192  143.0463 LP  0  0  0  0  0  0  0  0  0  0  0  0  # atno 17321 bound_to 7965
  140.7818  143.4210  151.0842 LP  0  0  0  0  0  0  0  0  0  0  0  0  # atno 17342 bound_to 10162
  139.7878  143.8262  152.3147 LP  0  0  0  0  0  0  0  0  0  0  0  0  # atno 17343 bound_to 10162
  157.3895  130.7274  149.6687 LP  0  0  0  0  0  0  0  0  0  0  0  0  # atno 17370 bound_to 10713
  155.9716  130.4150  150.4161 LP  0  0  0  0  0  0  0  0  0  0  0  0  # atno 17371 bound_to 10713
  139.9342  135.0198  156.8500 LP  0  0  0  0  0  0  0  0  0  0  0  0  # atno 17394 bound_to 11000
  140.6075  134.0113  155.7563 LP  0  0  0  0  0  0  0  0  0  0  0  0  # atno 17395 bound_to 11000

$$$$
