AV-unprocessed.smi:2528|AV-procd|sdf|9957|dock7
  -GOLD-   2272013593D 1   1.00000     0.00000
 Structure written by MMmdl.
 43 45  0  0  0  0  0  0  0  0  1 V2000
  149.9727  133.6681  155.3080 O   0  0  0  0  0  0  0  0  0  0  0  0
  149.4951  134.3930  154.4352 C   0  0  0  0  0  0  0  0  0  0  0  0
  149.7759  135.6990  154.3196 N   0  0  0  0  0  0  0  0  0  0  0  0
  150.6921  136.4475  155.1741 C   0  0  0  0  0  0  0  0  0  0  0  0
  151.4521  137.5271  154.3743 C   0  0  1  0  0  0  0  0  0  0  0  0
  150.6096  138.7895  154.1033 C   0  0  0  0  0  0  0  0  0  0  0  0
  150.4336  139.6224  155.2871 N   0  0  0  0  0  0  0  0  0  0  0  0
  149.6545  140.8203  154.9750 C   0  0  0  0  0  0  0  0  0  0  0  0
  149.4262  141.7120  156.2054 C   0  0  0  0  0  0  0  0  0  0  0  0
  150.7706  142.1041  156.8339 C   0  0  0  0  0  0  0  0  0  0  0  0
  151.6045  140.8454  157.1162 C   0  0  0  0  0  0  0  0  0  0  0  0
  151.7401  139.9741  155.8498 C   0  0  1  0  0  0  0  0  0  0  0  0
  152.5632  138.7085  156.1562 C   0  0  0  0  0  0  0  0  0  0  0  0
  152.6871  137.8983  154.9897 O   0  0  0  0  0  0  0  0  0  0  0  0
  148.6355  133.9954  153.4805 N   0  0  0  0  0  0  0  0  0  0  0  0
  148.0935  132.6991  153.2702 C   0  0  0  0  0  0  0  0  0  0  0  0
  146.9471  132.6560  152.4446 C   0  0  0  0  0  0  0  0  0  0  0  0
  146.3322  131.4177  152.1758 C   0  0  0  0  0  0  0  0  0  0  0  0
  146.8803  130.2522  152.7403 C   0  0  0  0  0  0  0  0  0  0  0  0
  148.0229  130.3823  153.5509 C   0  0  0  0  0  0  0  0  0  0  0  0
  148.6135  131.5681  153.8098 N   0  0  0  0  0  0  0  0  0  0  0  0
  149.3349  136.2141  153.5719 H   0  0  0  0  0  0  0  0  0  0  0  0
  150.0900  136.9285  155.9452 H   0  0  0  0  0  0  0  0  0  0  0  0
  151.3752  135.7826  155.7040 H   0  0  0  0  0  0  0  0  0  0  0  0
  151.7073  137.0929  153.4069 H   0  0  0  0  0  0  0  0  0  0  0  0
  151.1009  139.3734  153.3234 H   0  0  0  0  0  0  0  0  0  0  0  0
  149.6369  138.5028  153.7018 H   0  0  0  0  0  0  0  0  0  0  0  0
  150.1595  141.3987  154.1996 H   0  0  0  0  0  0  0  0  0  0  0  0
  148.6875  140.5305  154.5624 H   0  0  0  0  0  0  0  0  0  0  0  0
  148.8673  142.6052  155.9249 H   0  0  0  0  0  0  0  0  0  0  0  0
  148.8176  141.1791  156.9372 H   0  0  0  0  0  0  0  0  0  0  0  0
  151.3158  142.7597  156.1539 H   0  0  0  0  0  0  0  0  0  0  0  0
  150.6109  142.6679  157.7533 H   0  0  0  0  0  0  0  0  0  0  0  0
  152.5903  141.1317  157.4847 H   0  0  0  0  0  0  0  0  0  0  0  0
  151.1310  140.2685  157.9121 H   0  0  0  0  0  0  0  0  0  0  0  0
  152.2918  140.5523  155.1064 H   0  0  0  0  0  0  0  0  0  0  0  0
  153.5636  138.9792  156.4940 H   0  0  0  0  0  0  0  0  0  0  0  0
  152.1064  138.1395  156.9656 H   0  0  0  0  0  0  0  0  0  0  0  0
  148.3326  134.7031  152.8282 H   0  0  0  0  0  0  0  0  0  0  0  0
  146.5389  133.5612  152.0189 H   0  0  0  0  0  0  0  0  0  0  0  0
  145.4556  131.3638  151.5475 H   0  0  0  0  0  0  0  0  0  0  0  0
  146.4371  129.2843  152.5575 H   0  0  0  0  0  0  0  0  0  0  0  0
  148.4748  129.5124  154.0038 H   0  0  0  0  0  0  0  0  0  0  0  0
  1  2  2  0  0  0  0
  2  3  1  0  0  0  0
  2 15  1  0  0  0  0
  3  4  1  0  0  0  0
  3 22  1  0  0  0  0
  4  5  1  0  0  0  0
  4 23  1  0  0  0  0
  4 24  1  0  0  0  0
  5 14  1  0  0  0  0
  5  6  1  0  0  0  0
  5 25  1  0  0  0  0
  6  7  1  0  0  0  0
  6 26  1  0  0  0  0
  6 27  1  0  0  0  0
  7 12  1  0  0  0  0
  7  8  1  0  0  0  0
  8  9  1  0  0  0  0
  8 28  1  0  0  0  0
  8 29  1  0  0  0  0
  9 10  1  0  0  0  0
  9 30  1  0  0  0  0
  9 31  1  0  0  0  0
 10 11  1  0  0  0  0
 10 32  1  0  0  0  0
 10 33  1  0  0  0  0
 11 12  1  0  0  0  0
 11 34  1  0  0  0  0
 11 35  1  0  0  0  0
 12 13  1  0  0  0  0
 12 36  1  0  0  0  0
 13 14  1  0  0  0  0
 13 37  1  0  0  0  0
 13 38  1  0  0  0  0
 15 16  1  0  0  0  0
 15 39  1  0  0  0  0
 16 21  1  0  0  0  0
 16 17  2  0  0  0  0
 17 18  1  0  0  0  0
 17 40  1  0  0  0  0
 18 19  2  0  0  0  0
 18 41  1  0  0  0  0
 19 20  1  0  0  0  0
 19 42  1  0  0  0  0
 20 21  2  0  0  0  0
 20 43  1  0  0  0  0
M  END
> <s_m_source_file>
AV-unprocessed.smi

> <i_m_source_file_index>
2528

> <i_lp_mmshare_version>
43012

> <i_f3d_flags>
0

> <s_epik_input>
bjFbY0hdW2NIXVtjSF1bY0hdYzFbTkhdQyg9TylbTkhdW0NIMl1bQ0BIXShbQ0gyXTIpT1tDSDJdW0NAQEhdKE4yMylbQ0gyXVtDSDJdW0NIMl1bQ0gyXTM=

> <s_epik_cmdline>
J2VwaWtfcHl0aG9uJywgJy1waCcsICc3LjAnLCAnLXRuJywgJzgnLCAnLW1hJywgJzIwMCcsICctbWV0YWxfYmluZGluZycsICctaW1hZScsICc8aW5maWxlLm1hZT4nLCAnLW9tYWUnLCAnPG91dGZpbGUubWFlPic=

> <r_epik_Ionization_Penalty>
1.14192

> <r_epik_Ionization_Penalty_Charging>
0

> <r_epik_Ionization_Penalty_Neutral>
1.14192

> <r_epik_State_Penalty>
1.20248

> <r_epik_Charging_Adjusted_Penalty>
1.20248

> <i_epik_Tot_Q>
0

> <i_epik_Tot_abs_Q>
0

> <r_epik_Metal_State_Penalty>
1.20248

> <b_epik_Metal_Only>
0

> <s_lp_Force_Field>
OPLS_2005

> <r_lp_Energy>
38.6775

> <b_lp_Chiralities_Consistent>
1

> <s_lp_Variant>
AV-unprocessed.smi:2528-10

> <Gold.Version>
5.8.1

> <Gold.Id.Protein>
6NUR|6NUR_protein|mol2

> <Gold.PLP.Fitness>
41.9197

> <Gold.PLP.PLP>
-37.1394

> <Gold.PLP.part.hbond>
-3.4994

> <Gold.PLP.part.metal>
0.0000

> <Gold.PLP.part.buried>
-1.8838

> <Gold.PLP.part.nonpolar>
-31.4984

> <Gold.PLP.part.repulsive>
0.2334

> <Gold.PLP.ligand.clash>
0.0000

> <Gold.PLP.ligand.torsion>
0.4461

> <Gold.PLP.Chemscore.Hbond>
1.8880

> <Gold.PLP.Chemscore.CHOScore>
0.0000

> <Gold.PLP.Chemscore.Metal>
0.0000

> <Gold.Chemscore.Hbonds>
donor molecule, donor type, donor heavy atom, donor atom, acceptor molecule, acceptor atom, score
      L1  H     3    22       P1  7948  0.88
      L1  H    15    39       P1  7948  0.83

> <Gold.PLP.Chemscore.Internal.Correction>
0.0085

> <Gold.Rescore>
     Score         DG    S(hbond)    S(metal)    S(lipo)     H(rot)  DE(clash)    DE(int)     intcor
     15.25     -16.90       1.52        0.00      81.92       1.27       0.10       1.55       ----

> <Gold.Chemscore.Fitness>
15.2524

> <Gold.Chemscore.DG>
-16.8998

> <Gold.Chemscore.ZeroCoef>
-5.4800

> <Gold.Chemscore.Hbond>
1.5226

> <Gold.Chemscore.Metal>
0.0000

> <Gold.Chemscore.Lipo>
81.9194

> <Gold.Chemscore.Internal_Hbond>
0.0000

> <Gold.Chemscore.DEClash>
0.0961

> <Gold.Chemscore.DEInternal>
1.5512

> <Gold.Chemscore.Rot>
1.2696

> <Gold.Chemscore.Internal.Correction>
   9.000000E+99

> <Gold.Chemscore.Hbonds>
donor molecule, donor type, donor heavy atom, donor atom, acceptor molecule, acceptor atom, score
      L1  H     3    22       P1  7948  0.68
      L1  H    15    39       P1  7948  0.42

> <Gold.Chemscore.Hbond.Weighted>
-5.0854

> <Gold.Chemscore.Metal.Weighted>
-0.0000

> <Gold.Chemscore.Lipo.Weighted>
-9.5846

> <Gold.Chemscore.Internal_Hbond.Weighted>
0.0000

> <Gold.Chemscore.DEClash.Weighted>
0.0961

> <Gold.Chemscore.DEInternal.Weighted>
1.5512

> <Gold.Chemscore.Rot.Weighted>
3.2502

> <Gold.Chemscore.Internal.Correction.Weighted>
   9.000000E+99

> <Gold.Protein.RotatedTorsions>
[ 6907 6896 6895 6894 ] final -111.80 input  -60.11 | X-H torsion
[ 7974 7965 7964 7962 ] final   91.58 input  175.53 | X-H torsion
[ 8008 7997 7996 7995 ] final   22.93 input   59.86 | X-H torsion
[ 10167 10162 10161 10158 ] final   93.41 input  -65.29 | X-H torsion
[ 10718 10713 10712 10709 ] final -109.06 input   66.30 | X-H torsion
[ 10763 10752 10751 10750 ] final  160.09 input  -60.55 | X-H torsion
[ 11005 11000 10999 10996 ] final    8.57 input  -57.11 | X-H torsion

> <Gold.Protein.ActiveResidues>
 VAL166  LYS551  ARG553  GLY616  TRP617  ASP618  TYR619  PRO620  LYS621  CYS622 
 ASP623  PHE694  ASN695  SER759  ASP760  ASP761  ALA762  ILE779  LEU786  VAL792 
 PHE793  MET794  SER795  GLU796  ALA797  LYS798  CYS799  TRP800  GLU811  SER814 

> <Gold.Protein.RotatedAtoms>
  150.7715  133.9182  159.3389 H   0  0  0  0  0  0  0  0  0  0  0  0  # atno 6907 bound_to 6896
  151.7067  135.0918  160.0270 H   0  0  0  0  0  0  0  0  0  0  0  0  # atno 6908 bound_to 6896
  152.3734  133.6411  159.6140 H   0  0  0  0  0  0  0  0  0  0  0  0  # atno 6909 bound_to 6896
  145.5037  139.2276  143.2763 H   0  0  0  0  0  0  0  0  0  0  0  0  # atno 7974 bound_to 7965
  154.9731  140.3092  155.4979 H   0  0  0  0  0  0  0  0  0  0  0  0  # atno 8008 bound_to 7997
  156.2963  140.2280  156.4764 H   0  0  0  0  0  0  0  0  0  0  0  0  # atno 8009 bound_to 7997
  154.7858  140.0443  157.1151 H   0  0  0  0  0  0  0  0  0  0  0  0  # atno 8010 bound_to 7997
  139.8182  144.6743  150.9552 H   0  0  0  0  0  0  0  0  0  0  0  0  # atno 10167 bound_to 10162
  156.0517  130.5745  150.8048 H   0  0  0  0  0  0  0  0  0  0  0  0  # atno 10718 bound_to 10713
  154.2420  135.2774  155.2850 H   0  0  0  0  0  0  0  0  0  0  0  0  # atno 10763 bound_to 10752
  154.5537  135.5667  153.6948 H   0  0  0  0  0  0  0  0  0  0  0  0  # atno 10764 bound_to 10752
  152.9998  135.6281  154.2564 H   0  0  0  0  0  0  0  0  0  0  0  0  # atno 10765 bound_to 10752
  140.5355  134.0425  155.7887 H   0  0  0  0  0  0  0  0  0  0  0  0  # atno 11005 bound_to 11000
  146.2210  140.5840  142.9017 LP  0  0  0  0  0  0  0  0  0  0  0  0  # atno 17320 bound_to 7965
  144.7766  140.5751  143.6634 LP  0  0  0  0  0  0  0  0  0  0  0  0  # atno 17321 bound_to 7965
  140.7814  143.4117  151.0982 LP  0  0  0  0  0  0  0  0  0  0  0  0  # atno 17342 bound_to 10162
  139.7780  143.8397  152.3132 LP  0  0  0  0  0  0  0  0  0  0  0  0  # atno 17343 bound_to 10162
  157.5450  131.0942  150.9775 LP  0  0  0  0  0  0  0  0  0  0  0  0  # atno 17370 bound_to 10713
  157.0048  130.5614  149.5315 LP  0  0  0  0  0  0  0  0  0  0  0  0  # atno 17371 bound_to 10713
  141.1257  133.9387  157.2640 LP  0  0  0  0  0  0  0  0  0  0  0  0  # atno 17394 bound_to 11000
  139.9531  135.0171  156.9052 LP  0  0  0  0  0  0  0  0  0  0  0  0  # atno 17395 bound_to 11000

$$$$
