AV-unprocessed.smi:2058|AV-procd|sdf|8347|dock3
  -GOLD-   2272011 13D 1   1.00000     0.00000
 Structure written by MMmdl.
 43 44  0  0  0  0  0  0  0  0  2 V2000
  146.2066  137.0717  150.6841 C   0  0  0  0  0  0  0  0  0  0  0  0
  146.0335  138.0101  151.8925 C   0  0  1  0  0  0  0  0  0  0  0  0
  144.9429  137.5365  152.8761 C   0  0  0  0  0  0  0  0  0  0  0  0
  143.6604  137.7456  152.3243 O   0  0  0  0  0  0  0  0  0  0  0  0
  147.3086  138.2580  152.5681 N   0  0  0  0  0  0  0  0  0  0  0  0
  147.6054  139.2794  153.3873 C   0  0  0  0  0  0  0  0  0  0  0  0
  146.8157  140.1778  153.6766 O   0  0  0  0  0  0  0  0  0  0  0  0
  148.8611  139.1741  153.8548 N   0  0  0  0  0  0  0  0  0  0  0  0
  149.5464  140.0433  154.7456 C   0  0  0  0  0  0  0  0  0  0  0  0
  150.7897  139.6135  155.2578 C   0  0  0  0  0  0  0  0  0  0  0  0
  151.5119  140.4482  156.1348 C   0  0  0  0  0  0  0  0  0  0  0  0
  150.9819  141.7119  156.4805 C   0  0  0  0  0  0  0  0  0  0  0  0
  151.6258  142.6068  157.3450 N   0  0  0  0  0  0  0  0  0  0  0  0
  151.6338  143.9772  156.8391 C   0  0  0  0  0  0  0  0  0  0  0  0
  152.5114  144.8811  157.7222 C   0  0  0  0  0  0  0  0  0  0  0  0
  152.0748  144.8020  159.1938 C   0  0  0  0  0  0  0  0  0  0  0  0
  152.0540  143.3389  159.6644 C   0  0  0  0  0  0  0  0  0  0  0  0
  151.1873  142.4747  158.7322 C   0  0  0  0  0  0  0  0  0  0  0  0
  149.7961  142.0949  155.9590 N   0  3  0  0  0  0  0  0  0  0  0  0
  149.0719  141.3252  155.1177 C   0  0  0  0  0  0  0  0  0  0  0  0
  145.2785  136.9888  150.1183 H   0  0  0  0  0  0  0  0  0  0  0  0
  146.4942  136.0653  150.9889 H   0  0  0  0  0  0  0  0  0  0  0  0
  146.9720  137.4459  150.0036 H   0  0  0  0  0  0  0  0  0  0  0  0
  145.7339  138.9870  151.5102 H   0  0  0  0  0  0  0  0  0  0  0  0
  145.0622  136.4825  153.1288 H   0  0  0  0  0  0  0  0  0  0  0  0
  144.9970  138.1005  153.8079 H   0  0  0  0  0  0  0  0  0  0  0  0
  143.5552  138.6690  152.1525 H   0  0  0  0  0  0  0  0  0  0  0  0
  148.0323  137.5746  152.4000 H   0  0  0  0  0  0  0  0  0  0  0  0
  149.3639  138.3406  153.5875 H   0  0  0  0  0  0  0  0  0  0  0  0
  151.1879  138.6462  154.9877 H   0  0  0  0  0  0  0  0  0  0  0  0
  152.4599  140.1185  156.5343 H   0  0  0  0  0  0  0  0  0  0  0  0
  152.0050  143.9889  155.8134 H   0  0  0  0  0  0  0  0  0  0  0  0
  150.6141  144.3639  156.8147 H   0  0  0  0  0  0  0  0  0  0  0  0
  153.5547  144.5748  157.6342 H   0  0  0  0  0  0  0  0  0  0  0  0
  152.4603  145.9117  157.3698 H   0  0  0  0  0  0  0  0  0  0  0  0
  152.7464  145.3908  159.8193 H   0  0  0  0  0  0  0  0  0  0  0  0
  151.0811  145.2373  159.3056 H   0  0  0  0  0  0  0  0  0  0  0  0
  153.0721  142.9474  159.6839 H   0  0  0  0  0  0  0  0  0  0  0  0
  151.6792  143.2783  160.6865 H   0  0  0  0  0  0  0  0  0  0  0  0
  150.1425  142.7773  158.8158 H   0  0  0  0  0  0  0  0  0  0  0  0
  151.2434  141.4290  159.0382 H   0  0  0  0  0  0  0  0  0  0  0  0
  148.1527  141.7735  154.7717 H   0  0  0  0  0  0  0  0  0  0  0  0
  149.4290  143.0129  156.2113 H   0  0  0  0  0  0  0  0  0  0  0  0
  1  2  1  0  0  0  0
  1 21  1  0  0  0  0
  1 22  1  0  0  0  0
  1 23  1  0  0  0  0
  2  3  1  0  0  0  0
  2  5  1  0  0  0  0
  2 24  1  0  0  0  0
  3  4  1  0  0  0  0
  3 25  1  0  0  0  0
  3 26  1  0  0  0  0
  4 27  1  0  0  0  0
  5  6  1  0  0  0  0
  5 28  1  0  0  0  0
  6  7  2  0  0  0  0
  6  8  1  0  0  0  0
  8  9  1  0  0  0  0
  8 29  1  0  0  0  0
  9 20  1  0  0  0  0
  9 10  2  0  0  0  0
 10 11  1  0  0  0  0
 10 30  1  0  0  0  0
 11 12  2  0  0  0  0
 11 31  1  0  0  0  0
 12 13  1  0  0  0  0
 12 19  1  0  0  0  0
 13 18  1  0  0  0  0
 13 14  1  0  0  0  0
 14 15  1  0  0  0  0
 14 32  1  0  0  0  0
 14 33  1  0  0  0  0
 15 16  1  0  0  0  0
 15 34  1  0  0  0  0
 15 35  1  0  0  0  0
 16 17  1  0  0  0  0
 16 36  1  0  0  0  0
 16 37  1  0  0  0  0
 17 18  1  0  0  0  0
 17 38  1  0  0  0  0
 17 39  1  0  0  0  0
 18 40  1  0  0  0  0
 18 41  1  0  0  0  0
 19 20  2  0  0  0  0
 19 43  1  0  0  0  0
 20 42  1  0  0  0  0
M  CHG  1  19   1
M  END
> <s_m_source_file>
AV-unprocessed.smi

> <i_m_source_file_index>
2058

> <i_lp_mmshare_version>
43012

> <i_f3d_flags>
0

> <s_epik_input>
W09IXVtDSDJdW0NAQEhdKFtDSDNdKVtOSF1DKD1PKVtOSF1jMVtjSF1bY0hdYyhuW2NIXTEpTjJbQ0gyXVtDSDJdW0NIMl1bQ0gyXVtDSDJdMg==

> <s_epik_cmdline>
J2VwaWtfcHl0aG9uJywgJy1waCcsICc3LjAnLCAnLXRuJywgJzgnLCAnLW1hJywgJzIwMCcsICctbWV0YWxfYmluZGluZycsICctaW1hZScsICc8aW5maWxlLm1hZT4nLCAnLW9tYWUnLCAnPG91dGZpbGUubWFlPic=

> <r_lp_tautomer_probability>
0.999994

> <r_epik_Ionization_Penalty>
1.11069

> <r_epik_Ionization_Penalty_Charging>
1.11067

> <r_epik_Ionization_Penalty_Neutral>
2.03008e-05

> <r_epik_State_Penalty>
1.16863

> <r_epik_Charging_Adjusted_Penalty>
2.27929

> <i_epik_Tot_Q>
1

> <i_epik_Tot_abs_Q>
1

> <r_epik_Metal_State_Penalty>
1.25471

> <b_epik_Metal_Only>
0

> <s_lp_Force_Field>
OPLS_2005

> <r_lp_Energy>
26.1115

> <b_lp_Chiralities_Consistent>
1

> <s_lp_Variant>
AV-unprocessed.smi:2058-4

> <Gold.Version>
5.8.1

> <Gold.Id.Protein>
6NUR|6NUR_protein|mol2

> <Gold.PLP.Fitness>
49.3479

> <Gold.PLP.PLP>
-39.4066

> <Gold.PLP.part.hbond>
-5.4564

> <Gold.PLP.part.metal>
0.0000

> <Gold.PLP.part.buried>
4.3694

> <Gold.PLP.part.nonpolar>
-37.8647

> <Gold.PLP.part.repulsive>
0.4610

> <Gold.PLP.ligand.clash>
0.0000

> <Gold.PLP.ligand.torsion>
0.9097

> <Gold.PLP.Chemscore.Hbond>
3.8560

> <Gold.PLP.Chemscore.CHOScore>
0.0000

> <Gold.PLP.Chemscore.Metal>
0.0000

> <Gold.Chemscore.Hbonds>
donor molecule, donor type, donor heavy atom, donor atom, acceptor molecule, acceptor atom, score
      L1  H     4    27       P1 10175  1.00
      L1  H     5    28       P1  7948  1.00
      L1  H    19    43       P1  8028  1.95

> <Gold.PLP.Chemscore.Internal.Correction>
0.1927

> <Gold.Rescore>
     Score         DG    S(hbond)    S(metal)    S(lipo)     H(rot)  DE(clash)    DE(int)     intcor
     17.50     -22.55       2.82        0.00     110.70       2.08       2.86       2.19       ----

> <Gold.Chemscore.Fitness>
17.4957

> <Gold.Chemscore.DG>
-22.5451

> <Gold.Chemscore.ZeroCoef>
-5.4800

> <Gold.Chemscore.Hbond>
2.8232

> <Gold.Chemscore.Metal>
0.0000

> <Gold.Chemscore.Lipo>
110.7015

> <Gold.Chemscore.Internal_Hbond>
0.0000

> <Gold.Chemscore.DEClash>
2.8624

> <Gold.Chemscore.DEInternal>
2.1870

> <Gold.Chemscore.Rot>
2.0767

> <Gold.Chemscore.Internal.Correction>
   9.000000E+99

> <Gold.Chemscore.Hbonds>
donor molecule, donor type, donor heavy atom, donor atom, acceptor molecule, acceptor atom, score
      L1  H     4    27       P1 10175  0.99
      L1  H     5    28       P1  7948  1.00
      L1  H    19    43       P1  8028  0.92

> <Gold.Chemscore.Hbond.Weighted>
-9.4294

> <Gold.Chemscore.Metal.Weighted>
-0.0000

> <Gold.Chemscore.Lipo.Weighted>
-12.9521

> <Gold.Chemscore.Internal_Hbond.Weighted>
0.0000

> <Gold.Chemscore.DEClash.Weighted>
2.8624

> <Gold.Chemscore.DEInternal.Weighted>
2.1870

> <Gold.Chemscore.Rot.Weighted>
5.3164

> <Gold.Chemscore.Internal.Correction.Weighted>
   9.000000E+99

> <Gold.Protein.RotatedTorsions>
[ 6907 6896 6895 6894 ] final -108.34 input  -60.11 | X-H torsion
[ 7974 7965 7964 7962 ] final  150.21 input  175.53 | X-H torsion
[ 8008 7997 7996 7995 ] final   18.00 input   59.86 | X-H torsion
[ 10167 10162 10161 10158 ] final  122.74 input  -65.29 | X-H torsion
[ 10718 10713 10712 10709 ] final  178.08 input   66.30 | X-H torsion
[ 10763 10752 10751 10750 ] final   61.15 input  -60.55 | X-H torsion
[ 11005 11000 10999 10996 ] final  103.98 input  -57.11 | X-H torsion

> <Gold.Protein.ActiveResidues>
 VAL166  LYS551  ARG553  GLY616  TRP617  ASP618  TYR619  PRO620  LYS621  CYS622 
 ASP623  PHE694  ASN695  SER759  ASP760  ASP761  ALA762  ILE779  LEU786  VAL792 
 PHE793  MET794  SER795  GLU796  ALA797  LYS798  CYS799  TRP800  GLU811  SER814 

> <Gold.Protein.RotatedAtoms>
  150.7496  133.9692  159.3539 H   0  0  0  0  0  0  0  0  0  0  0  0  # atno 6907 bound_to 6896
  151.7624  135.0805  160.0357 H   0  0  0  0  0  0  0  0  0  0  0  0  # atno 6908 bound_to 6896
  152.3394  133.6012  159.5902 H   0  0  0  0  0  0  0  0  0  0  0  0  # atno 6909 bound_to 6896
  144.8380  139.6380  143.6029 H   0  0  0  0  0  0  0  0  0  0  0  0  # atno 7974 bound_to 7965
  154.8997  140.2999  155.5325 H   0  0  0  0  0  0  0  0  0  0  0  0  # atno 8008 bound_to 7997
  156.3019  140.2409  156.3958 H   0  0  0  0  0  0  0  0  0  0  0  0  # atno 8009 bound_to 7997
  154.8534  140.0408  157.1608 H   0  0  0  0  0  0  0  0  0  0  0  0  # atno 8010 bound_to 7997
  139.5840  144.6999  151.3455 H   0  0  0  0  0  0  0  0  0  0  0  0  # atno 10167 bound_to 10162
  156.8958  130.9862  151.3043 H   0  0  0  0  0  0  0  0  0  0  0  0  # atno 10718 bound_to 10713
  152.9942  135.5511  154.5988 H   0  0  0  0  0  0  0  0  0  0  0  0  # atno 10763 bound_to 10752
  154.5334  135.2815  155.1162 H   0  0  0  0  0  0  0  0  0  0  0  0  # atno 10764 bound_to 10752
  154.2468  135.6406  153.5279 H   0  0  0  0  0  0  0  0  0  0  0  0  # atno 10765 bound_to 10752
  139.8788  134.9283  156.5291 H   0  0  0  0  0  0  0  0  0  0  0  0  # atno 11005 bound_to 11000
  146.2677  139.6559  142.9318 LP  0  0  0  0  0  0  0  0  0  0  0  0  # atno 17320 bound_to 7965
  145.4753  141.0437  143.2676 LP  0  0  0  0  0  0  0  0  0  0  0  0  # atno 17321 bound_to 7965
  140.7115  143.7378  150.7575 LP  0  0  0  0  0  0  0  0  0  0  0  0  # atno 17342 bound_to 10162
  140.0918  143.4870  152.2474 LP  0  0  0  0  0  0  0  0  0  0  0  0  # atno 17343 bound_to 10162
  157.6056  130.8545  149.8870 LP  0  0  0  0  0  0  0  0  0  0  0  0  # atno 17370 bound_to 10713
  156.0606  130.3700  150.0990 LP  0  0  0  0  0  0  0  0  0  0  0  0  # atno 17371 bound_to 10713
  140.8394  133.8217  155.9060 LP  0  0  0  0  0  0  0  0  0  0  0  0  # atno 17394 bound_to 11000
  140.9252  134.2091  157.4900 LP  0  0  0  0  0  0  0  0  0  0  0  0  # atno 17395 bound_to 11000

$$$$
