AV-unprocessed.smi:104|AV-procd|sdf|1003|dock1
  -GOLD-   2262017593D 1   1.00000     0.00000
 Structure written by MMmdl.
 47 49  0  0  0  0  0  0  0  0  1 V2000
  153.1564  139.0129  155.1533 C   0  0  0  0  0  0  0  0  0  0  0  0
  151.6556  138.7987  155.0082 C   0  0  0  0  0  0  0  0  0  0  0  0
  150.9338  139.6574  154.5028 O   0  0  0  0  0  0  0  0  0  0  0  0
  151.2597  137.6055  155.4850 O   0  0  0  0  0  0  0  0  0  0  0  0
  149.8930  137.2178  155.4364 C   0  0  0  0  0  0  0  0  0  0  0  0
  149.6500  135.9669  156.2998 C   0  0  2  0  0  0  0  0  0  0  0  0
  150.7627  135.0904  156.2623 O   0  0  0  0  0  0  0  0  0  0  0  0
  150.3514  133.8755  156.7993 C   0  0  2  0  0  0  0  0  0  0  0  0
  151.1544  132.7855  156.1719 N   0  0  0  0  0  0  0  0  0  0  0  0
  151.1479  132.3316  154.8726 C   0  0  0  0  0  0  0  0  0  0  0  0
  150.0220  133.0838  153.5329 Br  0  0  0  0  0  0  0  0  0  0  0  0
  151.9643  131.3581  154.5793 N   0  0  0  0  0  0  0  0  0  0  0  0
  152.5997  131.1154  155.7912 C   0  0  0  0  0  0  0  0  0  0  0  0
  153.6025  130.2071  156.2145 C   0  0  0  0  0  0  0  0  0  0  0  0
  154.1732  129.3137  155.3949 N   0  0  0  0  0  0  0  0  0  0  0  0
  154.0054  130.2434  157.5065 N   0  0  0  0  0  0  0  0  0  0  0  0
  153.4533  131.1260  158.3452 C   0  0  0  0  0  0  0  0  0  0  0  0
  152.5071  132.0352  158.0967 N   0  0  0  0  0  0  0  0  0  0  0  0
  152.1019  131.9981  156.7934 C   0  0  0  0  0  0  0  0  0  0  0  0
  148.8605  133.7036  156.4660 C   0  0  1  0  0  0  0  0  0  0  0  0
  148.1070  133.4114  157.6348 O   0  0  0  0  0  0  0  0  0  0  0  0
  148.2022  134.2073  158.7141 C   0  0  0  0  0  0  0  0  0  0  0  0
  147.2318  133.8079  159.8173 C   0  0  0  0  0  0  0  0  0  0  0  0
  148.9624  135.1673  158.8425 O   0  0  0  0  0  0  0  0  0  0  0  0
  148.4637  135.0727  155.9171 C   0  0  2  0  0  0  0  0  0  0  0  0
  148.3018  134.9993  154.5052 O   0  0  0  0  0  0  0  0  0  0  0  0
  147.2671  134.3282  153.9710 C   0  0  0  0  0  0  0  0  0  0  0  0
  147.3172  134.3056  152.4494 C   0  0  0  0  0  0  0  0  0  0  0  0
  146.3622  133.7747  154.5957 O   0  0  0  0  0  0  0  0  0  0  0  0
  153.3803  139.4607  156.1215 H   0  0  0  0  0  0  0  0  0  0  0  0
  153.5225  139.6781  154.3713 H   0  0  0  0  0  0  0  0  0  0  0  0
  153.6908  138.0656  155.0769 H   0  0  0  0  0  0  0  0  0  0  0  0
  149.2143  138.0320  155.6937 H   0  0  0  0  0  0  0  0  0  0  0  0
  149.6798  136.9681  154.3970 H   0  0  0  0  0  0  0  0  0  0  0  0
  149.5380  136.2745  157.3415 H   0  0  0  0  0  0  0  0  0  0  0  0
  150.5706  133.8433  157.8666 H   0  0  0  0  0  0  0  0  0  0  0  0
  153.8908  129.2678  154.4263 H   0  0  0  0  0  0  0  0  0  0  0  0
  154.8861  128.6907  155.7457 H   0  0  0  0  0  0  0  0  0  0  0  0
  153.8216  131.1013  159.3601 H   0  0  0  0  0  0  0  0  0  0  0  0
  148.7240  132.9303  155.7078 H   0  0  0  0  0  0  0  0  0  0  0  0
  146.2052  133.9931  159.5014 H   0  0  0  0  0  0  0  0  0  0  0  0
  147.4237  134.3837  160.7229 H   0  0  0  0  0  0  0  0  0  0  0  0
  147.3380  132.7488  160.0525 H   0  0  0  0  0  0  0  0  0  0  0  0
  147.5460  135.4510  156.3713 H   0  0  0  0  0  0  0  0  0  0  0  0
  147.2048  135.3151  152.0536 H   0  0  0  0  0  0  0  0  0  0  0  0
  146.5156  133.6850  152.0485 H   0  0  0  0  0  0  0  0  0  0  0  0
  148.2707  133.9026  152.1080 H   0  0  0  0  0  0  0  0  0  0  0  0
  1  2  1  0  0  0  0
  1 30  1  0  0  0  0
  1 31  1  0  0  0  0
  1 32  1  0  0  0  0
  2  3  2  0  0  0  0
  2  4  1  0  0  0  0
  4  5  1  0  0  0  0
  5  6  1  0  0  0  0
  5 33  1  0  0  0  0
  5 34  1  0  0  0  0
  6 25  1  0  0  0  0
  6  7  1  0  0  0  0
  6 35  1  0  0  0  0
  7  8  1  0  0  0  0
  8  9  1  0  0  0  0
  8 20  1  0  0  0  0
  8 36  1  0  0  0  0
  9 19  1  0  0  0  0
  9 10  1  0  0  0  0
 10 11  1  0  0  0  0
 10 12  2  0  0  0  0
 12 13  1  0  0  0  0
 13 19  2  0  0  0  0
 13 14  1  0  0  0  0
 14 15  1  0  0  0  0
 14 16  2  0  0  0  0
 15 37  1  0  0  0  0
 15 38  1  0  0  0  0
 16 17  1  0  0  0  0
 17 18  2  0  0  0  0
 17 39  1  0  0  0  0
 18 19  1  0  0  0  0
 20 21  1  0  0  0  0
 20 25  1  0  0  0  0
 20 40  1  0  0  0  0
 21 22  1  0  0  0  0
 22 23  1  0  0  0  0
 22 24  2  0  0  0  0
 23 41  1  0  0  0  0
 23 42  1  0  0  0  0
 23 43  1  0  0  0  0
 25 26  1  0  0  0  0
 25 44  1  0  0  0  0
 26 27  1  0  0  0  0
 27 28  1  0  0  0  0
 27 29  2  0  0  0  0
 28 45  1  0  0  0  0
 28 46  1  0  0  0  0
 28 47  1  0  0  0  0
M  END
> <s_m_source_file>
AV-unprocessed.smi

> <i_m_source_file_index>
104

> <i_lp_mmshare_version>
43012

> <i_f3d_flags>
0

> <s_epik_input>
W0NIM11DKD1PKU9bQ0gyXVtDQEBIXTFPW0NASF0oW0NAQEhdKE9DKD1PKVtDSDNdKVtDQEhdMU9DKD1PKVtDSDNdKW4oYyhCciluMiljKGMyMyluW2NIXW5jM1tOSDJd

> <s_epik_cmdline>
J2VwaWtfcHl0aG9uJywgJy1waCcsICc3LjAnLCAnLXRuJywgJzgnLCAnLW1hJywgJzIwMCcsICctbWV0YWxfYmluZGluZycsICctaW1hZScsICc8aW5maWxlLm1hZT4nLCAnLW9tYWUnLCAnPG91dGZpbGUubWFlPic=

> <r_lp_tautomer_probability>
1

> <r_epik_Ionization_Penalty>
7.36622e-05

> <r_epik_Ionization_Penalty_Charging>
0

> <r_epik_Ionization_Penalty_Neutral>
7.36622e-05

> <r_epik_State_Penalty>
-0

> <r_epik_Charging_Adjusted_Penalty>
0

> <i_epik_Tot_Q>
0

> <i_epik_Tot_abs_Q>
0

> <r_epik_Metal_State_Penalty>
-0

> <b_epik_Metal_Only>
0

> <s_epik_Chemistry_Notes>
This compound has an ester and may undergo hydrolysis at high or low pH. This compound contains an acetal/aminal-like group ( X-CH(R)-Y where X, Y are N, S, or O) that may be acid/base labile, releasing an aldehyde.

> <s_lp_Force_Field>
OPLS_2005

> <r_lp_Energy>
15.0278

> <b_lp_Chiralities_Consistent>
1

> <s_lp_Variant>
AV-unprocessed.smi:104-11

> <Gold.Version>
5.8.1

> <Gold.Id.Protein>
6NUR|6NUR_protein|mol2

> <Gold.PLP.Fitness>
36.4635

> <Gold.PLP.PLP>
-28.2520

> <Gold.PLP.part.hbond>
-3.0000

> <Gold.PLP.part.metal>
0.0000

> <Gold.PLP.part.buried>
-3.6995

> <Gold.PLP.part.nonpolar>
-22.3251

> <Gold.PLP.part.repulsive>
0.3596

> <Gold.PLP.ligand.clash>
0.0000

> <Gold.PLP.ligand.torsion>
0.5684

> <Gold.PLP.Chemscore.Hbond>
3.0000

> <Gold.PLP.Chemscore.CHOScore>
0.0000

> <Gold.PLP.Chemscore.Metal>
0.0000

> <Gold.Chemscore.Hbonds>
donor molecule, donor type, donor heavy atom, donor atom, acceptor molecule, acceptor atom, score
      P1  H  6896  6907       L1    18  1.00
      P1  H  6896  6908       L1    24  1.00
      P1  H  7989  7998       L1     3  1.00

> <Gold.PLP.Chemscore.Internal.Correction>
0.3483

> <Gold.Rescore>
     Score         DG    S(hbond)    S(metal)    S(lipo)     H(rot)  DE(clash)    DE(int)     intcor
      3.73      -8.55       2.95        0.00      36.20       4.31       0.01       4.81       ----

> <Gold.Chemscore.Fitness>
3.7302

> <Gold.Chemscore.DG>
-8.5472

> <Gold.Chemscore.ZeroCoef>
-5.4800

> <Gold.Chemscore.Hbond>
2.9512

> <Gold.Chemscore.Metal>
0.0000

> <Gold.Chemscore.Lipo>
36.2045

> <Gold.Chemscore.Internal_Hbond>
0.0000

> <Gold.Chemscore.DEClash>
0.0052

> <Gold.Chemscore.DEInternal>
4.8117

> <Gold.Chemscore.Rot>
4.3070

> <Gold.Chemscore.Internal.Correction>
   9.000000E+99

> <Gold.Chemscore.Hbonds>
donor molecule, donor type, donor heavy atom, donor atom, acceptor molecule, acceptor atom, score
      P1  H  6896  6907       L1    18  0.99
      P1  H  6896  6908       L1    24  0.65
      P1  H  7989  7998       L1     3  0.97

> <Gold.Chemscore.Hbond.Weighted>
-9.8571

> <Gold.Chemscore.Metal.Weighted>
-0.0000

> <Gold.Chemscore.Lipo.Weighted>
-4.2359

> <Gold.Chemscore.Internal_Hbond.Weighted>
0.0000

> <Gold.Chemscore.DEClash.Weighted>
0.0052

> <Gold.Chemscore.DEInternal.Weighted>
4.8117

> <Gold.Chemscore.Rot.Weighted>
11.0259

> <Gold.Chemscore.Internal.Correction.Weighted>
   9.000000E+99

> <Gold.Protein.RotatedTorsions>
[ 6907 6896 6895 6894 ] final  166.17 input  -60.11 | X-H torsion
[ 7974 7965 7964 7962 ] final -117.33 input  175.53 | X-H torsion
[ 8008 7997 7996 7995 ] final -146.15 input   59.86 | X-H torsion
[ 10167 10162 10161 10158 ] final  -66.03 input  -65.29 | X-H torsion
[ 10718 10713 10712 10709 ] final    7.87 input   66.30 | X-H torsion
[ 10763 10752 10751 10750 ] final  155.05 input  -60.55 | X-H torsion
[ 11005 11000 10999 10996 ] final  -83.64 input  -57.11 | X-H torsion

> <Gold.Protein.ActiveResidues>
 VAL166  LYS551  ARG553  GLY616  TRP617  ASP618  TYR619  PRO620  LYS621  CYS622 
 ASP623  PHE694  ASN695  SER759  ASP760  ASP761  ALA762  ILE779  LEU786  VAL792 
 PHE793  MET794  SER795  GLU796  ALA797  LYS798  CYS799  TRP800  GLU811  SER814 

> <Gold.Protein.RotatedAtoms>
  151.8831  133.3499  159.3772 H   0  0  0  0  0  0  0  0  0  0  0  0  # atno 6907 bound_to 6896
  150.7122  134.4998  159.5565 H   0  0  0  0  0  0  0  0  0  0  0  0  # atno 6908 bound_to 6896
  152.2554  134.8090  160.0490 H   0  0  0  0  0  0  0  0  0  0  0  0  # atno 6909 bound_to 6896
  145.0865  140.8461  143.4008 H   0  0  0  0  0  0  0  0  0  0  0  0  # atno 7974 bound_to 7965
  155.5547  140.0620  157.2842 H   0  0  0  0  0  0  0  0  0  0  0  0  # atno 8008 bound_to 7997
  154.4409  140.1896  156.0766 H   0  0  0  0  0  0  0  0  0  0  0  0  # atno 8009 bound_to 7997
  156.0491  140.3286  155.7334 H   0  0  0  0  0  0  0  0  0  0  0  0  # atno 8010 bound_to 7997
  140.5687  143.2316  151.6583 H   0  0  0  0  0  0  0  0  0  0  0  0  # atno 10167 bound_to 10162
  156.9433  130.5869  149.5653 H   0  0  0  0  0  0  0  0  0  0  0  0  # atno 10718 bound_to 10713
  154.1621  135.2809  155.3105 H   0  0  0  0  0  0  0  0  0  0  0  0  # atno 10763 bound_to 10752
  154.6139  135.5490  153.7505 H   0  0  0  0  0  0  0  0  0  0  0  0  # atno 10764 bound_to 10752
  153.0189  135.6422  154.1763 H   0  0  0  0  0  0  0  0  0  0  0  0  # atno 10765 bound_to 10752
  141.1656  133.7305  156.8750 H   0  0  0  0  0  0  0  0  0  0  0  0  # atno 11005 bound_to 11000
  145.1116  139.2753  143.5634 LP  0  0  0  0  0  0  0  0  0  0  0  0  # atno 17320 bound_to 7965
  146.3531  140.0714  142.8623 LP  0  0  0  0  0  0  0  0  0  0  0  0  # atno 17321 bound_to 7965
  139.5106  144.3538  152.0627 LP  0  0  0  0  0  0  0  0  0  0  0  0  # atno 17342 bound_to 10162
  140.2672  144.4003  150.6164 LP  0  0  0  0  0  0  0  0  0  0  0  0  # atno 17343 bound_to 10162
  156.0395  130.5479  150.8735 LP  0  0  0  0  0  0  0  0  0  0  0  0  # atno 17370 bound_to 10713
  157.5770  131.0946  150.9330 LP  0  0  0  0  0  0  0  0  0  0  0  0  # atno 17371 bound_to 10713
  140.1755  134.9070  157.2885 LP  0  0  0  0  0  0  0  0  0  0  0  0  # atno 17394 bound_to 11000
  140.2454  134.3746  155.7463 LP  0  0  0  0  0  0  0  0  0  0  0  0  # atno 17395 bound_to 11000

$$$$
