AV-unprocessed.smi:2340|AV-procd|sdf|9351|dock6
  -GOLD-   2272012573D 1   1.00000     0.00000
 Structure written by MMmdl.
 40 41  0  0  0  0  0  0  0  0  1 V2000
  153.7809  140.1656  160.5931 C   0  0  0  0  0  0  0  0  0  0  0  0
  153.1122  141.4130  160.1082 C   0  0  0  0  0  0  0  0  0  0  0  0
  153.3828  142.7019  160.4941 C   0  0  0  0  0  0  0  0  0  0  0  0
  152.3776  143.8544  159.6588 S   0  0  0  0  0  0  0  0  0  0  0  0
  151.6045  142.5195  158.8083 C   0  0  0  0  0  0  0  0  0  0  0  0
  150.5521  142.6992  157.7540 C   0  0  1  0  0  0  0  0  0  0  0  0
  150.9971  142.1477  156.3920 C   0  0  0  0  0  0  0  0  0  0  0  0
  149.1687  142.1558  158.1842 C   0  0  0  0  0  0  0  0  0  0  0  0
  148.1773  143.2094  158.3858 N   0  0  0  0  0  0  0  0  0  0  0  0
  146.9456  143.0245  158.8784 C   0  0  0  0  0  0  0  0  0  0  0  0
  146.5318  141.9522  159.3194 O   0  0  0  0  0  0  0  0  0  0  0  0
  146.2064  144.1376  158.7865 N   0  0  0  0  0  0  0  0  0  0  0  0
  144.7826  144.2224  159.0934 C   0  0  1  0  0  0  0  0  0  0  0  0
  144.4960  143.8556  160.5357 C   0  0  0  0  0  0  0  0  0  0  0  0
  143.1921  144.5997  160.8199 C   0  0  0  0  0  0  0  0  0  0  0  0
  143.1223  145.6715  159.8832 O   0  0  0  0  0  0  0  0  0  0  0  0
  144.2719  145.6669  159.0451 C   0  0  2  0  0  0  0  0  0  0  0  0
  143.9094  146.1725  157.6432 C   0  0  0  0  0  0  0  0  0  0  0  0
  152.0962  141.3259  159.1537 N   0  0  0  0  0  0  0  0  0  0  0  0
  154.5859  140.3903  161.2931 H   0  0  0  0  0  0  0  0  0  0  0  0
  154.2128  139.6039  159.7643 H   0  0  0  0  0  0  0  0  0  0  0  0
  153.0726  139.5122  161.1029 H   0  0  0  0  0  0  0  0  0  0  0  0
  154.1144  143.0433  161.2114 H   0  0  0  0  0  0  0  0  0  0  0  0
  150.4377  143.7757  157.6169 H   0  0  0  0  0  0  0  0  0  0  0  0
  151.9309  142.6086  156.0689 H   0  0  0  0  0  0  0  0  0  0  0  0
  150.2480  142.3473  155.6252 H   0  0  0  0  0  0  0  0  0  0  0  0
  151.1526  141.0692  156.4296 H   0  0  0  0  0  0  0  0  0  0  0  0
  148.7996  141.4252  157.4628 H   0  0  0  0  0  0  0  0  0  0  0  0
  149.2660  141.6293  159.1339 H   0  0  0  0  0  0  0  0  0  0  0  0
  148.4202  144.1300  158.0502 H   0  0  0  0  0  0  0  0  0  0  0  0
  146.6406  144.9674  158.4096 H   0  0  0  0  0  0  0  0  0  0  0  0
  144.1878  143.5837  158.4371 H   0  0  0  0  0  0  0  0  0  0  0  0
  144.4151  142.7799  160.6962 H   0  0  0  0  0  0  0  0  0  0  0  0
  145.2818  144.2372  161.1898 H   0  0  0  0  0  0  0  0  0  0  0  0
  142.3338  143.9462  160.6605 H   0  0  0  0  0  0  0  0  0  0  0  0
  143.1488  144.9694  161.8448 H   0  0  0  0  0  0  0  0  0  0  0  0
  145.0074  146.3347  159.4978 H   0  0  0  0  0  0  0  0  0  0  0  0
  144.7849  146.1999  156.9947 H   0  0  0  0  0  0  0  0  0  0  0  0
  143.5016  147.1825  157.6877 H   0  0  0  0  0  0  0  0  0  0  0  0
  143.1635  145.5315  157.1727 H   0  0  0  0  0  0  0  0  0  0  0  0
  1  2  1  0  0  0  0
  1 20  1  0  0  0  0
  1 21  1  0  0  0  0
  1 22  1  0  0  0  0
  2 19  1  0  0  0  0
  2  3  2  0  0  0  0
  3  4  1  0  0  0  0
  3 23  1  0  0  0  0
  4  5  1  0  0  0  0
  5  6  1  0  0  0  0
  5 19  2  0  0  0  0
  6  7  1  0  0  0  0
  6  8  1  0  0  0  0
  6 24  1  0  0  0  0
  7 25  1  0  0  0  0
  7 26  1  0  0  0  0
  7 27  1  0  0  0  0
  8  9  1  0  0  0  0
  8 28  1  0  0  0  0
  8 29  1  0  0  0  0
  9 10  1  0  0  0  0
  9 30  1  0  0  0  0
 10 11  2  0  0  0  0
 10 12  1  0  0  0  0
 12 13  1  0  0  0  0
 12 31  1  0  0  0  0
 13 17  1  0  0  0  0
 13 14  1  0  0  0  0
 13 32  1  0  0  0  0
 14 15  1  0  0  0  0
 14 33  1  0  0  0  0
 14 34  1  0  0  0  0
 15 16  1  0  0  0  0
 15 35  1  0  0  0  0
 15 36  1  0  0  0  0
 16 17  1  0  0  0  0
 17 18  1  0  0  0  0
 17 37  1  0  0  0  0
 18 38  1  0  0  0  0
 18 39  1  0  0  0  0
 18 40  1  0  0  0  0
M  END
> <s_m_source_file>
AV-unprocessed.smi

> <i_m_source_file_index>
2340

> <i_lp_mmshare_version>
43012

> <i_f3d_flags>
0

> <s_epik_input>
W0NIM11jMVtjSF1zYyhuMSlbQ0BIXShbQ0gzXSlbQ0gyXVtOSF1DKD1PKVtOSF1bQ0BASF0yW0NIMl1bQ0gyXU9bQ0BIXTJbQ0gzXQ==

> <s_epik_cmdline>
J2VwaWtfcHl0aG9uJywgJy1waCcsICc3LjAnLCAnLXRuJywgJzgnLCAnLW1hJywgJzIwMCcsICctbWV0YWxfYmluZGluZycsICctaW1hZScsICc8aW5maWxlLm1hZT4nLCAnLW9tYWUnLCAnPG91dGZpbGUubWFlPic=

> <r_epik_Ionization_Penalty>
0.00156622

> <r_epik_Ionization_Penalty_Charging>
0

> <r_epik_Ionization_Penalty_Neutral>
0.00156622

> <r_epik_State_Penalty>
0.00101902

> <r_epik_Charging_Adjusted_Penalty>
0.00101902

> <i_epik_Tot_Q>
0

> <i_epik_Tot_abs_Q>
0

> <r_epik_Metal_State_Penalty>
-0

> <b_epik_Metal_Only>
0

> <s_lp_Force_Field>
OPLS_2005

> <r_lp_Energy>
3.95119

> <b_lp_Chiralities_Consistent>
1

> <s_lp_Variant>
AV-unprocessed.smi:2340-8

> <Gold.Version>
5.8.1

> <Gold.Id.Protein>
6NUR|6NUR_protein|mol2

> <Gold.PLP.Fitness>
37.7282

> <Gold.PLP.PLP>
-30.8023

> <Gold.PLP.part.hbond>
-3.5093

> <Gold.PLP.part.metal>
0.0000

> <Gold.PLP.part.buried>
-4.9309

> <Gold.PLP.part.nonpolar>
-23.3317

> <Gold.PLP.part.repulsive>
0.2170

> <Gold.PLP.ligand.clash>
0.0000

> <Gold.PLP.ligand.torsion>
0.8425

> <Gold.PLP.Chemscore.Hbond>
2.8260

> <Gold.PLP.Chemscore.CHOScore>
0.0000

> <Gold.PLP.Chemscore.Metal>
0.0000

> <Gold.Chemscore.Hbonds>
donor molecule, donor type, donor heavy atom, donor atom, acceptor molecule, acceptor atom, score
      L1  H     9    30       P1  8029  0.79
      L1  H    12    31       P1  8029  1.00
      P1  H  6934  6946       L1    11  0.93

> <Gold.PLP.Chemscore.Internal.Correction>
0.1329

> <Gold.Rescore>
     Score         DG    S(hbond)    S(metal)    S(lipo)     H(rot)  DE(clash)    DE(int)     intcor
     18.93     -19.74       2.06        0.00      96.63       1.53       0.06       0.75       ----

> <Gold.Chemscore.Fitness>
18.9347

> <Gold.Chemscore.DG>
-19.7422

> <Gold.Chemscore.ZeroCoef>
-5.4800

> <Gold.Chemscore.Hbond>
2.0600

> <Gold.Chemscore.Metal>
0.0000

> <Gold.Chemscore.Lipo>
96.6255

> <Gold.Chemscore.Internal_Hbond>
0.0000

> <Gold.Chemscore.DEClash>
0.0605

> <Gold.Chemscore.DEInternal>
0.7469

> <Gold.Chemscore.Rot>
1.5325

> <Gold.Chemscore.Internal.Correction>
   9.000000E+99

> <Gold.Chemscore.Hbonds>
donor molecule, donor type, donor heavy atom, donor atom, acceptor molecule, acceptor atom, score
      L1  H     9    30       P1  8029  0.10
      L1  H    12    31       P1  8029  0.97
      P1  H  6934  6946       L1    11  0.90

> <Gold.Chemscore.Hbond.Weighted>
-6.8803

> <Gold.Chemscore.Metal.Weighted>
-0.0000

> <Gold.Chemscore.Lipo.Weighted>
-11.3052

> <Gold.Chemscore.Internal_Hbond.Weighted>
0.0000

> <Gold.Chemscore.DEClash.Weighted>
0.0605

> <Gold.Chemscore.DEInternal.Weighted>
0.7469

> <Gold.Chemscore.Rot.Weighted>
3.9233

> <Gold.Chemscore.Internal.Correction.Weighted>
   9.000000E+99

> <Gold.Protein.RotatedTorsions>
[ 6907 6896 6895 6894 ] final   74.11 input  -60.11 | X-H torsion
[ 7974 7965 7964 7962 ] final  135.86 input  175.53 | X-H torsion
[ 8008 7997 7996 7995 ] final  113.80 input   59.86 | X-H torsion
[ 10167 10162 10161 10158 ] final -141.74 input  -65.29 | X-H torsion
[ 10718 10713 10712 10709 ] final    0.28 input   66.30 | X-H torsion
[ 10763 10752 10751 10750 ] final   46.29 input  -60.55 | X-H torsion
[ 11005 11000 10999 10996 ] final   83.67 input  -57.11 | X-H torsion

> <Gold.Protein.ActiveResidues>
 VAL166  LYS551  ARG553  GLY616  TRP617  ASP618  TYR619  PRO620  LYS621  CYS622 
 ASP623  PHE694  ASN695  SER759  ASP760  ASP761  ALA762  ILE779  LEU786  VAL792 
 PHE793  MET794  SER795  GLU796  ALA797  LYS798  CYS799  TRP800  GLU811  SER814 

> <Gold.Protein.RotatedAtoms>
  152.4959  134.4320  159.9515 H   0  0  0  0  0  0  0  0  0  0  0  0  # atno 6907 bound_to 6896
  151.4299  133.3667  159.2775 H   0  0  0  0  0  0  0  0  0  0  0  0  # atno 6908 bound_to 6896
  150.9162  134.8603  159.7518 H   0  0  0  0  0  0  0  0  0  0  0  0  # atno 6909 bound_to 6896
  144.9622  139.4698  143.5474 H   0  0  0  0  0  0  0  0  0  0  0  0  # atno 7974 bound_to 7965
  156.2281  140.2972  156.0118 H   0  0  0  0  0  0  0  0  0  0  0  0  # atno 8008 bound_to 7997
  155.2301  140.0418  157.2978 H   0  0  0  0  0  0  0  0  0  0  0  0  # atno 8009 bound_to 7997
  154.5949  140.2411  155.7878 H   0  0  0  0  0  0  0  0  0  0  0  0  # atno 8010 bound_to 7997
  139.8156  143.7644  152.2665 H   0  0  0  0  0  0  0  0  0  0  0  0  # atno 10167 bound_to 10162
  156.8310  130.5488  149.5687 H   0  0  0  0  0  0  0  0  0  0  0  0  # atno 10718 bound_to 10713
  152.9812  135.6012  154.3576 H   0  0  0  0  0  0  0  0  0  0  0  0  # atno 10763 bound_to 10752
  154.3261  135.2769  155.2497 H   0  0  0  0  0  0  0  0  0  0  0  0  # atno 10764 bound_to 10752
  154.4642  135.5958  153.6332 H   0  0  0  0  0  0  0  0  0  0  0  0  # atno 10765 bound_to 10752
  139.9024  134.8161  156.2341 H   0  0  0  0  0  0  0  0  0  0  0  0  # atno 11005 bound_to 11000
  146.3356  139.8779  142.8829 LP  0  0  0  0  0  0  0  0  0  0  0  0  # atno 17320 bound_to 7965
  145.2683  141.0100  143.3786 LP  0  0  0  0  0  0  0  0  0  0  0  0  # atno 17321 bound_to 7965
  139.7806  144.7446  151.0094 LP  0  0  0  0  0  0  0  0  0  0  0  0  # atno 17342 bound_to 10162
  140.7816  143.4546  151.0364 LP  0  0  0  0  0  0  0  0  0  0  0  0  # atno 17343 bound_to 10162
  156.0934  130.5913  150.9772 LP  0  0  0  0  0  0  0  0  0  0  0  0  # atno 17370 bound_to 10713
  157.6407  131.0910  150.8258 LP  0  0  0  0  0  0  0  0  0  0  0  0  # atno 17371 bound_to 10713
  141.0327  133.6980  156.1458 LP  0  0  0  0  0  0  0  0  0  0  0  0  # atno 17394 bound_to 11000
  140.7073  134.4499  157.5583 LP  0  0  0  0  0  0  0  0  0  0  0  0  # atno 17395 bound_to 11000

$$$$
