AV-unprocessed.smi:2152|AV-procd|sdf|8764|dock8
  -GOLD-   2272011543D 1   1.00000     0.00000
 Structure written by MMmdl.
 41 42  0  0  0  0  0  0  0  0  1 V2000
  147.1285  132.1312  161.5152 C   0  0  0  0  0  0  0  0  0  0  0  0
  146.5352  133.3749  162.1994 C   0  0  2  0  0  0  0  0  0  0  0  0
  145.1139  133.6812  161.6833 C   0  0  0  0  0  0  0  0  0  0  0  0
  144.4948  134.8847  162.4124 C   0  0  0  0  0  0  0  0  0  0  0  0
  145.3925  136.1262  162.3049 C   0  0  0  0  0  0  0  0  0  0  0  0
  146.8136  135.8321  162.8169 C   0  0  0  0  0  0  0  0  0  0  0  0
  147.4522  134.6225  162.1050 C   0  0  2  0  0  0  0  0  0  0  0  0
  147.7610  134.9734  160.7172 N   0  0  0  0  0  0  0  0  0  0  0  0
  148.2577  136.1431  160.2865 C   0  0  0  0  0  0  0  0  0  0  0  0
  148.5457  137.0762  161.0373 O   0  0  0  0  0  0  0  0  0  0  0  0
  148.4847  136.2540  158.7728 C   0  0  0  0  0  0  0  0  0  0  0  0
  149.1328  137.5104  158.3755 N   0  0  0  0  0  0  0  0  0  0  0  0
  148.4632  138.3960  157.5508 C   0  0  0  0  0  0  0  0  0  0  0  0
  148.9931  139.5637  157.1252 C   0  0  0  0  0  0  0  0  0  0  0  0
  150.3361  139.9669  157.5246 C   0  0  0  0  0  0  0  0  0  0  0  0
  150.8606  141.0151  157.1470 O   0  0  0  0  0  0  0  0  0  0  0  0
  150.9943  139.0481  158.3776 N   0  0  0  0  0  0  0  0  0  0  0  0
  152.3401  139.3444  158.8226 C   0  0  0  0  0  0  0  0  0  0  0  0
  150.4391  137.8229  158.8089 C   0  0  0  0  0  0  0  0  0  0  0  0
  151.0654  137.0442  159.5325 O   0  0  0  0  0  0  0  0  0  0  0  0
  147.1944  132.2564  160.4342 H   0  0  0  0  0  0  0  0  0  0  0  0
  146.5141  131.2511  161.7059 H   0  0  0  0  0  0  0  0  0  0  0  0
  148.1308  131.9194  161.8885 H   0  0  0  0  0  0  0  0  0  0  0  0
  146.4444  133.1300  163.2589 H   0  0  0  0  0  0  0  0  0  0  0  0
  145.1407  133.8777  160.6107 H   0  0  0  0  0  0  0  0  0  0  0  0
  144.4733  132.8089  161.8180 H   0  0  0  0  0  0  0  0  0  0  0  0
  143.5091  135.1021  161.9999 H   0  0  0  0  0  0  0  0  0  0  0  0
  144.3418  134.6357  163.4633 H   0  0  0  0  0  0  0  0  0  0  0  0
  145.4339  136.4591  161.2672 H   0  0  0  0  0  0  0  0  0  0  0  0
  144.9567  136.9485  162.8731 H   0  0  0  0  0  0  0  0  0  0  0  0
  147.4435  136.7149  162.6994 H   0  0  0  0  0  0  0  0  0  0  0  0
  146.7706  135.6335  163.8886 H   0  0  0  0  0  0  0  0  0  0  0  0
  148.3821  134.3984  162.6309 H   0  0  0  0  0  0  0  0  0  0  0  0
  147.5664  134.2658  160.0238 H   0  0  0  0  0  0  0  0  0  0  0  0
  149.0940  135.4056  158.4584 H   0  0  0  0  0  0  0  0  0  0  0  0
  147.5333  136.1430  158.2490 H   0  0  0  0  0  0  0  0  0  0  0  0
  147.4661  138.1409  157.2225 H   0  0  0  0  0  0  0  0  0  0  0  0
  148.4161  140.2074  156.4774 H   0  0  0  0  0  0  0  0  0  0  0  0
  152.3870  139.1625  159.8980 H   0  0  0  0  0  0  0  0  0  0  0  0
  152.5933  140.3877  158.6352 H   0  0  0  0  0  0  0  0  0  0  0  0
  153.0091  138.6782  158.2757 H   0  0  0  0  0  0  0  0  0  0  0  0
  1  2  1  0  0  0  0
  1 21  1  0  0  0  0
  1 22  1  0  0  0  0
  1 23  1  0  0  0  0
  2  7  1  0  0  0  0
  2  3  1  0  0  0  0
  2 24  1  0  0  0  0
  3  4  1  0  0  0  0
  3 25  1  0  0  0  0
  3 26  1  0  0  0  0
  4  5  1  0  0  0  0
  4 27  1  0  0  0  0
  4 28  1  0  0  0  0
  5  6  1  0  0  0  0
  5 29  1  0  0  0  0
  5 30  1  0  0  0  0
  6  7  1  0  0  0  0
  6 31  1  0  0  0  0
  6 32  1  0  0  0  0
  7  8  1  0  0  0  0
  7 33  1  0  0  0  0
  8  9  1  0  0  0  0
  8 34  1  0  0  0  0
  9 10  2  0  0  0  0
  9 11  1  0  0  0  0
 11 12  1  0  0  0  0
 11 35  1  0  0  0  0
 11 36  1  0  0  0  0
 12 19  1  0  0  0  0
 12 13  1  0  0  0  0
 13 14  2  0  0  0  0
 13 37  1  0  0  0  0
 14 15  1  0  0  0  0
 14 38  1  0  0  0  0
 15 16  2  0  0  0  0
 15 17  1  0  0  0  0
 17 18  1  0  0  0  0
 17 19  1  0  0  0  0
 18 39  1  0  0  0  0
 18 40  1  0  0  0  0
 18 41  1  0  0  0  0
 19 20  2  0  0  0  0
M  END
> <s_m_source_file>
AV-unprocessed.smi

> <i_m_source_file_index>
2152

> <i_lp_mmshare_version>
43012

> <i_f3d_flags>
0

> <s_epik_input>
W0NIM11bQ0BASF0xW0NIMl1bQ0gyXVtDSDJdW0NIMl1bQ0BIXTFbTkhdQyg9TylbQ0gyXW4yW2NIXVtjSF1jKD1PKW4oW0NIM10pYzI9Tw==

> <s_epik_cmdline>
J2VwaWtfcHl0aG9uJywgJy1waCcsICc3LjAnLCAnLXRuJywgJzgnLCAnLW1hJywgJzIwMCcsICctbWV0YWxfYmluZGluZycsICctaW1hZScsICc8aW5maWxlLm1hZT4nLCAnLW9tYWUnLCAnPG91dGZpbGUubWFlPic=

> <r_lp_tautomer_probability>
1

> <r_epik_Ionization_Penalty>
3.20555e-08

> <r_epik_Ionization_Penalty_Charging>
1.30086e-08

> <r_epik_Ionization_Penalty_Neutral>
1.90469e-08

> <r_epik_State_Penalty>
-0

> <r_epik_Charging_Adjusted_Penalty>
1.30086e-08

> <i_epik_Tot_Q>
0

> <i_epik_Tot_abs_Q>
0

> <r_epik_Metal_State_Penalty>
-0

> <b_epik_Metal_Only>
0

> <s_lp_Force_Field>
OPLS_2005

> <r_lp_Energy>
17.3754

> <b_lp_Chiralities_Consistent>
1

> <s_lp_Variant>
AV-unprocessed.smi:2152-3

> <Gold.Version>
5.8.1

> <Gold.Id.Protein>
6NUR|6NUR_protein|mol2

> <Gold.PLP.Fitness>
38.1794

> <Gold.PLP.PLP>
-32.6163

> <Gold.PLP.part.hbond>
-2.5567

> <Gold.PLP.part.metal>
0.0000

> <Gold.PLP.part.buried>
-5.9435

> <Gold.PLP.part.nonpolar>
-24.8985

> <Gold.PLP.part.repulsive>
0.0925

> <Gold.PLP.ligand.clash>
0.0000

> <Gold.PLP.ligand.torsion>
0.2722

> <Gold.PLP.Chemscore.Hbond>
2.0329

> <Gold.PLP.Chemscore.CHOScore>
0.0000

> <Gold.PLP.Chemscore.Metal>
0.0000

> <Gold.Chemscore.Hbonds>
donor molecule, donor type, donor heavy atom, donor atom, acceptor molecule, acceptor atom, score
      P1  H  6896  6908       L1    20  1.00
      P1  H  6931  6943       L1    10  1.00
      P1  H  6934  6947       L1    10  0.09

> <Gold.PLP.Chemscore.Internal.Correction>
0.0090

> <Gold.Rescore>
     Score         DG    S(hbond)    S(metal)    S(lipo)     H(rot)  DE(clash)    DE(int)     intcor
     14.99     -16.86       2.64        0.00      55.23       1.52       0.14       1.73       ----

> <Gold.Chemscore.Fitness>
14.9891

> <Gold.Chemscore.DG>
-16.8626

> <Gold.Chemscore.ZeroCoef>
-5.4800

> <Gold.Chemscore.Hbond>
2.6414

> <Gold.Chemscore.Metal>
0.0000

> <Gold.Chemscore.Lipo>
55.2312

> <Gold.Chemscore.Internal_Hbond>
0.0000

> <Gold.Chemscore.DEClash>
0.1447

> <Gold.Chemscore.DEInternal>
1.7288

> <Gold.Chemscore.Rot>
1.5242

> <Gold.Chemscore.Internal.Correction>
   9.000000E+99

> <Gold.Chemscore.Hbonds>
donor molecule, donor type, donor heavy atom, donor atom, acceptor molecule, acceptor atom, score
      P1  H  6896  6908       L1    20  0.91
      P1  H  6931  6943       L1    10  0.90
      P1  H  6934  6947       L1    10  0.09

> <Gold.Chemscore.Hbond.Weighted>
-8.8224

> <Gold.Chemscore.Metal.Weighted>
-0.0000

> <Gold.Chemscore.Lipo.Weighted>
-6.4620

> <Gold.Chemscore.Internal_Hbond.Weighted>
0.0000

> <Gold.Chemscore.DEClash.Weighted>
0.1447

> <Gold.Chemscore.DEInternal.Weighted>
1.7288

> <Gold.Chemscore.Rot.Weighted>
3.9019

> <Gold.Chemscore.Internal.Correction.Weighted>
   9.000000E+99

> <Gold.Protein.RotatedTorsions>
[ 6907 6896 6895 6894 ] final -153.82 input  -60.11 | X-H torsion
[ 7974 7965 7964 7962 ] final -137.37 input  175.53 | X-H torsion
[ 8008 7997 7996 7995 ] final  108.55 input   59.86 | X-H torsion
[ 10167 10162 10161 10158 ] final  -76.62 input  -65.29 | X-H torsion
[ 10718 10713 10712 10709 ] final  148.09 input   66.30 | X-H torsion
[ 10763 10752 10751 10750 ] final  -81.91 input  -60.55 | X-H torsion
[ 11005 11000 10999 10996 ] final   -5.19 input  -57.11 | X-H torsion

> <Gold.Protein.ActiveResidues>
 VAL166  LYS551  ARG553  GLY616  TRP617  ASP618  TYR619  PRO620  LYS621  CYS622 
 ASP623  PHE694  ASN695  SER759  ASP760  ASP761  ALA762  ILE779  LEU786  VAL792 
 PHE793  MET794  SER795  GLU796  ALA797  LYS798  CYS799  TRP800  GLU811  SER814 

> <Gold.Protein.RotatedAtoms>
  151.2483  133.4363  159.2610 H   0  0  0  0  0  0  0  0  0  0  0  0  # atno 6907 bound_to 6896
  151.0641  134.9756  159.8285 H   0  0  0  0  0  0  0  0  0  0  0  0  # atno 6908 bound_to 6896
  152.5402  134.2432  159.8923 H   0  0  0  0  0  0  0  0  0  0  0  0  # atno 6909 bound_to 6896
  144.8847  140.6558  143.5183 H   0  0  0  0  0  0  0  0  0  0  0  0  # atno 7974 bound_to 7965
  156.1912  140.3074  155.9336 H   0  0  0  0  0  0  0  0  0  0  0  0  # atno 8008 bound_to 7997
  155.3169  140.0454  157.3054 H   0  0  0  0  0  0  0  0  0  0  0  0  # atno 8009 bound_to 7997
  154.5454  140.2275  155.8581 H   0  0  0  0  0  0  0  0  0  0  0  0  # atno 8010 bound_to 7997
  140.4841  143.2395  151.8011 H   0  0  0  0  0  0  0  0  0  0  0  0  # atno 10167 bound_to 10162
  157.3129  131.0891  151.1302 H   0  0  0  0  0  0  0  0  0  0  0  0  # atno 10718 bound_to 10713
  154.5693  135.5610  153.7080 H   0  0  0  0  0  0  0  0  0  0  0  0  # atno 10763 bound_to 10752
  153.0043  135.6293  154.2136 H   0  0  0  0  0  0  0  0  0  0  0  0  # atno 10764 bound_to 10752
  154.2075  135.2875  155.2949 H   0  0  0  0  0  0  0  0  0  0  0  0  # atno 10765 bound_to 10752
  140.6884  133.9092  155.8601 H   0  0  0  0  0  0  0  0  0  0  0  0  # atno 11005 bound_to 11000
  145.3890  139.1620  143.4239 LP  0  0  0  0  0  0  0  0  0  0  0  0  # atno 17320 bound_to 7965
  146.3017  140.3977  142.8701 LP  0  0  0  0  0  0  0  0  0  0  0  0  # atno 17321 bound_to 7965
  139.4839  144.4734  151.9397 LP  0  0  0  0  0  0  0  0  0  0  0  0  # atno 17342 bound_to 10162
  140.3820  144.2724  150.5908 LP  0  0  0  0  0  0  0  0  0  0  0  0  # atno 17343 bound_to 10162
  157.2617  130.6662  149.5978 LP  0  0  0  0  0  0  0  0  0  0  0  0  # atno 17370 bound_to 10713
  155.9679  130.4506  150.5705 LP  0  0  0  0  0  0  0  0  0  0  0  0  # atno 17371 bound_to 10713
  141.0261  134.0821  157.4067 LP  0  0  0  0  0  0  0  0  0  0  0  0  # atno 17394 bound_to 11000
  139.8931  135.0128  156.6879 LP  0  0  0  0  0  0  0  0  0  0  0  0  # atno 17395 bound_to 11000

$$$$
