AV-unprocessed.smi:648|AV-procd|sdf|3174|dock3
  -GOLD-   22720 0 93D 1   1.00000     0.00000
 Structure written by MMmdl.
 45 46  0  0  0  0  0  0  0  0  1 V2000
  145.3682  132.9925  150.7551 C   0  0  0  0  0  0  0  0  0  0  0  0
  145.1755  134.1569  151.7377 C   0  0  2  0  0  0  0  0  0  0  0  0
  143.6895  134.3443  152.0915 C   0  0  0  0  0  0  0  0  0  0  0  0
  143.4353  135.4981  153.0883 C   0  0  0  0  0  0  0  0  0  0  0  0
  141.9158  135.7522  153.1645 C   0  0  0  0  0  0  0  0  0  0  0  0
  143.8992  135.1069  154.5101 C   0  0  0  0  0  0  0  0  0  0  0  0
  144.1251  136.8001  152.5894 C   0  0  0  0  0  0  0  0  0  0  0  0
  145.6071  136.6776  152.1278 C   0  0  1  0  0  0  0  0  0  0  0  0
  145.9963  137.9546  151.3327 C   0  0  0  0  0  0  0  0  0  0  0  0
  147.3953  138.0670  151.1538 O   0  0  0  0  0  0  0  0  0  0  0  0
  146.4836  136.5512  153.3111 N   0  0  0  0  0  0  0  0  0  0  0  0
  146.5553  137.6678  154.2572 C   0  0  0  0  0  0  0  0  0  0  0  0
  147.9552  138.2939  154.2396 C   0  0  0  0  0  0  0  0  0  0  0  0
  147.8905  139.7390  154.1574 N   0  0  0  0  0  0  0  0  0  0  0  0
  146.8645  140.5486  153.8905 C   0  0  0  0  0  0  0  0  0  0  0  0
  147.1811  141.8361  153.9060 N   0  0  0  0  0  0  0  0  0  0  0  0
  148.5103  141.7404  154.2097 C   0  0  0  0  0  0  0  0  0  0  0  0
  148.9853  140.5054  154.3717 N   0  0  0  0  0  0  0  0  0  0  0  0
  145.7510  135.4654  151.1691 C   0  0  0  0  0  0  0  0  0  0  0  0
  144.8452  133.1743  149.8158 H   0  0  0  0  0  0  0  0  0  0  0  0
  144.9883  132.0598  151.1727 H   0  0  0  0  0  0  0  0  0  0  0  0
  146.4236  132.8437  150.5250 H   0  0  0  0  0  0  0  0  0  0  0  0
  145.7270  133.9012  152.6421 H   0  0  0  0  0  0  0  0  0  0  0  0
  143.1372  134.5357  151.1702 H   0  0  0  0  0  0  0  0  0  0  0  0
  143.2850  133.4140  152.4930 H   0  0  0  0  0  0  0  0  0  0  0  0
  141.6826  136.5613  153.8576 H   0  0  0  0  0  0  0  0  0  0  0  0
  141.3800  134.8650  153.5038 H   0  0  0  0  0  0  0  0  0  0  0  0
  141.5036  136.0273  152.1928 H   0  0  0  0  0  0  0  0  0  0  0  0
  143.7414  135.9235  155.2155 H   0  0  0  0  0  0  0  0  0  0  0  0
  144.9526  134.8387  154.5566 H   0  0  0  0  0  0  0  0  0  0  0  0
  143.3427  134.2459  154.8812 H   0  0  0  0  0  0  0  0  0  0  0  0
  143.5499  137.1672  151.7377 H   0  0  0  0  0  0  0  0  0  0  0  0
  144.0297  137.5765  153.3501 H   0  0  0  0  0  0  0  0  0  0  0  0
  145.5068  137.9946  150.3601 H   0  0  0  0  0  0  0  0  0  0  0  0
  145.6643  138.8460  151.8665 H   0  0  0  0  0  0  0  0  0  0  0  0
  147.8194  137.4078  151.6817 H   0  0  0  0  0  0  0  0  0  0  0  0
  146.2351  135.7049  153.8140 H   0  0  0  0  0  0  0  0  0  0  0  0
  145.8253  138.4359  154.0048 H   0  0  0  0  0  0  0  0  0  0  0  0
  146.3342  137.3321  155.2696 H   0  0  0  0  0  0  0  0  0  0  0  0
  148.5105  138.0201  155.1380 H   0  0  0  0  0  0  0  0  0  0  0  0
  148.5262  137.9241  153.3867 H   0  0  0  0  0  0  0  0  0  0  0  0
  145.8671  140.1895  153.6832 H   0  0  0  0  0  0  0  0  0  0  0  0
  149.1466  142.6066  154.3147 H   0  0  0  0  0  0  0  0  0  0  0  0
  146.7869  135.3223  150.8634 H   0  0  0  0  0  0  0  0  0  0  0  0
  145.2176  135.6871  150.2434 H   0  0  0  0  0  0  0  0  0  0  0  0
  1  2  1  0  0  0  0
  1 20  1  0  0  0  0
  1 21  1  0  0  0  0
  1 22  1  0  0  0  0
  2 19  1  0  0  0  0
  2  3  1  0  0  0  0
  2 23  1  0  0  0  0
  3  4  1  0  0  0  0
  3 24  1  0  0  0  0
  3 25  1  0  0  0  0
  4  5  1  0  0  0  0
  4  6  1  0  0  0  0
  4  7  1  0  0  0  0
  5 26  1  0  0  0  0
  5 27  1  0  0  0  0
  5 28  1  0  0  0  0
  6 29  1  0  0  0  0
  6 30  1  0  0  0  0
  6 31  1  0  0  0  0
  7  8  1  0  0  0  0
  7 32  1  0  0  0  0
  7 33  1  0  0  0  0
  8  9  1  0  0  0  0
  8 11  1  0  0  0  0
  8 19  1  0  0  0  0
  9 10  1  0  0  0  0
  9 34  1  0  0  0  0
  9 35  1  0  0  0  0
 10 36  1  0  0  0  0
 11 12  1  0  0  0  0
 11 37  1  0  0  0  0
 12 13  1  0  0  0  0
 12 38  1  0  0  0  0
 12 39  1  0  0  0  0
 13 14  1  0  0  0  0
 13 40  1  0  0  0  0
 13 41  1  0  0  0  0
 14 18  1  0  0  0  0
 14 15  1  0  0  0  0
 15 16  2  0  0  0  0
 15 42  1  0  0  0  0
 16 17  1  0  0  0  0
 17 18  2  0  0  0  0
 17 43  1  0  0  0  0
 19 44  1  0  0  0  0
 19 45  1  0  0  0  0
M  END
> <s_m_source_file>
AV-unprocessed.smi

> <i_m_source_file_index>
648

> <i_lp_mmshare_version>
43012

> <i_f3d_flags>
0

> <s_epik_input>
W0NIM11DMShbQ0gzXSlbQ0gyXVtDQEBIXShbQ0gzXSlbQ0gyXVtDQF0oW0NIMl0xKShbQ0gyXVtPSF0pW05IXVtDSDJdW0NIMl1uMltjSF1uW2NIXW4y

> <s_epik_cmdline>
J2VwaWtfcHl0aG9uJywgJy1waCcsICc3LjAnLCAnLXRuJywgJzgnLCAnLW1hJywgJzIwMCcsICctbWV0YWxfYmluZGluZycsICctaW1hZScsICc8aW5maWxlLm1hZT4nLCAnLW9tYWUnLCAnPG91dGZpbGUubWFlPic=

> <r_lp_tautomer_probability>
1

> <r_epik_Ionization_Penalty>
2.45849

> <r_epik_Ionization_Penalty_Charging>
0

> <r_epik_Ionization_Penalty_Neutral>
2.45849

> <r_epik_State_Penalty>
2.62037

> <r_epik_Charging_Adjusted_Penalty>
2.62037

> <i_epik_Tot_Q>
0

> <i_epik_Tot_abs_Q>
0

> <r_epik_Metal_State_Penalty>
2.62024

> <b_epik_Metal_Only>
0

> <s_lp_Force_Field>
OPLS_2005

> <r_lp_Energy>
32.3104

> <b_lp_Chiralities_Consistent>
1

> <s_lp_Variant>
AV-unprocessed.smi:648-5

> <Gold.Version>
5.8.1

> <Gold.Id.Protein>
6NUR|6NUR_protein|mol2

> <Gold.PLP.Fitness>
39.6212

> <Gold.PLP.PLP>
-29.9335

> <Gold.PLP.part.hbond>
-3.7828

> <Gold.PLP.part.metal>
0.0000

> <Gold.PLP.part.buried>
-2.8921

> <Gold.PLP.part.nonpolar>
-24.0615

> <Gold.PLP.part.repulsive>
0.2816

> <Gold.PLP.ligand.clash>
0.0000

> <Gold.PLP.ligand.torsion>
0.9986

> <Gold.PLP.Chemscore.Hbond>
1.8940

> <Gold.PLP.Chemscore.CHOScore>
2.0000

> <Gold.PLP.Chemscore.Metal>
0.0000

> <Gold.Chemscore.Hbonds>
donor molecule, donor type, donor heavy atom, donor atom, acceptor molecule, acceptor atom, score
      L1  H    10    36       P1  7948  0.96
      P1  H  7954  7966       L1    10  0.80
      L1  C    15    42       P1 10175  1.00
      L1  C    17    43       P1  8028  1.00

> <Gold.PLP.Chemscore.Internal.Correction>
0.0029

> <Gold.Rescore>
     Score         DG    S(hbond)    S(metal)    S(lipo)     H(rot)  DE(clash)    DE(int)     intcor
      6.94      -8.96       1.46        0.00      56.36       3.12       1.26       0.77       ----

> <Gold.Chemscore.Fitness>
6.9406

> <Gold.Chemscore.DG>
-8.9642

> <Gold.Chemscore.ZeroCoef>
-5.4800

> <Gold.Chemscore.Hbond>
1.4589

> <Gold.Chemscore.Metal>
0.0000

> <Gold.Chemscore.Lipo>
56.3621

> <Gold.Chemscore.Internal_Hbond>
0.0000

> <Gold.Chemscore.DEClash>
1.2555

> <Gold.Chemscore.DEInternal>
0.7682

> <Gold.Chemscore.Rot>
3.1183

> <Gold.Chemscore.Internal.Correction>
   9.000000E+99

> <Gold.Chemscore.Hbonds>
donor molecule, donor type, donor heavy atom, donor atom, acceptor molecule, acceptor atom, score
      L1  H    10    36       P1  7948  0.91
      P1  H  7954  7966       L1    10  0.15

> <Gold.Chemscore.Hbond.Weighted>
-4.8728

> <Gold.Chemscore.Metal.Weighted>
-0.0000

> <Gold.Chemscore.Lipo.Weighted>
-6.5944

> <Gold.Chemscore.Internal_Hbond.Weighted>
0.0000

> <Gold.Chemscore.DEClash.Weighted>
1.2555

> <Gold.Chemscore.DEInternal.Weighted>
0.7682

> <Gold.Chemscore.Rot.Weighted>
7.9829

> <Gold.Chemscore.Internal.Correction.Weighted>
   9.000000E+99

> <Gold.Protein.RotatedTorsions>
[ 6907 6896 6895 6894 ] final -132.56 input  -60.11 | X-H torsion
[ 7974 7965 7964 7962 ] final   39.34 input  175.53 | X-H torsion
[ 8008 7997 7996 7995 ] final   60.43 input   59.86 | X-H torsion
[ 10167 10162 10161 10158 ] final  -82.13 input  -65.29 | X-H torsion
[ 10718 10713 10712 10709 ] final  109.56 input   66.30 | X-H torsion
[ 10763 10752 10751 10750 ] final   81.45 input  -60.55 | X-H torsion
[ 11005 11000 10999 10996 ] final  -43.90 input  -57.11 | X-H torsion

> <Gold.Protein.ActiveResidues>
 VAL166  LYS551  ARG553  GLY616  TRP617  ASP618  TYR619  PRO620  LYS621  CYS622 
 ASP623  PHE694  ASN695  SER759  ASP760  ASP761  ALA762  ILE779  LEU786  VAL792 
 PHE793  MET794  SER795  GLU796  ALA797  LYS798  CYS799  TRP800  GLU811  SER814 

> <Gold.Protein.RotatedAtoms>
  150.9638  133.6417  159.2749 H   0  0  0  0  0  0  0  0  0  0  0  0  # atno 6907 bound_to 6896
  151.3730  135.0925  159.9481 H   0  0  0  0  0  0  0  0  0  0  0  0  # atno 6908 bound_to 6896
  152.5158  133.9188  159.7579 H   0  0  0  0  0  0  0  0  0  0  0  0  # atno 6909 bound_to 6896
  146.0992  139.5663  142.9425 H   0  0  0  0  0  0  0  0  0  0  0  0  # atno 7974 bound_to 7965
  155.5823  140.3491  155.4543 H   0  0  0  0  0  0  0  0  0  0  0  0  # atno 8008 bound_to 7997
  156.0364  140.1286  157.0228 H   0  0  0  0  0  0  0  0  0  0  0  0  # atno 8009 bound_to 7997
  154.4373  140.1033  156.6159 H   0  0  0  0  0  0  0  0  0  0  0  0  # atno 8010 bound_to 7997
  140.4349  143.2535  151.8708 H   0  0  0  0  0  0  0  0  0  0  0  0  # atno 10167 bound_to 10162
  157.6536  131.0916  150.6472 H   0  0  0  0  0  0  0  0  0  0  0  0  # atno 10718 bound_to 10713
  153.1118  135.4765  154.9048 H   0  0  0  0  0  0  0  0  0  0  0  0  # atno 10763 bound_to 10752
  154.7488  135.3101  154.8597 H   0  0  0  0  0  0  0  0  0  0  0  0  # atno 10764 bound_to 10752
  153.9184  135.6857  153.4802 H   0  0  0  0  0  0  0  0  0  0  0  0  # atno 10765 bound_to 10752
  141.0415  133.6778  156.2798 H   0  0  0  0  0  0  0  0  0  0  0  0  # atno 11005 bound_to 11000
  145.5889  141.0372  143.2081 LP  0  0  0  0  0  0  0  0  0  0  0  0  # atno 17320 bound_to 7965
  144.7419  139.7426  143.7307 LP  0  0  0  0  0  0  0  0  0  0  0  0  # atno 17321 bound_to 7965
  139.4786  144.5294  151.8688 LP  0  0  0  0  0  0  0  0  0  0  0  0  # atno 17342 bound_to 10162
  140.4385  144.2018  150.5890 LP  0  0  0  0  0  0  0  0  0  0  0  0  # atno 17343 bound_to 10162
  156.6780  130.4559  149.5636 LP  0  0  0  0  0  0  0  0  0  0  0  0  # atno 17370 bound_to 10713
  156.1949  130.6583  151.1103 LP  0  0  0  0  0  0  0  0  0  0  0  0  # atno 17371 bound_to 10713
  140.6226  134.5346  157.5549 LP  0  0  0  0  0  0  0  0  0  0  0  0  # atno 17394 bound_to 11000
  139.9279  134.8020  156.1014 LP  0  0  0  0  0  0  0  0  0  0  0  0  # atno 17395 bound_to 11000

$$$$
