AV-unprocessed.smi:157|AV-procd|sdf|1308|dock1
  -GOLD-   2262018593D 1   1.00000     0.00000
 Structure written by MMmdl.
 36 38  0  0  0  0  0  0  0  0  2 V2000
  154.6902  136.5626  156.4290 O   0  0  0  0  0  0  0  0  0  0  0  0
  154.3966  137.5159  157.4280 C   0  0  0  0  0  0  0  0  0  0  0  0
  152.9257  137.9560  157.3285 C   0  0  2  0  0  0  0  0  0  0  0  0
  152.6306  138.4711  156.0308 O   0  0  0  0  0  0  0  0  0  0  0  0
  151.7486  139.5484  156.1289 C   0  0  1  0  0  0  0  0  0  0  0  0
  150.6067  139.3190  155.1911 N   0  0  0  0  0  0  0  0  0  0  0  0
  150.5214  138.3068  154.3039 C   0  0  0  0  0  0  0  0  0  0  0  0
  149.4092  138.2982  153.5891 N   0  3  0  0  0  0  0  0  0  0  0  0
  148.6637  139.3773  154.0135 C   0  0  0  0  0  0  0  0  0  0  0  0
  149.4257  140.0051  155.0025 C   0  0  0  0  0  0  0  0  0  0  0  0
  149.1367  141.1499  155.7615 N   0  0  0  0  0  0  0  0  0  0  0  0
  148.2065  141.9912  155.4466 C   0  0  0  0  0  0  0  0  0  0  0  0
  147.2780  141.9235  154.4214 N   0  0  0  0  0  0  0  0  0  0  0  0
  146.5094  140.7269  154.1288 C   0  0  0  0  0  0  0  0  0  0  0  0
  147.3171  139.6364  153.4132 C   0  0  1  0  0  0  0  0  0  0  0  0
  147.3886  139.9559  152.0391 O   0  0  0  0  0  0  0  0  0  0  0  0
  151.2689  139.6256  157.5794 C   0  0  0  0  0  0  0  0  0  0  0  0
  152.4519  139.0345  158.3167 C   0  0  2  0  0  0  0  0  0  0  0  0
  153.4360  140.0240  158.5534 O   0  0  0  0  0  0  0  0  0  0  0  0
  152.2893  137.0787  157.4553 H   0  0  0  0  0  0  0  0  0  0  0  0
  152.2385  140.4618  155.7885 H   0  0  0  0  0  0  0  0  0  0  0  0
  146.7450  138.7101  153.4755 H   0  0  0  0  0  0  0  0  0  0  0  0
  152.1595  138.6036  159.2747 H   0  0  0  0  0  0  0  0  0  0  0  0
  155.5387  136.7622  156.0633 H   0  0  0  0  0  0  0  0  0  0  0  0
  154.6292  137.1063  158.4112 H   0  0  0  0  0  0  0  0  0  0  0  0
  155.0502  138.3760  157.2812 H   0  0  0  0  0  0  0  0  0  0  0  0
  151.2956  137.5689  154.1925 H   0  0  0  0  0  0  0  0  0  0  0  0
  148.0887  142.8956  156.0454 H   0  0  0  0  0  0  0  0  0  0  0  0
  146.7660  142.7596  154.1774 H   0  0  0  0  0  0  0  0  0  0  0  0
  146.1469  140.3318  155.0791 H   0  0  0  0  0  0  0  0  0  0  0  0
  145.6216  140.9917  153.5536 H   0  0  0  0  0  0  0  0  0  0  0  0
  148.2315  139.6868  151.7080 H   0  0  0  0  0  0  0  0  0  0  0  0
  151.0205  140.6482  157.8654 H   0  0  0  0  0  0  0  0  0  0  0  0
  150.3891  138.9962  157.7182 H   0  0  0  0  0  0  0  0  0  0  0  0
  153.1685  140.5387  159.2999 H   0  0  0  0  0  0  0  0  0  0  0  0
  149.1554  137.6227  152.8794 H   0  0  0  0  0  0  0  0  0  0  0  0
  1  2  1  0  0  0  0
  1 24  1  0  0  0  0
  2  3  1  0  0  0  0
  2 25  1  0  0  0  0
  2 26  1  0  0  0  0
  3 20  1  0  0  0  0
  3 18  1  0  0  0  0
  3  4  1  0  0  0  0
  4  5  1  0  0  0  0
  5 21  1  0  0  0  0
  5  6  1  0  0  0  0
  5 17  1  0  0  0  0
  6 10  1  0  0  0  0
  6  7  1  0  0  0  0
  7  8  2  0  0  0  0
  7 27  1  0  0  0  0
  8  9  1  0  0  0  0
  8 36  1  0  0  0  0
  9 15  1  0  0  0  0
  9 10  2  0  0  0  0
 10 11  1  0  0  0  0
 11 12  2  0  0  0  0
 12 13  1  0  0  0  0
 12 28  1  0  0  0  0
 13 14  1  0  0  0  0
 13 29  1  0  0  0  0
 14 15  1  0  0  0  0
 14 30  1  0  0  0  0
 14 31  1  0  0  0  0
 15 22  1  0  0  0  0
 15 16  1  0  0  0  0
 16 32  1  0  0  0  0
 17 18  1  0  0  0  0
 17 33  1  0  0  0  0
 17 34  1  0  0  0  0
 18 23  1  0  0  0  0
 18 19  1  0  0  0  0
 19 35  1  0  0  0  0
M  CHG  1   8   1
M  END
> <s_m_source_file>
AV-unprocessed.smi

> <i_m_source_file_index>
157

> <i_lp_mmshare_version>
43012

> <i_f3d_flags>
0

> <s_epik_input>
W09IXVtDSDJdW0NASF0xT1tDQEhdKFtDSDJdW0NAQEhdMVtPSF0pbihbY0hdbjIpYyhjMjMpTj1bQ0hdW05IXVtDSDJdW0NASF0zW09IXQ==

> <s_epik_cmdline>
J2VwaWtfcHl0aG9uJywgJy1waCcsICc3LjAnLCAnLXRuJywgJzgnLCAnLW1hJywgJzIwMCcsICctbWV0YWxfYmluZGluZycsICctaW1hZScsICc8aW5maWxlLm1hZT4nLCAnLW9tYWUnLCAnPG91dGZpbGUubWFlPic=

> <r_epik_Ionization_Penalty>
1.68594

> <r_epik_Ionization_Penalty_Charging>
0

> <r_epik_Ionization_Penalty_Neutral>
1.68594

> <r_epik_State_Penalty>
1.79006

> <r_epik_Charging_Adjusted_Penalty>
1.79006

> <i_epik_Tot_Q>
1

> <i_epik_Tot_abs_Q>
1

> <r_epik_Metal_State_Penalty>
5.85324

> <b_epik_Metal_Only>
0

> <s_epik_Chemistry_Notes>
This compound has an imine and may undergo hydrolysis. This compound contains an acetal/aminal-like group ( X-CH(R)-Y where X, Y are N, S, or O) that may be acid/base labile, releasing an aldehyde.

> <s_lp_Force_Field>
OPLS_2005

> <r_lp_Energy>
54.692

> <b_lp_Chiralities_Consistent>
1

> <s_lp_Variant>
AV-unprocessed.smi:157-18

> <Gold.Version>
5.8.1

> <Gold.Id.Protein>
6NUR|6NUR_protein|mol2

> <Gold.PLP.Fitness>
41.1535

> <Gold.PLP.PLP>
-24.1332

> <Gold.PLP.part.hbond>
-4.5542

> <Gold.PLP.part.metal>
0.0000

> <Gold.PLP.part.buried>
0.1568

> <Gold.PLP.part.nonpolar>
-20.2087

> <Gold.PLP.part.repulsive>
0.2565

> <Gold.PLP.ligand.clash>
0.0000

> <Gold.PLP.ligand.torsion>
0.0750

> <Gold.PLP.Chemscore.Hbond>
4.7680

> <Gold.PLP.Chemscore.CHOScore>
0.9541

> <Gold.PLP.Chemscore.Metal>
0.0000

> <Gold.Chemscore.Hbonds>
donor molecule, donor type, donor heavy atom, donor atom, acceptor molecule, acceptor atom, score
      L1  H     8    36       P1  7948  2.00
      L1  H    16    32       P1  7957  0.91
      P1  H  7997  8009       L1    19  1.00
      P1  H 10752 10765       L1     1  0.78
      L1  C    12    28       P1  8028  0.90

> <Gold.PLP.Chemscore.Internal.Correction>
0.0040

> <Gold.Rescore>
     Score         DG    S(hbond)    S(metal)    S(lipo)     H(rot)  DE(clash)    DE(int)     intcor
     10.35     -11.18       3.28        0.00      35.24       3.67       0.68       0.15       ----

> <Gold.Chemscore.Fitness>
10.3546

> <Gold.Chemscore.DG>
-11.1823

> <Gold.Chemscore.ZeroCoef>
-5.4800

> <Gold.Chemscore.Hbond>
3.2828

> <Gold.Chemscore.Metal>
0.0000

> <Gold.Chemscore.Lipo>
35.2368

> <Gold.Chemscore.Internal_Hbond>
0.0000

> <Gold.Chemscore.DEClash>
0.6821

> <Gold.Chemscore.DEInternal>
0.1456

> <Gold.Chemscore.Rot>
3.6659

> <Gold.Chemscore.Internal.Correction>
   9.000000E+99

> <Gold.Chemscore.Hbonds>
donor molecule, donor type, donor heavy atom, donor atom, acceptor molecule, acceptor atom, score
      L1  H     8    36       P1  7948  0.99
      L1  H    16    32       P1  7957  0.82
      P1  H  7997  8009       L1    19  0.67
      P1  H 10752 10765       L1     1  0.18

> <Gold.Chemscore.Hbond.Weighted>
-10.9644

> <Gold.Chemscore.Metal.Weighted>
-0.0000

> <Gold.Chemscore.Lipo.Weighted>
-4.1227

> <Gold.Chemscore.Internal_Hbond.Weighted>
0.0000

> <Gold.Chemscore.DEClash.Weighted>
0.6821

> <Gold.Chemscore.DEInternal.Weighted>
0.1456

> <Gold.Chemscore.Rot.Weighted>
9.3848

> <Gold.Chemscore.Internal.Correction.Weighted>
   9.000000E+99

> <Gold.Protein.RotatedTorsions>
[ 6907 6896 6895 6894 ] final  -86.69 input  -60.11 | X-H torsion
[ 7974 7965 7964 7962 ] final   94.47 input  175.53 | X-H torsion
[ 8008 7997 7996 7995 ] final  151.34 input   59.86 | X-H torsion
[ 10167 10162 10161 10158 ] final   96.49 input  -65.29 | X-H torsion
[ 10718 10713 10712 10709 ] final  -98.14 input   66.30 | X-H torsion
[ 10763 10752 10751 10750 ] final  -82.20 input  -60.55 | X-H torsion
[ 11005 11000 10999 10996 ] final  -15.51 input  -57.11 | X-H torsion

> <Gold.Protein.ActiveResidues>
 VAL166  LYS551  ARG553  GLY616  TRP617  ASP618  TYR619  PRO620  LYS621  CYS622 
 ASP623  PHE694  ASN695  SER759  ASP760  ASP761  ALA762  ILE779  LEU786  VAL792 
 PHE793  MET794  SER795  GLU796  ALA797  LYS798  CYS799  TRP800  GLU811  SER814 

> <Gold.Protein.RotatedAtoms>
  150.6866  134.3011  159.4706 H   0  0  0  0  0  0  0  0  0  0  0  0  # atno 6907 bound_to 6896
  152.0907  134.9406  160.0581 H   0  0  0  0  0  0  0  0  0  0  0  0  # atno 6908 bound_to 6896
  152.0724  133.4078  159.4502 H   0  0  0  0  0  0  0  0  0  0  0  0  # atno 6909 bound_to 6896
  145.4651  139.2285  143.2966 H   0  0  0  0  0  0  0  0  0  0  0  0  # atno 7974 bound_to 7965
  156.2678  140.2050  156.6160 H   0  0  0  0  0  0  0  0  0  0  0  0  # atno 8008 bound_to 7997
  154.6794  140.0541  157.0274 H   0  0  0  0  0  0  0  0  0  0  0  0  # atno 8009 bound_to 7997
  155.1022  140.3207  155.4547 H   0  0  0  0  0  0  0  0  0  0  0  0  # atno 8010 bound_to 7997
  139.7889  144.6860  150.9919 H   0  0  0  0  0  0  0  0  0  0  0  0  # atno 10167 bound_to 10162
  156.0100  130.5225  150.6478 H   0  0  0  0  0  0  0  0  0  0  0  0  # atno 10718 bound_to 10713
  154.5728  135.5600  153.7111 H   0  0  0  0  0  0  0  0  0  0  0  0  # atno 10763 bound_to 10752
  153.0054  135.6301  154.2090 H   0  0  0  0  0  0  0  0  0  0  0  0  # atno 10764 bound_to 10752
  154.2030  135.2877  155.2964 H   0  0  0  0  0  0  0  0  0  0  0  0  # atno 10765 bound_to 10752
  140.7973  133.8241  155.9437 H   0  0  0  0  0  0  0  0  0  0  0  0  # atno 11005 bound_to 11000
  146.2429  140.5423  142.8926 LP  0  0  0  0  0  0  0  0  0  0  0  0  # atno 17320 bound_to 7965
  144.7979  140.6158  143.6497 LP  0  0  0  0  0  0  0  0  0  0  0  0  # atno 17321 bound_to 7965
  140.7820  143.4402  151.0563 LP  0  0  0  0  0  0  0  0  0  0  0  0  # atno 17342 bound_to 10162
  139.8079  143.7991  152.3169 LP  0  0  0  0  0  0  0  0  0  0  0  0  # atno 17343 bound_to 10162
  157.4246  131.0841  151.1098 LP  0  0  0  0  0  0  0  0  0  0  0  0  # atno 17370 bound_to 10713
  157.1690  130.6259  149.5634 LP  0  0  0  0  0  0  0  0  0  0  0  0  # atno 17371 bound_to 10713
  140.9329  134.1998  157.4851 LP  0  0  0  0  0  0  0  0  0  0  0  0  # atno 17394 bound_to 11000
  139.8725  134.9840  156.5222 LP  0  0  0  0  0  0  0  0  0  0  0  0  # atno 17395 bound_to 11000

$$$$
