AV-unprocessed.smi:102|AV-procd|sdf|971|dock10
  -GOLD-   2262017523D 1   1.00000     0.00000
 Structure written by MMmdl.
 43 44  0  0  0  0  0  0  0  0  2 V2000
  145.2696  135.5573  151.1965 C   0  0  0  0  0  0  0  0  0  0  0  0
  145.8530  134.4676  152.0865 C   0  0  0  0  0  0  0  0  0  0  0  0
  145.9021  133.2937  151.7183 O   0  0  0  0  0  0  0  0  0  0  0  0
  146.2803  134.9432  153.2656 O   0  0  0  0  0  0  0  0  0  0  0  0
  146.7625  134.0431  154.2495 C   0  0  0  0  0  0  0  0  0  0  0  0
  147.1511  134.8241  155.5122 C   0  0  2  0  0  0  0  0  0  0  0  0
  147.8135  136.0358  155.1874 O   0  0  0  0  0  0  0  0  0  0  0  0
  148.4811  136.4783  156.3253 C   0  0  2  0  0  0  0  0  0  0  0  0
  149.7147  137.2306  155.8756 N   0  0  0  0  0  0  0  0  0  0  0  0
  149.8764  138.5629  156.2190 C   0  0  0  0  0  0  0  0  0  0  0  0
  150.9972  139.2412  155.9012 C   0  0  0  0  0  0  0  0  0  0  0  0
  151.1186  140.5341  156.2483 F   0  0  0  0  0  0  0  0  0  0  0  0
  152.0798  138.5567  155.1989 C   0  0  0  0  0  0  0  0  0  0  0  0
  153.0874  139.1868  154.8813 O   0  0  0  0  0  0  0  0  0  0  0  0
  151.9237  137.2281  154.9313 N   0  5  0  0  0  0  0  0  0  0  0  0
  150.7968  136.5334  155.2675 C   0  0  0  0  0  0  0  0  0  0  0  0
  150.6753  135.3260  155.0621 O   0  0  0  0  0  0  0  0  0  0  0  0
  148.8052  135.2501  157.2004 C   0  0  1  0  0  0  0  0  0  0  0  0
  148.2133  135.3703  158.4872 O   0  0  0  0  0  0  0  0  0  0  0  0
  148.8604  136.0255  159.4669 C   0  0  0  0  0  0  0  0  0  0  0  0
  148.0152  136.1694  160.7253 C   0  0  0  0  0  0  0  0  0  0  0  0
  150.0029  136.4800  159.4039 O   0  0  0  0  0  0  0  0  0  0  0  0
  148.1431  134.1075  156.4361 C   0  0  2  0  0  0  0  0  0  0  0  0
  149.1143  133.3819  155.6887 O   0  0  0  0  0  0  0  0  0  0  0  0
  150.1312  132.7630  156.3131 C   0  0  0  0  0  0  0  0  0  0  0  0
  150.7492  131.6624  155.4614 C   0  0  0  0  0  0  0  0  0  0  0  0
  150.5564  133.0223  157.4389 O   0  0  0  0  0  0  0  0  0  0  0  0
  145.9408  136.4155  151.1564 H   0  0  0  0  0  0  0  0  0  0  0  0
  144.3061  135.8873  151.5854 H   0  0  0  0  0  0  0  0  0  0  0  0
  145.1241  135.1859  150.1818 H   0  0  0  0  0  0  0  0  0  0  0  0
  145.9731  133.3285  154.4867 H   0  0  0  0  0  0  0  0  0  0  0  0
  147.6154  133.4780  153.8704 H   0  0  0  0  0  0  0  0  0  0  0  0
  146.2565  135.0657  156.0893 H   0  0  0  0  0  0  0  0  0  0  0  0
  147.8432  137.1783  156.8655 H   0  0  0  0  0  0  0  0  0  0  0  0
  149.1010  139.0781  156.7646 H   0  0  0  0  0  0  0  0  0  0  0  0
  149.8789  135.0894  157.2986 H   0  0  0  0  0  0  0  0  0  0  0  0
  147.7140  135.1887  161.0937 H   0  0  0  0  0  0  0  0  0  0  0  0
  147.1186  136.7520  160.5136 H   0  0  0  0  0  0  0  0  0  0  0  0
  148.5792  136.6751  161.5093 H   0  0  0  0  0  0  0  0  0  0  0  0
  147.6114  133.4239  157.1004 H   0  0  0  0  0  0  0  0  0  0  0  0
  150.0077  130.8951  155.2385 H   0  0  0  0  0  0  0  0  0  0  0  0
  151.5844  131.1955  155.9841 H   0  0  0  0  0  0  0  0  0  0  0  0
  151.1165  132.0741  154.5211 H   0  0  0  0  0  0  0  0  0  0  0  0
  1  2  1  0  0  0  0
  1 28  1  0  0  0  0
  1 29  1  0  0  0  0
  1 30  1  0  0  0  0
  2  3  2  0  0  0  0
  2  4  1  0  0  0  0
  4  5  1  0  0  0  0
  5  6  1  0  0  0  0
  5 31  1  0  0  0  0
  5 32  1  0  0  0  0
  6 23  1  0  0  0  0
  6  7  1  0  0  0  0
  6 33  1  0  0  0  0
  7  8  1  0  0  0  0
  8  9  1  0  0  0  0
  8 18  1  0  0  0  0
  8 34  1  0  0  0  0
  9 16  1  0  0  0  0
  9 10  1  0  0  0  0
 10 11  2  0  0  0  0
 10 35  1  0  0  0  0
 11 12  1  0  0  0  0
 11 13  1  0  0  0  0
 13 14  2  0  0  0  0
 13 15  1  0  0  0  0
 15 16  1  0  0  0  0
 16 17  2  0  0  0  0
 18 19  1  0  0  0  0
 18 23  1  0  0  0  0
 18 36  1  0  0  0  0
 19 20  1  0  0  0  0
 20 21  1  0  0  0  0
 20 22  2  0  0  0  0
 21 37  1  0  0  0  0
 21 38  1  0  0  0  0
 21 39  1  0  0  0  0
 23 24  1  0  0  0  0
 23 40  1  0  0  0  0
 24 25  1  0  0  0  0
 25 26  1  0  0  0  0
 25 27  2  0  0  0  0
 26 41  1  0  0  0  0
 26 42  1  0  0  0  0
 26 43  1  0  0  0  0
M  CHG  1  15  -1
M  END
> <s_m_source_file>
AV-unprocessed.smi

> <i_m_source_file_index>
102

> <i_lp_mmshare_version>
43012

> <i_f3d_flags>
0

> <s_epik_input>
W0NIM11DKD1PKU9bQ0gyXVtDQEBIXTFPW0NASF0oW0NAQEhdKE9DKD1PKVtDSDNdKVtDQEhdMU9DKD1PKVtDSDNdKW4yW2NIXWMoRiljKD1PKVtuSF1jMj1P

> <s_epik_cmdline>
J2VwaWtfcHl0aG9uJywgJy1waCcsICc3LjAnLCAnLXRuJywgJzgnLCAnLW1hJywgJzIwMCcsICctbWV0YWxfYmluZGluZycsICctaW1hZScsICc8aW5maWxlLm1hZT4nLCAnLW9tYWUnLCAnPG91dGZpbGUubWFlPic=

> <r_epik_Ionization_Penalty>
1.40304

> <r_epik_Ionization_Penalty_Charging>
1.43915e-08

> <r_epik_Ionization_Penalty_Neutral>
1.40304

> <r_epik_State_Penalty>
1.48536

> <r_epik_Charging_Adjusted_Penalty>
1.48536

> <i_epik_Tot_Q>
-1

> <i_epik_Tot_abs_Q>
1

> <r_epik_Metal_State_Penalty>
0.00663881

> <b_epik_Metal_Only>
0

> <s_epik_Chemistry_Notes>
This compound has an ester and may undergo hydrolysis at high or low pH. This compound contains an acetal/aminal-like group ( X-CH(R)-Y where X, Y are N, S, or O) that may be acid/base labile, releasing an aldehyde.

> <s_lp_Force_Field>
OPLS_2005

> <r_lp_Energy>
22.9576

> <b_lp_Chiralities_Consistent>
1

> <s_lp_Variant>
AV-unprocessed.smi:102-27

> <Gold.Version>
5.8.1

> <Gold.Id.Protein>
6NUR|6NUR_protein|mol2

> <Gold.PLP.Fitness>
42.4669

> <Gold.PLP.PLP>
-31.0428

> <Gold.PLP.part.hbond>
-5.0327

> <Gold.PLP.part.metal>
0.0000

> <Gold.PLP.part.buried>
-7.5661

> <Gold.PLP.part.nonpolar>
-21.8721

> <Gold.PLP.part.repulsive>
0.7604

> <Gold.PLP.ligand.clash>
0.0000

> <Gold.PLP.ligand.torsion>
0.8724

> <Gold.PLP.Chemscore.Hbond>
4.3248

> <Gold.PLP.Chemscore.CHOScore>
0.0000

> <Gold.PLP.Chemscore.Metal>
0.0000

> <Gold.Chemscore.Hbonds>
donor molecule, donor type, donor heavy atom, donor atom, acceptor molecule, acceptor atom, score
      P1  H  6896  6907       L1    27  1.00
      P1  H  6896  6908       L1    22  1.00
      P1  H  7997  8008       L1    14  1.00
      P1  H 10752 10765       L1    15  1.36

> <Gold.PLP.Chemscore.Internal.Correction>
0.1944

> <Gold.Rescore>
     Score         DG    S(hbond)    S(metal)    S(lipo)     H(rot)  DE(clash)    DE(int)     intcor
      5.04     -10.21       3.32        0.00      33.14       4.00       0.03       5.14       ----

> <Gold.Chemscore.Fitness>
5.0424

> <Gold.Chemscore.DG>
-10.2085

> <Gold.Chemscore.ZeroCoef>
-5.4800

> <Gold.Chemscore.Hbond>
3.3169

> <Gold.Chemscore.Metal>
0.0000

> <Gold.Chemscore.Lipo>
33.1419

> <Gold.Chemscore.Internal_Hbond>
0.0000

> <Gold.Chemscore.DEClash>
0.0310

> <Gold.Chemscore.DEInternal>
5.1351

> <Gold.Chemscore.Rot>
3.9951

> <Gold.Chemscore.Internal.Correction>
   9.000000E+99

> <Gold.Chemscore.Hbonds>
donor molecule, donor type, donor heavy atom, donor atom, acceptor molecule, acceptor atom, score
      P1  H  6896  6907       L1    27  0.97
      P1  H  6896  6908       L1    22  0.45
      P1  H  7997  8008       L1    14  0.98
      P1  H 10752 10765       L1    15  0.14

> <Gold.Chemscore.Hbond.Weighted>
-11.0783

> <Gold.Chemscore.Metal.Weighted>
-0.0000

> <Gold.Chemscore.Lipo.Weighted>
-3.8776

> <Gold.Chemscore.Internal_Hbond.Weighted>
0.0000

> <Gold.Chemscore.DEClash.Weighted>
0.0310

> <Gold.Chemscore.DEInternal.Weighted>
5.1351

> <Gold.Chemscore.Rot.Weighted>
10.2274

> <Gold.Chemscore.Internal.Correction.Weighted>
   9.000000E+99

> <Gold.Protein.RotatedTorsions>
[ 6907 6896 6895 6894 ] final -150.56 input  -60.11 | X-H torsion
[ 7974 7965 7964 7962 ] final    1.96 input  175.53 | X-H torsion
[ 8008 7997 7996 7995 ] final   -7.90 input   59.86 | X-H torsion
[ 10167 10162 10161 10158 ] final -100.97 input  -65.29 | X-H torsion
[ 10718 10713 10712 10709 ] final -156.73 input   66.30 | X-H torsion
[ 10763 10752 10751 10750 ] final  150.45 input  -60.55 | X-H torsion
[ 11005 11000 10999 10996 ] final  117.02 input  -57.11 | X-H torsion

> <Gold.Protein.ActiveResidues>
 VAL166  LYS551  ARG553  GLY616  TRP617  ASP618  TYR619  PRO620  LYS621  CYS622 
 ASP623  PHE694  ASN695  SER759  ASP760  ASP761  ALA762  ILE779  LEU786  VAL792 
 PHE793  MET794  SER795  GLU796  ALA797  LYS798  CYS799  TRP800  GLU811  SER814 

> <Gold.Protein.RotatedAtoms>
  151.2004  133.4614  159.2595 H   0  0  0  0  0  0  0  0  0  0  0  0  # atno 6907 bound_to 6896
  151.1075  135.0008  159.8488 H   0  0  0  0  0  0  0  0  0  0  0  0  # atno 6908 bound_to 6896
  152.5448  134.1926  159.8733 H   0  0  0  0  0  0  0  0  0  0  0  0  # atno 6909 bound_to 6896
  146.2442  140.0909  142.8352 H   0  0  0  0  0  0  0  0  0  0  0  0  # atno 7974 bound_to 7965
  154.5793  140.2395  155.8077 H   0  0  0  0  0  0  0  0  0  0  0  0  # atno 8008 bound_to 7997
  156.2167  140.3010  155.9812 H   0  0  0  0  0  0  0  0  0  0  0  0  # atno 8009 bound_to 7997
  155.2570  140.0413  157.2983 H   0  0  0  0  0  0  0  0  0  0  0  0  # atno 8010 bound_to 7997
  140.2463  143.3504  152.0756 H   0  0  0  0  0  0  0  0  0  0  0  0  # atno 10167 bound_to 10162
  156.5305  130.8519  151.2714 H   0  0  0  0  0  0  0  0  0  0  0  0  # atno 10718 bound_to 10713
  154.0877  135.2855  155.3278 H   0  0  0  0  0  0  0  0  0  0  0  0  # atno 10763 bound_to 10752
  154.6641  135.5324  153.8058 H   0  0  0  0  0  0  0  0  0  0  0  0  # atno 10764 bound_to 10752
  153.0425  135.6541  154.1048 H   0  0  0  0  0  0  0  0  0  0  0  0  # atno 10765 bound_to 10752
  139.9060  134.9605  156.7287 H   0  0  0  0  0  0  0  0  0  0  0  0  # atno 11005 bound_to 11000
  145.0651  140.9116  143.4915 LP  0  0  0  0  0  0  0  0  0  0  0  0  # atno 17320 bound_to 7965
  145.1032  139.2808  143.5675 LP  0  0  0  0  0  0  0  0  0  0  0  0  # atno 17321 bound_to 7965
  139.5061  144.6807  151.6016 LP  0  0  0  0  0  0  0  0  0  0  0  0  # atno 17342 bound_to 10162
  140.6075  143.9497  150.6429 LP  0  0  0  0  0  0  0  0  0  0  0  0  # atno 17343 bound_to 10162
  157.7422  130.9886  150.2502 LP  0  0  0  0  0  0  0  0  0  0  0  0  # atno 17370 bound_to 10713
  156.3064  130.3765  149.7702 LP  0  0  0  0  0  0  0  0  0  0  0  0  # atno 17371 bound_to 10713
  140.6942  133.9363  155.7985 LP  0  0  0  0  0  0  0  0  0  0  0  0  # atno 17394 bound_to 11000
  141.0419  134.0609  157.3891 LP  0  0  0  0  0  0  0  0  0  0  0  0  # atno 17395 bound_to 11000

$$$$
