AV-unprocessed.smi:1924|AV-procd|sdf|7791|dock1
  -GOLD-   22720 9533D 1   1.00000     0.00000
 Structure written by MMmdl.
 42 43  0  0  0  0  0  0  0  0  1 V2000
  144.9710  134.5957  151.1445 C   0  0  0  0  0  0  0  0  0  0  0  0
  145.6241  135.9352  150.7865 C   0  0  0  0  0  0  0  0  0  0  0  0
  145.6269  136.9224  151.9620 C   0  0  0  0  0  0  0  0  0  0  0  0
  146.2824  138.2651  151.6006 C   0  0  0  0  0  0  0  0  0  0  0  0
  147.5720  138.4256  152.2627 N   0  0  0  0  0  0  0  0  0  0  0  0
  147.8337  139.3071  153.2383 C   0  0  0  0  0  0  0  0  0  0  0  0
  146.9916  140.0781  153.6966 O   0  0  0  0  0  0  0  0  0  0  0  0
  149.1152  139.2191  153.6356 N   0  0  0  0  0  0  0  0  0  0  0  0
  149.8130  139.9806  154.6139 C   0  0  0  0  0  0  0  0  0  0  0  0
  151.0616  139.4920  155.0485 C   0  0  0  0  0  0  0  0  0  0  0  0
  151.7934  140.2207  156.0045 C   0  0  0  0  0  0  0  0  0  0  0  0
  151.2495  141.4283  156.4970 C   0  0  0  0  0  0  0  0  0  0  0  0
  151.9254  142.2048  157.4478 N   0  0  0  0  0  0  0  0  0  0  0  0
  151.3592  143.5370  157.6157 C   0  0  0  0  0  0  0  0  0  0  0  0
  152.2302  144.3612  158.5799 C   0  0  0  0  0  0  0  0  0  0  0  0
  152.3642  143.6656  159.8164 O   0  0  0  0  0  0  0  0  0  0  0  0
  152.9905  142.3964  159.6503 C   0  0  0  0  0  0  0  0  0  0  0  0
  152.1386  141.5195  158.7163 C   0  0  0  0  0  0  0  0  0  0  0  0
  150.0568  141.9077  156.0845 N   0  0  0  0  0  0  0  0  0  0  0  0
  149.3592  141.2039  155.1670 C   0  0  0  0  0  0  0  0  0  0  0  0
  144.9854  133.9169  150.2916 H   0  0  0  0  0  0  0  0  0  0  0  0
  143.9315  134.7316  151.4442 H   0  0  0  0  0  0  0  0  0  0  0  0
  145.4966  134.1087  151.9663 H   0  0  0  0  0  0  0  0  0  0  0  0
  146.6482  135.7577  150.4560 H   0  0  0  0  0  0  0  0  0  0  0  0
  145.0981  136.3762  149.9388 H   0  0  0  0  0  0  0  0  0  0  0  0
  144.6018  137.0957  152.2924 H   0  0  0  0  0  0  0  0  0  0  0  0
  146.1517  136.4737  152.8066 H   0  0  0  0  0  0  0  0  0  0  0  0
  146.4000  138.3559  150.5193 H   0  0  0  0  0  0  0  0  0  0  0  0
  145.6387  139.0883  151.9122 H   0  0  0  0  0  0  0  0  0  0  0  0
  148.3212  137.8265  151.9486 H   0  0  0  0  0  0  0  0  0  0  0  0
  149.6630  138.5007  153.1854 H   0  0  0  0  0  0  0  0  0  0  0  0
  151.4583  138.5674  154.6548 H   0  0  0  0  0  0  0  0  0  0  0  0
  152.7508  139.8570  156.3479 H   0  0  0  0  0  0  0  0  0  0  0  0
  151.2962  144.0362  156.6481 H   0  0  0  0  0  0  0  0  0  0  0  0
  150.3440  143.4616  158.0078 H   0  0  0  0  0  0  0  0  0  0  0  0
  153.2146  144.5516  158.1490 H   0  0  0  0  0  0  0  0  0  0  0  0
  151.7702  145.3317  158.7661 H   0  0  0  0  0  0  0  0  0  0  0  0
  153.9979  142.5259  159.2515 H   0  0  0  0  0  0  0  0  0  0  0  0
  153.0921  141.9194  160.6254 H   0  0  0  0  0  0  0  0  0  0  0  0
  151.1791  141.3029  159.1877 H   0  0  0  0  0  0  0  0  0  0  0  0
  152.6361  140.5648  158.5408 H   0  0  0  0  0  0  0  0  0  0  0  0
  148.4268  141.6608  154.8782 H   0  0  0  0  0  0  0  0  0  0  0  0
  1  2  1  0  0  0  0
  1 21  1  0  0  0  0
  1 22  1  0  0  0  0
  1 23  1  0  0  0  0
  2  3  1  0  0  0  0
  2 24  1  0  0  0  0
  2 25  1  0  0  0  0
  3  4  1  0  0  0  0
  3 26  1  0  0  0  0
  3 27  1  0  0  0  0
  4  5  1  0  0  0  0
  4 28  1  0  0  0  0
  4 29  1  0  0  0  0
  5  6  1  0  0  0  0
  5 30  1  0  0  0  0
  6  7  2  0  0  0  0
  6  8  1  0  0  0  0
  8  9  1  0  0  0  0
  8 31  1  0  0  0  0
  9 20  1  0  0  0  0
  9 10  2  0  0  0  0
 10 11  1  0  0  0  0
 10 32  1  0  0  0  0
 11 12  2  0  0  0  0
 11 33  1  0  0  0  0
 12 13  1  0  0  0  0
 12 19  1  0  0  0  0
 13 18  1  0  0  0  0
 13 14  1  0  0  0  0
 14 15  1  0  0  0  0
 14 34  1  0  0  0  0
 14 35  1  0  0  0  0
 15 16  1  0  0  0  0
 15 36  1  0  0  0  0
 15 37  1  0  0  0  0
 16 17  1  0  0  0  0
 17 18  1  0  0  0  0
 17 38  1  0  0  0  0
 17 39  1  0  0  0  0
 18 40  1  0  0  0  0
 18 41  1  0  0  0  0
 19 20  2  0  0  0  0
 20 42  1  0  0  0  0
M  END
> <s_m_source_file>
AV-unprocessed.smi

> <i_m_source_file_index>
1924

> <i_lp_mmshare_version>
43012

> <i_f3d_flags>
0

> <s_epik_input>
W0NIM11bQ0gyXVtDSDJdW0NIMl1bTkhdQyg9TylbTkhdYzFbY0hdW2NIXWMobltjSF0xKU4yW0NIMl1bQ0gyXU9bQ0gyXVtDSDJdMg==

> <s_epik_cmdline>
J2VwaWtfcHl0aG9uJywgJy1waCcsICc3LjAnLCAnLXRuJywgJzgnLCAnLW1hJywgJzIwMCcsICctbWV0YWxfYmluZGluZycsICctaW1hZScsICc8aW5maWxlLm1hZT4nLCAnLW9tYWUnLCAnPG91dGZpbGUubWFlPic=

> <r_lp_tautomer_probability>
1

> <r_epik_Ionization_Penalty>
0.00209113

> <r_epik_Ionization_Penalty_Charging>
0

> <r_epik_Ionization_Penalty_Neutral>
0.00209113

> <r_epik_State_Penalty>
0.00140385

> <r_epik_Charging_Adjusted_Penalty>
0.00140385

> <i_epik_Tot_Q>
0

> <i_epik_Tot_abs_Q>
0

> <r_epik_Metal_State_Penalty>
-0

> <b_epik_Metal_Only>
0

> <s_lp_Force_Field>
OPLS_2005

> <r_lp_Energy>
21.2234

> <b_lp_Chiralities_Consistent>
1

> <s_lp_Variant>
AV-unprocessed.smi:1924-1

> <Gold.Version>
5.8.1

> <Gold.Id.Protein>
6NUR|6NUR_protein|mol2

> <Gold.PLP.Fitness>
43.1507

> <Gold.PLP.PLP>
-41.2338

> <Gold.PLP.part.hbond>
-3.0000

> <Gold.PLP.part.metal>
0.0000

> <Gold.PLP.part.buried>
-0.0829

> <Gold.PLP.part.nonpolar>
-38.5816

> <Gold.PLP.part.repulsive>
0.5377

> <Gold.PLP.ligand.clash>
0.0000

> <Gold.PLP.ligand.torsion>
0.5728

> <Gold.PLP.Chemscore.Hbond>
0.9760

> <Gold.PLP.Chemscore.CHOScore>
0.0000

> <Gold.PLP.Chemscore.Metal>
0.0000

> <Gold.Chemscore.Hbonds>
donor molecule, donor type, donor heavy atom, donor atom, acceptor molecule, acceptor atom, score
      L1  H     5    30       P1  7948  0.98

> <Gold.PLP.Chemscore.Internal.Correction>
0.1345

> <Gold.Rescore>
     Score         DG    S(hbond)    S(metal)    S(lipo)     H(rot)  DE(clash)    DE(int)     intcor
     14.28     -16.20       0.95        0.00      97.51       1.51       0.22       1.70       ----

> <Gold.Chemscore.Fitness>
14.2787

> <Gold.Chemscore.DG>
-16.1972

> <Gold.Chemscore.ZeroCoef>
-5.4800

> <Gold.Chemscore.Hbond>
0.9537

> <Gold.Chemscore.Metal>
0.0000

> <Gold.Chemscore.Lipo>
97.5083

> <Gold.Chemscore.Internal_Hbond>
0.0000

> <Gold.Chemscore.DEClash>
0.2191

> <Gold.Chemscore.DEInternal>
1.6994

> <Gold.Chemscore.Rot>
1.5144

> <Gold.Chemscore.Internal.Correction>
   9.000000E+99

> <Gold.Chemscore.Hbonds>
donor molecule, donor type, donor heavy atom, donor atom, acceptor molecule, acceptor atom, score
      L1  H     5    30       P1  7948  0.93

> <Gold.Chemscore.Hbond.Weighted>
-3.1854

> <Gold.Chemscore.Metal.Weighted>
-0.0000

> <Gold.Chemscore.Lipo.Weighted>
-11.4085

> <Gold.Chemscore.Internal_Hbond.Weighted>
0.0000

> <Gold.Chemscore.DEClash.Weighted>
0.2191

> <Gold.Chemscore.DEInternal.Weighted>
1.6994

> <Gold.Chemscore.Rot.Weighted>
3.8767

> <Gold.Chemscore.Internal.Correction.Weighted>
   9.000000E+99

> <Gold.Protein.RotatedTorsions>
[ 6907 6896 6895 6894 ] final  -37.20 input  -60.11 | X-H torsion
[ 7974 7965 7964 7962 ] final  -58.33 input  175.53 | X-H torsion
[ 8008 7997 7996 7995 ] final  165.80 input   59.86 | X-H torsion
[ 10167 10162 10161 10158 ] final  -15.76 input  -65.29 | X-H torsion
[ 10718 10713 10712 10709 ] final  -46.14 input   66.30 | X-H torsion
[ 10763 10752 10751 10750 ] final -148.57 input  -60.55 | X-H torsion
[ 11005 11000 10999 10996 ] final   21.79 input  -57.11 | X-H torsion

> <Gold.Protein.ActiveResidues>
 VAL166  LYS551  ARG553  GLY616  TRP617  ASP618  TYR619  PRO620  LYS621  CYS622 
 ASP623  PHE694  ASN695  SER759  ASP760  ASP761  ALA762  ILE779  LEU786  VAL792 
 PHE793  MET794  SER795  GLU796  ALA797  LYS798  CYS799  TRP800  GLU811  SER814 

> <Gold.Protein.RotatedAtoms>
  151.0177  134.9445  159.8041 H   0  0  0  0  0  0  0  0  0  0  0  0  # atno 6907 bound_to 6896
  152.5318  134.2945  159.9065 H   0  0  0  0  0  0  0  0  0  0  0  0  # atno 6908 bound_to 6896
  151.2952  133.4105  159.2670 H   0  0  0  0  0  0  0  0  0  0  0  0  # atno 6909 bound_to 6896
  145.8406  140.8420  143.0037 H   0  0  0  0  0  0  0  0  0  0  0  0  # atno 7974 bound_to 7965
  156.1771  140.1660  156.8343 H   0  0  0  0  0  0  0  0  0  0  0  0  # atno 8008 bound_to 7997
  154.5319  140.0755  156.8393 H   0  0  0  0  0  0  0  0  0  0  0  0  # atno 8009 bound_to 7997
  155.3390  140.3383  155.4241 H   0  0  0  0  0  0  0  0  0  0  0  0  # atno 8010 bound_to 7997
  140.7223  143.5185  150.9662 H   0  0  0  0  0  0  0  0  0  0  0  0  # atno 10167 bound_to 10162
  156.2213  130.4166  149.8990 H   0  0  0  0  0  0  0  0  0  0  0  0  # atno 10718 bound_to 10713
  154.8225  135.3331  154.6995 H   0  0  0  0  0  0  0  0  0  0  0  0  # atno 10763 bound_to 10752
  153.7625  135.6931  153.4927 H   0  0  0  0  0  0  0  0  0  0  0  0  # atno 10764 bound_to 10752
  153.2100  135.4485  155.0318 H   0  0  0  0  0  0  0  0  0  0  0  0  # atno 10765 bound_to 10752
  140.3877  134.1853  155.7663 H   0  0  0  0  0  0  0  0  0  0  0  0  # atno 11005 bound_to 11000
  144.6734  140.0806  143.7469 LP  0  0  0  0  0  0  0  0  0  0  0  0  # atno 17320 bound_to 7965
  145.9470  139.2707  143.1235 LP  0  0  0  0  0  0  0  0  0  0  0  0  # atno 17321 bound_to 7965
  139.8902  143.6963  152.3146 LP  0  0  0  0  0  0  0  0  0  0  0  0  # atno 17342 bound_to 10162
  139.7276  144.7589  151.0854 LP  0  0  0  0  0  0  0  0  0  0  0  0  # atno 17343 bound_to 10162
  156.6635  130.8792  151.3551 LP  0  0  0  0  0  0  0  0  0  0  0  0  # atno 17370 bound_to 10713
  157.7088  130.9416  150.1021 LP  0  0  0  0  0  0  0  0  0  0  0  0  # atno 17371 bound_to 10713
  141.1902  133.8223  157.0929 LP  0  0  0  0  0  0  0  0  0  0  0  0  # atno 17394 bound_to 11000
  140.0430  134.9844  157.0997 LP  0  0  0  0  0  0  0  0  0  0  0  0  # atno 17395 bound_to 11000

$$$$
