AV-unprocessed.smi:39|AV-procd|sdf|362|dock4
  -GOLD-   2262016203D 1   1.00000     0.00000
 Structure written by MMmdl.
 31 32  0  0  0  0  0  0  0  0  4 V2000
  147.8044  133.1431  152.5299 C   0  0  0  0  0  0  0  0  0  0  0  0
  148.4956  133.0742  153.8804 C   0  0  0  0  0  0  0  0  0  0  0  0
  148.9978  134.1711  154.4900 C   0  0  0  0  0  0  0  0  0  0  0  0
  149.6279  134.1042  155.7223 N   0  0  0  0  0  0  0  0  0  0  0  0
  150.2007  135.3364  156.3968 C   0  0  2  0  0  0  0  0  0  0  0  0
  149.1027  136.3913  156.6343 C   0  0  0  0  0  0  0  0  0  0  0  0
  149.7080  137.6559  156.0406 C   0  0  1  0  0  0  0  0  0  0  0  0
  150.5086  138.3827  157.0364 N   0  0  0  0  0  0  0  0  0  0  0  0
  150.7581  137.7839  158.0906 N   0  3  0  0  0  0  0  0  0  0  0  0
  150.9162  137.3199  159.1176 N   0  5  0  0  0  0  0  0  0  0  0  0
  150.5752  137.0617  154.9246 C   0  0  1  0  0  0  0  0  0  0  0  0
  151.6595  137.9990  154.3655 C   0  0  0  0  0  0  0  0  0  0  0  0
  152.4477  137.3160  153.4137 O   0  0  0  0  0  0  0  0  0  0  0  0
  151.1572  135.9347  155.5696 O   0  0  0  0  0  0  0  0  0  0  0  0
  149.7735  132.8461  156.3642 C   0  0  0  0  0  0  0  0  0  0  0  0
  150.3534  132.8160  157.4503 O   0  0  0  0  0  0  0  0  0  0  0  0
  149.2680  131.7346  155.7579 N   0  5  0  0  0  0  0  0  0  0  0  0
  148.6330  131.7761  154.5517 C   0  0  0  0  0  0  0  0  0  0  0  0
  148.1782  130.7652  154.0167 O   0  0  0  0  0  0  0  0  0  0  0  0
  150.6816  134.9767  157.3079 H   0  0  0  0  0  0  0  0  0  0  0  0
  148.9373  138.3021  155.6162 H   0  0  0  0  0  0  0  0  0  0  0  0
  149.9184  136.7269  154.1189 H   0  0  0  0  0  0  0  0  0  0  0  0
  147.7606  134.1673  152.1584 H   0  0  0  0  0  0  0  0  0  0  0  0
  146.7833  132.7674  152.6046 H   0  0  0  0  0  0  0  0  0  0  0  0
  148.3417  132.5401  151.7974 H   0  0  0  0  0  0  0  0  0  0  0  0
  148.8984  135.1202  153.9865 H   0  0  0  0  0  0  0  0  0  0  0  0
  148.1984  136.1174  156.0884 H   0  0  0  0  0  0  0  0  0  0  0  0
  148.8561  136.4675  157.6940 H   0  0  0  0  0  0  0  0  0  0  0  0
  151.1969  138.8465  153.8590 H   0  0  0  0  0  0  0  0  0  0  0  0
  152.2898  138.3983  155.1608 H   0  0  0  0  0  0  0  0  0  0  0  0
  151.9199  137.1555  152.6465 H   0  0  0  0  0  0  0  0  0  0  0  0
  1  2  1  0  0  0  0
  1 23  1  0  0  0  0
  1 24  1  0  0  0  0
  1 25  1  0  0  0  0
  2 18  1  0  0  0  0
  2  3  2  0  0  0  0
  3  4  1  0  0  0  0
  3 26  1  0  0  0  0
  4  5  1  0  0  0  0
  4 15  1  0  0  0  0
  5 20  1  0  0  0  0
  5 14  1  0  0  0  0
  5  6  1  0  0  0  0
  6  7  1  0  0  0  0
  6 27  1  0  0  0  0
  6 28  1  0  0  0  0
  7 21  1  0  0  0  0
  7  8  1  0  0  0  0
  7 11  1  0  0  0  0
  8  9  2  0  0  0  0
  9 10  2  0  0  0  0
 11 22  1  0  0  0  0
 11 12  1  0  0  0  0
 11 14  1  0  0  0  0
 12 13  1  0  0  0  0
 12 29  1  0  0  0  0
 12 30  1  0  0  0  0
 13 31  1  0  0  0  0
 15 16  2  0  0  0  0
 15 17  1  0  0  0  0
 17 18  1  0  0  0  0
 18 19  2  0  0  0  0
M  CHG  1   9   1
M  CHG  1  10  -1
M  CHG  1  17  -1
M  END
> <s_m_source_file>
AV-unprocessed.smi

> <i_m_source_file_index>
39

> <i_lp_mmshare_version>
43012

> <i_f3d_flags>
0

> <s_epik_input>
Tz1jMVtuSF1jKD1PKW4oW2NIXWMxW0NIM10pW0NASF0yW0NIMl1bQ0BIXShOPVtOK109W04tXSlbQ0BIXShPMilbQ0gyXVtPSF0=

> <s_epik_cmdline>
J2VwaWtfcHl0aG9uJywgJy1waCcsICc3LjAnLCAnLXRuJywgJzgnLCAnLW1hJywgJzIwMCcsICctbWV0YWxfYmluZGluZycsICctaW1hZScsICc8aW5maWxlLm1hZT4nLCAnLW9tYWUnLCAnPG91dGZpbGUubWFlPic=

> <r_lp_tautomer_probability>
0.999537

> <r_epik_Ionization_Penalty>
3.6393

> <r_epik_Ionization_Penalty_Charging>
9.76484e-08

> <r_epik_Ionization_Penalty_Neutral>
3.6393

> <r_epik_State_Penalty>
3.63887

> <r_epik_Charging_Adjusted_Penalty>
3.63887

> <i_epik_Tot_Q>
-1

> <i_epik_Tot_abs_Q>
3

> <r_epik_Metal_State_Penalty>
0.225911

> <b_epik_Metal_Only>
1

> <s_epik_Chemistry_Notes>
This compound contains an acetal/aminal-like group ( X-CH(R)-Y where X, Y are N, S, or O) that may be acid/base labile, releasing an aldehyde.

> <s_lp_Force_Field>
OPLS_2005

> <r_lp_Energy>
37.741

> <b_lp_Chiralities_Consistent>
1

> <s_lp_Variant>
AV-unprocessed.smi:39-12

> <Gold.Version>
5.8.1

> <Gold.Id.Protein>
6NUR|6NUR_protein|mol2

> <Gold.PLP.Fitness>
40.1118

> <Gold.PLP.PLP>
-24.2985

> <Gold.PLP.part.hbond>
-5.0000

> <Gold.PLP.part.metal>
0.0000

> <Gold.PLP.part.buried>
-1.2760

> <Gold.PLP.part.nonpolar>
-18.4866

> <Gold.PLP.part.repulsive>
0.1296

> <Gold.PLP.ligand.clash>
0.0000

> <Gold.PLP.ligand.torsion>
0.2051

> <Gold.PLP.Chemscore.Hbond>
4.3920

> <Gold.PLP.Chemscore.CHOScore>
1.0000

> <Gold.PLP.Chemscore.Metal>
0.0000

> <Gold.Chemscore.Hbonds>
donor molecule, donor type, donor heavy atom, donor atom, acceptor molecule, acceptor atom, score
      L1  H    13    31       P1  7949  0.99
      P1  H  6896  6907       L1    16  1.00
      P1  H  6896  6908       L1    10  0.19
      P1  H 10752 10764       L1    13  0.61
      P1  H 10752 10765       L1    14  0.43
      L1  C     3    26       P1  7948  1.00

> <Gold.PLP.Chemscore.Internal.Correction>
0.0476

> <Gold.Rescore>
     Score         DG    S(hbond)    S(metal)    S(lipo)     H(rot)  DE(clash)    DE(int)     intcor
     15.09     -16.32       4.10        0.00      34.99       2.72       0.09       1.14       ----

> <Gold.Chemscore.Fitness>
15.0904

> <Gold.Chemscore.DG>
-16.3177

> <Gold.Chemscore.ZeroCoef>
-5.4800

> <Gold.Chemscore.Hbond>
4.1004

> <Gold.Chemscore.Metal>
0.0000

> <Gold.Chemscore.Lipo>
34.9879

> <Gold.Chemscore.Internal_Hbond>
0.0000

> <Gold.Chemscore.DEClash>
0.0853

> <Gold.Chemscore.DEInternal>
1.1419

> <Gold.Chemscore.Rot>
2.7153

> <Gold.Chemscore.Internal.Correction>
   9.000000E+99

> <Gold.Chemscore.Hbonds>
donor molecule, donor type, donor heavy atom, donor atom, acceptor molecule, acceptor atom, score
      L1  H    13    31       P1  7949  0.94
      P1  H  6896  6907       L1    16  0.93
      P1  H  6896  6908       L1    10  0.21
      P1  H 10752 10764       L1    13  0.27
      P1  H 10752 10765       L1    14  0.43

> <Gold.Chemscore.Hbond.Weighted>
-13.6953

> <Gold.Chemscore.Metal.Weighted>
-0.0000

> <Gold.Chemscore.Lipo.Weighted>
-4.0936

> <Gold.Chemscore.Internal_Hbond.Weighted>
0.0000

> <Gold.Chemscore.DEClash.Weighted>
0.0853

> <Gold.Chemscore.DEInternal.Weighted>
1.1419

> <Gold.Chemscore.Rot.Weighted>
6.9512

> <Gold.Chemscore.Internal.Correction.Weighted>
   9.000000E+99

> <Gold.Protein.RotatedTorsions>
[ 6907 6896 6895 6894 ] final -131.91 input  -60.11 | X-H torsion
[ 7974 7965 7964 7962 ] final   65.33 input  175.53 | X-H torsion
[ 8008 7997 7996 7995 ] final -145.19 input   59.86 | X-H torsion
[ 10167 10162 10161 10158 ] final  110.29 input  -65.29 | X-H torsion
[ 10718 10713 10712 10709 ] final   74.70 input   66.30 | X-H torsion
[ 10763 10752 10751 10750 ] final -138.79 input  -60.55 | X-H torsion
[ 11005 11000 10999 10996 ] final  177.74 input  -57.11 | X-H torsion

> <Gold.Protein.ActiveResidues>
 VAL166  LYS551  ARG553  GLY616  TRP617  ASP618  TYR619  PRO620  LYS621  CYS622 
 ASP623  PHE694  ASN695  SER759  ASP760  ASP761  ALA762  ILE779  LEU786  VAL792 
 PHE793  MET794  SER795  GLU796  ALA797  LYS798  CYS799  TRP800  GLU811  SER814 

> <Gold.Protein.RotatedAtoms>
  150.9563  133.6494  159.2762 H   0  0  0  0  0  0  0  0  0  0  0  0  # atno 6907 bound_to 6896
  151.3832  135.0942  159.9512 H   0  0  0  0  0  0  0  0  0  0  0  0  # atno 6908 bound_to 6896
  152.5130  133.9093  159.7534 H   0  0  0  0  0  0  0  0  0  0  0  0  # atno 6909 bound_to 6896
  145.8397  139.3188  143.0938 H   0  0  0  0  0  0  0  0  0  0  0  0  # atno 7974 bound_to 7965
  155.5392  140.0606  157.2873 H   0  0  0  0  0  0  0  0  0  0  0  0  # atno 8008 bound_to 7997
  154.4458  140.1922  156.0617 H   0  0  0  0  0  0  0  0  0  0  0  0  # atno 8009 bound_to 7997
  156.0597  140.3274  155.7451 H   0  0  0  0  0  0  0  0  0  0  0  0  # atno 8010 bound_to 7997
  139.6700  144.7126  151.1705 H   0  0  0  0  0  0  0  0  0  0  0  0  # atno 10167 bound_to 10162
  157.6603  130.9690  150.1248 H   0  0  0  0  0  0  0  0  0  0  0  0  # atno 10718 bound_to 10713
  154.8627  135.3602  154.5441 H   0  0  0  0  0  0  0  0  0  0  0  0  # atno 10763 bound_to 10752
  153.6061  135.7011  153.5370 H   0  0  0  0  0  0  0  0  0  0  0  0  # atno 10764 bound_to 10752
  153.3249  135.4141  155.1408 H   0  0  0  0  0  0  0  0  0  0  0  0  # atno 10765 bound_to 10752
  140.3874  134.6892  157.4487 H   0  0  0  0  0  0  0  0  0  0  0  0  # atno 11005 bound_to 11000
  145.9479  140.8931  143.0274 LP  0  0  0  0  0  0  0  0  0  0  0  0  # atno 17320 bound_to 7965
  144.6734  140.1639  143.7420 LP  0  0  0  0  0  0  0  0  0  0  0  0  # atno 17321 bound_to 7965
  140.7614  143.5859  150.8846 LP  0  0  0  0  0  0  0  0  0  0  0  0  # atno 17342 bound_to 10162
  139.9523  143.6257  152.3025 LP  0  0  0  0  0  0  0  0  0  0  0  0  # atno 17343 bound_to 10162
  156.2110  130.3666  149.8671 LP  0  0  0  0  0  0  0  0  0  0  0  0  # atno 17370 bound_to 10713
  156.6549  130.8759  151.3537 LP  0  0  0  0  0  0  0  0  0  0  0  0  # atno 17371 bound_to 10713
  140.0432  134.6237  155.8954 LP  0  0  0  0  0  0  0  0  0  0  0  0  # atno 17394 bound_to 11000
  141.1902  133.6568  156.5403 LP  0  0  0  0  0  0  0  0  0  0  0  0  # atno 17395 bound_to 11000

$$$$
