AV-unprocessed.smi:218|AV-procd|sdf|1664|dock3
  -GOLD-   2262020 63D 1   1.00000     0.00000
 Structure written by MMmdl.
 54 57  0  0  0  0  0  0  0  0  1 V2000
  153.2859  142.5688  162.3180 C   0  0  0  0  0  0  0  0  0  0  0  0
  153.6797  141.3767  161.4376 C   0  0  0  0  0  0  0  0  0  0  0  0
  154.8185  140.5644  162.0782 C   0  0  0  0  0  0  0  0  0  0  0  0
  154.0968  141.9108  160.1796 O   0  0  0  0  0  0  0  0  0  0  0  0
  153.1792  142.5185  159.3443 C   0  0  0  0  0  0  0  0  0  0  0  0
  152.1452  141.7283  158.8026 C   0  0  0  0  0  0  0  0  0  0  0  0
  151.2072  142.3295  157.9362 C   0  0  0  0  0  0  0  0  0  0  0  0
  150.0778  141.5226  157.3140 C   0  0  0  0  0  0  0  0  0  0  0  0
  149.4102  142.1581  156.1819 N   0  0  0  0  0  0  0  0  0  0  0  0
  148.6384  141.4236  155.3507 C   0  0  0  0  0  0  0  0  0  0  0  0
  148.6334  141.6557  154.0121 N   0  0  0  0  0  0  0  0  0  0  0  0
  147.8684  140.9109  153.2085 C   0  0  0  0  0  0  0  0  0  0  0  0
  147.0485  139.9081  153.5311 N   0  0  0  0  0  0  0  0  0  0  0  0
  147.0449  139.6757  154.8758 C   0  0  0  0  0  0  0  0  0  0  0  0
  147.8052  140.3874  155.8452 C   0  0  0  0  0  0  0  0  0  0  0  0
  147.5512  139.8766  157.1113 N   0  0  0  0  0  0  0  0  0  0  0  0
  146.6922  138.9162  156.8972 C   0  0  0  0  0  0  0  0  0  0  0  0
  146.3315  138.7281  155.5812 N   0  0  0  0  0  0  0  0  0  0  0  0
  145.3860  137.7108  155.0313 C   0  0  2  0  0  0  0  0  0  0  0  0
  145.8244  136.4506  155.4440 O   0  0  0  0  0  0  0  0  0  0  0  0
  145.6838  135.5109  154.3852 C   0  0  1  0  0  0  0  0  0  0  0  0
  144.2862  134.8630  154.4885 C   0  0  0  0  0  0  0  0  0  0  0  0
  144.1211  133.8676  153.5004 O   0  0  0  0  0  0  0  0  0  0  0  0
  145.9520  136.3675  153.1393 C   0  0  1  0  0  0  0  0  0  0  0  0
  145.4661  135.8224  151.9258 O   0  0  0  0  0  0  0  0  0  0  0  0
  145.3745  137.7380  153.4919 C   0  0  1  0  0  0  0  0  0  0  0  0
  144.0599  137.9124  152.9946 O   0  0  0  0  0  0  0  0  0  0  0  0
  151.3352  143.7047  157.6578 C   0  0  0  0  0  0  0  0  0  0  0  0
  152.4010  144.4122  158.2465 C   0  0  0  0  0  0  0  0  0  0  0  0
  153.3058  143.8404  159.0686 N   0  0  0  0  0  0  0  0  0  0  0  0
  144.4217  137.9507  155.4821 H   0  0  0  0  0  0  0  0  0  0  0  0
  146.4483  134.7413  154.5015 H   0  0  0  0  0  0  0  0  0  0  0  0
  147.0320  136.4714  153.0327 H   0  0  0  0  0  0  0  0  0  0  0  0
  146.0004  138.5447  153.1075 H   0  0  0  0  0  0  0  0  0  0  0  0
  152.9410  142.2378  163.2979 H   0  0  0  0  0  0  0  0  0  0  0  0
  152.4799  143.1421  161.8594 H   0  0  0  0  0  0  0  0  0  0  0  0
  154.1290  143.2434  162.4702 H   0  0  0  0  0  0  0  0  0  0  0  0
  152.7925  140.7519  161.3251 H   0  0  0  0  0  0  0  0  0  0  0  0
  154.5254  140.1884  163.0587 H   0  0  0  0  0  0  0  0  0  0  0  0
  155.7114  141.1761  162.2100 H   0  0  0  0  0  0  0  0  0  0  0  0
  155.0954  139.7043  161.4694 H   0  0  0  0  0  0  0  0  0  0  0  0
  152.0816  140.6779  159.0459 H   0  0  0  0  0  0  0  0  0  0  0  0
  150.4898  140.5730  156.9721 H   0  0  0  0  0  0  0  0  0  0  0  0
  149.3368  141.2771  158.0758 H   0  0  0  0  0  0  0  0  0  0  0  0
  149.3614  143.1662  156.2171 H   0  0  0  0  0  0  0  0  0  0  0  0
  147.9225  141.1517  152.1571 H   0  0  0  0  0  0  0  0  0  0  0  0
  146.2948  138.3138  157.7011 H   0  0  0  0  0  0  0  0  0  0  0  0
  144.1773  134.3781  155.4591 H   0  0  0  0  0  0  0  0  0  0  0  0
  143.4864  135.5990  154.4112 H   0  0  0  0  0  0  0  0  0  0  0  0
  143.7821  133.0875  153.9129 H   0  0  0  0  0  0  0  0  0  0  0  0
  145.1355  134.9539  152.0984 H   0  0  0  0  0  0  0  0  0  0  0  0
  143.9368  138.8261  152.7878 H   0  0  0  0  0  0  0  0  0  0  0  0
  150.6379  144.2074  157.0035 H   0  0  0  0  0  0  0  0  0  0  0  0
  152.5297  145.4668  158.0523 H   0  0  0  0  0  0  0  0  0  0  0  0
  1  2  1  0  0  0  0
  1 35  1  0  0  0  0
  1 36  1  0  0  0  0
  1 37  1  0  0  0  0
  2  3  1  0  0  0  0
  2  4  1  0  0  0  0
  2 38  1  0  0  0  0
  3 39  1  0  0  0  0
  3 40  1  0  0  0  0
  3 41  1  0  0  0  0
  4  5  1  0  0  0  0
  5 30  1  0  0  0  0
  5  6  2  0  0  0  0
  6  7  1  0  0  0  0
  6 42  1  0  0  0  0
  7  8  1  0  0  0  0
  7 28  2  0  0  0  0
  8  9  1  0  0  0  0
  8 43  1  0  0  0  0
  8 44  1  0  0  0  0
  9 10  1  0  0  0  0
  9 45  1  0  0  0  0
 10 15  1  0  0  0  0
 10 11  2  0  0  0  0
 11 12  1  0  0  0  0
 12 13  2  0  0  0  0
 12 46  1  0  0  0  0
 13 14  1  0  0  0  0
 14 18  1  0  0  0  0
 14 15  2  0  0  0  0
 15 16  1  0  0  0  0
 16 17  2  0  0  0  0
 17 18  1  0  0  0  0
 17 47  1  0  0  0  0
 18 19  1  0  0  0  0
 19 31  1  0  0  0  0
 19 26  1  0  0  0  0
 19 20  1  0  0  0  0
 20 21  1  0  0  0  0
 21 32  1  0  0  0  0
 21 22  1  0  0  0  0
 21 24  1  0  0  0  0
 22 23  1  0  0  0  0
 22 48  1  0  0  0  0
 22 49  1  0  0  0  0
 23 50  1  0  0  0  0
 24 33  1  0  0  0  0
 24 25  1  0  0  0  0
 24 26  1  0  0  0  0
 25 51  1  0  0  0  0
 26 34  1  0  0  0  0
 26 27  1  0  0  0  0
 27 52  1  0  0  0  0
 28 29  1  0  0  0  0
 28 53  1  0  0  0  0
 29 30  2  0  0  0  0
 29 54  1  0  0  0  0
M  END
> <s_m_source_file>
AV-unprocessed.smi

> <i_m_source_file_index>
218

> <i_lp_mmshare_version>
43012

> <i_f3d_flags>
0

> <s_epik_input>
W0NIM11bQ0hdKFtDSDNdKU9jMVtjSF1jKFtjSF1bY0hdbjEpW0NIMl1bTkhdYyhuW2NIXW4yKWMoYzIzKW5bY0hdbjNbQ0BASF00T1tDQEhdKFtDSDJdW09IXSlbQ0BASF0oW09IXSlbQ0BIXTRbT0hd

> <s_epik_cmdline>
J2VwaWtfcHl0aG9uJywgJy1waCcsICc3LjAnLCAnLXRuJywgJzgnLCAnLW1hJywgJzIwMCcsICctbWV0YWxfYmluZGluZycsICctaW1hZScsICc8aW5maWxlLm1hZT4nLCAnLW9tYWUnLCAnPG91dGZpbGUubWFlPic=

> <r_lp_tautomer_probability>
1

> <r_epik_Ionization_Penalty>
0.00457014

> <r_epik_Ionization_Penalty_Charging>
0

> <r_epik_Ionization_Penalty_Neutral>
0.00457014

> <r_epik_State_Penalty>
-0

> <r_epik_Charging_Adjusted_Penalty>
0

> <i_epik_Tot_Q>
0

> <i_epik_Tot_abs_Q>
0

> <r_epik_Metal_State_Penalty>
-0

> <b_epik_Metal_Only>
0

> <s_epik_Chemistry_Notes>
This compound contains an acetal/aminal-like group ( X-CH(R)-Y where X, Y are N, S, or O) that may be acid/base labile, releasing an aldehyde.

> <s_lp_Force_Field>
OPLS_2005

> <r_lp_Energy>
44.1408

> <b_lp_Chiralities_Consistent>
1

> <s_lp_Variant>
AV-unprocessed.smi:218-3

> <Gold.Version>
5.8.1

> <Gold.Id.Protein>
6NUR|6NUR_protein|mol2

> <Gold.PLP.Fitness>
50.9619

> <Gold.PLP.PLP>
-40.9022

> <Gold.PLP.part.hbond>
-4.4532

> <Gold.PLP.part.metal>
0.0000

> <Gold.PLP.part.buried>
-4.4609

> <Gold.PLP.part.nonpolar>
-33.3234

> <Gold.PLP.part.repulsive>
0.4449

> <Gold.PLP.ligand.clash>
0.3253

> <Gold.PLP.ligand.torsion>
0.7302

> <Gold.PLP.Chemscore.Hbond>
3.2309

> <Gold.PLP.Chemscore.CHOScore>
0.6819

> <Gold.PLP.Chemscore.Metal>
0.0000

> <Gold.Chemscore.Hbonds>
donor molecule, donor type, donor heavy atom, donor atom, acceptor molecule, acceptor atom, score
      L1  H     9    45       P1  8028  1.00
      L1  H    23    50       P1 10957  1.00
      L1  H    27    52       P1 10175  1.00
      P1  H  8011  8017       L1    11  0.23
      L1  C    12    46       P1  7957  0.65

> <Gold.PLP.Chemscore.Internal.Correction>
0.1071

> <Gold.Rescore>
     Score         DG    S(hbond)    S(metal)    S(lipo)     H(rot)  DE(clash)    DE(int)     intcor
      9.98     -13.20       2.93        0.00      89.57       4.90       0.54       2.67       ----

> <Gold.Chemscore.Fitness>
9.9834

> <Gold.Chemscore.DG>
-13.1992

> <Gold.Chemscore.ZeroCoef>
-5.4800

> <Gold.Chemscore.Hbond>
2.9315

> <Gold.Chemscore.Metal>
0.0000

> <Gold.Chemscore.Lipo>
89.5694

> <Gold.Chemscore.Internal_Hbond>
0.0000

> <Gold.Chemscore.DEClash>
0.5423

> <Gold.Chemscore.DEInternal>
2.6735

> <Gold.Chemscore.Rot>
4.9029

> <Gold.Chemscore.Internal.Correction>
   9.000000E+99

> <Gold.Chemscore.Hbonds>
donor molecule, donor type, donor heavy atom, donor atom, acceptor molecule, acceptor atom, score
      L1  H     9    45       P1  8028  0.98
      L1  H    23    50       P1 10957  0.98
      L1  H    27    52       P1 10175  1.00
      P1  H  8011  8017       L1    11  0.02

> <Gold.Chemscore.Hbond.Weighted>
-9.7911

> <Gold.Chemscore.Metal.Weighted>
-0.0000

> <Gold.Chemscore.Lipo.Weighted>
-10.4796

> <Gold.Chemscore.Internal_Hbond.Weighted>
0.0000

> <Gold.Chemscore.DEClash.Weighted>
0.5423

> <Gold.Chemscore.DEInternal.Weighted>
2.6735

> <Gold.Chemscore.Rot.Weighted>
12.5515

> <Gold.Chemscore.Internal.Correction.Weighted>
   9.000000E+99

> <Gold.Protein.RotatedTorsions>
[ 6907 6896 6895 6894 ] final -142.09 input  -60.11 | X-H torsion
[ 7974 7965 7964 7962 ] final  -10.70 input  175.53 | X-H torsion
[ 8008 7997 7996 7995 ] final   64.07 input   59.86 | X-H torsion
[ 10167 10162 10161 10158 ] final   30.62 input  -65.29 | X-H torsion
[ 10718 10713 10712 10709 ] final  -14.00 input   66.30 | X-H torsion
[ 10763 10752 10751 10750 ] final  154.95 input  -60.55 | X-H torsion
[ 11005 11000 10999 10996 ] final   40.23 input  -57.11 | X-H torsion

> <Gold.Protein.ActiveResidues>
 VAL166  LYS551  ARG553  GLY616  TRP617  ASP618  TYR619  PRO620  LYS621  CYS622 
 ASP623  PHE694  ASN695  SER759  ASP760  ASP761  ALA762  ILE779  LEU786  VAL792 
 PHE793  MET794  SER795  GLU796  ALA797  LYS798  CYS799  TRP800  GLU811  SER814 

> <Gold.Protein.RotatedAtoms>
  151.0824  133.5379  159.2619 H   0  0  0  0  0  0  0  0  0  0  0  0  # atno 6907 bound_to 6896
  151.2278  135.0542  159.8985 H   0  0  0  0  0  0  0  0  0  0  0  0  # atno 6908 bound_to 6896
  152.5425  134.0617  159.8209 H   0  0  0  0  0  0  0  0  0  0  0  0  # atno 6909 bound_to 6896
  146.2212  140.2803  142.8362 H   0  0  0  0  0  0  0  0  0  0  0  0  # atno 7974 bound_to 7965
  155.6402  140.3497  155.4712 H   0  0  0  0  0  0  0  0  0  0  0  0  # atno 8008 bound_to 7997
  155.9932  140.1198  157.0641 H   0  0  0  0  0  0  0  0  0  0  0  0  # atno 8009 bound_to 7997
  154.4225  140.1115  156.5581 H   0  0  0  0  0  0  0  0  0  0  0  0  # atno 8010 bound_to 7997
  140.4661  144.0833  150.6225 H   0  0  0  0  0  0  0  0  0  0  0  0  # atno 10167 bound_to 10162
  156.6222  130.4878  149.6160 H   0  0  0  0  0  0  0  0  0  0  0  0  # atno 10718 bound_to 10713
  154.1606  135.2810  155.3110 H   0  0  0  0  0  0  0  0  0  0  0  0  # atno 10763 bound_to 10752
  154.6150  135.5486  153.7517 H   0  0  0  0  0  0  0  0  0  0  0  0  # atno 10764 bound_to 10752
  153.0193  135.6425  154.1748 H   0  0  0  0  0  0  0  0  0  0  0  0  # atno 10765 bound_to 10752
  140.1951  134.3939  155.8126 H   0  0  0  0  0  0  0  0  0  0  0  0  # atno 11005 bound_to 11000
  144.9202  140.7859  143.5753 LP  0  0  0  0  0  0  0  0  0  0  0  0  # atno 17320 bound_to 7965
  145.2739  139.1944  143.4827 LP  0  0  0  0  0  0  0  0  0  0  0  0  # atno 17321 bound_to 7965
  140.4034  143.2692  151.9920 LP  0  0  0  0  0  0  0  0  0  0  0  0  # atno 17342 bound_to 10162
  139.4812  144.5978  151.7659 LP  0  0  0  0  0  0  0  0  0  0  0  0  # atno 17343 bound_to 10162
  156.2302  130.6790  151.1456 LP  0  0  0  0  0  0  0  0  0  0  0  0  # atno 17370 bound_to 10713
  157.7224  131.0673  150.6078 LP  0  0  0  0  0  0  0  0  0  0  0  0  # atno 17371 bound_to 10713
  141.2227  133.7065  156.8161 LP  0  0  0  0  0  0  0  0  0  0  0  0  # atno 17394 bound_to 11000
  140.2117  134.8823  157.3281 LP  0  0  0  0  0  0  0  0  0  0  0  0  # atno 17395 bound_to 11000

$$$$
