AV-unprocessed.smi:1180|AV-procd|sdf|4965|dock1
  -GOLD-   22720 3553D 1   1.00000     0.00000
 Structure written by MMmdl.
 37 38  0  0  0  0  0  0  0  0  2 V2000
  150.6556  142.4535  158.1454 C   0  0  0  0  0  0  0  0  0  0  0  0
  150.7173  141.3191  157.1448 C   0  0  0  0  0  0  0  0  0  0  0  0
  149.7196  141.1106  156.3729 N   0  0  0  0  0  0  0  0  0  0  0  0
  149.7721  140.0588  155.4426 C   0  0  0  0  0  0  0  0  0  0  0  0
  148.5441  139.8870  154.5658 C   0  0  0  0  0  0  0  0  0  0  0  0
  150.8692  139.2540  155.3487 C   0  0  0  0  0  0  0  0  0  0  0  0
  150.9773  138.0978  154.3546 C   0  0  0  0  0  0  0  0  0  0  0  0
  151.0376  136.7001  154.9722 C   0  0  0  0  0  0  0  0  0  0  0  0
  151.7356  136.4948  155.9649 O   0  0  0  0  0  0  0  0  0  0  0  0
  150.2929  135.7529  154.3809 N   0  0  0  0  0  0  0  0  0  0  0  0
  150.2081  134.3563  154.7939 C   0  0  0  0  0  0  0  0  0  0  0  0
  149.4008  133.5083  153.7932 C   0  0  1  0  0  0  0  0  0  0  0  0
  149.5460  132.0149  154.0018 C   0  0  0  0  0  0  0  0  0  0  0  0
  148.3446  131.4694  153.2352 C   0  0  0  0  0  0  0  0  0  0  0  0
  147.3349  132.4703  153.3290 O   0  0  0  0  0  0  0  0  0  0  0  0
  147.8810  133.6644  153.8816 C   0  0  0  0  0  0  0  0  0  0  0  0
  151.9942  139.5221  156.2629 C   0  0  0  0  0  0  0  0  0  0  0  0
  152.9986  138.8116  156.2353 O   0  0  0  0  0  0  0  0  0  0  0  0
  151.8693  140.5652  157.1319 N   0  5  0  0  0  0  0  0  0  0  0  0
  149.7565  143.0550  158.0038 H   0  0  0  0  0  0  0  0  0  0  0  0
  151.5224  143.1057  158.0339 H   0  0  0  0  0  0  0  0  0  0  0  0
  150.6472  142.0589  159.1618 H   0  0  0  0  0  0  0  0  0  0  0  0
  148.1352  138.8820  154.6692 H   0  0  0  0  0  0  0  0  0  0  0  0
  148.7956  140.0550  153.5187 H   0  0  0  0  0  0  0  0  0  0  0  0
  147.7612  140.5950  154.8398 H   0  0  0  0  0  0  0  0  0  0  0  0
  150.1222  138.1379  153.6796 H   0  0  0  0  0  0  0  0  0  0  0  0
  151.8430  138.2267  153.7043 H   0  0  0  0  0  0  0  0  0  0  0  0
  149.7532  136.0210  153.5697 H   0  0  0  0  0  0  0  0  0  0  0  0
  151.2261  133.9714  154.8573 H   0  0  0  0  0  0  0  0  0  0  0  0
  149.7893  134.2730  155.7982 H   0  0  0  0  0  0  0  0  0  0  0  0
  149.7194  133.7460  152.7767 H   0  0  0  0  0  0  0  0  0  0  0  0
  150.4956  131.6208  153.6379 H   0  0  0  0  0  0  0  0  0  0  0  0
  149.4568  131.7679  155.0609 H   0  0  0  0  0  0  0  0  0  0  0  0
  148.5956  131.3295  152.1832 H   0  0  0  0  0  0  0  0  0  0  0  0
  147.9984  130.5140  153.6306 H   0  0  0  0  0  0  0  0  0  0  0  0
  147.5596  133.7366  154.9217 H   0  0  0  0  0  0  0  0  0  0  0  0
  147.5197  134.5477  153.3546 H   0  0  0  0  0  0  0  0  0  0  0  0
  1  2  1  0  0  0  0
  1 20  1  0  0  0  0
  1 21  1  0  0  0  0
  1 22  1  0  0  0  0
  2 19  1  0  0  0  0
  2  3  2  0  0  0  0
  3  4  1  0  0  0  0
  4  5  1  0  0  0  0
  4  6  2  0  0  0  0
  5 23  1  0  0  0  0
  5 24  1  0  0  0  0
  5 25  1  0  0  0  0
  6  7  1  0  0  0  0
  6 17  1  0  0  0  0
  7  8  1  0  0  0  0
  7 26  1  0  0  0  0
  7 27  1  0  0  0  0
  8  9  2  0  0  0  0
  8 10  1  0  0  0  0
 10 11  1  0  0  0  0
 10 28  1  0  0  0  0
 11 12  1  0  0  0  0
 11 29  1  0  0  0  0
 11 30  1  0  0  0  0
 12 16  1  0  0  0  0
 12 13  1  0  0  0  0
 12 31  1  0  0  0  0
 13 14  1  0  0  0  0
 13 32  1  0  0  0  0
 13 33  1  0  0  0  0
 14 15  1  0  0  0  0
 14 34  1  0  0  0  0
 14 35  1  0  0  0  0
 15 16  1  0  0  0  0
 16 36  1  0  0  0  0
 16 37  1  0  0  0  0
 17 18  2  0  0  0  0
 17 19  1  0  0  0  0
M  CHG  1  19  -1
M  END
> <s_m_source_file>
AV-unprocessed.smi

> <i_m_source_file_index>
1180

> <i_lp_mmshare_version>
43012

> <i_f3d_flags>
0

> <s_epik_input>
W0NIM11jMW5jKFtDSDNdKWMoYyg9TylbbkhdMSlbQ0gyXUMoPU8pW05IXVtDSDJdW0NAQEhdMltDSDJdW0NIMl1PW0NIMl0y

> <s_epik_cmdline>
J2VwaWtfcHl0aG9uJywgJy1waCcsICc3LjAnLCAnLXRuJywgJzgnLCAnLW1hJywgJzIwMCcsICctbWV0YWxfYmluZGluZycsICctaW1hZScsICc8aW5maWxlLm1hZT4nLCAnLW9tYWUnLCAnPG91dGZpbGUubWFlPic=

> <r_lp_tautomer_probability>
0.839158

> <r_epik_Ionization_Penalty>
6.60319

> <r_epik_Ionization_Penalty_Charging>
6.85407e-08

> <r_epik_Ionization_Penalty_Neutral>
6.60319

> <r_epik_State_Penalty>
4.42883

> <r_epik_Charging_Adjusted_Penalty>
4.42883

> <i_epik_Tot_Q>
-1

> <i_epik_Tot_abs_Q>
1

> <r_epik_Metal_State_Penalty>
0.797578

> <b_epik_Metal_Only>
1

> <s_lp_Force_Field>
OPLS_2005

> <r_lp_Energy>
23.195

> <b_lp_Chiralities_Consistent>
1

> <s_lp_Variant>
AV-unprocessed.smi:1180-6

> <Gold.Version>
5.8.1

> <Gold.Id.Protein>
6NUR|6NUR_protein|mol2

> <Gold.PLP.Fitness>
41.9229

> <Gold.PLP.PLP>
-34.0131

> <Gold.PLP.part.hbond>
-4.1757

> <Gold.PLP.part.metal>
0.0000

> <Gold.PLP.part.buried>
-0.4021

> <Gold.PLP.part.nonpolar>
-30.2142

> <Gold.PLP.part.repulsive>
0.2819

> <Gold.PLP.ligand.clash>
0.0000

> <Gold.PLP.ligand.torsion>
0.4030

> <Gold.PLP.Chemscore.Hbond>
2.9000

> <Gold.PLP.Chemscore.CHOScore>
0.0000

> <Gold.PLP.Chemscore.Metal>
0.0000

> <Gold.Chemscore.Hbonds>
donor molecule, donor type, donor heavy atom, donor atom, acceptor molecule, acceptor atom, score
      L1  H    10    28       P1  7948  0.90
      P1  H  7997  8008       L1    18  1.00
      P1  H 10752 10765       L1     9  0.80

> <Gold.PLP.Chemscore.Internal.Correction>
0.0158

> <Gold.Rescore>
     Score         DG    S(hbond)    S(metal)    S(lipo)     H(rot)  DE(clash)    DE(int)     intcor
     14.42     -16.00       2.59        0.00      54.36       1.76       0.04       1.54       ----

> <Gold.Chemscore.Fitness>
14.4216

> <Gold.Chemscore.DG>
-15.9985

> <Gold.Chemscore.ZeroCoef>
-5.4800

> <Gold.Chemscore.Hbond>
2.5923

> <Gold.Chemscore.Metal>
0.0000

> <Gold.Chemscore.Lipo>
54.3603

> <Gold.Chemscore.Internal_Hbond>
0.0000

> <Gold.Chemscore.DEClash>
0.0391

> <Gold.Chemscore.DEInternal>
1.5377

> <Gold.Chemscore.Rot>
1.7577

> <Gold.Chemscore.Internal.Correction>
   9.000000E+99

> <Gold.Chemscore.Hbonds>
donor molecule, donor type, donor heavy atom, donor atom, acceptor molecule, acceptor atom, score
      L1  H    10    28       P1  7948  0.18
      P1  H  7997  8008       L1    18  0.29
      P1  H 10752 10765       L1     9  0.12

> <Gold.Chemscore.Hbond.Weighted>
-8.6581

> <Gold.Chemscore.Metal.Weighted>
-0.0000

> <Gold.Chemscore.Lipo.Weighted>
-6.3602

> <Gold.Chemscore.Internal_Hbond.Weighted>
0.0000

> <Gold.Chemscore.DEClash.Weighted>
0.0391

> <Gold.Chemscore.DEInternal.Weighted>
1.5377

> <Gold.Chemscore.Rot.Weighted>
4.4998

> <Gold.Chemscore.Internal.Correction.Weighted>
   9.000000E+99

> <Gold.Protein.RotatedTorsions>
[ 6907 6896 6895 6894 ] final  -29.79 input  -60.11 | X-H torsion
[ 7974 7965 7964 7962 ] final   -7.25 input  175.53 | X-H torsion
[ 8008 7997 7996 7995 ] final  -32.75 input   59.86 | X-H torsion
[ 10167 10162 10161 10158 ] final  -87.09 input  -65.29 | X-H torsion
[ 10718 10713 10712 10709 ] final -175.13 input   66.30 | X-H torsion
[ 10763 10752 10751 10750 ] final -151.64 input  -60.55 | X-H torsion
[ 11005 11000 10999 10996 ] final  120.04 input  -57.11 | X-H torsion

> <Gold.Protein.ActiveResidues>
 VAL166  LYS551  ARG553  GLY616  TRP617  ASP618  TYR619  PRO620  LYS621  CYS622 
 ASP623  PHE694  ASN695  SER759  ASP760  ASP761  ALA762  ILE779  LEU786  VAL792 
 PHE793  MET794  SER795  GLU796  ALA797  LYS798  CYS799  TRP800  GLU811  SER814 

> <Gold.Protein.RotatedAtoms>
  151.1144  135.0045  159.8508 H   0  0  0  0  0  0  0  0  0  0  0  0  # atno 6907 bound_to 6896
  152.5445  134.1797  159.8640 H   0  0  0  0  0  0  0  0  0  0  0  0  # atno 6908 bound_to 6896
  151.1850  133.4657  159.2627 H   0  0  0  0  0  0  0  0  0  0  0  0  # atno 6909 bound_to 6896
  146.2311  140.2291  142.8339 H   0  0  0  0  0  0  0  0  0  0  0  0  # atno 7974 bound_to 7965
  154.4170  140.1729  156.1778 H   0  0  0  0  0  0  0  0  0  0  0  0  # atno 8008 bound_to 7997
  155.9707  140.3386  155.6549 H   0  0  0  0  0  0  0  0  0  0  0  0  # atno 8009 bound_to 7997
  155.6629  140.0703  157.2538 H   0  0  0  0  0  0  0  0  0  0  0  0  # atno 8010 bound_to 7997
  140.3878  143.2719  151.9303 H   0  0  0  0  0  0  0  0  0  0  0  0  # atno 10167 bound_to 10162
  156.7953  130.9533  151.3119 H   0  0  0  0  0  0  0  0  0  0  0  0  # atno 10718 bound_to 10713
  154.8045  135.3255  154.7466 H   0  0  0  0  0  0  0  0  0  0  0  0  # atno 10763 bound_to 10752
  153.8127  135.6894  153.4843 H   0  0  0  0  0  0  0  0  0  0  0  0  # atno 10764 bound_to 10752
  153.1782  135.4597  154.9937 H   0  0  0  0  0  0  0  0  0  0  0  0  # atno 10765 bound_to 10752
  139.9169  134.9632  156.7746 H   0  0  0  0  0  0  0  0  0  0  0  0  # atno 11005 bound_to 11000
  144.9572  140.8238  143.5536 LP  0  0  0  0  0  0  0  0  0  0  0  0  # atno 17320 bound_to 7965
  145.2258  139.2138  143.5069 LP  0  0  0  0  0  0  0  0  0  0  0  0  # atno 17321 bound_to 7965
  139.4791  144.5757  151.8016 LP  0  0  0  0  0  0  0  0  0  0  0  0  # atno 17342 bound_to 10162
  140.4871  144.1364  150.5943 LP  0  0  0  0  0  0  0  0  0  0  0  0  # atno 17343 bound_to 10162
  157.6580  130.8941  149.9770 LP  0  0  0  0  0  0  0  0  0  0  0  0  # atno 17370 bound_to 10713
  156.1134  130.3649  150.0010 LP  0  0  0  0  0  0  0  0  0  0  0  0  # atno 17371 bound_to 10713
  140.6593  133.9660  155.7796 LP  0  0  0  0  0  0  0  0  0  0  0  0  # atno 17394 bound_to 11000
  141.0654  134.0284  157.3601 LP  0  0  0  0  0  0  0  0  0  0  0  0  # atno 17395 bound_to 11000

$$$$
