AV-unprocessed.smi:3303|AV-procd|sdf|12658|dock4
  -GOLD-   2272018593D 1   1.00000     0.00000
 Structure written by MMmdl.
 45 46  0  0  0  0  0  0  0  0  3 V2000
  146.1065  143.1241  154.0272 C   0  0  0  0  0  0  0  0  0  0  0  0
  145.9501  142.8535  155.5385 C   0  0  1  0  0  0  0  0  0  0  0  0
  144.4894  142.5207  155.8999 C   0  0  0  0  0  0  0  0  0  0  0  0
  144.0731  141.1884  155.3854 N   0  3  2  0  0  0  0  0  0  0  0  0
  142.6258  140.9622  155.6185 C   0  0  0  0  0  0  0  0  0  0  0  0
  144.9491  140.0878  155.8912 C   0  0  1  0  0  0  0  0  0  0  0  0
  144.5560  138.7094  155.3239 C   0  0  0  0  0  0  0  0  0  0  0  0
  146.4334  140.3734  155.5689 C   0  0  0  0  0  0  0  0  0  0  0  0
  146.8820  141.7527  156.0895 C   0  0  1  0  0  0  0  0  0  0  0  0
  148.3011  142.0499  155.7796 N   0  3  0  0  0  0  0  0  0  0  0  0
  149.2937  141.4294  156.6816 C   0  0  0  0  0  0  0  0  0  0  0  0
  150.7211  141.8356  156.2899 C   0  0  0  0  0  0  0  0  0  0  0  0
  151.4786  142.4527  157.4501 C   0  0  0  0  0  0  0  0  0  0  0  0
  151.8105  143.8243  157.4480 C   0  0  0  0  0  0  0  0  0  0  0  0
  152.5176  144.3443  158.5497 C   0  0  0  0  0  0  0  0  0  0  0  0
  152.8647  143.4770  159.6035 C   0  0  0  0  0  0  0  0  0  0  0  0
  152.4882  142.1225  159.5088 C   0  0  0  0  0  0  0  0  0  0  0  0
  151.8102  141.6137  158.4568 N   0  0  0  0  0  0  0  0  0  0  0  0
  145.8601  142.2502  153.4241 H   0  0  0  0  0  0  0  0  0  0  0  0
  147.1233  143.4252  153.7744 H   0  0  0  0  0  0  0  0  0  0  0  0
  145.4483  143.9330  153.7090 H   0  0  0  0  0  0  0  0  0  0  0  0
  146.2044  143.7842  156.0478 H   0  0  0  0  0  0  0  0  0  0  0  0
  144.3619  142.5383  156.9837 H   0  0  0  0  0  0  0  0  0  0  0  0
  143.8313  143.2939  155.5006 H   0  0  0  0  0  0  0  0  0  0  0  0
  142.4193  140.8044  156.6779 H   0  0  0  0  0  0  0  0  0  0  0  0
  142.2591  140.1011  155.0606 H   0  0  0  0  0  0  0  0  0  0  0  0
  142.0410  141.8197  155.2843 H   0  0  0  0  0  0  0  0  0  0  0  0
  144.8390  140.0476  156.9764 H   0  0  0  0  0  0  0  0  0  0  0  0
  145.2666  137.9434  155.6354 H   0  0  0  0  0  0  0  0  0  0  0  0
  144.5386  138.7169  154.2335 H   0  0  0  0  0  0  0  0  0  0  0  0
  143.5778  138.3833  155.6767 H   0  0  0  0  0  0  0  0  0  0  0  0
  147.0436  139.5897  156.0177 H   0  0  0  0  0  0  0  0  0  0  0  0
  146.6005  140.3054  154.4933 H   0  0  0  0  0  0  0  0  0  0  0  0
  146.7832  141.7559  157.1767 H   0  0  0  0  0  0  0  0  0  0  0  0
  148.4976  141.7696  154.8292 H   0  0  0  0  0  0  0  0  0  0  0  0
  149.0902  141.7377  157.7080 H   0  0  0  0  0  0  0  0  0  0  0  0
  149.2012  140.3440  156.6440 H   0  0  0  0  0  0  0  0  0  0  0  0
  151.2700  140.9663  155.9249 H   0  0  0  0  0  0  0  0  0  0  0  0
  150.6958  142.5507  155.4661 H   0  0  0  0  0  0  0  0  0  0  0  0
  151.5305  144.4659  156.6253 H   0  0  0  0  0  0  0  0  0  0  0  0
  152.7887  145.3889  158.5856 H   0  0  0  0  0  0  0  0  0  0  0  0
  153.4060  143.8410  160.4642 H   0  0  0  0  0  0  0  0  0  0  0  0
  152.7393  141.4292  160.2978 H   0  0  0  0  0  0  0  0  0  0  0  0
  148.4239  143.0505  155.8473 H   0  0  0  0  0  0  0  0  0  0  0  0
  144.1949  141.2195  154.3831 H   0  0  0  0  0  0  0  0  0  0  0  0
  1  2  1  0  0  0  0
  1 19  1  0  0  0  0
  1 20  1  0  0  0  0
  1 21  1  0  0  0  0
  2  9  1  0  0  0  0
  2  3  1  0  0  0  0
  2 22  1  0  0  0  0
  3  4  1  0  0  0  0
  3 23  1  0  0  0  0
  3 24  1  0  0  0  0
  4  5  1  0  0  0  0
  4  6  1  0  0  0  0
  4 45  1  0  0  0  0
  5 25  1  0  0  0  0
  5 26  1  0  0  0  0
  5 27  1  0  0  0  0
  6  7  1  0  0  0  0
  6  8  1  0  0  0  0
  6 28  1  0  0  0  0
  7 29  1  0  0  0  0
  7 30  1  0  0  0  0
  7 31  1  0  0  0  0
  8  9  1  0  0  0  0
  8 32  1  0  0  0  0
  8 33  1  0  0  0  0
  9 10  1  0  0  0  0
  9 34  1  0  0  0  0
 10 11  1  0  0  0  0
 10 35  1  0  0  0  0
 10 44  1  0  0  0  0
 11 12  1  0  0  0  0
 11 36  1  0  0  0  0
 11 37  1  0  0  0  0
 12 13  1  0  0  0  0
 12 38  1  0  0  0  0
 12 39  1  0  0  0  0
 13 18  1  0  0  0  0
 13 14  2  0  0  0  0
 14 15  1  0  0  0  0
 14 40  1  0  0  0  0
 15 16  2  0  0  0  0
 15 41  1  0  0  0  0
 16 17  1  0  0  0  0
 16 42  1  0  0  0  0
 17 18  2  0  0  0  0
 17 43  1  0  0  0  0
M  CHG  1   4   1
M  CHG  1  10   1
M  END
> <s_m_source_file>
AV-unprocessed.smi

> <i_m_source_file_index>
3303

> <i_lp_mmshare_version>
43012

> <i_f3d_flags>
0

> <s_epik_input>
W0NIM11bQ0BASF0xW0NIMl1OKFtDSDNdKVtDQEBIXShbQ0gzXSlbQ0gyXVtDQEhdMVtOSF1bQ0gyXVtDSDJdYzJbY0hdW2NIXVtjSF1bY0hdbjI=

> <s_epik_cmdline>
J2VwaWtfcHl0aG9uJywgJy1waCcsICc3LjAnLCAnLXRuJywgJzgnLCAnLW1hJywgJzIwMCcsICctbWV0YWxfYmluZGluZycsICctaW1hZScsICc8aW5maWxlLm1hZT4nLCAnLW9tYWUnLCAnPG91dGZpbGUubWFlPic=

> <r_epik_Ionization_Penalty>
0.0769462

> <r_epik_Ionization_Penalty_Charging>
0.0759813

> <r_epik_Ionization_Penalty_Neutral>
0.000964829

> <r_epik_State_Penalty>
0.0654373

> <r_epik_Charging_Adjusted_Penalty>
0.141419

> <i_epik_Tot_Q>
2

> <i_epik_Tot_abs_Q>
2

> <r_epik_Metal_State_Penalty>
0.0656439

> <b_epik_Metal_Only>
0

> <s_lp_Force_Field>
OPLS_2005

> <r_lp_Energy>
30.9153

> <b_lp_Chiralities_Consistent>
1

> <s_lp_Variant>
AV-unprocessed.smi:3303-2

> <Gold.Version>
5.8.1

> <Gold.Id.Protein>
6NUR|6NUR_protein|mol2

> <Gold.PLP.Fitness>
45.9177

> <Gold.PLP.PLP>
-35.2648

> <Gold.PLP.part.hbond>
-2.0000

> <Gold.PLP.part.metal>
0.0000

> <Gold.PLP.part.buried>
-4.1777

> <Gold.PLP.part.nonpolar>
-29.9752

> <Gold.PLP.part.repulsive>
0.0772

> <Gold.PLP.ligand.clash>
0.0000

> <Gold.PLP.ligand.torsion>
0.6791

> <Gold.PLP.Chemscore.Hbond>
4.0000

> <Gold.PLP.Chemscore.CHOScore>
0.0000

> <Gold.PLP.Chemscore.Metal>
0.0000

> <Gold.Chemscore.Hbonds>
donor molecule, donor type, donor heavy atom, donor atom, acceptor molecule, acceptor atom, score
      L1  H     4    45       P1 10175  1.71
      L1  H    10    44       P1  8028  2.00

> <Gold.PLP.Chemscore.Internal.Correction>
0.0111

> <Gold.Rescore>
     Score         DG    S(hbond)    S(metal)    S(lipo)     H(rot)  DE(clash)    DE(int)     intcor
     18.69     -19.56       1.91        0.00      95.81       1.37       0.08       0.79       ----

> <Gold.Chemscore.Fitness>
18.6868

> <Gold.Chemscore.DG>
-19.5573

> <Gold.Chemscore.ZeroCoef>
-5.4800

> <Gold.Chemscore.Hbond>
1.9118

> <Gold.Chemscore.Metal>
0.0000

> <Gold.Chemscore.Lipo>
95.8146

> <Gold.Chemscore.Internal_Hbond>
0.0000

> <Gold.Chemscore.DEClash>
0.0799

> <Gold.Chemscore.DEInternal>
0.7906

> <Gold.Chemscore.Rot>
1.3744

> <Gold.Chemscore.Internal.Correction>
   9.000000E+99

> <Gold.Chemscore.Hbonds>
donor molecule, donor type, donor heavy atom, donor atom, acceptor molecule, acceptor atom, score
      L1  H     4    45       P1 10175  0.56
      L1  H    10    44       P1  8028  0.97

> <Gold.Chemscore.Hbond.Weighted>
-6.3854

> <Gold.Chemscore.Metal.Weighted>
-0.0000

> <Gold.Chemscore.Lipo.Weighted>
-11.2103

> <Gold.Chemscore.Internal_Hbond.Weighted>
0.0000

> <Gold.Chemscore.DEClash.Weighted>
0.0799

> <Gold.Chemscore.DEInternal.Weighted>
0.7906

> <Gold.Chemscore.Rot.Weighted>
3.5185

> <Gold.Chemscore.Internal.Correction.Weighted>
   9.000000E+99

> <Gold.Protein.RotatedTorsions>
[ 6907 6896 6895 6894 ] final -171.15 input  -60.11 | X-H torsion
[ 7974 7965 7964 7962 ] final  -26.60 input  175.53 | X-H torsion
[ 8008 7997 7996 7995 ] final  -36.11 input   59.86 | X-H torsion
[ 10167 10162 10161 10158 ] final  152.73 input  -65.29 | X-H torsion
[ 10718 10713 10712 10709 ] final -126.02 input   66.30 | X-H torsion
[ 10763 10752 10751 10750 ] final  -69.06 input  -60.55 | X-H torsion
[ 11005 11000 10999 10996 ] final  130.66 input  -57.11 | X-H torsion

> <Gold.Protein.ActiveResidues>
 VAL166  LYS551  ARG553  GLY616  TRP617  ASP618  TYR619  PRO620  LYS621  CYS622 
 ASP623  PHE694  ASN695  SER759  ASP760  ASP761  ALA762  ILE779  LEU786  VAL792 
 PHE793  MET794  SER795  GLU796  ALA797  LYS798  CYS799  TRP800  GLU811  SER814 

> <Gold.Protein.RotatedAtoms>
  151.5192  133.3470  159.2898 H   0  0  0  0  0  0  0  0  0  0  0  0  # atno 6907 bound_to 6896
  150.8663  134.8030  159.7132 H   0  0  0  0  0  0  0  0  0  0  0  0  # atno 6908 bound_to 6896
  152.4667  134.5069  159.9793 H   0  0  0  0  0  0  0  0  0  0  0  0  # atno 6909 bound_to 6896
  146.1414  140.5041  142.8650 H   0  0  0  0  0  0  0  0  0  0  0  0  # atno 7974 bound_to 7965
  154.4080  140.1639  156.2320 H   0  0  0  0  0  0  0  0  0  0  0  0  # atno 8008 bound_to 7997
  155.9274  140.3417  155.6199 H   0  0  0  0  0  0  0  0  0  0  0  0  # atno 8009 bound_to 7997
  155.7148  140.0761  157.2346 H   0  0  0  0  0  0  0  0  0  0  0  0  # atno 8010 bound_to 7997
  139.4831  144.5333  151.7686 H   0  0  0  0  0  0  0  0  0  0  0  0  # atno 10167 bound_to 10162
  156.1727  130.6678  151.0201 H   0  0  0  0  0  0  0  0  0  0  0  0  # atno 10718 bound_to 10713
  154.3979  135.6037  153.5880 H   0  0  0  0  0  0  0  0  0  0  0  0  # atno 10763 bound_to 10752
  152.9788  135.5899  154.4219 H   0  0  0  0  0  0  0  0  0  0  0  0  # atno 10764 bound_to 10752
  154.4013  135.2843  155.2073 H   0  0  0  0  0  0  0  0  0  0  0  0  # atno 10765 bound_to 10752
  139.9685  134.9584  156.9325 H   0  0  0  0  0  0  0  0  0  0  0  0  # atno 11005 bound_to 11000
  144.7797  140.5814  143.6614 LP  0  0  0  0  0  0  0  0  0  0  0  0  # atno 17320 bound_to 7965
  145.5037  139.1482  143.3643 LP  0  0  0  0  0  0  0  0  0  0  0  0  # atno 17321 bound_to 7965
  140.4863  144.1377  150.5941 LP  0  0  0  0  0  0  0  0  0  0  0  0  # atno 17342 bound_to 10162
  140.4222  143.2606  151.9701 LP  0  0  0  0  0  0  0  0  0  0  0  0  # atno 17343 bound_to 10162
  157.6814  131.0837  150.7359 LP  0  0  0  0  0  0  0  0  0  0  0  0  # atno 17370 bound_to 10713
  156.7418  130.4741  149.5476 LP  0  0  0  0  0  0  0  0  0  0  0  0  # atno 17371 bound_to 10713
  140.5345  134.0780  155.7324 LP  0  0  0  0  0  0  0  0  0  0  0  0  # atno 17394 bound_to 11000
  141.1364  133.9213  157.2423 LP  0  0  0  0  0  0  0  0  0  0  0  0  # atno 17395 bound_to 11000

$$$$
