AV-unprocessed.smi:2024|AV-procd|sdf|8193|dock5
  -GOLD-   2272010453D 1   1.00000     0.00000
 Structure written by MMmdl.
 43 44  0  0  0  0  0  0  0  0  1 V2000
  152.5528  139.3351  155.3390 C   0  0  0  0  0  0  0  0  0  0  0  0
  151.2435  139.6059  154.7659 N   0  0  0  0  0  0  0  0  0  0  0  0
  150.4974  140.5733  155.5643 C   0  0  0  0  0  0  0  0  0  0  0  0
  149.1201  140.8711  154.9444 C   0  0  0  0  0  0  0  0  0  0  0  0
  148.3044  139.6523  154.8145 N   0  0  0  0  0  0  0  0  0  0  0  0
  146.9080  139.8808  154.3479 C   0  0  0  0  0  0  0  0  0  0  0  0
  146.1643  140.9623  155.1685 C   0  0  0  0  0  0  0  0  0  0  0  0
  146.8855  140.3370  152.8669 C   0  0  0  0  0  0  0  0  0  0  0  0
  146.0542  138.5802  154.4260 C   0  0  0  0  0  0  0  0  0  0  0  0
  144.7038  138.7515  153.8906 N   0  0  0  0  0  0  0  0  0  0  0  0
  143.6198  138.0534  154.2573 C   0  0  0  0  0  0  0  0  0  0  0  0
  143.6392  137.1578  155.1016 O   0  0  0  0  0  0  0  0  0  0  0  0
  142.5309  138.4663  153.5891 N   0  0  0  0  0  0  0  0  0  0  0  0
  141.2061  137.9773  153.7021 C   0  0  0  0  0  0  0  0  0  0  0  0
  140.9667  136.9449  154.5128 N   0  0  0  0  0  0  0  0  0  0  0  0
  139.6170  136.5812  154.5154 C   0  0  0  0  0  0  0  0  0  0  0  0
  138.8355  137.3546  153.6932 C   0  0  0  0  0  0  0  0  0  0  0  0
  139.7672  138.5799  152.8753 S   0  0  0  0  0  0  0  0  0  0  0  0
  149.0691  138.6752  154.0220 C   0  0  0  0  0  0  0  0  0  0  0  0
  150.4483  138.3879  154.6436 C   0  0  0  0  0  0  0  0  0  0  0  0
  153.1419  140.2506  155.4041 H   0  0  0  0  0  0  0  0  0  0  0  0
  153.1060  138.6280  154.7202 H   0  0  0  0  0  0  0  0  0  0  0  0
  152.4657  138.9146  156.3417 H   0  0  0  0  0  0  0  0  0  0  0  0
  150.3678  140.2000  156.5817 H   0  0  0  0  0  0  0  0  0  0  0  0
  151.0647  141.5014  155.6425 H   0  0  0  0  0  0  0  0  0  0  0  0
  148.6260  141.6028  155.5808 H   0  0  0  0  0  0  0  0  0  0  0  0
  149.2607  141.3416  153.9711 H   0  0  0  0  0  0  0  0  0  0  0  0
  145.1504  141.1077  154.7935 H   0  0  0  0  0  0  0  0  0  0  0  0
  146.6587  141.9321  155.1177 H   0  0  0  0  0  0  0  0  0  0  0  0
  146.0736  140.6911  156.2201 H   0  0  0  0  0  0  0  0  0  0  0  0
  145.8733  140.3272  152.4609 H   0  0  0  0  0  0  0  0  0  0  0  0
  147.4944  139.6888  152.2357 H   0  0  0  0  0  0  0  0  0  0  0  0
  147.2524  141.3557  152.7421 H   0  0  0  0  0  0  0  0  0  0  0  0
  146.5279  137.7697  153.8727 H   0  0  0  0  0  0  0  0  0  0  0  0
  146.0147  138.2154  155.4541 H   0  0  0  0  0  0  0  0  0  0  0  0
  144.5864  139.4759  153.1973 H   0  0  0  0  0  0  0  0  0  0  0  0
  142.6631  139.2150  152.9254 H   0  0  0  0  0  0  0  0  0  0  0  0
  139.2973  135.7561  155.1344 H   0  0  0  0  0  0  0  0  0  0  0  0
  137.7723  137.2777  153.5200 H   0  0  0  0  0  0  0  0  0  0  0  0
  148.5362  137.7287  153.9545 H   0  0  0  0  0  0  0  0  0  0  0  0
  149.2060  139.0352  153.0020 H   0  0  0  0  0  0  0  0  0  0  0  0
  150.9784  137.6638  154.0239 H   0  0  0  0  0  0  0  0  0  0  0  0
  150.3192  137.9243  155.6231 H   0  0  0  0  0  0  0  0  0  0  0  0
  1  2  1  0  0  0  0
  1 21  1  0  0  0  0
  1 22  1  0  0  0  0
  1 23  1  0  0  0  0
  2 20  1  0  0  0  0
  2  3  1  0  0  0  0
  3  4  1  0  0  0  0
  3 24  1  0  0  0  0
  3 25  1  0  0  0  0
  4  5  1  0  0  0  0
  4 26  1  0  0  0  0
  4 27  1  0  0  0  0
  5  6  1  0  0  0  0
  5 19  1  0  0  0  0
  6  7  1  0  0  0  0
  6  8  1  0  0  0  0
  6  9  1  0  0  0  0
  7 28  1  0  0  0  0
  7 29  1  0  0  0  0
  7 30  1  0  0  0  0
  8 31  1  0  0  0  0
  8 32  1  0  0  0  0
  8 33  1  0  0  0  0
  9 10  1  0  0  0  0
  9 34  1  0  0  0  0
  9 35  1  0  0  0  0
 10 11  1  0  0  0  0
 10 36  1  0  0  0  0
 11 12  2  0  0  0  0
 11 13  1  0  0  0  0
 13 14  1  0  0  0  0
 13 37  1  0  0  0  0
 14 18  1  0  0  0  0
 14 15  2  0  0  0  0
 15 16  1  0  0  0  0
 16 17  2  0  0  0  0
 16 38  1  0  0  0  0
 17 18  1  0  0  0  0
 17 39  1  0  0  0  0
 19 20  1  0  0  0  0
 19 40  1  0  0  0  0
 19 41  1  0  0  0  0
 20 42  1  0  0  0  0
 20 43  1  0  0  0  0
M  END
> <s_m_source_file>
AV-unprocessed.smi

> <i_m_source_file_index>
2024

> <i_lp_mmshare_version>
43012

> <i_f3d_flags>
0

> <s_epik_input>
W0NIM11OMVtDSDJdW0NIMl1OKFtDSDJdW0NIMl0xKUMoW0NIM10pKFtDSDNdKVtDSDJdW05IXUMoPU8pW05IXWMybltjSF1bY0hdczI=

> <s_epik_cmdline>
J2VwaWtfcHl0aG9uJywgJy1waCcsICc3LjAnLCAnLXRuJywgJzgnLCAnLW1hJywgJzIwMCcsICctbWV0YWxfYmluZGluZycsICctaW1hZScsICc8aW5maWxlLm1hZT4nLCAnLW9tYWUnLCAnPG91dGZpbGUubWFlPic=

> <r_lp_tautomer_probability>
0.999

> <r_epik_Ionization_Penalty>
3.01774

> <r_epik_Ionization_Penalty_Charging>
0

> <r_epik_Ionization_Penalty_Neutral>
3.01774

> <r_epik_State_Penalty>
2.1369

> <r_epik_Charging_Adjusted_Penalty>
2.1369

> <i_epik_Tot_Q>
0

> <i_epik_Tot_abs_Q>
0

> <r_epik_Metal_State_Penalty>
2.1694

> <b_epik_Metal_Only>
0

> <s_lp_Force_Field>
OPLS_2005

> <r_lp_Energy>
47.9803

> <b_lp_Chiralities_Consistent>
1

> <s_lp_Variant>
AV-unprocessed.smi:2024-3

> <Gold.Version>
5.8.1

> <Gold.Id.Protein>
6NUR|6NUR_protein|mol2

> <Gold.PLP.Fitness>
39.6804

> <Gold.PLP.PLP>
-28.2187

> <Gold.PLP.part.hbond>
-2.7968

> <Gold.PLP.part.metal>
0.0000

> <Gold.PLP.part.buried>
1.0987

> <Gold.PLP.part.nonpolar>
-27.4845

> <Gold.PLP.part.repulsive>
0.2303

> <Gold.PLP.ligand.clash>
0.0000

> <Gold.PLP.ligand.torsion>
0.2592

> <Gold.PLP.Chemscore.Hbond>
2.9760

> <Gold.PLP.Chemscore.CHOScore>
1.0000

> <Gold.PLP.Chemscore.Metal>
0.0000

> <Gold.Chemscore.Hbonds>
donor molecule, donor type, donor heavy atom, donor atom, acceptor molecule, acceptor atom, score
      L1  H    10    36       P1 10175  0.97
      L1  H    13    37       P1 10175  0.93
      P1  H  7989  7998       L1     2  0.60
      L1  C    16    38       P1 11000  1.00

> <Gold.PLP.Chemscore.Internal.Correction>
0.0522

> <Gold.Rescore>
     Score         DG    S(hbond)    S(metal)    S(lipo)     H(rot)  DE(clash)    DE(int)     intcor
     14.27     -16.21       1.89        0.00      71.96       1.56       0.20       1.74       ----

> <Gold.Chemscore.Fitness>
14.2671

> <Gold.Chemscore.DG>
-16.2141

> <Gold.Chemscore.ZeroCoef>
-5.4800

> <Gold.Chemscore.Hbond>
1.8905

> <Gold.Chemscore.Metal>
0.0000

> <Gold.Chemscore.Lipo>
71.9636

> <Gold.Chemscore.Internal_Hbond>
0.0000

> <Gold.Chemscore.DEClash>
0.2036

> <Gold.Chemscore.DEInternal>
1.7433

> <Gold.Chemscore.Rot>
1.5624

> <Gold.Chemscore.Internal.Correction>
   9.000000E+99

> <Gold.Chemscore.Hbonds>
donor molecule, donor type, donor heavy atom, donor atom, acceptor molecule, acceptor atom, score
      L1  H    10    36       P1 10175  0.86
      L1  H    13    37       P1 10175  0.89
      P1  H  7989  7998       L1     2  0.01

> <Gold.Chemscore.Hbond.Weighted>
-6.3141

> <Gold.Chemscore.Metal.Weighted>
-0.0000

> <Gold.Chemscore.Lipo.Weighted>
-8.4197

> <Gold.Chemscore.Internal_Hbond.Weighted>
0.0000

> <Gold.Chemscore.DEClash.Weighted>
0.2036

> <Gold.Chemscore.DEInternal.Weighted>
1.7433

> <Gold.Chemscore.Rot.Weighted>
3.9998

> <Gold.Chemscore.Internal.Correction.Weighted>
   9.000000E+99

> <Gold.Protein.RotatedTorsions>
[ 6907 6896 6895 6894 ] final -131.77 input  -60.11 | X-H torsion
[ 7974 7965 7964 7962 ] final -115.39 input  175.53 | X-H torsion
[ 8008 7997 7996 7995 ] final  118.17 input   59.86 | X-H torsion
[ 10167 10162 10161 10158 ] final  -94.13 input  -65.29 | X-H torsion
[ 10718 10713 10712 10709 ] final  -65.20 input   66.30 | X-H torsion
[ 10763 10752 10751 10750 ] final -153.13 input  -60.55 | X-H torsion
[ 11005 11000 10999 10996 ] final  -53.12 input  -57.11 | X-H torsion

> <Gold.Protein.ActiveResidues>
 VAL166  LYS551  ARG553  GLY616  TRP617  ASP618  TYR619  PRO620  LYS621  CYS622 
 ASP623  PHE694  ASN695  SER759  ASP760  ASP761  ALA762  ILE779  LEU786  VAL792 
 PHE793  MET794  SER795  GLU796  ALA797  LYS798  CYS799  TRP800  GLU811  SER814 

> <Gold.Protein.RotatedAtoms>
  150.9548  133.6510  159.2765 H   0  0  0  0  0  0  0  0  0  0  0  0  # atno 6907 bound_to 6896
  151.3853  135.0946  159.9519 H   0  0  0  0  0  0  0  0  0  0  0  0  # atno 6908 bound_to 6896
  152.5124  133.9073  159.7525 H   0  0  0  0  0  0  0  0  0  0  0  0  # atno 6909 bound_to 6896
  145.1090  140.8599  143.3881 H   0  0  0  0  0  0  0  0  0  0  0  0  # atno 7974 bound_to 7965
  156.2532  140.2880  156.0792 H   0  0  0  0  0  0  0  0  0  0  0  0  # atno 8008 bound_to 7997
  155.1585  140.0399  157.2854 H   0  0  0  0  0  0  0  0  0  0  0  0  # atno 8009 bound_to 7997
  154.6410  140.2522  155.7329 H   0  0  0  0  0  0  0  0  0  0  0  0  # atno 8010 bound_to 7997
  140.3176  143.3068  152.0081 H   0  0  0  0  0  0  0  0  0  0  0  0  # atno 10167 bound_to 10162
  156.0684  130.4244  150.1529 H   0  0  0  0  0  0  0  0  0  0  0  0  # atno 10718 bound_to 10713
  154.7948  135.3220  154.7693 H   0  0  0  0  0  0  0  0  0  0  0  0  # atno 10763 bound_to 10752
  153.8373  135.6874  153.4811 H   0  0  0  0  0  0  0  0  0  0  0  0  # atno 10764 bound_to 10752
  153.1634  135.4651  154.9745 H   0  0  0  0  0  0  0  0  0  0  0  0  # atno 10765 bound_to 10752
  141.0960  133.6624  156.4126 H   0  0  0  0  0  0  0  0  0  0  0  0  # atno 11005 bound_to 11000
  145.0869  139.2918  143.5755 LP  0  0  0  0  0  0  0  0  0  0  0  0  # atno 17320 bound_to 7965
  146.3527  140.0393  142.8644 LP  0  0  0  0  0  0  0  0  0  0  0  0  # atno 17321 bound_to 7965
  139.4881  144.6336  151.7020 LP  0  0  0  0  0  0  0  0  0  0  0  0  # atno 17342 bound_to 10162
  140.5512  144.0421  150.6128 LP  0  0  0  0  0  0  0  0  0  0  0  0  # atno 17343 bound_to 10162
  156.9585  130.9797  151.3484 LP  0  0  0  0  0  0  0  0  0  0  0  0  # atno 17370 bound_to 10713
  157.5740  130.8330  149.8430 LP  0  0  0  0  0  0  0  0  0  0  0  0  # atno 17371 bound_to 10713
  140.5139  134.6369  157.5294 LP  0  0  0  0  0  0  0  0  0  0  0  0  # atno 17394 bound_to 11000
  139.9797  134.7158  155.9883 LP  0  0  0  0  0  0  0  0  0  0  0  0  # atno 17395 bound_to 11000

$$$$
