AV-unprocessed.smi:815|AV-procd|sdf|3825|dock2
  -GOLD-   22720 1263D 1   1.00000     0.00000
 Structure written by MMmdl.
 39 40  0  0  0  0  0  0  0  0  1 V2000
  145.3151  136.2765  151.5573 C   0  0  0  0  0  0  0  0  0  0  0  0
  145.4305  137.5749  152.3679 C   0  0  0  0  0  0  0  0  0  0  0  0
  146.5003  138.5444  151.8336 C   0  0  0  0  0  0  0  0  0  0  0  0
  147.7207  138.5234  152.6340 N   0  0  0  0  0  0  0  0  0  0  0  0
  148.0803  139.4673  153.5150 C   0  0  0  0  0  0  0  0  0  0  0  0
  147.4065  140.4707  153.7483 O   0  0  0  0  0  0  0  0  0  0  0  0
  149.2666  139.1803  154.0776 N   0  0  0  0  0  0  0  0  0  0  0  0
  149.9689  139.9092  155.0747 C   0  0  0  0  0  0  0  0  0  0  0  0
  151.0897  139.4114  155.7810 C   0  0  0  0  0  0  0  0  0  0  0  0
  151.7175  140.2391  156.7312 C   0  0  0  0  0  0  0  0  0  0  0  0
  151.2131  141.5387  156.9413 C   0  0  0  0  0  0  0  0  0  0  0  0
  151.8374  142.3648  157.8864 N   0  0  0  0  0  0  0  0  0  0  0  0
  151.5933  143.7859  157.6717 C   0  0  0  0  0  0  0  0  0  0  0  0
  152.4158  144.6175  158.6714 C   0  0  0  0  0  0  0  0  0  0  0  0
  152.1080  144.2083  160.0012 O   0  0  0  0  0  0  0  0  0  0  0  0
  152.4181  142.8354  160.2238 C   0  0  0  0  0  0  0  0  0  0  0  0
  151.5939  141.9587  159.2650 C   0  0  0  0  0  0  0  0  0  0  0  0
  150.1486  142.0260  156.2608 N   0  0  0  0  0  0  0  0  0  0  0  0
  149.5519  141.2276  155.3507 C   0  0  0  0  0  0  0  0  0  0  0  0
  144.5764  135.6087  152.0007 H   0  0  0  0  0  0  0  0  0  0  0  0
  146.2669  135.7456  151.5266 H   0  0  0  0  0  0  0  0  0  0  0  0
  145.0054  136.4723  150.5303 H   0  0  0  0  0  0  0  0  0  0  0  0
  144.4602  138.0722  152.3949 H   0  0  0  0  0  0  0  0  0  0  0  0
  145.6681  137.3244  153.4024 H   0  0  0  0  0  0  0  0  0  0  0  0
  146.7336  138.3092  150.7938 H   0  0  0  0  0  0  0  0  0  0  0  0
  146.1102  139.5624  151.8365 H   0  0  0  0  0  0  0  0  0  0  0  0
  148.3367  137.7347  152.5026 H   0  0  0  0  0  0  0  0  0  0  0  0
  149.7467  138.3695  153.7150 H   0  0  0  0  0  0  0  0  0  0  0  0
  151.4875  138.4243  155.6035 H   0  0  0  0  0  0  0  0  0  0  0  0
  152.5742  139.8821  157.2841 H   0  0  0  0  0  0  0  0  0  0  0  0
  151.8609  144.0564  156.6494 H   0  0  0  0  0  0  0  0  0  0  0  0
  150.5313  144.0023  157.7962 H   0  0  0  0  0  0  0  0  0  0  0  0
  153.4851  144.5064  158.4837 H   0  0  0  0  0  0  0  0  0  0  0  0
  152.1817  145.6765  158.5622 H   0  0  0  0  0  0  0  0  0  0  0  0
  153.4871  142.6658  160.0847 H   0  0  0  0  0  0  0  0  0  0  0  0
  152.1869  142.5815  161.2583 H   0  0  0  0  0  0  0  0  0  0  0  0
  150.5322  142.0539  159.4971 H   0  0  0  0  0  0  0  0  0  0  0  0
  151.8603  140.9090  159.3937 H   0  0  0  0  0  0  0  0  0  0  0  0
  148.7093  141.6566  154.8281 H   0  0  0  0  0  0  0  0  0  0  0  0
  1  2  1  0  0  0  0
  1 20  1  0  0  0  0
  1 21  1  0  0  0  0
  1 22  1  0  0  0  0
  2  3  1  0  0  0  0
  2 23  1  0  0  0  0
  2 24  1  0  0  0  0
  3  4  1  0  0  0  0
  3 25  1  0  0  0  0
  3 26  1  0  0  0  0
  4  5  1  0  0  0  0
  4 27  1  0  0  0  0
  5  6  2  0  0  0  0
  5  7  1  0  0  0  0
  7  8  1  0  0  0  0
  7 28  1  0  0  0  0
  8 19  1  0  0  0  0
  8  9  2  0  0  0  0
  9 10  1  0  0  0  0
  9 29  1  0  0  0  0
 10 11  2  0  0  0  0
 10 30  1  0  0  0  0
 11 12  1  0  0  0  0
 11 18  1  0  0  0  0
 12 17  1  0  0  0  0
 12 13  1  0  0  0  0
 13 14  1  0  0  0  0
 13 31  1  0  0  0  0
 13 32  1  0  0  0  0
 14 15  1  0  0  0  0
 14 33  1  0  0  0  0
 14 34  1  0  0  0  0
 15 16  1  0  0  0  0
 16 17  1  0  0  0  0
 16 35  1  0  0  0  0
 16 36  1  0  0  0  0
 17 37  1  0  0  0  0
 17 38  1  0  0  0  0
 18 19  2  0  0  0  0
 19 39  1  0  0  0  0
M  END
> <s_m_source_file>
AV-unprocessed.smi

> <i_m_source_file_index>
815

> <i_lp_mmshare_version>
43012

> <i_f3d_flags>
0

> <s_epik_input>
W0NIM11bQ0gyXVtDSDJdW05IXUMoPU8pW05IXWMxW2NIXVtjSF1jKG5bY0hdMSlOMltDSDJdW0NIMl1PW0NIMl1bQ0gyXTI=

> <s_epik_cmdline>
J2VwaWtfcHl0aG9uJywgJy1waCcsICc3LjAnLCAnLXRuJywgJzgnLCAnLW1hJywgJzIwMCcsICctbWV0YWxfYmluZGluZycsICctaW1hZScsICc8aW5maWxlLm1hZT4nLCAnLW9tYWUnLCAnPG91dGZpbGUubWFlPic=

> <r_lp_tautomer_probability>
1

> <r_epik_Ionization_Penalty>
0.00208635

> <r_epik_Ionization_Penalty_Charging>
0

> <r_epik_Ionization_Penalty_Neutral>
0.00208635

> <r_epik_State_Penalty>
0.00140033

> <r_epik_Charging_Adjusted_Penalty>
0.00140033

> <i_epik_Tot_Q>
0

> <i_epik_Tot_abs_Q>
0

> <r_epik_Metal_State_Penalty>
-0

> <b_epik_Metal_Only>
0

> <s_lp_Force_Field>
OPLS_2005

> <r_lp_Energy>
21.8572

> <b_lp_Chiralities_Consistent>
1

> <s_lp_Variant>
AV-unprocessed.smi:815-1

> <Gold.Version>
5.8.1

> <Gold.Id.Protein>
6NUR|6NUR_protein|mol2

> <Gold.PLP.Fitness>
41.1046

> <Gold.PLP.PLP>
-39.7583

> <Gold.PLP.part.hbond>
-3.0000

> <Gold.PLP.part.metal>
0.0000

> <Gold.PLP.part.buried>
-1.7474

> <Gold.PLP.part.nonpolar>
-35.8360

> <Gold.PLP.part.repulsive>
1.0778

> <Gold.PLP.ligand.clash>
0.0000

> <Gold.PLP.ligand.torsion>
0.8857

> <Gold.PLP.Chemscore.Hbond>
1.0000

> <Gold.PLP.Chemscore.CHOScore>
0.0000

> <Gold.PLP.Chemscore.Metal>
0.0000

> <Gold.Chemscore.Hbonds>
donor molecule, donor type, donor heavy atom, donor atom, acceptor molecule, acceptor atom, score
      L1  H     4    27       P1  7948  1.00

> <Gold.PLP.Chemscore.Internal.Correction>
0.1177

> <Gold.Rescore>
     Score         DG    S(hbond)    S(metal)    S(lipo)     H(rot)  DE(clash)    DE(int)     intcor
     13.38     -16.08       0.99        0.00      92.44       1.37       0.16       2.54       ----

> <Gold.Chemscore.Fitness>
13.3828

> <Gold.Chemscore.DG>
-16.0814

> <Gold.Chemscore.ZeroCoef>
-5.4800

> <Gold.Chemscore.Hbond>
0.9886

> <Gold.Chemscore.Metal>
0.0000

> <Gold.Chemscore.Lipo>
92.4392

> <Gold.Chemscore.Internal_Hbond>
0.0000

> <Gold.Chemscore.DEClash>
0.1621

> <Gold.Chemscore.DEInternal>
2.5365

> <Gold.Chemscore.Rot>
1.3734

> <Gold.Chemscore.Internal.Correction>
   9.000000E+99

> <Gold.Chemscore.Hbonds>
donor molecule, donor type, donor heavy atom, donor atom, acceptor molecule, acceptor atom, score
      L1  H     4    27       P1  7948  0.99

> <Gold.Chemscore.Hbond.Weighted>
-3.3019

> <Gold.Chemscore.Metal.Weighted>
-0.0000

> <Gold.Chemscore.Lipo.Weighted>
-10.8154

> <Gold.Chemscore.Internal_Hbond.Weighted>
0.0000

> <Gold.Chemscore.DEClash.Weighted>
0.1621

> <Gold.Chemscore.DEInternal.Weighted>
2.5365

> <Gold.Chemscore.Rot.Weighted>
3.5159

> <Gold.Chemscore.Internal.Correction.Weighted>
   9.000000E+99

> <Gold.Protein.RotatedTorsions>
[ 6907 6896 6895 6894 ] final  -48.14 input  -60.11 | X-H torsion
[ 7974 7965 7964 7962 ] final -172.07 input  175.53 | X-H torsion
[ 8008 7997 7996 7995 ] final  -22.46 input   59.86 | X-H torsion
[ 10167 10162 10161 10158 ] final  -33.30 input  -65.29 | X-H torsion
[ 10718 10713 10712 10709 ] final  -80.00 input   66.30 | X-H torsion
[ 10763 10752 10751 10750 ] final   32.59 input  -60.55 | X-H torsion
[ 11005 11000 10999 10996 ] final   46.79 input  -57.11 | X-H torsion

> <Gold.Protein.ActiveResidues>
 VAL166  LYS551  ARG553  GLY616  TRP617  ASP618  TYR619  PRO620  LYS621  CYS622 
 ASP623  PHE694  ASN695  SER759  ASP760  ASP761  ALA762  ILE779  LEU786  VAL792 
 PHE793  MET794  SER795  GLU796  ALA797  LYS798  CYS799  TRP800  GLU811  SER814 

> <Gold.Protein.RotatedAtoms>
  150.8935  134.8341  159.7310 H   0  0  0  0  0  0  0  0  0  0  0  0  # atno 6907 bound_to 6896
  152.4851  134.4611  159.9615 H   0  0  0  0  0  0  0  0  0  0  0  0  # atno 6908 bound_to 6896
  151.4671  133.3539  159.2853 H   0  0  0  0  0  0  0  0  0  0  0  0  # atno 6909 bound_to 6896
  144.7150  140.1827  143.6356 H   0  0  0  0  0  0  0  0  0  0  0  0  # atno 7974 bound_to 7965
  154.4643  140.2007  156.0161 H   0  0  0  0  0  0  0  0  0  0  0  0  # atno 8008 bound_to 7997
  156.0898  140.3259  155.7772 H   0  0  0  0  0  0  0  0  0  0  0  0  # atno 8009 bound_to 7997
  155.4976  140.0551  157.2935 H   0  0  0  0  0  0  0  0  0  0  0  0  # atno 8010 bound_to 7997
  140.7207  143.3630  151.1925 H   0  0  0  0  0  0  0  0  0  0  0  0  # atno 10167 bound_to 10162
  156.0080  130.4561  150.3733 H   0  0  0  0  0  0  0  0  0  0  0  0  # atno 10718 bound_to 10713
  153.0255  135.6409  154.1378 H   0  0  0  0  0  0  0  0  0  0  0  0  # atno 10763 bound_to 10752
  154.1108  135.2853  155.3232 H   0  0  0  0  0  0  0  0  0  0  0  0  # atno 10764 bound_to 10752
  154.6333  135.5485  153.7768 H   0  0  0  0  0  0  0  0  0  0  0  0  # atno 10765 bound_to 10752
  140.1337  134.4672  155.8502 H   0  0  0  0  0  0  0  0  0  0  0  0  # atno 11005 bound_to 11000
  145.8841  139.2339  143.1588 LP  0  0  0  0  0  0  0  0  0  0  0  0  # atno 17320 bound_to 7965
  145.9966  140.8556  143.0039 LP  0  0  0  0  0  0  0  0  0  0  0  0  # atno 17321 bound_to 7965
  139.7186  143.9260  152.2976 LP  0  0  0  0  0  0  0  0  0  0  0  0  # atno 17342 bound_to 10162
  139.9009  144.6912  150.8666 LP  0  0  0  0  0  0  0  0  0  0  0  0  # atno 17343 bound_to 10162
  157.1817  131.0394  151.2745 LP  0  0  0  0  0  0  0  0  0  0  0  0  # atno 17370 bound_to 10713
  157.4140  130.7401  149.6861 LP  0  0  0  0  0  0  0  0  0  0  0  0  # atno 17371 bound_to 10713
  141.2174  133.6806  156.7117 LP  0  0  0  0  0  0  0  0  0  0  0  0  # atno 17394 bound_to 11000
  140.2810  134.8317  157.3933 LP  0  0  0  0  0  0  0  0  0  0  0  0  # atno 17395 bound_to 11000

$$$$
