AV-unprocessed.smi:3165|AV-procd|sdf|12088|dock2
  -GOLD-   2272017523D 1   1.00000     0.00000
 Structure written by MMmdl.
 38 39  0  0  0  0  0  0  0  0  2 V2000
  151.5532  140.0117  155.8320 C   0  0  0  0  0  0  0  0  0  0  0  0
  150.4145  141.0164  155.6122 C   0  0  1  0  0  0  0  0  0  0  0  0
  149.0504  140.3825  155.9572 C   0  0  0  0  0  0  0  0  0  0  0  0
  147.9855  140.8212  155.0734 N   0  0  0  0  0  0  0  0  0  0  0  0
  147.3328  142.0357  155.0531 C   0  0  0  0  0  0  0  0  0  0  0  0
  146.3960  141.9758  154.0616 C   0  0  0  0  0  0  0  0  0  0  0  0
  146.5566  140.6689  153.5220 C   0  0  0  0  0  0  0  0  0  0  0  0
  147.5098  139.9807  154.1290 N   0  0  0  0  0  0  0  0  0  0  0  0
  150.6596  142.2271  156.4286 N   0  3  0  0  0  0  0  0  0  0  0  0
  150.6992  141.9965  157.8880 C   0  0  0  0  0  0  0  0  0  0  0  0
  151.6864  142.9529  158.5702 C   0  0  1  0  0  0  0  0  0  0  0  0
  151.3549  144.4273  158.2688 C   0  0  0  0  0  0  0  0  0  0  0  0
  152.2867  145.3615  159.0492 C   0  0  0  0  0  0  0  0  0  0  0  0
  152.2471  145.0027  160.5381 C   0  0  0  0  0  0  0  0  0  0  0  0
  152.5278  143.5046  160.7329 C   0  0  0  0  0  0  0  0  0  0  0  0
  151.5971  142.7357  159.9772 O   0  0  0  0  0  0  0  0  0  0  0  0
  151.4127  139.1188  155.2220 H   0  0  0  0  0  0  0  0  0  0  0  0
  151.6106  139.6963  156.8746 H   0  0  0  0  0  0  0  0  0  0  0  0
  152.5168  140.4444  155.5610 H   0  0  0  0  0  0  0  0  0  0  0  0
  150.4214  141.2876  154.5549 H   0  0  0  0  0  0  0  0  0  0  0  0
  149.1149  139.2958  155.8863 H   0  0  0  0  0  0  0  0  0  0  0  0
  148.7723  140.6080  156.9884 H   0  0  0  0  0  0  0  0  0  0  0  0
  147.5832  142.8305  155.7406 H   0  0  0  0  0  0  0  0  0  0  0  0
  145.7017  142.7483  153.7657 H   0  0  0  0  0  0  0  0  0  0  0  0
  146.0126  140.2027  152.7138 H   0  0  0  0  0  0  0  0  0  0  0  0
  151.5424  142.6261  156.1409 H   0  0  0  0  0  0  0  0  0  0  0  0
  149.6946  142.1435  158.2862 H   0  0  0  0  0  0  0  0  0  0  0  0
  150.9794  140.9650  158.1030 H   0  0  0  0  0  0  0  0  0  0  0  0
  152.6992  142.7300  158.2290 H   0  0  0  0  0  0  0  0  0  0  0  0
  151.4408  144.6248  157.1999 H   0  0  0  0  0  0  0  0  0  0  0  0
  150.3199  144.6358  158.5430 H   0  0  0  0  0  0  0  0  0  0  0  0
  153.3063  145.2632  158.6741 H   0  0  0  0  0  0  0  0  0  0  0  0
  151.9956  146.4015  158.9005 H   0  0  0  0  0  0  0  0  0  0  0  0
  152.9740  145.5991  161.0899 H   0  0  0  0  0  0  0  0  0  0  0  0
  151.2659  145.2454  160.9483 H   0  0  0  0  0  0  0  0  0  0  0  0
  153.5477  143.2573  160.4343 H   0  0  0  0  0  0  0  0  0  0  0  0
  152.4313  143.2389  161.7857 H   0  0  0  0  0  0  0  0  0  0  0  0
  149.9282  142.8974  156.2393 H   0  0  0  0  0  0  0  0  0  0  0  0
  1  2  1  0  0  0  0
  1 17  1  0  0  0  0
  1 18  1  0  0  0  0
  1 19  1  0  0  0  0
  2  3  1  0  0  0  0
  2  9  1  0  0  0  0
  2 20  1  0  0  0  0
  3  4  1  0  0  0  0
  3 21  1  0  0  0  0
  3 22  1  0  0  0  0
  4  8  1  0  0  0  0
  4  5  1  0  0  0  0
  5  6  2  0  0  0  0
  5 23  1  0  0  0  0
  6  7  1  0  0  0  0
  6 24  1  0  0  0  0
  7  8  2  0  0  0  0
  7 25  1  0  0  0  0
  9 10  1  0  0  0  0
  9 26  1  0  0  0  0
  9 38  1  0  0  0  0
 10 11  1  0  0  0  0
 10 27  1  0  0  0  0
 10 28  1  0  0  0  0
 11 16  1  0  0  0  0
 11 12  1  0  0  0  0
 11 29  1  0  0  0  0
 12 13  1  0  0  0  0
 12 30  1  0  0  0  0
 12 31  1  0  0  0  0
 13 14  1  0  0  0  0
 13 32  1  0  0  0  0
 13 33  1  0  0  0  0
 14 15  1  0  0  0  0
 14 34  1  0  0  0  0
 14 35  1  0  0  0  0
 15 16  1  0  0  0  0
 15 36  1  0  0  0  0
 15 37  1  0  0  0  0
M  CHG  1   9   1
M  END
> <s_m_source_file>
AV-unprocessed.smi

> <i_m_source_file_index>
3165

> <i_lp_mmshare_version>
43012

> <i_f3d_flags>
0

> <s_epik_input>
bjFbY0hdW2NIXVtjSF1uMVtDSDJdW0NAQEhdKFtDSDNdKVtOSF1bQ0gyXVtDQEBIXTJbQ0gyXVtDSDJdW0NIMl1bQ0gyXU8y

> <s_epik_cmdline>
J2VwaWtfcHl0aG9uJywgJy1waCcsICc3LjAnLCAnLXRuJywgJzgnLCAnLW1hJywgJzIwMCcsICctbWV0YWxfYmluZGluZycsICctaW1hZScsICc8aW5maWxlLm1hZT4nLCAnLW9tYWUnLCAnPG91dGZpbGUubWFlPic=

> <r_lp_tautomer_probability>
1

> <r_epik_Ionization_Penalty>
0.00849196

> <r_epik_Ionization_Penalty_Charging>
0.00848754

> <r_epik_Ionization_Penalty_Neutral>
4.42049e-06

> <r_epik_State_Penalty>
0.00639836

> <r_epik_Charging_Adjusted_Penalty>
0.0148859

> <i_epik_Tot_Q>
1

> <i_epik_Tot_abs_Q>
1

> <r_epik_Metal_State_Penalty>
0.00639878

> <b_epik_Metal_Only>
0

> <s_lp_Force_Field>
OPLS_2005

> <r_lp_Energy>
13.0452

> <b_lp_Chiralities_Consistent>
1

> <s_lp_Variant>
AV-unprocessed.smi:3165-4

> <Gold.Version>
5.8.1

> <Gold.Id.Protein>
6NUR|6NUR_protein|mol2

> <Gold.PLP.Fitness>
45.4734

> <Gold.PLP.PLP>
-35.9581

> <Gold.PLP.part.hbond>
-1.8777

> <Gold.PLP.part.metal>
0.0000

> <Gold.PLP.part.buried>
-2.3974

> <Gold.PLP.part.nonpolar>
-32.1563

> <Gold.PLP.part.repulsive>
0.2464

> <Gold.PLP.ligand.clash>
0.0000

> <Gold.PLP.ligand.torsion>
0.8887

> <Gold.PLP.Chemscore.Hbond>
2.0000

> <Gold.PLP.Chemscore.CHOScore>
1.7317

> <Gold.PLP.Chemscore.Metal>
0.0000

> <Gold.Chemscore.Hbonds>
donor molecule, donor type, donor heavy atom, donor atom, acceptor molecule, acceptor atom, score
      L1  H     9    38       P1  8028  1.27
      L1  C     5    23       P1  8028  1.00
      L1  C     7    25       P1 10175  0.84

> <Gold.PLP.Chemscore.Internal.Correction>
0.0976

> <Gold.Rescore>
     Score         DG    S(hbond)    S(metal)    S(lipo)     H(rot)  DE(clash)    DE(int)     intcor
     15.67     -16.80       0.99        0.00     104.57       1.64       0.08       1.04       ----

> <Gold.Chemscore.Fitness>
15.6719

> <Gold.Chemscore.DG>
-16.7996

> <Gold.Chemscore.ZeroCoef>
-5.4800

> <Gold.Chemscore.Hbond>
0.9863

> <Gold.Chemscore.Metal>
0.0000

> <Gold.Chemscore.Lipo>
104.5738

> <Gold.Chemscore.Internal_Hbond>
0.0000

> <Gold.Chemscore.DEClash>
0.0833

> <Gold.Chemscore.DEInternal>
1.0444

> <Gold.Chemscore.Rot>
1.6444

> <Gold.Chemscore.Internal.Correction>
   9.000000E+99

> <Gold.Chemscore.Hbonds>
donor molecule, donor type, donor heavy atom, donor atom, acceptor molecule, acceptor atom, score
      L1  H     9    38       P1  8028  0.62

> <Gold.Chemscore.Hbond.Weighted>
-3.2942

> <Gold.Chemscore.Metal.Weighted>
-0.0000

> <Gold.Chemscore.Lipo.Weighted>
-12.2351

> <Gold.Chemscore.Internal_Hbond.Weighted>
0.0000

> <Gold.Chemscore.DEClash.Weighted>
0.0833

> <Gold.Chemscore.DEInternal.Weighted>
1.0444

> <Gold.Chemscore.Rot.Weighted>
4.2097

> <Gold.Chemscore.Internal.Correction.Weighted>
   9.000000E+99

> <Gold.Protein.RotatedTorsions>
[ 6907 6896 6895 6894 ] final  112.33 input  -60.11 | X-H torsion
[ 7974 7965 7964 7962 ] final  149.46 input  175.53 | X-H torsion
[ 8008 7997 7996 7995 ] final  106.19 input   59.86 | X-H torsion
[ 10167 10162 10161 10158 ] final  150.37 input  -65.29 | X-H torsion
[ 10718 10713 10712 10709 ] final  -83.70 input   66.30 | X-H torsion
[ 10763 10752 10751 10750 ] final   40.34 input  -60.55 | X-H torsion
[ 11005 11000 10999 10996 ] final -146.77 input  -57.11 | X-H torsion

> <Gold.Protein.ActiveResidues>
 VAL166  LYS551  ARG553  GLY616  TRP617  ASP618  TYR619  PRO620  LYS621  CYS622 
 ASP623  PHE694  ASN695  SER759  ASP760  ASP761  ALA762  ILE779  LEU786  VAL792 
 PHE793  MET794  SER795  GLU796  ALA797  LYS798  CYS799  TRP800  GLU811  SER814 

> <Gold.Protein.RotatedAtoms>
  152.4922  133.8531  159.7211 H   0  0  0  0  0  0  0  0  0  0  0  0  # atno 6907 bound_to 6896
  150.9063  133.7045  159.2872 H   0  0  0  0  0  0  0  0  0  0  0  0  # atno 6908 bound_to 6896
  151.4469  135.1030  159.9739 H   0  0  0  0  0  0  0  0  0  0  0  0  # atno 6909 bound_to 6896
  144.8436  139.6283  143.6005 H   0  0  0  0  0  0  0  0  0  0  0  0  # atno 7974 bound_to 7965
  156.1722  140.3117  155.8995 H   0  0  0  0  0  0  0  0  0  0  0  0  # atno 8008 bound_to 7997
  155.3562  140.0474  157.3063 H   0  0  0  0  0  0  0  0  0  0  0  0  # atno 8009 bound_to 7997
  154.5253  140.2212  155.8912 H   0  0  0  0  0  0  0  0  0  0  0  0  # atno 8010 bound_to 7997
  139.4851  144.5528  151.7371 H   0  0  0  0  0  0  0  0  0  0  0  0  # atno 10167 bound_to 10162
  156.0015  130.4674  150.4297 H   0  0  0  0  0  0  0  0  0  0  0  0  # atno 10718 bound_to 10713
  152.9939  135.6194  154.2610 H   0  0  0  0  0  0  0  0  0  0  0  0  # atno 10763 bound_to 10752
  154.2346  135.2791  155.2878 H   0  0  0  0  0  0  0  0  0  0  0  0  # atno 10764 bound_to 10752
  154.5420  135.5758  153.6906 H   0  0  0  0  0  0  0  0  0  0  0  0  # atno 10765 bound_to 10752
  140.7786  134.3106  157.5053 H   0  0  0  0  0  0  0  0  0  0  0  0  # atno 11005 bound_to 11000
  146.2725  139.6670  142.9286 LP  0  0  0  0  0  0  0  0  0  0  0  0  # atno 17320 bound_to 7965
  145.4642  141.0434  143.2734 LP  0  0  0  0  0  0  0  0  0  0  0  0  # atno 17321 bound_to 7965
  140.5084  144.1062  150.5988 LP  0  0  0  0  0  0  0  0  0  0  0  0  # atno 17342 bound_to 10162
  140.3979  143.2718  151.9982 LP  0  0  0  0  0  0  0  0  0  0  0  0  # atno 17343 bound_to 10162
  157.2347  131.0512  151.2472 LP  0  0  0  0  0  0  0  0  0  0  0  0  # atno 17370 bound_to 10713
  157.3678  130.7165  149.6544 LP  0  0  0  0  0  0  0  0  0  0  0  0  # atno 17371 bound_to 10713
  139.8745  134.9304  156.3502 LP  0  0  0  0  0  0  0  0  0  0  0  0  # atno 17394 bound_to 11000
  140.9505  133.7454  156.0265 LP  0  0  0  0  0  0  0  0  0  0  0  0  # atno 17395 bound_to 11000

$$$$
