AV-unprocessed.smi:616|AV-procd|sdf|3072|dock1
  -GOLD-   2262023593D 1   1.00000     0.00000
 Structure written by MMmdl.
 34 35  0  0  0  0  0  0  0  0  1 V2000
  151.1219  144.9882  158.3677 C   0  0  0  0  0  0  0  0  0  0  0  0
  151.6830  143.6273  158.7461 C   0  0  0  0  0  0  0  0  0  0  0  0
  152.5232  143.5172  159.7993 C   0  0  0  0  0  0  0  0  0  0  0  0
  153.1006  142.2406  160.2222 C   0  0  0  0  0  0  0  0  0  0  0  0
  153.8696  142.1516  161.1797 O   0  0  0  0  0  0  0  0  0  0  0  0
  152.7306  141.1570  159.4857 N   0  0  0  0  0  0  0  0  0  0  0  0
  153.2535  139.8312  159.8269 C   0  0  0  0  0  0  0  0  0  0  0  0
  151.8633  141.2582  158.3846 C   0  0  0  0  0  0  0  0  0  0  0  0
  151.3272  142.4341  157.9877 C   0  0  0  0  0  0  0  0  0  0  0  0
  150.4632  142.5876  156.8891 N   0  0  0  0  0  0  0  0  0  0  0  0
  150.1028  141.7012  155.9416 C   0  0  0  0  0  0  0  0  0  0  0  0
  150.4638  140.5267  155.8716 O   0  0  0  0  0  0  0  0  0  0  0  0
  149.2705  142.2656  155.0551 N   0  0  0  0  0  0  0  0  0  0  0  0
  148.6810  141.5827  153.9108 C   0  0  0  0  0  0  0  0  0  0  0  0
  147.7525  140.4358  154.2607 C   0  0  0  0  0  0  0  0  0  0  0  0
  148.1492  139.0003  154.0029 C   0  0  0  0  0  0  0  0  0  0  0  0
  147.0713  139.6461  153.1673 C   0  0  0  0  0  0  0  0  0  0  0  0
  151.4870  145.7745  159.0291 H   0  0  0  0  0  0  0  0  0  0  0  0
  150.0332  144.9787  158.4271 H   0  0  0  0  0  0  0  0  0  0  0  0
  151.4098  145.2471  157.3484 H   0  0  0  0  0  0  0  0  0  0  0  0
  152.7865  144.4016  160.3612 H   0  0  0  0  0  0  0  0  0  0  0  0
  152.8076  139.0338  159.2317 H   0  0  0  0  0  0  0  0  0  0  0  0
  153.0574  139.5954  160.8741 H   0  0  0  0  0  0  0  0  0  0  0  0
  154.3320  139.7963  159.6672 H   0  0  0  0  0  0  0  0  0  0  0  0
  151.6854  140.3136  157.8980 H   0  0  0  0  0  0  0  0  0  0  0  0
  150.0541  143.5070  156.8086 H   0  0  0  0  0  0  0  0  0  0  0  0
  149.0223  143.2357  155.1836 H   0  0  0  0  0  0  0  0  0  0  0  0
  148.1095  142.3206  153.3476 H   0  0  0  0  0  0  0  0  0  0  0  0
  149.4666  141.2297  153.2401 H   0  0  0  0  0  0  0  0  0  0  0  0
  147.1486  140.6171  155.1480 H   0  0  0  0  0  0  0  0  0  0  0  0
  149.1106  138.8169  153.5276 H   0  0  0  0  0  0  0  0  0  0  0  0
  147.8420  138.2566  154.7350 H   0  0  0  0  0  0  0  0  0  0  0  0
  146.0445  139.3311  153.3405 H   0  0  0  0  0  0  0  0  0  0  0  0
  147.3174  139.8894  152.1356 H   0  0  0  0  0  0  0  0  0  0  0  0
  1  2  1  0  0  0  0
  1 18  1  0  0  0  0
  1 19  1  0  0  0  0
  1 20  1  0  0  0  0
  2  9  1  0  0  0  0
  2  3  2  0  0  0  0
  3  4  1  0  0  0  0
  3 21  1  0  0  0  0
  4  5  2  0  0  0  0
  4  6  1  0  0  0  0
  6  7  1  0  0  0  0
  6  8  1  0  0  0  0
  7 22  1  0  0  0  0
  7 23  1  0  0  0  0
  7 24  1  0  0  0  0
  8  9  2  0  0  0  0
  8 25  1  0  0  0  0
  9 10  1  0  0  0  0
 10 11  1  0  0  0  0
 10 26  1  0  0  0  0
 11 12  2  0  0  0  0
 11 13  1  0  0  0  0
 13 14  1  0  0  0  0
 13 27  1  0  0  0  0
 14 15  1  0  0  0  0
 14 28  1  0  0  0  0
 14 29  1  0  0  0  0
 15 17  1  0  0  0  0
 15 16  1  0  0  0  0
 15 30  1  0  0  0  0
 16 17  1  0  0  0  0
 16 31  1  0  0  0  0
 16 32  1  0  0  0  0
 17 33  1  0  0  0  0
 17 34  1  0  0  0  0
M  END
> <s_m_source_file>
AV-unprocessed.smi

> <i_m_source_file_index>
616

> <i_lp_mmshare_version>
43012

> <i_f3d_flags>
0

> <s_epik_input>
W0NIM11jMVtjSF1jKD1PKW4oW0NIM10pW2NIXWMxW05IXUMoPU8pW05IXVtDSDJdW0NIXTJbQ0gyXVtDSDJdMg==

> <s_epik_cmdline>
J2VwaWtfcHl0aG9uJywgJy1waCcsICc3LjAnLCAnLXRuJywgJzgnLCAnLW1hJywgJzIwMCcsICctbWV0YWxfYmluZGluZycsICctaW1hZScsICc8aW5maWxlLm1hZT4nLCAnLW9tYWUnLCAnPG91dGZpbGUubWFlPic=

> <r_lp_tautomer_probability>
1

> <r_epik_Ionization_Penalty>
2.97505e-05

> <r_epik_Ionization_Penalty_Charging>
8.23988e-06

> <r_epik_Ionization_Penalty_Neutral>
2.15106e-05

> <r_epik_State_Penalty>
-0

> <r_epik_Charging_Adjusted_Penalty>
8.23988e-06

> <i_epik_Tot_Q>
0

> <i_epik_Tot_abs_Q>
0

> <r_epik_Metal_State_Penalty>
-0

> <b_epik_Metal_Only>
0

> <s_lp_Force_Field>
OPLS_2005

> <r_lp_Energy>
26.2007

> <b_lp_Chiralities_Consistent>
1

> <s_lp_Variant>
AV-unprocessed.smi:616-1

> <Gold.Version>
5.8.1

> <Gold.Id.Protein>
6NUR|6NUR_protein|mol2

> <Gold.PLP.Fitness>
41.8237

> <Gold.PLP.PLP>
-36.2337

> <Gold.PLP.part.hbond>
-2.3893

> <Gold.PLP.part.metal>
0.0000

> <Gold.PLP.part.buried>
-1.8922

> <Gold.PLP.part.nonpolar>
-31.6062

> <Gold.PLP.part.repulsive>
0.2879

> <Gold.PLP.ligand.clash>
0.0000

> <Gold.PLP.ligand.torsion>
0.3674

> <Gold.PLP.Chemscore.Hbond>
1.9280

> <Gold.PLP.Chemscore.CHOScore>
0.0000

> <Gold.PLP.Chemscore.Metal>
0.0000

> <Gold.Chemscore.Hbonds>
donor molecule, donor type, donor heavy atom, donor atom, acceptor molecule, acceptor atom, score
      L1  H    10    26       P1  8028  0.91
      L1  H    13    27       P1  8028  1.00

> <Gold.PLP.Chemscore.Internal.Correction>
0.5408

> <Gold.Rescore>
     Score         DG    S(hbond)    S(metal)    S(lipo)     H(rot)  DE(clash)    DE(int)     intcor
     16.39     -18.69       1.94        0.00      83.61       1.18       0.82       1.48       ----

> <Gold.Chemscore.Fitness>
16.3922

> <Gold.Chemscore.DG>
-18.6947

> <Gold.Chemscore.ZeroCoef>
-5.4800

> <Gold.Chemscore.Hbond>
1.9353

> <Gold.Chemscore.Metal>
0.0000

> <Gold.Chemscore.Lipo>
83.6134

> <Gold.Chemscore.Internal_Hbond>
0.0000

> <Gold.Chemscore.DEClash>
0.8219

> <Gold.Chemscore.DEInternal>
1.4806

> <Gold.Chemscore.Rot>
1.1844

> <Gold.Chemscore.Internal.Correction>
   9.000000E+99

> <Gold.Chemscore.Hbonds>
donor molecule, donor type, donor heavy atom, donor atom, acceptor molecule, acceptor atom, score
      L1  H    10    26       P1  8028  0.84
      L1  H    13    27       P1  8028  0.95

> <Gold.Chemscore.Hbond.Weighted>
-6.4639

> <Gold.Chemscore.Metal.Weighted>
-0.0000

> <Gold.Chemscore.Lipo.Weighted>
-9.7828

> <Gold.Chemscore.Internal_Hbond.Weighted>
0.0000

> <Gold.Chemscore.DEClash.Weighted>
0.8219

> <Gold.Chemscore.DEInternal.Weighted>
1.4806

> <Gold.Chemscore.Rot.Weighted>
3.0320

> <Gold.Chemscore.Internal.Correction.Weighted>
   9.000000E+99

> <Gold.Protein.RotatedTorsions>
[ 6907 6896 6895 6894 ] final  -82.91 input  -60.11 | X-H torsion
[ 7974 7965 7964 7962 ] final -151.19 input  175.53 | X-H torsion
[ 8008 7997 7996 7995 ] final  -45.67 input   59.86 | X-H torsion
[ 10167 10162 10161 10158 ] final  153.77 input  -65.29 | X-H torsion
[ 10718 10713 10712 10709 ] final   27.39 input   66.30 | X-H torsion
[ 10763 10752 10751 10750 ] final  -32.38 input  -60.55 | X-H torsion
[ 11005 11000 10999 10996 ] final  168.20 input  -57.11 | X-H torsion

> <Gold.Protein.ActiveResidues>
 VAL166  LYS551  ARG553  GLY616  TRP617  ASP618  TYR619  PRO620  LYS621  CYS622 
 ASP623  PHE694  ASN695  SER759  ASP760  ASP761  ALA762  ILE779  LEU786  VAL792 
 PHE793  MET794  SER795  GLU796  ALA797  LYS798  CYS799  TRP800  GLU811  SER814 

> <Gold.Protein.RotatedAtoms>
  150.6891  134.3593  159.4943 H   0  0  0  0  0  0  0  0  0  0  0  0  # atno 6907 bound_to 6896
  152.1424  134.9050  160.0562 H   0  0  0  0  0  0  0  0  0  0  0  0  # atno 6908 bound_to 6896
  152.0178  133.3852  159.4283 H   0  0  0  0  0  0  0  0  0  0  0  0  # atno 6909 bound_to 6896
  144.7864  140.4831  143.5803 H   0  0  0  0  0  0  0  0  0  0  0  0  # atno 7974 bound_to 7965
  154.4002  140.1391  156.3885 H   0  0  0  0  0  0  0  0  0  0  0  0  # atno 8008 bound_to 7997
  155.7937  140.3478  155.5343 H   0  0  0  0  0  0  0  0  0  0  0  0  # atno 8009 bound_to 7997
  155.8554  140.0948  157.1638 H   0  0  0  0  0  0  0  0  0  0  0  0  # atno 8010 bound_to 7997
  139.4826  144.5244  151.7824 H   0  0  0  0  0  0  0  0  0  0  0  0  # atno 10167 bound_to 10162
  157.2196  130.6972  149.6264 H   0  0  0  0  0  0  0  0  0  0  0  0  # atno 10718 bound_to 10713
  153.8129  135.6881  153.4838 H   0  0  0  0  0  0  0  0  0  0  0  0  # atno 10763 bound_to 10752
  153.1617  135.4577  154.9779 H   0  0  0  0  0  0  0  0  0  0  0  0  # atno 10764 bound_to 10752
  154.7960  135.3319  154.7608 H   0  0  0  0  0  0  0  0  0  0  0  0  # atno 10765 bound_to 10752
  140.2847  134.7721  157.3788 H   0  0  0  0  0  0  0  0  0  0  0  0  # atno 11005 bound_to 11000
  145.5911  139.1496  143.3182 LP  0  0  0  0  0  0  0  0  0  0  0  0  # atno 17320 bound_to 7965
  146.2097  140.6037  142.9065 LP  0  0  0  0  0  0  0  0  0  0  0  0  # atno 17321 bound_to 7965
  140.4763  144.1515  150.5925 LP  0  0  0  0  0  0  0  0  0  0  0  0  # atno 17342 bound_to 10162
  140.4327  143.2561  151.9574 LP  0  0  0  0  0  0  0  0  0  0  0  0  # atno 17343 bound_to 10162
  155.9683  130.4524  150.5773 LP  0  0  0  0  0  0  0  0  0  0  0  0  # atno 17370 bound_to 10713
  157.3589  131.0746  151.1652 LP  0  0  0  0  0  0  0  0  0  0  0  0  # atno 17371 bound_to 10713
  140.1250  134.5169  155.8152 LP  0  0  0  0  0  0  0  0  0  0  0  0  # atno 17394 bound_to 11000
  141.2157  133.6769  156.6936 LP  0  0  0  0  0  0  0  0  0  0  0  0  # atno 17395 bound_to 11000

$$$$
