AV-unprocessed.smi:21|AV-procd|sdf|154|dock6
  -GOLD-   2262015383D 1   1.00000     0.00000
 Structure written by MMmdl.
 61 64  0  0  0  0  0  0  0  0  1 V2000
  152.5681  144.4206  158.2163 C   0  0  0  0  0  0  0  0  0  0  0  0
  151.1979  144.2168  157.9110 O   0  0  0  0  0  0  0  0  0  0  0  0
  150.7295  142.9222  158.2599 C   0  0  2  0  0  0  0  0  0  0  0  0
  151.0579  141.8558  157.1983 C   0  0  0  0  0  0  0  0  0  0  0  0
  149.6889  141.3199  156.7481 C   0  0  1  0  0  0  0  0  0  0  0  0
  149.7194  139.8392  156.3084 C   0  0  0  0  0  0  0  0  0  0  0  0
  148.9009  139.5738  155.1252 N   0  0  0  0  0  0  0  0  0  0  0  0
  148.2784  140.7142  154.4545 C   0  0  0  0  0  0  0  0  0  0  0  0
  148.4164  138.3198  154.8809 C   0  0  0  0  0  0  0  0  0  0  0  0
  149.0302  137.2635  155.4816 N   0  0  0  0  0  0  0  0  0  0  0  0
  148.6120  136.0130  155.2740 C   0  0  0  0  0  0  0  0  0  0  0  0
  147.6043  135.5883  154.5135 N   0  0  0  0  0  0  0  0  0  0  0  0
  146.9715  136.6331  153.9098 C   0  0  0  0  0  0  0  0  0  0  0  0
  147.3028  138.0151  154.0356 C   0  0  0  0  0  0  0  0  0  0  0  0
  146.4139  138.7675  153.2727 N   0  0  0  0  0  0  0  0  0  0  0  0
  145.6167  137.8904  152.7296 C   0  0  0  0  0  0  0  0  0  0  0  0
  145.8778  136.5835  153.0634 N   0  0  0  0  0  0  0  0  0  0  0  0
  145.1476  135.4132  152.6104 C   0  0  0  0  0  0  0  0  0  0  0  0
  145.4601  135.0040  151.1467 C   0  0  2  0  0  0  0  0  0  0  0  0
  144.3640  135.4706  150.1540 C   0  0  0  0  0  0  0  0  0  0  0  0
  144.8884  136.3158  149.1501 O   0  0  0  0  0  0  0  0  0  0  0  0
  145.6801  133.4718  151.0486 C   0  0  2  0  0  0  0  0  0  0  0  0
  144.4600  132.6240  151.3695 C   0  0  0  0  0  0  0  0  0  0  0  0
  145.0823  131.2642  151.6556 C   0  0  0  0  0  0  0  0  0  0  0  0
  146.3096  131.5527  152.3104 O   0  0  0  0  0  0  0  0  0  0  0  0
  146.6927  132.9011  152.0525 C   0  0  0  0  0  0  0  0  0  0  0  0
  148.7928  141.6017  157.8579 N   0  0  0  0  0  0  0  0  0  0  0  0
  147.3816  141.5550  157.4986 C   0  0  0  0  0  0  0  0  0  0  0  0
  149.1996  142.9195  158.3034 C   0  0  0  0  0  0  0  0  0  0  0  0
  151.1149  142.6169  159.2345 H   0  0  0  0  0  0  0  0  0  0  0  0
  149.3711  141.9302  155.9011 H   0  0  0  0  0  0  0  0  0  0  0  0
  152.8593  145.4305  157.9287 H   0  0  0  0  0  0  0  0  0  0  0  0
  153.2100  143.7220  157.6787 H   0  0  0  0  0  0  0  0  0  0  0  0
  152.7524  144.3107  159.2857 H   0  0  0  0  0  0  0  0  0  0  0  0
  151.6149  142.2577  156.3512 H   0  0  0  0  0  0  0  0  0  0  0  0
  151.6624  141.0674  157.6483 H   0  0  0  0  0  0  0  0  0  0  0  0
  150.7509  139.5543  156.0984 H   0  0  0  0  0  0  0  0  0  0  0  0
  149.4154  139.1753  157.1146 H   0  0  0  0  0  0  0  0  0  0  0  0
  148.2933  140.5802  153.3722 H   0  0  0  0  0  0  0  0  0  0  0  0
  148.8074  141.6411  154.6761 H   0  0  0  0  0  0  0  0  0  0  0  0
  147.2433  140.8349  154.7760 H   0  0  0  0  0  0  0  0  0  0  0  0
  149.1658  135.2428  155.7903 H   0  0  0  0  0  0  0  0  0  0  0  0
  144.8067  138.1743  152.0736 H   0  0  0  0  0  0  0  0  0  0  0  0
  145.3889  134.6011  153.2961 H   0  0  0  0  0  0  0  0  0  0  0  0
  144.0800  135.6035  152.7260 H   0  0  0  0  0  0  0  0  0  0  0  0
  146.3982  135.4815  150.8586 H   0  0  0  0  0  0  0  0  0  0  0  0
  143.9111  134.6266  149.6359 H   0  0  0  0  0  0  0  0  0  0  0  0
  143.5568  135.9819  150.6796 H   0  0  0  0  0  0  0  0  0  0  0  0
  144.6267  137.2045  149.3372 H   0  0  0  0  0  0  0  0  0  0  0  0
  146.0125  133.2196  150.0401 H   0  0  0  0  0  0  0  0  0  0  0  0
  143.9547  132.9994  152.2606 H   0  0  0  0  0  0  0  0  0  0  0  0
  143.7356  132.5827  150.5556 H   0  0  0  0  0  0  0  0  0  0  0  0
  144.4410  130.6275  152.2656 H   0  0  0  0  0  0  0  0  0  0  0  0
  145.2965  130.7393  150.7238 H   0  0  0  0  0  0  0  0  0  0  0  0
  147.7148  132.9425  151.6761 H   0  0  0  0  0  0  0  0  0  0  0  0
  146.6600  133.4480  152.9956 H   0  0  0  0  0  0  0  0  0  0  0  0
  146.7600  141.8316  158.3507 H   0  0  0  0  0  0  0  0  0  0  0  0
  147.0886  140.5515  157.1908 H   0  0  0  0  0  0  0  0  0  0  0  0
  147.1582  142.2403  156.6798 H   0  0  0  0  0  0  0  0  0  0  0  0
  148.8118  143.1478  159.2966 H   0  0  0  0  0  0  0  0  0  0  0  0
  148.8160  143.6759  157.6161 H   0  0  0  0  0  0  0  0  0  0  0  0
  1  2  1  0  0  0  0
  1 32  1  0  0  0  0
  1 33  1  0  0  0  0
  1 34  1  0  0  0  0
  2  3  1  0  0  0  0
  3 30  1  0  0  0  0
  3 29  1  0  0  0  0
  3  4  1  0  0  0  0
  4  5  1  0  0  0  0
  4 35  1  0  0  0  0
  4 36  1  0  0  0  0
  5 31  1  0  0  0  0
  5  6  1  0  0  0  0
  5 27  1  0  0  0  0
  6  7  1  0  0  0  0
  6 37  1  0  0  0  0
  6 38  1  0  0  0  0
  7  8  1  0  0  0  0
  7  9  1  0  0  0  0
  8 39  1  0  0  0  0
  8 40  1  0  0  0  0
  8 41  1  0  0  0  0
  9 14  1  0  0  0  0
  9 10  2  0  0  0  0
 10 11  1  0  0  0  0
 11 12  2  0  0  0  0
 11 42  1  0  0  0  0
 12 13  1  0  0  0  0
 13 17  1  0  0  0  0
 13 14  2  0  0  0  0
 14 15  1  0  0  0  0
 15 16  2  0  0  0  0
 16 17  1  0  0  0  0
 16 43  1  0  0  0  0
 17 18  1  0  0  0  0
 18 19  1  0  0  0  0
 18 44  1  0  0  0  0
 18 45  1  0  0  0  0
 19 20  1  0  0  0  0
 19 22  1  0  0  0  0
 19 46  1  0  0  0  0
 20 21  1  0  0  0  0
 20 47  1  0  0  0  0
 20 48  1  0  0  0  0
 21 49  1  0  0  0  0
 22 26  1  0  0  0  0
 22 23  1  0  0  0  0
 22 50  1  0  0  0  0
 23 24  1  0  0  0  0
 23 51  1  0  0  0  0
 23 52  1  0  0  0  0
 24 25  1  0  0  0  0
 24 53  1  0  0  0  0
 24 54  1  0  0  0  0
 25 26  1  0  0  0  0
 26 55  1  0  0  0  0
 26 56  1  0  0  0  0
 27 28  1  0  0  0  0
 27 29  1  0  0  0  0
 28 57  1  0  0  0  0
 28 58  1  0  0  0  0
 28 59  1  0  0  0  0
 29 60  1  0  0  0  0
 29 61  1  0  0  0  0
M  END
> <s_m_source_file>
AV-unprocessed.smi

> <i_m_source_file_index>
21

> <i_lp_mmshare_version>
43012

> <i_f3d_flags>
0

> <s_epik_input>
W0NIM11PW0NASF0xW0NIMl1bQ0BIXShOKFtDSDNdKVtDSDJdMSlbQ0gyXU4oW0NIM10pYyhuW2NIXW4yKWMoYzIzKW5bY0hdbjNbQ0gyXVtDQEhdKFtDSDJdW09IXSlbQ0BASF00W0NIMl1bQ0gyXU9bQ0gyXTQ=

> <s_epik_cmdline>
J2VwaWtfcHl0aG9uJywgJy1waCcsICc3LjAnLCAnLXRuJywgJzgnLCAnLW1hJywgJzIwMCcsICctbWV0YWxfYmluZGluZycsICctaW1hZScsICc8aW5maWxlLm1hZT4nLCAnLW9tYWUnLCAnPG91dGZpbGUubWFlPic=

> <r_lp_tautomer_probability>
1

> <r_epik_Ionization_Penalty>
2.17574

> <r_epik_Ionization_Penalty_Charging>
0

> <r_epik_Ionization_Penalty_Neutral>
2.17574

> <r_epik_State_Penalty>
2.31336

> <r_epik_Charging_Adjusted_Penalty>
2.31336

> <i_epik_Tot_Q>
0

> <i_epik_Tot_abs_Q>
0

> <r_epik_Metal_State_Penalty>
2.31025

> <b_epik_Metal_Only>
0

> <s_lp_Force_Field>
OPLS_2005

> <r_lp_Energy>
69.0307

> <b_lp_Chiralities_Consistent>
1

> <s_lp_Variant>
AV-unprocessed.smi:21-34

> <Gold.Version>
5.8.1

> <Gold.Id.Protein>
6NUR|6NUR_protein|mol2

> <Gold.PLP.Fitness>
40.0168

> <Gold.PLP.PLP>
-36.8238

> <Gold.PLP.part.hbond>
-1.7107

> <Gold.PLP.part.metal>
0.0000

> <Gold.PLP.part.buried>
-4.9492

> <Gold.PLP.part.nonpolar>
-31.5620

> <Gold.PLP.part.repulsive>
1.0717

> <Gold.PLP.ligand.clash>
0.0000

> <Gold.PLP.ligand.torsion>
2.6099

> <Gold.PLP.Chemscore.Hbond>
1.0000

> <Gold.PLP.Chemscore.CHOScore>
1.6848

> <Gold.PLP.Chemscore.Metal>
0.0000

> <Gold.Chemscore.Hbonds>
donor molecule, donor type, donor heavy atom, donor atom, acceptor molecule, acceptor atom, score
      L1  H    21    49       P1 10171  1.00
      L1  C    16    43       P1 10171  1.00
      L1  C    16    43       P1 10175  0.71

> <Gold.PLP.Chemscore.Internal.Correction>
0.3583

> <Gold.Rescore>
     Score         DG    S(hbond)    S(metal)    S(lipo)     H(rot)  DE(clash)    DE(int)     intcor
      8.05     -12.07       1.00        0.00      93.64       3.00       0.28       3.74       ----

> <Gold.Chemscore.Fitness>
8.0536

> <Gold.Chemscore.DG>
-12.0722

> <Gold.Chemscore.ZeroCoef>
-5.4800

> <Gold.Chemscore.Hbond>
0.9954

> <Gold.Chemscore.Metal>
0.0000

> <Gold.Chemscore.Lipo>
93.6368

> <Gold.Chemscore.Internal_Hbond>
0.0000

> <Gold.Chemscore.DEClash>
0.2774

> <Gold.Chemscore.DEInternal>
3.7412

> <Gold.Chemscore.Rot>
3.0031

> <Gold.Chemscore.Internal.Correction>
   9.000000E+99

> <Gold.Chemscore.Hbonds>
donor molecule, donor type, donor heavy atom, donor atom, acceptor molecule, acceptor atom, score
      L1  H    21    49       P1 10171  0.99

> <Gold.Chemscore.Hbond.Weighted>
-3.3247

> <Gold.Chemscore.Metal.Weighted>
-0.0000

> <Gold.Chemscore.Lipo.Weighted>
-10.9555

> <Gold.Chemscore.Internal_Hbond.Weighted>
0.0000

> <Gold.Chemscore.DEClash.Weighted>
0.2774

> <Gold.Chemscore.DEInternal.Weighted>
3.7412

> <Gold.Chemscore.Rot.Weighted>
7.6880

> <Gold.Chemscore.Internal.Correction.Weighted>
   9.000000E+99

> <Gold.Protein.RotatedTorsions>
[ 6907 6896 6895 6894 ] final   72.54 input  -60.11 | X-H torsion
[ 7974 7965 7964 7962 ] final -142.17 input  175.53 | X-H torsion
[ 8008 7997 7996 7995 ] final -129.71 input   59.86 | X-H torsion
[ 10167 10162 10161 10158 ] final -121.85 input  -65.29 | X-H torsion
[ 10718 10713 10712 10709 ] final  133.23 input   66.30 | X-H torsion
[ 10763 10752 10751 10750 ] final   28.29 input  -60.55 | X-H torsion
[ 11005 11000 10999 10996 ] final   61.77 input  -57.11 | X-H torsion

> <Gold.Protein.ActiveResidues>
 VAL166  LYS551  ARG553  GLY616  TRP617  ASP618  TYR619  PRO620  LYS621  CYS622 
 ASP623  PHE694  ASN695  SER759  ASP760  ASP761  ALA762  ILE779  LEU786  VAL792 
 PHE793  MET794  SER795  GLU796  ALA797  LYS798  CYS799  TRP800  GLU811  SER814 

> <Gold.Protein.RotatedAtoms>
  152.4873  134.4556  159.9588 H   0  0  0  0  0  0  0  0  0  0  0  0  # atno 6907 bound_to 6896
  151.4550  133.3601  159.2808 H   0  0  0  0  0  0  0  0  0  0  0  0  # atno 6908 bound_to 6896
  150.8995  134.8431  159.7411 H   0  0  0  0  0  0  0  0  0  0  0  0  # atno 6909 bound_to 6896
  144.8464  140.5991  143.5419 H   0  0  0  0  0  0  0  0  0  0  0  0  # atno 7974 bound_to 7965
  155.2837  140.0445  157.3017 H   0  0  0  0  0  0  0  0  0  0  0  0  # atno 8008 bound_to 7997
  154.5581  140.2338  155.8346 H   0  0  0  0  0  0  0  0  0  0  0  0  # atno 8009 bound_to 7997
  156.2025  140.3022  155.9563 H   0  0  0  0  0  0  0  0  0  0  0  0  # atno 8010 bound_to 7997
  140.0206  143.5348  152.2222 H   0  0  0  0  0  0  0  0  0  0  0  0  # atno 10167 bound_to 10162
  157.4793  131.1085  150.9702 H   0  0  0  0  0  0  0  0  0  0  0  0  # atno 10718 bound_to 10713
  153.0501  135.6517  154.0715 H   0  0  0  0  0  0  0  0  0  0  0  0  # atno 10763 bound_to 10752
  154.0405  135.2904  155.3357 H   0  0  0  0  0  0  0  0  0  0  0  0  # atno 10764 bound_to 10752
  154.6784  135.5329  153.8297 H   0  0  0  0  0  0  0  0  0  0  0  0  # atno 10765 bound_to 10752
  140.0138  134.6256  155.9741 H   0  0  0  0  0  0  0  0  0  0  0  0  # atno 11005 bound_to 11000
  145.4589  139.1515  143.3877 LP  0  0  0  0  0  0  0  0  0  0  0  0  # atno 17320 bound_to 7965
  146.2747  140.4718  142.8800 LP  0  0  0  0  0  0  0  0  0  0  0  0  # atno 17321 bound_to 7965
  139.6142  144.7616  151.2883 LP  0  0  0  0  0  0  0  0  0  0  0  0  # atno 17342 bound_to 10162
  140.7344  143.6767  150.8035 LP  0  0  0  0  0  0  0  0  0  0  0  0  # atno 17343 bound_to 10162
  157.0440  130.5760  149.5360 LP  0  0  0  0  0  0  0  0  0  0  0  0  # atno 17370 bound_to 10713
  156.0113  130.5205  150.7998 LP  0  0  0  0  0  0  0  0  0  0  0  0  # atno 17371 bound_to 10713
  141.1729  133.6538  156.4718 LP  0  0  0  0  0  0  0  0  0  0  0  0  # atno 17394 bound_to 11000
  140.4507  134.6931  157.5038 LP  0  0  0  0  0  0  0  0  0  0  0  0  # atno 17395 bound_to 11000

$$$$
