AV-unprocessed.smi:212|AV-procd|sdf|1622|dock2
  -GOLD-   2262019563D 1   1.00000     0.00000
 Structure written by MMmdl.
 65 68  0  0  0  0  0  0  0  0  2 V2000
  145.3261  135.2117  155.8046 C   0  0  0  0  0  0  0  0  0  0  0  0
  146.2355  135.9926  154.8409 C   0  0  1  0  0  0  0  0  0  0  0  0
  146.7166  135.1229  153.6592 C   0  0  0  0  0  0  0  0  0  0  0  0
  145.6239  134.8613  152.6859 N   0  3  2  0  0  0  0  0  0  0  0  0
  146.0215  133.9312  151.5960 C   0  0  0  0  0  0  0  0  0  0  0  0
  144.8261  133.4963  150.7157 C   0  0  0  0  0  0  0  0  0  0  0  0
  145.1599  132.1856  149.9841 C   0  0  0  0  0  0  0  0  0  0  0  0
  143.5286  133.3370  151.5298 C   0  0  0  0  0  0  0  0  0  0  0  0
  144.6057  134.4693  149.7140 O   0  0  0  0  0  0  0  0  0  0  0  0
  145.0044  136.1172  152.1896 C   0  0  0  0  0  0  0  0  0  0  0  0
  144.5172  136.9922  153.3587 C   0  0  0  0  0  0  0  0  0  0  0  0
  145.5796  137.2039  154.3430 N   0  0  0  0  0  0  0  0  0  0  0  0
  146.3701  138.3032  154.2258 C   0  0  0  0  0  0  0  0  0  0  0  0
  146.4293  138.9742  153.0446 N   0  0  0  0  0  0  0  0  0  0  0  0
  147.2113  140.0499  152.9164 C   0  0  0  0  0  0  0  0  0  0  0  0
  147.9997  140.6206  153.8283 N   0  0  0  0  0  0  0  0  0  0  0  0
  147.9376  139.9602  155.0195 C   0  0  0  0  0  0  0  0  0  0  0  0
  147.1595  138.8017  155.3008 C   0  0  0  0  0  0  0  0  0  0  0  0
  147.3493  138.4145  156.6225 N   0  0  0  0  0  0  0  0  0  0  0  0
  148.1923  139.2922  157.0947 C   0  0  0  0  0  0  0  0  0  0  0  0
  148.5881  140.2631  156.2028 N   0  0  0  0  0  0  0  0  0  0  0  0
  149.5021  141.3617  156.4661 C   0  0  0  0  0  0  0  0  0  0  0  0
  150.8633  140.9039  157.0468 C   0  0  1  0  0  0  0  0  0  0  0  0
  151.7332  140.2584  155.9419 C   0  0  0  0  0  0  0  0  0  0  0  0
  152.7731  139.4911  156.5122 O   0  0  0  0  0  0  0  0  0  0  0  0
  151.5935  142.0294  157.8344 C   0  0  2  0  0  0  0  0  0  0  0  0
  152.6731  141.5650  158.8095 C   0  0  0  0  0  0  0  0  0  0  0  0
  152.5937  142.6030  159.9201 C   0  0  0  0  0  0  0  0  0  0  0  0
  151.2001  142.8408  160.0182 O   0  0  0  0  0  0  0  0  0  0  0  0
  150.6840  142.9245  158.6958 C   0  0  0  0  0  0  0  0  0  0  0  0
  145.8469  134.3471  156.2163 H   0  0  0  0  0  0  0  0  0  0  0  0
  144.4236  134.8471  155.3139 H   0  0  0  0  0  0  0  0  0  0  0  0
  145.0200  135.8384  156.6430 H   0  0  0  0  0  0  0  0  0  0  0  0
  147.1243  136.2647  155.4101 H   0  0  0  0  0  0  0  0  0  0  0  0
  147.5344  135.6269  153.1415 H   0  0  0  0  0  0  0  0  0  0  0  0
  147.1162  134.1799  154.0347 H   0  0  0  0  0  0  0  0  0  0  0  0
  146.8079  134.3790  150.9858 H   0  0  0  0  0  0  0  0  0  0  0  0
  146.4687  133.0337  152.0262 H   0  0  0  0  0  0  0  0  0  0  0  0
  145.3382  131.3738  150.6903 H   0  0  0  0  0  0  0  0  0  0  0  0
  146.0554  132.2877  149.3695 H   0  0  0  0  0  0  0  0  0  0  0  0
  144.3459  131.8751  149.3280 H   0  0  0  0  0  0  0  0  0  0  0  0
  143.6535  132.6052  152.3287 H   0  0  0  0  0  0  0  0  0  0  0  0
  142.7053  132.9975  150.9001 H   0  0  0  0  0  0  0  0  0  0  0  0
  143.2174  134.2763  151.9887 H   0  0  0  0  0  0  0  0  0  0  0  0
  145.3283  134.4446  149.1045 H   0  0  0  0  0  0  0  0  0  0  0  0
  145.7318  136.6633  151.5876 H   0  0  0  0  0  0  0  0  0  0  0  0
  144.1641  135.8900  151.5341 H   0  0  0  0  0  0  0  0  0  0  0  0
  144.1289  137.9428  152.9906 H   0  0  0  0  0  0  0  0  0  0  0  0
  143.6790  136.5048  153.8566 H   0  0  0  0  0  0  0  0  0  0  0  0
  147.2037  140.5214  151.9447 H   0  0  0  0  0  0  0  0  0  0  0  0
  148.5437  139.2623  158.1161 H   0  0  0  0  0  0  0  0  0  0  0  0
  149.6493  141.9008  155.5296 H   0  0  0  0  0  0  0  0  0  0  0  0
  149.0198  142.0618  157.1491 H   0  0  0  0  0  0  0  0  0  0  0  0
  150.6512  140.1234  157.7795 H   0  0  0  0  0  0  0  0  0  0  0  0
  151.1381  139.6112  155.2975 H   0  0  0  0  0  0  0  0  0  0  0  0
  152.1920  141.0091  155.2999 H   0  0  0  0  0  0  0  0  0  0  0  0
  152.3922  138.7364  156.9350 H   0  0  0  0  0  0  0  0  0  0  0  0
  152.0694  142.7015  157.1196 H   0  0  0  0  0  0  0  0  0  0  0  0
  152.4472  140.5832  159.2232 H   0  0  0  0  0  0  0  0  0  0  0  0
  153.6626  141.5156  158.3557 H   0  0  0  0  0  0  0  0  0  0  0  0
  153.0115  142.2476  160.8621 H   0  0  0  0  0  0  0  0  0  0  0  0
  153.1074  143.5233  159.6364 H   0  0  0  0  0  0  0  0  0  0  0  0
  150.7430  143.9601  158.3574 H   0  0  0  0  0  0  0  0  0  0  0  0
  149.6331  142.6373  158.6741 H   0  0  0  0  0  0  0  0  0  0  0  0
  144.9058  134.3791  153.2074 H   0  0  0  0  0  0  0  0  0  0  0  0
  1  2  1  0  0  0  0
  1 31  1  0  0  0  0
  1 32  1  0  0  0  0
  1 33  1  0  0  0  0
  2 12  1  0  0  0  0
  2  3  1  0  0  0  0
  2 34  1  0  0  0  0
  3  4  1  0  0  0  0
  3 35  1  0  0  0  0
  3 36  1  0  0  0  0
  4  5  1  0  0  0  0
  4 10  1  0  0  0  0
  4 65  1  0  0  0  0
  5  6  1  0  0  0  0
  5 37  1  0  0  0  0
  5 38  1  0  0  0  0
  6  7  1  0  0  0  0
  6  8  1  0  0  0  0
  6  9  1  0  0  0  0
  7 39  1  0  0  0  0
  7 40  1  0  0  0  0
  7 41  1  0  0  0  0
  8 42  1  0  0  0  0
  8 43  1  0  0  0  0
  8 44  1  0  0  0  0
  9 45  1  0  0  0  0
 10 11  1  0  0  0  0
 10 46  1  0  0  0  0
 10 47  1  0  0  0  0
 11 12  1  0  0  0  0
 11 48  1  0  0  0  0
 11 49  1  0  0  0  0
 12 13  1  0  0  0  0
 13 18  1  0  0  0  0
 13 14  2  0  0  0  0
 14 15  1  0  0  0  0
 15 16  2  0  0  0  0
 15 50  1  0  0  0  0
 16 17  1  0  0  0  0
 17 21  1  0  0  0  0
 17 18  2  0  0  0  0
 18 19  1  0  0  0  0
 19 20  2  0  0  0  0
 20 21  1  0  0  0  0
 20 51  1  0  0  0  0
 21 22  1  0  0  0  0
 22 23  1  0  0  0  0
 22 52  1  0  0  0  0
 22 53  1  0  0  0  0
 23 24  1  0  0  0  0
 23 26  1  0  0  0  0
 23 54  1  0  0  0  0
 24 25  1  0  0  0  0
 24 55  1  0  0  0  0
 24 56  1  0  0  0  0
 25 57  1  0  0  0  0
 26 30  1  0  0  0  0
 26 27  1  0  0  0  0
 26 58  1  0  0  0  0
 27 28  1  0  0  0  0
 27 59  1  0  0  0  0
 27 60  1  0  0  0  0
 28 29  1  0  0  0  0
 28 61  1  0  0  0  0
 28 62  1  0  0  0  0
 29 30  1  0  0  0  0
 30 63  1  0  0  0  0
 30 64  1  0  0  0  0
M  CHG  1   4   1
M  END
> <s_m_source_file>
AV-unprocessed.smi

> <i_m_source_file_index>
212

> <i_lp_mmshare_version>
43012

> <i_f3d_flags>
0

> <s_epik_input>
W0NIM11bQ0BASF0xW0NIMl1OKFtDSDJdQyhbQ0gzXSkoW0NIM10pW09IXSlbQ0gyXVtDSDJdTjFjKG5bY0hdbjIpYyhjMjMpbltjSF1uM1tDSDJdW0NASF0oW0NIMl1bT0hdKVtDQEBIXTRbQ0gyXVtDSDJdT1tDSDJdNA==

> <s_epik_cmdline>
J2VwaWtfcHl0aG9uJywgJy1waCcsICc3LjAnLCAnLXRuJywgJzgnLCAnLW1hJywgJzIwMCcsICctbWV0YWxfYmluZGluZycsICctaW1hZScsICc8aW5maWxlLm1hZT4nLCAnLW9tYWUnLCAnPG91dGZpbGUubWFlPic=

> <r_lp_tautomer_probability>
1

> <r_epik_Ionization_Penalty>
0.00182193

> <r_epik_Ionization_Penalty_Charging>
0.00173996

> <r_epik_Ionization_Penalty_Neutral>
8.19718e-05

> <r_epik_State_Penalty>
-0

> <r_epik_Charging_Adjusted_Penalty>
0.00173996

> <i_epik_Tot_Q>
1

> <i_epik_Tot_abs_Q>
1

> <r_epik_Metal_State_Penalty>
-0

> <b_epik_Metal_Only>
0

> <s_lp_Force_Field>
OPLS_2005

> <r_lp_Energy>
60.7413

> <b_lp_Chiralities_Consistent>
1

> <s_lp_Variant>
AV-unprocessed.smi:212-6

> <Gold.Version>
5.8.1

> <Gold.Id.Protein>
6NUR|6NUR_protein|mol2

> <Gold.PLP.Fitness>
42.9340

> <Gold.PLP.PLP>
-37.4187

> <Gold.PLP.part.hbond>
-3.0000

> <Gold.PLP.part.metal>
0.0000

> <Gold.PLP.part.buried>
-6.2942

> <Gold.PLP.part.nonpolar>
-28.7711

> <Gold.PLP.part.repulsive>
0.4263

> <Gold.PLP.ligand.clash>
0.0000

> <Gold.PLP.ligand.torsion>
1.5344

> <Gold.PLP.Chemscore.Hbond>
2.0000

> <Gold.PLP.Chemscore.CHOScore>
0.4588

> <Gold.PLP.Chemscore.Metal>
0.0000

> <Gold.Chemscore.Hbonds>
donor molecule, donor type, donor heavy atom, donor atom, acceptor molecule, acceptor atom, score
      L1  H     9    45       P1  7921  1.00
      P1  H  7997  8010       L1    25  1.00
      L1  C    15    50       P1  7957  0.43

> <Gold.PLP.Chemscore.Internal.Correction>
1.2077

> <Gold.Rescore>
     Score         DG    S(hbond)    S(metal)    S(lipo)     H(rot)  DE(clash)    DE(int)     intcor
     12.28     -14.18       1.98        0.00      92.34       3.40       0.12       1.78       ----

> <Gold.Chemscore.Fitness>
12.2807

> <Gold.Chemscore.DG>
-14.1820

> <Gold.Chemscore.ZeroCoef>
-5.4800

> <Gold.Chemscore.Hbond>
1.9757

> <Gold.Chemscore.Metal>
0.0000

> <Gold.Chemscore.Lipo>
92.3377

> <Gold.Chemscore.Internal_Hbond>
0.0000

> <Gold.Chemscore.DEClash>
0.1222

> <Gold.Chemscore.DEInternal>
1.7791

> <Gold.Chemscore.Rot>
3.3986

> <Gold.Chemscore.Internal.Correction>
   9.000000E+99

> <Gold.Chemscore.Hbonds>
donor molecule, donor type, donor heavy atom, donor atom, acceptor molecule, acceptor atom, score
      L1  H     9    45       P1  7921  0.97
      P1  H  7997  8010       L1    25  0.94

> <Gold.Chemscore.Hbond.Weighted>
-6.5990

> <Gold.Chemscore.Metal.Weighted>
-0.0000

> <Gold.Chemscore.Lipo.Weighted>
-10.8035

> <Gold.Chemscore.Internal_Hbond.Weighted>
0.0000

> <Gold.Chemscore.DEClash.Weighted>
0.1222

> <Gold.Chemscore.DEInternal.Weighted>
1.7791

> <Gold.Chemscore.Rot.Weighted>
8.7005

> <Gold.Chemscore.Internal.Correction.Weighted>
   9.000000E+99

> <Gold.Protein.RotatedTorsions>
[ 6907 6896 6895 6894 ] final -116.95 input  -60.11 | X-H torsion
[ 7974 7965 7964 7962 ] final  101.42 input  175.53 | X-H torsion
[ 8008 7997 7996 7995 ] final   74.24 input   59.86 | X-H torsion
[ 10167 10162 10161 10158 ] final  121.60 input  -65.29 | X-H torsion
[ 10718 10713 10712 10709 ] final   23.24 input   66.30 | X-H torsion
[ 10763 10752 10751 10750 ] final  -53.98 input  -60.55 | X-H torsion
[ 11005 11000 10999 10996 ] final  -10.11 input  -57.11 | X-H torsion

> <Gold.Protein.ActiveResidues>
 VAL166  LYS551  ARG553  GLY616  TRP617  ASP618  TYR619  PRO620  LYS621  CYS622 
 ASP623  PHE694  ASN695  SER759  ASP760  ASP761  ALA762  ILE779  LEU786  VAL792 
 PHE793  MET794  SER795  GLU796  ALA797  LYS798  CYS799  TRP800  GLU811  SER814 

> <Gold.Protein.RotatedAtoms>
  150.8097  133.8445  159.3188 H   0  0  0  0  0  0  0  0  0  0  0  0  # atno 6907 bound_to 6896
  151.6234  135.1028  160.0116 H   0  0  0  0  0  0  0  0  0  0  0  0  # atno 6908 bound_to 6896
  152.4188  133.7042  159.6498 H   0  0  0  0  0  0  0  0  0  0  0  0  # atno 6909 bound_to 6896
  145.3726  139.2395  143.3447 H   0  0  0  0  0  0  0  0  0  0  0  0  # atno 7974 bound_to 7965
  155.7955  140.3478  155.5373 H   0  0  0  0  0  0  0  0  0  0  0  0  # atno 8008 bound_to 7997
  155.8591  140.0968  157.1646 H   0  0  0  0  0  0  0  0  0  0  0  0  # atno 8009 bound_to 7997
  154.4011  140.1362  156.3925 H   0  0  0  0  0  0  0  0  0  0  0  0  # atno 8010 bound_to 7997
  139.5910  144.7025  151.3291 H   0  0  0  0  0  0  0  0  0  0  0  0  # atno 10167 bound_to 10162
  157.1634  130.6727  149.6052 H   0  0  0  0  0  0  0  0  0  0  0  0  # atno 10718 bound_to 10713
  154.1675  135.6464  153.5001 H   0  0  0  0  0  0  0  0  0  0  0  0  # atno 10763 bound_to 10752
  153.0093  135.5375  154.6647 H   0  0  0  0  0  0  0  0  0  0  0  0  # atno 10764 bound_to 10752
  154.5977  135.2940  155.0540 H   0  0  0  0  0  0  0  0  0  0  0  0  # atno 10765 bound_to 10752
  140.7413  133.8668  155.8970 H   0  0  0  0  0  0  0  0  0  0  0  0  # atno 11005 bound_to 11000
  146.2878  140.4379  142.8751 LP  0  0  0  0  0  0  0  0  0  0  0  0  # atno 17320 bound_to 7965
  144.8565  140.7078  143.6134 LP  0  0  0  0  0  0  0  0  0  0  0  0  # atno 17321 bound_to 7965
  140.7173  143.7232  150.7679 LP  0  0  0  0  0  0  0  0  0  0  0  0  # atno 17342 bound_to 10162
  140.0788  143.4989  152.2541 LP  0  0  0  0  0  0  0  0  0  0  0  0  # atno 17343 bound_to 10162
  155.9750  130.4704  150.6428 LP  0  0  0  0  0  0  0  0  0  0  0  0  # atno 17370 bound_to 10713
  157.4111  131.0824  151.1220 LP  0  0  0  0  0  0  0  0  0  0  0  0  # atno 17371 bound_to 10713
  140.9834  134.1375  157.4474 LP  0  0  0  0  0  0  0  0  0  0  0  0  # atno 17394 bound_to 11000
  139.8805  135.0018  156.6087 LP  0  0  0  0  0  0  0  0  0  0  0  0  # atno 17395 bound_to 11000

$$$$
