AV-unprocessed.smi:2610|AV-procd|sdf|10208|dock7
  -GOLD-   2272014213D 1   1.00000     0.00000
 Structure written by MMmdl.
 45 47  0  0  0  0  0  0  0  0  1 V2000
  146.7942  140.7373  154.6609 C   0  0  0  0  0  0  0  0  0  0  0  0
  148.0990  140.8972  153.8734 C   0  0  0  0  0  0  0  0  0  0  0  0
  149.2039  141.5730  154.6973 C   0  0  0  0  0  0  0  0  0  0  0  0
  149.8720  140.6095  155.6890 C   0  0  0  0  0  0  0  0  0  0  0  0
  150.6703  141.3287  156.7359 C   0  0  0  0  0  0  0  0  0  0  0  0
  150.9116  142.6366  156.6436 N   0  0  0  0  0  0  0  0  0  0  0  0
  151.5833  142.9068  157.8183 C   0  0  0  0  0  0  0  0  0  0  0  0
  152.1044  144.1222  158.3164 C   0  0  0  0  0  0  0  0  0  0  0  0
  152.7434  144.1633  159.5726 C   0  0  0  0  0  0  0  0  0  0  0  0
  152.8672  142.9928  160.3480 C   0  0  0  0  0  0  0  0  0  0  0  0
  152.3573  141.7711  159.8686 C   0  0  0  0  0  0  0  0  0  0  0  0
  151.7281  141.7318  158.6090 C   0  0  0  0  0  0  0  0  0  0  0  0
  151.1397  140.7177  157.8556 N   0  0  0  0  0  0  0  0  0  0  0  0
  151.0293  139.3108  158.2354 C   0  0  0  0  0  0  0  0  0  0  0  0
  152.3621  138.5153  158.1810 C   0  0  0  0  0  0  0  0  0  0  0  0
  153.2414  139.1715  157.2854 O   0  0  0  0  0  0  0  0  0  0  0  0
  153.0642  138.4191  159.5528 C   0  0  0  0  0  0  0  0  0  0  0  0
  154.2664  137.4588  159.5240 C   0  0  0  0  0  0  0  0  0  0  0  0
  153.8558  136.1770  159.0644 O   0  0  0  0  0  0  0  0  0  0  0  0
  153.3630  136.2032  157.7306 C   0  0  0  0  0  0  0  0  0  0  0  0
  152.1077  137.0904  157.6479 C   0  0  0  0  0  0  0  0  0  0  0  0
  146.0311  140.2510  154.0530 H   0  0  0  0  0  0  0  0  0  0  0  0
  146.4027  141.7051  154.9757 H   0  0  0  0  0  0  0  0  0  0  0  0
  146.9449  140.1298  155.5538 H   0  0  0  0  0  0  0  0  0  0  0  0
  148.4390  139.9160  153.5404 H   0  0  0  0  0  0  0  0  0  0  0  0
  147.9062  141.4797  152.9718 H   0  0  0  0  0  0  0  0  0  0  0  0
  149.9582  141.9852  154.0256 H   0  0  0  0  0  0  0  0  0  0  0  0
  148.7815  142.4179  155.2426 H   0  0  0  0  0  0  0  0  0  0  0  0
  149.1213  139.9739  156.1543 H   0  0  0  0  0  0  0  0  0  0  0  0
  150.5389  139.9351  155.1504 H   0  0  0  0  0  0  0  0  0  0  0  0
  152.0079  145.0255  157.7324 H   0  0  0  0  0  0  0  0  0  0  0  0
  153.1359  145.0982  159.9451 H   0  0  0  0  0  0  0  0  0  0  0  0
  153.3532  143.0333  161.3119 H   0  0  0  0  0  0  0  0  0  0  0  0
  152.4488  140.8763  160.4650 H   0  0  0  0  0  0  0  0  0  0  0  0
  150.6200  139.2691  159.2456 H   0  0  0  0  0  0  0  0  0  0  0  0
  150.2795  138.8343  157.6035 H   0  0  0  0  0  0  0  0  0  0  0  0
  152.7664  139.3766  156.4947 H   0  0  0  0  0  0  0  0  0  0  0  0
  153.3896  139.4022  159.8942 H   0  0  0  0  0  0  0  0  0  0  0  0
  152.3547  138.0515  160.2943 H   0  0  0  0  0  0  0  0  0  0  0  0
  155.0662  137.8465  158.8912 H   0  0  0  0  0  0  0  0  0  0  0  0
  154.6819  137.3543  160.5264 H   0  0  0  0  0  0  0  0  0  0  0  0
  154.1400  136.5547  157.0501 H   0  0  0  0  0  0  0  0  0  0  0  0
  153.1184  135.1847  157.4286 H   0  0  0  0  0  0  0  0  0  0  0  0
  151.3160  136.6217  158.2340 H   0  0  0  0  0  0  0  0  0  0  0  0
  151.7444  137.1262  156.6199 H   0  0  0  0  0  0  0  0  0  0  0  0
  1  2  1  0  0  0  0
  1 22  1  0  0  0  0
  1 23  1  0  0  0  0
  1 24  1  0  0  0  0
  2  3  1  0  0  0  0
  2 25  1  0  0  0  0
  2 26  1  0  0  0  0
  3  4  1  0  0  0  0
  3 27  1  0  0  0  0
  3 28  1  0  0  0  0
  4  5  1  0  0  0  0
  4 29  1  0  0  0  0
  4 30  1  0  0  0  0
  5 13  1  0  0  0  0
  5  6  2  0  0  0  0
  6  7  1  0  0  0  0
  7 12  2  0  0  0  0
  7  8  1  0  0  0  0
  8  9  2  0  0  0  0
  8 31  1  0  0  0  0
  9 10  1  0  0  0  0
  9 32  1  0  0  0  0
 10 11  2  0  0  0  0
 10 33  1  0  0  0  0
 11 12  1  0  0  0  0
 11 34  1  0  0  0  0
 12 13  1  0  0  0  0
 13 14  1  0  0  0  0
 14 15  1  0  0  0  0
 14 35  1  0  0  0  0
 14 36  1  0  0  0  0
 15 21  1  0  0  0  0
 15 16  1  0  0  0  0
 15 17  1  0  0  0  0
 16 37  1  0  0  0  0
 17 18  1  0  0  0  0
 17 38  1  0  0  0  0
 17 39  1  0  0  0  0
 18 19  1  0  0  0  0
 18 40  1  0  0  0  0
 18 41  1  0  0  0  0
 19 20  1  0  0  0  0
 20 21  1  0  0  0  0
 20 42  1  0  0  0  0
 20 43  1  0  0  0  0
 21 44  1  0  0  0  0
 21 45  1  0  0  0  0
M  END
> <s_m_source_file>
AV-unprocessed.smi

> <i_m_source_file_index>
2610

> <i_lp_mmshare_version>
43012

> <i_f3d_flags>
0

> <s_epik_input>
W0NIM11bQ0gyXVtDSDJdW0NIMl1jKG4xKW4oYyhjMTIpW2NIXVtjSF1bY0hdW2NIXTIpW0NIMl1DMyhbT0hdKVtDSDJdW0NIMl1PW0NIMl1bQ0gyXTM=

> <s_epik_cmdline>
J2VwaWtfcHl0aG9uJywgJy1waCcsICc3LjAnLCAnLXRuJywgJzgnLCAnLW1hJywgJzIwMCcsICctbWV0YWxfYmluZGluZycsICctaW1hZScsICc8aW5maWxlLm1hZT4nLCAnLW9tYWUnLCAnPG91dGZpbGUubWFlPic=

> <r_epik_Ionization_Penalty>
0.224246

> <r_epik_Ionization_Penalty_Charging>
0

> <r_epik_Ionization_Penalty_Neutral>
0.224246

> <r_epik_State_Penalty>
0.214696

> <r_epik_Charging_Adjusted_Penalty>
0.214696

> <i_epik_Tot_Q>
0

> <i_epik_Tot_abs_Q>
0

> <r_epik_Metal_State_Penalty>
0.000258695

> <b_epik_Metal_Only>
0

> <s_lp_Force_Field>
OPLS_2005

> <r_lp_Energy>
13.1565

> <b_lp_Chiralities_Consistent>
1

> <s_lp_Variant>
AV-unprocessed.smi:2610-1

> <Gold.Version>
5.8.1

> <Gold.Id.Protein>
6NUR|6NUR_protein|mol2

> <Gold.PLP.Fitness>
44.1374

> <Gold.PLP.PLP>
-40.2082

> <Gold.PLP.part.hbond>
-2.0000

> <Gold.PLP.part.metal>
0.0000

> <Gold.PLP.part.buried>
-4.3343

> <Gold.PLP.part.nonpolar>
-34.4220

> <Gold.PLP.part.repulsive>
0.7261

> <Gold.PLP.ligand.clash>
0.0000

> <Gold.PLP.ligand.torsion>
1.1425

> <Gold.PLP.Chemscore.Hbond>
1.9675

> <Gold.PLP.Chemscore.CHOScore>
0.0000

> <Gold.PLP.Chemscore.Metal>
0.0000

> <Gold.Chemscore.Hbonds>
donor molecule, donor type, donor heavy atom, donor atom, acceptor molecule, acceptor atom, score
      P1  H  6896  6908       L1    19  0.44
      P1  H  7997  8008       L1    16  1.00

> <Gold.PLP.Chemscore.Internal.Correction>
0.3119

> <Gold.Rescore>
     Score         DG    S(hbond)    S(metal)    S(lipo)     H(rot)  DE(clash)    DE(int)     intcor
     16.53     -17.94       1.06        0.00     118.09       1.91       0.09       1.32       ----

> <Gold.Chemscore.Fitness>
16.5263

> <Gold.Chemscore.DG>
-17.9427

> <Gold.Chemscore.ZeroCoef>
-5.4800

> <Gold.Chemscore.Hbond>
1.0553

> <Gold.Chemscore.Metal>
0.0000

> <Gold.Chemscore.Lipo>
118.0930

> <Gold.Chemscore.Internal_Hbond>
0.0000

> <Gold.Chemscore.DEClash>
0.0944

> <Gold.Chemscore.DEInternal>
1.3220

> <Gold.Chemscore.Rot>
1.9059

> <Gold.Chemscore.Internal.Correction>
   9.000000E+99

> <Gold.Chemscore.Hbonds>
donor molecule, donor type, donor heavy atom, donor atom, acceptor molecule, acceptor atom, score
      P1  H  6896  6908       L1    19  0.10
      P1  H  7997  8008       L1    16  0.29

> <Gold.Chemscore.Hbond.Weighted>
-3.5248

> <Gold.Chemscore.Metal.Weighted>
-0.0000

> <Gold.Chemscore.Lipo.Weighted>
-13.8169

> <Gold.Chemscore.Internal_Hbond.Weighted>
0.0000

> <Gold.Chemscore.DEClash.Weighted>
0.0944

> <Gold.Chemscore.DEInternal.Weighted>
1.3220

> <Gold.Chemscore.Rot.Weighted>
4.8790

> <Gold.Chemscore.Internal.Correction.Weighted>
   9.000000E+99

> <Gold.Protein.RotatedTorsions>
[ 6907 6896 6895 6894 ] final  -73.60 input  -60.11 | X-H torsion
[ 7974 7965 7964 7962 ] final -139.06 input  175.53 | X-H torsion
[ 8008 7997 7996 7995 ] final  -89.49 input   59.86 | X-H torsion
[ 10167 10162 10161 10158 ] final   -0.24 input  -65.29 | X-H torsion
[ 10718 10713 10712 10709 ] final  119.41 input   66.30 | X-H torsion
[ 10763 10752 10751 10750 ] final  -80.92 input  -60.55 | X-H torsion
[ 11005 11000 10999 10996 ] final  139.05 input  -57.11 | X-H torsion

> <Gold.Protein.ActiveResidues>
 VAL166  LYS551  ARG553  GLY616  TRP617  ASP618  TYR619  PRO620  LYS621  CYS622 
 ASP623  PHE694  ASN695  SER759  ASP760  ASP761  ALA762  ILE779  LEU786  VAL792 
 PHE793  MET794  SER795  GLU796  ALA797  LYS798  CYS799  TRP800  GLU811  SER814 

> <Gold.Protein.RotatedAtoms>
  150.7124  134.4992  159.5553 H   0  0  0  0  0  0  0  0  0  0  0  0  # atno 6907 bound_to 6896
  152.2593  134.8048  160.0442 H   0  0  0  0  0  0  0  0  0  0  0  0  # atno 6908 bound_to 6896
  151.8767  133.3451  159.3789 H   0  0  0  0  0  0  0  0  0  0  0  0  # atno 6909 bound_to 6896
  144.8708  140.6363  143.5268 H   0  0  0  0  0  0  0  0  0  0  0  0  # atno 7974 bound_to 7965
  154.6872  140.0541  157.0326 H   0  0  0  0  0  0  0  0  0  0  0  0  # atno 8008 bound_to 7997
  155.0868  140.3215  155.4566 H   0  0  0  0  0  0  0  0  0  0  0  0  # atno 8009 bound_to 7997
  156.2715  140.2055  156.5995 H   0  0  0  0  0  0  0  0  0  0  0  0  # atno 8010 bound_to 7997
  140.6758  143.6919  150.8021 H   0  0  0  0  0  0  0  0  0  0  0  0  # atno 10167 bound_to 10162
  157.5963  131.1057  150.7893 H   0  0  0  0  0  0  0  0  0  0  0  0  # atno 10718 bound_to 10713
  154.5571  135.5644  153.6974 H   0  0  0  0  0  0  0  0  0  0  0  0  # atno 10763 bound_to 10752
  153.0007  135.6265  154.2295 H   0  0  0  0  0  0  0  0  0  0  0  0  # atno 10764 bound_to 10752
  154.2231  135.2869  155.2897 H   0  0  0  0  0  0  0  0  0  0  0  0  # atno 10765 bound_to 10752
  140.0227  134.9389  157.0506 H   0  0  0  0  0  0  0  0  0  0  0  0  # atno 11005 bound_to 11000
  145.4135  139.1576  143.4113 LP  0  0  0  0  0  0  0  0  0  0  0  0  # atno 17320 bound_to 7965
  146.2928  140.4240  142.8733 LP  0  0  0  0  0  0  0  0  0  0  0  0  # atno 17321 bound_to 7965
  140.0611  143.5153  152.2627 LP  0  0  0  0  0  0  0  0  0  0  0  0  # atno 17342 bound_to 10162
  139.6050  144.7594  151.3082 LP  0  0  0  0  0  0  0  0  0  0  0  0  # atno 17343 bound_to 10162
  156.8303  130.5013  149.5332 LP  0  0  0  0  0  0  0  0  0  0  0  0  # atno 17370 bound_to 10713
  156.1026  130.5981  150.9919 LP  0  0  0  0  0  0  0  0  0  0  0  0  # atno 17371 bound_to 10713
  140.4360  134.1731  155.7171 LP  0  0  0  0  0  0  0  0  0  0  0  0  # atno 17394 bound_to 11000
  141.1783  133.8467  157.1344 LP  0  0  0  0  0  0  0  0  0  0  0  0  # atno 17395 bound_to 11000

$$$$
