AV-unprocessed.smi:1844|AV-procd|sdf|7508|dock1
  -GOLD-   22720 9213D 1   1.00000     0.00000
 Structure written by MMmdl.
 45 46  0  0  0  0  0  0  0  0  1 V2000
  155.1630  137.5364  160.7083 C   0  0  0  0  0  0  0  0  0  0  0  0
  154.4937  138.8172  160.8784 N   0  0  0  0  0  0  0  0  0  0  0  0
  154.1195  139.6207  159.8692 C   0  0  0  0  0  0  0  0  0  0  0  0
  154.3196  139.3157  158.6923 O   0  0  0  0  0  0  0  0  0  0  0  0
  153.4672  140.8574  160.3070 C   0  0  0  0  0  0  0  0  0  0  0  0
  153.7289  141.4840  161.5945 C   0  0  0  0  0  0  0  0  0  0  0  0
  153.1057  142.6278  161.9397 C   0  0  0  0  0  0  0  0  0  0  0  0
  152.1458  143.2839  161.0473 C   0  0  0  0  0  0  0  0  0  0  0  0
  151.5769  144.3314  161.3560 O   0  0  0  0  0  0  0  0  0  0  0  0
  151.9226  142.6580  159.8521 N   0  0  0  0  0  0  0  0  0  0  0  0
  150.9767  143.2182  158.8722 C   0  0  0  0  0  0  0  0  0  0  0  0
  150.4450  142.1836  157.8700 C   0  0  0  0  0  0  0  0  0  0  0  0
  149.8116  141.1972  158.2492 O   0  0  0  0  0  0  0  0  0  0  0  0
  150.7089  142.4361  156.5792 N   0  0  0  0  0  0  0  0  0  0  0  0
  150.3063  141.5994  155.4507 C   0  0  2  0  0  0  0  0  0  0  0  0
  148.7820  141.7160  155.2382 C   0  0  0  0  0  0  0  0  0  0  0  0
  148.2932  140.8014  154.1062 C   0  0  0  0  0  0  0  0  0  0  0  0
  148.6991  139.3441  154.3630 C   0  0  0  0  0  0  0  0  0  0  0  0
  150.2182  139.2220  154.5534 C   0  0  0  0  0  0  0  0  0  0  0  0
  150.7308  140.1289  155.6908 C   0  0  1  0  0  0  0  0  0  0  0  0
  152.2534  139.9752  155.8579 C   0  0  0  0  0  0  0  0  0  0  0  0
  152.5818  141.4657  159.4937 C   0  0  0  0  0  0  0  0  0  0  0  0
  155.3012  137.0582  161.6777 H   0  0  0  0  0  0  0  0  0  0  0  0
  156.1437  137.6706  160.2509 H   0  0  0  0  0  0  0  0  0  0  0  0
  154.5738  136.8676  160.0798 H   0  0  0  0  0  0  0  0  0  0  0  0
  154.3034  139.1163  161.8236 H   0  0  0  0  0  0  0  0  0  0  0  0
  154.4256  141.0530  162.2984 H   0  0  0  0  0  0  0  0  0  0  0  0
  153.3180  143.0753  162.8997 H   0  0  0  0  0  0  0  0  0  0  0  0
  150.1235  143.6688  159.3815 H   0  0  0  0  0  0  0  0  0  0  0  0
  151.4444  144.0381  158.3237 H   0  0  0  0  0  0  0  0  0  0  0  0
  151.2311  143.2719  156.3594 H   0  0  0  0  0  0  0  0  0  0  0  0
  150.8101  141.9507  154.5479 H   0  0  0  0  0  0  0  0  0  0  0  0
  148.2601  141.4568  156.1605 H   0  0  0  0  0  0  0  0  0  0  0  0
  148.5116  142.7482  155.0122 H   0  0  0  0  0  0  0  0  0  0  0  0
  147.2096  140.8749  154.0106 H   0  0  0  0  0  0  0  0  0  0  0  0
  148.7120  141.1374  153.1569 H   0  0  0  0  0  0  0  0  0  0  0  0
  148.1861  138.9709  155.2502 H   0  0  0  0  0  0  0  0  0  0  0  0
  148.3768  138.7163  153.5317 H   0  0  0  0  0  0  0  0  0  0  0  0
  150.4743  138.1824  154.7606 H   0  0  0  0  0  0  0  0  0  0  0  0
  150.7212  139.4821  153.6209 H   0  0  0  0  0  0  0  0  0  0  0  0
  150.2645  139.7894  156.6171 H   0  0  0  0  0  0  0  0  0  0  0  0
  152.7847  140.3237  154.9716 H   0  0  0  0  0  0  0  0  0  0  0  0
  152.5259  138.9318  156.0186 H   0  0  0  0  0  0  0  0  0  0  0  0
  152.6261  140.5405  156.7122 H   0  0  0  0  0  0  0  0  0  0  0  0
  152.3200  141.0905  158.5141 H   0  0  0  0  0  0  0  0  0  0  0  0
  1  2  1  0  0  0  0
  1 23  1  0  0  0  0
  1 24  1  0  0  0  0
  1 25  1  0  0  0  0
  2  3  1  0  0  0  0
  2 26  1  0  0  0  0
  3  4  2  0  0  0  0
  3  5  1  0  0  0  0
  5 22  2  0  0  0  0
  5  6  1  0  0  0  0
  6  7  2  0  0  0  0
  6 27  1  0  0  0  0
  7  8  1  0  0  0  0
  7 28  1  0  0  0  0
  8  9  2  0  0  0  0
  8 10  1  0  0  0  0
 10 11  1  0  0  0  0
 10 22  1  0  0  0  0
 11 12  1  0  0  0  0
 11 29  1  0  0  0  0
 11 30  1  0  0  0  0
 12 13  2  0  0  0  0
 12 14  1  0  0  0  0
 14 15  1  0  0  0  0
 14 31  1  0  0  0  0
 15 20  1  0  0  0  0
 15 16  1  0  0  0  0
 15 32  1  0  0  0  0
 16 17  1  0  0  0  0
 16 33  1  0  0  0  0
 16 34  1  0  0  0  0
 17 18  1  0  0  0  0
 17 35  1  0  0  0  0
 17 36  1  0  0  0  0
 18 19  1  0  0  0  0
 18 37  1  0  0  0  0
 18 38  1  0  0  0  0
 19 20  1  0  0  0  0
 19 39  1  0  0  0  0
 19 40  1  0  0  0  0
 20 21  1  0  0  0  0
 20 41  1  0  0  0  0
 21 42  1  0  0  0  0
 21 43  1  0  0  0  0
 21 44  1  0  0  0  0
 22 45  1  0  0  0  0
M  END
> <s_m_source_file>
AV-unprocessed.smi

> <i_m_source_file_index>
1844

> <i_lp_mmshare_version>
43012

> <i_f3d_flags>
0

> <s_epik_input>
W0NIM11bTkhdQyg9TyljMVtjSF1bY0hdYyg9TyluKFtjSF0xKVtDSDJdQyg9TylbTkhdW0NAQEhdMltDSDJdW0NIMl1bQ0gyXVtDSDJdW0NASF0yW0NIM10=

> <s_epik_cmdline>
J2VwaWtfcHl0aG9uJywgJy1waCcsICc3LjAnLCAnLXRuJywgJzgnLCAnLW1hJywgJzIwMCcsICctbWV0YWxfYmluZGluZycsICctaW1hZScsICc8aW5maWxlLm1hZT4nLCAnLW9tYWUnLCAnPG91dGZpbGUubWFlPic=

> <r_lp_tautomer_probability>
1

> <r_epik_Ionization_Penalty>
3.66612e-07

> <r_epik_Ionization_Penalty_Charging>
5.18929e-08

> <r_epik_Ionization_Penalty_Neutral>
3.14719e-07

> <r_epik_State_Penalty>
-0

> <r_epik_Charging_Adjusted_Penalty>
5.18929e-08

> <i_epik_Tot_Q>
0

> <i_epik_Tot_abs_Q>
0

> <r_epik_Metal_State_Penalty>
-0

> <b_epik_Metal_Only>
0

> <s_lp_Force_Field>
OPLS_2005

> <r_lp_Energy>
22.707

> <b_lp_Chiralities_Consistent>
1

> <s_lp_Variant>
AV-unprocessed.smi:1844-1

> <Gold.Version>
5.8.1

> <Gold.Id.Protein>
6NUR|6NUR_protein|mol2

> <Gold.PLP.Fitness>
44.8733

> <Gold.PLP.PLP>
-43.2529

> <Gold.PLP.part.hbond>
-1.8448

> <Gold.PLP.part.metal>
0.0000

> <Gold.PLP.part.buried>
-3.4094

> <Gold.PLP.part.nonpolar>
-38.6103

> <Gold.PLP.part.repulsive>
0.4350

> <Gold.PLP.ligand.clash>
0.0000

> <Gold.PLP.ligand.torsion>
0.7282

> <Gold.PLP.Chemscore.Hbond>
1.0000

> <Gold.PLP.Chemscore.CHOScore>
0.0000

> <Gold.PLP.Chemscore.Metal>
0.0000

> <Gold.Chemscore.Hbonds>
donor molecule, donor type, donor heavy atom, donor atom, acceptor molecule, acceptor atom, score
      P1  H  7997  8008       L1     4  1.00

> <Gold.PLP.Chemscore.Internal.Correction>
0.0769

> <Gold.Rescore>
     Score         DG    S(hbond)    S(metal)    S(lipo)     H(rot)  DE(clash)    DE(int)     intcor
     14.53     -16.34       1.00        0.00      96.92       1.49       0.00       1.80       ----

> <Gold.Chemscore.Fitness>
14.5346

> <Gold.Chemscore.DG>
-16.3364

> <Gold.Chemscore.ZeroCoef>
-5.4800

> <Gold.Chemscore.Hbond>
0.9992

> <Gold.Chemscore.Metal>
0.0000

> <Gold.Chemscore.Lipo>
96.9173

> <Gold.Chemscore.Internal_Hbond>
0.0000

> <Gold.Chemscore.DEClash>
0.0047

> <Gold.Chemscore.DEInternal>
1.7971

> <Gold.Chemscore.Rot>
1.4923

> <Gold.Chemscore.Internal.Correction>
   9.000000E+99

> <Gold.Chemscore.Hbonds>
donor molecule, donor type, donor heavy atom, donor atom, acceptor molecule, acceptor atom, score
      P1  H  7997  8008       L1     4  1.00

> <Gold.Chemscore.Hbond.Weighted>
-3.3374

> <Gold.Chemscore.Metal.Weighted>
-0.0000

> <Gold.Chemscore.Lipo.Weighted>
-11.3393

> <Gold.Chemscore.Internal_Hbond.Weighted>
0.0000

> <Gold.Chemscore.DEClash.Weighted>
0.0047

> <Gold.Chemscore.DEInternal.Weighted>
1.7971

> <Gold.Chemscore.Rot.Weighted>
3.8204

> <Gold.Chemscore.Internal.Correction.Weighted>
   9.000000E+99

> <Gold.Protein.RotatedTorsions>
[ 6907 6896 6895 6894 ] final   77.71 input  -60.11 | X-H torsion
[ 7974 7965 7964 7962 ] final  148.59 input  175.53 | X-H torsion
[ 8008 7997 7996 7995 ] final -109.54 input   59.86 | X-H torsion
[ 10167 10162 10161 10158 ] final -107.47 input  -65.29 | X-H torsion
[ 10718 10713 10712 10709 ] final   45.17 input   66.30 | X-H torsion
[ 10763 10752 10751 10750 ] final -174.27 input  -60.55 | X-H torsion
[ 11005 11000 10999 10996 ] final   44.63 input  -57.11 | X-H torsion

> <Gold.Protein.ActiveResidues>
 VAL166  LYS551  ARG553  GLY616  TRP617  ASP618  TYR619  PRO620  LYS621  CYS622 
 ASP623  PHE694  ASN695  SER759  ASP760  ASP761  ALA762  ILE779  LEU786  VAL792 
 PHE793  MET794  SER795  GLU796  ALA797  LYS798  CYS799  TRP800  GLU811  SER814 

> <Gold.Protein.RotatedAtoms>
  152.5129  134.3776  159.9339 H   0  0  0  0  0  0  0  0  0  0  0  0  # atno 6907 bound_to 6896
  151.3732  133.3841  159.2709 H   0  0  0  0  0  0  0  0  0  0  0  0  # atno 6908 bound_to 6896
  150.9562  134.8975  159.7761 H   0  0  0  0  0  0  0  0  0  0  0  0  # atno 6909 bound_to 6896
  144.8502  139.6173  143.5977 H   0  0  0  0  0  0  0  0  0  0  0  0  # atno 7974 bound_to 7965
  154.9609  140.0399  157.2189 H   0  0  0  0  0  0  0  0  0  0  0  0  # atno 8008 bound_to 7997
  154.7890  140.2832  155.5983 H   0  0  0  0  0  0  0  0  0  0  0  0  # atno 8009 bound_to 7997
  156.2947  140.2577  156.2733 H   0  0  0  0  0  0  0  0  0  0  0  0  # atno 8010 bound_to 7997
  140.1766  143.4000  152.1314 H   0  0  0  0  0  0  0  0  0  0  0  0  # atno 10167 bound_to 10162
  157.4347  130.8046  149.7637 H   0  0  0  0  0  0  0  0  0  0  0  0  # atno 10718 bound_to 10713
  154.5982  135.2852  155.0564 H   0  0  0  0  0  0  0  0  0  0  0  0  # atno 10763 bound_to 10752
  154.1838  135.6452  153.5045 H   0  0  0  0  0  0  0  0  0  0  0  0  # atno 10764 bound_to 10752
  153.0146  135.5430  154.6691 H   0  0  0  0  0  0  0  0  0  0  0  0  # atno 10765 bound_to 10752
  140.1534  134.4433  155.8366 H   0  0  0  0  0  0  0  0  0  0  0  0  # atno 11005 bound_to 11000
  146.2778  139.6799  142.9250 LP  0  0  0  0  0  0  0  0  0  0  0  0  # atno 17320 bound_to 7965
  145.4515  141.0428  143.2802 LP  0  0  0  0  0  0  0  0  0  0  0  0  # atno 17321 bound_to 7965
  139.5314  144.7163  151.5042 LP  0  0  0  0  0  0  0  0  0  0  0  0  # atno 17342 bound_to 10162
  140.6547  143.8623  150.6823 LP  0  0  0  0  0  0  0  0  0  0  0  0  # atno 17343 bound_to 10162
  155.9926  130.3930  150.2935 LP  0  0  0  0  0  0  0  0  0  0  0  0  # atno 17370 bound_to 10713
  157.1094  131.0217  151.3054 LP  0  0  0  0  0  0  0  0  0  0  0  0  # atno 17371 bound_to 10713
  141.2201  133.6882  156.7463 LP  0  0  0  0  0  0  0  0  0  0  0  0  # atno 17394 bound_to 11000
  140.2577  134.8491  157.3729 LP  0  0  0  0  0  0  0  0  0  0  0  0  # atno 17395 bound_to 11000

$$$$
