AV-unprocessed.smi:411|AV-procd|sdf|2508|dock7
  -GOLD-   2262022453D 1   1.00000     0.00000
 Structure written by MMmdl.
 35 36  0  0  0  0  0  0  0  0  1 V2000
  150.7842  139.3013  155.4610 O   0  0  0  0  0  0  0  0  0  0  0  0
  150.3535  140.1374  156.2542 C   0  0  0  0  0  0  0  0  0  0  0  0
  150.8892  141.5784  156.1860 C   0  0  0  0  0  0  0  0  0  0  0  0
  151.3988  142.1125  157.4632 N   0  0  0  0  0  0  0  0  0  0  0  0
  151.0007  143.4162  157.8089 C   0  0  0  0  0  0  0  0  0  0  0  0
  151.3948  143.9946  158.9512 C   0  0  0  0  0  0  0  0  0  0  0  0
  152.2520  143.2439  159.8358 C   0  0  0  0  0  0  0  0  0  0  0  0
  152.6475  141.9857  159.5330 C   0  0  0  0  0  0  0  0  0  0  0  0
  153.5543  141.1769  160.4572 C   0  0  0  0  0  0  0  0  0  0  0  0
  153.1217  139.9190  160.5508 F   0  0  0  0  0  0  0  0  0  0  0  0
  154.8032  141.1543  159.9899 F   0  0  0  0  0  0  0  0  0  0  0  0
  153.5897  141.6890  161.6884 F   0  0  0  0  0  0  0  0  0  0  0  0
  152.2040  141.3561  158.2723 C   0  0  0  0  0  0  0  0  0  0  0  0
  152.5260  140.2089  157.9591 O   0  0  0  0  0  0  0  0  0  0  0  0
  149.4274  139.8468  157.1837 N   0  0  0  0  0  0  0  0  0  0  0  0
  148.8195  138.5385  157.3938 C   0  0  2  0  0  0  0  0  0  0  0  0
  147.2795  138.5968  157.3298 C   0  0  0  0  0  0  0  0  0  0  0  0
  146.7131  137.3068  157.9346 C   0  0  0  0  0  0  0  0  0  0  0  0
  147.9118  136.7753  159.2153 S   0  0  0  0  0  0  0  0  0  0  0  0
  147.3897  137.1104  160.5488 O   0  0  0  0  0  0  0  0  0  0  0  0
  148.3723  135.4141  158.9021 O   0  0  0  0  0  0  0  0  0  0  0  0
  149.2176  137.9792  158.7668 C   0  0  0  0  0  0  0  0  0  0  0  0
  151.6643  141.6230  155.4190 H   0  0  0  0  0  0  0  0  0  0  0  0
  150.0885  142.2154  155.8077 H   0  0  0  0  0  0  0  0  0  0  0  0
  150.3540  143.9060  157.0952 H   0  0  0  0  0  0  0  0  0  0  0  0
  151.0768  144.9953  159.2047 H   0  0  0  0  0  0  0  0  0  0  0  0
  152.5740  143.7101  160.7551 H   0  0  0  0  0  0  0  0  0  0  0  0
  149.1246  140.5915  157.7947 H   0  0  0  0  0  0  0  0  0  0  0  0
  149.1735  137.8426  156.6307 H   0  0  0  0  0  0  0  0  0  0  0  0
  146.9279  139.4429  157.9221 H   0  0  0  0  0  0  0  0  0  0  0  0
  146.9189  138.7503  156.3121 H   0  0  0  0  0  0  0  0  0  0  0  0
  145.7246  137.4408  158.3740 H   0  0  0  0  0  0  0  0  0  0  0  0
  146.6562  136.5203  157.1818 H   0  0  0  0  0  0  0  0  0  0  0  0
  150.1932  137.4925  158.7626 H   0  0  0  0  0  0  0  0  0  0  0  0
  149.2217  138.7600  159.5283 H   0  0  0  0  0  0  0  0  0  0  0  0
  1  2  2  0  0  0  0
  2  3  1  0  0  0  0
  2 15  1  0  0  0  0
  3  4  1  0  0  0  0
  3 23  1  0  0  0  0
  3 24  1  0  0  0  0
  4 13  1  0  0  0  0
  4  5  1  0  0  0  0
  5  6  2  0  0  0  0
  5 25  1  0  0  0  0
  6  7  1  0  0  0  0
  6 26  1  0  0  0  0
  7  8  2  0  0  0  0
  7 27  1  0  0  0  0
  8  9  1  0  0  0  0
  8 13  1  0  0  0  0
  9 10  1  0  0  0  0
  9 11  1  0  0  0  0
  9 12  1  0  0  0  0
 13 14  2  0  0  0  0
 15 16  1  0  0  0  0
 15 28  1  0  0  0  0
 16 22  1  0  0  0  0
 16 17  1  0  0  0  0
 16 29  1  0  0  0  0
 17 18  1  0  0  0  0
 17 30  1  0  0  0  0
 17 31  1  0  0  0  0
 18 19  1  0  0  0  0
 18 32  1  0  0  0  0
 18 33  1  0  0  0  0
 19 20  2  0  0  0  0
 19 21  2  0  0  0  0
 19 22  1  0  0  0  0
 22 34  1  0  0  0  0
 22 35  1  0  0  0  0
M  END
> <s_m_source_file>
AV-unprocessed.smi

> <i_m_source_file_index>
411

> <i_lp_mmshare_version>
43012

> <i_f3d_flags>
0

> <s_epik_input>
Tz1TMSg9TylbQ0gyXVtDSDJdW0NASF0oW0NIMl0xKVtOSF1DKD1PKVtDSDJdbjJbY0hdW2NIXVtjSF1jKEMoRikoRilGKWMyPU8=

> <s_epik_cmdline>
J2VwaWtfcHl0aG9uJywgJy1waCcsICc3LjAnLCAnLXRuJywgJzgnLCAnLW1hJywgJzIwMCcsICctbWV0YWxfYmluZGluZycsICctaW1hZScsICc8aW5maWxlLm1hZT4nLCAnLW9tYWUnLCAnPG91dGZpbGUubWFlPic=

> <r_lp_tautomer_probability>
1

> <r_epik_Ionization_Penalty>
1.08759e-07

> <r_epik_Ionization_Penalty_Charging>
1.56656e-09

> <r_epik_Ionization_Penalty_Neutral>
1.07193e-07

> <r_epik_State_Penalty>
-0

> <r_epik_Charging_Adjusted_Penalty>
1.56656e-09

> <i_epik_Tot_Q>
0

> <i_epik_Tot_abs_Q>
0

> <r_epik_Metal_State_Penalty>
-0

> <b_epik_Metal_Only>
0

> <s_lp_Force_Field>
OPLS_2005

> <r_lp_Energy>
11.8943

> <b_lp_Chiralities_Consistent>
1

> <s_lp_Variant>
AV-unprocessed.smi:411-1

> <Gold.Version>
5.8.1

> <Gold.Id.Protein>
6NUR|6NUR_protein|mol2

> <Gold.PLP.Fitness>
50.3385

> <Gold.PLP.PLP>
-38.2267

> <Gold.PLP.part.hbond>
-3.9942

> <Gold.PLP.part.metal>
0.0000

> <Gold.PLP.part.buried>
-4.1190

> <Gold.PLP.part.nonpolar>
-29.8386

> <Gold.PLP.part.repulsive>
0.0812

> <Gold.PLP.ligand.clash>
0.0000

> <Gold.PLP.ligand.torsion>
0.9346

> <Gold.PLP.Chemscore.Hbond>
3.5516

> <Gold.PLP.Chemscore.CHOScore>
1.0000

> <Gold.PLP.Chemscore.Metal>
0.0000

> <Gold.Chemscore.Hbonds>
donor molecule, donor type, donor heavy atom, donor atom, acceptor molecule, acceptor atom, score
      P1  H  6931  6943       L1    20  0.04
      P1  H  6934  6947       L1    20  1.00
      P1  H  7997  8010       L1    14  0.49
      L1  C     5    25       P1  8028  1.00

> <Gold.PLP.Chemscore.Internal.Correction>
0.3260

> <Gold.Rescore>
     Score         DG    S(hbond)    S(metal)    S(lipo)     H(rot)  DE(clash)    DE(int)     intcor
     16.20     -19.86       3.27        0.00      67.56       1.73       0.10       3.55       ----

> <Gold.Chemscore.Fitness>
16.2040

> <Gold.Chemscore.DG>
-19.8572

> <Gold.Chemscore.ZeroCoef>
-5.4800

> <Gold.Chemscore.Hbond>
3.2652

> <Gold.Chemscore.Metal>
0.0000

> <Gold.Chemscore.Lipo>
67.5553

> <Gold.Chemscore.Internal_Hbond>
0.0000

> <Gold.Chemscore.DEClash>
0.0987

> <Gold.Chemscore.DEInternal>
3.5546

> <Gold.Chemscore.Rot>
1.7314

> <Gold.Chemscore.Internal.Correction>
   9.000000E+99

> <Gold.Chemscore.Hbonds>
donor molecule, donor type, donor heavy atom, donor atom, acceptor molecule, acceptor atom, score
      P1  H  6896  6907       L1    21  0.01
      P1  H  6931  6943       L1    20  0.06
      P1  H  6934  6947       L1    20  0.90
      P1  H  7997  8010       L1    14  0.42

> <Gold.Chemscore.Hbond.Weighted>
-10.9057

> <Gold.Chemscore.Metal.Weighted>
-0.0000

> <Gold.Chemscore.Lipo.Weighted>
-7.9040

> <Gold.Chemscore.Internal_Hbond.Weighted>
0.0000

> <Gold.Chemscore.DEClash.Weighted>
0.0987

> <Gold.Chemscore.DEInternal.Weighted>
3.5546

> <Gold.Chemscore.Rot.Weighted>
4.4324

> <Gold.Chemscore.Internal.Correction.Weighted>
   9.000000E+99

> <Gold.Protein.RotatedTorsions>
[ 6907 6896 6895 6894 ] final  -72.15 input  -60.11 | X-H torsion
[ 7974 7965 7964 7962 ] final  -30.27 input  175.53 | X-H torsion
[ 8008 7997 7996 7995 ] final   46.48 input   59.86 | X-H torsion
[ 10167 10162 10161 10158 ] final  173.41 input  -65.29 | X-H torsion
[ 10718 10713 10712 10709 ] final  -82.34 input   66.30 | X-H torsion
[ 10763 10752 10751 10750 ] final -153.76 input  -60.55 | X-H torsion
[ 11005 11000 10999 10996 ] final   19.09 input  -57.11 | X-H torsion

> <Gold.Protein.ActiveResidues>
 VAL166  LYS551  ARG553  GLY616  TRP617  ASP618  TYR619  PRO620  LYS621  CYS622 
 ASP623  PHE694  ASN695  SER759  ASP760  ASP761  ALA762  ILE779  LEU786  VAL792 
 PHE793  MET794  SER795  GLU796  ALA797  LYS798  CYS799  TRP800  GLU811  SER814 

> <Gold.Protein.RotatedAtoms>
  150.7182  134.5204  159.5650 H   0  0  0  0  0  0  0  0  0  0  0  0  # atno 6907 bound_to 6896
  152.2761  134.7877  160.0414 H   0  0  0  0  0  0  0  0  0  0  0  0  # atno 6908 bound_to 6896
  151.8540  133.3409  159.3719 H   0  0  0  0  0  0  0  0  0  0  0  0  # atno 6909 bound_to 6896
  146.1155  140.5519  142.8759 H   0  0  0  0  0  0  0  0  0  0  0  0  # atno 7974 bound_to 7965
  155.3532  140.3414  155.4239 H   0  0  0  0  0  0  0  0  0  0  0  0  # atno 8008 bound_to 7997
  156.1753  140.1645  156.8409 H   0  0  0  0  0  0  0  0  0  0  0  0  # atno 8009 bound_to 7997
  154.5275  140.0752  156.8268 H   0  0  0  0  0  0  0  0  0  0  0  0  # atno 8010 bound_to 7997
  139.5107  144.3264  152.0154 H   0  0  0  0  0  0  0  0  0  0  0  0  # atno 10167 bound_to 10162
  156.0035  130.4631  150.4090 H   0  0  0  0  0  0  0  0  0  0  0  0  # atno 10718 bound_to 10713
  154.7905  135.3205  154.7787 H   0  0  0  0  0  0  0  0  0  0  0  0  # atno 10763 bound_to 10752
  153.8477  135.6865  153.4800 H   0  0  0  0  0  0  0  0  0  0  0  0  # atno 10764 bound_to 10752
  153.1574  135.4674  154.9664 H   0  0  0  0  0  0  0  0  0  0  0  0  # atno 10765 bound_to 10752
  140.4176  134.1552  155.7671 H   0  0  0  0  0  0  0  0  0  0  0  0  # atno 11005 bound_to 11000
  144.7549  140.5283  143.6776 LP  0  0  0  0  0  0  0  0  0  0  0  0  # atno 17320 bound_to 7965
  145.5575  139.1478  143.3359 LP  0  0  0  0  0  0  0  0  0  0  0  0  # atno 17321 bound_to 7965
  140.2704  144.3970  150.6153 LP  0  0  0  0  0  0  0  0  0  0  0  0  # atno 17342 bound_to 10162
  140.6092  143.2169  151.6919 LP  0  0  0  0  0  0  0  0  0  0  0  0  # atno 17343 bound_to 10162
  157.2154  131.0470  151.2576 LP  0  0  0  0  0  0  0  0  0  0  0  0  # atno 17370 bound_to 10713
  157.3850  130.7251  149.6657 LP  0  0  0  0  0  0  0  0  0  0  0  0  # atno 17371 bound_to 10713
  141.1797  133.8440  157.1302 LP  0  0  0  0  0  0  0  0  0  0  0  0  # atno 17394 bound_to 11000
  140.0223  134.9940  157.0616 LP  0  0  0  0  0  0  0  0  0  0  0  0  # atno 17395 bound_to 11000

$$$$
