AV-unprocessed.smi:1721|AV-procd|sdf|6935|dock5
  -GOLD-   22720 8143D 1   1.00000     0.00000
 Structure written by MMmdl.
 44 46  0  0  0  0  0  0  0  0  2 V2000
  151.5623  138.2005  154.3481 C   0  0  0  0  0  0  0  0  0  0  0  0
  150.2071  138.1586  153.9146 O   0  0  0  0  0  0  0  0  0  0  0  0
  149.4211  139.2816  154.0934 C   0  0  0  0  0  0  0  0  0  0  0  0
  150.0021  140.3996  154.5964 N   0  0  0  0  0  0  0  0  0  0  0  0
  149.2387  141.4964  154.7742 C   0  0  0  0  0  0  0  0  0  0  0  0
  147.8677  141.5373  154.4640 C   0  0  0  0  0  0  0  0  0  0  0  0
  147.2620  140.3796  153.9418 C   0  0  0  0  0  0  0  0  0  0  0  0
  148.0505  139.2178  153.7464 C   0  0  0  0  0  0  0  0  0  0  0  0
  147.5599  137.9848  153.2276 N   0  0  0  0  0  0  0  0  0  0  0  0
  146.2995  137.6016  152.9599 C   0  0  0  0  0  0  0  0  0  0  0  0
  145.2891  138.2831  153.1255 O   0  0  0  0  0  0  0  0  0  0  0  0
  146.2712  136.3533  152.4723 N   0  0  0  0  0  0  0  0  0  0  0  0
  145.0643  135.6290  152.0830 C   0  0  2  0  0  0  0  0  0  0  0  0
  143.8987  135.8513  153.0395 C   0  0  0  0  0  0  0  0  0  0  0  0
  142.9872  134.6655  152.7187 C   0  0  0  0  0  0  0  0  0  0  0  0
  143.8863  133.5450  152.3575 N   0  3  1  0  0  0  0  0  0  0  0  0
  143.3623  132.6546  151.2929 C   0  0  0  0  0  0  0  0  0  0  0  0
  144.3499  131.5087  151.0035 C   0  0  0  0  0  0  0  0  0  0  0  0
  145.7987  131.9963  150.7923 C   0  0  0  0  0  0  0  0  0  0  0  0
  145.9145  133.5275  150.8427 C   0  0  0  0  0  0  0  0  0  0  0  0
  145.2475  134.1020  152.1138 C   0  0  1  0  0  0  0  0  0  0  0  0
  152.0366  137.2413  154.1409 H   0  0  0  0  0  0  0  0  0  0  0  0
  151.6333  138.3785  155.4222 H   0  0  0  0  0  0  0  0  0  0  0  0
  152.1268  138.9695  153.8190 H   0  0  0  0  0  0  0  0  0  0  0  0
  149.7352  142.3670  155.1765 H   0  0  0  0  0  0  0  0  0  0  0  0
  147.2924  142.4373  154.6236 H   0  0  0  0  0  0  0  0  0  0  0  0
  146.2106  140.4180  153.7093 H   0  0  0  0  0  0  0  0  0  0  0  0
  148.2758  137.3015  153.0265 H   0  0  0  0  0  0  0  0  0  0  0  0
  147.1492  135.8655  152.3695 H   0  0  0  0  0  0  0  0  0  0  0  0
  144.7406  135.9421  151.0878 H   0  0  0  0  0  0  0  0  0  0  0  0
  144.2362  135.7930  154.0755 H   0  0  0  0  0  0  0  0  0  0  0  0
  143.4068  136.8139  152.8954 H   0  0  0  0  0  0  0  0  0  0  0  0
  142.3366  134.4014  153.5527 H   0  0  0  0  0  0  0  0  0  0  0  0
  142.3518  134.9224  151.8694 H   0  0  0  0  0  0  0  0  0  0  0  0
  142.3983  132.2475  151.6001 H   0  0  0  0  0  0  0  0  0  0  0  0
  143.1830  133.2335  150.3854 H   0  0  0  0  0  0  0  0  0  0  0  0
  144.3312  130.7987  151.8312 H   0  0  0  0  0  0  0  0  0  0  0  0
  144.0128  130.9540  150.1272 H   0  0  0  0  0  0  0  0  0  0  0  0
  146.4364  131.5660  151.5655 H   0  0  0  0  0  0  0  0  0  0  0  0
  146.1854  131.6262  149.8421 H   0  0  0  0  0  0  0  0  0  0  0  0
  146.9643  133.8192  150.8043 H   0  0  0  0  0  0  0  0  0  0  0  0
  145.4518  133.9524  149.9509 H   0  0  0  0  0  0  0  0  0  0  0  0
  145.8451  133.8265  152.9844 H   0  0  0  0  0  0  0  0  0  0  0  0
  143.9759  132.9710  153.1837 H   0  0  0  0  0  0  0  0  0  0  0  0
  1  2  1  0  0  0  0
  1 22  1  0  0  0  0
  1 23  1  0  0  0  0
  1 24  1  0  0  0  0
  2  3  1  0  0  0  0
  3  8  1  0  0  0  0
  3  4  2  0  0  0  0
  4  5  1  0  0  0  0
  5  6  2  0  0  0  0
  5 25  1  0  0  0  0
  6  7  1  0  0  0  0
  6 26  1  0  0  0  0
  7  8  2  0  0  0  0
  7 27  1  0  0  0  0
  8  9  1  0  0  0  0
  9 10  1  0  0  0  0
  9 28  1  0  0  0  0
 10 11  2  0  0  0  0
 10 12  1  0  0  0  0
 12 13  1  0  0  0  0
 12 29  1  0  0  0  0
 13 21  1  0  0  0  0
 13 14  1  0  0  0  0
 13 30  1  0  0  0  0
 14 15  1  0  0  0  0
 14 31  1  0  0  0  0
 14 32  1  0  0  0  0
 15 16  1  0  0  0  0
 15 33  1  0  0  0  0
 15 34  1  0  0  0  0
 16 21  1  0  0  0  0
 16 17  1  0  0  0  0
 16 44  1  0  0  0  0
 17 18  1  0  0  0  0
 17 35  1  0  0  0  0
 17 36  1  0  0  0  0
 18 19  1  0  0  0  0
 18 37  1  0  0  0  0
 18 38  1  0  0  0  0
 19 20  1  0  0  0  0
 19 39  1  0  0  0  0
 19 40  1  0  0  0  0
 20 21  1  0  0  0  0
 20 41  1  0  0  0  0
 20 42  1  0  0  0  0
 21 43  1  0  0  0  0
M  CHG  1  16   1
M  END
> <s_m_source_file>
AV-unprocessed.smi

> <i_m_source_file_index>
1721

> <i_lp_mmshare_version>
43012

> <i_f3d_flags>
0

> <s_epik_input>
W0NIM11PYzFuW2NIXVtjSF1bY0hdYzFbTkhdQyg9TylbTkhdW0NASF0oW0NIMl1bQ0gyXTIpW0NAQEhdKE4yMylbQ0gyXVtDSDJdW0NIMl1bQ0gyXTM=

> <s_epik_cmdline>
J2VwaWtfcHl0aG9uJywgJy1waCcsICc3LjAnLCAnLXRuJywgJzgnLCAnLW1hJywgJzIwMCcsICctbWV0YWxfYmluZGluZycsICctaW1hZScsICc8aW5maWxlLm1hZT4nLCAnLW9tYWUnLCAnPG91dGZpbGUubWFlPic=

> <r_lp_tautomer_probability>
1

> <r_epik_Ionization_Penalty>
0.00104793

> <r_epik_Ionization_Penalty_Charging>
0.000974069

> <r_epik_Ionization_Penalty_Neutral>
7.38649e-05

> <r_epik_State_Penalty>
0.000633842

> <r_epik_Charging_Adjusted_Penalty>
0.00160791

> <i_epik_Tot_Q>
1

> <i_epik_Tot_abs_Q>
1

> <r_epik_Metal_State_Penalty>
-0

> <b_epik_Metal_Only>
0

> <s_lp_Force_Field>
OPLS_2005

> <r_lp_Energy>
42.7216

> <b_lp_Chiralities_Consistent>
1

> <s_lp_Variant>
AV-unprocessed.smi:1721-1

> <Gold.Version>
5.8.1

> <Gold.Id.Protein>
6NUR|6NUR_protein|mol2

> <Gold.PLP.Fitness>
45.6825

> <Gold.PLP.PLP>
-34.6988

> <Gold.PLP.part.hbond>
-3.3547

> <Gold.PLP.part.metal>
0.0000

> <Gold.PLP.part.buried>
-6.1889

> <Gold.PLP.part.nonpolar>
-30.4305

> <Gold.PLP.part.repulsive>
3.2299

> <Gold.PLP.ligand.clash>
0.0000

> <Gold.PLP.ligand.torsion>
0.3364

> <Gold.PLP.Chemscore.Hbond>
2.9086

> <Gold.PLP.Chemscore.CHOScore>
0.9744

> <Gold.PLP.Chemscore.Metal>
0.0000

> <Gold.Chemscore.Hbonds>
donor molecule, donor type, donor heavy atom, donor atom, acceptor molecule, acceptor atom, score
      L1  H     9    28       P1  7948  0.93
      L1  H    12    29       P1  7948  0.78
      L1  H    16    44       P1 10957  0.19
      P1  H  7989  7998       L1     4  0.93
      L1  C     5    25       P1  8028  0.97

> <Gold.PLP.Chemscore.Internal.Correction>
0.0075

> <Gold.Rescore>
     Score         DG    S(hbond)    S(metal)    S(lipo)     H(rot)  DE(clash)    DE(int)     intcor
     15.96     -20.37       2.60        0.00      80.46       1.25       1.40       3.01       ----

> <Gold.Chemscore.Fitness>
15.9584

> <Gold.Chemscore.DG>
-20.3684

> <Gold.Chemscore.ZeroCoef>
-5.4800

> <Gold.Chemscore.Hbond>
2.5953

> <Gold.Chemscore.Metal>
0.0000

> <Gold.Chemscore.Lipo>
80.4565

> <Gold.Chemscore.Internal_Hbond>
0.0000

> <Gold.Chemscore.DEClash>
1.4000

> <Gold.Chemscore.DEInternal>
3.0100

> <Gold.Chemscore.Rot>
1.2474

> <Gold.Chemscore.Internal.Correction>
   9.000000E+99

> <Gold.Chemscore.Hbonds>
donor molecule, donor type, donor heavy atom, donor atom, acceptor molecule, acceptor atom, score
      L1  H     9    28       P1  7948  0.91
      L1  H    12    29       P1  7948  0.79
      L1  H    16    44       P1 10957  0.07
      P1  H  7989  7998       L1     4  0.45

> <Gold.Chemscore.Hbond.Weighted>
-8.6685

> <Gold.Chemscore.Metal.Weighted>
-0.0000

> <Gold.Chemscore.Lipo.Weighted>
-9.4134

> <Gold.Chemscore.Internal_Hbond.Weighted>
0.0000

> <Gold.Chemscore.DEClash.Weighted>
1.4000

> <Gold.Chemscore.DEInternal.Weighted>
3.0100

> <Gold.Chemscore.Rot.Weighted>
3.1934

> <Gold.Chemscore.Internal.Correction.Weighted>
   9.000000E+99

> <Gold.Protein.RotatedTorsions>
[ 6907 6896 6895 6894 ] final   -2.26 input  -60.11 | X-H torsion
[ 7974 7965 7964 7962 ] final  -18.62 input  175.53 | X-H torsion
[ 8008 7997 7996 7995 ] final -129.42 input   59.86 | X-H torsion
[ 10167 10162 10161 10158 ] final -150.87 input  -65.29 | X-H torsion
[ 10718 10713 10712 10709 ] final  -92.49 input   66.30 | X-H torsion
[ 10763 10752 10751 10750 ] final -146.50 input  -60.55 | X-H torsion
[ 11005 11000 10999 10996 ] final  -52.43 input  -57.11 | X-H torsion

> <Gold.Protein.ActiveResidues>
 VAL166  LYS551  ARG553  GLY616  TRP617  ASP618  TYR619  PRO620  LYS621  CYS622 
 ASP623  PHE694  ASN695  SER759  ASP760  ASP761  ALA762  ILE779  LEU786  VAL792 
 PHE793  MET794  SER795  GLU796  ALA797  LYS798  CYS799  TRP800  GLU811  SER814 

> <Gold.Protein.RotatedAtoms>
  151.5328  135.1068  159.9906 H   0  0  0  0  0  0  0  0  0  0  0  0  # atno 6907 bound_to 6896
  152.4571  133.7741  159.6825 H   0  0  0  0  0  0  0  0  0  0  0  0  # atno 6908 bound_to 6896
  150.8518  133.7709  159.3047 H   0  0  0  0  0  0  0  0  0  0  0  0  # atno 6909 bound_to 6896
  146.1883  140.3946  142.8468 H   0  0  0  0  0  0  0  0  0  0  0  0  # atno 7974 bound_to 7965
  155.2789  140.0443  157.3013 H   0  0  0  0  0  0  0  0  0  0  0  0  # atno 8008 bound_to 7997
  154.5609  140.2345  155.8305 H   0  0  0  0  0  0  0  0  0  0  0  0  # atno 8009 bound_to 7997
  156.2046  140.3016  155.9607 H   0  0  0  0  0  0  0  0  0  0  0  0  # atno 8010 bound_to 7997
  139.7317  143.8799  152.2536 H   0  0  0  0  0  0  0  0  0  0  0  0  # atno 10167 bound_to 10162
  156.0003  130.4989  150.5634 H   0  0  0  0  0  0  0  0  0  0  0  0  # atno 10718 bound_to 10713
  154.8333  135.3385  154.6671 H   0  0  0  0  0  0  0  0  0  0  0  0  # atno 10763 bound_to 10752
  153.7288  135.6953  153.4999 H   0  0  0  0  0  0  0  0  0  0  0  0  # atno 10764 bound_to 10752
  153.2327  135.4411  155.0565 H   0  0  0  0  0  0  0  0  0  0  0  0  # atno 10765 bound_to 10752
  141.0924  133.6630  156.4024 H   0  0  0  0  0  0  0  0  0  0  0  0  # atno 11005 bound_to 11000
  144.8438  140.6898  143.6212 LP  0  0  0  0  0  0  0  0  0  0  0  0  # atno 17320 bound_to 7965
  145.3871  139.1624  143.4249 LP  0  0  0  0  0  0  0  0  0  0  0  0  # atno 17321 bound_to 7965
  139.8724  144.7061  150.8973 LP  0  0  0  0  0  0  0  0  0  0  0  0  # atno 17342 bound_to 10162
  140.7772  143.3728  151.1618 LP  0  0  0  0  0  0  0  0  0  0  0  0  # atno 17343 bound_to 10162
  157.3540  131.0738  151.1691 LP  0  0  0  0  0  0  0  0  0  0  0  0  # atno 17370 bound_to 10713
  157.2498  130.6608  149.5926 LP  0  0  0  0  0  0  0  0  0  0  0  0  # atno 17371 bound_to 10713
  140.5220  134.6294  157.5321 LP  0  0  0  0  0  0  0  0  0  0  0  0  # atno 17394 bound_to 11000
  139.9753  134.7226  155.9962 LP  0  0  0  0  0  0  0  0  0  0  0  0  # atno 17395 bound_to 11000

$$$$
