AV-unprocessed.smi:438|AV-procd|sdf|2577|dock7
  -GOLD-   2262022563D 1   1.00000     0.00000
 Structure written by MMmdl.
 48 49  0  0  0  0  0  0  0  0  1 V2000
  145.5900  139.8008  155.6408 C   0  0  0  0  0  0  0  0  0  0  0  0
  147.0342  139.3484  155.7547 C   0  0  0  0  0  0  0  0  0  0  0  0
  147.3252  138.5744  156.8233 N   0  0  0  0  0  0  0  0  0  0  0  0
  148.5879  138.1599  156.9326 C   0  0  0  0  0  0  0  0  0  0  0  0
  148.9827  137.1585  158.3475 S   0  0  0  0  0  0  0  0  0  0  0  0
  147.3648  137.0605  159.1716 C   0  0  0  0  0  0  0  0  0  0  0  0
  147.4708  136.4541  160.5673 C   0  0  0  0  0  0  0  0  0  0  0  0
  147.8024  137.1590  161.5198 O   0  0  0  0  0  0  0  0  0  0  0  0
  147.1759  135.1484  160.6711 N   0  0  0  0  0  0  0  0  0  0  0  0
  147.1616  134.3593  161.9043 C   0  0  2  0  0  0  0  0  0  0  0  0
  147.9929  133.0739  161.7163 C   0  0  0  0  0  0  0  0  0  0  0  0
  147.3134  132.0727  160.7660 C   0  0  0  0  0  0  0  0  0  0  0  0
  145.8859  131.7471  161.2294 C   0  0  0  0  0  0  0  0  0  0  0  0
  145.0454  133.0238  161.3909 C   0  0  0  0  0  0  0  0  0  0  0  0
  145.7149  134.0274  162.3527 C   0  0  2  0  0  0  0  0  0  0  0  0
  144.8438  135.2791  162.5571 C   0  0  0  0  0  0  0  0  0  0  0  0
  149.6026  138.4302  156.1118 N   0  0  0  0  0  0  0  0  0  0  0  0
  149.3281  139.2036  155.0395 C   0  0  0  0  0  0  0  0  0  0  0  0
  150.3477  139.4839  154.1768 O   0  0  0  0  0  0  0  0  0  0  0  0
  148.0246  139.7087  154.8049 C   0  0  0  0  0  0  0  0  0  0  0  0
  147.7152  140.5804  153.5942 C   0  0  0  0  0  0  0  0  0  0  0  0
  147.7533  142.0764  153.9340 C   0  0  0  0  0  0  0  0  0  0  0  0
  149.0687  142.4555  154.2744 O   0  0  0  0  0  0  0  0  0  0  0  0
  145.1965  139.5886  154.6464 H   0  0  0  0  0  0  0  0  0  0  0  0
  145.5153  140.8732  155.8223 H   0  0  0  0  0  0  0  0  0  0  0  0
  144.9545  139.2905  156.3660 H   0  0  0  0  0  0  0  0  0  0  0  0
  146.9427  138.0634  159.2410 H   0  0  0  0  0  0  0  0  0  0  0  0
  146.6673  136.4664  158.5810 H   0  0  0  0  0  0  0  0  0  0  0  0
  146.9109  134.6630  159.8263 H   0  0  0  0  0  0  0  0  0  0  0  0
  147.6358  134.9326  162.7027 H   0  0  0  0  0  0  0  0  0  0  0  0
  148.9905  133.3193  161.3500 H   0  0  0  0  0  0  0  0  0  0  0  0
  148.1374  132.5980  162.6870 H   0  0  0  0  0  0  0  0  0  0  0  0
  147.2863  132.4811  159.7551 H   0  0  0  0  0  0  0  0  0  0  0  0
  147.9028  131.1568  160.7108 H   0  0  0  0  0  0  0  0  0  0  0  0
  145.4075  131.0753  160.5160 H   0  0  0  0  0  0  0  0  0  0  0  0
  145.9240  131.2127  162.1795 H   0  0  0  0  0  0  0  0  0  0  0  0
  144.8932  133.4871  160.4151 H   0  0  0  0  0  0  0  0  0  0  0  0
  144.0543  132.7595  161.7614 H   0  0  0  0  0  0  0  0  0  0  0  0
  145.7892  133.5384  163.3252 H   0  0  0  0  0  0  0  0  0  0  0  0
  144.6582  135.8009  161.6178 H   0  0  0  0  0  0  0  0  0  0  0  0
  145.3212  135.9818  163.2405 H   0  0  0  0  0  0  0  0  0  0  0  0
  143.8749  135.0149  162.9812 H   0  0  0  0  0  0  0  0  0  0  0  0
  150.0588  139.5369  153.2788 H   0  0  0  0  0  0  0  0  0  0  0  0
  148.4165  140.3619  152.7889 H   0  0  0  0  0  0  0  0  0  0  0  0
  146.7333  140.3134  153.2014 H   0  0  0  0  0  0  0  0  0  0  0  0
  147.4193  142.6743  153.0854 H   0  0  0  0  0  0  0  0  0  0  0  0
  147.0929  142.3000  154.7723 H   0  0  0  0  0  0  0  0  0  0  0  0
  149.0419  143.3144  154.6678 H   0  0  0  0  0  0  0  0  0  0  0  0
  1  2  1  0  0  0  0
  1 24  1  0  0  0  0
  1 25  1  0  0  0  0
  1 26  1  0  0  0  0
  2 20  1  0  0  0  0
  2  3  2  0  0  0  0
  3  4  1  0  0  0  0
  4  5  1  0  0  0  0
  4 17  2  0  0  0  0
  5  6  1  0  0  0  0
  6  7  1  0  0  0  0
  6 27  1  0  0  0  0
  6 28  1  0  0  0  0
  7  8  2  0  0  0  0
  7  9  1  0  0  0  0
  9 10  1  0  0  0  0
  9 29  1  0  0  0  0
 10 15  1  0  0  0  0
 10 11  1  0  0  0  0
 10 30  1  0  0  0  0
 11 12  1  0  0  0  0
 11 31  1  0  0  0  0
 11 32  1  0  0  0  0
 12 13  1  0  0  0  0
 12 33  1  0  0  0  0
 12 34  1  0  0  0  0
 13 14  1  0  0  0  0
 13 35  1  0  0  0  0
 13 36  1  0  0  0  0
 14 15  1  0  0  0  0
 14 37  1  0  0  0  0
 14 38  1  0  0  0  0
 15 16  1  0  0  0  0
 15 39  1  0  0  0  0
 16 40  1  0  0  0  0
 16 41  1  0  0  0  0
 16 42  1  0  0  0  0
 17 18  1  0  0  0  0
 18 19  1  0  0  0  0
 18 20  2  0  0  0  0
 19 43  1  0  0  0  0
 20 21  1  0  0  0  0
 21 22  1  0  0  0  0
 21 44  1  0  0  0  0
 21 45  1  0  0  0  0
 22 23  1  0  0  0  0
 22 46  1  0  0  0  0
 22 47  1  0  0  0  0
 23 48  1  0  0  0  0
M  END
> <s_m_source_file>
AV-unprocessed.smi

> <i_m_source_file_index>
438

> <i_lp_mmshare_version>
43012

> <i_f3d_flags>
0

> <s_epik_input>
W09IXVtDSDJdW0NIMl1jMWMoW09IXSluYyhuYzFbQ0gzXSlTW0NIMl1DKD1PKVtOSF1bQ0BASF0yW0NIMl1bQ0gyXVtDSDJdW0NIMl1bQ0BIXTJbQ0gzXQ==

> <s_epik_cmdline>
J2VwaWtfcHl0aG9uJywgJy1waCcsICc3LjAnLCAnLXRuJywgJzgnLCAnLW1hJywgJzIwMCcsICctbWV0YWxfYmluZGluZycsICctaW1hZScsICc8aW5maWxlLm1hZT4nLCAnLW9tYWUnLCAnPG91dGZpbGUubWFlPic=

> <r_lp_tautomer_probability>
0.0660145

> <r_epik_Ionization_Penalty>
2.91405

> <r_epik_Ionization_Penalty_Charging>
0

> <r_epik_Ionization_Penalty_Neutral>
2.91405

> <r_epik_State_Penalty>
2.44767

> <r_epik_Charging_Adjusted_Penalty>
2.44767

> <i_epik_Tot_Q>
0

> <i_epik_Tot_abs_Q>
0

> <r_epik_Metal_State_Penalty>
3.04288

> <b_epik_Metal_Only>
0

> <s_lp_Force_Field>
OPLS_2005

> <r_lp_Energy>
3.55381

> <b_lp_Chiralities_Consistent>
1

> <s_lp_Variant>
AV-unprocessed.smi:438-15

> <Gold.Version>
5.8.1

> <Gold.Id.Protein>
6NUR|6NUR_protein|mol2

> <Gold.PLP.Fitness>
44.4973

> <Gold.PLP.PLP>
-33.4537

> <Gold.PLP.part.hbond>
-5.7350

> <Gold.PLP.part.metal>
0.0000

> <Gold.PLP.part.buried>
-4.8712

> <Gold.PLP.part.nonpolar>
-20.8599

> <Gold.PLP.part.repulsive>
0.0486

> <Gold.PLP.ligand.clash>
0.0000

> <Gold.PLP.ligand.torsion>
0.8020

> <Gold.PLP.Chemscore.Hbond>
4.1956

> <Gold.PLP.Chemscore.CHOScore>
0.0000

> <Gold.PLP.Chemscore.Metal>
0.0000

> <Gold.Chemscore.Hbonds>
donor molecule, donor type, donor heavy atom, donor atom, acceptor molecule, acceptor atom, score
      L1  H    19    43       P1  7957  0.54
      L1  H    23    48       P1  8028  1.00
      P1  H  6931  6943       L1     8  1.00
      P1  H  6934  6947       L1     8  0.72
      P1  H  8011  8017       L1    23  0.11

> <Gold.PLP.Chemscore.Internal.Correction>
0.0608

> <Gold.Rescore>
     Score         DG    S(hbond)    S(metal)    S(lipo)     H(rot)  DE(clash)    DE(int)     intcor
     15.73     -16.71       3.67        0.00      66.52       3.44       0.13       0.85       ----

> <Gold.Chemscore.Fitness>
15.7339

> <Gold.Chemscore.DG>
-16.7131

> <Gold.Chemscore.ZeroCoef>
-5.4800

> <Gold.Chemscore.Hbond>
3.6667

> <Gold.Chemscore.Metal>
0.0000

> <Gold.Chemscore.Lipo>
66.5155

> <Gold.Chemscore.Internal_Hbond>
0.0000

> <Gold.Chemscore.DEClash>
0.1321

> <Gold.Chemscore.DEInternal>
0.8472

> <Gold.Chemscore.Rot>
3.4359

> <Gold.Chemscore.Internal.Correction>
   9.000000E+99

> <Gold.Chemscore.Hbonds>
donor molecule, donor type, donor heavy atom, donor atom, acceptor molecule, acceptor atom, score
      L1  H    19    43       P1  7957  0.54
      L1  H    23    48       P1  8028  1.00
      P1  H  6931  6943       L1     8  0.97
      P1  H  6934  6947       L1     8  0.26
      P1  H  8011  8017       L1    23  0.01

> <Gold.Chemscore.Hbond.Weighted>
-12.2468

> <Gold.Chemscore.Metal.Weighted>
-0.0000

> <Gold.Chemscore.Lipo.Weighted>
-7.7823

> <Gold.Chemscore.Internal_Hbond.Weighted>
0.0000

> <Gold.Chemscore.DEClash.Weighted>
0.1321

> <Gold.Chemscore.DEInternal.Weighted>
0.8472

> <Gold.Chemscore.Rot.Weighted>
8.7960

> <Gold.Chemscore.Internal.Correction.Weighted>
   9.000000E+99

> <Gold.Protein.RotatedTorsions>
[ 6907 6896 6895 6894 ] final  101.75 input  -60.11 | X-H torsion
[ 7974 7965 7964 7962 ] final  137.03 input  175.53 | X-H torsion
[ 8008 7997 7996 7995 ] final -170.22 input   59.86 | X-H torsion
[ 10167 10162 10161 10158 ] final -101.38 input  -65.29 | X-H torsion
[ 10718 10713 10712 10709 ] final  -92.69 input   66.30 | X-H torsion
[ 10763 10752 10751 10750 ] final  145.98 input  -60.55 | X-H torsion
[ 11005 11000 10999 10996 ] final  -65.69 input  -57.11 | X-H torsion

> <Gold.Protein.ActiveResidues>
 VAL166  LYS551  ARG553  GLY616  TRP617  ASP618  TYR619  PRO620  LYS621  CYS622 
 ASP623  PHE694  ASN695  SER759  ASP760  ASP761  ALA762  ILE779  LEU786  VAL792 
 PHE793  MET794  SER795  GLU796  ALA797  LYS798  CYS799  TRP800  GLU811  SER814 

> <Gold.Protein.RotatedAtoms>
  152.5341  134.0079  159.7924 H   0  0  0  0  0  0  0  0  0  0  0  0  # atno 6907 bound_to 6896
  151.0286  133.5803  159.2670 H   0  0  0  0  0  0  0  0  0  0  0  0  # atno 6908 bound_to 6896
  151.2816  135.0722  159.9225 H   0  0  0  0  0  0  0  0  0  0  0  0  # atno 6909 bound_to 6896
  144.9507  139.4822  143.5527 H   0  0  0  0  0  0  0  0  0  0  0  0  # atno 7974 bound_to 7965
  155.9154  140.1065  157.1247 H   0  0  0  0  0  0  0  0  0  0  0  0  # atno 8008 bound_to 7997
  154.4046  140.1266  156.4676 H   0  0  0  0  0  0  0  0  0  0  0  0  # atno 8009 bound_to 7997
  155.7260  140.3469  155.5040 H   0  0  0  0  0  0  0  0  0  0  0  0  # atno 8010 bound_to 7997
  140.2419  143.3533  152.0794 H   0  0  0  0  0  0  0  0  0  0  0  0  # atno 10167 bound_to 10162
  156.0005  130.4997  150.5663 H   0  0  0  0  0  0  0  0  0  0  0  0  # atno 10718 bound_to 10713
  154.0144  135.2911  155.3388 H   0  0  0  0  0  0  0  0  0  0  0  0  # atno 10763 bound_to 10752
  154.7084  135.5160  153.8632 H   0  0  0  0  0  0  0  0  0  0  0  0  # atno 10764 bound_to 10752
  153.0709  135.6647  154.0372 H   0  0  0  0  0  0  0  0  0  0  0  0  # atno 10765 bound_to 10752
  141.1461  133.6686  156.6024 H   0  0  0  0  0  0  0  0  0  0  0  0  # atno 11005 bound_to 11000
  146.3320  139.8591  142.8859 LP  0  0  0  0  0  0  0  0  0  0  0  0  # atno 17320 bound_to 7965
  145.2848  141.0149  143.3697 LP  0  0  0  0  0  0  0  0  0  0  0  0  # atno 17321 bound_to 7965
  139.5074  144.6832  151.5955 LP  0  0  0  0  0  0  0  0  0  0  0  0  # atno 17342 bound_to 10162
  140.6107  143.9442  150.6451 LP  0  0  0  0  0  0  0  0  0  0  0  0  # atno 17343 bound_to 10162
  157.3565  131.0742  151.1671 LP  0  0  0  0  0  0  0  0  0  0  0  0  # atno 17370 bound_to 10713
  157.2470  130.6596  149.5915 LP  0  0  0  0  0  0  0  0  0  0  0  0  # atno 17371 bound_to 10713
  140.3678  134.7632  157.4578 LP  0  0  0  0  0  0  0  0  0  0  0  0  # atno 17394 bound_to 11000
  140.0734  134.5830  155.8617 LP  0  0  0  0  0  0  0  0  0  0  0  0  # atno 17395 bound_to 11000

$$$$
