AV-unprocessed.smi:2931|AV-procd|sdf|11242|dock9
  -GOLD-   2272016133D 1   1.00000     0.00000
 Structure written by MMmdl.
 42 43  0  0  0  0  0  0  0  0  2 V2000
  146.0628  135.7025  153.6481 C   0  0  0  0  0  0  0  0  0  0  0  0
  146.7314  136.9428  153.1998 N   0  3  1  0  0  0  0  0  0  0  0  0
  145.8634  137.7705  152.3255 C   0  0  0  0  0  0  0  0  0  0  0  0
  146.6353  138.9785  151.7696 C   0  0  0  0  0  0  0  0  0  0  0  0
  147.2395  139.8181  152.9037 C   0  0  0  0  0  0  0  0  0  0  0  0
  148.1001  138.9317  153.8228 C   0  0  1  0  0  0  0  0  0  0  0  0
  148.5996  139.7046  154.9555 N   0  0  0  0  0  0  0  0  0  0  0  0
  149.8928  139.9311  155.2237 C   0  0  0  0  0  0  0  0  0  0  0  0
  150.8250  139.4796  154.5590 O   0  0  0  0  0  0  0  0  0  0  0  0
  150.0460  140.7261  156.2911 N   0  0  0  0  0  0  0  0  0  0  0  0
  151.3265  141.2032  156.8056 C   0  0  0  0  0  0  0  0  0  0  0  0
  151.3556  142.7283  157.0353 C   0  0  0  0  0  0  0  0  0  0  0  0
  151.7860  143.1253  158.4375 C   0  0  0  0  0  0  0  0  0  0  0  0
  151.6631  144.4590  158.8804 C   0  0  0  0  0  0  0  0  0  0  0  0
  152.0675  144.7709  160.1936 C   0  0  0  0  0  0  0  0  0  0  0  0
  152.5666  143.8564  161.0529 N   0  0  0  0  0  0  0  0  0  0  0  0
  152.6828  142.5821  160.6215 C   0  0  0  0  0  0  0  0  0  0  0  0
  152.3083  142.1653  159.3282 C   0  0  0  0  0  0  0  0  0  0  0  0
  147.2865  137.7267  154.3314 C   0  0  0  0  0  0  0  0  0  0  0  0
  145.1994  135.9279  154.2752 H   0  0  0  0  0  0  0  0  0  0  0  0
  146.7506  135.0808  154.2222 H   0  0  0  0  0  0  0  0  0  0  0  0
  145.7222  135.1178  152.7930 H   0  0  0  0  0  0  0  0  0  0  0  0
  145.4924  137.1640  151.4984 H   0  0  0  0  0  0  0  0  0  0  0  0
  144.9915  138.1077  152.8886 H   0  0  0  0  0  0  0  0  0  0  0  0
  147.4302  138.6318  151.1079 H   0  0  0  0  0  0  0  0  0  0  0  0
  145.9739  139.5962  151.1609 H   0  0  0  0  0  0  0  0  0  0  0  0
  147.8376  140.6298  152.4873 H   0  0  0  0  0  0  0  0  0  0  0  0
  146.4379  140.2847  153.4784 H   0  0  0  0  0  0  0  0  0  0  0  0
  148.9458  138.5466  153.2492 H   0  0  0  0  0  0  0  0  0  0  0  0
  147.9107  140.1256  155.5615 H   0  0  0  0  0  0  0  0  0  0  0  0
  149.2172  141.0489  156.7690 H   0  0  0  0  0  0  0  0  0  0  0  0
  151.5022  140.6930  157.7529 H   0  0  0  0  0  0  0  0  0  0  0  0
  152.1362  140.9020  156.1394 H   0  0  0  0  0  0  0  0  0  0  0  0
  152.0294  143.1946  156.3160 H   0  0  0  0  0  0  0  0  0  0  0  0
  150.3692  143.1486  156.8354 H   0  0  0  0  0  0  0  0  0  0  0  0
  151.2649  145.2266  158.2330 H   0  0  0  0  0  0  0  0  0  0  0  0
  151.9858  145.7819  160.5641 H   0  0  0  0  0  0  0  0  0  0  0  0
  153.0845  141.8721  161.3288 H   0  0  0  0  0  0  0  0  0  0  0  0
  152.4175  141.1326  159.0307 H   0  0  0  0  0  0  0  0  0  0  0  0
  146.4718  138.0601  154.9767 H   0  0  0  0  0  0  0  0  0  0  0  0
  147.9271  137.0824  154.9356 H   0  0  0  0  0  0  0  0  0  0  0  0
  147.5181  136.6551  152.6352 H   0  0  0  0  0  0  0  0  0  0  0  0
  1  2  1  0  0  0  0
  1 20  1  0  0  0  0
  1 21  1  0  0  0  0
  1 22  1  0  0  0  0
  2 19  1  0  0  0  0
  2  3  1  0  0  0  0
  2 42  1  0  0  0  0
  3  4  1  0  0  0  0
  3 23  1  0  0  0  0
  3 24  1  0  0  0  0
  4  5  1  0  0  0  0
  4 25  1  0  0  0  0
  4 26  1  0  0  0  0
  5  6  1  0  0  0  0
  5 27  1  0  0  0  0
  5 28  1  0  0  0  0
  6  7  1  0  0  0  0
  6 19  1  0  0  0  0
  6 29  1  0  0  0  0
  7  8  1  0  0  0  0
  7 30  1  0  0  0  0
  8  9  2  0  0  0  0
  8 10  1  0  0  0  0
 10 11  1  0  0  0  0
 10 31  1  0  0  0  0
 11 12  1  0  0  0  0
 11 32  1  0  0  0  0
 11 33  1  0  0  0  0
 12 13  1  0  0  0  0
 12 34  1  0  0  0  0
 12 35  1  0  0  0  0
 13 18  1  0  0  0  0
 13 14  2  0  0  0  0
 14 15  1  0  0  0  0
 14 36  1  0  0  0  0
 15 16  2  0  0  0  0
 15 37  1  0  0  0  0
 16 17  1  0  0  0  0
 17 18  2  0  0  0  0
 17 38  1  0  0  0  0
 18 39  1  0  0  0  0
 19 40  1  0  0  0  0
 19 41  1  0  0  0  0
M  CHG  1   2   1
M  END
> <s_m_source_file>
AV-unprocessed.smi

> <i_m_source_file_index>
2931

> <i_lp_mmshare_version>
43012

> <i_f3d_flags>
0

> <s_epik_input>
W0NIM11OMVtDSDJdW0NIMl1bQ0gyXVtDQEhdKFtDSDJdMSlbTkhdQyg9TylbTkhdW0NIMl1bQ0gyXWMyW2NIXVtjSF1uW2NIXVtjSF0y

> <s_epik_cmdline>
J2VwaWtfcHl0aG9uJywgJy1waCcsICc3LjAnLCAnLXRuJywgJzgnLCAnLW1hJywgJzIwMCcsICctbWV0YWxfYmluZGluZycsICctaW1hZScsICc8aW5maWxlLm1hZT4nLCAnLW9tYWUnLCAnPG91dGZpbGUubWFlPic=

> <r_epik_Ionization_Penalty>
0.0573876

> <r_epik_Ionization_Penalty_Charging>
0.00229982

> <r_epik_Ionization_Penalty_Neutral>
0.0550878

> <r_epik_State_Penalty>
0.0473925

> <r_epik_Charging_Adjusted_Penalty>
0.0496923

> <i_epik_Tot_Q>
1

> <i_epik_Tot_abs_Q>
1

> <r_epik_Metal_State_Penalty>
0.0433388

> <b_epik_Metal_Only>
0

> <s_lp_Force_Field>
OPLS_2005

> <r_lp_Energy>
13.6108

> <b_lp_Chiralities_Consistent>
1

> <s_lp_Variant>
AV-unprocessed.smi:2931-1

> <Gold.Version>
5.8.1

> <Gold.Id.Protein>
6NUR|6NUR_protein|mol2

> <Gold.PLP.Fitness>
45.4383

> <Gold.PLP.PLP>
-37.4378

> <Gold.PLP.part.hbond>
-2.0000

> <Gold.PLP.part.metal>
0.0000

> <Gold.PLP.part.buried>
-1.6383

> <Gold.PLP.part.nonpolar>
-34.5130

> <Gold.PLP.part.repulsive>
0.3178

> <Gold.PLP.ligand.clash>
0.0000

> <Gold.PLP.ligand.torsion>
0.5028

> <Gold.PLP.Chemscore.Hbond>
3.0000

> <Gold.PLP.Chemscore.CHOScore>
0.0000

> <Gold.PLP.Chemscore.Metal>
0.0000

> <Gold.Chemscore.Hbonds>
donor molecule, donor type, donor heavy atom, donor atom, acceptor molecule, acceptor atom, score
      L1  H     2    42       P1  7948  2.00
      P1  H  7989  7998       L1     9  1.00

> <Gold.PLP.Chemscore.Internal.Correction>
0.0062

> <Gold.Rescore>
     Score         DG    S(hbond)    S(metal)    S(lipo)     H(rot)  DE(clash)    DE(int)     intcor
     20.11     -20.64       1.97        0.00     107.51       1.56       0.12       0.42       ----

> <Gold.Chemscore.Fitness>
20.1055

> <Gold.Chemscore.DG>
-20.6416

> <Gold.Chemscore.ZeroCoef>
-5.4800

> <Gold.Chemscore.Hbond>
1.9685

> <Gold.Chemscore.Metal>
0.0000

> <Gold.Chemscore.Lipo>
107.5087

> <Gold.Chemscore.Internal_Hbond>
0.0000

> <Gold.Chemscore.DEClash>
0.1170

> <Gold.Chemscore.DEInternal>
0.4192

> <Gold.Chemscore.Rot>
1.5592

> <Gold.Chemscore.Internal.Correction>
   9.000000E+99

> <Gold.Chemscore.Hbonds>
donor molecule, donor type, donor heavy atom, donor atom, acceptor molecule, acceptor atom, score
      L1  H     2    42       P1  7948  1.00
      P1  H  7989  7998       L1     9  0.78

> <Gold.Chemscore.Hbond.Weighted>
-6.5746

> <Gold.Chemscore.Metal.Weighted>
-0.0000

> <Gold.Chemscore.Lipo.Weighted>
-12.5785

> <Gold.Chemscore.Internal_Hbond.Weighted>
0.0000

> <Gold.Chemscore.DEClash.Weighted>
0.1170

> <Gold.Chemscore.DEInternal.Weighted>
0.4192

> <Gold.Chemscore.Rot.Weighted>
3.9915

> <Gold.Chemscore.Internal.Correction.Weighted>
   9.000000E+99

> <Gold.Protein.RotatedTorsions>
[ 6907 6896 6895 6894 ] final  -25.69 input  -60.11 | X-H torsion
[ 7974 7965 7964 7962 ] final -114.24 input  175.53 | X-H torsion
[ 8008 7997 7996 7995 ] final  155.10 input   59.86 | X-H torsion
[ 10167 10162 10161 10158 ] final  -44.02 input  -65.29 | X-H torsion
[ 10718 10713 10712 10709 ] final  -44.00 input   66.30 | X-H torsion
[ 10763 10752 10751 10750 ] final  -57.61 input  -60.55 | X-H torsion
[ 11005 11000 10999 10996 ] final  -30.96 input  -57.11 | X-H torsion

> <Gold.Protein.ActiveResidues>
 VAL166  LYS551  ARG553  GLY616  TRP617  ASP618  TYR619  PRO620  LYS621  CYS622 
 ASP623  PHE694  ASN695  SER759  ASP760  ASP761  ALA762  ILE779  LEU786  VAL792 
 PHE793  MET794  SER795  GLU796  ALA797  LYS798  CYS799  TRP800  GLU811  SER814 

> <Gold.Protein.RotatedAtoms>
  151.1717  135.0320  159.8753 H   0  0  0  0  0  0  0  0  0  0  0  0  # atno 6907 bound_to 6896
  152.5448  134.1164  159.8390 H   0  0  0  0  0  0  0  0  0  0  0  0  # atno 6908 bound_to 6896
  151.1270  133.5017  159.2632 H   0  0  0  0  0  0  0  0  0  0  0  0  # atno 6909 bound_to 6896
  145.1224  140.8677  143.3806 H   0  0  0  0  0  0  0  0  0  0  0  0  # atno 7974 bound_to 7965
  156.2496  140.1948  156.6749 H   0  0  0  0  0  0  0  0  0  0  0  0  # atno 8008 bound_to 7997
  154.6365  140.0589  156.9821 H   0  0  0  0  0  0  0  0  0  0  0  0  # atno 8009 bound_to 7997
  155.1629  140.3261  155.4410 H   0  0  0  0  0  0  0  0  0  0  0  0  # atno 8010 bound_to 7997
  140.6912  143.2952  151.3436 H   0  0  0  0  0  0  0  0  0  0  0  0  # atno 10167 bound_to 10162
  156.2431  130.4181  149.8737 H   0  0  0  0  0  0  0  0  0  0  0  0  # atno 10718 bound_to 10713
  154.2251  135.6371  153.5157 H   0  0  0  0  0  0  0  0  0  0  0  0  # atno 10763 bound_to 10752
  152.9960  135.5506  154.6072 H   0  0  0  0  0  0  0  0  0  0  0  0  # atno 10764 bound_to 10752
  154.5542  135.2904  155.0954 H   0  0  0  0  0  0  0  0  0  0  0  0  # atno 10765 bound_to 10752
  140.9427  133.7269  156.1100 H   0  0  0  0  0  0  0  0  0  0  0  0  # atno 11005 bound_to 11000
  145.0725  139.3020  143.5825 LP  0  0  0  0  0  0  0  0  0  0  0  0  # atno 17320 bound_to 7965
  146.3520  140.0204  142.8659 LP  0  0  0  0  0  0  0  0  0  0  0  0  # atno 17321 bound_to 7965
  139.6317  144.0707  152.2482 LP  0  0  0  0  0  0  0  0  0  0  0  0  # atno 17342 bound_to 10162
  140.0184  144.6171  150.7587 LP  0  0  0  0  0  0  0  0  0  0  0  0  # atno 17343 bound_to 10162
  156.6311  130.8666  151.3495 LP  0  0  0  0  0  0  0  0  0  0  0  0  # atno 17370 bound_to 10713
  157.7184  130.9526  150.1341 LP  0  0  0  0  0  0  0  0  0  0  0  0  # atno 17371 bound_to 10713
  140.7712  134.3831  157.5507 LP  0  0  0  0  0  0  0  0  0  0  0  0  # atno 17394 bound_to 11000
  139.8825  134.9023  156.2829 LP  0  0  0  0  0  0  0  0  0  0  0  0  # atno 17395 bound_to 11000

$$$$
