AV-unprocessed.smi:1231|AV-procd|sdf|5165|dock4
  -GOLD-   22720 4233D 1   1.00000     0.00000
 Structure written by MMmdl.
 43 44  0  0  0  0  0  0  0  0  2 V2000
  152.7210  138.5261  154.4879 C   0  0  0  0  0  0  0  0  0  0  0  0
  151.3361  137.9261  154.2220 C   0  0  2  0  0  0  0  0  0  0  0  0
  150.2505  139.0088  154.0775 C   0  0  0  0  0  0  0  0  0  0  0  0
  148.9175  138.3883  153.8914 N   0  3  2  0  0  0  0  0  0  0  0  0
  147.8492  139.3980  153.6874 C   0  0  0  0  0  0  0  0  0  0  0  0
  146.5372  138.7717  153.1755 C   0  0  0  0  0  0  0  0  0  0  0  0
  146.7642  137.4562  152.5891 N   0  0  0  0  0  0  0  0  0  0  0  0
  145.8019  136.5609  152.3230 C   0  0  0  0  0  0  0  0  0  0  0  0
  144.6085  136.7667  152.5468 O   0  0  0  0  0  0  0  0  0  0  0  0
  146.3133  135.4370  151.7908 N   0  0  0  0  0  0  0  0  0  0  0  0
  145.6182  134.2745  151.3630 C   0  0  0  0  0  0  0  0  0  0  0  0
  146.4340  133.2538  150.8246 C   0  0  0  0  0  0  0  0  0  0  0  0
  145.8406  132.0595  150.3719 C   0  0  0  0  0  0  0  0  0  0  0  0
  144.4448  131.9177  150.4673 C   0  0  0  0  0  0  0  0  0  0  0  0
  143.7057  132.9829  151.0139 C   0  0  0  0  0  0  0  0  0  0  0  0
  144.2725  134.1278  151.4494 N   0  0  0  0  0  0  0  0  0  0  0  0
  148.6332  137.4392  154.9961 C   0  0  0  0  0  0  0  0  0  0  0  0
  149.7641  136.4003  155.1212 C   0  0  2  0  0  0  0  0  0  0  0  0
  149.5491  135.4512  156.3051 C   0  0  0  0  0  0  0  0  0  0  0  0
  151.0009  137.0779  155.3145 O   0  0  0  0  0  0  0  0  0  0  0  0
  153.0307  139.1762  153.6693 H   0  0  0  0  0  0  0  0  0  0  0  0
  153.4719  137.7424  154.5906 H   0  0  0  0  0  0  0  0  0  0  0  0
  152.7277  139.1160  155.4050 H   0  0  0  0  0  0  0  0  0  0  0  0
  151.3870  137.3314  153.3080 H   0  0  0  0  0  0  0  0  0  0  0  0
  150.2333  139.6481  154.9622 H   0  0  0  0  0  0  0  0  0  0  0  0
  150.4813  139.6477  153.2240 H   0  0  0  0  0  0  0  0  0  0  0  0
  147.6889  139.9495  154.6150 H   0  0  0  0  0  0  0  0  0  0  0  0
  148.1845  140.1290  152.9500 H   0  0  0  0  0  0  0  0  0  0  0  0
  145.8331  138.6584  154.0001 H   0  0  0  0  0  0  0  0  0  0  0  0
  146.0505  139.4087  152.4364 H   0  0  0  0  0  0  0  0  0  0  0  0
  147.7200  137.2073  152.3789 H   0  0  0  0  0  0  0  0  0  0  0  0
  147.3156  135.4083  151.6772 H   0  0  0  0  0  0  0  0  0  0  0  0
  147.5051  133.3790  150.7585 H   0  0  0  0  0  0  0  0  0  0  0  0
  146.4467  131.2666  149.9589 H   0  0  0  0  0  0  0  0  0  0  0  0
  143.9535  131.0167  150.1307 H   0  0  0  0  0  0  0  0  0  0  0  0
  142.6317  132.9146  151.1043 H   0  0  0  0  0  0  0  0  0  0  0  0
  148.5247  137.9913  155.9313 H   0  0  0  0  0  0  0  0  0  0  0  0
  147.6903  136.9230  154.8204 H   0  0  0  0  0  0  0  0  0  0  0  0
  149.8196  135.8060  154.2074 H   0  0  0  0  0  0  0  0  0  0  0  0
  148.6174  134.8951  156.1989 H   0  0  0  0  0  0  0  0  0  0  0  0
  149.5065  135.9979  157.2476 H   0  0  0  0  0  0  0  0  0  0  0  0
  150.3615  134.7272  156.3767 H   0  0  0  0  0  0  0  0  0  0  0  0
  148.9729  137.8472  153.0403 H   0  0  0  0  0  0  0  0  0  0  0  0
  1  2  1  0  0  0  0
  1 21  1  0  0  0  0
  1 22  1  0  0  0  0
  1 23  1  0  0  0  0
  2 20  1  0  0  0  0
  2  3  1  0  0  0  0
  2 24  1  0  0  0  0
  3  4  1  0  0  0  0
  3 25  1  0  0  0  0
  3 26  1  0  0  0  0
  4  5  1  0  0  0  0
  4 17  1  0  0  0  0
  4 43  1  0  0  0  0
  5  6  1  0  0  0  0
  5 27  1  0  0  0  0
  5 28  1  0  0  0  0
  6  7  1  0  0  0  0
  6 29  1  0  0  0  0
  6 30  1  0  0  0  0
  7  8  1  0  0  0  0
  7 31  1  0  0  0  0
  8  9  2  0  0  0  0
  8 10  1  0  0  0  0
 10 11  1  0  0  0  0
 10 32  1  0  0  0  0
 11 16  1  0  0  0  0
 11 12  2  0  0  0  0
 12 13  1  0  0  0  0
 12 33  1  0  0  0  0
 13 14  2  0  0  0  0
 13 34  1  0  0  0  0
 14 15  1  0  0  0  0
 14 35  1  0  0  0  0
 15 16  2  0  0  0  0
 15 36  1  0  0  0  0
 17 18  1  0  0  0  0
 17 37  1  0  0  0  0
 17 38  1  0  0  0  0
 18 19  1  0  0  0  0
 18 20  1  0  0  0  0
 18 39  1  0  0  0  0
 19 40  1  0  0  0  0
 19 41  1  0  0  0  0
 19 42  1  0  0  0  0
M  CHG  1   4   1
M  END
> <s_m_source_file>
AV-unprocessed.smi

> <i_m_source_file_index>
1231

> <i_lp_mmshare_version>
43012

> <i_f3d_flags>
0

> <s_epik_input>
W0NIM11bQ0BASF0xW0NIMl1OKFtDSDJdW0NASF0oTzEpW0NIM10pW0NIMl1bQ0gyXVtOSF1DKD1PKVtOSF1jMltjSF1bY0hdW2NIXVtjSF1uMg==

> <s_epik_cmdline>
J2VwaWtfcHl0aG9uJywgJy1waCcsICc3LjAnLCAnLXRuJywgJzgnLCAnLW1hJywgJzIwMCcsICctbWV0YWxfYmluZGluZycsICctaW1hZScsICc8aW5maWxlLm1hZT4nLCAnLW9tYWUnLCAnPG91dGZpbGUubWFlPic=

> <r_epik_Ionization_Penalty>
0.602565

> <r_epik_Ionization_Penalty_Charging>
0.602531

> <r_epik_Ionization_Penalty_Neutral>
3.43186e-05

> <r_epik_State_Penalty>
0.617039

> <r_epik_Charging_Adjusted_Penalty>
1.21957

> <i_epik_Tot_Q>
1

> <i_epik_Tot_abs_Q>
1

> <r_epik_Metal_State_Penalty>
0.617041

> <b_epik_Metal_Only>
0

> <s_lp_Force_Field>
OPLS_2005

> <r_lp_Energy>
15.064

> <b_lp_Chiralities_Consistent>
1

> <s_lp_Variant>
AV-unprocessed.smi:1231-6

> <Gold.Version>
5.8.1

> <Gold.Id.Protein>
6NUR|6NUR_protein|mol2

> <Gold.PLP.Fitness>
49.2053

> <Gold.PLP.PLP>
-35.0433

> <Gold.PLP.part.hbond>
-3.0000

> <Gold.PLP.part.metal>
0.0000

> <Gold.PLP.part.buried>
-4.8629

> <Gold.PLP.part.nonpolar>
-28.1297

> <Gold.PLP.part.repulsive>
0.5964

> <Gold.PLP.ligand.clash>
0.0000

> <Gold.PLP.ligand.torsion>
0.4349

> <Gold.PLP.Chemscore.Hbond>
4.0000

> <Gold.PLP.Chemscore.CHOScore>
1.0000

> <Gold.PLP.Chemscore.Metal>
0.0000

> <Gold.Chemscore.Hbonds>
donor molecule, donor type, donor heavy atom, donor atom, acceptor molecule, acceptor atom, score
      L1  H     4    43       P1  7948  2.00
      L1  H     7    31       P1  7948  1.00
      L1  H    10    32       P1  7948  1.00
      L1  C    15    36       P1 10186  0.48

> <Gold.PLP.Chemscore.Internal.Correction>
0.0319

> <Gold.Rescore>
     Score         DG    S(hbond)    S(metal)    S(lipo)     H(rot)  DE(clash)    DE(int)     intcor
     18.80     -20.70       2.90        0.00      81.27       1.55       0.02       1.88       ----

> <Gold.Chemscore.Fitness>
18.8027

> <Gold.Chemscore.DG>
-20.7023

> <Gold.Chemscore.ZeroCoef>
-5.4800

> <Gold.Chemscore.Hbond>
2.9024

> <Gold.Chemscore.Metal>
0.0000

> <Gold.Chemscore.Lipo>
81.2651

> <Gold.Chemscore.Internal_Hbond>
0.0000

> <Gold.Chemscore.DEClash>
0.0157

> <Gold.Chemscore.DEInternal>
1.8839

> <Gold.Chemscore.Rot>
1.5546

> <Gold.Chemscore.Internal.Correction>
   9.000000E+99

> <Gold.Chemscore.Hbonds>
donor molecule, donor type, donor heavy atom, donor atom, acceptor molecule, acceptor atom, score
      L1  H     4    43       P1  7948  0.97
      L1  H     7    31       P1  7948  0.98
      L1  H    10    32       P1  7948  0.93

> <Gold.Chemscore.Hbond.Weighted>
-9.6939

> <Gold.Chemscore.Metal.Weighted>
-0.0000

> <Gold.Chemscore.Lipo.Weighted>
-9.5080

> <Gold.Chemscore.Internal_Hbond.Weighted>
0.0000

> <Gold.Chemscore.DEClash.Weighted>
0.0157

> <Gold.Chemscore.DEInternal.Weighted>
1.8839

> <Gold.Chemscore.Rot.Weighted>
3.9797

> <Gold.Chemscore.Internal.Correction.Weighted>
   9.000000E+99

> <Gold.Protein.RotatedTorsions>
[ 6907 6896 6895 6894 ] final -153.60 input  -60.11 | X-H torsion
[ 7974 7965 7964 7962 ] final  161.92 input  175.53 | X-H torsion
[ 8008 7997 7996 7995 ] final   50.26 input   59.86 | X-H torsion
[ 10167 10162 10161 10158 ] final  -25.07 input  -65.29 | X-H torsion
[ 10718 10713 10712 10709 ] final  -33.14 input   66.30 | X-H torsion
[ 10763 10752 10751 10750 ] final -178.41 input  -60.55 | X-H torsion
[ 11005 11000 10999 10996 ] final  -16.79 input  -57.11 | X-H torsion

> <Gold.Protein.ActiveResidues>
 VAL166  LYS551  ARG553  GLY616  TRP617  ASP618  TYR619  PRO620  LYS621  CYS622 
 ASP623  PHE694  ASN695  SER759  ASP760  ASP761  ALA762  ILE779  LEU786  VAL792 
 PHE793  MET794  SER795  GLU796  ALA797  LYS798  CYS799  TRP800  GLU811  SER814 

> <Gold.Protein.RotatedAtoms>
  151.2450  133.4379  159.2608 H   0  0  0  0  0  0  0  0  0  0  0  0  # atno 6907 bound_to 6896
  151.0670  134.9774  159.8299 H   0  0  0  0  0  0  0  0  0  0  0  0  # atno 6908 bound_to 6896
  152.5407  134.2397  159.8910 H   0  0  0  0  0  0  0  0  0  0  0  0  # atno 6909 bound_to 6896
  144.7662  139.7966  143.6314 H   0  0  0  0  0  0  0  0  0  0  0  0  # atno 7974 bound_to 7965
  155.4159  140.3444  155.4267 H   0  0  0  0  0  0  0  0  0  0  0  0  # atno 8008 bound_to 7997
  156.1422  140.1545  156.8935 H   0  0  0  0  0  0  0  0  0  0  0  0  # atno 8009 bound_to 7997
  154.4980  140.0822  156.7718 H   0  0  0  0  0  0  0  0  0  0  0  0  # atno 8010 bound_to 7997
  140.7287  143.4297  151.0821 H   0  0  0  0  0  0  0  0  0  0  0  0  # atno 10167 bound_to 10162
  156.3663  130.4332  149.7582 H   0  0  0  0  0  0  0  0  0  0  0  0  # atno 10718 bound_to 10713
  154.5481  135.2811  155.1034 H   0  0  0  0  0  0  0  0  0  0  0  0  # atno 10763 bound_to 10752
  154.2490  135.6343  153.5237 H   0  0  0  0  0  0  0  0  0  0  0  0  # atno 10764 bound_to 10752
  152.9996  135.5578  154.6039 H   0  0  0  0  0  0  0  0  0  0  0  0  # atno 10765 bound_to 10752
  140.8103  133.8146  155.9556 H   0  0  0  0  0  0  0  0  0  0  0  0  # atno 11005 bound_to 11000
  146.1771  139.4946  142.9890 LP  0  0  0  0  0  0  0  0  0  0  0  0  # atno 17320 bound_to 7965
  145.6464  141.0273  143.1784 LP  0  0  0  0  0  0  0  0  0  0  0  0  # atno 17321 bound_to 7965
  139.7953  143.8161  152.3157 LP  0  0  0  0  0  0  0  0  0  0  0  0  # atno 17342 bound_to 10162
  139.8159  144.7316  150.9636 LP  0  0  0  0  0  0  0  0  0  0  0  0  # atno 17343 bound_to 10162
  156.4726  130.8004  151.3021 LP  0  0  0  0  0  0  0  0  0  0  0  0  # atno 17370 bound_to 10713
  157.7479  131.0031  150.3025 LP  0  0  0  0  0  0  0  0  0  0  0  0  # atno 17371 bound_to 10713
  140.9205  134.2148  157.4930 LP  0  0  0  0  0  0  0  0  0  0  0  0  # atno 17394 bound_to 11000
  139.8714  134.9790  156.5019 LP  0  0  0  0  0  0  0  0  0  0  0  0  # atno 17395 bound_to 11000

$$$$
