AV-unprocessed.smi:1033|AV-procd|sdf|4496|dock2
  -GOLD-   22720 2483D 1   1.00000     0.00000
 Structure written by MMmdl.
 56 58  0  0  0  0  0  0  0  0  2 V2000
  152.5802  143.1188  160.6411 C   0  0  0  0  0  0  0  0  0  0  0  0
  152.2914  142.2337  159.4416 C   0  0  0  0  0  0  0  0  0  0  0  0
  152.7600  140.9006  159.4419 C   0  0  0  0  0  0  0  0  0  0  0  0
  152.5171  140.0468  158.3437 C   0  0  0  0  0  0  0  0  0  0  0  0
  152.8794  138.7276  158.1343 N   0  0  0  0  0  0  0  0  0  0  0  0
  152.3679  138.4978  156.9286 C   0  0  0  0  0  0  0  0  0  0  0  0
  151.7224  139.5155  156.3265 N   0  0  0  0  0  0  0  0  0  0  0  0
  151.0930  139.5028  155.0152 C   0  0  0  0  0  0  0  0  0  0  0  0
  150.4100  138.1608  154.6638 C   0  0  2  0  0  0  0  0  0  0  0  0
  151.3581  137.3008  154.0651 O   0  0  0  0  0  0  0  0  0  0  0  0
  149.2174  138.2803  153.6897 C   0  0  0  0  0  0  0  0  0  0  0  0
  147.9880  138.8389  154.2633 N   0  0  0  0  0  0  0  0  0  0  0  0
  147.1238  139.4557  153.2579 C   0  0  0  0  0  0  0  0  0  0  0  0
  146.4234  138.4291  152.3437 C   0  0  0  0  0  0  0  0  0  0  0  0
  145.6337  137.4666  153.1581 N   0  3  0  0  0  0  0  0  0  0  0  0
  144.8796  136.4748  152.3493 C   0  0  0  0  0  0  0  0  0  0  0  0
  145.7310  135.8503  151.2259 C   0  0  1  0  0  0  0  0  0  0  0  0
  145.3158  134.4042  150.9249 C   0  0  0  0  0  0  0  0  0  0  0  0
  145.5727  136.6082  150.0432 O   0  0  0  0  0  0  0  0  0  0  0  0
  146.4923  136.8234  154.1862 C   0  0  0  0  0  0  0  0  0  0  0  0
  147.1911  137.8937  155.0479 C   0  0  0  0  0  0  0  0  0  0  0  0
  151.7857  140.5666  157.2361 C   0  0  0  0  0  0  0  0  0  0  0  0
  151.3066  141.8886  157.2289 C   0  0  0  0  0  0  0  0  0  0  0  0
  151.5618  142.7296  158.3316 C   0  0  0  0  0  0  0  0  0  0  0  0
  151.0490  144.1582  158.3062 C   0  0  0  0  0  0  0  0  0  0  0  0
  153.1520  142.5854  161.4009 H   0  0  0  0  0  0  0  0  0  0  0  0
  151.6506  143.4583  161.0983 H   0  0  0  0  0  0  0  0  0  0  0  0
  153.1586  143.9926  160.3404 H   0  0  0  0  0  0  0  0  0  0  0  0
  153.3139  140.5214  160.2881 H   0  0  0  0  0  0  0  0  0  0  0  0
  152.4745  137.5348  156.4511 H   0  0  0  0  0  0  0  0  0  0  0  0
  150.3711  140.3193  154.9705 H   0  0  0  0  0  0  0  0  0  0  0  0
  151.8540  139.7335  154.2692 H   0  0  0  0  0  0  0  0  0  0  0  0
  150.0945  137.6722  155.5849 H   0  0  0  0  0  0  0  0  0  0  0  0
  151.0244  137.0218  153.2260 H   0  0  0  0  0  0  0  0  0  0  0  0
  149.5264  138.9024  152.8487 H   0  0  0  0  0  0  0  0  0  0  0  0
  149.0155  137.2996  153.2595 H   0  0  0  0  0  0  0  0  0  0  0  0
  146.3645  140.0549  153.7626 H   0  0  0  0  0  0  0  0  0  0  0  0
  147.7005  140.1583  152.6548 H   0  0  0  0  0  0  0  0  0  0  0  0
  145.7723  138.9628  151.6529 H   0  0  0  0  0  0  0  0  0  0  0  0
  147.1520  137.8934  151.7337 H   0  0  0  0  0  0  0  0  0  0  0  0
  144.4877  135.6989  153.0088 H   0  0  0  0  0  0  0  0  0  0  0  0
  144.0100  136.9557  151.8977 H   0  0  0  0  0  0  0  0  0  0  0  0
  146.7867  135.8529  151.4951 H   0  0  0  0  0  0  0  0  0  0  0  0
  145.4405  133.7710  151.8038 H   0  0  0  0  0  0  0  0  0  0  0  0
  145.9232  133.9781  150.1254 H   0  0  0  0  0  0  0  0  0  0  0  0
  144.2711  134.3439  150.6173 H   0  0  0  0  0  0  0  0  0  0  0  0
  144.9321  137.2860  150.1992 H   0  0  0  0  0  0  0  0  0  0  0  0
  145.8780  136.1933  154.8304 H   0  0  0  0  0  0  0  0  0  0  0  0
  147.2213  136.1675  153.7086 H   0  0  0  0  0  0  0  0  0  0  0  0
  147.8038  137.4175  155.8123 H   0  0  0  0  0  0  0  0  0  0  0  0
  146.4291  138.4493  155.5964 H   0  0  0  0  0  0  0  0  0  0  0  0
  150.7519  142.2552  156.3782 H   0  0  0  0  0  0  0  0  0  0  0  0
  150.5118  144.3715  157.3815 H   0  0  0  0  0  0  0  0  0  0  0  0
  151.8780  144.8621  158.3809 H   0  0  0  0  0  0  0  0  0  0  0  0
  150.3668  144.3345  159.1381 H   0  0  0  0  0  0  0  0  0  0  0  0
  144.9454  138.0057  153.6642 H   0  0  0  0  0  0  0  0  0  0  0  0
  1  2  1  0  0  0  0
  1 26  1  0  0  0  0
  1 27  1  0  0  0  0
  1 28  1  0  0  0  0
  2 24  1  0  0  0  0
  2  3  2  0  0  0  0
  3  4  1  0  0  0  0
  3 29  1  0  0  0  0
  4 22  2  0  0  0  0
  4  5  1  0  0  0  0
  5  6  2  0  0  0  0
  6  7  1  0  0  0  0
  6 30  1  0  0  0  0
  7  8  1  0  0  0  0
  7 22  1  0  0  0  0
  8  9  1  0  0  0  0
  8 31  1  0  0  0  0
  8 32  1  0  0  0  0
  9 10  1  0  0  0  0
  9 11  1  0  0  0  0
  9 33  1  0  0  0  0
 10 34  1  0  0  0  0
 11 12  1  0  0  0  0
 11 35  1  0  0  0  0
 11 36  1  0  0  0  0
 12 21  1  0  0  0  0
 12 13  1  0  0  0  0
 13 14  1  0  0  0  0
 13 37  1  0  0  0  0
 13 38  1  0  0  0  0
 14 15  1  0  0  0  0
 14 39  1  0  0  0  0
 14 40  1  0  0  0  0
 15 16  1  0  0  0  0
 15 20  1  0  0  0  0
 15 56  1  0  0  0  0
 16 17  1  0  0  0  0
 16 41  1  0  0  0  0
 16 42  1  0  0  0  0
 17 18  1  0  0  0  0
 17 19  1  0  0  0  0
 17 43  1  0  0  0  0
 18 44  1  0  0  0  0
 18 45  1  0  0  0  0
 18 46  1  0  0  0  0
 19 47  1  0  0  0  0
 20 21  1  0  0  0  0
 20 48  1  0  0  0  0
 20 49  1  0  0  0  0
 21 50  1  0  0  0  0
 21 51  1  0  0  0  0
 22 23  1  0  0  0  0
 23 24  2  0  0  0  0
 23 52  1  0  0  0  0
 24 25  1  0  0  0  0
 25 53  1  0  0  0  0
 25 54  1  0  0  0  0
 25 55  1  0  0  0  0
M  CHG  1  15   1
M  END
> <s_m_source_file>
AV-unprocessed.smi

> <i_m_source_file_index>
1033

> <i_lp_mmshare_version>
43012

> <i_f3d_flags>
0

> <s_epik_input>
W0NIM11jKFtjSF0xKWMoW0NIM10pW2NIXWMoYzEyKW4oW2NIXW4yKVtDSDJdW0NASF0oW09IXSlbQ0gyXU4zW0NIMl1bQ0gyXU4oW0NIMl1bQ0gyXTMpW0NIMl1bQ0BIXShbQ0gzXSlbT0hd

> <s_epik_cmdline>
J2VwaWtfcHl0aG9uJywgJy1waCcsICc3LjAnLCAnLXRuJywgJzgnLCAnLW1hJywgJzIwMCcsICctbWV0YWxfYmluZGluZycsICctaW1hZScsICc8aW5maWxlLm1hZT4nLCAnLW9tYWUnLCAnPG91dGZpbGUubWFlPic=

> <r_epik_Ionization_Penalty>
0.129152

> <r_epik_Ionization_Penalty_Charging>
0.00083231

> <r_epik_Ionization_Penalty_Neutral>
0.128319

> <r_epik_State_Penalty>
0.556973

> <r_epik_Charging_Adjusted_Penalty>
0.557805

> <i_epik_Tot_Q>
1

> <i_epik_Tot_abs_Q>
1

> <r_epik_Metal_State_Penalty>
0.490047

> <b_epik_Metal_Only>
0

> <s_lp_Force_Field>
OPLS_2005

> <r_lp_Energy>
31.9095

> <b_lp_Chiralities_Consistent>
1

> <s_lp_Variant>
AV-unprocessed.smi:1033-7

> <Gold.Version>
5.8.1

> <Gold.Id.Protein>
6NUR|6NUR_protein|mol2

> <Gold.PLP.Fitness>
47.3628

> <Gold.PLP.PLP>
-43.5600

> <Gold.PLP.part.hbond>
-3.2366

> <Gold.PLP.part.metal>
0.0000

> <Gold.PLP.part.buried>
-0.2021

> <Gold.PLP.part.nonpolar>
-40.6702

> <Gold.PLP.part.repulsive>
0.1442

> <Gold.PLP.ligand.clash>
0.0000

> <Gold.PLP.ligand.torsion>
1.5487

> <Gold.PLP.Chemscore.Hbond>
2.2112

> <Gold.PLP.Chemscore.CHOScore>
0.0000

> <Gold.PLP.Chemscore.Metal>
0.0000

> <Gold.Chemscore.Hbonds>
donor molecule, donor type, donor heavy atom, donor atom, acceptor molecule, acceptor atom, score
      L1  H    10    34       P1  7949  1.00
      L1  H    19    47       P1 10171  1.00
      P1  H 10752 10763       L1    10  0.19

> <Gold.PLP.Chemscore.Internal.Correction>
0.2664

> <Gold.Rescore>
     Score         DG    S(hbond)    S(metal)    S(lipo)     H(rot)  DE(clash)    DE(int)     intcor
     14.23     -17.11       1.24        0.00     130.93       3.07       1.35       1.53       ----

> <Gold.Chemscore.Fitness>
14.2324

> <Gold.Chemscore.DG>
-17.1060

> <Gold.Chemscore.ZeroCoef>
-5.4800

> <Gold.Chemscore.Hbond>
1.2437

> <Gold.Chemscore.Metal>
0.0000

> <Gold.Chemscore.Lipo>
130.9276

> <Gold.Chemscore.Internal_Hbond>
0.0000

> <Gold.Chemscore.DEClash>
1.3474

> <Gold.Chemscore.DEInternal>
1.5262

> <Gold.Chemscore.Rot>
3.0650

> <Gold.Chemscore.Internal.Correction>
   9.000000E+99

> <Gold.Chemscore.Hbonds>
donor molecule, donor type, donor heavy atom, donor atom, acceptor molecule, acceptor atom, score
      L1  H    10    34       P1  7949  0.27
      L1  H    19    47       P1 10171  0.98
      P1  H 10752 10763       L1    10  0.01

> <Gold.Chemscore.Hbond.Weighted>
-4.1539

> <Gold.Chemscore.Metal.Weighted>
-0.0000

> <Gold.Chemscore.Lipo.Weighted>
-15.3185

> <Gold.Chemscore.Internal_Hbond.Weighted>
0.0000

> <Gold.Chemscore.DEClash.Weighted>
1.3474

> <Gold.Chemscore.DEInternal.Weighted>
1.5262

> <Gold.Chemscore.Rot.Weighted>
7.8465

> <Gold.Chemscore.Internal.Correction.Weighted>
   9.000000E+99

> <Gold.Protein.RotatedTorsions>
[ 6907 6896 6895 6894 ] final -168.76 input  -60.11 | X-H torsion
[ 7974 7965 7964 7962 ] final   19.17 input  175.53 | X-H torsion
[ 8008 7997 7996 7995 ] final -106.27 input   59.86 | X-H torsion
[ 10167 10162 10161 10158 ] final   72.65 input  -65.29 | X-H torsion
[ 10718 10713 10712 10709 ] final  159.14 input   66.30 | X-H torsion
[ 10763 10752 10751 10750 ] final   26.21 input  -60.55 | X-H torsion
[ 11005 11000 10999 10996 ] final -175.81 input  -57.11 | X-H torsion

> <Gold.Protein.ActiveResidues>
 VAL166  LYS551  ARG553  GLY616  TRP617  ASP618  TYR619  PRO620  LYS621  CYS622 
 ASP623  PHE694  ASN695  SER759  ASP760  ASP761  ALA762  ILE779  LEU786  VAL792 
 PHE793  MET794  SER795  GLU796  ALA797  LYS798  CYS799  TRP800  GLU811  SER814 

> <Gold.Protein.RotatedAtoms>
  151.4808  133.3547  159.2837 H   0  0  0  0  0  0  0  0  0  0  0  0  # atno 6907 bound_to 6896
  150.8899  134.8303  159.7296 H   0  0  0  0  0  0  0  0  0  0  0  0  # atno 6908 bound_to 6896
  152.4816  134.4716  159.9689 H   0  0  0  0  0  0  0  0  0  0  0  0  # atno 6909 bound_to 6896
  146.2159  139.8351  142.8652 H   0  0  0  0  0  0  0  0  0  0  0  0  # atno 7974 bound_to 7965
  154.9120  140.0409  157.1951 H   0  0  0  0  0  0  0  0  0  0  0  0  # atno 8008 bound_to 7997
  154.8339  140.2903  155.5683 H   0  0  0  0  0  0  0  0  0  0  0  0  # atno 8009 bound_to 7997
  156.2988  140.2495  156.3269 H   0  0  0  0  0  0  0  0  0  0  0  0  # atno 8010 bound_to 7997
  140.0330  144.5450  150.7492 H   0  0  0  0  0  0  0  0  0  0  0  0  # atno 10167 bound_to 10162
  157.1682  131.0603  151.2196 H   0  0  0  0  0  0  0  0  0  0  0  0  # atno 10718 bound_to 10713
  153.0638  135.6565  154.0401 H   0  0  0  0  0  0  0  0  0  0  0  0  # atno 10763 bound_to 10752
  154.0062  135.2932  155.3399 H   0  0  0  0  0  0  0  0  0  0  0  0  # atno 10764 bound_to 10752
  154.6988  135.5253  153.8565 H   0  0  0  0  0  0  0  0  0  0  0  0  # atno 10765 bound_to 10752
  140.4591  134.6271  157.4835 H   0  0  0  0  0  0  0  0  0  0  0  0  # atno 11005 bound_to 11000
  145.2957  141.0180  143.3637 LP  0  0  0  0  0  0  0  0  0  0  0  0  # atno 17320 bound_to 7965
  144.9044  139.4608  143.6617 LP  0  0  0  0  0  0  0  0  0  0  0  0  # atno 17321 bound_to 7965
  140.7294  143.2672  151.4007 LP  0  0  0  0  0  0  0  0  0  0  0  0  # atno 17342 bound_to 10162
  139.6063  144.1190  152.2253 LP  0  0  0  0  0  0  0  0  0  0  0  0  # atno 17343 bound_to 10162
  157.4068  130.7363  149.6808 LP  0  0  0  0  0  0  0  0  0  0  0  0  # atno 17370 bound_to 10713
  155.9742  130.4106  150.3938 LP  0  0  0  0  0  0  0  0  0  0  0  0  # atno 17371 bound_to 10713
  139.9957  134.6915  155.9614 LP  0  0  0  0  0  0  0  0  0  0  0  0  # atno 17394 bound_to 11000
  141.1629  133.6538  156.4381 LP  0  0  0  0  0  0  0  0  0  0  0  0  # atno 17395 bound_to 11000

$$$$
