AV-unprocessed.smi:1047|AV-procd|sdf|4579|dock7
  -GOLD-   22720 3 43D 1   1.00000     0.00000
 Structure written by MMmdl.
 56 58  0  0  0  0  0  0  0  0  2 V2000
  143.7390  146.8900  154.7514 C   0  0  0  0  0  0  0  0  0  0  0  0
  143.4071  145.9931  153.5503 C   0  0  0  0  0  0  0  0  0  0  0  0
  143.8182  144.5826  153.7611 N   0  3  2  0  0  0  0  0  0  0  0  0
  143.3715  144.0218  155.0600 C   0  0  0  0  0  0  0  0  0  0  0  0
  143.8159  142.5560  155.1944 C   0  0  0  0  0  0  0  0  0  0  0  0
  145.2264  142.4693  155.0369 O   0  0  0  0  0  0  0  0  0  0  0  0
  145.6514  142.9021  153.7484 C   0  0  2  0  0  0  0  0  0  0  0  0
  147.1673  142.6781  153.6410 C   0  0  0  0  0  0  0  0  0  0  0  0
  147.7380  142.3368  154.9398 N   0  0  0  0  0  0  0  0  0  0  0  0
  147.9935  140.9089  155.1080 C   0  0  0  0  0  0  0  0  0  0  0  0
  149.5058  140.6120  155.0911 C   0  0  1  0  0  0  0  0  0  0  0  0
  149.9206  140.4901  153.7465 O   0  0  0  0  0  0  0  0  0  0  0  0
  150.3635  141.7194  155.7341 C   0  0  0  0  0  0  0  0  0  0  0  0
  151.2218  141.2220  156.7939 N   0  0  0  0  0  0  0  0  0  0  0  0
  151.8959  140.0561  156.8080 C   0  0  0  0  0  0  0  0  0  0  0  0
  152.6310  139.7907  157.8839 N   0  0  0  0  0  0  0  0  0  0  0  0
  152.4138  140.9195  158.6555 C   0  0  0  0  0  0  0  0  0  0  0  0
  152.9118  141.2678  159.9300 C   0  0  0  0  0  0  0  0  0  0  0  0
  152.5522  142.4911  160.5391 C   0  0  0  0  0  0  0  0  0  0  0  0
  153.1111  142.8256  161.9110 C   0  0  0  0  0  0  0  0  0  0  0  0
  151.6817  143.3888  159.8704 C   0  0  0  0  0  0  0  0  0  0  0  0
  151.2840  144.7103  160.5038 C   0  0  0  0  0  0  0  0  0  0  0  0
  151.1733  143.0554  158.5976 C   0  0  0  0  0  0  0  0  0  0  0  0
  151.5385  141.8354  158.0015 C   0  0  0  0  0  0  0  0  0  0  0  0
  145.2783  144.3889  153.5899 C   0  0  0  0  0  0  0  0  0  0  0  0
  143.3409  147.8935  154.6004 H   0  0  0  0  0  0  0  0  0  0  0  0
  144.8132  146.9896  154.9041 H   0  0  0  0  0  0  0  0  0  0  0  0
  143.3016  146.4975  155.6700 H   0  0  0  0  0  0  0  0  0  0  0  0
  142.3278  146.0290  153.3958 H   0  0  0  0  0  0  0  0  0  0  0  0
  143.8627  146.3849  152.6395 H   0  0  0  0  0  0  0  0  0  0  0  0
  143.7892  144.6120  155.8770 H   0  0  0  0  0  0  0  0  0  0  0  0
  142.2867  144.0763  155.1469 H   0  0  0  0  0  0  0  0  0  0  0  0
  143.5464  142.1708  156.1778 H   0  0  0  0  0  0  0  0  0  0  0  0
  143.3147  141.9257  154.4577 H   0  0  0  0  0  0  0  0  0  0  0  0
  145.1459  142.3201  152.9750 H   0  0  0  0  0  0  0  0  0  0  0  0
  147.3631  141.8662  152.9395 H   0  0  0  0  0  0  0  0  0  0  0  0
  147.6484  143.5675  153.2321 H   0  0  0  0  0  0  0  0  0  0  0  0
  148.5999  142.8551  155.0797 H   0  0  0  0  0  0  0  0  0  0  0  0
  147.5428  140.5397  156.0303 H   0  0  0  0  0  0  0  0  0  0  0  0
  147.5073  140.3727  154.2930 H   0  0  0  0  0  0  0  0  0  0  0  0
  149.7051  139.6692  155.6030 H   0  0  0  0  0  0  0  0  0  0  0  0
  149.2940  139.9499  153.2897 H   0  0  0  0  0  0  0  0  0  0  0  0
  150.9966  142.1912  154.9809 H   0  0  0  0  0  0  0  0  0  0  0  0
  149.7271  142.5065  156.1401 H   0  0  0  0  0  0  0  0  0  0  0  0
  151.8406  139.3617  155.9822 H   0  0  0  0  0  0  0  0  0  0  0  0
  153.5757  140.5842  160.4384 H   0  0  0  0  0  0  0  0  0  0  0  0
  153.7439  143.7118  161.8584 H   0  0  0  0  0  0  0  0  0  0  0  0
  153.7121  142.0066  162.3072 H   0  0  0  0  0  0  0  0  0  0  0  0
  152.3035  143.0178  162.6176 H   0  0  0  0  0  0  0  0  0  0  0  0
  150.6592  145.3007  159.8328 H   0  0  0  0  0  0  0  0  0  0  0  0
  152.1679  145.3019  160.7427 H   0  0  0  0  0  0  0  0  0  0  0  0
  150.7217  144.5392  161.4219 H   0  0  0  0  0  0  0  0  0  0  0  0
  150.5076  143.7298  158.0797 H   0  0  0  0  0  0  0  0  0  0  0  0
  145.5795  144.7378  152.6012 H   0  0  0  0  0  0  0  0  0  0  0  0
  145.8156  144.9944  154.3219 H   0  0  0  0  0  0  0  0  0  0  0  0
  143.3732  144.0398  153.0346 H   0  0  0  0  0  0  0  0  0  0  0  0
  1  2  1  0  0  0  0
  1 26  1  0  0  0  0
  1 27  1  0  0  0  0
  1 28  1  0  0  0  0
  2  3  1  0  0  0  0
  2 29  1  0  0  0  0
  2 30  1  0  0  0  0
  3 25  1  0  0  0  0
  3  4  1  0  0  0  0
  3 56  1  0  0  0  0
  4  5  1  0  0  0  0
  4 31  1  0  0  0  0
  4 32  1  0  0  0  0
  5  6  1  0  0  0  0
  5 33  1  0  0  0  0
  5 34  1  0  0  0  0
  6  7  1  0  0  0  0
  7  8  1  0  0  0  0
  7 25  1  0  0  0  0
  7 35  1  0  0  0  0
  8  9  1  0  0  0  0
  8 36  1  0  0  0  0
  8 37  1  0  0  0  0
  9 10  1  0  0  0  0
  9 38  1  0  0  0  0
 10 11  1  0  0  0  0
 10 39  1  0  0  0  0
 10 40  1  0  0  0  0
 11 12  1  0  0  0  0
 11 13  1  0  0  0  0
 11 41  1  0  0  0  0
 12 42  1  0  0  0  0
 13 14  1  0  0  0  0
 13 43  1  0  0  0  0
 13 44  1  0  0  0  0
 14 24  1  0  0  0  0
 14 15  1  0  0  0  0
 15 16  2  0  0  0  0
 15 45  1  0  0  0  0
 16 17  1  0  0  0  0
 17 24  2  0  0  0  0
 17 18  1  0  0  0  0
 18 19  2  0  0  0  0
 18 46  1  0  0  0  0
 19 20  1  0  0  0  0
 19 21  1  0  0  0  0
 20 47  1  0  0  0  0
 20 48  1  0  0  0  0
 20 49  1  0  0  0  0
 21 22  1  0  0  0  0
 21 23  2  0  0  0  0
 22 50  1  0  0  0  0
 22 51  1  0  0  0  0
 22 52  1  0  0  0  0
 23 24  1  0  0  0  0
 23 53  1  0  0  0  0
 25 54  1  0  0  0  0
 25 55  1  0  0  0  0
M  CHG  1   3   1
M  END
> <s_m_source_file>
AV-unprocessed.smi

> <i_m_source_file_index>
1047

> <i_lp_mmshare_version>
43012

> <i_f3d_flags>
0

> <s_epik_input>
W0NIM11bQ0gyXU4xW0NIMl1bQ0gyXU9bQ0BIXShbQ0gyXTEpW0NIMl1bTkhdW0NIMl1bQ0BIXShbT0hdKVtDSDJdbihbY0hdbjIpYyhjMjMpW2NIXWMoW0NIM10pYyhbY0hdMylbQ0gzXQ==

> <s_epik_cmdline>
J2VwaWtfcHl0aG9uJywgJy1waCcsICc3LjAnLCAnLXRuJywgJzgnLCAnLW1hJywgJzIwMCcsICctbWV0YWxfYmluZGluZycsICctaW1hZScsICc8aW5maWxlLm1hZT4nLCAnLW9tYWUnLCAnPG91dGZpbGUubWFlPic=

> <r_epik_Ionization_Penalty>
1.19246

> <r_epik_Ionization_Penalty_Charging>
0.210041

> <r_epik_Ionization_Penalty_Neutral>
0.982415

> <r_epik_State_Penalty>
1.57595

> <r_epik_Charging_Adjusted_Penalty>
1.78599

> <i_epik_Tot_Q>
1

> <i_epik_Tot_abs_Q>
1

> <r_epik_Metal_State_Penalty>
1.46172

> <b_epik_Metal_Only>
0

> <s_lp_Force_Field>
OPLS_2005

> <r_lp_Energy>
30.8486

> <b_lp_Chiralities_Consistent>
1

> <s_lp_Variant>
AV-unprocessed.smi:1047-20

> <Gold.Version>
5.8.1

> <Gold.Id.Protein>
6NUR|6NUR_protein|mol2

> <Gold.PLP.Fitness>
61.3312

> <Gold.PLP.PLP>
-52.5591

> <Gold.PLP.part.hbond>
-5.2048

> <Gold.PLP.part.metal>
0.0000

> <Gold.PLP.part.buried>
-7.0243

> <Gold.PLP.part.nonpolar>
-40.5976

> <Gold.PLP.part.repulsive>
0.2127

> <Gold.PLP.ligand.clash>
0.0000

> <Gold.PLP.ligand.torsion>
2.7364

> <Gold.PLP.Chemscore.Hbond>
4.6897

> <Gold.PLP.Chemscore.CHOScore>
0.0000

> <Gold.PLP.Chemscore.Metal>
0.0000

> <Gold.Chemscore.Hbonds>
donor molecule, donor type, donor heavy atom, donor atom, acceptor molecule, acceptor atom, score
      L1  H     3    56       P1 10174  2.00
      L1  H     9    38       P1  8028  0.59
      L1  H    12    42       P1  7957  0.15
      P1  H  7989  7998       L1    12  0.61
      P1  H  7997  8009       L1    16  0.67
      P1  H  8011  8017       L1    12  0.10

> <Gold.PLP.Chemscore.Internal.Correction>
0.1755

> <Gold.Rescore>
     Score         DG    S(hbond)    S(metal)    S(lipo)     H(rot)  DE(clash)    DE(int)     intcor
     20.90     -24.03       2.69        0.00     138.97       2.62       0.52       2.61       ----

> <Gold.Chemscore.Fitness>
20.8966

> <Gold.Chemscore.DG>
-24.0264

> <Gold.Chemscore.ZeroCoef>
-5.4800

> <Gold.Chemscore.Hbond>
2.6936

> <Gold.Chemscore.Metal>
0.0000

> <Gold.Chemscore.Lipo>
138.9690

> <Gold.Chemscore.Internal_Hbond>
0.0000

> <Gold.Chemscore.DEClash>
0.5245

> <Gold.Chemscore.DEInternal>
2.6054

> <Gold.Chemscore.Rot>
2.6209

> <Gold.Chemscore.Internal.Correction>
   9.000000E+99

> <Gold.Chemscore.Hbonds>
donor molecule, donor type, donor heavy atom, donor atom, acceptor molecule, acceptor atom, score
      L1  H     3    56       P1 10174  0.99
      L1  H     9    38       P1  8028  0.57
      L1  H    12    42       P1  7957  0.15
      P1  H  7989  7998       L1    12  0.54
      P1  H  7997  8009       L1    16  0.08
      P1  H  8011  8017       L1    12  0.02

> <Gold.Chemscore.Hbond.Weighted>
-8.9967

> <Gold.Chemscore.Metal.Weighted>
-0.0000

> <Gold.Chemscore.Lipo.Weighted>
-16.2594

> <Gold.Chemscore.Internal_Hbond.Weighted>
0.0000

> <Gold.Chemscore.DEClash.Weighted>
0.5245

> <Gold.Chemscore.DEInternal.Weighted>
2.6054

> <Gold.Chemscore.Rot.Weighted>
6.7096

> <Gold.Chemscore.Internal.Correction.Weighted>
   9.000000E+99

> <Gold.Protein.RotatedTorsions>
[ 6907 6896 6895 6894 ] final  147.52 input  -60.11 | X-H torsion
[ 7974 7965 7964 7962 ] final   30.69 input  175.53 | X-H torsion
[ 8008 7997 7996 7995 ] final  152.23 input   59.86 | X-H torsion
[ 10167 10162 10161 10158 ] final   96.04 input  -65.29 | X-H torsion
[ 10718 10713 10712 10709 ] final   89.95 input   66.30 | X-H torsion
[ 10763 10752 10751 10750 ] final   18.58 input  -60.55 | X-H torsion
[ 11005 11000 10999 10996 ] final  165.63 input  -57.11 | X-H torsion

> <Gold.Protein.ActiveResidues>
 VAL166  LYS551  ARG553  GLY616  TRP617  ASP618  TYR619  PRO620  LYS621  CYS622 
 ASP623  PHE694  ASN695  SER759  ASP760  ASP761  ALA762  ILE779  LEU786  VAL792 
 PHE793  MET794  SER795  GLU796  ALA797  LYS798  CYS799  TRP800  GLU811  SER814 

> <Gold.Protein.RotatedAtoms>
  152.1537  133.4538  159.4825 H   0  0  0  0  0  0  0  0  0  0  0  0  # atno 6907 bound_to 6896
  150.6898  134.2158  159.4386 H   0  0  0  0  0  0  0  0  0  0  0  0  # atno 6908 bound_to 6896
  152.0056  134.9904  160.0617 H   0  0  0  0  0  0  0  0  0  0  0  0  # atno 6909 bound_to 6896
  146.1596  139.6755  142.9042 H   0  0  0  0  0  0  0  0  0  0  0  0  # atno 7974 bound_to 7965
  156.2638  140.2026  156.6301 H   0  0  0  0  0  0  0  0  0  0  0  0  # atno 8008 bound_to 7997
  154.6689  140.0552  157.0169 H   0  0  0  0  0  0  0  0  0  0  0  0  # atno 8009 bound_to 7997
  155.1165  140.3220  155.4511 H   0  0  0  0  0  0  0  0  0  0  0  0  # atno 8010 bound_to 7997
  139.7932  144.6844  150.9864 H   0  0  0  0  0  0  0  0  0  0  0  0  # atno 10167 bound_to 10162
  157.6957  131.0352  150.3504 H   0  0  0  0  0  0  0  0  0  0  0  0  # atno 10718 bound_to 10713
  153.1237  135.6725  153.9293 H   0  0  0  0  0  0  0  0  0  0  0  0  # atno 10763 bound_to 10752
  153.8800  135.3059  155.3446 H   0  0  0  0  0  0  0  0  0  0  0  0  # atno 10764 bound_to 10752
  154.7645  135.4971  153.9608 H   0  0  0  0  0  0  0  0  0  0  0  0  # atno 10765 bound_to 10752
  140.2581  134.7924  157.3564 H   0  0  0  0  0  0  0  0  0  0  0  0  # atno 11005 bound_to 11000
  145.4621  141.0433  143.2745 LP  0  0  0  0  0  0  0  0  0  0  0  0  # atno 17320 bound_to 7965
  144.8009  139.6142  143.7072 LP  0  0  0  0  0  0  0  0  0  0  0  0  # atno 17321 bound_to 7965
  140.7820  143.4359  151.0624 LP  0  0  0  0  0  0  0  0  0  0  0  0  # atno 17342 bound_to 10162
  139.8035  143.8051  152.3165 LP  0  0  0  0  0  0  0  0  0  0  0  0  # atno 17343 bound_to 10162
  156.3953  130.3905  149.7000 LP  0  0  0  0  0  0  0  0  0  0  0  0  # atno 17370 bound_to 10713
  156.4336  130.7827  151.2847 LP  0  0  0  0  0  0  0  0  0  0  0  0  # atno 17371 bound_to 10713
  140.1492  134.4872  155.7974 LP  0  0  0  0  0  0  0  0  0  0  0  0  # atno 17394 bound_to 11000
  141.2193  133.6855  156.7347 LP  0  0  0  0  0  0  0  0  0  0  0  0  # atno 17395 bound_to 11000

$$$$
