AV-unprocessed.smi:460|AV-procd|sdf|2626|dock8
  -GOLD-   2262023 33D 1   1.00000     0.00000
 Structure written by MMmdl.
 46 48  0  0  0  0  0  0  0  0  1 V2000
  153.9035  138.3778  155.2685 C   0  0  0  0  0  0  0  0  0  0  0  0
  152.6290  138.8693  154.5689 C   0  0  0  0  0  0  0  0  0  0  0  0
  151.3803  138.0348  154.9125 C   0  0  2  0  0  0  0  0  0  0  0  0
  151.3984  136.8427  154.1522 O   0  0  0  0  0  0  0  0  0  0  0  0
  150.1122  138.8173  154.6949 C   0  0  0  0  0  0  0  0  0  0  0  0
  149.1139  138.3348  153.9512 N   0  0  0  0  0  0  0  0  0  0  0  0
  148.1795  139.3493  153.9930 C   0  0  0  0  0  0  0  0  0  0  0  0
  146.9014  139.4438  153.3971 C   0  0  0  0  0  0  0  0  0  0  0  0
  146.1126  140.5984  153.5792 C   0  0  0  0  0  0  0  0  0  0  0  0
  146.5903  141.6728  154.3569 C   0  0  0  0  0  0  0  0  0  0  0  0
  147.8610  141.5986  154.9594 C   0  0  0  0  0  0  0  0  0  0  0  0
  148.6444  140.4425  154.7765 C   0  0  0  0  0  0  0  0  0  0  0  0
  149.9059  140.0544  155.2204 N   0  0  0  0  0  0  0  0  0  0  0  0
  150.7868  140.8421  156.0714 C   0  0  0  0  0  0  0  0  0  0  0  0
  150.7329  140.3853  157.5344 C   0  0  0  0  0  0  0  0  0  0  0  0
  150.9643  141.5115  158.3679 O   0  0  0  0  0  0  0  0  0  0  0  0
  151.9918  141.4497  159.2870 C   0  0  0  0  0  0  0  0  0  0  0  0
  152.8437  140.3259  159.4387 C   0  0  0  0  0  0  0  0  0  0  0  0
  153.8724  140.3332  160.3979 C   0  0  0  0  0  0  0  0  0  0  0  0
  154.0621  141.4600  161.2151 C   0  0  0  0  0  0  0  0  0  0  0  0
  153.2231  142.5801  161.0739 C   0  0  0  0  0  0  0  0  0  0  0  0
  152.1828  142.5844  160.1099 C   0  0  0  0  0  0  0  0  0  0  0  0
  151.3253  143.6484  159.9171 O   0  0  0  0  0  0  0  0  0  0  0  0
  151.4729  144.7916  160.7466 C   0  0  0  0  0  0  0  0  0  0  0  0
  154.7502  139.0194  155.0238 H   0  0  0  0  0  0  0  0  0  0  0  0
  154.1595  137.3628  154.9639 H   0  0  0  0  0  0  0  0  0  0  0  0
  153.7848  138.3843  156.3525 H   0  0  0  0  0  0  0  0  0  0  0  0
  152.4616  139.9041  154.8696 H   0  0  0  0  0  0  0  0  0  0  0  0
  152.7807  138.8922  153.4888 H   0  0  0  0  0  0  0  0  0  0  0  0
  151.4464  137.7297  155.9548 H   0  0  0  0  0  0  0  0  0  0  0  0
  151.2338  137.0620  153.2482 H   0  0  0  0  0  0  0  0  0  0  0  0
  146.5277  138.6259  152.7990 H   0  0  0  0  0  0  0  0  0  0  0  0
  145.1368  140.6599  153.1201 H   0  0  0  0  0  0  0  0  0  0  0  0
  145.9799  142.5540  154.4916 H   0  0  0  0  0  0  0  0  0  0  0  0
  148.2267  142.4219  155.5548 H   0  0  0  0  0  0  0  0  0  0  0  0
  151.8069  140.7519  155.6974 H   0  0  0  0  0  0  0  0  0  0  0  0
  150.5312  141.8976  155.9793 H   0  0  0  0  0  0  0  0  0  0  0  0
  149.7565  139.9539  157.7551 H   0  0  0  0  0  0  0  0  0  0  0  0
  151.4934  139.6227  157.7111 H   0  0  0  0  0  0  0  0  0  0  0  0
  152.7300  139.4422  158.8297 H   0  0  0  0  0  0  0  0  0  0  0  0
  154.5168  139.4731  160.5060 H   0  0  0  0  0  0  0  0  0  0  0  0
  154.8523  141.4662  161.9515 H   0  0  0  0  0  0  0  0  0  0  0  0
  153.3998  143.4265  161.7196 H   0  0  0  0  0  0  0  0  0  0  0  0
  150.7306  145.5384  160.4651 H   0  0  0  0  0  0  0  0  0  0  0  0
  152.4573  145.2463  160.6295 H   0  0  0  0  0  0  0  0  0  0  0  0
  151.3101  144.5453  161.7967 H   0  0  0  0  0  0  0  0  0  0  0  0
  1  2  1  0  0  0  0
  1 25  1  0  0  0  0
  1 26  1  0  0  0  0
  1 27  1  0  0  0  0
  2  3  1  0  0  0  0
  2 28  1  0  0  0  0
  2 29  1  0  0  0  0
  3  4  1  0  0  0  0
  3  5  1  0  0  0  0
  3 30  1  0  0  0  0
  4 31  1  0  0  0  0
  5 13  1  0  0  0  0
  5  6  2  0  0  0  0
  6  7  1  0  0  0  0
  7 12  2  0  0  0  0
  7  8  1  0  0  0  0
  8  9  2  0  0  0  0
  8 32  1  0  0  0  0
  9 10  1  0  0  0  0
  9 33  1  0  0  0  0
 10 11  2  0  0  0  0
 10 34  1  0  0  0  0
 11 12  1  0  0  0  0
 11 35  1  0  0  0  0
 12 13  1  0  0  0  0
 13 14  1  0  0  0  0
 14 15  1  0  0  0  0
 14 36  1  0  0  0  0
 14 37  1  0  0  0  0
 15 16  1  0  0  0  0
 15 38  1  0  0  0  0
 15 39  1  0  0  0  0
 16 17  1  0  0  0  0
 17 22  1  0  0  0  0
 17 18  2  0  0  0  0
 18 19  1  0  0  0  0
 18 40  1  0  0  0  0
 19 20  2  0  0  0  0
 19 41  1  0  0  0  0
 20 21  1  0  0  0  0
 20 42  1  0  0  0  0
 21 22  2  0  0  0  0
 21 43  1  0  0  0  0
 22 23  1  0  0  0  0
 23 24  1  0  0  0  0
 24 44  1  0  0  0  0
 24 45  1  0  0  0  0
 24 46  1  0  0  0  0
M  END
> <s_m_source_file>
AV-unprocessed.smi

> <i_m_source_file_index>
460

> <i_lp_mmshare_version>
43012

> <i_f3d_flags>
0

> <s_epik_input>
W2NIXTFbY0hdW2NIXVtjSF1jKGMxMiluKGMobjIpW0NAQEhdKFtPSF0pW0NIMl1bQ0gzXSlbQ0gyXVtDSDJdT2MzW2NIXVtjSF1bY0hdW2NIXWMzT1tDSDNd

> <s_epik_cmdline>
J2VwaWtfcHl0aG9uJywgJy1waCcsICc3LjAnLCAnLXRuJywgJzgnLCAnLW1hJywgJzIwMCcsICctbWV0YWxfYmluZGluZycsICctaW1hZScsICc8aW5maWxlLm1hZT4nLCAnLW9tYWUnLCAnPG91dGZpbGUubWFlPic=

> <r_lp_tautomer_probability>
1

> <r_epik_Ionization_Penalty>
0.0507825

> <r_epik_Ionization_Penalty_Charging>
0

> <r_epik_Ionization_Penalty_Neutral>
0.0507825

> <r_epik_State_Penalty>
0.0434615

> <r_epik_Charging_Adjusted_Penalty>
0.0434615

> <i_epik_Tot_Q>
0

> <i_epik_Tot_abs_Q>
0

> <r_epik_Metal_State_Penalty>
4.50935e-05

> <b_epik_Metal_Only>
0

> <s_lp_Force_Field>
OPLS_2005

> <r_lp_Energy>
20.8142

> <b_lp_Chiralities_Consistent>
1

> <s_lp_Variant>
AV-unprocessed.smi:460-1

> <Gold.Version>
5.8.1

> <Gold.Id.Protein>
6NUR|6NUR_protein|mol2

> <Gold.PLP.Fitness>
52.6150

> <Gold.PLP.PLP>
-49.6960

> <Gold.PLP.part.hbond>
-2.2244

> <Gold.PLP.part.metal>
0.0000

> <Gold.PLP.part.buried>
2.2589

> <Gold.PLP.part.nonpolar>
-51.5809

> <Gold.PLP.part.repulsive>
1.5709

> <Gold.PLP.ligand.clash>
0.0000

> <Gold.PLP.ligand.torsion>
1.1461

> <Gold.PLP.Chemscore.Hbond>
1.7040

> <Gold.PLP.Chemscore.CHOScore>
0.0000

> <Gold.PLP.Chemscore.Metal>
0.0000

> <Gold.Chemscore.Hbonds>
donor molecule, donor type, donor heavy atom, donor atom, acceptor molecule, acceptor atom, score
      L1  H     4    31       P1  7949  0.64
      P1  H 10752 10765       L1     4  1.00

> <Gold.PLP.Chemscore.Internal.Correction>
0.0992

> <Gold.Rescore>
     Score         DG    S(hbond)    S(metal)    S(lipo)     H(rot)  DE(clash)    DE(int)     intcor
     16.25     -19.72       0.90        0.00     147.72       2.36       2.39       1.08       ----

> <Gold.Chemscore.Fitness>
16.2508

> <Gold.Chemscore.DG>
-19.7222

> <Gold.Chemscore.ZeroCoef>
-5.4800

> <Gold.Chemscore.Hbond>
0.8974

> <Gold.Chemscore.Metal>
0.0000

> <Gold.Chemscore.Lipo>
147.7195

> <Gold.Chemscore.Internal_Hbond>
0.0000

> <Gold.Chemscore.DEClash>
2.3918

> <Gold.Chemscore.DEInternal>
1.0797

> <Gold.Chemscore.Rot>
2.3587

> <Gold.Chemscore.Internal.Correction>
   9.000000E+99

> <Gold.Chemscore.Hbonds>
donor molecule, donor type, donor heavy atom, donor atom, acceptor molecule, acceptor atom, score
      L1  H     4    31       P1  7949  0.37
      P1  H 10752 10765       L1     4  0.54

> <Gold.Chemscore.Hbond.Weighted>
-2.9974

> <Gold.Chemscore.Metal.Weighted>
-0.0000

> <Gold.Chemscore.Lipo.Weighted>
-17.2832

> <Gold.Chemscore.Internal_Hbond.Weighted>
0.0000

> <Gold.Chemscore.DEClash.Weighted>
2.3918

> <Gold.Chemscore.DEInternal.Weighted>
1.0797

> <Gold.Chemscore.Rot.Weighted>
6.0384

> <Gold.Chemscore.Internal.Correction.Weighted>
   9.000000E+99

> <Gold.Protein.RotatedTorsions>
[ 6907 6896 6895 6894 ] final  151.16 input  -60.11 | X-H torsion
[ 7974 7965 7964 7962 ] final  -93.68 input  175.53 | X-H torsion
[ 8008 7997 7996 7995 ] final -134.47 input   59.86 | X-H torsion
[ 10167 10162 10161 10158 ] final   83.65 input  -65.29 | X-H torsion
[ 10718 10713 10712 10709 ] final  160.80 input   66.30 | X-H torsion
[ 10763 10752 10751 10750 ] final  153.07 input  -60.55 | X-H torsion
[ 11005 11000 10999 10996 ] final   -6.18 input  -57.11 | X-H torsion

> <Gold.Protein.ActiveResidues>
 VAL166  LYS551  ARG553  GLY616  TRP617  ASP618  TYR619  PRO620  LYS621  CYS622 
 ASP623  PHE694  ASN695  SER759  ASP760  ASP761  ALA762  ILE779  LEU786  VAL792 
 PHE793  MET794  SER795  GLU796  ALA797  LYS798  CYS799  TRP800  GLU811  SER814 

> <Gold.Protein.RotatedAtoms>
  152.1045  133.4267  159.4602 H   0  0  0  0  0  0  0  0  0  0  0  0  # atno 6907 bound_to 6896
  150.6865  134.2721  159.4601 H   0  0  0  0  0  0  0  0  0  0  0  0  # atno 6908 bound_to 6896
  152.0584  134.9609  160.0625 H   0  0  0  0  0  0  0  0  0  0  0  0  # atno 6909 bound_to 6896
  145.3833  140.9520  143.2381 H   0  0  0  0  0  0  0  0  0  0  0  0  # atno 7974 bound_to 7965
  155.3625  140.0483  157.3046 H   0  0  0  0  0  0  0  0  0  0  0  0  # atno 8008 bound_to 7997
  154.5171  140.2212  155.9009 H   0  0  0  0  0  0  0  0  0  0  0  0  # atno 8009 bound_to 7997
  156.1648  140.3108  155.8875 H   0  0  0  0  0  0  0  0  0  0  0  0  # atno 8010 bound_to 7997
  139.9162  144.6241  150.8486 H   0  0  0  0  0  0  0  0  0  0  0  0  # atno 10167 bound_to 10162
  157.1454  131.0551  151.2306 H   0  0  0  0  0  0  0  0  0  0  0  0  # atno 10718 bound_to 10713
  154.1303  135.2827  155.3187 H   0  0  0  0  0  0  0  0  0  0  0  0  # atno 10763 bound_to 10752
  154.6360  135.5419  153.7738 H   0  0  0  0  0  0  0  0  0  0  0  0  # atno 10764 bound_to 10752
  153.0283  135.6474  154.1454 H   0  0  0  0  0  0  0  0  0  0  0  0  # atno 10765 bound_to 10752
  140.6992  133.9004  155.8672 H   0  0  0  0  0  0  0  0  0  0  0  0  # atno 11005 bound_to 11000
  144.8492  139.5349  143.6864 LP  0  0  0  0  0  0  0  0  0  0  0  0  # atno 17320 bound_to 7965
  146.2832  139.6932  142.9214 LP  0  0  0  0  0  0  0  0  0  0  0  0  # atno 17321 bound_to 7965
  140.7673  143.3330  151.2370 LP  0  0  0  0  0  0  0  0  0  0  0  0  # atno 17342 bound_to 10162
  139.6900  143.9708  152.2854 LP  0  0  0  0  0  0  0  0  0  0  0  0  # atno 17343 bound_to 10162
  157.4269  130.7469  149.6958 LP  0  0  0  0  0  0  0  0  0  0  0  0  # atno 17370 bound_to 10713
  155.9780  130.4056  150.3673 LP  0  0  0  0  0  0  0  0  0  0  0  0  # atno 17371 bound_to 10713
  141.0177  134.0932  157.4154 LP  0  0  0  0  0  0  0  0  0  0  0  0  # atno 17394 bound_to 11000
  139.8901  135.0110  156.6719 LP  0  0  0  0  0  0  0  0  0  0  0  0  # atno 17395 bound_to 11000

$$$$
