AV-unprocessed.smi:2865|AV-procd|sdf|11015|dock1
  -GOLD-   2272015473D 1   1.00000     0.00000
 Structure written by MMmdl.
 38 41  0  0  0  0  0  0  0  0  1 V2000
  146.0461  136.4657  153.2305 O   0  0  0  0  0  0  0  0  0  0  0  0
  145.6788  137.2532  152.3618 C   0  0  0  0  0  0  0  0  0  0  0  0
  146.0815  138.5354  152.2659 N   0  0  0  0  0  0  0  0  0  0  0  0
  147.0326  139.2326  153.0582 C   0  0  0  0  0  0  0  0  0  0  0  0
  148.1460  138.6453  153.7088 C   0  0  0  0  0  0  0  0  0  0  0  0
  149.0170  139.3844  154.4298 N   0  0  0  0  0  0  0  0  0  0  0  0
  148.7797  140.6966  154.5090 C   0  0  0  0  0  0  0  0  0  0  0  0
  149.7720  141.5143  155.2767 C   0  0  0  0  0  0  0  0  0  0  0  0
  150.9975  140.8706  155.8924 C   0  0  0  0  0  0  0  0  0  0  0  0
  149.8945  141.3750  156.7805 C   0  0  0  0  0  0  0  0  0  0  0  0
  147.7799  141.3609  153.9231 N   0  0  0  0  0  0  0  0  0  0  0  0
  146.9046  140.6302  153.2000 C   0  0  0  0  0  0  0  0  0  0  0  0
  144.7890  136.8860  151.4228 N   0  0  0  0  0  0  0  0  0  0  0  0
  144.1558  135.5785  151.2429 C   0  0  2  0  0  0  0  0  0  0  0  0
  143.8893  134.8561  152.5701 C   0  0  0  0  0  0  0  0  0  0  0  0
  144.6826  133.5555  152.3872 C   0  0  1  0  0  0  0  0  0  0  0  0
  144.0480  132.6324  151.3365 C   0  0  0  0  0  0  0  0  0  0  0  0
  144.3811  133.3605  150.0339 C   0  0  0  0  0  0  0  0  0  0  0  0
  145.1218  134.5997  150.5532 C   0  0  2  0  0  0  0  0  0  0  0  0
  145.8002  134.0415  151.6665 O   0  0  0  0  0  0  0  0  0  0  0  0
  145.6327  139.0843  151.5474 H   0  0  0  0  0  0  0  0  0  0  0  0
  148.3720  137.5925  153.6502 H   0  0  0  0  0  0  0  0  0  0  0  0
  149.8825  142.5083  154.8473 H   0  0  0  0  0  0  0  0  0  0  0  0
  151.1083  139.7922  155.7958 H   0  0  0  0  0  0  0  0  0  0  0  0
  151.9253  141.4386  155.8706 H   0  0  0  0  0  0  0  0  0  0  0  0
  150.0842  142.2801  157.3538 H   0  0  0  0  0  0  0  0  0  0  0  0
  149.2719  140.6317  157.2747 H   0  0  0  0  0  0  0  0  0  0  0  0
  146.0956  141.1687  152.7285 H   0  0  0  0  0  0  0  0  0  0  0  0
  144.4994  137.6027  150.7729 H   0  0  0  0  0  0  0  0  0  0  0  0
  143.2462  135.6857  150.6490 H   0  0  0  0  0  0  0  0  0  0  0  0
  144.2789  135.4192  153.4197 H   0  0  0  0  0  0  0  0  0  0  0  0
  142.8284  134.6739  152.7450 H   0  0  0  0  0  0  0  0  0  0  0  0
  144.9337  133.0558  153.3232 H   0  0  0  0  0  0  0  0  0  0  0  0
  144.5141  131.6467  151.3518 H   0  0  0  0  0  0  0  0  0  0  0  0
  142.9758  132.5066  151.4900 H   0  0  0  0  0  0  0  0  0  0  0  0
  145.0370  132.7504  149.4118 H   0  0  0  0  0  0  0  0  0  0  0  0
  143.4958  133.6148  149.4500 H   0  0  0  0  0  0  0  0  0  0  0  0
  145.7754  135.0585  149.8103 H   0  0  0  0  0  0  0  0  0  0  0  0
  1  2  2  0  0  0  0
  2  3  1  0  0  0  0
  2 13  1  0  0  0  0
  3  4  1  0  0  0  0
  3 21  1  0  0  0  0
  4 12  1  0  0  0  0
  4  5  2  0  0  0  0
  5  6  1  0  0  0  0
  5 22  1  0  0  0  0
  6  7  2  0  0  0  0
  7  8  1  0  0  0  0
  7 11  1  0  0  0  0
  8 10  1  0  0  0  0
  8  9  1  0  0  0  0
  8 23  1  0  0  0  0
  9 10  1  0  0  0  0
  9 24  1  0  0  0  0
  9 25  1  0  0  0  0
 10 26  1  0  0  0  0
 10 27  1  0  0  0  0
 11 12  2  0  0  0  0
 12 28  1  0  0  0  0
 13 14  1  0  0  0  0
 13 29  1  0  0  0  0
 14 19  1  0  0  0  0
 14 15  1  0  0  0  0
 14 30  1  0  0  0  0
 15 16  1  0  0  0  0
 15 31  1  0  0  0  0
 15 32  1  0  0  0  0
 16 20  1  0  0  0  0
 16 17  1  0  0  0  0
 16 33  1  0  0  0  0
 17 18  1  0  0  0  0
 17 34  1  0  0  0  0
 17 35  1  0  0  0  0
 18 19  1  0  0  0  0
 18 36  1  0  0  0  0
 18 37  1  0  0  0  0
 19 20  1  0  0  0  0
 19 38  1  0  0  0  0
M  END
> <s_m_source_file>
AV-unprocessed.smi

> <i_m_source_file_index>
2865

> <i_lp_mmshare_version>
43012

> <i_f3d_flags>
0

> <s_epik_input>
W0NIMl0xW0NIMl1bQ0BIXShPMilbQ0BASF0oW0NIMl1bQ0BASF0xMilbTkhdQyg9TylbTkhdYzNbY0hdbmMobltjSF0zKVtDSF00W0NIMl1bQ0gyXTQ=

> <s_epik_cmdline>
J2VwaWtfcHl0aG9uJywgJy1waCcsICc3LjAnLCAnLXRuJywgJzgnLCAnLW1hJywgJzIwMCcsICctbWV0YWxfYmluZGluZycsICctaW1hZScsICc8aW5maWxlLm1hZT4nLCAnLW9tYWUnLCAnPG91dGZpbGUubWFlPic=

> <r_lp_tautomer_probability>
1

> <r_epik_Ionization_Penalty>
2.43104e-05

> <r_epik_Ionization_Penalty_Charging>
0

> <r_epik_Ionization_Penalty_Neutral>
2.43104e-05

> <r_epik_State_Penalty>
-0

> <r_epik_Charging_Adjusted_Penalty>
0

> <i_epik_Tot_Q>
0

> <i_epik_Tot_abs_Q>
0

> <r_epik_Metal_State_Penalty>
-0

> <b_epik_Metal_Only>
0

> <s_lp_Force_Field>
OPLS_2005

> <r_lp_Energy>
45.9934

> <b_lp_Chiralities_Consistent>
1

> <s_lp_Variant>
AV-unprocessed.smi:2865-1

> <Gold.Version>
5.8.1

> <Gold.Id.Protein>
6NUR|6NUR_protein|mol2

> <Gold.PLP.Fitness>
40.7726

> <Gold.PLP.PLP>
-33.3682

> <Gold.PLP.part.hbond>
-1.8075

> <Gold.PLP.part.metal>
0.0000

> <Gold.PLP.part.buried>
-4.7988

> <Gold.PLP.part.nonpolar>
-28.6236

> <Gold.PLP.part.repulsive>
0.6255

> <Gold.PLP.ligand.clash>
0.0000

> <Gold.PLP.ligand.torsion>
0.5417

> <Gold.PLP.Chemscore.Hbond>
1.0000

> <Gold.PLP.Chemscore.CHOScore>
1.7799

> <Gold.PLP.Chemscore.Metal>
0.0000

> <Gold.Chemscore.Hbonds>
donor molecule, donor type, donor heavy atom, donor atom, acceptor molecule, acceptor atom, score
      L1  H    13    29       P1 10171  0.96
      L1  C     5    22       P1  7948  1.00
      L1  C    12    28       P1 10175  0.76

> <Gold.PLP.Chemscore.Internal.Correction>
0.1482

> <Gold.Rescore>
     Score         DG    S(hbond)    S(metal)    S(lipo)     H(rot)  DE(clash)    DE(int)     intcor
     12.65     -17.14       1.66        0.00      78.68       1.20       0.51       3.97       ----

> <Gold.Chemscore.Fitness>
12.6533

> <Gold.Chemscore.DG>
-17.1389

> <Gold.Chemscore.ZeroCoef>
-5.4800

> <Gold.Chemscore.Hbond>
1.6551

> <Gold.Chemscore.Metal>
0.0000

> <Gold.Chemscore.Lipo>
78.6830

> <Gold.Chemscore.Internal_Hbond>
0.0000

> <Gold.Chemscore.DEClash>
0.5117

> <Gold.Chemscore.DEInternal>
3.9738

> <Gold.Chemscore.Rot>
1.2012

> <Gold.Chemscore.Internal.Correction>
   9.000000E+99

> <Gold.Chemscore.Hbonds>
donor molecule, donor type, donor heavy atom, donor atom, acceptor molecule, acceptor atom, score
      L1  H     3    21       P1 10171  0.01
      L1  H    13    29       P1 10171  0.90

> <Gold.Chemscore.Hbond.Weighted>
-5.5281

> <Gold.Chemscore.Metal.Weighted>
-0.0000

> <Gold.Chemscore.Lipo.Weighted>
-9.2059

> <Gold.Chemscore.Internal_Hbond.Weighted>
0.0000

> <Gold.Chemscore.DEClash.Weighted>
0.5117

> <Gold.Chemscore.DEInternal.Weighted>
3.9738

> <Gold.Chemscore.Rot.Weighted>
3.0752

> <Gold.Chemscore.Internal.Correction.Weighted>
   9.000000E+99

> <Gold.Protein.RotatedTorsions>
[ 6907 6896 6895 6894 ] final  -88.04 input  -60.11 | X-H torsion
[ 7974 7965 7964 7962 ] final   51.70 input  175.53 | X-H torsion
[ 8008 7997 7996 7995 ] final -128.54 input   59.86 | X-H torsion
[ 10167 10162 10161 10158 ] final    9.20 input  -65.29 | X-H torsion
[ 10718 10713 10712 10709 ] final  171.57 input   66.30 | X-H torsion
[ 10763 10752 10751 10750 ] final  124.13 input  -60.55 | X-H torsion
[ 11005 11000 10999 10996 ] final   45.25 input  -57.11 | X-H torsion

> <Gold.Protein.ActiveResidues>
 VAL166  LYS551  ARG553  GLY616  TRP617  ASP618  TYR619  PRO620  LYS621  CYS622 
 ASP623  PHE694  ASN695  SER759  ASP760  ASP761  ALA762  ILE779  LEU786  VAL792 
 PHE793  MET794  SER795  GLU796  ALA797  LYS798  CYS799  TRP800  GLU811  SER814 

> <Gold.Protein.RotatedAtoms>
  150.6867  134.2803  159.4624 H   0  0  0  0  0  0  0  0  0  0  0  0  # atno 6907 bound_to 6896
  152.0718  134.9526  160.0583 H   0  0  0  0  0  0  0  0  0  0  0  0  # atno 6908 bound_to 6896
  152.0913  133.4167  159.4582 H   0  0  0  0  0  0  0  0  0  0  0  0  # atno 6909 bound_to 6896
  145.9887  139.4316  143.0087 H   0  0  0  0  0  0  0  0  0  0  0  0  # atno 7974 bound_to 7965
  155.2644  140.0437  157.3000 H   0  0  0  0  0  0  0  0  0  0  0  0  # atno 8008 bound_to 7997
  154.5691  140.2368  155.8188 H   0  0  0  0  0  0  0  0  0  0  0  0  # atno 8009 bound_to 7997
  156.2108  140.2999  155.9737 H   0  0  0  0  0  0  0  0  0  0  0  0  # atno 8010 bound_to 7997
  140.6269  143.8081  150.7245 H   0  0  0  0  0  0  0  0  0  0  0  0  # atno 10167 bound_to 10162
  156.9916  131.0149  151.2855 H   0  0  0  0  0  0  0  0  0  0  0  0  # atno 10718 bound_to 10713
  153.6565  135.3354  155.3115 H   0  0  0  0  0  0  0  0  0  0  0  0  # atno 10763 bound_to 10752
  154.8525  135.4353  154.1849 H   0  0  0  0  0  0  0  0  0  0  0  0  # atno 10764 bound_to 10752
  153.2805  135.7008  153.7465 H   0  0  0  0  0  0  0  0  0  0  0  0  # atno 10765 bound_to 10752
  140.1477  134.4501  155.8404 H   0  0  0  0  0  0  0  0  0  0  0  0  # atno 11005 bound_to 11000
  145.7663  140.9915  143.1173 LP  0  0  0  0  0  0  0  0  0  0  0  0  # atno 17320 bound_to 7965
  144.6882  139.9391  143.7474 LP  0  0  0  0  0  0  0  0  0  0  0  0  # atno 17321 bound_to 7965
  140.1684  143.4216  152.2018 LP  0  0  0  0  0  0  0  0  0  0  0  0  # atno 17342 bound_to 10162
  139.5488  144.7321  151.4499 LP  0  0  0  0  0  0  0  0  0  0  0  0  # atno 17343 bound_to 10162
  157.5454  130.8147  149.8080 LP  0  0  0  0  0  0  0  0  0  0  0  0  # atno 17370 bound_to 10713
  156.0205  130.3797  150.1977 LP  0  0  0  0  0  0  0  0  0  0  0  0  # atno 17371 bound_to 10713
  141.2195  133.6859  156.7364 LP  0  0  0  0  0  0  0  0  0  0  0  0  # atno 17394 bound_to 11000
  140.2643  134.8442  157.3788 LP  0  0  0  0  0  0  0  0  0  0  0  0  # atno 17395 bound_to 11000

$$$$
