AV-unprocessed.smi:1426|AV-procd|sdf|5807|dock4
  -GOLD-   22720 5463D 1   1.00000     0.00000
 Structure written by MMmdl.
 44 46  0  0  0  0  0  0  0  0  2 V2000
  147.6860  132.5892  153.3951 O   0  0  0  0  0  0  0  0  0  0  0  0
  147.0683  133.6190  153.6651 C   0  0  0  0  0  0  0  0  0  0  0  0
  147.3085  134.3648  154.7523 N   0  0  0  0  0  0  0  0  0  0  0  0
  148.3158  134.0684  155.7660 C   0  0  0  0  0  0  0  0  0  0  0  0
  149.7491  134.0846  155.1911 C   0  0  2  0  0  0  0  0  0  0  0  0
  150.2811  132.7037  154.8331 C   0  0  0  0  0  0  0  0  0  0  0  0
  150.9631  132.2232  156.1179 C   0  0  0  0  0  0  0  0  0  0  0  0
  151.0421  133.3550  156.9785 O   0  0  0  0  0  0  0  0  0  0  0  0
  150.7783  134.5300  156.2272 C   0  0  0  0  0  0  0  0  0  0  0  0
  146.0620  134.1308  152.9366 N   0  0  0  0  0  0  0  0  0  0  0  0
  145.4916  133.6130  151.7390 C   0  0  0  0  0  0  0  0  0  0  0  0
  146.1746  132.6485  150.9538 C   0  0  0  0  0  0  0  0  0  0  0  0
  145.5755  132.1403  149.7859 C   0  0  0  0  0  0  0  0  0  0  0  0
  144.3029  132.6071  149.4161 C   0  0  0  0  0  0  0  0  0  0  0  0
  143.6875  133.5394  150.1721 N   0  3  0  0  0  0  0  0  0  0  0  0
  144.2181  134.0783  151.2984 C   0  0  0  0  0  0  0  0  0  0  0  0
  143.4610  135.0584  151.9799 N   0  0  0  0  0  0  0  0  0  0  0  0
  144.0684  136.3297  152.3561 C   0  0  0  0  0  0  0  0  0  0  0  0
  143.0902  136.9572  153.3449 C   0  0  0  0  0  0  0  0  0  0  0  0
  142.5520  135.7393  154.0903 C   0  0  0  0  0  0  0  0  0  0  0  0
  142.5346  134.6363  153.0260 C   0  0  0  0  0  0  0  0  0  0  0  0
  146.7523  135.1950  154.8966 H   0  0  0  0  0  0  0  0  0  0  0  0
  148.2299  134.7831  156.5862 H   0  0  0  0  0  0  0  0  0  0  0  0
  148.0900  133.0896  156.1906 H   0  0  0  0  0  0  0  0  0  0  0  0
  149.7792  134.7470  154.3249 H   0  0  0  0  0  0  0  0  0  0  0  0
  149.5147  132.0133  154.4801 H   0  0  0  0  0  0  0  0  0  0  0  0
  151.0255  132.7959  154.0411 H   0  0  0  0  0  0  0  0  0  0  0  0
  150.3844  131.4405  156.6090 H   0  0  0  0  0  0  0  0  0  0  0  0
  151.9590  131.8296  155.9124 H   0  0  0  0  0  0  0  0  0  0  0  0
  151.6987  134.8535  155.7385 H   0  0  0  0  0  0  0  0  0  0  0  0
  150.4281  135.3449  156.8616 H   0  0  0  0  0  0  0  0  0  0  0  0
  145.5855  134.9249  153.3380 H   0  0  0  0  0  0  0  0  0  0  0  0
  147.1565  132.2924  151.2262 H   0  0  0  0  0  0  0  0  0  0  0  0
  146.0860  131.4022  149.1845 H   0  0  0  0  0  0  0  0  0  0  0  0
  143.7651  132.2729  148.5405 H   0  0  0  0  0  0  0  0  0  0  0  0
  145.0282  136.1636  152.8471 H   0  0  0  0  0  0  0  0  0  0  0  0
  144.2307  136.9672  151.4866 H   0  0  0  0  0  0  0  0  0  0  0  0
  143.5604  137.6886  154.0028 H   0  0  0  0  0  0  0  0  0  0  0  0
  142.2811  137.4534  152.8068 H   0  0  0  0  0  0  0  0  0  0  0  0
  143.2424  135.4671  154.8900 H   0  0  0  0  0  0  0  0  0  0  0  0
  141.5727  135.9122  154.5373 H   0  0  0  0  0  0  0  0  0  0  0  0
  141.5356  134.5490  152.5975 H   0  0  0  0  0  0  0  0  0  0  0  0
  142.8095  133.6701  153.4524 H   0  0  0  0  0  0  0  0  0  0  0  0
  142.7688  133.8656  149.8719 H   0  0  0  0  0  0  0  0  0  0  0  0
  1  2  2  0  0  0  0
  2  3  1  0  0  0  0
  2 10  1  0  0  0  0
  3  4  1  0  0  0  0
  3 22  1  0  0  0  0
  4  5  1  0  0  0  0
  4 23  1  0  0  0  0
  4 24  1  0  0  0  0
  5  9  1  0  0  0  0
  5  6  1  0  0  0  0
  5 25  1  0  0  0  0
  6  7  1  0  0  0  0
  6 26  1  0  0  0  0
  6 27  1  0  0  0  0
  7  8  1  0  0  0  0
  7 28  1  0  0  0  0
  7 29  1  0  0  0  0
  8  9  1  0  0  0  0
  9 30  1  0  0  0  0
  9 31  1  0  0  0  0
 10 11  1  0  0  0  0
 10 32  1  0  0  0  0
 11 16  1  0  0  0  0
 11 12  2  0  0  0  0
 12 13  1  0  0  0  0
 12 33  1  0  0  0  0
 13 14  2  0  0  0  0
 13 34  1  0  0  0  0
 14 15  1  0  0  0  0
 14 35  1  0  0  0  0
 15 16  2  0  0  0  0
 15 44  1  0  0  0  0
 16 17  1  0  0  0  0
 17 21  1  0  0  0  0
 17 18  1  0  0  0  0
 18 19  1  0  0  0  0
 18 36  1  0  0  0  0
 18 37  1  0  0  0  0
 19 20  1  0  0  0  0
 19 38  1  0  0  0  0
 19 39  1  0  0  0  0
 20 21  1  0  0  0  0
 20 40  1  0  0  0  0
 20 41  1  0  0  0  0
 21 42  1  0  0  0  0
 21 43  1  0  0  0  0
M  CHG  1  15   1
M  END
> <s_m_source_file>
AV-unprocessed.smi

> <i_m_source_file_index>
1426

> <i_lp_mmshare_version>
43012

> <i_f3d_flags>
0

> <s_epik_input>
W0NIMl0xT1tDSDJdW0NIMl1bQ0BIXTFbQ0gyXVtOSF1DKD1PKVtOSF1jMltjSF1bY0hdW2NIXW5jMk4zW0NIMl1bQ0gyXVtDSDJdW0NIMl0z

> <s_epik_cmdline>
J2VwaWtfcHl0aG9uJywgJy1waCcsICc3LjAnLCAnLXRuJywgJzgnLCAnLW1hJywgJzIwMCcsICctbWV0YWxfYmluZGluZycsICctaW1hZScsICc8aW5maWxlLm1hZT4nLCAnLW9tYWUnLCAnPG91dGZpbGUubWFlPic=

> <r_lp_tautomer_probability>
0.999994

> <r_epik_Ionization_Penalty>
1.10677

> <r_epik_Ionization_Penalty_Charging>
1.10675

> <r_epik_Ionization_Penalty_Neutral>
2.02663e-05

> <r_epik_State_Penalty>
1.16438

> <r_epik_Charging_Adjusted_Penalty>
2.27113

> <i_epik_Tot_Q>
1

> <i_epik_Tot_abs_Q>
1

> <r_epik_Metal_State_Penalty>
1.25078

> <b_epik_Metal_Only>
0

> <s_lp_Force_Field>
OPLS_2005

> <r_lp_Energy>
54.6113

> <b_lp_Chiralities_Consistent>
1

> <s_lp_Variant>
AV-unprocessed.smi:1426-3

> <Gold.Version>
5.8.1

> <Gold.Id.Protein>
6NUR|6NUR_protein|mol2

> <Gold.PLP.Fitness>
40.9171

> <Gold.PLP.PLP>
-33.6978

> <Gold.PLP.part.hbond>
-2.0000

> <Gold.PLP.part.metal>
0.0000

> <Gold.PLP.part.buried>
-7.4647

> <Gold.PLP.part.nonpolar>
-25.5399

> <Gold.PLP.part.repulsive>
0.3162

> <Gold.PLP.ligand.clash>
0.0000

> <Gold.PLP.ligand.torsion>
0.9819

> <Gold.PLP.Chemscore.Hbond>
2.9280

> <Gold.PLP.Chemscore.CHOScore>
0.0000

> <Gold.PLP.Chemscore.Metal>
0.0000

> <Gold.Chemscore.Hbonds>
donor molecule, donor type, donor heavy atom, donor atom, acceptor molecule, acceptor atom, score
      L1  H    15    44       P1 10186  2.00
      P1  H  6896  6908       L1     8  0.40

> <Gold.PLP.Chemscore.Internal.Correction>
0.3991

> <Gold.Rescore>
     Score         DG    S(hbond)    S(metal)    S(lipo)     H(rot)  DE(clash)    DE(int)     intcor
     14.75     -17.10       1.91        0.00      75.38       1.40       0.19       2.16       ----

> <Gold.Chemscore.Fitness>
14.7526

> <Gold.Chemscore.DG>
-17.1050

> <Gold.Chemscore.ZeroCoef>
-5.4800

> <Gold.Chemscore.Hbond>
1.9149

> <Gold.Chemscore.Metal>
0.0000

> <Gold.Chemscore.Lipo>
75.3764

> <Gold.Chemscore.Internal_Hbond>
0.0000

> <Gold.Chemscore.DEClash>
0.1937

> <Gold.Chemscore.DEInternal>
2.1586

> <Gold.Chemscore.Rot>
1.4023

> <Gold.Chemscore.Internal.Correction>
   9.000000E+99

> <Gold.Chemscore.Hbonds>
donor molecule, donor type, donor heavy atom, donor atom, acceptor molecule, acceptor atom, score
      L1  H    15    44       P1 10186  1.00
      P1  H  6896  6908       L1     8  0.38

> <Gold.Chemscore.Hbond.Weighted>
-6.3957

> <Gold.Chemscore.Metal.Weighted>
-0.0000

> <Gold.Chemscore.Lipo.Weighted>
-8.8190

> <Gold.Chemscore.Internal_Hbond.Weighted>
0.0000

> <Gold.Chemscore.DEClash.Weighted>
0.1937

> <Gold.Chemscore.DEInternal.Weighted>
2.1586

> <Gold.Chemscore.Rot.Weighted>
3.5898

> <Gold.Chemscore.Internal.Correction.Weighted>
   9.000000E+99

> <Gold.Protein.RotatedTorsions>
[ 6907 6896 6895 6894 ] final   97.21 input  -60.11 | X-H torsion
[ 7974 7965 7964 7962 ] final  118.26 input  175.53 | X-H torsion
[ 8008 7997 7996 7995 ] final  169.56 input   59.86 | X-H torsion
[ 10167 10162 10161 10158 ] final -151.67 input  -65.29 | X-H torsion
[ 10718 10713 10712 10709 ] final   58.77 input   66.30 | X-H torsion
[ 10763 10752 10751 10750 ] final -136.61 input  -60.55 | X-H torsion
[ 11005 11000 10999 10996 ] final   72.47 input  -57.11 | X-H torsion

> <Gold.Protein.ActiveResidues>
 VAL166  LYS551  ARG553  GLY616  TRP617  ASP618  TYR619  PRO620  LYS621  CYS622 
 ASP623  PHE694  ASN695  SER759  ASP760  ASP761  ALA762  ILE779  LEU786  VAL792 
 PHE793  MET794  SER795  GLU796  ALA797  LYS798  CYS799  TRP800  GLU811  SER814 

> <Gold.Protein.RotatedAtoms>
  152.5426  134.0768  159.8217 H   0  0  0  0  0  0  0  0  0  0  0  0  # atno 6907 bound_to 6896
  151.0875  133.5334  159.2624 H   0  0  0  0  0  0  0  0  0  0  0  0  # atno 6908 bound_to 6896
  151.2138  135.0500  159.8976 H   0  0  0  0  0  0  0  0  0  0  0  0  # atno 6909 bound_to 6896
  145.1574  139.3175  143.4535 H   0  0  0  0  0  0  0  0  0  0  0  0  # atno 7974 bound_to 7965
  156.1446  140.1561  156.8866 H   0  0  0  0  0  0  0  0  0  0  0  0  # atno 8008 bound_to 7997
  154.5017  140.0823  156.7849 H   0  0  0  0  0  0  0  0  0  0  0  0  # atno 8009 bound_to 7997
  155.4013  140.3414  155.4259 H   0  0  0  0  0  0  0  0  0  0  0  0  # atno 8010 bound_to 7997
  139.7247  143.8901  152.2515 H   0  0  0  0  0  0  0  0  0  0  0  0  # atno 10167 bound_to 10162
  157.5623  130.8845  149.9131 H   0  0  0  0  0  0  0  0  0  0  0  0  # atno 10718 bound_to 10713
  154.8680  135.3667  154.5089 H   0  0  0  0  0  0  0  0  0  0  0  0  # atno 10763 bound_to 10752
  153.5725  135.7020  153.5503 H   0  0  0  0  0  0  0  0  0  0  0  0  # atno 10764 bound_to 10752
  153.3529  135.4067  155.1623 H   0  0  0  0  0  0  0  0  0  0  0  0  # atno 10765 bound_to 10752
  139.9489  134.7262  156.0910 H   0  0  0  0  0  0  0  0  0  0  0  0  # atno 11005 bound_to 11000
  146.3487  140.1672  142.8590 LP  0  0  0  0  0  0  0  0  0  0  0  0  # atno 17320 bound_to 7965
  145.0367  140.8913  143.5077 LP  0  0  0  0  0  0  0  0  0  0  0  0  # atno 17321 bound_to 7965
  139.8807  144.7019  150.8881 LP  0  0  0  0  0  0  0  0  0  0  0  0  # atno 17342 bound_to 10162
  140.7760  143.3663  151.1732 LP  0  0  0  0  0  0  0  0  0  0  0  0  # atno 17343 bound_to 10162
  156.0674  130.3690  150.0849 LP  0  0  0  0  0  0  0  0  0  0  0  0  # atno 17370 bound_to 10713
  156.9011  130.9620  151.3576 LP  0  0  0  0  0  0  0  0  0  0  0  0  # atno 17371 bound_to 10713
  141.1147  133.6631  156.3065 LP  0  0  0  0  0  0  0  0  0  0  0  0  # atno 17394 bound_to 11000
  140.5766  134.5787  157.5470 LP  0  0  0  0  0  0  0  0  0  0  0  0  # atno 17395 bound_to 11000

$$$$
