AV-unprocessed.smi:1623|AV-procd|sdf|6502|dock8
  -GOLD-   22720 7173D 1   1.00000     0.00000
 Structure written by MMmdl.
 42 43  0  0  0  0  0  0  0  0  1 V2000
  149.0826  134.2400  155.4169 C   0  0  0  0  0  0  0  0  0  0  0  0
  148.8663  135.4794  156.2427 C   0  0  0  0  0  0  0  0  0  0  0  0
  148.8675  136.6065  155.6095 N   0  0  0  0  0  0  0  0  0  0  0  0
  148.6770  137.8023  156.2716 N   0  0  0  0  0  0  0  0  0  0  0  0
  148.7286  138.9806  155.3995 C   0  0  0  0  0  0  0  0  0  0  0  0
  150.0800  139.0878  154.6576 C   0  0  1  0  0  0  0  0  0  0  0  0
  150.0731  140.2594  153.8671 O   0  0  0  0  0  0  0  0  0  0  0  0
  151.2620  139.1982  155.6305 C   0  0  0  0  0  0  0  0  0  0  0  0
  151.2439  140.4940  156.2109 O   0  0  0  0  0  0  0  0  0  0  0  0
  151.6959  140.5336  157.5563 C   0  0  0  0  0  0  0  0  0  0  0  0
  151.9477  141.9479  158.0587 C   0  0  0  0  0  0  0  0  0  0  0  0
  151.3307  143.0349  157.4028 C   0  0  0  0  0  0  0  0  0  0  0  0
  151.5474  144.3524  157.8492 C   0  0  0  0  0  0  0  0  0  0  0  0
  152.3865  144.5919  158.9532 C   0  0  0  0  0  0  0  0  0  0  0  0
  153.0095  143.5131  159.6086 C   0  0  0  0  0  0  0  0  0  0  0  0
  152.7953  142.1922  159.1662 C   0  0  0  0  0  0  0  0  0  0  0  0
  153.5824  140.8966  159.9978 Cl  0  0  0  0  0  0  0  0  0  0  0  0
  148.4726  137.9246  157.6145 C   0  0  0  0  0  0  0  0  0  0  0  0
  148.3121  139.0155  158.1643 O   0  0  0  0  0  0  0  0  0  0  0  0
  148.4724  136.6444  158.3259 C   0  0  0  0  0  0  0  0  0  0  0  0
  148.2643  136.7268  159.7356 C   0  0  0  0  0  0  0  0  0  0  0  0
  148.0862  136.7744  160.8785 N   0  0  0  0  0  0  0  0  0  0  0  0
  148.6613  135.4621  157.6877 C   0  0  0  0  0  0  0  0  0  0  0  0
  148.6736  134.1063  158.3805 C   0  0  0  0  0  0  0  0  0  0  0  0
  149.9730  133.7047  155.7473 H   0  0  0  0  0  0  0  0  0  0  0  0
  149.2134  134.4737  154.3591 H   0  0  0  0  0  0  0  0  0  0  0  0
  148.2302  133.5653  155.5011 H   0  0  0  0  0  0  0  0  0  0  0  0
  147.8971  138.9840  154.6917 H   0  0  0  0  0  0  0  0  0  0  0  0
  148.5659  139.8699  156.0111 H   0  0  0  0  0  0  0  0  0  0  0  0
  150.2427  138.2305  154.0029 H   0  0  0  0  0  0  0  0  0  0  0  0
  149.7140  140.0453  153.0195 H   0  0  0  0  0  0  0  0  0  0  0  0
  151.1742  138.4555  156.4252 H   0  0  0  0  0  0  0  0  0  0  0  0
  152.1989  139.0068  155.1049 H   0  0  0  0  0  0  0  0  0  0  0  0
  150.9280  140.0820  158.1850 H   0  0  0  0  0  0  0  0  0  0  0  0
  152.5864  139.9139  157.6711 H   0  0  0  0  0  0  0  0  0  0  0  0
  150.6839  142.8617  156.5550 H   0  0  0  0  0  0  0  0  0  0  0  0
  151.0700  145.1790  157.3440 H   0  0  0  0  0  0  0  0  0  0  0  0
  152.5534  145.6021  159.2962 H   0  0  0  0  0  0  0  0  0  0  0  0
  153.6547  143.7009  160.4542 H   0  0  0  0  0  0  0  0  0  0  0  0
  148.5166  134.1907  159.4555 H   0  0  0  0  0  0  0  0  0  0  0  0
  149.6313  133.6073  158.2287 H   0  0  0  0  0  0  0  0  0  0  0  0
  147.8847  133.4665  157.9839 H   0  0  0  0  0  0  0  0  0  0  0  0
  1  2  1  0  0  0  0
  1 25  1  0  0  0  0
  1 26  1  0  0  0  0
  1 27  1  0  0  0  0
  2 23  1  0  0  0  0
  2  3  2  0  0  0  0
  3  4  1  0  0  0  0
  4  5  1  0  0  0  0
  4 18  1  0  0  0  0
  5  6  1  0  0  0  0
  5 28  1  0  0  0  0
  5 29  1  0  0  0  0
  6  7  1  0  0  0  0
  6  8  1  0  0  0  0
  6 30  1  0  0  0  0
  7 31  1  0  0  0  0
  8  9  1  0  0  0  0
  8 32  1  0  0  0  0
  8 33  1  0  0  0  0
  9 10  1  0  0  0  0
 10 11  1  0  0  0  0
 10 34  1  0  0  0  0
 10 35  1  0  0  0  0
 11 16  1  0  0  0  0
 11 12  2  0  0  0  0
 12 13  1  0  0  0  0
 12 36  1  0  0  0  0
 13 14  2  0  0  0  0
 13 37  1  0  0  0  0
 14 15  1  0  0  0  0
 14 38  1  0  0  0  0
 15 16  2  0  0  0  0
 15 39  1  0  0  0  0
 16 17  1  0  0  0  0
 18 19  2  0  0  0  0
 18 20  1  0  0  0  0
 20 21  1  0  0  0  0
 20 23  2  0  0  0  0
 21 22  3  0  0  0  0
 23 24  1  0  0  0  0
 24 40  1  0  0  0  0
 24 41  1  0  0  0  0
 24 42  1  0  0  0  0
M  END
> <s_m_source_file>
AV-unprocessed.smi

> <i_m_source_file_index>
1623

> <i_lp_mmshare_version>
43012

> <i_f3d_flags>
0

> <s_epik_input>
TiNDYyhjMVtDSDNdKWMoPU8pbihuYzFbQ0gzXSlbQ0gyXVtDQEhdKFtPSF0pW0NIMl1PW0NIMl1jMltjSF1bY0hdW2NIXVtjSF1jMkNs

> <s_epik_cmdline>
J2VwaWtfcHl0aG9uJywgJy1waCcsICc3LjAnLCAnLXRuJywgJzgnLCAnLW1hJywgJzIwMCcsICctbWV0YWxfYmluZGluZycsICctaW1hZScsICc8aW5maWxlLm1hZT4nLCAnLW9tYWUnLCAnPG91dGZpbGUubWFlPic=

> <r_lp_tautomer_probability>
1

> <r_epik_Ionization_Penalty>
6.50533e-08

> <r_epik_Ionization_Penalty_Charging>
2.19172e-10

> <r_epik_Ionization_Penalty_Neutral>
6.48342e-08

> <r_epik_State_Penalty>
-0

> <r_epik_Charging_Adjusted_Penalty>
2.19172e-10

> <i_epik_Tot_Q>
0

> <i_epik_Tot_abs_Q>
0

> <r_epik_Metal_State_Penalty>
-0

> <b_epik_Metal_Only>
0

> <s_lp_Force_Field>
OPLS_2005

> <r_lp_Energy>
29.8059

> <b_lp_Chiralities_Consistent>
1

> <s_lp_Variant>
AV-unprocessed.smi:1623-2

> <Gold.Version>
5.8.1

> <Gold.Id.Protein>
6NUR|6NUR_protein|mol2

> <Gold.PLP.Fitness>
50.9989

> <Gold.PLP.PLP>
-41.4185

> <Gold.PLP.part.hbond>
-4.9665

> <Gold.PLP.part.metal>
0.0000

> <Gold.PLP.part.buried>
-6.3262

> <Gold.PLP.part.nonpolar>
-31.4821

> <Gold.PLP.part.repulsive>
0.0656

> <Gold.PLP.ligand.clash>
0.0000

> <Gold.PLP.ligand.torsion>
0.6464

> <Gold.PLP.Chemscore.Hbond>
3.5648

> <Gold.PLP.Chemscore.CHOScore>
0.0000

> <Gold.PLP.Chemscore.Metal>
0.0000

> <Gold.Chemscore.Hbonds>
donor molecule, donor type, donor heavy atom, donor atom, acceptor molecule, acceptor atom, score
      L1  H     7    31       P1  7957  1.00
      P1  H  6931  6943       L1    22  1.00
      P1  H  6934  6947       L1    22  0.02
      P1  H  7989  7998       L1     7  0.78

> <Gold.PLP.Chemscore.Internal.Correction>
0.1788

> <Gold.Rescore>
     Score         DG    S(hbond)    S(metal)    S(lipo)     H(rot)  DE(clash)    DE(int)     intcor
     20.87     -21.59       2.66        0.00     115.90       2.48       0.14       0.58       ----

> <Gold.Chemscore.Fitness>
20.8692

> <Gold.Chemscore.DG>
-21.5881

> <Gold.Chemscore.ZeroCoef>
-5.4800

> <Gold.Chemscore.Hbond>
2.6618

> <Gold.Chemscore.Metal>
0.0000

> <Gold.Chemscore.Lipo>
115.9017

> <Gold.Chemscore.Internal_Hbond>
0.0000

> <Gold.Chemscore.DEClash>
0.1424

> <Gold.Chemscore.DEInternal>
0.5765

> <Gold.Chemscore.Rot>
2.4777

> <Gold.Chemscore.Internal.Correction>
   9.000000E+99

> <Gold.Chemscore.Hbonds>
donor molecule, donor type, donor heavy atom, donor atom, acceptor molecule, acceptor atom, score
      L1  H     7    31       P1  7957  0.98
      P1  H  6931  6943       L1    22  0.85
      P1  H  6934  6947       L1    22  0.01
      P1  H  7989  7998       L1     7  0.25

> <Gold.Chemscore.Hbond.Weighted>
-8.8904

> <Gold.Chemscore.Metal.Weighted>
-0.0000

> <Gold.Chemscore.Lipo.Weighted>
-13.5605

> <Gold.Chemscore.Internal_Hbond.Weighted>
0.0000

> <Gold.Chemscore.DEClash.Weighted>
0.1424

> <Gold.Chemscore.DEInternal.Weighted>
0.5765

> <Gold.Chemscore.Rot.Weighted>
6.3428

> <Gold.Chemscore.Internal.Correction.Weighted>
   9.000000E+99

> <Gold.Protein.RotatedTorsions>
[ 6907 6896 6895 6894 ] final  164.90 input  -60.11 | X-H torsion
[ 7974 7965 7964 7962 ] final -120.27 input  175.53 | X-H torsion
[ 8008 7997 7996 7995 ] final   18.30 input   59.86 | X-H torsion
[ 10167 10162 10161 10158 ] final  -91.30 input  -65.29 | X-H torsion
[ 10718 10713 10712 10709 ] final  -75.61 input   66.30 | X-H torsion
[ 10763 10752 10751 10750 ] final -164.94 input  -60.55 | X-H torsion
[ 11005 11000 10999 10996 ] final -102.70 input  -57.11 | X-H torsion

> <Gold.Protein.ActiveResidues>
 VAL166  LYS551  ARG553  GLY616  TRP617  ASP618  TYR619  PRO620  LYS621  CYS622 
 ASP623  PHE694  ASN695  SER759  ASP760  ASP761  ALA762  ILE779  LEU786  VAL792 
 PHE793  MET794  SER795  GLU796  ALA797  LYS798  CYS799  TRP800  GLU811  SER814 

> <Gold.Protein.RotatedAtoms>
  151.9028  133.3542  159.3836 H   0  0  0  0  0  0  0  0  0  0  0  0  # atno 6907 bound_to 6896
  150.7076  134.4811  159.5480 H   0  0  0  0  0  0  0  0  0  0  0  0  # atno 6908 bound_to 6896
  152.2402  134.8236  160.0512 H   0  0  0  0  0  0  0  0  0  0  0  0  # atno 6909 bound_to 6896
  145.0532  140.8234  143.4196 H   0  0  0  0  0  0  0  0  0  0  0  0  # atno 7974 bound_to 7965
  154.9040  140.3004  155.5302 H   0  0  0  0  0  0  0  0  0  0  0  0  # atno 8008 bound_to 7997
  156.3017  140.2401  156.4006 H   0  0  0  0  0  0  0  0  0  0  0  0  # atno 8009 bound_to 7997
  154.8492  140.0410  157.1582 H   0  0  0  0  0  0  0  0  0  0  0  0  # atno 8010 bound_to 7997
  140.3463  143.2915  151.9778 H   0  0  0  0  0  0  0  0  0  0  0  0  # atno 10167 bound_to 10162
  156.0202  130.4445  150.3069 H   0  0  0  0  0  0  0  0  0  0  0  0  # atno 10718 bound_to 10713
  154.6980  135.2982  154.9383 H   0  0  0  0  0  0  0  0  0  0  0  0  # atno 10763 bound_to 10752
  154.0325  135.6668  153.4786 H   0  0  0  0  0  0  0  0  0  0  0  0  # atno 10764 bound_to 10752
  153.0660  135.5088  154.8108 H   0  0  0  0  0  0  0  0  0  0  0  0  # atno 10765 bound_to 10752
  141.1178  133.8579  157.1392 H   0  0  0  0  0  0  0  0  0  0  0  0  # atno 11005 bound_to 11000
  145.1501  139.2520  143.5445 LP  0  0  0  0  0  0  0  0  0  0  0  0  # atno 17320 bound_to 7965
  146.3519  140.1201  142.8600 LP  0  0  0  0  0  0  0  0  0  0  0  0  # atno 17321 bound_to 7965
  139.4833  144.6114  151.7426 LP  0  0  0  0  0  0  0  0  0  0  0  0  # atno 17342 bound_to 10162
  140.5262  144.0803  150.6038 LP  0  0  0  0  0  0  0  0  0  0  0  0  # atno 17343 bound_to 10162
  157.1171  131.0237  151.3024 LP  0  0  0  0  0  0  0  0  0  0  0  0  # atno 17370 bound_to 10713
  157.4658  130.7680  149.7277 LP  0  0  0  0  0  0  0  0  0  0  0  0  # atno 17371 bound_to 10713
  140.0112  134.9987  157.0399 LP  0  0  0  0  0  0  0  0  0  0  0  0  # atno 17394 bound_to 11000
  140.4596  134.1498  155.7190 LP  0  0  0  0  0  0  0  0  0  0  0  0  # atno 17395 bound_to 11000

$$$$
