AV-unprocessed.smi:1644|AV-procd|sdf|6586|dock4
  -GOLD-   22720 7273D 1   1.00000     0.00000
 Structure written by MMmdl.
 49 51  0  0  0  0  0  0  0  0  1 V2000
  144.4700  134.3644  151.6853 C   0  0  0  0  0  0  0  0  0  0  0  0
  144.1310  134.5922  153.1621 C   0  0  0  0  0  0  0  0  0  0  0  0
  145.0381  135.6547  153.8153 C   0  0  0  0  0  0  0  0  0  0  0  0
  144.8648  137.0992  153.2938 C   0  0  2  0  0  0  0  0  0  0  0  0
  145.3266  137.2772  151.9329 N   0  0  0  0  0  0  0  0  0  0  0  0
  146.2584  138.2334  151.8281 C   0  0  0  0  0  0  0  0  0  0  0  0
  146.8055  138.5716  150.7798 O   0  0  0  0  0  0  0  0  0  0  0  0
  146.4787  138.7523  153.0514 N   0  0  0  0  0  0  0  0  0  0  0  0
  147.4338  139.8336  153.3348 C   0  0  0  0  0  0  0  0  0  0  0  0
  148.5903  139.4321  154.2871 C   0  0  1  0  0  0  0  0  0  0  0  0
  149.3693  138.4566  153.6271 O   0  0  0  0  0  0  0  0  0  0  0  0
  149.5460  140.5663  154.7257 C   0  0  0  0  0  0  0  0  0  0  0  0
  150.3609  140.2489  155.8857 N   0  0  0  0  0  0  0  0  0  0  0  0
  150.7650  139.0232  156.2724 C   0  0  0  0  0  0  0  0  0  0  0  0
  151.5231  138.9463  157.3620 N   0  0  0  0  0  0  0  0  0  0  0  0
  151.6027  140.2748  157.7400 C   0  0  0  0  0  0  0  0  0  0  0  0
  152.2832  140.8787  158.8193 C   0  0  0  0  0  0  0  0  0  0  0  0
  152.2302  142.2762  159.0184 C   0  0  0  0  0  0  0  0  0  0  0  0
  152.9881  142.8856  160.1846 C   0  0  0  0  0  0  0  0  0  0  0  0
  151.4771  143.0908  158.1360 C   0  0  0  0  0  0  0  0  0  0  0  0
  151.4055  144.5952  158.3285 C   0  0  0  0  0  0  0  0  0  0  0  0
  150.7877  142.5032  157.0553 C   0  0  0  0  0  0  0  0  0  0  0  0
  150.8650  141.1136  156.8536 C   0  0  0  0  0  0  0  0  0  0  0  0
  145.7445  138.1258  153.9823 C   0  0  0  0  0  0  0  0  0  0  0  0
  145.7515  138.3211  155.1975 O   0  0  0  0  0  0  0  0  0  0  0  0
  143.8159  133.6094  151.2485 H   0  0  0  0  0  0  0  0  0  0  0  0
  145.4988  134.0236  151.5651 H   0  0  0  0  0  0  0  0  0  0  0  0
  144.3505  135.2818  151.1083 H   0  0  0  0  0  0  0  0  0  0  0  0
  143.0849  134.8897  153.2405 H   0  0  0  0  0  0  0  0  0  0  0  0
  144.2235  133.6455  153.6950 H   0  0  0  0  0  0  0  0  0  0  0  0
  144.8573  135.6548  154.8908 H   0  0  0  0  0  0  0  0  0  0  0  0
  146.0813  135.3595  153.6939 H   0  0  0  0  0  0  0  0  0  0  0  0
  143.8225  137.4122  153.3665 H   0  0  0  0  0  0  0  0  0  0  0  0
  144.9747  136.7346  151.1573 H   0  0  0  0  0  0  0  0  0  0  0  0
  147.8487  140.1416  152.3732 H   0  0  0  0  0  0  0  0  0  0  0  0
  146.9296  140.7184  153.7265 H   0  0  0  0  0  0  0  0  0  0  0  0
  148.1895  138.9357  155.1688 H   0  0  0  0  0  0  0  0  0  0  0  0
  148.8016  137.9460  153.0700 H   0  0  0  0  0  0  0  0  0  0  0  0
  150.2209  140.8207  153.9076 H   0  0  0  0  0  0  0  0  0  0  0  0
  148.9724  141.4685  154.9449 H   0  0  0  0  0  0  0  0  0  0  0  0
  150.5074  138.1383  155.7088 H   0  0  0  0  0  0  0  0  0  0  0  0
  152.8525  140.2565  159.4940 H   0  0  0  0  0  0  0  0  0  0  0  0
  152.3015  143.3917  160.8635 H   0  0  0  0  0  0  0  0  0  0  0  0
  153.7199  143.6103  159.8272 H   0  0  0  0  0  0  0  0  0  0  0  0
  153.5218  142.1248  160.7548 H   0  0  0  0  0  0  0  0  0  0  0  0
  150.7687  145.0623  157.5768 H   0  0  0  0  0  0  0  0  0  0  0  0
  152.3987  145.0372  158.2469 H   0  0  0  0  0  0  0  0  0  0  0  0
  150.9967  144.8369  159.3097 H   0  0  0  0  0  0  0  0  0  0  0  0
  150.2157  143.1169  156.3760 H   0  0  0  0  0  0  0  0  0  0  0  0
  1  2  1  0  0  0  0
  1 26  1  0  0  0  0
  1 27  1  0  0  0  0
  1 28  1  0  0  0  0
  2  3  1  0  0  0  0
  2 29  1  0  0  0  0
  2 30  1  0  0  0  0
  3  4  1  0  0  0  0
  3 31  1  0  0  0  0
  3 32  1  0  0  0  0
  4 24  1  0  0  0  0
  4  5  1  0  0  0  0
  4 33  1  0  0  0  0
  5  6  1  0  0  0  0
  5 34  1  0  0  0  0
  6  7  2  0  0  0  0
  6  8  1  0  0  0  0
  8  9  1  0  0  0  0
  8 24  1  0  0  0  0
  9 10  1  0  0  0  0
  9 35  1  0  0  0  0
  9 36  1  0  0  0  0
 10 11  1  0  0  0  0
 10 12  1  0  0  0  0
 10 37  1  0  0  0  0
 11 38  1  0  0  0  0
 12 13  1  0  0  0  0
 12 39  1  0  0  0  0
 12 40  1  0  0  0  0
 13 23  1  0  0  0  0
 13 14  1  0  0  0  0
 14 15  2  0  0  0  0
 14 41  1  0  0  0  0
 15 16  1  0  0  0  0
 16 23  2  0  0  0  0
 16 17  1  0  0  0  0
 17 18  2  0  0  0  0
 17 42  1  0  0  0  0
 18 19  1  0  0  0  0
 18 20  1  0  0  0  0
 19 43  1  0  0  0  0
 19 44  1  0  0  0  0
 19 45  1  0  0  0  0
 20 21  1  0  0  0  0
 20 22  2  0  0  0  0
 21 46  1  0  0  0  0
 21 47  1  0  0  0  0
 21 48  1  0  0  0  0
 22 23  1  0  0  0  0
 22 49  1  0  0  0  0
 24 25  2  0  0  0  0
M  END
> <s_m_source_file>
AV-unprocessed.smi

> <i_m_source_file_index>
1644

> <i_lp_mmshare_version>
43012

> <i_f3d_flags>
0

> <s_epik_input>
W0NIM11bQ0gyXVtDSDJdW0NAQEhdMVtOSF1DKD1PKU4oQzE9TylbQ0gyXVtDQEhdKFtPSF0pW0NIMl1uKFtjSF1uMiljKGMyMylbY0hdYyhbQ0gzXSljKFtjSF0zKVtDSDNd

> <s_epik_cmdline>
J2VwaWtfcHl0aG9uJywgJy1waCcsICc3LjAnLCAnLXRuJywgJzgnLCAnLW1hJywgJzIwMCcsICctbWV0YWxfYmluZGluZycsICctaW1hZScsICc8aW5maWxlLm1hZT4nLCAnLW9tYWUnLCAnPG91dGZpbGUubWFlPic=

> <r_lp_tautomer_probability>
1

> <r_epik_Ionization_Penalty>
0.10693

> <r_epik_Ionization_Penalty_Charging>
0

> <r_epik_Ionization_Penalty_Neutral>
0.10693

> <r_epik_State_Penalty>
0.096713

> <r_epik_Charging_Adjusted_Penalty>
0.096713

> <i_epik_Tot_Q>
0

> <i_epik_Tot_abs_Q>
0

> <r_epik_Metal_State_Penalty>
0.102757

> <b_epik_Metal_Only>
0

> <s_lp_Force_Field>
OPLS_2005

> <r_lp_Energy>
20.4665

> <b_lp_Chiralities_Consistent>
1

> <s_lp_Variant>
AV-unprocessed.smi:1644-3

> <Gold.Version>
5.8.1

> <Gold.Id.Protein>
6NUR|6NUR_protein|mol2

> <Gold.PLP.Fitness>
47.8757

> <Gold.PLP.PLP>
-43.8269

> <Gold.PLP.part.hbond>
-4.0000

> <Gold.PLP.part.metal>
0.0000

> <Gold.PLP.part.buried>
-3.6032

> <Gold.PLP.part.nonpolar>
-38.9050

> <Gold.PLP.part.repulsive>
0.8097

> <Gold.PLP.ligand.clash>
0.0000

> <Gold.PLP.ligand.torsion>
0.5536

> <Gold.PLP.Chemscore.Hbond>
1.6640

> <Gold.PLP.Chemscore.CHOScore>
0.0000

> <Gold.PLP.Chemscore.Metal>
0.0000

> <Gold.Chemscore.Hbonds>
donor molecule, donor type, donor heavy atom, donor atom, acceptor molecule, acceptor atom, score
      L1  H    11    38       P1  7948  0.65
      P1  H  7954  7966       L1     7  0.93

> <Gold.PLP.Chemscore.Internal.Correction>
0.1639

> <Gold.Rescore>
     Score         DG    S(hbond)    S(metal)    S(lipo)     H(rot)  DE(clash)    DE(int)     intcor
     15.49     -16.46       1.71        0.00     104.47       2.72       0.32       0.65       ----

> <Gold.Chemscore.Fitness>
15.4927

> <Gold.Chemscore.DG>
-16.4619

> <Gold.Chemscore.ZeroCoef>
-5.4800

> <Gold.Chemscore.Hbond>
1.7140

> <Gold.Chemscore.Metal>
0.0000

> <Gold.Chemscore.Lipo>
104.4737

> <Gold.Chemscore.Internal_Hbond>
0.0000

> <Gold.Chemscore.DEClash>
0.3206

> <Gold.Chemscore.DEInternal>
0.6486

> <Gold.Chemscore.Rot>
2.7212

> <Gold.Chemscore.Internal.Correction>
   9.000000E+99

> <Gold.Chemscore.Hbonds>
donor molecule, donor type, donor heavy atom, donor atom, acceptor molecule, acceptor atom, score
      L1  H    11    38       P1  7948  0.63
      P1  H  7954  7966       L1     7  0.90

> <Gold.Chemscore.Hbond.Weighted>
-5.7248

> <Gold.Chemscore.Metal.Weighted>
-0.0000

> <Gold.Chemscore.Lipo.Weighted>
-12.2234

> <Gold.Chemscore.Internal_Hbond.Weighted>
0.0000

> <Gold.Chemscore.DEClash.Weighted>
0.3206

> <Gold.Chemscore.DEInternal.Weighted>
0.6486

> <Gold.Chemscore.Rot.Weighted>
6.9663

> <Gold.Chemscore.Internal.Correction.Weighted>
   9.000000E+99

> <Gold.Protein.RotatedTorsions>
[ 6907 6896 6895 6894 ] final  110.26 input  -60.11 | X-H torsion
[ 7974 7965 7964 7962 ] final  -12.37 input  175.53 | X-H torsion
[ 8008 7997 7996 7995 ] final   97.01 input   59.86 | X-H torsion
[ 10167 10162 10161 10158 ] final  122.07 input  -65.29 | X-H torsion
[ 10718 10713 10712 10709 ] final  -67.43 input   66.30 | X-H torsion
[ 10763 10752 10751 10750 ] final   77.56 input  -60.55 | X-H torsion
[ 11005 11000 10999 10996 ] final  -47.44 input  -57.11 | X-H torsion

> <Gold.Protein.ActiveResidues>
 VAL166  LYS551  ARG553  GLY616  TRP617  ASP618  TYR619  PRO620  LYS621  CYS622 
 ASP623  PHE694  ASN695  SER759  ASP760  ASP761  ALA762  ILE779  LEU786  VAL792 
 PHE793  MET794  SER795  GLU796  ALA797  LYS798  CYS799  TRP800  GLU811  SER814 

> <Gold.Protein.RotatedAtoms>
  152.5028  133.8826  159.7353 H   0  0  0  0  0  0  0  0  0  0  0  0  # atno 6907 bound_to 6896
  150.9285  133.6786  159.2823 H   0  0  0  0  0  0  0  0  0  0  0  0  # atno 6908 bound_to 6896
  151.4139  135.0993  159.9646 H   0  0  0  0  0  0  0  0  0  0  0  0  # atno 6909 bound_to 6896
  146.2154  140.3048  142.8378 H   0  0  0  0  0  0  0  0  0  0  0  0  # atno 7974 bound_to 7965
  156.0856  140.3264  155.7750 H   0  0  0  0  0  0  0  0  0  0  0  0  # atno 8008 bound_to 7997
  155.5081  140.0575  157.2945 H   0  0  0  0  0  0  0  0  0  0  0  0  # atno 8009 bound_to 7997
  154.4607  140.1965  156.0269 H   0  0  0  0  0  0  0  0  0  0  0  0  # atno 8010 bound_to 7997
  139.5881  144.7014  151.3359 H   0  0  0  0  0  0  0  0  0  0  0  0  # atno 10167 bound_to 10162
  156.0558  130.4278  150.1853 H   0  0  0  0  0  0  0  0  0  0  0  0  # atno 10718 bound_to 10713
  153.0808  135.4909  154.8498 H   0  0  0  0  0  0  0  0  0  0  0  0  # atno 10763 bound_to 10752
  154.7148  135.3027  154.9144 H   0  0  0  0  0  0  0  0  0  0  0  0  # atno 10764 bound_to 10752
  153.9826  135.6788  153.4803 H   0  0  0  0  0  0  0  0  0  0  0  0  # atno 10765 bound_to 10752
  141.0641  133.6699  156.3298 H   0  0  0  0  0  0  0  0  0  0  0  0  # atno 11005 bound_to 11000
  144.9031  140.7667  143.5854 LP  0  0  0  0  0  0  0  0  0  0  0  0  # atno 17320 bound_to 7965
  145.2974  139.1862  143.4707 LP  0  0  0  0  0  0  0  0  0  0  0  0  # atno 17321 bound_to 7965
  140.7149  143.7293  150.7636 LP  0  0  0  0  0  0  0  0  0  0  0  0  # atno 17342 bound_to 10162
  140.0842  143.4939  152.2513 LP  0  0  0  0  0  0  0  0  0  0  0  0  # atno 17343 bound_to 10162
  156.9929  130.9899  151.3410 LP  0  0  0  0  0  0  0  0  0  0  0  0  # atno 17370 bound_to 10713
  157.5527  130.8193  149.8165 LP  0  0  0  0  0  0  0  0  0  0  0  0  # atno 17371 bound_to 10713
  140.5809  134.5746  157.5479 LP  0  0  0  0  0  0  0  0  0  0  0  0  # atno 17394 bound_to 11000
  139.9460  134.7702  156.0562 LP  0  0  0  0  0  0  0  0  0  0  0  0  # atno 17395 bound_to 11000

$$$$
