AV-unprocessed.smi:12|AV-procd|sdf|64|dock6
  -GOLD-   2262015183D 1   1.00000     0.00000
 Structure written by MMmdl.
 41 44  0  0  0  0  0  0  0  0  1 V2000
  145.0182  144.0552  156.3240 C   0  0  0  0  0  0  0  0  0  0  0  0
  145.4071  142.7143  155.7276 C   0  0  0  0  0  0  0  0  0  0  0  0
  146.5833  142.5372  155.0808 C   0  0  0  0  0  0  0  0  0  0  0  0
  146.8883  141.3079  154.5672 N   0  0  0  0  0  0  0  0  0  0  0  0
  145.9652  140.2454  154.6970 C   0  0  0  0  0  0  0  0  0  0  0  0
  144.8204  140.3364  155.2994 N   0  0  0  0  0  0  0  0  0  0  0  0
  144.4647  141.5755  155.8656 C   0  0  0  0  0  0  0  0  0  0  0  0
  143.3941  141.7064  156.4574 O   0  0  0  0  0  0  0  0  0  0  0  0
  146.4704  139.1399  154.0813 O   0  0  0  0  0  0  0  0  0  0  0  0
  147.7678  139.4412  153.5476 C   0  0  2  0  0  0  0  0  0  0  0  0
  148.9044  138.6895  154.2463 C   0  0  2  0  0  0  0  0  0  0  0  0
  148.4988  138.1375  155.4870 O   0  0  0  0  0  0  0  0  0  0  0  0
  149.9556  139.7890  154.4598 C   0  0  2  0  0  0  0  0  0  0  0  0
  150.9691  139.5720  155.5944 C   0  0  0  0  0  0  0  0  0  0  0  0
  151.1784  140.7935  156.2850 O   0  0  0  0  0  0  0  0  0  0  0  0
  151.9903  140.8273  157.3605 C   0  0  0  0  0  0  0  0  0  0  0  0
  152.6282  139.8529  157.7639 O   0  0  0  0  0  0  0  0  0  0  0  0
  152.0344  142.1668  158.0151 C   0  0  0  0  0  0  0  0  0  0  0  0
  151.3474  143.2511  157.4204 C   0  0  0  0  0  0  0  0  0  0  0  0
  151.3755  144.5294  158.0110 C   0  0  0  0  0  0  0  0  0  0  0  0
  152.0904  144.7390  159.2046 C   0  0  0  0  0  0  0  0  0  0  0  0
  152.7762  143.6684  159.8074 C   0  0  0  0  0  0  0  0  0  0  0  0
  152.7492  142.3891  159.2181 C   0  0  0  0  0  0  0  0  0  0  0  0
  149.1802  140.9567  154.6866 O   0  0  0  0  0  0  0  0  0  0  0  0
  148.0882  140.9213  153.8254 C   0  0  2  0  0  0  0  0  0  0  0  0
  145.7917  144.8045  156.1519 H   0  0  0  0  0  0  0  0  0  0  0  0
  144.8698  143.9654  157.4005 H   0  0  0  0  0  0  0  0  0  0  0  0
  144.0918  144.4175  155.8770 H   0  0  0  0  0  0  0  0  0  0  0  0
  147.2860  143.3501  154.9695 H   0  0  0  0  0  0  0  0  0  0  0  0
  147.7876  139.2779  152.4694 H   0  0  0  0  0  0  0  0  0  0  0  0
  149.2924  137.8809  153.6262 H   0  0  0  0  0  0  0  0  0  0  0  0
  147.6346  138.4597  155.6920 H   0  0  0  0  0  0  0  0  0  0  0  0
  150.4984  139.9435  153.5251 H   0  0  0  0  0  0  0  0  0  0  0  0
  150.5794  138.8306  156.2932 H   0  0  0  0  0  0  0  0  0  0  0  0
  151.9125  139.1842  155.2076 H   0  0  0  0  0  0  0  0  0  0  0  0
  150.7926  143.1150  156.5033 H   0  0  0  0  0  0  0  0  0  0  0  0
  150.8481  145.3495  157.5464 H   0  0  0  0  0  0  0  0  0  0  0  0
  152.1126  145.7198  159.6567 H   0  0  0  0  0  0  0  0  0  0  0  0
  153.3253  143.8281  160.7237 H   0  0  0  0  0  0  0  0  0  0  0  0
  153.2869  141.5896  159.7065 H   0  0  0  0  0  0  0  0  0  0  0  0
  148.1469  141.5726  152.9526 H   0  0  0  0  0  0  0  0  0  0  0  0
  1  2  1  0  0  0  0
  1 26  1  0  0  0  0
  1 27  1  0  0  0  0
  1 28  1  0  0  0  0
  2  7  1  0  0  0  0
  2  3  2  0  0  0  0
  3  4  1  0  0  0  0
  3 29  1  0  0  0  0
  4 25  1  0  0  0  0
  4  5  1  0  0  0  0
  5  6  2  0  0  0  0
  5  9  1  0  0  0  0
  6  7  1  0  0  0  0
  7  8  2  0  0  0  0
  9 10  1  0  0  0  0
 10 25  1  0  0  0  0
 10 11  1  0  0  0  0
 10 30  1  0  0  0  0
 11 12  1  0  0  0  0
 11 13  1  0  0  0  0
 11 31  1  0  0  0  0
 12 32  1  0  0  0  0
 13 14  1  0  0  0  0
 13 24  1  0  0  0  0
 13 33  1  0  0  0  0
 14 15  1  0  0  0  0
 14 34  1  0  0  0  0
 14 35  1  0  0  0  0
 15 16  1  0  0  0  0
 16 17  2  0  0  0  0
 16 18  1  0  0  0  0
 18 23  1  0  0  0  0
 18 19  2  0  0  0  0
 19 20  1  0  0  0  0
 19 36  1  0  0  0  0
 20 21  2  0  0  0  0
 20 37  1  0  0  0  0
 21 22  1  0  0  0  0
 21 38  1  0  0  0  0
 22 23  2  0  0  0  0
 22 39  1  0  0  0  0
 23 40  1  0  0  0  0
 24 25  1  0  0  0  0
 25 41  1  0  0  0  0
M  END
> <s_m_source_file>
AV-unprocessed.smi

> <i_m_source_file_index>
12

> <i_lp_mmshare_version>
43012

> <i_f3d_flags>
0

> <s_epik_input>
W0NIM11jKFtjSF0xKWMoPU8pbmMobjEyKU9bQ0BIXTNbQ0BASF0yT1tDQEBIXShbQ0BASF0zW09IXSlbQ0gyXU9DKD1PKWM0W2NIXVtjSF1bY0hdW2NIXVtjSF00

> <s_epik_cmdline>
J2VwaWtfcHl0aG9uJywgJy1waCcsICc3LjAnLCAnLXRuJywgJzgnLCAnLW1hJywgJzIwMCcsICctbWV0YWxfYmluZGluZycsICctaW1hZScsICc8aW5maWxlLm1hZT4nLCAnLW9tYWUnLCAnPG91dGZpbGUubWFlPic=

> <r_lp_tautomer_probability>
0.933681

> <r_epik_Ionization_Penalty>
0.00399549

> <r_epik_Ionization_Penalty_Charging>
3.09373e-09

> <r_epik_Ionization_Penalty_Neutral>
0.00399549

> <r_epik_State_Penalty>
0.00284953

> <r_epik_Charging_Adjusted_Penalty>
0.00284953

> <i_epik_Tot_Q>
0

> <i_epik_Tot_abs_Q>
0

> <r_epik_Metal_State_Penalty>
-0

> <b_epik_Metal_Only>
0

> <s_epik_Chemistry_Notes>
This compound has an ester and may undergo hydrolysis at high or low pH. This compound contains an acetal/aminal-like group ( X-CH(R)-Y where X, Y are N, S, or O) that may be acid/base labile, releasing an aldehyde.

> <s_lp_Force_Field>
OPLS_2005

> <r_lp_Energy>
52.4355

> <b_lp_Chiralities_Consistent>
1

> <s_lp_Variant>
AV-unprocessed.smi:12-4

> <Gold.Version>
5.8.1

> <Gold.Id.Protein>
6NUR|6NUR_protein|mol2

> <Gold.PLP.Fitness>
44.5116

> <Gold.PLP.PLP>
-40.5988

> <Gold.PLP.part.hbond>
-1.0000

> <Gold.PLP.part.metal>
0.0000

> <Gold.PLP.part.buried>
-2.5775

> <Gold.PLP.part.nonpolar>
-36.8638

> <Gold.PLP.part.repulsive>
0.9517

> <Gold.PLP.ligand.clash>
0.0000

> <Gold.PLP.ligand.torsion>
0.5918

> <Gold.PLP.Chemscore.Hbond>
1.0000

> <Gold.PLP.Chemscore.CHOScore>
0.6966

> <Gold.PLP.Chemscore.Metal>
0.0000

> <Gold.Chemscore.Hbonds>
donor molecule, donor type, donor heavy atom, donor atom, acceptor molecule, acceptor atom, score
      P1  H  7997  8010       L1    17  0.89
      L1  C     3    29       P1  8028  0.76

> <Gold.PLP.Chemscore.Internal.Correction>
0.0067

> <Gold.Rescore>
     Score         DG    S(hbond)    S(metal)    S(lipo)     H(rot)  DE(clash)    DE(int)     intcor
     14.29     -15.08       0.90        0.00     104.07       2.18       0.20       0.59       ----

> <Gold.Chemscore.Fitness>
14.2876

> <Gold.Chemscore.DG>
-15.0763

> <Gold.Chemscore.ZeroCoef>
-5.4800

> <Gold.Chemscore.Hbond>
0.8983

> <Gold.Chemscore.Metal>
0.0000

> <Gold.Chemscore.Lipo>
104.0744

> <Gold.Chemscore.Internal_Hbond>
0.0000

> <Gold.Chemscore.DEClash>
0.2026

> <Gold.Chemscore.DEInternal>
0.5862

> <Gold.Chemscore.Rot>
2.1800

> <Gold.Chemscore.Internal.Correction>
   9.000000E+99

> <Gold.Chemscore.Hbonds>
donor molecule, donor type, donor heavy atom, donor atom, acceptor molecule, acceptor atom, score
      P1  H  7997  8010       L1    17  0.43

> <Gold.Chemscore.Hbond.Weighted>
-3.0003

> <Gold.Chemscore.Metal.Weighted>
-0.0000

> <Gold.Chemscore.Lipo.Weighted>
-12.1767

> <Gold.Chemscore.Internal_Hbond.Weighted>
0.0000

> <Gold.Chemscore.DEClash.Weighted>
0.2026

> <Gold.Chemscore.DEInternal.Weighted>
0.5862

> <Gold.Chemscore.Rot.Weighted>
5.5807

> <Gold.Chemscore.Internal.Correction.Weighted>
   9.000000E+99

> <Gold.Protein.RotatedTorsions>
[ 6907 6896 6895 6894 ] final -146.37 input  -60.11 | X-H torsion
[ 7974 7965 7964 7962 ] final  -65.34 input  175.53 | X-H torsion
[ 8008 7997 7996 7995 ] final   40.72 input   59.86 | X-H torsion
[ 10167 10162 10161 10158 ] final   17.11 input  -65.29 | X-H torsion
[ 10718 10713 10712 10709 ] final   97.91 input   66.30 | X-H torsion
[ 10763 10752 10751 10750 ] final -132.00 input  -60.55 | X-H torsion
[ 11005 11000 10999 10996 ] final  170.52 input  -57.11 | X-H torsion

> <Gold.Protein.ActiveResidues>
 VAL166  LYS551  ARG553  GLY616  TRP617  ASP618  TYR619  PRO620  LYS621  CYS622 
 ASP623  PHE694  ASN695  SER759  ASP760  ASP761  ALA762  ILE779  LEU786  VAL792 
 PHE793  MET794  SER795  GLU796  ALA797  LYS798  CYS799  TRP800  GLU811  SER814 

> <Gold.Protein.RotatedAtoms>
  151.1406  133.4974  159.2596 H   0  0  0  0  0  0  0  0  0  0  0  0  # atno 6907 bound_to 6896
  151.1659  135.0295  159.8740 H   0  0  0  0  0  0  0  0  0  0  0  0  # atno 6908 bound_to 6896
  152.5462  134.1275  159.8478 H   0  0  0  0  0  0  0  0  0  0  0  0  # atno 6909 bound_to 6896
  145.7554  140.8888  143.0457 H   0  0  0  0  0  0  0  0  0  0  0  0  # atno 7974 bound_to 7965
  155.2578  140.3357  155.4276 H   0  0  0  0  0  0  0  0  0  0  0  0  # atno 8008 bound_to 7997
  156.2188  140.1800  156.7569 H   0  0  0  0  0  0  0  0  0  0  0  0  # atno 8009 bound_to 7997
  154.5793  140.0656  156.9066 H   0  0  0  0  0  0  0  0  0  0  0  0  # atno 8010 bound_to 7997
  140.5750  143.9090  150.6742 H   0  0  0  0  0  0  0  0  0  0  0  0  # atno 10167 bound_to 10162
  157.6904  131.0624  150.4716 H   0  0  0  0  0  0  0  0  0  0  0  0  # atno 10718 bound_to 10713
  154.8746  135.3812  154.4339 H   0  0  0  0  0  0  0  0  0  0  0  0  # atno 10763 bound_to 10752
  153.5030  135.7030  153.5826 H   0  0  0  0  0  0  0  0  0  0  0  0  # atno 10764 bound_to 10752
  153.4150  135.3915  155.2041 H   0  0  0  0  0  0  0  0  0  0  0  0  # atno 10765 bound_to 10752
  140.3092  134.7531  157.3978 H   0  0  0  0  0  0  0  0  0  0  0  0  # atno 11005 bound_to 11000
  144.6841  139.9649  143.7481 LP  0  0  0  0  0  0  0  0  0  0  0  0  # atno 17320 bound_to 7965
  146.0316  139.3340  143.0752 LP  0  0  0  0  0  0  0  0  0  0  0  0  # atno 17321 bound_to 7965
  140.2575  143.3548  152.1352 LP  0  0  0  0  0  0  0  0  0  0  0  0  # atno 17342 bound_to 10162
  139.5137  144.6937  151.5689 LP  0  0  0  0  0  0  0  0  0  0  0  0  # atno 17343 bound_to 10162
  156.5054  130.4127  149.6330 LP  0  0  0  0  0  0  0  0  0  0  0  0  # atno 17370 bound_to 10713
  156.3290  130.7321  151.2247 LP  0  0  0  0  0  0  0  0  0  0  0  0  # atno 17371 bound_to 10713
  140.1040  134.5435  155.8327 LP  0  0  0  0  0  0  0  0  0  0  0  0  # atno 17394 bound_to 11000
  141.2112  133.6703  156.6563 LP  0  0  0  0  0  0  0  0  0  0  0  0  # atno 17395 bound_to 11000

$$$$
