AV-unprocessed.smi:840|AV-procd|sdf|3913|dock5
  -GOLD-   22720 1373D 1   1.00000     0.00000
 Structure written by MMmdl.
 36 37  0  0  0  0  0  0  0  0  2 V2000
  149.2800  141.5445  154.8714 C   0  0  0  0  0  0  0  0  0  0  0  0
  149.1668  141.4097  156.3990 C   0  0  2  0  0  0  0  0  0  0  0  0
  148.0755  142.2723  156.8510 N   0  0  0  0  0  0  0  0  0  0  0  0
  147.0344  141.8958  157.6094 C   0  0  0  0  0  0  0  0  0  0  0  0
  146.9411  140.7256  157.9882 O   0  0  0  0  0  0  0  0  0  0  0  0
  146.1661  142.8972  157.8786 N   0  5  0  0  0  0  0  0  0  0  0  0
  145.7454  143.1020  159.1374 C   0  0  0  0  0  0  0  0  0  0  0  0
  145.9353  142.2166  160.1225 N   0  0  0  0  0  0  0  0  0  0  0  0
  145.4257  142.6366  161.3524 C   0  0  0  0  0  0  0  0  0  0  0  0
  144.8411  143.8744  161.3049 C   0  0  0  0  0  0  0  0  0  0  0  0
  144.9130  144.5529  159.7038 S   0  0  0  0  0  0  0  0  0  0  0  0
  150.5006  141.8520  157.0214 C   0  0  0  0  0  0  0  0  0  0  0  0
  151.4179  141.0454  157.1837 O   0  0  0  0  0  0  0  0  0  0  0  0
  150.5844  143.1422  157.3791 N   0  0  0  0  0  0  0  0  0  0  0  0
  151.7562  143.7757  157.9767 C   0  0  0  0  0  0  0  0  0  0  0  0
  152.3856  142.8628  159.0470 C   0  0  0  0  0  0  0  0  0  0  0  0
  152.5865  143.7365  160.2870 C   0  0  0  0  0  0  0  0  0  0  0  0
  151.4836  144.7858  160.1932 C   0  0  0  0  0  0  0  0  0  0  0  0
  151.3816  145.0860  158.6977 C   0  0  0  0  0  0  0  0  0  0  0  0
  150.0818  140.9190  154.4766 H   0  0  0  0  0  0  0  0  0  0  0  0
  149.4784  142.5734  154.5673 H   0  0  0  0  0  0  0  0  0  0  0  0
  148.3555  141.2312  154.3852 H   0  0  0  0  0  0  0  0  0  0  0  0
  148.9516  140.3708  156.6573 H   0  0  0  0  0  0  0  0  0  0  0  0
  148.1171  143.2414  156.5724 H   0  0  0  0  0  0  0  0  0  0  0  0
  145.5250  141.9896  162.2111 H   0  0  0  0  0  0  0  0  0  0  0  0
  144.3762  144.4258  162.1081 H   0  0  0  0  0  0  0  0  0  0  0  0
  149.7835  143.7321  157.2065 H   0  0  0  0  0  0  0  0  0  0  0  0
  152.4938  143.9859  157.1997 H   0  0  0  0  0  0  0  0  0  0  0  0
  151.7125  142.0411  159.2978 H   0  0  0  0  0  0  0  0  0  0  0  0
  153.3220  142.4180  158.7086 H   0  0  0  0  0  0  0  0  0  0  0  0
  152.5453  143.1650  161.2147 H   0  0  0  0  0  0  0  0  0  0  0  0
  153.5609  144.2245  160.2384 H   0  0  0  0  0  0  0  0  0  0  0  0
  150.5426  144.3633  160.5481 H   0  0  0  0  0  0  0  0  0  0  0  0
  151.6960  145.6754  160.7870 H   0  0  0  0  0  0  0  0  0  0  0  0
  152.1067  145.8577  158.4364 H   0  0  0  0  0  0  0  0  0  0  0  0
  150.3968  145.4685  158.4247 H   0  0  0  0  0  0  0  0  0  0  0  0
  1  2  1  0  0  0  0
  1 20  1  0  0  0  0
  1 21  1  0  0  0  0
  1 22  1  0  0  0  0
  2  3  1  0  0  0  0
  2 12  1  0  0  0  0
  2 23  1  0  0  0  0
  3  4  1  0  0  0  0
  3 24  1  0  0  0  0
  4  5  2  0  0  0  0
  4  6  1  0  0  0  0
  6  7  1  0  0  0  0
  7 11  1  0  0  0  0
  7  8  2  0  0  0  0
  8  9  1  0  0  0  0
  9 10  2  0  0  0  0
  9 25  1  0  0  0  0
 10 11  1  0  0  0  0
 10 26  1  0  0  0  0
 12 13  2  0  0  0  0
 12 14  1  0  0  0  0
 14 15  1  0  0  0  0
 14 27  1  0  0  0  0
 15 19  1  0  0  0  0
 15 16  1  0  0  0  0
 15 28  1  0  0  0  0
 16 17  1  0  0  0  0
 16 29  1  0  0  0  0
 16 30  1  0  0  0  0
 17 18  1  0  0  0  0
 17 31  1  0  0  0  0
 17 32  1  0  0  0  0
 18 19  1  0  0  0  0
 18 33  1  0  0  0  0
 18 34  1  0  0  0  0
 19 35  1  0  0  0  0
 19 36  1  0  0  0  0
M  CHG  1   6  -1
M  END
> <s_m_source_file>
AV-unprocessed.smi

> <i_m_source_file_index>
840

> <i_lp_mmshare_version>
43012

> <i_f3d_flags>
0

> <s_epik_input>
W0NIMl0xW0NIMl1bQ0gyXVtDSDJdW0NIXTFbTkhdQyg9TylbQ0BIXShbQ0gzXSlbTkhdQyg9TylbTkhdYzJuW2NIXVtjSF1zMg==

> <s_epik_cmdline>
J2VwaWtfcHl0aG9uJywgJy1waCcsICc3LjAnLCAnLXRuJywgJzgnLCAnLW1hJywgJzIwMCcsICctbWV0YWxfYmluZGluZycsICctaW1hZScsICc8aW5maWxlLm1hZT4nLCAnLW9tYWUnLCAnPG91dGZpbGUubWFlPic=

> <r_lp_tautomer_probability>
1

> <r_epik_Ionization_Penalty>
6.35467

> <r_epik_Ionization_Penalty_Charging>
5.47395

> <r_epik_Ionization_Penalty_Neutral>
0.880717

> <r_epik_State_Penalty>
5.4739

> <r_epik_Charging_Adjusted_Penalty>
10.9479

> <i_epik_Tot_Q>
-1

> <i_epik_Tot_abs_Q>
1

> <r_epik_Metal_State_Penalty>
1.48639

> <b_epik_Metal_Only>
1

> <s_lp_Force_Field>
OPLS_2005

> <r_lp_Energy>
14.0087

> <b_lp_Chiralities_Consistent>
1

> <s_lp_Variant>
AV-unprocessed.smi:840-3

> <Gold.Version>
5.8.1

> <Gold.Id.Protein>
6NUR|6NUR_protein|mol2

> <Gold.PLP.Fitness>
44.7845

> <Gold.PLP.PLP>
-39.1276

> <Gold.PLP.part.hbond>
-4.0000

> <Gold.PLP.part.metal>
0.0000

> <Gold.PLP.part.buried>
-6.9292

> <Gold.PLP.part.nonpolar>
-29.0418

> <Gold.PLP.part.repulsive>
0.1671

> <Gold.PLP.ligand.clash>
0.0000

> <Gold.PLP.ligand.torsion>
1.4787

> <Gold.PLP.Chemscore.Hbond>
2.8406

> <Gold.PLP.Chemscore.CHOScore>
0.0000

> <Gold.PLP.Chemscore.Metal>
0.0000

> <Gold.Chemscore.Hbonds>
donor molecule, donor type, donor heavy atom, donor atom, acceptor molecule, acceptor atom, score
      L1  H     3    24       P1  8028  0.95
      L1  H    14    27       P1  8028  0.80
      P1  H  6934  6946       L1     8  0.90

> <Gold.PLP.Chemscore.Internal.Correction>
0.0925

> <Gold.Rescore>
     Score         DG    S(hbond)    S(metal)    S(lipo)     H(rot)  DE(clash)    DE(int)     intcor
     13.50     -17.83       1.79        0.00      89.81       1.62       0.06       4.27       ----

> <Gold.Chemscore.Fitness>
13.5000

> <Gold.Chemscore.DG>
-17.8256

> <Gold.Chemscore.ZeroCoef>
-5.4800

> <Gold.Chemscore.Hbond>
1.7923

> <Gold.Chemscore.Metal>
0.0000

> <Gold.Chemscore.Lipo>
89.8066

> <Gold.Chemscore.Internal_Hbond>
0.0000

> <Gold.Chemscore.DEClash>
0.0595

> <Gold.Chemscore.DEInternal>
4.2661

> <Gold.Chemscore.Rot>
1.6204

> <Gold.Chemscore.Internal.Correction>
   9.000000E+99

> <Gold.Chemscore.Hbonds>
donor molecule, donor type, donor heavy atom, donor atom, acceptor molecule, acceptor atom, score
      L1  H     3    24       P1  8028  0.21
      L1  H    14    27       P1  8028  0.66
      P1  H  6934  6946       L1     8  0.18

> <Gold.Chemscore.Hbond.Weighted>
-5.9863

> <Gold.Chemscore.Metal.Weighted>
-0.0000

> <Gold.Chemscore.Lipo.Weighted>
-10.5074

> <Gold.Chemscore.Internal_Hbond.Weighted>
0.0000

> <Gold.Chemscore.DEClash.Weighted>
0.0595

> <Gold.Chemscore.DEInternal.Weighted>
4.2661

> <Gold.Chemscore.Rot.Weighted>
4.1481

> <Gold.Chemscore.Internal.Correction.Weighted>
   9.000000E+99

> <Gold.Protein.RotatedTorsions>
[ 6907 6896 6895 6894 ] final  -78.39 input  -60.11 | X-H torsion
[ 7974 7965 7964 7962 ] final   32.27 input  175.53 | X-H torsion
[ 8008 7997 7996 7995 ] final   54.33 input   59.86 | X-H torsion
[ 10167 10162 10161 10158 ] final -124.79 input  -65.29 | X-H torsion
[ 10718 10713 10712 10709 ] final  171.09 input   66.30 | X-H torsion
[ 10763 10752 10751 10750 ] final  161.98 input  -60.55 | X-H torsion
[ 11005 11000 10999 10996 ] final  151.10 input  -57.11 | X-H torsion

> <Gold.Protein.ActiveResidues>
 VAL166  LYS551  ARG553  GLY616  TRP617  ASP618  TYR619  PRO620  LYS621  CYS622 
 ASP623  PHE694  ASN695  SER759  ASP760  ASP761  ALA762  ILE779  LEU786  VAL792 
 PHE793  MET794  SER795  GLU796  ALA797  LYS798  CYS799  TRP800  GLU811  SER814 

> <Gold.Protein.RotatedAtoms>
  150.6974  134.4280  159.5234 H   0  0  0  0  0  0  0  0  0  0  0  0  # atno 6907 bound_to 6896
  152.2011  134.8584  160.0517 H   0  0  0  0  0  0  0  0  0  0  0  0  # atno 6908 bound_to 6896
  151.9504  133.3629  159.4034 H   0  0  0  0  0  0  0  0  0  0  0  0  # atno 6909 bound_to 6896
  146.1497  139.6548  142.9107 H   0  0  0  0  0  0  0  0  0  0  0  0  # atno 7974 bound_to 7965
  155.4830  140.3469  155.4343 H   0  0  0  0  0  0  0  0  0  0  0  0  # atno 8008 bound_to 7997
  156.1027  140.1439  156.9474 H   0  0  0  0  0  0  0  0  0  0  0  0  # atno 8009 bound_to 7997
  154.4704  140.0903  156.7107 H   0  0  0  0  0  0  0  0  0  0  0  0  # atno 8010 bound_to 7997
  139.9890  143.5661  152.2349 H   0  0  0  0  0  0  0  0  0  0  0  0  # atno 10167 bound_to 10162
  156.9987  131.0169  151.2837 H   0  0  0  0  0  0  0  0  0  0  0  0  # atno 10718 bound_to 10713
  154.2713  135.2765  155.2737 H   0  0  0  0  0  0  0  0  0  0  0  0  # atno 10763 bound_to 10752
  154.5299  135.5732  153.6754 H   0  0  0  0  0  0  0  0  0  0  0  0  # atno 10764 bound_to 10752
  152.9945  135.6225  154.2868 H   0  0  0  0  0  0  0  0  0  0  0  0  # atno 10765 bound_to 10752
  140.1189  134.8876  157.2044 H   0  0  0  0  0  0  0  0  0  0  0  0  # atno 11005 bound_to 11000
  145.4853  141.0438  143.2623 LP  0  0  0  0  0  0  0  0  0  0  0  0  # atno 17320 bound_to 7965
  144.7889  139.6369  143.7122 LP  0  0  0  0  0  0  0  0  0  0  0  0  # atno 17321 bound_to 7965
  139.6354  144.7649  151.2449 LP  0  0  0  0  0  0  0  0  0  0  0  0  # atno 17342 bound_to 10162
  140.7462  143.6407  150.8337 LP  0  0  0  0  0  0  0  0  0  0  0  0  # atno 17343 bound_to 10162
  157.5406  130.8117  149.8024 LP  0  0  0  0  0  0  0  0  0  0  0  0  # atno 17370 bound_to 10713
  156.0179  130.3806  150.2052 LP  0  0  0  0  0  0  0  0  0  0  0  0  # atno 17371 bound_to 10713
  140.2991  134.3152  155.7294 LP  0  0  0  0  0  0  0  0  0  0  0  0  # atno 17394 bound_to 11000
  141.2147  133.7581  156.9614 LP  0  0  0  0  0  0  0  0  0  0  0  0  # atno 17395 bound_to 11000

$$$$
