AV-unprocessed.smi:1094|AV-procd|sdf|4746|dock4
  -GOLD-   22720 3283D 1   1.00000     0.00000
 Structure written by MMmdl.
 45 46  0  0  0  0  0  0  0  0  1 V2000
  144.1331  133.0636  150.4899 C   0  0  0  0  0  0  0  0  0  0  0  0
  145.0829  131.8770  150.2723 C   0  0  0  0  0  0  0  0  0  0  0  0
  145.9947  131.7021  151.4114 N   0  0  0  0  0  0  0  0  0  0  0  0
  146.7415  132.8287  151.8089 C   0  0  0  0  0  0  0  0  0  0  0  0
  147.6149  132.7928  152.8395 C   0  0  0  0  0  0  0  0  0  0  0  0
  148.3898  133.8713  153.2932 N   0  0  0  0  0  0  0  0  0  0  0  0
  149.0912  134.0024  154.4349 C   0  0  0  0  0  0  0  0  0  0  0  0
  149.1641  133.1709  155.3395 O   0  0  0  0  0  0  0  0  0  0  0  0
  149.7288  135.1817  154.4686 N   0  0  0  0  0  0  0  0  0  0  0  0
  150.5879  135.6576  155.5528 C   0  0  0  0  0  0  0  0  0  0  0  0
  150.7156  137.2067  155.6326 C   0  0  0  0  0  0  0  0  0  0  0  0
  149.2725  137.7657  155.4918 C   0  0  0  0  0  0  0  0  0  0  0  0
  148.5737  137.4718  154.3902 N   0  0  0  0  0  0  0  0  0  0  0  0
  148.7918  138.4812  156.3694 O   0  0  0  0  0  0  0  0  0  0  0  0
  151.4034  137.6627  156.9525 C   0  0  0  0  0  0  0  0  0  0  0  0
  151.6979  139.1766  156.9732 C   0  0  0  0  0  0  0  0  0  0  0  0
  152.5096  139.5262  155.8581 O   0  0  0  0  0  0  0  0  0  0  0  0
  151.8880  139.2534  154.6074 C   0  0  0  0  0  0  0  0  0  0  0  0
  151.6111  137.7422  154.4801 C   0  0  0  0  0  0  0  0  0  0  0  0
  147.7525  131.5307  153.5344 C   0  0  0  0  0  0  0  0  0  0  0  0
  147.0507  130.4449  153.1565 C   0  0  0  0  0  0  0  0  0  0  0  0
  146.1155  130.4900  152.0304 C   0  0  0  0  0  0  0  0  0  0  0  0
  145.4819  129.4987  151.6674 O   0  0  0  0  0  0  0  0  0  0  0  0
  143.4548  133.1762  149.6439 H   0  0  0  0  0  0  0  0  0  0  0  0
  144.6840  133.9983  150.5991 H   0  0  0  0  0  0  0  0  0  0  0  0
  143.5269  132.9248  151.3854 H   0  0  0  0  0  0  0  0  0  0  0  0
  144.4992  130.9687  150.1149 H   0  0  0  0  0  0  0  0  0  0  0  0
  145.6408  132.0152  149.3444 H   0  0  0  0  0  0  0  0  0  0  0  0
  146.5420  133.7015  151.2081 H   0  0  0  0  0  0  0  0  0  0  0  0
  148.4250  134.6568  152.6602 H   0  0  0  0  0  0  0  0  0  0  0  0
  149.6133  135.8029  153.6815 H   0  0  0  0  0  0  0  0  0  0  0  0
  150.1578  135.2740  156.4793 H   0  0  0  0  0  0  0  0  0  0  0  0
  151.5766  135.1994  155.4794 H   0  0  0  0  0  0  0  0  0  0  0  0
  147.6343  137.8248  154.2796 H   0  0  0  0  0  0  0  0  0  0  0  0
  148.9893  136.8964  153.6720 H   0  0  0  0  0  0  0  0  0  0  0  0
  150.8168  137.3773  157.8265 H   0  0  0  0  0  0  0  0  0  0  0  0
  152.3580  137.1503  157.0687 H   0  0  0  0  0  0  0  0  0  0  0  0
  150.7828  139.7695  156.9699 H   0  0  0  0  0  0  0  0  0  0  0  0
  152.2335  139.4368  157.8863 H   0  0  0  0  0  0  0  0  0  0  0  0
  150.9749  139.8413  154.5048 H   0  0  0  0  0  0  0  0  0  0  0  0
  152.5577  139.5757  153.8101 H   0  0  0  0  0  0  0  0  0  0  0  0
  152.5732  137.2293  154.4837 H   0  0  0  0  0  0  0  0  0  0  0  0
  151.1704  137.5261  153.5059 H   0  0  0  0  0  0  0  0  0  0  0  0
  148.4308  131.4519  154.3717 H   0  0  0  0  0  0  0  0  0  0  0  0
  147.1786  129.5180  153.6966 H   0  0  0  0  0  0  0  0  0  0  0  0
  1  2  1  0  0  0  0
  1 24  1  0  0  0  0
  1 25  1  0  0  0  0
  1 26  1  0  0  0  0
  2  3  1  0  0  0  0
  2 27  1  0  0  0  0
  2 28  1  0  0  0  0
  3 22  1  0  0  0  0
  3  4  1  0  0  0  0
  4  5  2  0  0  0  0
  4 29  1  0  0  0  0
  5  6  1  0  0  0  0
  5 20  1  0  0  0  0
  6  7  1  0  0  0  0
  6 30  1  0  0  0  0
  7  8  2  0  0  0  0
  7  9  1  0  0  0  0
  9 10  1  0  0  0  0
  9 31  1  0  0  0  0
 10 11  1  0  0  0  0
 10 32  1  0  0  0  0
 10 33  1  0  0  0  0
 11 19  1  0  0  0  0
 11 12  1  0  0  0  0
 11 15  1  0  0  0  0
 12 13  1  0  0  0  0
 12 14  2  0  0  0  0
 13 34  1  0  0  0  0
 13 35  1  0  0  0  0
 15 16  1  0  0  0  0
 15 36  1  0  0  0  0
 15 37  1  0  0  0  0
 16 17  1  0  0  0  0
 16 38  1  0  0  0  0
 16 39  1  0  0  0  0
 17 18  1  0  0  0  0
 18 19  1  0  0  0  0
 18 40  1  0  0  0  0
 18 41  1  0  0  0  0
 19 42  1  0  0  0  0
 19 43  1  0  0  0  0
 20 21  2  0  0  0  0
 20 44  1  0  0  0  0
 21 22  1  0  0  0  0
 21 45  1  0  0  0  0
 22 23  2  0  0  0  0
M  END
> <s_m_source_file>
AV-unprocessed.smi

> <i_m_source_file_index>
1094

> <i_lp_mmshare_version>
43012

> <i_f3d_flags>
0

> <s_epik_input>
W0NIM11bQ0gyXW4xW2NIXWMoW2NIXVtjSF1jMT1PKVtOSF1DKD1PKVtOSF1bQ0gyXUMyKEMoPU8pW05IMl0pW0NIMl1bQ0gyXU9bQ0gyXVtDSDJdMg==

> <s_epik_cmdline>
J2VwaWtfcHl0aG9uJywgJy1waCcsICc3LjAnLCAnLXRuJywgJzgnLCAnLW1hJywgJzIwMCcsICctbWV0YWxfYmluZGluZycsICctaW1hZScsICc8aW5maWxlLm1hZT4nLCAnLW9tYWUnLCAnPG91dGZpbGUubWFlPic=

> <r_lp_tautomer_probability>
1

> <r_epik_Ionization_Penalty>
2.3227e-05

> <r_epik_Ionization_Penalty_Charging>
4.44262e-06

> <r_epik_Ionization_Penalty_Neutral>
1.87844e-05

> <r_epik_State_Penalty>
-0

> <r_epik_Charging_Adjusted_Penalty>
4.44262e-06

> <i_epik_Tot_Q>
0

> <i_epik_Tot_abs_Q>
0

> <r_epik_Metal_State_Penalty>
-0

> <b_epik_Metal_Only>
0

> <s_lp_Force_Field>
OPLS_2005

> <r_lp_Energy>
26.2071

> <b_lp_Chiralities_Consistent>
1

> <s_lp_Variant>
AV-unprocessed.smi:1094-1

> <Gold.Version>
5.8.1

> <Gold.Id.Protein>
6NUR|6NUR_protein|mol2

> <Gold.PLP.Fitness>
47.3040

> <Gold.PLP.PLP>
-36.0293

> <Gold.PLP.part.hbond>
-4.0000

> <Gold.PLP.part.metal>
0.0000

> <Gold.PLP.part.buried>
-4.2505

> <Gold.PLP.part.nonpolar>
-28.3501

> <Gold.PLP.part.repulsive>
0.1944

> <Gold.PLP.ligand.clash>
0.0000

> <Gold.PLP.ligand.torsion>
0.3907

> <Gold.PLP.Chemscore.Hbond>
4.0000

> <Gold.PLP.Chemscore.CHOScore>
0.0000

> <Gold.PLP.Chemscore.Metal>
0.0000

> <Gold.Chemscore.Hbonds>
donor molecule, donor type, donor heavy atom, donor atom, acceptor molecule, acceptor atom, score
      L1  H     6    30       P1  7948  1.00
      L1  H     9    31       P1  7948  1.00
      L1  H    13    35       P1  7948  0.99
      P1  H  7997  8008       L1    17  1.00

> <Gold.PLP.Chemscore.Internal.Correction>
0.0561

> <Gold.Rescore>
     Score         DG    S(hbond)    S(metal)    S(lipo)     H(rot)  DE(clash)    DE(int)     intcor
     14.47     -17.81       2.69        0.00      74.77       2.11       0.06       3.28       ----

> <Gold.Chemscore.Fitness>
14.4660

> <Gold.Chemscore.DG>
-17.8086

> <Gold.Chemscore.ZeroCoef>
-5.4800

> <Gold.Chemscore.Hbond>
2.6924

> <Gold.Chemscore.Metal>
0.0000

> <Gold.Chemscore.Lipo>
74.7694

> <Gold.Chemscore.Internal_Hbond>
0.0000

> <Gold.Chemscore.DEClash>
0.0582

> <Gold.Chemscore.DEInternal>
3.2844

> <Gold.Chemscore.Rot>
2.1140

> <Gold.Chemscore.Internal.Correction>
   9.000000E+99

> <Gold.Chemscore.Hbonds>
donor molecule, donor type, donor heavy atom, donor atom, acceptor molecule, acceptor atom, score
      L1  H     6    30       P1  7948  0.26
      L1  H     9    31       P1  7948  0.24
      L1  H    13    35       P1  7948  0.94
      P1  H  7997  8008       L1    17  0.93

> <Gold.Chemscore.Hbond.Weighted>
-8.9925

> <Gold.Chemscore.Metal.Weighted>
-0.0000

> <Gold.Chemscore.Lipo.Weighted>
-8.7480

> <Gold.Chemscore.Internal_Hbond.Weighted>
0.0000

> <Gold.Chemscore.DEClash.Weighted>
0.0582

> <Gold.Chemscore.DEInternal.Weighted>
3.2844

> <Gold.Chemscore.Rot.Weighted>
5.4119

> <Gold.Chemscore.Internal.Correction.Weighted>
   9.000000E+99

> <Gold.Protein.RotatedTorsions>
[ 6907 6896 6895 6894 ] final  147.33 input  -60.11 | X-H torsion
[ 7974 7965 7964 7962 ] final   30.29 input  175.53 | X-H torsion
[ 8008 7997 7996 7995 ] final  -38.28 input   59.86 | X-H torsion
[ 10167 10162 10161 10158 ] final  137.42 input  -65.29 | X-H torsion
[ 10718 10713 10712 10709 ] final  176.18 input   66.30 | X-H torsion
[ 10763 10752 10751 10750 ] final -121.72 input  -60.55 | X-H torsion
[ 11005 11000 10999 10996 ] final  107.76 input  -57.11 | X-H torsion

> <Gold.Protein.ActiveResidues>
 VAL166  LYS551  ARG553  GLY616  TRP617  ASP618  TYR619  PRO620  LYS621  CYS622 
 ASP623  PHE694  ASN695  SER759  ASP760  ASP761  ALA762  ILE779  LEU786  VAL792 
 PHE793  MET794  SER795  GLU796  ALA797  LYS798  CYS799  TRP800  GLU811  SER814 

> <Gold.Protein.RotatedAtoms>
  152.1562  133.4553  159.4837 H   0  0  0  0  0  0  0  0  0  0  0  0  # atno 6907 bound_to 6896
  150.6901  134.2128  159.4375 H   0  0  0  0  0  0  0  0  0  0  0  0  # atno 6908 bound_to 6896
  152.0027  134.9919  160.0616 H   0  0  0  0  0  0  0  0  0  0  0  0  # atno 6909 bound_to 6896
  146.1621  139.6809  142.9026 H   0  0  0  0  0  0  0  0  0  0  0  0  # atno 7974 bound_to 7965
  154.4039  140.1582  156.2673 H   0  0  0  0  0  0  0  0  0  0  0  0  # atno 8008 bound_to 7997
  155.8984  140.3434  155.5985 H   0  0  0  0  0  0  0  0  0  0  0  0  # atno 8009 bound_to 7997
  155.7477  140.0801  157.2206 H   0  0  0  0  0  0  0  0  0  0  0  0  # atno 8010 bound_to 7997
  139.5145  144.6411  151.5567 H   0  0  0  0  0  0  0  0  0  0  0  0  # atno 10167 bound_to 10162
  156.9239  130.9949  151.2999 H   0  0  0  0  0  0  0  0  0  0  0  0  # atno 10718 bound_to 10713
  154.8674  135.4158  154.2666 H   0  0  0  0  0  0  0  0  0  0  0  0  # atno 10763 bound_to 10752
  153.3584  135.7002  153.6737 H   0  0  0  0  0  0  0  0  0  0  0  0  # atno 10764 bound_to 10752
  153.5648  135.3603  155.2786 H   0  0  0  0  0  0  0  0  0  0  0  0  # atno 10765 bound_to 10752
  139.8833  134.9410  156.5868 H   0  0  0  0  0  0  0  0  0  0  0  0  # atno 11005 bound_to 11000
  145.4562  141.0431  143.2777 LP  0  0  0  0  0  0  0  0  0  0  0  0  # atno 17320 bound_to 7965
  144.8041  139.6085  143.7058 LP  0  0  0  0  0  0  0  0  0  0  0  0  # atno 17321 bound_to 7965
  140.6178  143.9316  150.6502 LP  0  0  0  0  0  0  0  0  0  0  0  0  # atno 17342 bound_to 10162
  140.2579  143.3545  152.1348 LP  0  0  0  0  0  0  0  0  0  0  0  0  # atno 17343 bound_to 10162
  157.5890  130.8430  149.8632 LP  0  0  0  0  0  0  0  0  0  0  0  0  # atno 17370 bound_to 10713
  156.0478  130.3724  150.1274 LP  0  0  0  0  0  0  0  0  0  0  0  0  # atno 17371 bound_to 10713
  140.7985  133.8524  155.8706 LP  0  0  0  0  0  0  0  0  0  0  0  0  # atno 17394 bound_to 11000
  140.9614  134.1651  157.4651 LP  0  0  0  0  0  0  0  0  0  0  0  0  # atno 17395 bound_to 11000

$$$$
