AV-unprocessed.smi:48|AV-procd|sdf|448|dock1
  -GOLD-   2262016313D 1   1.00000     0.00000
 Structure written by MMmdl.
 30 32  0  0  0  0  0  0  0  0  1 V2000
  147.4709  142.2199  154.8866 O   0  0  0  0  0  0  0  0  0  0  0  0
  148.2007  141.4168  153.9834 C   0  0  0  0  0  0  0  0  0  0  0  0
  149.0399  140.3850  154.7570 C   0  0  2  0  0  0  0  0  0  0  0  0
  150.3872  140.3607  154.2963 O   0  0  0  0  0  0  0  0  0  0  0  0
  151.0057  139.1846  154.7264 C   0  0  1  0  0  0  0  0  0  0  0  0
  151.7610  139.4823  155.9852 N   0  0  0  0  0  0  0  0  0  0  0  0
  152.7582  138.7874  156.5753 C   0  0  0  0  0  0  0  0  0  0  0  0
  153.2520  139.2723  157.7146 N   0  0  0  0  0  0  0  0  0  0  0  0
  152.4776  140.4069  157.8918 C   0  0  0  0  0  0  0  0  0  0  0  0
  152.4477  141.4054  158.8957 C   0  0  0  0  0  0  0  0  0  0  0  0
  153.5303  141.3491  160.2383 Cl  0  0  0  0  0  0  0  0  0  0  0  0
  151.5455  142.4095  158.7795 N   0  0  0  0  0  0  0  0  0  0  0  0
  150.7157  142.4280  157.7287 C   0  0  0  0  0  0  0  0  0  0  0  0
  150.6278  141.5635  156.7108 N   0  0  0  0  0  0  0  0  0  0  0  0
  151.5397  140.5539  156.8315 C   0  0  0  0  0  0  0  0  0  0  0  0
  149.8827  138.1702  155.0157 C   0  0  2  0  0  0  0  0  0  0  0  0
  150.0508  136.9396  154.3377 O   0  0  0  0  0  0  0  0  0  0  0  0
  148.6239  138.9201  154.5796 C   0  0  2  0  0  0  0  0  0  0  0  0
  148.2755  138.6629  153.2286 O   0  0  0  0  0  0  0  0  0  0  0  0
  149.0267  140.6177  155.8239 H   0  0  0  0  0  0  0  0  0  0  0  0
  151.7631  138.8480  154.0171 H   0  0  0  0  0  0  0  0  0  0  0  0
  149.8323  137.9773  156.0887 H   0  0  0  0  0  0  0  0  0  0  0  0
  147.7682  138.6639  155.2052 H   0  0  0  0  0  0  0  0  0  0  0  0
  148.0212  142.9376  155.1612 H   0  0  0  0  0  0  0  0  0  0  0  0
  147.4795  140.9093  153.3420 H   0  0  0  0  0  0  0  0  0  0  0  0
  148.8253  142.0406  153.3431 H   0  0  0  0  0  0  0  0  0  0  0  0
  153.1477  137.8746  156.1487 H   0  0  0  0  0  0  0  0  0  0  0  0
  150.0207  143.2541  157.6990 H   0  0  0  0  0  0  0  0  0  0  0  0
  149.7829  137.0556  153.4384 H   0  0  0  0  0  0  0  0  0  0  0  0
  148.9497  139.0265  152.6746 H   0  0  0  0  0  0  0  0  0  0  0  0
  1  2  1  0  0  0  0
  1 24  1  0  0  0  0
  2  3  1  0  0  0  0
  2 25  1  0  0  0  0
  2 26  1  0  0  0  0
  3 20  1  0  0  0  0
  3 18  1  0  0  0  0
  3  4  1  0  0  0  0
  4  5  1  0  0  0  0
  5 21  1  0  0  0  0
  5  6  1  0  0  0  0
  5 16  1  0  0  0  0
  6 15  1  0  0  0  0
  6  7  1  0  0  0  0
  7  8  2  0  0  0  0
  7 27  1  0  0  0  0
  8  9  1  0  0  0  0
  9 15  2  0  0  0  0
  9 10  1  0  0  0  0
 10 11  1  0  0  0  0
 10 12  2  0  0  0  0
 12 13  1  0  0  0  0
 13 14  2  0  0  0  0
 13 28  1  0  0  0  0
 14 15  1  0  0  0  0
 16 22  1  0  0  0  0
 16 17  1  0  0  0  0
 16 18  1  0  0  0  0
 17 29  1  0  0  0  0
 18 23  1  0  0  0  0
 18 19  1  0  0  0  0
 19 30  1  0  0  0  0
M  END
> <s_m_source_file>
AV-unprocessed.smi

> <i_m_source_file_index>
48

> <i_lp_mmshare_version>
43012

> <i_f3d_flags>
0

> <s_epik_input>
W09IXVtDSDJdW0NASF0xT1tDQEhdKFtDQEhdKFtPSF0pW0NAQEhdMVtPSF0pbihbY0hdbjIpYyhjMjMpbltjSF1uYzNDbA==

> <s_epik_cmdline>
J2VwaWtfcHl0aG9uJywgJy1waCcsICc3LjAnLCAnLXRuJywgJzgnLCAnLW1hJywgJzIwMCcsICctbWV0YWxfYmluZGluZycsICctaW1hZScsICc8aW5maWxlLm1hZT4nLCAnLW9tYWUnLCAnPG91dGZpbGUubWFlPic=

> <r_lp_tautomer_probability>
1

> <r_epik_Ionization_Penalty>
3.45505e-06

> <r_epik_Ionization_Penalty_Charging>
0

> <r_epik_Ionization_Penalty_Neutral>
3.45505e-06

> <r_epik_State_Penalty>
-0

> <r_epik_Charging_Adjusted_Penalty>
0

> <i_epik_Tot_Q>
0

> <i_epik_Tot_abs_Q>
0

> <r_epik_Metal_State_Penalty>
-0

> <b_epik_Metal_Only>
0

> <s_epik_Chemistry_Notes>
This compound contains an acetal/aminal-like group ( X-CH(R)-Y where X, Y are N, S, or O) that may be acid/base labile, releasing an aldehyde.

> <s_lp_Force_Field>
OPLS_2005

> <r_lp_Energy>
38.272

> <b_lp_Chiralities_Consistent>
1

> <s_lp_Variant>
AV-unprocessed.smi:48-2

> <Gold.Version>
5.8.1

> <Gold.Id.Protein>
6NUR|6NUR_protein|mol2

> <Gold.PLP.Fitness>
49.0217

> <Gold.PLP.PLP>
-33.9004

> <Gold.PLP.part.hbond>
-5.9362

> <Gold.PLP.part.metal>
0.0000

> <Gold.PLP.part.buried>
-3.8030

> <Gold.PLP.part.nonpolar>
-24.3739

> <Gold.PLP.part.repulsive>
0.2211

> <Gold.PLP.ligand.clash>
0.0000

> <Gold.PLP.ligand.torsion>
1.3006

> <Gold.PLP.Chemscore.Hbond>
4.9000

> <Gold.PLP.Chemscore.CHOScore>
1.0000

> <Gold.PLP.Chemscore.Metal>
0.0000

> <Gold.Chemscore.Hbonds>
donor molecule, donor type, donor heavy atom, donor atom, acceptor molecule, acceptor atom, score
      L1  H     1    24       P1  8028  1.00
      L1  H    17    29       P1  7948  0.94
      L1  H    19    30       P1  7957  1.00
      P1  H  7989  7998       L1     4  0.75
      P1  H  7997  8009       L1     8  1.00
      L1  C    13    28       P1  8028  0.47

> <Gold.PLP.Chemscore.Internal.Correction>
0.0226

> <Gold.Rescore>
     Score         DG    S(hbond)    S(metal)    S(lipo)     H(rot)  DE(clash)    DE(int)     intcor
      8.88     -14.04       3.87        0.00      45.93       3.80       1.25       3.90       ----

> <Gold.Chemscore.Fitness>
8.8822

> <Gold.Chemscore.DG>
-14.0373

> <Gold.Chemscore.ZeroCoef>
-5.4800

> <Gold.Chemscore.Hbond>
3.8669

> <Gold.Chemscore.Metal>
0.0000

> <Gold.Chemscore.Lipo>
45.9328

> <Gold.Chemscore.Internal_Hbond>
0.0000

> <Gold.Chemscore.DEClash>
1.2544

> <Gold.Chemscore.DEInternal>
3.9008

> <Gold.Chemscore.Rot>
3.8017

> <Gold.Chemscore.Internal.Correction>
   9.000000E+99

> <Gold.Chemscore.Hbonds>
donor molecule, donor type, donor heavy atom, donor atom, acceptor molecule, acceptor atom, score
      L1  H     1    24       P1  8028  0.88
      L1  H    17    29       P1  7948  0.50
      L1  H    19    30       P1  7957  0.97
      P1  H  7989  7998       L1     4  0.09
      P1  H  7997  8009       L1     8  0.07

> <Gold.Chemscore.Hbond.Weighted>
-12.9156

> <Gold.Chemscore.Metal.Weighted>
-0.0000

> <Gold.Chemscore.Lipo.Weighted>
-5.3741

> <Gold.Chemscore.Internal_Hbond.Weighted>
0.0000

> <Gold.Chemscore.DEClash.Weighted>
1.2544

> <Gold.Chemscore.DEInternal.Weighted>
3.9008

> <Gold.Chemscore.Rot.Weighted>
9.7324

> <Gold.Chemscore.Internal.Correction.Weighted>
   9.000000E+99

> <Gold.Protein.RotatedTorsions>
[ 6907 6896 6895 6894 ] final   67.60 input  -60.11 | X-H torsion
[ 7974 7965 7964 7962 ] final   59.73 input  175.53 | X-H torsion
[ 8008 7997 7996 7995 ] final  142.89 input   59.86 | X-H torsion
[ 10167 10162 10161 10158 ] final  106.70 input  -65.29 | X-H torsion
[ 10718 10713 10712 10709 ] final   52.16 input   66.30 | X-H torsion
[ 10763 10752 10751 10750 ] final  165.15 input  -60.55 | X-H torsion
[ 11005 11000 10999 10996 ] final  -44.85 input  -57.11 | X-H torsion

> <Gold.Protein.ActiveResidues>
 VAL166  LYS551  ARG553  GLY616  TRP617  ASP618  TYR619  PRO620  LYS621  CYS622 
 ASP623  PHE694  ASN695  SER759  ASP760  ASP761  ALA762  ILE779  LEU786  VAL792 
 PHE793  MET794  SER795  GLU796  ALA797  LYS798  CYS799  TRP800  GLU811  SER814 

> <Gold.Protein.RotatedAtoms>
  152.4563  134.5284  159.9803 H   0  0  0  0  0  0  0  0  0  0  0  0  # atno 6907 bound_to 6896
  151.5344  133.3437  159.2932 H   0  0  0  0  0  0  0  0  0  0  0  0  # atno 6908 bound_to 6896
  150.8508  134.7863  159.7070 H   0  0  0  0  0  0  0  0  0  0  0  0  # atno 6909 bound_to 6896
  145.9039  139.3602  143.0576 H   0  0  0  0  0  0  0  0  0  0  0  0  # atno 7974 bound_to 7965
  156.2941  140.2277  156.4802 H   0  0  0  0  0  0  0  0  0  0  0  0  # atno 8008 bound_to 7997
  154.7859  140.0457  157.1185 H   0  0  0  0  0  0  0  0  0  0  0  0  # atno 8009 bound_to 7997
  154.9702  140.3065  155.4994 H   0  0  0  0  0  0  0  0  0  0  0  0  # atno 8010 bound_to 7997
  139.6987  144.7097  151.1222 H   0  0  0  0  0  0  0  0  0  0  0  0  # atno 10167 bound_to 10162
  157.5049  130.8462  149.8362 H   0  0  0  0  0  0  0  0  0  0  0  0  # atno 10718 bound_to 10713
  154.3197  135.2756  155.2526 H   0  0  0  0  0  0  0  0  0  0  0  0  # atno 10763 bound_to 10752
  154.4884  135.5840  153.6445 H   0  0  0  0  0  0  0  0  0  0  0  0  # atno 10764 bound_to 10752
  152.9878  135.6128  154.3380 H   0  0  0  0  0  0  0  0  0  0  0  0  # atno 10765 bound_to 10752
  141.0477  133.6755  156.2931 H   0  0  0  0  0  0  0  0  0  0  0  0  # atno 11005 bound_to 11000
  145.8757  140.9393  143.0627 LP  0  0  0  0  0  0  0  0  0  0  0  0  # atno 17320 bound_to 7965
  144.6738  140.0713  143.7473 LP  0  0  0  0  0  0  0  0  0  0  0  0  # atno 17321 bound_to 7965
  140.7703  143.5454  150.9264 LP  0  0  0  0  0  0  0  0  0  0  0  0  # atno 17342 bound_to 10162
  139.9135  143.6691  152.3110 LP  0  0  0  0  0  0  0  0  0  0  0  0  # atno 17343 bound_to 10162
  156.0252  130.3782  150.1845 LP  0  0  0  0  0  0  0  0  0  0  0  0  # atno 17370 bound_to 10713
  157.0034  130.9929  151.3385 LP  0  0  0  0  0  0  0  0  0  0  0  0  # atno 17371 bound_to 10713
  140.6114  134.5454  157.5534 LP  0  0  0  0  0  0  0  0  0  0  0  0  # atno 17394 bound_to 11000
  139.9325  134.7936  156.0891 LP  0  0  0  0  0  0  0  0  0  0  0  0  # atno 17395 bound_to 11000

$$$$
