AV-unprocessed.smi:1817|AV-procd|sdf|7373|dock1
  -GOLD-   22720 9 43D 1   1.00000     0.00000
 Structure written by MMmdl.
 42 43  0  0  0  0  0  0  0  0  1 V2000
  151.7556  144.5720  158.8985 C   0  0  0  0  0  0  0  0  0  0  0  0
  152.3812  143.1744  159.0095 C   0  0  0  0  0  0  0  0  0  0  0  0
  151.6268  142.1090  158.3524 N   0  0  0  0  0  0  0  0  0  0  0  0
  152.4403  140.9058  158.2090 C   0  0  0  0  0  0  0  0  0  0  0  0
  151.6544  139.7620  157.5430 C   0  0  0  0  0  0  0  0  0  0  0  0
  151.1623  140.1213  156.2034 N   0  0  0  0  0  0  0  0  0  0  0  0
  150.3957  139.0267  155.5630 C   0  0  1  0  0  0  0  0  0  0  0  0
  149.4916  139.5251  154.4068 C   0  0  0  0  0  0  0  0  0  0  0  0
  151.2946  137.8740  155.0346 C   0  0  0  0  0  0  0  0  0  0  0  0
  150.5213  136.7829  154.4463 N   0  0  0  0  0  0  0  0  0  0  0  0
  150.5284  135.5063  154.8561 C   0  0  0  0  0  0  0  0  0  0  0  0
  151.2121  135.0930  155.7924 O   0  0  0  0  0  0  0  0  0  0  0  0
  149.6997  134.7570  154.1110 N   0  0  0  0  0  0  0  0  0  0  0  0
  149.4158  133.3747  154.2426 C   0  0  0  0  0  0  0  0  0  0  0  0
  150.0169  132.7016  155.2307 N   0  0  0  0  0  0  0  0  0  0  0  0
  149.6540  131.3602  155.2431 N   0  0  0  0  0  0  0  0  0  0  0  0
  148.7922  131.0744  154.2625 C   0  0  0  0  0  0  0  0  0  0  0  0
  148.3364  132.4150  153.2262 S   0  0  0  0  0  0  0  0  0  0  0  0
  150.3708  141.3535  156.3470 C   0  0  0  0  0  0  0  0  0  0  0  0
  151.1611  142.4910  157.0203 C   0  0  0  0  0  0  0  0  0  0  0  0
  152.3150  145.2898  159.4984 H   0  0  0  0  0  0  0  0  0  0  0  0
  150.7264  144.5717  159.2586 H   0  0  0  0  0  0  0  0  0  0  0  0
  151.7554  144.9391  157.8724 H   0  0  0  0  0  0  0  0  0  0  0  0
  153.4015  143.2003  158.6242 H   0  0  0  0  0  0  0  0  0  0  0  0
  152.4682  142.9394  160.0712 H   0  0  0  0  0  0  0  0  0  0  0  0
  153.3348  141.1251  157.6235 H   0  0  0  0  0  0  0  0  0  0  0  0
  152.7841  140.5760  159.1901 H   0  0  0  0  0  0  0  0  0  0  0  0
  152.3315  138.9123  157.4895 H   0  0  0  0  0  0  0  0  0  0  0  0
  150.8211  139.4656  158.1821 H   0  0  0  0  0  0  0  0  0  0  0  0
  149.7366  138.5948  156.3179 H   0  0  0  0  0  0  0  0  0  0  0  0
  148.9593  138.7116  153.9154 H   0  0  0  0  0  0  0  0  0  0  0  0
  150.0756  140.0407  153.6441 H   0  0  0  0  0  0  0  0  0  0  0  0
  148.7123  140.2029  154.7511 H   0  0  0  0  0  0  0  0  0  0  0  0
  152.0327  138.2702  154.3352 H   0  0  0  0  0  0  0  0  0  0  0  0
  151.8563  137.4043  155.8394 H   0  0  0  0  0  0  0  0  0  0  0  0
  149.9286  137.0237  153.6654 H   0  0  0  0  0  0  0  0  0  0  0  0
  149.2063  135.2316  153.3692 H   0  0  0  0  0  0  0  0  0  0  0  0
  148.4219  130.0663  154.1491 H   0  0  0  0  0  0  0  0  0  0  0  0
  150.0582  141.7231  155.3722 H   0  0  0  0  0  0  0  0  0  0  0  0
  149.4618  141.1506  156.9153 H   0  0  0  0  0  0  0  0  0  0  0  0
  150.5166  143.3669  157.0841 H   0  0  0  0  0  0  0  0  0  0  0  0
  152.0083  142.7711  156.3921 H   0  0  0  0  0  0  0  0  0  0  0  0
  1  2  1  0  0  0  0
  1 21  1  0  0  0  0
  1 22  1  0  0  0  0
  1 23  1  0  0  0  0
  2  3  1  0  0  0  0
  2 24  1  0  0  0  0
  2 25  1  0  0  0  0
  3 20  1  0  0  0  0
  3  4  1  0  0  0  0
  4  5  1  0  0  0  0
  4 26  1  0  0  0  0
  4 27  1  0  0  0  0
  5  6  1  0  0  0  0
  5 28  1  0  0  0  0
  5 29  1  0  0  0  0
  6  7  1  0  0  0  0
  6 19  1  0  0  0  0
  7  8  1  0  0  0  0
  7  9  1  0  0  0  0
  7 30  1  0  0  0  0
  8 31  1  0  0  0  0
  8 32  1  0  0  0  0
  8 33  1  0  0  0  0
  9 10  1  0  0  0  0
  9 34  1  0  0  0  0
  9 35  1  0  0  0  0
 10 11  1  0  0  0  0
 10 36  1  0  0  0  0
 11 12  2  0  0  0  0
 11 13  1  0  0  0  0
 13 14  1  0  0  0  0
 13 37  1  0  0  0  0
 14 18  1  0  0  0  0
 14 15  2  0  0  0  0
 15 16  1  0  0  0  0
 16 17  2  0  0  0  0
 17 18  1  0  0  0  0
 17 38  1  0  0  0  0
 19 20  1  0  0  0  0
 19 39  1  0  0  0  0
 19 40  1  0  0  0  0
 20 41  1  0  0  0  0
 20 42  1  0  0  0  0
M  END
> <s_m_source_file>
AV-unprocessed.smi

> <i_m_source_file_index>
1817

> <i_lp_mmshare_version>
43012

> <i_f3d_flags>
0

> <s_epik_input>
W0NIM11bQ0gyXU4xW0NIMl1bQ0gyXU4oW0NIMl1bQ0gyXTEpW0NASF0oW0NIM10pW0NIMl1bTkhdQyg9TylbTkhdYzJubltjSF1zMg==

> <s_epik_cmdline>
J2VwaWtfcHl0aG9uJywgJy1waCcsICc3LjAnLCAnLXRuJywgJzgnLCAnLW1hJywgJzIwMCcsICctbWV0YWxfYmluZGluZycsICctaW1hZScsICc8aW5maWxlLm1hZT4nLCAnLW9tYWUnLCAnPG91dGZpbGUubWFlPic=

> <r_lp_tautomer_probability>
1

> <r_epik_Ionization_Penalty>
2.44129

> <r_epik_Ionization_Penalty_Charging>
0

> <r_epik_Ionization_Penalty_Neutral>
2.44129

> <r_epik_State_Penalty>
1.7682

> <r_epik_Charging_Adjusted_Penalty>
1.7682

> <i_epik_Tot_Q>
0

> <i_epik_Tot_abs_Q>
0

> <r_epik_Metal_State_Penalty>
2.10306

> <b_epik_Metal_Only>
0

> <s_lp_Force_Field>
OPLS_2005

> <r_lp_Energy>
39.3002

> <b_lp_Chiralities_Consistent>
1

> <s_lp_Variant>
AV-unprocessed.smi:1817-6

> <Gold.Version>
5.8.1

> <Gold.Id.Protein>
6NUR|6NUR_protein|mol2

> <Gold.PLP.Fitness>
42.7874

> <Gold.PLP.PLP>
-36.1557

> <Gold.PLP.part.hbond>
-4.3353

> <Gold.PLP.part.metal>
0.0000

> <Gold.PLP.part.buried>
-3.6189

> <Gold.PLP.part.nonpolar>
-28.4117

> <Gold.PLP.part.repulsive>
0.1858

> <Gold.PLP.ligand.clash>
0.0000

> <Gold.PLP.ligand.torsion>
0.4180

> <Gold.PLP.Chemscore.Hbond>
2.4749

> <Gold.PLP.Chemscore.CHOScore>
0.0000

> <Gold.PLP.Chemscore.Metal>
0.0000

> <Gold.Chemscore.Hbonds>
donor molecule, donor type, donor heavy atom, donor atom, acceptor molecule, acceptor atom, score
      L1  H    10    36       P1  7948  0.59
      L1  H    13    37       P1  7948  0.95
      P1  H 10752 10765       L1    12  0.77

> <Gold.PLP.Chemscore.Internal.Correction>
0.0429

> <Gold.Rescore>
     Score         DG    S(hbond)    S(metal)    S(lipo)     H(rot)  DE(clash)    DE(int)     intcor
     14.68     -16.59       1.87        0.00      82.51       1.87       0.08       1.83       ----

> <Gold.Chemscore.Fitness>
14.6790

> <Gold.Chemscore.DG>
-16.5877

> <Gold.Chemscore.ZeroCoef>
-5.4800

> <Gold.Chemscore.Hbond>
1.8711

> <Gold.Chemscore.Metal>
0.0000

> <Gold.Chemscore.Lipo>
82.5130

> <Gold.Chemscore.Internal_Hbond>
0.0000

> <Gold.Chemscore.DEClash>
0.0803

> <Gold.Chemscore.DEInternal>
1.8284

> <Gold.Chemscore.Rot>
1.8733

> <Gold.Chemscore.Internal.Correction>
   9.000000E+99

> <Gold.Chemscore.Hbonds>
donor molecule, donor type, donor heavy atom, donor atom, acceptor molecule, acceptor atom, score
      L1  H    10    36       P1  7948  0.25
      L1  H    13    37       P1  7948  0.21
      P1  H 10752 10765       L1    12  0.14

> <Gold.Chemscore.Hbond.Weighted>
-6.2494

> <Gold.Chemscore.Metal.Weighted>
-0.0000

> <Gold.Chemscore.Lipo.Weighted>
-9.6540

> <Gold.Chemscore.Internal_Hbond.Weighted>
0.0000

> <Gold.Chemscore.DEClash.Weighted>
0.0803

> <Gold.Chemscore.DEInternal.Weighted>
1.8284

> <Gold.Chemscore.Rot.Weighted>
4.7957

> <Gold.Chemscore.Internal.Correction.Weighted>
   9.000000E+99

> <Gold.Protein.RotatedTorsions>
[ 6907 6896 6895 6894 ] final  113.61 input  -60.11 | X-H torsion
[ 7974 7965 7964 7962 ] final -123.58 input  175.53 | X-H torsion
[ 8008 7997 7996 7995 ] final -106.87 input   59.86 | X-H torsion
[ 10167 10162 10161 10158 ] final  -33.54 input  -65.29 | X-H torsion
[ 10718 10713 10712 10709 ] final    5.14 input   66.30 | X-H torsion
[ 10763 10752 10751 10750 ] final -154.46 input  -60.55 | X-H torsion
[ 11005 11000 10999 10996 ] final    3.68 input  -57.11 | X-H torsion

> <Gold.Protein.ActiveResidues>
 VAL166  LYS551  ARG553  GLY616  TRP617  ASP618  TYR619  PRO620  LYS621  CYS622 
 ASP623  PHE694  ASN695  SER759  ASP760  ASP761  ALA762  ILE779  LEU786  VAL792 
 PHE793  MET794  SER795  GLU796  ALA797  LYS798  CYS799  TRP800  GLU811  SER814 

> <Gold.Protein.RotatedAtoms>
  152.4851  133.8351  159.7123 H   0  0  0  0  0  0  0  0  0  0  0  0  # atno 6907 bound_to 6896
  150.8930  133.7208  159.2906 H   0  0  0  0  0  0  0  0  0  0  0  0  # atno 6908 bound_to 6896
  151.4674  135.1047  159.9794 H   0  0  0  0  0  0  0  0  0  0  0  0  # atno 6909 bound_to 6896
  145.0172  140.7957  143.4403 H   0  0  0  0  0  0  0  0  0  0  0  0  # atno 7974 bound_to 7965
  154.9209  140.0407  157.1997 H   0  0  0  0  0  0  0  0  0  0  0  0  # atno 8008 bound_to 7997
  154.8254  140.2890  155.5736 H   0  0  0  0  0  0  0  0  0  0  0  0  # atno 8009 bound_to 7997
  156.2983  140.2511  156.3170 H   0  0  0  0  0  0  0  0  0  0  0  0  # atno 8010 bound_to 7997
  140.7202  143.3613  151.1957 H   0  0  0  0  0  0  0  0  0  0  0  0  # atno 10167 bound_to 10162
  156.9031  130.5729  149.5648 H   0  0  0  0  0  0  0  0  0  0  0  0  # atno 10718 bound_to 10713
  154.7857  135.3189  154.7891 H   0  0  0  0  0  0  0  0  0  0  0  0  # atno 10763 bound_to 10752
  153.8592  135.6855  153.4789 H   0  0  0  0  0  0  0  0  0  0  0  0  # atno 10764 bound_to 10752
  153.1508  135.4700  154.9572 H   0  0  0  0  0  0  0  0  0  0  0  0  # atno 10765 bound_to 10752
  140.5904  133.9929  155.8086 H   0  0  0  0  0  0  0  0  0  0  0  0  # atno 11005 bound_to 11000
  145.1944  139.2284  143.5226 LP  0  0  0  0  0  0  0  0  0  0  0  0  # atno 17320 bound_to 7965
  146.3480  140.1747  142.8589 LP  0  0  0  0  0  0  0  0  0  0  0  0  # atno 17321 bound_to 7965
  139.7166  143.9291  152.2969 LP  0  0  0  0  0  0  0  0  0  0  0  0  # atno 17342 bound_to 10162
  139.9034  144.6899  150.8641 LP  0  0  0  0  0  0  0  0  0  0  0  0  # atno 17343 bound_to 10162
  156.0572  130.5631  150.9117 LP  0  0  0  0  0  0  0  0  0  0  0  0  # atno 17370 bound_to 10713
  157.6014  131.0941  150.8954 LP  0  0  0  0  0  0  0  0  0  0  0  0  # atno 17371 bound_to 10713
  141.0938  133.9875  157.3193 LP  0  0  0  0  0  0  0  0  0  0  0  0  # atno 17394 bound_to 11000
  139.9277  135.0201  156.8291 LP  0  0  0  0  0  0  0  0  0  0  0  0  # atno 17395 bound_to 11000

$$$$
