AV-unprocessed.smi:2960|AV-procd|sdf|11312|dock4
  -GOLD-   2272016213D 1   1.00000     0.00000
 Structure written by MMmdl.
 49 51  0  0  0  0  0  0  0  0  2 V2000
  149.7530  133.9337  154.0374 C   0  0  0  0  0  0  0  0  0  0  0  0
  150.4360  134.8458  155.0508 C   0  0  0  0  0  0  0  0  0  0  0  0
  150.4981  134.5177  156.2354 O   0  0  0  0  0  0  0  0  0  0  0  0
  150.9455  135.9902  154.5711 N   0  0  0  0  0  0  0  0  0  0  0  0
  151.6250  137.0023  155.3709 C   0  0  0  0  0  0  0  0  0  0  0  0
  151.8212  138.3109  154.5876 C   0  0  0  0  0  0  0  0  0  0  0  0
  150.5250  139.0254  154.3777 C   0  0  0  0  0  0  0  0  0  0  0  0
  149.4611  138.5421  153.6754 N   0  3  0  0  0  0  0  0  0  0  0  0
  148.4273  139.4791  153.6758 C   0  0  0  0  0  0  0  0  0  0  0  0
  147.1598  139.4396  153.1028 C   0  0  0  0  0  0  0  0  0  0  0  0
  146.3438  140.5743  153.2928 C   0  0  0  0  0  0  0  0  0  0  0  0
  146.7964  141.6899  154.0272 C   0  0  0  0  0  0  0  0  0  0  0  0
  148.0838  141.7182  154.6031 C   0  0  0  0  0  0  0  0  0  0  0  0
  148.8838  140.5922  154.4105 C   0  0  0  0  0  0  0  0  0  0  0  0
  150.1833  140.2717  154.8191 N   0  0  0  0  0  0  0  0  0  0  0  0
  150.9407  141.2528  155.6091 C   0  0  0  0  0  0  0  0  0  0  0  0
  151.1134  140.8110  157.0685 C   0  0  0  0  0  0  0  0  0  0  0  0
  151.1028  141.9663  157.8940 O   0  0  0  0  0  0  0  0  0  0  0  0
  151.8724  141.9562  159.0378 C   0  0  0  0  0  0  0  0  0  0  0  0
  151.8437  143.1158  159.8395 C   0  0  0  0  0  0  0  0  0  0  0  0
  152.5963  143.1910  161.0270 C   0  0  0  0  0  0  0  0  0  0  0  0
  153.3917  142.1009  161.4302 C   0  0  0  0  0  0  0  0  0  0  0  0
  154.1974  142.1858  162.7101 C   0  0  0  0  0  0  0  0  0  0  0  0
  153.4298  140.9372  160.6365 C   0  0  0  0  0  0  0  0  0  0  0  0
  152.6772  140.8632  159.4482 C   0  0  0  0  0  0  0  0  0  0  0  0
  150.4511  133.6486  153.2494 H   0  0  0  0  0  0  0  0  0  0  0  0
  148.9037  134.4417  153.5797 H   0  0  0  0  0  0  0  0  0  0  0  0
  149.3896  133.0238  154.5169 H   0  0  0  0  0  0  0  0  0  0  0  0
  150.8457  136.1778  153.5835 H   0  0  0  0  0  0  0  0  0  0  0  0
  151.0221  137.1849  156.2595 H   0  0  0  0  0  0  0  0  0  0  0  0
  152.5846  136.6169  155.7203 H   0  0  0  0  0  0  0  0  0  0  0  0
  152.4995  138.9753  155.1242 H   0  0  0  0  0  0  0  0  0  0  0  0
  152.2866  138.1118  153.6221 H   0  0  0  0  0  0  0  0  0  0  0  0
  146.8109  138.5866  152.5395 H   0  0  0  0  0  0  0  0  0  0  0  0
  145.3510  140.5895  152.8669 H   0  0  0  0  0  0  0  0  0  0  0  0
  146.1434  142.5417  154.1514 H   0  0  0  0  0  0  0  0  0  0  0  0
  148.4221  142.5777  155.1630 H   0  0  0  0  0  0  0  0  0  0  0  0
  151.9076  141.4138  155.1311 H   0  0  0  0  0  0  0  0  0  0  0  0
  150.4132  142.2054  155.5665 H   0  0  0  0  0  0  0  0  0  0  0  0
  150.3011  140.1395  157.3486 H   0  0  0  0  0  0  0  0  0  0  0  0
  152.0550  140.2737  157.1907 H   0  0  0  0  0  0  0  0  0  0  0  0
  151.2368  143.9579  159.5406 H   0  0  0  0  0  0  0  0  0  0  0  0
  152.5608  144.0879  161.6282 H   0  0  0  0  0  0  0  0  0  0  0  0
  154.7444  141.2615  162.8989 H   0  0  0  0  0  0  0  0  0  0  0  0
  153.5392  142.3708  163.5593 H   0  0  0  0  0  0  0  0  0  0  0  0
  154.9182  143.0018  162.6497 H   0  0  0  0  0  0  0  0  0  0  0  0
  154.0363  140.0947  160.9354 H   0  0  0  0  0  0  0  0  0  0  0  0
  152.7347  139.9539  158.8697 H   0  0  0  0  0  0  0  0  0  0  0  0
  149.4466  137.6338  153.2290 H   0  0  0  0  0  0  0  0  0  0  0  0
  1  2  1  0  0  0  0
  1 26  1  0  0  0  0
  1 27  1  0  0  0  0
  1 28  1  0  0  0  0
  2  3  2  0  0  0  0
  2  4  1  0  0  0  0
  4  5  1  0  0  0  0
  4 29  1  0  0  0  0
  5  6  1  0  0  0  0
  5 30  1  0  0  0  0
  5 31  1  0  0  0  0
  6  7  1  0  0  0  0
  6 32  1  0  0  0  0
  6 33  1  0  0  0  0
  7 15  1  0  0  0  0
  7  8  2  0  0  0  0
  8  9  1  0  0  0  0
  8 49  1  0  0  0  0
  9 14  2  0  0  0  0
  9 10  1  0  0  0  0
 10 11  2  0  0  0  0
 10 34  1  0  0  0  0
 11 12  1  0  0  0  0
 11 35  1  0  0  0  0
 12 13  2  0  0  0  0
 12 36  1  0  0  0  0
 13 14  1  0  0  0  0
 13 37  1  0  0  0  0
 14 15  1  0  0  0  0
 15 16  1  0  0  0  0
 16 17  1  0  0  0  0
 16 38  1  0  0  0  0
 16 39  1  0  0  0  0
 17 18  1  0  0  0  0
 17 40  1  0  0  0  0
 17 41  1  0  0  0  0
 18 19  1  0  0  0  0
 19 25  1  0  0  0  0
 19 20  2  0  0  0  0
 20 21  1  0  0  0  0
 20 42  1  0  0  0  0
 21 22  2  0  0  0  0
 21 43  1  0  0  0  0
 22 23  1  0  0  0  0
 22 24  1  0  0  0  0
 23 44  1  0  0  0  0
 23 45  1  0  0  0  0
 23 46  1  0  0  0  0
 24 25  2  0  0  0  0
 24 47  1  0  0  0  0
 25 48  1  0  0  0  0
M  CHG  1   8   1
M  END
> <s_m_source_file>
AV-unprocessed.smi

> <i_m_source_file_index>
2960

> <i_lp_mmshare_version>
43012

> <i_f3d_flags>
0

> <s_epik_input>
W0NIM11DKD1PKVtOSF1bQ0gyXVtDSDJdYyhuMSluKGMoYzEyKVtjSF1bY0hdW2NIXVtjSF0yKVtDSDJdW0NIMl1PYzNbY0hdW2NIXWMoW0NIM10pW2NIXVtjSF0z

> <s_epik_cmdline>
J2VwaWtfcHl0aG9uJywgJy1waCcsICc3LjAnLCAnLXRuJywgJzgnLCAnLW1hJywgJzIwMCcsICctbWV0YWxfYmluZGluZycsICctaW1hZScsICc8aW5maWxlLm1hZT4nLCAnLW9tYWUnLCAnPG91dGZpbGUubWFlPic=

> <r_lp_tautomer_probability>
1

> <r_epik_Ionization_Penalty>
1.10884

> <r_epik_Ionization_Penalty_Charging>
1.10884

> <r_epik_Ionization_Penalty_Neutral>
3.05925e-07

> <r_epik_State_Penalty>
1.16664

> <r_epik_Charging_Adjusted_Penalty>
2.27548

> <i_epik_Tot_Q>
1

> <i_epik_Tot_abs_Q>
1

> <r_epik_Metal_State_Penalty>
1.2527

> <b_epik_Metal_Only>
0

> <s_lp_Force_Field>
OPLS_2005

> <r_lp_Energy>
19.8643

> <b_lp_Chiralities_Consistent>
1

> <s_lp_Variant>
AV-unprocessed.smi:2960-2

> <Gold.Version>
5.8.1

> <Gold.Id.Protein>
6NUR|6NUR_protein|mol2

> <Gold.PLP.Fitness>
54.8958

> <Gold.PLP.PLP>
-48.7555

> <Gold.PLP.part.hbond>
-2.5840

> <Gold.PLP.part.metal>
0.0000

> <Gold.PLP.part.buried>
5.2347

> <Gold.PLP.part.nonpolar>
-50.4923

> <Gold.PLP.part.repulsive>
0.6786

> <Gold.PLP.ligand.clash>
0.0000

> <Gold.PLP.ligand.torsion>
0.6413

> <Gold.PLP.Chemscore.Hbond>
2.4509

> <Gold.PLP.Chemscore.CHOScore>
0.0000

> <Gold.PLP.Chemscore.Metal>
0.0000

> <Gold.Chemscore.Hbonds>
donor molecule, donor type, donor heavy atom, donor atom, acceptor molecule, acceptor atom, score
      L1  H     4    29       P1  7949  0.59
      L1  H     8    49       P1  7948  2.00

> <Gold.PLP.Chemscore.Internal.Correction>
0.0700

> <Gold.Rescore>
     Score         DG    S(hbond)    S(metal)    S(lipo)     H(rot)  DE(clash)    DE(int)     intcor
     17.81     -19.97       1.37        0.00     132.35       2.18       1.40       0.76       ----

> <Gold.Chemscore.Fitness>
17.8089

> <Gold.Chemscore.DG>
-19.9674

> <Gold.Chemscore.ZeroCoef>
-5.4800

> <Gold.Chemscore.Hbond>
1.3716

> <Gold.Chemscore.Metal>
0.0000

> <Gold.Chemscore.Lipo>
132.3535

> <Gold.Chemscore.Internal_Hbond>
0.0000

> <Gold.Chemscore.DEClash>
1.3981

> <Gold.Chemscore.DEInternal>
0.7603

> <Gold.Chemscore.Rot>
2.1793

> <Gold.Chemscore.Internal.Correction>
   9.000000E+99

> <Gold.Chemscore.Hbonds>
donor molecule, donor type, donor heavy atom, donor atom, acceptor molecule, acceptor atom, score
      L1  H     4    29       P1  7949  0.07
      L1  H     8    49       P1  7948  0.89

> <Gold.Chemscore.Hbond.Weighted>
-4.5811

> <Gold.Chemscore.Metal.Weighted>
-0.0000

> <Gold.Chemscore.Lipo.Weighted>
-15.4854

> <Gold.Chemscore.Internal_Hbond.Weighted>
0.0000

> <Gold.Chemscore.DEClash.Weighted>
1.3981

> <Gold.Chemscore.DEInternal.Weighted>
0.7603

> <Gold.Chemscore.Rot.Weighted>
5.5791

> <Gold.Chemscore.Internal.Correction.Weighted>
   9.000000E+99

> <Gold.Protein.RotatedTorsions>
[ 6907 6896 6895 6894 ] final  -75.32 input  -60.11 | X-H torsion
[ 7974 7965 7964 7962 ] final   19.45 input  175.53 | X-H torsion
[ 8008 7997 7996 7995 ] final  164.44 input   59.86 | X-H torsion
[ 10167 10162 10161 10158 ] final  -47.70 input  -65.29 | X-H torsion
[ 10718 10713 10712 10709 ] final  -64.90 input   66.30 | X-H torsion
[ 10763 10752 10751 10750 ] final  -57.52 input  -60.55 | X-H torsion
[ 11005 11000 10999 10996 ] final -130.15 input  -57.11 | X-H torsion

> <Gold.Protein.ActiveResidues>
 VAL166  LYS551  ARG553  GLY616  TRP617  ASP618  TYR619  PRO620  LYS621  CYS622 
 ASP623  PHE694  ASN695  SER759  ASP760  ASP761  ALA762  ILE779  LEU786  VAL792 
 PHE793  MET794  SER795  GLU796  ALA797  LYS798  CYS799  TRP800  GLU811  SER814 

> <Gold.Protein.RotatedAtoms>
  150.7063  134.4738  159.5437 H   0  0  0  0  0  0  0  0  0  0  0  0  # atno 6907 bound_to 6896
  152.2389  134.8245  160.0472 H   0  0  0  0  0  0  0  0  0  0  0  0  # atno 6908 bound_to 6896
  151.9034  133.3508  159.3875 H   0  0  0  0  0  0  0  0  0  0  0  0  # atno 6909 bound_to 6896
  146.2149  139.8311  142.8660 H   0  0  0  0  0  0  0  0  0  0  0  0  # atno 7974 bound_to 7965
  156.1879  140.1696  156.8148 H   0  0  0  0  0  0  0  0  0  0  0  0  # atno 8008 bound_to 7997
  154.5436  140.0731  156.8584 H   0  0  0  0  0  0  0  0  0  0  0  0  # atno 8009 bound_to 7997
  155.3165  140.3371  155.4244 H   0  0  0  0  0  0  0  0  0  0  0  0  # atno 8010 bound_to 7997
  140.6764  143.2773  151.3964 H   0  0  0  0  0  0  0  0  0  0  0  0  # atno 10167 bound_to 10162
  156.0701  130.4240  150.1487 H   0  0  0  0  0  0  0  0  0  0  0  0  # atno 10718 bound_to 10713
  154.2237  135.6373  153.5153 H   0  0  0  0  0  0  0  0  0  0  0  0  # atno 10763 bound_to 10752
  152.9963  135.5503  154.6087 H   0  0  0  0  0  0  0  0  0  0  0  0  # atno 10764 bound_to 10752
  154.5553  135.2904  155.0944 H   0  0  0  0  0  0  0  0  0  0  0  0  # atno 10765 bound_to 10752
  140.9370  134.1243  157.4184 H   0  0  0  0  0  0  0  0  0  0  0  0  # atno 11005 bound_to 11000
  145.2996  141.0190  143.3616 LP  0  0  0  0  0  0  0  0  0  0  0  0  # atno 17320 bound_to 7965
  144.9016  139.4642  143.6630 LP  0  0  0  0  0  0  0  0  0  0  0  0  # atno 17321 bound_to 7965
  139.6058  144.1199  152.2248 LP  0  0  0  0  0  0  0  0  0  0  0  0  # atno 17342 bound_to 10162
  140.0598  144.5866  150.7272 LP  0  0  0  0  0  0  0  0  0  0  0  0  # atno 17343 bound_to 10162
  156.9540  130.9784  151.3492 LP  0  0  0  0  0  0  0  0  0  0  0  0  # atno 17370 bound_to 10713
  157.5767  130.8347  149.8465 LP  0  0  0  0  0  0  0  0  0  0  0  0  # atno 17371 bound_to 10713
  139.8810  135.0024  156.6125 LP  0  0  0  0  0  0  0  0  0  0  0  0  # atno 17394 bound_to 11000
  140.7785  133.8679  155.8549 LP  0  0  0  0  0  0  0  0  0  0  0  0  # atno 17395 bound_to 11000

$$$$
