AV-unprocessed.smi:1522|AV-procd|sdf|6136|dock6
  -GOLD-   22720 6283D 1   1.00000     0.00000
 Structure written by MMmdl.
 34 35  0  0  0  0  0  0  0  0  3 V2000
  151.3815  140.1743  157.8543 C   0  0  0  0  0  0  0  0  0  0  0  0
  152.4473  141.0290  158.5760 C   0  0  2  0  0  0  0  0  0  0  0  0
  153.0466  140.2425  159.7677 C   0  0  0  0  0  0  0  0  0  0  0  0
  153.1106  138.8042  159.5109 N   0  0  0  0  0  0  0  0  0  0  0  0
  153.4827  137.8505  160.3760 C   0  0  0  0  0  0  0  0  0  0  0  0
  153.8763  138.1574  161.5027 O   0  0  0  0  0  0  0  0  0  0  0  0
  153.3580  136.5975  159.8867 N   0  5  0  0  0  0  0  0  0  0  0  0
  154.1081  136.2092  158.8423 C   0  0  0  0  0  0  0  0  0  0  0  0
  153.8018  135.1331  158.0996 N   0  0  0  0  0  0  0  0  0  0  0  0
  154.7050  134.9056  157.0705 N   0  0  0  0  0  0  0  0  0  0  0  0
  155.6688  135.8264  157.0573 C   0  0  0  0  0  0  0  0  0  0  0  0
  155.5612  137.0538  158.3016 S   0  0  0  0  0  0  0  0  0  0  0  0
  151.9141  142.3524  159.0130 N   0  3  0  0  0  0  0  0  0  0  0  0
  152.8577  143.1766  159.7965 C   0  0  0  0  0  0  0  0  0  0  0  0
  152.2235  144.5641  159.8347 C   0  0  0  0  0  0  0  0  0  0  0  0
  151.4524  144.6714  158.5166 C   0  0  0  0  0  0  0  0  0  0  0  0
  151.4156  143.2475  157.9448 C   0  0  0  0  0  0  0  0  0  0  0  0
  151.7711  139.1826  157.6221 H   0  0  0  0  0  0  0  0  0  0  0  0
  151.0730  140.6176  156.9077 H   0  0  0  0  0  0  0  0  0  0  0  0
  150.4885  140.0417  158.4664 H   0  0  0  0  0  0  0  0  0  0  0  0
  153.2478  141.2140  157.8582 H   0  0  0  0  0  0  0  0  0  0  0  0
  154.0661  140.5842  159.9490 H   0  0  0  0  0  0  0  0  0  0  0  0
  152.5057  140.4484  160.6921 H   0  0  0  0  0  0  0  0  0  0  0  0
  152.8104  138.4966  158.5970 H   0  0  0  0  0  0  0  0  0  0  0  0
  156.4467  135.7835  156.3097 H   0  0  0  0  0  0  0  0  0  0  0  0
  153.0387  142.7841  160.7962 H   0  0  0  0  0  0  0  0  0  0  0  0
  153.8169  143.2259  159.2788 H   0  0  0  0  0  0  0  0  0  0  0  0
  151.5268  144.6243  160.6723 H   0  0  0  0  0  0  0  0  0  0  0  0
  152.9617  145.3569  159.9584 H   0  0  0  0  0  0  0  0  0  0  0  0
  150.4467  145.0564  158.6902 H   0  0  0  0  0  0  0  0  0  0  0  0
  151.9492  145.3496  157.8219 H   0  0  0  0  0  0  0  0  0  0  0  0
  152.0791  143.1936  157.0802 H   0  0  0  0  0  0  0  0  0  0  0  0
  150.4135  142.9619  157.6229 H   0  0  0  0  0  0  0  0  0  0  0  0
  151.1240  142.1679  159.6163 H   0  0  0  0  0  0  0  0  0  0  0  0
  1  2  1  0  0  0  0
  1 18  1  0  0  0  0
  1 19  1  0  0  0  0
  1 20  1  0  0  0  0
  2  3  1  0  0  0  0
  2 13  1  0  0  0  0
  2 21  1  0  0  0  0
  3  4  1  0  0  0  0
  3 22  1  0  0  0  0
  3 23  1  0  0  0  0
  4  5  1  0  0  0  0
  4 24  1  0  0  0  0
  5  6  2  0  0  0  0
  5  7  1  0  0  0  0
  7  8  1  0  0  0  0
  8 12  1  0  0  0  0
  8  9  2  0  0  0  0
  9 10  1  0  0  0  0
 10 11  2  0  0  0  0
 11 12  1  0  0  0  0
 11 25  1  0  0  0  0
 13 17  1  0  0  0  0
 13 14  1  0  0  0  0
 13 34  1  0  0  0  0
 14 15  1  0  0  0  0
 14 26  1  0  0  0  0
 14 27  1  0  0  0  0
 15 16  1  0  0  0  0
 15 28  1  0  0  0  0
 15 29  1  0  0  0  0
 16 17  1  0  0  0  0
 16 30  1  0  0  0  0
 16 31  1  0  0  0  0
 17 32  1  0  0  0  0
 17 33  1  0  0  0  0
M  CHG  1   7  -1
M  CHG  1  13   1
M  END
> <s_m_source_file>
AV-unprocessed.smi

> <i_m_source_file_index>
1522

> <i_lp_mmshare_version>
43012

> <i_f3d_flags>
0

> <s_epik_input>
W0NIMl0xW0NIMl1bQ0gyXVtDSDJdTjFbQ0BIXShbQ0gzXSlbQ0gyXVtOSF1DKD1PKVtOSF1jMm5uW2NIXXMy

> <s_epik_cmdline>
J2VwaWtfcHl0aG9uJywgJy1waCcsICc3LjAnLCAnLXRuJywgJzgnLCAnLW1hJywgJzIwMCcsICctbWV0YWxfYmluZGluZycsICctaW1hZScsICc8aW5maWxlLm1hZT4nLCAnLW9tYWUnLCAnPG91dGZpbGUubWFlPic=

> <r_lp_tautomer_probability>
1

> <r_epik_Ionization_Penalty>
3.04208

> <r_epik_Ionization_Penalty_Charging>
3.00964

> <r_epik_Ionization_Penalty_Neutral>
0.0324455

> <r_epik_State_Penalty>
3.0051

> <r_epik_Charging_Adjusted_Penalty>
6.01474

> <i_epik_Tot_Q>
0

> <i_epik_Tot_abs_Q>
2

> <r_epik_Metal_State_Penalty>
0.454155

> <b_epik_Metal_Only>
1

> <s_lp_Force_Field>
OPLS_2005

> <r_lp_Energy>
27.863

> <b_lp_Chiralities_Consistent>
1

> <s_lp_Variant>
AV-unprocessed.smi:1522-3

> <Gold.Version>
5.8.1

> <Gold.Id.Protein>
6NUR|6NUR_protein|mol2

> <Gold.PLP.Fitness>
34.8944

> <Gold.PLP.PLP>
-27.7896

> <Gold.PLP.part.hbond>
-2.2920

> <Gold.PLP.part.metal>
0.0000

> <Gold.PLP.part.buried>
-4.9948

> <Gold.PLP.part.nonpolar>
-21.0175

> <Gold.PLP.part.repulsive>
0.1494

> <Gold.PLP.ligand.clash>
0.0000

> <Gold.PLP.ligand.torsion>
0.9834

> <Gold.PLP.Chemscore.Hbond>
3.0000

> <Gold.PLP.Chemscore.CHOScore>
0.0000

> <Gold.PLP.Chemscore.Metal>
0.0000

> <Gold.Chemscore.Hbonds>
donor molecule, donor type, donor heavy atom, donor atom, acceptor molecule, acceptor atom, score
      P1  H  6896  6907       L1     7  1.56
      P1  H 10752 10765       L1    10  0.45

> <Gold.PLP.Chemscore.Internal.Correction>
0.0717

> <Gold.Rescore>
     Score         DG    S(hbond)    S(metal)    S(lipo)     H(rot)  DE(clash)    DE(int)     intcor
     14.75     -15.75       1.79        0.00      73.50       1.68       0.00       1.00       ----

> <Gold.Chemscore.Fitness>
14.7531

> <Gold.Chemscore.DG>
-15.7532

> <Gold.Chemscore.ZeroCoef>
-5.4800

> <Gold.Chemscore.Hbond>
1.7858

> <Gold.Chemscore.Metal>
0.0000

> <Gold.Chemscore.Lipo>
73.5007

> <Gold.Chemscore.Internal_Hbond>
0.0000

> <Gold.Chemscore.DEClash>
0.0004

> <Gold.Chemscore.DEInternal>
0.9998

> <Gold.Chemscore.Rot>
1.6762

> <Gold.Chemscore.Internal.Correction>
   9.000000E+99

> <Gold.Chemscore.Hbonds>
donor molecule, donor type, donor heavy atom, donor atom, acceptor molecule, acceptor atom, score
      P1  H  6896  6907       L1     7  0.11
      P1  H 10752 10765       L1    10  0.02

> <Gold.Chemscore.Hbond.Weighted>
-5.9647

> <Gold.Chemscore.Metal.Weighted>
-0.0000

> <Gold.Chemscore.Lipo.Weighted>
-8.5996

> <Gold.Chemscore.Internal_Hbond.Weighted>
0.0000

> <Gold.Chemscore.DEClash.Weighted>
0.0004

> <Gold.Chemscore.DEInternal.Weighted>
0.9998

> <Gold.Chemscore.Rot.Weighted>
4.2910

> <Gold.Chemscore.Internal.Correction.Weighted>
   9.000000E+99

> <Gold.Protein.RotatedTorsions>
[ 6907 6896 6895 6894 ] final   46.62 input  -60.11 | X-H torsion
[ 7974 7965 7964 7962 ] final  159.03 input  175.53 | X-H torsion
[ 8008 7997 7996 7995 ] final   87.12 input   59.86 | X-H torsion
[ 10167 10162 10161 10158 ] final  134.17 input  -65.29 | X-H torsion
[ 10718 10713 10712 10709 ] final   31.87 input   66.30 | X-H torsion
[ 10763 10752 10751 10750 ] final  -70.92 input  -60.55 | X-H torsion
[ 11005 11000 10999 10996 ] final  176.89 input  -57.11 | X-H torsion

> <Gold.Protein.ActiveResidues>
 VAL166  LYS551  ARG553  GLY616  TRP617  ASP618  TYR619  PRO620  LYS621  CYS622 
 ASP623  PHE694  ASN695  SER759  ASP760  ASP761  ALA762  ILE779  LEU786  VAL792 
 PHE793  MET794  SER795  GLU796  ALA797  LYS798  CYS799  TRP800  GLU811  SER814 

> <Gold.Protein.RotatedAtoms>
  152.2585  134.8059  160.0434 H   0  0  0  0  0  0  0  0  0  0  0  0  # atno 6907 bound_to 6896
  151.8714  133.3471  159.3744 H   0  0  0  0  0  0  0  0  0  0  0  0  # atno 6908 bound_to 6896
  150.7108  134.5036  159.5617 H   0  0  0  0  0  0  0  0  0  0  0  0  # atno 6909 bound_to 6896
  144.7812  139.7561  143.6259 H   0  0  0  0  0  0  0  0  0  0  0  0  # atno 7974 bound_to 7965
  155.9714  140.3385  155.6579 H   0  0  0  0  0  0  0  0  0  0  0  0  # atno 8008 bound_to 7997
  155.6669  140.0722  157.2552 H   0  0  0  0  0  0  0  0  0  0  0  0  # atno 8009 bound_to 7997
  154.4167  140.1698  156.1824 H   0  0  0  0  0  0  0  0  0  0  0  0  # atno 8010 bound_to 7997
  139.5267  144.6580  151.5101 H   0  0  0  0  0  0  0  0  0  0  0  0  # atno 10167 bound_to 10162
  157.2780  130.7241  149.6541 H   0  0  0  0  0  0  0  0  0  0  0  0  # atno 10718 bound_to 10713
  154.4245  135.5978  153.6030 H   0  0  0  0  0  0  0  0  0  0  0  0  # atno 10763 bound_to 10752
  152.9795  135.5960  154.3914 H   0  0  0  0  0  0  0  0  0  0  0  0  # atno 10764 bound_to 10752
  154.3744  135.2841  155.2226 H   0  0  0  0  0  0  0  0  0  0  0  0  # atno 10765 bound_to 10752
  140.3781  134.6970  157.4434 H   0  0  0  0  0  0  0  0  0  0  0  0  # atno 11005 bound_to 11000
  146.2021  139.5323  142.9736 LP  0  0  0  0  0  0  0  0  0  0  0  0  # atno 17320 bound_to 7965
  145.6044  141.0350  143.2000 LP  0  0  0  0  0  0  0  0  0  0  0  0  # atno 17321 bound_to 7965
  140.6415  143.8879  150.6696 LP  0  0  0  0  0  0  0  0  0  0  0  0  # atno 17342 bound_to 10162
  140.2215  143.3805  152.1639 LP  0  0  0  0  0  0  0  0  0  0  0  0  # atno 17343 bound_to 10162
  155.9664  130.4347  150.5059 LP  0  0  0  0  0  0  0  0  0  0  0  0  # atno 17370 bound_to 10713
  157.2997  131.0643  151.2077 LP  0  0  0  0  0  0  0  0  0  0  0  0  # atno 17371 bound_to 10713
  140.0499  134.6145  155.8874 LP  0  0  0  0  0  0  0  0  0  0  0  0  # atno 17394 bound_to 11000
  141.1932  133.6578  156.5539 LP  0  0  0  0  0  0  0  0  0  0  0  0  # atno 17395 bound_to 11000

$$$$
