AV-unprocessed.smi:1375|AV-procd|sdf|5589|dock3
  -GOLD-   22720 5193D 1   1.00000     0.00000
 Structure written by MMmdl.
 36 37  0  0  0  0  0  0  0  0  1 V2000
  144.6792  143.8393  157.2657 C   0  0  0  0  0  0  0  0  0  0  0  0
  145.2492  143.5214  155.9260 C   0  0  0  0  0  0  0  0  0  0  0  0
  146.2412  142.6486  155.7323 N   0  0  0  0  0  0  0  0  0  0  0  0
  146.5966  142.5275  154.3851 C   0  0  0  0  0  0  0  0  0  0  0  0
  147.6910  141.5874  153.9800 C   0  0  0  0  0  0  0  0  0  0  0  0
  148.5028  141.0873  155.1864 C   0  0  0  0  0  0  0  0  0  0  0  0
  149.2681  142.1643  155.8033 N   0  0  0  0  0  0  0  0  0  0  0  0
  150.2587  141.9954  156.6954 C   0  0  0  0  0  0  0  0  0  0  0  0
  150.6281  140.8935  157.0973 O   0  0  0  0  0  0  0  0  0  0  0  0
  150.8349  143.1349  157.1180 N   0  0  0  0  0  0  0  0  0  0  0  0
  151.9304  143.2889  158.0781 C   0  0  0  0  0  0  0  0  0  0  0  0
  151.4428  143.1551  159.5370 C   0  0  0  0  0  0  0  0  0  0  0  0
  152.0030  144.3652  160.2865 C   0  0  0  0  0  0  0  0  0  0  0  0
  152.1124  145.4500  159.2203 C   0  0  0  0  0  0  0  0  0  0  0  0
  152.5486  144.6947  157.9648 C   0  0  0  0  0  0  0  0  0  0  0  0
  145.8499  143.3259  153.5549 C   0  0  0  0  0  0  0  0  0  0  0  0
  144.6743  144.2611  154.4368 S   0  0  0  0  0  0  0  0  0  0  0  0
  145.2888  143.4016  158.0570 H   0  0  0  0  0  0  0  0  0  0  0  0
  143.6671  143.4419  157.3430 H   0  0  0  0  0  0  0  0  0  0  0  0
  144.6443  144.9193  157.4095 H   0  0  0  0  0  0  0  0  0  0  0  0
  147.2647  140.7370  153.4463 H   0  0  0  0  0  0  0  0  0  0  0  0
  148.3584  142.0790  153.2710 H   0  0  0  0  0  0  0  0  0  0  0  0
  147.8330  140.6749  155.9414 H   0  0  0  0  0  0  0  0  0  0  0  0
  149.1711  140.2775  154.8885 H   0  0  0  0  0  0  0  0  0  0  0  0
  149.0334  143.1069  155.5280 H   0  0  0  0  0  0  0  0  0  0  0  0
  150.4808  143.9917  156.7176 H   0  0  0  0  0  0  0  0  0  0  0  0
  152.7078  142.5524  157.8666 H   0  0  0  0  0  0  0  0  0  0  0  0
  150.3530  143.1848  159.5825 H   0  0  0  0  0  0  0  0  0  0  0  0
  151.7570  142.2148  159.9910 H   0  0  0  0  0  0  0  0  0  0  0  0
  151.3775  144.6639  161.1283 H   0  0  0  0  0  0  0  0  0  0  0  0
  152.9952  144.1312  160.6747 H   0  0  0  0  0  0  0  0  0  0  0  0
  151.1345  145.9043  159.0558 H   0  0  0  0  0  0  0  0  0  0  0  0
  152.8075  146.2433  159.4964 H   0  0  0  0  0  0  0  0  0  0  0  0
  153.6360  144.6084  157.9603 H   0  0  0  0  0  0  0  0  0  0  0  0
  152.2673  145.2212  157.0514 H   0  0  0  0  0  0  0  0  0  0  0  0
  145.9190  143.4185  152.4812 H   0  0  0  0  0  0  0  0  0  0  0  0
  1  2  1  0  0  0  0
  1 18  1  0  0  0  0
  1 19  1  0  0  0  0
  1 20  1  0  0  0  0
  2 17  1  0  0  0  0
  2  3  2  0  0  0  0
  3  4  1  0  0  0  0
  4  5  1  0  0  0  0
  4 16  2  0  0  0  0
  5  6  1  0  0  0  0
  5 21  1  0  0  0  0
  5 22  1  0  0  0  0
  6  7  1  0  0  0  0
  6 23  1  0  0  0  0
  6 24  1  0  0  0  0
  7  8  1  0  0  0  0
  7 25  1  0  0  0  0
  8  9  2  0  0  0  0
  8 10  1  0  0  0  0
 10 11  1  0  0  0  0
 10 26  1  0  0  0  0
 11 15  1  0  0  0  0
 11 12  1  0  0  0  0
 11 27  1  0  0  0  0
 12 13  1  0  0  0  0
 12 28  1  0  0  0  0
 12 29  1  0  0  0  0
 13 14  1  0  0  0  0
 13 30  1  0  0  0  0
 13 31  1  0  0  0  0
 14 15  1  0  0  0  0
 14 32  1  0  0  0  0
 14 33  1  0  0  0  0
 15 34  1  0  0  0  0
 15 35  1  0  0  0  0
 16 17  1  0  0  0  0
 16 36  1  0  0  0  0
M  END
> <s_m_source_file>
AV-unprocessed.smi

> <i_m_source_file_index>
1375

> <i_lp_mmshare_version>
43012

> <i_f3d_flags>
0

> <s_epik_input>
W0NIM11jMW5jKFtjSF1zMSlbQ0gyXVtDSDJdW05IXUMoPU8pW05IXVtDSF0yW0NIMl1bQ0gyXVtDSDJdW0NIMl0y

> <s_epik_cmdline>
J2VwaWtfcHl0aG9uJywgJy1waCcsICc3LjAnLCAnLXRuJywgJzgnLCAnLW1hJywgJzIwMCcsICctbWV0YWxfYmluZGluZycsICctaW1hZScsICc8aW5maWxlLm1hZT4nLCAnLW9tYWUnLCAnPG91dGZpbGUubWFlPic=

> <r_epik_Ionization_Penalty>
0.00202185

> <r_epik_Ionization_Penalty_Charging>
0

> <r_epik_Ionization_Penalty_Neutral>
0.00202185

> <r_epik_State_Penalty>
0.00133629

> <r_epik_Charging_Adjusted_Penalty>
0.00133629

> <i_epik_Tot_Q>
0

> <i_epik_Tot_abs_Q>
0

> <r_epik_Metal_State_Penalty>
-0

> <b_epik_Metal_Only>
0

> <s_lp_Force_Field>
OPLS_2005

> <r_lp_Energy>
21.3593

> <b_lp_Chiralities_Consistent>
1

> <s_lp_Variant>
AV-unprocessed.smi:1375-1

> <Gold.Version>
5.8.1

> <Gold.Id.Protein>
6NUR|6NUR_protein|mol2

> <Gold.PLP.Fitness>
45.6911

> <Gold.PLP.PLP>
-41.0372

> <Gold.PLP.part.hbond>
-2.0000

> <Gold.PLP.part.metal>
0.0000

> <Gold.PLP.part.buried>
-7.0413

> <Gold.PLP.part.nonpolar>
-32.6440

> <Gold.PLP.part.repulsive>
0.3347

> <Gold.PLP.ligand.clash>
0.0000

> <Gold.PLP.ligand.torsion>
0.4711

> <Gold.PLP.Chemscore.Hbond>
1.8564

> <Gold.PLP.Chemscore.CHOScore>
0.0000

> <Gold.PLP.Chemscore.Metal>
0.0000

> <Gold.Chemscore.Hbonds>
donor molecule, donor type, donor heavy atom, donor atom, acceptor molecule, acceptor atom, score
      L1  H     7    25       P1  8028  1.00
      L1  H    10    26       P1  8028  0.85

> <Gold.PLP.Chemscore.Internal.Correction>
0.0267

> <Gold.Rescore>
     Score         DG    S(hbond)    S(metal)    S(lipo)     H(rot)  DE(clash)    DE(int)     intcor
     18.76     -19.24       1.87        0.00      97.28       1.51       0.03       0.45       ----

> <Gold.Chemscore.Fitness>
18.7588

> <Gold.Chemscore.DG>
-19.2412

> <Gold.Chemscore.ZeroCoef>
-5.4800

> <Gold.Chemscore.Hbond>
1.8667

> <Gold.Chemscore.Metal>
0.0000

> <Gold.Chemscore.Lipo>
97.2805

> <Gold.Chemscore.Internal_Hbond>
0.0000

> <Gold.Chemscore.DEClash>
0.0281

> <Gold.Chemscore.DEInternal>
0.4543

> <Gold.Chemscore.Rot>
1.5060

> <Gold.Chemscore.Internal.Correction>
   9.000000E+99

> <Gold.Chemscore.Hbonds>
donor molecule, donor type, donor heavy atom, donor atom, acceptor molecule, acceptor atom, score
      L1  H     7    25       P1  8028  0.99
      L1  H    10    26       P1  8028  0.79

> <Gold.Chemscore.Hbond.Weighted>
-6.2347

> <Gold.Chemscore.Metal.Weighted>
-0.0000

> <Gold.Chemscore.Lipo.Weighted>
-11.3818

> <Gold.Chemscore.Internal_Hbond.Weighted>
0.0000

> <Gold.Chemscore.DEClash.Weighted>
0.0281

> <Gold.Chemscore.DEInternal.Weighted>
0.4543

> <Gold.Chemscore.Rot.Weighted>
3.8553

> <Gold.Chemscore.Internal.Correction.Weighted>
   9.000000E+99

> <Gold.Protein.RotatedTorsions>
[ 6907 6896 6895 6894 ] final   81.99 input  -60.11 | X-H torsion
[ 7974 7965 7964 7962 ] final  114.62 input  175.53 | X-H torsion
[ 8008 7997 7996 7995 ] final  166.84 input   59.86 | X-H torsion
[ 10167 10162 10161 10158 ] final   96.54 input  -65.29 | X-H torsion
[ 10718 10713 10712 10709 ] final  -99.58 input   66.30 | X-H torsion
[ 10763 10752 10751 10750 ] final  -57.01 input  -60.55 | X-H torsion
[ 11005 11000 10999 10996 ] final -152.66 input  -57.11 | X-H torsion

> <Gold.Protein.ActiveResidues>
 VAL166  LYS551  ARG553  GLY616  TRP617  ASP618  TYR619  PRO620  LYS621  CYS622 
 ASP623  PHE694  ASN695  SER759  ASP760  ASP761  ALA762  ILE779  LEU786  VAL792 
 PHE793  MET794  SER795  GLU796  ALA797  LYS798  CYS799  TRP800  GLU811  SER814 

> <Gold.Protein.RotatedAtoms>
  152.5285  134.3119  159.9116 H   0  0  0  0  0  0  0  0  0  0  0  0  # atno 6907 bound_to 6896
  151.3068  133.4091  159.2651 H   0  0  0  0  0  0  0  0  0  0  0  0  # atno 6908 bound_to 6896
  151.0072  134.9385  159.8044 H   0  0  0  0  0  0  0  0  0  0  0  0  # atno 6909 bound_to 6896
  145.2021  139.2947  143.4312 H   0  0  0  0  0  0  0  0  0  0  0  0  # atno 7974 bound_to 7965
  156.1684  140.1632  156.8491 H   0  0  0  0  0  0  0  0  0  0  0  0  # atno 8008 bound_to 7997
  154.5231  140.0773  156.8244 H   0  0  0  0  0  0  0  0  0  0  0  0  # atno 8009 bound_to 7997
  155.3563  140.3393  155.4242 H   0  0  0  0  0  0  0  0  0  0  0  0  # atno 8010 bound_to 7997
  139.7885  144.6861  150.9925 H   0  0  0  0  0  0  0  0  0  0  0  0  # atno 10167 bound_to 10162
  156.0138  130.5289  150.6692 H   0  0  0  0  0  0  0  0  0  0  0  0  # atno 10718 bound_to 10713
  154.2157  135.6386  153.5129 H   0  0  0  0  0  0  0  0  0  0  0  0  # atno 10763 bound_to 10752
  152.9980  135.5484  154.6168 H   0  0  0  0  0  0  0  0  0  0  0  0  # atno 10764 bound_to 10752
  154.5615  135.2909  155.0888 H   0  0  0  0  0  0  0  0  0  0  0  0  # atno 10765 bound_to 10752
  140.7165  134.3775  157.5190 H   0  0  0  0  0  0  0  0  0  0  0  0  # atno 11005 bound_to 11000
  146.3415  140.2270  142.8592 LP  0  0  0  0  0  0  0  0  0  0  0  0  # atno 17320 bound_to 7965
  144.9937  140.8570  143.5324 LP  0  0  0  0  0  0  0  0  0  0  0  0  # atno 17321 bound_to 7965
  140.7820  143.4407  151.0557 LP  0  0  0  0  0  0  0  0  0  0  0  0  # atno 17342 bound_to 10162
  139.8084  143.7985  152.3169 LP  0  0  0  0  0  0  0  0  0  0  0  0  # atno 17343 bound_to 10162
  157.4418  131.0862  151.0936 LP  0  0  0  0  0  0  0  0  0  0  0  0  # atno 17370 bound_to 10713
  157.1478  130.6171  149.5573 LP  0  0  0  0  0  0  0  0  0  0  0  0  # atno 17371 bound_to 10713
  139.8858  134.8926  156.2619 LP  0  0  0  0  0  0  0  0  0  0  0  0  # atno 17394 bound_to 11000
  141.0040  133.7134  156.1005 LP  0  0  0  0  0  0  0  0  0  0  0  0  # atno 17395 bound_to 11000

$$$$
