AV-unprocessed.smi:2844|AV-procd|sdf|10940|dock8
  -GOLD-   2272015383D 1   1.00000     0.00000
 Structure written by MMmdl.
 38 40  0  0  0  0  0  0  0  0  1 V2000
  152.9621  143.1170  161.5946 C   0  0  0  0  0  0  0  0  0  0  0  0
  152.4412  142.7404  160.2189 C   0  0  0  0  0  0  0  0  0  0  0  0
  152.7748  141.4774  159.6803 C   0  0  0  0  0  0  0  0  0  0  0  0
  152.3093  141.0878  158.4054 C   0  0  0  0  0  0  0  0  0  0  0  0
  152.5075  139.9160  157.6954 N   0  0  0  0  0  0  0  0  0  0  0  0
  151.8205  140.1577  156.5827 C   0  0  0  0  0  0  0  0  0  0  0  0
  151.2006  141.3497  156.4872 N   0  0  0  0  0  0  0  0  0  0  0  0
  150.3987  141.8367  155.3793 C   0  0  0  0  0  0  0  0  0  0  0  0
  149.3868  140.7883  154.8792 C   0  0  1  0  0  0  0  0  0  0  0  0
  150.0430  139.8525  154.0428 O   0  0  0  0  0  0  0  0  0  0  0  0
  148.6971  140.0536  156.0450 C   0  0  0  0  0  0  0  0  0  0  0  0
  147.6380  140.8377  156.6556 N   0  0  0  0  0  0  0  0  0  0  0  0
  147.2387  142.1231  156.3438 C   0  0  0  0  0  0  0  0  0  0  0  0
  146.2137  142.4006  157.1955 C   0  0  0  0  0  0  0  0  0  0  0  0
  145.3110  143.8679  157.2806 Cl  0  0  0  0  0  0  0  0  0  0  0  0
  146.0347  141.2449  157.9975 C   0  0  0  0  0  0  0  0  0  0  0  0
  146.9005  140.2998  157.6607 N   0  0  0  0  0  0  0  0  0  0  0  0
  151.4957  142.0047  157.6775 C   0  0  0  0  0  0  0  0  0  0  0  0
  151.1584  143.2651  158.2017 C   0  0  0  0  0  0  0  0  0  0  0  0
  151.6303  143.6375  159.4779 C   0  0  0  0  0  0  0  0  0  0  0  0
  151.2583  144.9992  160.0375 C   0  0  0  0  0  0  0  0  0  0  0  0
  153.5401  142.3052  162.0374 H   0  0  0  0  0  0  0  0  0  0  0  0
  152.1356  143.3439  162.2681 H   0  0  0  0  0  0  0  0  0  0  0  0
  153.6088  143.9923  161.5311 H   0  0  0  0  0  0  0  0  0  0  0  0
  153.3930  140.7941  160.2440 H   0  0  0  0  0  0  0  0  0  0  0  0
  151.7662  139.4268  155.7890 H   0  0  0  0  0  0  0  0  0  0  0  0
  149.8856  142.7474  155.6919 H   0  0  0  0  0  0  0  0  0  0  0  0
  151.0745  142.1219  154.5722 H   0  0  0  0  0  0  0  0  0  0  0  0
  148.6267  141.2906  154.2792 H   0  0  0  0  0  0  0  0  0  0  0  0
  149.5863  139.8136  153.2167 H   0  0  0  0  0  0  0  0  0  0  0  0
  148.2743  139.1085  155.7014 H   0  0  0  0  0  0  0  0  0  0  0  0
  149.4263  139.8055  156.8176 H   0  0  0  0  0  0  0  0  0  0  0  0
  147.7070  142.7100  155.5676 H   0  0  0  0  0  0  0  0  0  0  0  0
  145.3240  141.0634  158.7903 H   0  0  0  0  0  0  0  0  0  0  0  0
  150.5412  143.9386  157.6254 H   0  0  0  0  0  0  0  0  0  0  0  0
  150.6439  145.5638  159.3357 H   0  0  0  0  0  0  0  0  0  0  0  0
  152.1537  145.5856  160.2447 H   0  0  0  0  0  0  0  0  0  0  0  0
  150.6934  144.8895  160.9634 H   0  0  0  0  0  0  0  0  0  0  0  0
  1  2  1  0  0  0  0
  1 22  1  0  0  0  0
  1 23  1  0  0  0  0
  1 24  1  0  0  0  0
  2 20  1  0  0  0  0
  2  3  2  0  0  0  0
  3  4  1  0  0  0  0
  3 25  1  0  0  0  0
  4 18  2  0  0  0  0
  4  5  1  0  0  0  0
  5  6  2  0  0  0  0
  6  7  1  0  0  0  0
  6 26  1  0  0  0  0
  7  8  1  0  0  0  0
  7 18  1  0  0  0  0
  8  9  1  0  0  0  0
  8 27  1  0  0  0  0
  8 28  1  0  0  0  0
  9 10  1  0  0  0  0
  9 11  1  0  0  0  0
  9 29  1  0  0  0  0
 10 30  1  0  0  0  0
 11 12  1  0  0  0  0
 11 31  1  0  0  0  0
 11 32  1  0  0  0  0
 12 17  1  0  0  0  0
 12 13  1  0  0  0  0
 13 14  2  0  0  0  0
 13 33  1  0  0  0  0
 14 15  1  0  0  0  0
 14 16  1  0  0  0  0
 16 17  2  0  0  0  0
 16 34  1  0  0  0  0
 18 19  1  0  0  0  0
 19 20  2  0  0  0  0
 19 35  1  0  0  0  0
 20 21  1  0  0  0  0
 21 36  1  0  0  0  0
 21 37  1  0  0  0  0
 21 38  1  0  0  0  0
M  END
> <s_m_source_file>
AV-unprocessed.smi

> <i_m_source_file_index>
2844

> <i_lp_mmshare_version>
43012

> <i_f3d_flags>
0

> <s_epik_input>
W0NIM11jKFtjSF0xKWMoW0NIM10pW2NIXWMoYzEyKW4oW2NIXW4yKVtDSDJdW0NASF0oW09IXSlbQ0gyXW4zW2NIXWMoQ2wpW2NIXW4z

> <s_epik_cmdline>
J2VwaWtfcHl0aG9uJywgJy1waCcsICc3LjAnLCAnLXRuJywgJzgnLCAnLW1hJywgJzIwMCcsICctbWV0YWxfYmluZGluZycsICctaW1hZScsICc8aW5maWxlLm1hZT4nLCAnLW9tYWUnLCAnPG91dGZpbGUubWFlPic=

> <r_lp_tautomer_probability>
1

> <r_epik_Ionization_Penalty>
0.1021

> <r_epik_Ionization_Penalty_Charging>
0

> <r_epik_Ionization_Penalty_Neutral>
0.1021

> <r_epik_State_Penalty>
0.0920694

> <r_epik_Charging_Adjusted_Penalty>
0.0920694

> <i_epik_Tot_Q>
0

> <i_epik_Tot_abs_Q>
0

> <r_epik_Metal_State_Penalty>
0.0784292

> <b_epik_Metal_Only>
0

> <s_lp_Force_Field>
OPLS_2005

> <r_lp_Energy>
10.226

> <b_lp_Chiralities_Consistent>
1

> <s_lp_Variant>
AV-unprocessed.smi:2844-2

> <Gold.Version>
5.8.1

> <Gold.Id.Protein>
6NUR|6NUR_protein|mol2

> <Gold.PLP.Fitness>
48.6693

> <Gold.PLP.PLP>
-37.7439

> <Gold.PLP.part.hbond>
-3.0000

> <Gold.PLP.part.metal>
0.0000

> <Gold.PLP.part.buried>
-4.1625

> <Gold.PLP.part.nonpolar>
-28.9511

> <Gold.PLP.part.repulsive>
0.0000

> <Gold.PLP.ligand.clash>
0.0000

> <Gold.PLP.ligand.torsion>
0.5155

> <Gold.PLP.Chemscore.Hbond>
2.9760

> <Gold.PLP.Chemscore.CHOScore>
1.0000

> <Gold.PLP.Chemscore.Metal>
0.0000

> <Gold.Chemscore.Hbonds>
donor molecule, donor type, donor heavy atom, donor atom, acceptor molecule, acceptor atom, score
      L1  H    10    30       P1  7957  0.89
      P1  H  7989  7998       L1    10  0.93
      P1  H  7997  8008       L1     5  0.66
      L1  C    13    33       P1  8028  1.00

> <Gold.PLP.Chemscore.Internal.Correction>
0.0284

> <Gold.Rescore>
     Score         DG    S(hbond)    S(metal)    S(lipo)     H(rot)  DE(clash)    DE(int)     intcor
     16.35     -18.36       1.90        0.00     103.04       2.15       1.48       0.53       ----

> <Gold.Chemscore.Fitness>
16.3475

> <Gold.Chemscore.DG>
-18.3560

> <Gold.Chemscore.ZeroCoef>
-5.4800

> <Gold.Chemscore.Hbond>
1.8961

> <Gold.Chemscore.Metal>
0.0000

> <Gold.Chemscore.Lipo>
103.0412

> <Gold.Chemscore.Internal_Hbond>
0.0000

> <Gold.Chemscore.DEClash>
1.4833

> <Gold.Chemscore.DEInternal>
0.5252

> <Gold.Chemscore.Rot>
2.1534

> <Gold.Chemscore.Internal.Correction>
   9.000000E+99

> <Gold.Chemscore.Hbonds>
donor molecule, donor type, donor heavy atom, donor atom, acceptor molecule, acceptor atom, score
      L1  H    10    30       P1  7957  0.81
      P1  H  7989  7998       L1    10  0.07
      P1  H  7997  8008       L1     5  0.07

> <Gold.Chemscore.Hbond.Weighted>
-6.3329

> <Gold.Chemscore.Metal.Weighted>
-0.0000

> <Gold.Chemscore.Lipo.Weighted>
-12.0558

> <Gold.Chemscore.Internal_Hbond.Weighted>
0.0000

> <Gold.Chemscore.DEClash.Weighted>
1.4833

> <Gold.Chemscore.DEInternal.Weighted>
0.5252

> <Gold.Chemscore.Rot.Weighted>
5.5127

> <Gold.Chemscore.Internal.Correction.Weighted>
   9.000000E+99

> <Gold.Protein.RotatedTorsions>
[ 6907 6896 6895 6894 ] final    3.65 input  -60.11 | X-H torsion
[ 7974 7965 7964 7962 ] final  -42.52 input  175.53 | X-H torsion
[ 8008 7997 7996 7995 ] final  -74.50 input   59.86 | X-H torsion
[ 10167 10162 10161 10158 ] final  103.21 input  -65.29 | X-H torsion
[ 10718 10713 10712 10709 ] final   52.30 input   66.30 | X-H torsion
[ 10763 10752 10751 10750 ] final   14.31 input  -60.55 | X-H torsion
[ 11005 11000 10999 10996 ] final   16.19 input  -57.11 | X-H torsion

> <Gold.Protein.ActiveResidues>
 VAL166  LYS551  ARG553  GLY616  TRP617  ASP618  TYR619  PRO620  LYS621  CYS622 
 ASP623  PHE694  ASN695  SER759  ASP760  ASP761  ALA762  ILE779  LEU786  VAL792 
 PHE793  MET794  SER795  GLU796  ALA797  LYS798  CYS799  TRP800  GLU811  SER814 

> <Gold.Protein.RotatedAtoms>
  151.6285  135.1025  160.0116 H   0  0  0  0  0  0  0  0  0  0  0  0  # atno 6907 bound_to 6896
  152.4119  133.6973  159.6414 H   0  0  0  0  0  0  0  0  0  0  0  0  # atno 6908 bound_to 6896
  150.8009  133.8525  159.3250 H   0  0  0  0  0  0  0  0  0  0  0  0  # atno 6909 bound_to 6896
  146.0108  140.6966  142.9225 H   0  0  0  0  0  0  0  0  0  0  0  0  # atno 7974 bound_to 7965
  154.5336  140.0760  156.8389 H   0  0  0  0  0  0  0  0  0  0  0  0  # atno 8008 bound_to 7997
  155.3323  140.3402  155.4221 H   0  0  0  0  0  0  0  0  0  0  0  0  # atno 8009 bound_to 7997
  156.1806  140.1651  156.8267 H   0  0  0  0  0  0  0  0  0  0  0  0  # atno 8010 bound_to 7997
  139.7282  144.7042  151.0763 H   0  0  0  0  0  0  0  0  0  0  0  0  # atno 10167 bound_to 10162
  157.5062  130.8470  149.8377 H   0  0  0  0  0  0  0  0  0  0  0  0  # atno 10718 bound_to 10713
  153.1635  135.6800  153.8708 H   0  0  0  0  0  0  0  0  0  0  0  0  # atno 10763 bound_to 10752
  153.8096  135.3144  155.3400 H   0  0  0  0  0  0  0  0  0  0  0  0  # atno 10764 bound_to 10752
  154.7949  135.4813  154.0227 H   0  0  0  0  0  0  0  0  0  0  0  0  # atno 10765 bound_to 10752
  140.4499  134.1235  155.7701 H   0  0  0  0  0  0  0  0  0  0  0  0  # atno 11005 bound_to 11000
  144.6952  140.3395  143.7201 LP  0  0  0  0  0  0  0  0  0  0  0  0  # atno 17320 bound_to 7965
  145.7345  139.1746  143.2411 LP  0  0  0  0  0  0  0  0  0  0  0  0  # atno 17321 bound_to 7965
  140.7766  143.5077  150.9692 LP  0  0  0  0  0  0  0  0  0  0  0  0  # atno 17342 bound_to 10162
  139.8765  143.7126  152.3161 LP  0  0  0  0  0  0  0  0  0  0  0  0  # atno 17343 bound_to 10162
  156.0260  130.3779  150.1823 LP  0  0  0  0  0  0  0  0  0  0  0  0  # atno 17370 bound_to 10713
  157.0013  130.9923  151.3390 LP  0  0  0  0  0  0  0  0  0  0  0  0  # atno 17371 bound_to 10713
  141.1668  133.8686  157.1689 LP  0  0  0  0  0  0  0  0  0  0  0  0  # atno 17394 bound_to 11000
  140.0014  135.0026  157.0197 LP  0  0  0  0  0  0  0  0  0  0  0  0  # atno 17395 bound_to 11000

$$$$
