AV-unprocessed.smi:2269|AV-procd|sdf|9152|dock4
  -GOLD-   2272012363D 1   1.00000     0.00000
 Structure written by MMmdl.
 41 42  0  0  0  0  0  0  0  0  1 V2000
  147.8014  136.0404  160.9542 C   0  0  0  0  0  0  0  0  0  0  0  0
  148.2411  136.5266  159.5845 C   0  0  0  0  0  0  0  0  0  0  0  0
  149.6084  136.4171  159.3156 N   0  0  0  0  0  0  0  0  0  0  0  0
  150.0736  136.8022  158.1723 C   0  0  0  0  0  0  0  0  0  0  0  0
  149.2384  137.3378  157.1782 N   0  0  0  0  0  0  0  0  0  0  0  0
  149.8920  137.7276  155.9170 C   0  0  0  0  0  0  0  0  0  0  0  0
  150.7490  139.0039  156.0778 C   0  0  2  0  0  0  0  0  0  0  0  0
  150.9275  139.5719  154.7948 O   0  0  0  0  0  0  0  0  0  0  0  0
  152.1504  138.6907  156.6272 C   0  0  0  0  0  0  0  0  0  0  0  0
  152.6418  139.8345  157.3106 O   0  0  0  0  0  0  0  0  0  0  0  0
  151.8875  140.1807  158.4624 C   0  0  0  0  0  0  0  0  0  0  0  0
  151.9544  141.6689  158.7808 C   0  0  0  0  0  0  0  0  0  0  0  0
  151.3947  142.5768  157.8561 C   0  0  0  0  0  0  0  0  0  0  0  0
  151.4275  143.9622  158.1030 C   0  0  0  0  0  0  0  0  0  0  0  0
  152.0206  144.4512  159.2811 C   0  0  0  0  0  0  0  0  0  0  0  0
  152.5819  143.5535  160.2085 C   0  0  0  0  0  0  0  0  0  0  0  0
  152.5536  142.1651  159.9658 C   0  0  0  0  0  0  0  0  0  0  0  0
  153.2719  141.1114  161.1333 Cl  0  0  0  0  0  0  0  0  0  0  0  0
  147.8924  137.4749  157.3563 C   0  0  0  0  0  0  0  0  0  0  0  0
  147.1664  137.9342  156.4724 O   0  0  0  0  0  0  0  0  0  0  0  0
  147.3778  137.0355  158.6635 C   0  0  0  0  0  0  0  0  0  0  0  0
  145.8793  137.1775  158.9000 C   0  0  0  0  0  0  0  0  0  0  0  0
  147.3530  136.8551  161.5232 H   0  0  0  0  0  0  0  0  0  0  0  0
  148.6446  135.6555  161.5290 H   0  0  0  0  0  0  0  0  0  0  0  0
  147.0700  135.2376  160.8576 H   0  0  0  0  0  0  0  0  0  0  0  0
  151.1308  136.7323  157.9107 H   0  0  0  0  0  0  0  0  0  0  0  0
  150.5258  136.9000  155.5936 H   0  0  0  0  0  0  0  0  0  0  0  0
  149.1754  137.8455  155.1014 H   0  0  0  0  0  0  0  0  0  0  0  0
  150.2518  139.7178  156.7359 H   0  0  0  0  0  0  0  0  0  0  0  0
  150.9741  138.8730  154.1605 H   0  0  0  0  0  0  0  0  0  0  0  0
  152.0958  137.8718  157.3461 H   0  0  0  0  0  0  0  0  0  0  0  0
  152.8201  138.3704  155.8273 H   0  0  0  0  0  0  0  0  0  0  0  0
  150.8452  139.9369  158.2556 H   0  0  0  0  0  0  0  0  0  0  0  0
  152.1738  139.5511  159.3041 H   0  0  0  0  0  0  0  0  0  0  0  0
  150.9388  142.2088  156.9485 H   0  0  0  0  0  0  0  0  0  0  0  0
  150.9972  144.6487  157.3887 H   0  0  0  0  0  0  0  0  0  0  0  0
  152.0460  145.5138  159.4730 H   0  0  0  0  0  0  0  0  0  0  0  0
  153.0385  143.9340  161.1106 H   0  0  0  0  0  0  0  0  0  0  0  0
  145.3268  136.5725  158.1805 H   0  0  0  0  0  0  0  0  0  0  0  0
  145.5749  138.2170  158.7728 H   0  0  0  0  0  0  0  0  0  0  0  0
  145.5703  136.8673  159.8968 H   0  0  0  0  0  0  0  0  0  0  0  0
  1  2  1  0  0  0  0
  1 23  1  0  0  0  0
  1 24  1  0  0  0  0
  1 25  1  0  0  0  0
  2 21  2  0  0  0  0
  2  3  1  0  0  0  0
  3  4  2  0  0  0  0
  4  5  1  0  0  0  0
  4 26  1  0  0  0  0
  5  6  1  0  0  0  0
  5 19  1  0  0  0  0
  6  7  1  0  0  0  0
  6 27  1  0  0  0  0
  6 28  1  0  0  0  0
  7  8  1  0  0  0  0
  7  9  1  0  0  0  0
  7 29  1  0  0  0  0
  8 30  1  0  0  0  0
  9 10  1  0  0  0  0
  9 31  1  0  0  0  0
  9 32  1  0  0  0  0
 10 11  1  0  0  0  0
 11 12  1  0  0  0  0
 11 33  1  0  0  0  0
 11 34  1  0  0  0  0
 12 17  1  0  0  0  0
 12 13  2  0  0  0  0
 13 14  1  0  0  0  0
 13 35  1  0  0  0  0
 14 15  2  0  0  0  0
 14 36  1  0  0  0  0
 15 16  1  0  0  0  0
 15 37  1  0  0  0  0
 16 17  2  0  0  0  0
 16 38  1  0  0  0  0
 17 18  1  0  0  0  0
 19 20  2  0  0  0  0
 19 21  1  0  0  0  0
 21 22  1  0  0  0  0
 22 39  1  0  0  0  0
 22 40  1  0  0  0  0
 22 41  1  0  0  0  0
M  END
> <s_m_source_file>
AV-unprocessed.smi

> <i_m_source_file_index>
2269

> <i_lp_mmshare_version>
43012

> <i_f3d_flags>
0

> <s_epik_input>
W0NIM11jMW5bY0hdbihjKD1PKWMxW0NIM10pW0NIMl1bQ0BIXShbT0hdKVtDSDJdT1tDSDJdYzJbY0hdW2NIXVtjSF1bY0hdYzJDbA==

> <s_epik_cmdline>
J2VwaWtfcHl0aG9uJywgJy1waCcsICc3LjAnLCAnLXRuJywgJzgnLCAnLW1hJywgJzIwMCcsICctbWV0YWxfYmluZGluZycsICctaW1hZScsICc8aW5maWxlLm1hZT4nLCAnLW9tYWUnLCAnPG91dGZpbGUubWFlPic=

> <r_lp_tautomer_probability>
1

> <r_epik_Ionization_Penalty>
5.36022e-05

> <r_epik_Ionization_Penalty_Charging>
1.17753e-07

> <r_epik_Ionization_Penalty_Neutral>
5.34845e-05

> <r_epik_State_Penalty>
-0

> <r_epik_Charging_Adjusted_Penalty>
1.17753e-07

> <i_epik_Tot_Q>
0

> <i_epik_Tot_abs_Q>
0

> <r_epik_Metal_State_Penalty>
-0

> <b_epik_Metal_Only>
0

> <s_lp_Force_Field>
OPLS_2005

> <r_lp_Energy>
24.1822

> <b_lp_Chiralities_Consistent>
1

> <s_lp_Variant>
AV-unprocessed.smi:2269-1

> <Gold.Version>
5.8.1

> <Gold.Id.Protein>
6NUR|6NUR_protein|mol2

> <Gold.PLP.Fitness>
47.3364

> <Gold.PLP.PLP>
-39.9394

> <Gold.PLP.part.hbond>
-2.9731

> <Gold.PLP.part.metal>
0.0000

> <Gold.PLP.part.buried>
-4.8569

> <Gold.PLP.part.nonpolar>
-31.7506

> <Gold.PLP.part.repulsive>
0.0000

> <Gold.PLP.ligand.clash>
0.0000

> <Gold.PLP.ligand.torsion>
0.8688

> <Gold.PLP.Chemscore.Hbond>
3.0000

> <Gold.PLP.Chemscore.CHOScore>
0.0000

> <Gold.PLP.Chemscore.Metal>
0.0000

> <Gold.Chemscore.Hbonds>
donor molecule, donor type, donor heavy atom, donor atom, acceptor molecule, acceptor atom, score
      P1  H  6896  6909       L1     3  1.00
      P1  H  7989  7998       L1     8  0.55
      P1  H  7997  8008       L1    10  1.00

> <Gold.PLP.Chemscore.Internal.Correction>
0.1346

> <Gold.Rescore>
     Score         DG    S(hbond)    S(metal)    S(lipo)     H(rot)  DE(clash)    DE(int)     intcor
     19.71     -20.88       2.62        0.00     111.73       2.52       0.06       1.11       ----

> <Gold.Chemscore.Fitness>
19.7130

> <Gold.Chemscore.DG>
-20.8760

> <Gold.Chemscore.ZeroCoef>
-5.4800

> <Gold.Chemscore.Hbond>
2.6241

> <Gold.Chemscore.Metal>
0.0000

> <Gold.Chemscore.Lipo>
111.7330

> <Gold.Chemscore.Internal_Hbond>
0.0000

> <Gold.Chemscore.DEClash>
0.0575

> <Gold.Chemscore.DEInternal>
1.1056

> <Gold.Chemscore.Rot>
2.5162

> <Gold.Chemscore.Internal.Correction>
   9.000000E+99

> <Gold.Chemscore.Hbonds>
donor molecule, donor type, donor heavy atom, donor atom, acceptor molecule, acceptor atom, score
      P1  H  6896  6909       L1     3  0.24
      P1  H  7989  7998       L1     8  0.03
      P1  H  7997  8008       L1    10  0.55

> <Gold.Chemscore.Hbond.Weighted>
-8.7647

> <Gold.Chemscore.Metal.Weighted>
-0.0000

> <Gold.Chemscore.Lipo.Weighted>
-13.0728

> <Gold.Chemscore.Internal_Hbond.Weighted>
0.0000

> <Gold.Chemscore.DEClash.Weighted>
0.0575

> <Gold.Chemscore.DEInternal.Weighted>
1.1056

> <Gold.Chemscore.Rot.Weighted>
6.4414

> <Gold.Chemscore.Internal.Correction.Weighted>
   9.000000E+99

> <Gold.Protein.RotatedTorsions>
[ 6907 6896 6895 6894 ] final   80.32 input  -60.11 | X-H torsion
[ 7974 7965 7964 7962 ] final  175.88 input  175.53 | X-H torsion
[ 8008 7997 7996 7995 ] final  -64.13 input   59.86 | X-H torsion
[ 10167 10162 10161 10158 ] final -132.50 input  -65.29 | X-H torsion
[ 10718 10713 10712 10709 ] final  148.80 input   66.30 | X-H torsion
[ 10763 10752 10751 10750 ] final -175.41 input  -60.55 | X-H torsion
[ 11005 11000 10999 10996 ] final  103.25 input  -57.11 | X-H torsion

> <Gold.Protein.ActiveResidues>
 VAL166  LYS551  ARG553  GLY616  TRP617  ASP618  TYR619  PRO620  LYS621  CYS622 
 ASP623  PHE694  ASN695  SER759  ASP760  ASP761  ALA762  ILE779  LEU786  VAL792 
 PHE793  MET794  SER795  GLU796  ALA797  LYS798  CYS799  TRP800  GLU811  SER814 

> <Gold.Protein.RotatedAtoms>
  152.5230  134.3376  159.9205 H   0  0  0  0  0  0  0  0  0  0  0  0  # atno 6907 bound_to 6896
  151.3326  133.3988  159.2671 H   0  0  0  0  0  0  0  0  0  0  0  0  # atno 6908 bound_to 6896
  150.9868  134.9230  159.7934 H   0  0  0  0  0  0  0  0  0  0  0  0  # atno 6909 bound_to 6896
  144.7194  140.0013  143.6440 H   0  0  0  0  0  0  0  0  0  0  0  0  # atno 7974 bound_to 7965
  154.4594  140.0960  156.6850 H   0  0  0  0  0  0  0  0  0  0  0  0  # atno 8008 bound_to 7997
  155.5040  140.3474  155.4358 H   0  0  0  0  0  0  0  0  0  0  0  0  # atno 8009 bound_to 7997
  156.0841  140.1380  156.9664 H   0  0  0  0  0  0  0  0  0  0  0  0  # atno 8010 bound_to 7997
  139.9079  143.6529  152.2581 H   0  0  0  0  0  0  0  0  0  0  0  0  # atno 10167 bound_to 10162
  157.3041  131.0876  151.1367 H   0  0  0  0  0  0  0  0  0  0  0  0  # atno 10718 bound_to 10713
  154.5847  135.2839  155.0697 H   0  0  0  0  0  0  0  0  0  0  0  0  # atno 10763 bound_to 10752
  154.2020  135.6423  153.5093 H   0  0  0  0  0  0  0  0  0  0  0  0  # atno 10764 bound_to 10752
  153.0100  135.5471  154.6513 H   0  0  0  0  0  0  0  0  0  0  0  0  # atno 10765 bound_to 10752
  139.8782  134.9256  156.5182 H   0  0  0  0  0  0  0  0  0  0  0  0  # atno 11005 bound_to 11000
  146.0333  139.3355  143.0742 LP  0  0  0  0  0  0  0  0  0  0  0  0  # atno 17320 bound_to 7965
  145.8425  140.9572  143.0791 LP  0  0  0  0  0  0  0  0  0  0  0  0  # atno 17321 bound_to 7965
  139.6968  144.7640  151.1342 LP  0  0  0  0  0  0  0  0  0  0  0  0  # atno 17342 bound_to 10162
  140.7692  143.5512  150.9202 LP  0  0  0  0  0  0  0  0  0  0  0  0  # atno 17343 bound_to 10162
  157.2715  130.6706  149.6022 LP  0  0  0  0  0  0  0  0  0  0  0  0  # atno 17370 bound_to 10713
  155.9673  130.4477  150.5593 LP  0  0  0  0  0  0  0  0  0  0  0  0  # atno 17371 bound_to 10713
  140.8470  133.8161  155.9131 LP  0  0  0  0  0  0  0  0  0  0  0  0  # atno 17394 bound_to 11000
  140.9181  134.2176  157.4944 LP  0  0  0  0  0  0  0  0  0  0  0  0  # atno 17395 bound_to 11000

$$$$
