AV-unprocessed.smi:2574|AV-procd|sdf|10114|dock6
  -GOLD-   2272014133D 1   1.00000     0.00000
 Structure written by MMmdl.
 38 40  0  0  0  0  0  0  0  0  1 V2000
  153.9069  138.2291  157.9081 O   0  0  0  0  0  0  0  0  0  0  0  0
  154.1530  137.9058  159.0705 C   0  0  0  0  0  0  0  0  0  0  0  0
  154.7697  136.6228  159.4410 C   0  0  0  0  0  0  0  0  0  0  0  0
  155.1177  135.6459  158.3208 C   0  0  0  0  0  0  0  0  0  0  0  0
  155.8765  134.6408  158.7605 F   0  0  0  0  0  0  0  0  0  0  0  0
  154.0112  135.1199  157.7941 F   0  0  0  0  0  0  0  0  0  0  0  0
  155.7867  136.2683  157.3498 F   0  0  0  0  0  0  0  0  0  0  0  0
  155.0070  136.3335  160.7437 C   0  0  0  0  0  0  0  0  0  0  0  0
  154.6561  137.2837  161.7799 C   0  0  0  0  0  0  0  0  0  0  0  0
  154.8815  137.0251  163.2422 C   0  0  0  0  0  0  0  0  0  0  0  0
  154.3419  135.7953  163.9363 C   0  0  0  0  0  0  0  0  0  0  0  0
  153.7647  137.1559  164.2515 C   0  0  0  0  0  0  0  0  0  0  0  0
  154.1211  138.4111  161.4521 N   0  0  0  0  0  0  0  0  0  0  0  0
  153.8711  138.7210  160.1291 N   0  0  0  0  0  0  0  0  0  0  0  0
  153.2366  140.0313  159.9359 C   0  0  0  0  0  0  0  0  0  0  0  0
  154.1582  141.1910  160.3725 C   0  0  2  0  0  0  0  0  0  0  0  0
  154.6154  140.9482  161.6887 O   0  0  0  0  0  0  0  0  0  0  0  0
  153.4332  142.5254  160.2774 C   0  0  0  0  0  0  0  0  0  0  0  0
  153.1069  143.0596  159.0122 C   0  0  0  0  0  0  0  0  0  0  0  0
  152.4257  144.2884  158.9141 C   0  0  0  0  0  0  0  0  0  0  0  0
  152.0652  144.9898  160.0805 C   0  0  0  0  0  0  0  0  0  0  0  0
  152.3844  144.4605  161.3456 C   0  0  0  0  0  0  0  0  0  0  0  0
  153.0649  143.2313  161.4444 C   0  0  0  0  0  0  0  0  0  0  0  0
  155.4588  135.3972  161.0350 H   0  0  0  0  0  0  0  0  0  0  0  0
  155.8681  137.3695  163.5468 H   0  0  0  0  0  0  0  0  0  0  0  0
  153.7165  135.1108  163.3661 H   0  0  0  0  0  0  0  0  0  0  0  0
  154.9719  135.3299  164.6915 H   0  0  0  0  0  0  0  0  0  0  0  0
  154.0090  137.5942  165.2169 H   0  0  0  0  0  0  0  0  0  0  0  0
  152.7643  137.3726  163.8811 H   0  0  0  0  0  0  0  0  0  0  0  0
  153.0260  140.1307  158.8691 H   0  0  0  0  0  0  0  0  0  0  0  0
  152.2597  140.1021  160.4177 H   0  0  0  0  0  0  0  0  0  0  0  0
  155.0337  141.2327  159.7230 H   0  0  0  0  0  0  0  0  0  0  0  0
  155.2820  141.5848  161.8967 H   0  0  0  0  0  0  0  0  0  0  0  0
  153.3755  142.5278  158.1111 H   0  0  0  0  0  0  0  0  0  0  0  0
  152.1782  144.6920  157.9434 H   0  0  0  0  0  0  0  0  0  0  0  0
  151.5417  145.9313  160.0050 H   0  0  0  0  0  0  0  0  0  0  0  0
  152.1054  144.9966  162.2407 H   0  0  0  0  0  0  0  0  0  0  0  0
  153.3008  142.8304  162.4197 H   0  0  0  0  0  0  0  0  0  0  0  0
  1  2  2  0  0  0  0
  2 14  1  0  0  0  0
  2  3  1  0  0  0  0
  3  4  1  0  0  0  0
  3  8  2  0  0  0  0
  4  5  1  0  0  0  0
  4  6  1  0  0  0  0
  4  7  1  0  0  0  0
  8  9  1  0  0  0  0
  8 24  1  0  0  0  0
  9 10  1  0  0  0  0
  9 13  2  0  0  0  0
 10 12  1  0  0  0  0
 10 11  1  0  0  0  0
 10 25  1  0  0  0  0
 11 12  1  0  0  0  0
 11 26  1  0  0  0  0
 11 27  1  0  0  0  0
 12 28  1  0  0  0  0
 12 29  1  0  0  0  0
 13 14  1  0  0  0  0
 14 15  1  0  0  0  0
 15 16  1  0  0  0  0
 15 30  1  0  0  0  0
 15 31  1  0  0  0  0
 16 17  1  0  0  0  0
 16 18  1  0  0  0  0
 16 32  1  0  0  0  0
 17 33  1  0  0  0  0
 18 23  1  0  0  0  0
 18 19  2  0  0  0  0
 19 20  1  0  0  0  0
 19 34  1  0  0  0  0
 20 21  2  0  0  0  0
 20 35  1  0  0  0  0
 21 22  1  0  0  0  0
 21 36  1  0  0  0  0
 22 23  2  0  0  0  0
 22 37  1  0  0  0  0
 23 38  1  0  0  0  0
M  END
> <s_m_source_file>
AV-unprocessed.smi

> <i_m_source_file_index>
2574

> <i_lp_mmshare_version>
43012

> <i_f3d_flags>
0

> <s_epik_input>
Tz1jMWMoQyhGKShGKUYpW2NIXWMoW0NIXTJbQ0gyXVtDSDJdMilubjFbQ0gyXVtDQEhdKFtPSF0pYzNbY0hdW2NIXVtjSF1bY0hdW2NIXTM=

> <s_epik_cmdline>
J2VwaWtfcHl0aG9uJywgJy1waCcsICc3LjAnLCAnLXRuJywgJzgnLCAnLW1hJywgJzIwMCcsICctbWV0YWxfYmluZGluZycsICctaW1hZScsICc8aW5maWxlLm1hZT4nLCAnLW9tYWUnLCAnPG91dGZpbGUubWFlPic=

> <r_lp_tautomer_probability>
1

> <r_epik_Ionization_Penalty>
7.26807e-08

> <r_epik_Ionization_Penalty_Charging>
9.677e-10

> <r_epik_Ionization_Penalty_Neutral>
7.1713e-08

> <r_epik_State_Penalty>
-0

> <r_epik_Charging_Adjusted_Penalty>
9.677e-10

> <i_epik_Tot_Q>
0

> <i_epik_Tot_abs_Q>
0

> <r_epik_Metal_State_Penalty>
-0

> <b_epik_Metal_Only>
0

> <s_lp_Force_Field>
OPLS_2005

> <r_lp_Energy>
33.7887

> <b_lp_Chiralities_Consistent>
1

> <s_lp_Variant>
AV-unprocessed.smi:2574-1

> <Gold.Version>
5.8.1

> <Gold.Id.Protein>
6NUR|6NUR_protein|mol2

> <Gold.PLP.Fitness>
50.0801

> <Gold.PLP.PLP>
-47.8442

> <Gold.PLP.part.hbond>
-1.4769

> <Gold.PLP.part.metal>
0.0000

> <Gold.PLP.part.buried>
-5.6258

> <Gold.PLP.part.nonpolar>
-39.8303

> <Gold.PLP.part.repulsive>
0.0000

> <Gold.PLP.ligand.clash>
0.0526

> <Gold.PLP.ligand.torsion>
0.6742

> <Gold.PLP.Chemscore.Hbond>
1.0000

> <Gold.PLP.Chemscore.CHOScore>
0.0000

> <Gold.PLP.Chemscore.Metal>
0.0000

> <Gold.Chemscore.Hbonds>
donor molecule, donor type, donor heavy atom, donor atom, acceptor molecule, acceptor atom, score
      P1  H  7997  8010       L1     1  0.81

> <Gold.PLP.Chemscore.Internal.Correction>
0.6368

> <Gold.Rescore>
     Score         DG    S(hbond)    S(metal)    S(lipo)     H(rot)  DE(clash)    DE(int)     intcor
     16.90     -18.77       0.97        0.00     131.63       2.09       0.01       1.86       ----

> <Gold.Chemscore.Fitness>
16.8952

> <Gold.Chemscore.DG>
-18.7656

> <Gold.Chemscore.ZeroCoef>
-5.4800

> <Gold.Chemscore.Hbond>
0.9692

> <Gold.Chemscore.Metal>
0.0000

> <Gold.Chemscore.Lipo>
131.6282

> <Gold.Chemscore.Internal_Hbond>
0.0000

> <Gold.Chemscore.DEClash>
0.0095

> <Gold.Chemscore.DEInternal>
1.8610

> <Gold.Chemscore.Rot>
2.0906

> <Gold.Chemscore.Internal.Correction>
   9.000000E+99

> <Gold.Chemscore.Hbonds>
donor molecule, donor type, donor heavy atom, donor atom, acceptor molecule, acceptor atom, score
      P1  H  7997  8010       L1     1  0.72

> <Gold.Chemscore.Hbond.Weighted>
-3.2371

> <Gold.Chemscore.Metal.Weighted>
-0.0000

> <Gold.Chemscore.Lipo.Weighted>
-15.4005

> <Gold.Chemscore.Internal_Hbond.Weighted>
0.0000

> <Gold.Chemscore.DEClash.Weighted>
0.0095

> <Gold.Chemscore.DEInternal.Weighted>
1.8610

> <Gold.Chemscore.Rot.Weighted>
5.3520

> <Gold.Chemscore.Internal.Correction.Weighted>
   9.000000E+99

> <Gold.Protein.RotatedTorsions>
[ 6907 6896 6895 6894 ] final  125.29 input  -60.11 | X-H torsion
[ 7974 7965 7964 7962 ] final -164.01 input  175.53 | X-H torsion
[ 8008 7997 7996 7995 ] final   18.76 input   59.86 | X-H torsion
[ 10167 10162 10161 10158 ] final   20.10 input  -65.29 | X-H torsion
[ 10718 10713 10712 10709 ] final  -19.25 input   66.30 | X-H torsion
[ 10763 10752 10751 10750 ] final -148.60 input  -60.55 | X-H torsion
[ 11005 11000 10999 10996 ] final -121.75 input  -57.11 | X-H torsion

> <Gold.Protein.ActiveResidues>
 VAL166  LYS551  ARG553  GLY616  TRP617  ASP618  TYR619  PRO620  LYS621  CYS622 
 ASP623  PHE694  ASN695  SER759  ASP760  ASP761  ALA762  ILE779  LEU786  VAL792 
 PHE793  MET794  SER795  GLU796  ALA797  LYS798  CYS799  TRP800  GLU811  SER814 

> <Gold.Protein.RotatedAtoms>
  152.4004  133.6810  159.6311 H   0  0  0  0  0  0  0  0  0  0  0  0  # atno 6907 bound_to 6896
  150.7896  133.8800  159.3292 H   0  0  0  0  0  0  0  0  0  0  0  0  # atno 6908 bound_to 6896
  151.6567  135.0996  160.0223 H   0  0  0  0  0  0  0  0  0  0  0  0  # atno 6909 bound_to 6896
  144.7309  140.3024  143.6202 H   0  0  0  0  0  0  0  0  0  0  0  0  # atno 7974 bound_to 7965
  154.9108  140.3014  155.5267 H   0  0  0  0  0  0  0  0  0  0  0  0  # atno 8008 bound_to 7997
  156.3015  140.2389  156.4082 H   0  0  0  0  0  0  0  0  0  0  0  0  # atno 8009 bound_to 7997
  154.8428  140.0413  157.1541 H   0  0  0  0  0  0  0  0  0  0  0  0  # atno 8010 bound_to 7997
  140.5529  143.9476  150.6590 H   0  0  0  0  0  0  0  0  0  0  0  0  # atno 10167 bound_to 10162
  156.5482  130.4695  149.6465 H   0  0  0  0  0  0  0  0  0  0  0  0  # atno 10718 bound_to 10713
  154.8224  135.3330  154.6999 H   0  0  0  0  0  0  0  0  0  0  0  0  # atno 10763 bound_to 10752
  153.7630  135.6931  153.4926 H   0  0  0  0  0  0  0  0  0  0  0  0  # atno 10764 bound_to 10752
  153.2097  135.4486  155.0314 H   0  0  0  0  0  0  0  0  0  0  0  0  # atno 10765 bound_to 10752
  141.0047  134.0352  157.3493 H   0  0  0  0  0  0  0  0  0  0  0  0  # atno 11005 bound_to 11000
  145.7747  139.1870  143.2192 LP  0  0  0  0  0  0  0  0  0  0  0  0  # atno 17320 bound_to 7965
  146.0882  140.7686  142.9608 LP  0  0  0  0  0  0  0  0  0  0  0  0  # atno 17321 bound_to 7965
  140.2907  143.3326  152.1065 LP  0  0  0  0  0  0  0  0  0  0  0  0  # atno 17342 bound_to 10162
  139.5035  144.6757  151.6134 LP  0  0  0  0  0  0  0  0  0  0  0  0  # atno 17343 bound_to 10162
  156.2909  130.7123  151.1972 LP  0  0  0  0  0  0  0  0  0  0  0  0  # atno 17370 bound_to 10713
  157.7392  131.0531  150.5243 LP  0  0  0  0  0  0  0  0  0  0  0  0  # atno 17371 bound_to 10713
  139.9057  135.0178  156.7473 LP  0  0  0  0  0  0  0  0  0  0  0  0  # atno 17394 bound_to 11000
  140.6833  133.9455  155.7923 LP  0  0  0  0  0  0  0  0  0  0  0  0  # atno 17395 bound_to 11000

$$$$
