AV-unprocessed.smi:230|AV-procd|sdf|1763|dock4
  -GOLD-   2262020293D 1   1.00000     0.00000
 Structure written by MMmdl.
 56 59  0  0  0  0  0  0  0  0  1 V2000
  152.7203  144.2163  158.5657 C   0  0  0  0  0  0  0  0  0  0  0  0
  151.5409  143.6368  157.7727 C   0  0  0  0  0  0  0  0  0  0  0  0
  151.8196  142.2460  157.1443 C   0  0  2  0  0  0  0  0  0  0  0  0
  150.8503  141.9694  155.9725 C   0  0  0  0  0  0  0  0  0  0  0  0
  151.0306  140.6574  155.4454 O   0  0  0  0  0  0  0  0  0  0  0  0
  150.8724  139.5960  156.3885 C   0  0  0  0  0  0  0  0  0  0  0  0
  149.4121  139.4859  156.8773 C   0  0  0  0  0  0  0  0  0  0  0  0
  151.2518  138.3132  155.6325 C   0  0  0  0  0  0  0  0  0  0  0  0
  151.8574  139.8286  157.5508 C   0  0  0  0  0  0  0  0  0  0  0  0
  151.7014  141.1605  158.1255 N   0  0  0  0  0  0  0  0  0  0  0  0
  152.4379  141.2647  159.2556 C   0  0  0  0  0  0  0  0  0  0  0  0
  152.0222  142.0627  160.2752 N   0  0  0  0  0  0  0  0  0  0  0  0
  152.7621  142.1676  161.3834 C   0  0  0  0  0  0  0  0  0  0  0  0
  153.9252  141.5781  161.6705 N   0  0  0  0  0  0  0  0  0  0  0  0
  154.3450  140.7834  160.6440 C   0  0  0  0  0  0  0  0  0  0  0  0
  153.6693  140.5766  159.4098 C   0  0  0  0  0  0  0  0  0  0  0  0
  154.3956  139.7082  158.6055 N   0  0  0  0  0  0  0  0  0  0  0  0
  155.4418  139.4118  159.3279 C   0  0  0  0  0  0  0  0  0  0  0  0
  155.4885  140.0075  160.5688 N   0  0  0  0  0  0  0  0  0  0  0  0
  156.5298  139.8501  161.5726 C   0  0  0  0  0  0  0  0  0  0  0  0
  156.2997  138.6568  162.5331 C   0  0  0  0  0  0  0  0  0  0  0  0
  157.2351  137.6468  162.1951 O   0  0  0  0  0  0  0  0  0  0  0  0
  156.5516  139.0846  163.9930 C   0  0  0  0  0  0  0  0  0  0  0  0
  156.1721  137.9802  164.9960 C   0  0  0  0  0  0  0  0  0  0  0  0
  154.8195  137.5870  164.7983 O   0  0  0  0  0  0  0  0  0  0  0  0
  154.5937  137.0214  163.5130 C   0  0  0  0  0  0  0  0  0  0  0  0
  154.8781  138.0643  162.4174 C   0  0  0  0  0  0  0  0  0  0  0  0
  152.4303  145.1426  159.0620 H   0  0  0  0  0  0  0  0  0  0  0  0
  153.5680  144.4476  157.9213 H   0  0  0  0  0  0  0  0  0  0  0  0
  153.0572  143.5204  159.3345 H   0  0  0  0  0  0  0  0  0  0  0  0
  150.6951  143.5816  158.4577 H   0  0  0  0  0  0  0  0  0  0  0  0
  151.2474  144.3411  156.9933 H   0  0  0  0  0  0  0  0  0  0  0  0
  152.8381  142.2340  156.7525 H   0  0  0  0  0  0  0  0  0  0  0  0
  149.8140  142.1179  156.2760 H   0  0  0  0  0  0  0  0  0  0  0  0
  151.0310  142.6694  155.1575 H   0  0  0  0  0  0  0  0  0  0  0  0
  149.2783  138.6062  157.5075 H   0  0  0  0  0  0  0  0  0  0  0  0
  148.7226  139.3970  156.0372 H   0  0  0  0  0  0  0  0  0  0  0  0
  149.1030  140.3470  157.4693 H   0  0  0  0  0  0  0  0  0  0  0  0
  151.1901  137.4376  156.2796 H   0  0  0  0  0  0  0  0  0  0  0  0
  152.2706  138.3678  155.2470 H   0  0  0  0  0  0  0  0  0  0  0  0
  150.5887  138.1453  154.7832 H   0  0  0  0  0  0  0  0  0  0  0  0
  151.7112  139.0659  158.3178 H   0  0  0  0  0  0  0  0  0  0  0  0
  152.8830  139.7226  157.1926 H   0  0  0  0  0  0  0  0  0  0  0  0
  152.3652  142.8171  162.1498 H   0  0  0  0  0  0  0  0  0  0  0  0
  156.2118  138.7403  158.9764 H   0  0  0  0  0  0  0  0  0  0  0  0
  157.4861  139.7446  161.0583 H   0  0  0  0  0  0  0  0  0  0  0  0
  156.5939  140.7791  162.1404 H   0  0  0  0  0  0  0  0  0  0  0  0
  156.8710  137.1210  161.4995 H   0  0  0  0  0  0  0  0  0  0  0  0
  157.5935  139.3758  164.1329 H   0  0  0  0  0  0  0  0  0  0  0  0
  155.9553  139.9703  164.2165 H   0  0  0  0  0  0  0  0  0  0  0  0
  156.8318  137.1165  164.9003 H   0  0  0  0  0  0  0  0  0  0  0  0
  156.2841  138.3492  166.0157 H   0  0  0  0  0  0  0  0  0  0  0  0
  155.2122  136.1324  163.3801 H   0  0  0  0  0  0  0  0  0  0  0  0
  153.5561  136.6931  163.4528 H   0  0  0  0  0  0  0  0  0  0  0  0
  154.1462  138.8681  162.5066 H   0  0  0  0  0  0  0  0  0  0  0  0
  154.7210  137.6148  161.4362 H   0  0  0  0  0  0  0  0  0  0  0  0
  1  2  1  0  0  0  0
  1 28  1  0  0  0  0
  1 29  1  0  0  0  0
  1 30  1  0  0  0  0
  2  3  1  0  0  0  0
  2 31  1  0  0  0  0
  2 32  1  0  0  0  0
  3 10  1  0  0  0  0
  3  4  1  0  0  0  0
  3 33  1  0  0  0  0
  4  5  1  0  0  0  0
  4 34  1  0  0  0  0
  4 35  1  0  0  0  0
  5  6  1  0  0  0  0
  6  7  1  0  0  0  0
  6  8  1  0  0  0  0
  6  9  1  0  0  0  0
  7 36  1  0  0  0  0
  7 37  1  0  0  0  0
  7 38  1  0  0  0  0
  8 39  1  0  0  0  0
  8 40  1  0  0  0  0
  8 41  1  0  0  0  0
  9 10  1  0  0  0  0
  9 42  1  0  0  0  0
  9 43  1  0  0  0  0
 10 11  1  0  0  0  0
 11 16  1  0  0  0  0
 11 12  2  0  0  0  0
 12 13  1  0  0  0  0
 13 14  2  0  0  0  0
 13 44  1  0  0  0  0
 14 15  1  0  0  0  0
 15 19  1  0  0  0  0
 15 16  2  0  0  0  0
 16 17  1  0  0  0  0
 17 18  2  0  0  0  0
 18 19  1  0  0  0  0
 18 45  1  0  0  0  0
 19 20  1  0  0  0  0
 20 21  1  0  0  0  0
 20 46  1  0  0  0  0
 20 47  1  0  0  0  0
 21 27  1  0  0  0  0
 21 22  1  0  0  0  0
 21 23  1  0  0  0  0
 22 48  1  0  0  0  0
 23 24  1  0  0  0  0
 23 49  1  0  0  0  0
 23 50  1  0  0  0  0
 24 25  1  0  0  0  0
 24 51  1  0  0  0  0
 24 52  1  0  0  0  0
 25 26  1  0  0  0  0
 26 27  1  0  0  0  0
 26 53  1  0  0  0  0
 26 54  1  0  0  0  0
 27 55  1  0  0  0  0
 27 56  1  0  0  0  0
M  END
> <s_m_source_file>
AV-unprocessed.smi

> <i_m_source_file_index>
230

> <i_lp_mmshare_version>
43012

> <i_f3d_flags>
0

> <s_epik_input>
W0NIM11DMShbQ0gzXSlPW0NIMl1bQ0BASF0oW0NIMl1bQ0gzXSlOKFtDSDJdMSljKG5bY0hdbjIpYyhjMjMpbltjSF1uM1tDSDJdQzQoW09IXSlbQ0gyXVtDSDJdT1tDSDJdW0NIMl00

> <s_epik_cmdline>
J2VwaWtfcHl0aG9uJywgJy1waCcsICc3LjAnLCAnLXRuJywgJzgnLCAnLW1hJywgJzIwMCcsICctbWV0YWxfYmluZGluZycsICctaW1hZScsICc8aW5maWxlLm1hZT4nLCAnLW9tYWUnLCAnPG91dGZpbGUubWFlPic=

> <r_lp_tautomer_probability>
1

> <r_epik_Ionization_Penalty>
0.000120535

> <r_epik_Ionization_Penalty_Charging>
0

> <r_epik_Ionization_Penalty_Neutral>
0.000120535

> <r_epik_State_Penalty>
-0

> <r_epik_Charging_Adjusted_Penalty>
0

> <i_epik_Tot_Q>
0

> <i_epik_Tot_abs_Q>
0

> <r_epik_Metal_State_Penalty>
-0

> <b_epik_Metal_Only>
0

> <s_lp_Force_Field>
OPLS_2005

> <r_lp_Energy>
33.8878

> <b_lp_Chiralities_Consistent>
1

> <s_lp_Variant>
AV-unprocessed.smi:230-1

> <Gold.Version>
5.8.1

> <Gold.Id.Protein>
6NUR|6NUR_protein|mol2

> <Gold.PLP.Fitness>
40.6910

> <Gold.PLP.PLP>
-41.1373

> <Gold.PLP.part.hbond>
-2.7509

> <Gold.PLP.part.metal>
0.0000

> <Gold.PLP.part.buried>
-5.9865

> <Gold.PLP.part.nonpolar>
-31.2485

> <Gold.PLP.part.repulsive>
0.1563

> <Gold.PLP.ligand.clash>
1.7459

> <Gold.PLP.ligand.torsion>
2.2149

> <Gold.PLP.Chemscore.Hbond>
1.8564

> <Gold.PLP.Chemscore.CHOScore>
0.0000

> <Gold.PLP.Chemscore.Metal>
0.0000

> <Gold.Chemscore.Hbonds>
donor molecule, donor type, donor heavy atom, donor atom, acceptor molecule, acceptor atom, score
      P1  H  7989  7998       L1     5  0.84
      P1  H  7997  8010       L1    17  0.84

> <Gold.PLP.Chemscore.Internal.Correction>
0.1601

> <Gold.Rescore>
     Score         DG    S(hbond)    S(metal)    S(lipo)     H(rot)  DE(clash)    DE(int)     intcor
      9.36     -15.72       1.12        0.00     104.06       2.21       1.27       5.09       ----

> <Gold.Chemscore.Fitness>
9.3609

> <Gold.Chemscore.DG>
-15.7219

> <Gold.Chemscore.ZeroCoef>
-5.4800

> <Gold.Chemscore.Hbond>
1.1157

> <Gold.Chemscore.Metal>
0.0000

> <Gold.Chemscore.Lipo>
104.0582

> <Gold.Chemscore.Internal_Hbond>
0.0000

> <Gold.Chemscore.DEClash>
1.2744

> <Gold.Chemscore.DEInternal>
5.0866

> <Gold.Chemscore.Rot>
2.2107

> <Gold.Chemscore.Internal.Correction>
   9.000000E+99

> <Gold.Chemscore.Hbonds>
donor molecule, donor type, donor heavy atom, donor atom, acceptor molecule, acceptor atom, score
      P1  H  7989  7998       L1     5  0.43
      P1  H  7997  8010       L1    17  0.25

> <Gold.Chemscore.Hbond.Weighted>
-3.7266

> <Gold.Chemscore.Metal.Weighted>
-0.0000

> <Gold.Chemscore.Lipo.Weighted>
-12.1748

> <Gold.Chemscore.Internal_Hbond.Weighted>
0.0000

> <Gold.Chemscore.DEClash.Weighted>
1.2744

> <Gold.Chemscore.DEInternal.Weighted>
5.0866

> <Gold.Chemscore.Rot.Weighted>
5.6595

> <Gold.Chemscore.Internal.Correction.Weighted>
   9.000000E+99

> <Gold.Protein.RotatedTorsions>
[ 6907 6896 6895 6894 ] final -134.01 input  -60.11 | X-H torsion
[ 7974 7965 7964 7962 ] final -171.09 input  175.53 | X-H torsion
[ 8008 7997 7996 7995 ] final    4.27 input   59.86 | X-H torsion
[ 10167 10162 10161 10158 ] final  -94.70 input  -65.29 | X-H torsion
[ 10718 10713 10712 10709 ] final  -36.15 input   66.30 | X-H torsion
[ 10763 10752 10751 10750 ] final -106.33 input  -60.55 | X-H torsion
[ 11005 11000 10999 10996 ] final  -38.56 input  -57.11 | X-H torsion

> <Gold.Protein.ActiveResidues>
 VAL166  LYS551  ARG553  GLY616  TRP617  ASP618  TYR619  PRO620  LYS621  CYS622 
 ASP623  PHE694  ASN695  SER759  ASP760  ASP761  ALA762  ILE779  LEU786  VAL792 
 PHE793  MET794  SER795  GLU796  ALA797  LYS798  CYS799  TRP800  GLU811  SER814 

> <Gold.Protein.RotatedAtoms>
  150.9807  133.6248  159.2722 H   0  0  0  0  0  0  0  0  0  0  0  0  # atno 6907 bound_to 6896
  151.3504  135.0882  159.9411 H   0  0  0  0  0  0  0  0  0  0  0  0  # atno 6908 bound_to 6896
  152.5214  133.9401  159.7677 H   0  0  0  0  0  0  0  0  0  0  0  0  # atno 6909 bound_to 6896
  144.7161  140.1975  143.6342 H   0  0  0  0  0  0  0  0  0  0  0  0  # atno 7974 bound_to 7965
  154.7139  140.2698  155.6604 H   0  0  0  0  0  0  0  0  0  0  0  0  # atno 8008 bound_to 7997
  156.2803  140.2748  156.1713 H   0  0  0  0  0  0  0  0  0  0  0  0  # atno 8009 bound_to 7997
  155.0598  140.0371  157.2563 H   0  0  0  0  0  0  0  0  0  0  0  0  # atno 8010 bound_to 7997
  140.3118  143.3101  152.0141 H   0  0  0  0  0  0  0  0  0  0  0  0  # atno 10167 bound_to 10162
  156.3303  130.4278  149.7879 H   0  0  0  0  0  0  0  0  0  0  0  0  # atno 10718 bound_to 10713
  154.8005  135.4716  154.0265 H   0  0  0  0  0  0  0  0  0  0  0  0  # atno 10763 bound_to 10752
  153.1774  135.6835  153.8532 H   0  0  0  0  0  0  0  0  0  0  0  0  # atno 10764 bound_to 10752
  153.8093  135.3219  155.3376 H   0  0  0  0  0  0  0  0  0  0  0  0  # atno 10765 bound_to 10752
  141.0037  133.6942  156.2070 H   0  0  0  0  0  0  0  0  0  0  0  0  # atno 11005 bound_to 11000
  145.8711  139.2272  143.1660 LP  0  0  0  0  0  0  0  0  0  0  0  0  # atno 17320 bound_to 7965
  146.0084  140.8458  142.9983 LP  0  0  0  0  0  0  0  0  0  0  0  0  # atno 17321 bound_to 7965
  139.4892  144.6379  151.6938 LP  0  0  0  0  0  0  0  0  0  0  0  0  # atno 17342 bound_to 10162
  140.5562  144.0345  150.6148 LP  0  0  0  0  0  0  0  0  0  0  0  0  # atno 17343 bound_to 10162
  156.5154  130.8191  151.3184 LP  0  0  0  0  0  0  0  0  0  0  0  0  # atno 17370 bound_to 10713
  157.7429  130.9900  150.2551 LP  0  0  0  0  0  0  0  0  0  0  0  0  # atno 17371 bound_to 10713
  140.6848  134.4729  157.5589 LP  0  0  0  0  0  0  0  0  0  0  0  0  # atno 17394 bound_to 11000
  139.9052  134.8465  156.1735 LP  0  0  0  0  0  0  0  0  0  0  0  0  # atno 17395 bound_to 11000

$$$$
