AV-unprocessed.smi:1565|AV-procd|sdf|6302|dock8
  -GOLD-   22720 6503D 1   1.00000     0.00000
 Structure written by MMmdl.
 39 40  0  0  0  0  0  0  0  0  2 V2000
  152.3654  143.2376  161.4173 C   0  0  0  0  0  0  0  0  0  0  0  0
  153.2037  142.9947  160.1496 C   0  0  1  0  0  0  0  0  0  0  0  0
  153.8766  141.6086  160.1172 C   0  0  0  0  0  0  0  0  0  0  0  0
  152.9065  140.5619  159.8091 N   0  0  0  0  0  0  0  0  0  0  0  0
  153.3533  139.2424  160.0331 C   0  0  0  0  0  0  0  0  0  0  0  0
  154.0090  138.9136  161.2422 C   0  0  0  0  0  0  0  0  0  0  0  0
  154.4560  137.5936  161.4444 C   0  0  0  0  0  0  0  0  0  0  0  0
  154.2305  136.6266  160.4383 C   0  0  0  0  0  0  0  0  0  0  0  0
  154.7153  135.2078  160.5682 C   0  0  0  0  0  0  0  0  0  0  0  0
  154.4426  134.4173  159.6579 O   0  0  0  0  0  0  0  0  0  0  0  0
  155.3704  134.9866  161.7431 N   0  5  0  0  0  0  0  0  0  0  0  0
  154.9592  133.9959  162.7411 C   0  0  0  0  0  0  0  0  0  0  0  0
  154.7088  134.6516  164.1144 C   0  0  0  0  0  0  0  0  0  0  0  0
  155.8725  135.0675  164.6142 F   0  0  0  0  0  0  0  0  0  0  0  0
  153.9016  135.7067  163.9940 F   0  0  0  0  0  0  0  0  0  0  0  0
  154.1706  133.7836  164.9723 F   0  0  0  0  0  0  0  0  0  0  0  0
  153.5719  137.0528  159.2649 C   0  0  0  0  0  0  0  0  0  0  0  0
  153.1393  138.3166  159.0665 N   0  0  0  0  0  0  0  0  0  0  0  0
  152.1398  140.8292  158.5958 C   0  0  0  0  0  0  0  0  0  0  0  0
  151.4659  142.2099  158.6820 C   0  0  2  0  0  0  0  0  0  0  0  0
  150.7611  142.5837  157.3740 C   0  0  0  0  0  0  0  0  0  0  0  0
  152.4500  143.2071  158.9538 O   0  0  0  0  0  0  0  0  0  0  0  0
  152.9944  143.2035  162.3069 H   0  0  0  0  0  0  0  0  0  0  0  0
  151.5841  142.4890  161.5465 H   0  0  0  0  0  0  0  0  0  0  0  0
  151.8895  144.2180  161.3875 H   0  0  0  0  0  0  0  0  0  0  0  0
  153.9937  143.7460  160.1466 H   0  0  0  0  0  0  0  0  0  0  0  0
  154.6465  141.5954  159.3446 H   0  0  0  0  0  0  0  0  0  0  0  0
  154.3841  141.4299  161.0644 H   0  0  0  0  0  0  0  0  0  0  0  0
  154.1654  139.6509  162.0154 H   0  0  0  0  0  0  0  0  0  0  0  0
  154.9675  137.3398  162.3614 H   0  0  0  0  0  0  0  0  0  0  0  0
  154.0643  133.4510  162.4359 H   0  0  0  0  0  0  0  0  0  0  0  0
  155.7279  133.2311  162.8569 H   0  0  0  0  0  0  0  0  0  0  0  0
  153.3797  136.3629  158.4560 H   0  0  0  0  0  0  0  0  0  0  0  0
  152.8071  140.7871  157.7336 H   0  0  0  0  0  0  0  0  0  0  0  0
  151.3765  140.0625  158.4562 H   0  0  0  0  0  0  0  0  0  0  0  0
  150.7199  142.2035  159.4767 H   0  0  0  0  0  0  0  0  0  0  0  0
  149.9887  141.8565  157.1226 H   0  0  0  0  0  0  0  0  0  0  0  0
  151.4663  142.6244  156.5435 H   0  0  0  0  0  0  0  0  0  0  0  0
  150.2839  143.5607  157.4545 H   0  0  0  0  0  0  0  0  0  0  0  0
  1  2  1  0  0  0  0
  1 23  1  0  0  0  0
  1 24  1  0  0  0  0
  1 25  1  0  0  0  0
  2 22  1  0  0  0  0
  2  3  1  0  0  0  0
  2 26  1  0  0  0  0
  3  4  1  0  0  0  0
  3 27  1  0  0  0  0
  3 28  1  0  0  0  0
  4  5  1  0  0  0  0
  4 19  1  0  0  0  0
  5 18  1  0  0  0  0
  5  6  2  0  0  0  0
  6  7  1  0  0  0  0
  6 29  1  0  0  0  0
  7  8  2  0  0  0  0
  7 30  1  0  0  0  0
  8  9  1  0  0  0  0
  8 17  1  0  0  0  0
  9 10  2  0  0  0  0
  9 11  1  0  0  0  0
 11 12  1  0  0  0  0
 12 13  1  0  0  0  0
 12 31  1  0  0  0  0
 12 32  1  0  0  0  0
 13 14  1  0  0  0  0
 13 15  1  0  0  0  0
 13 16  1  0  0  0  0
 17 18  2  0  0  0  0
 17 33  1  0  0  0  0
 19 20  1  0  0  0  0
 19 34  1  0  0  0  0
 19 35  1  0  0  0  0
 20 21  1  0  0  0  0
 20 22  1  0  0  0  0
 20 36  1  0  0  0  0
 21 37  1  0  0  0  0
 21 38  1  0  0  0  0
 21 39  1  0  0  0  0
M  CHG  1  11  -1
M  END
> <s_m_source_file>
AV-unprocessed.smi

> <i_m_source_file_index>
1565

> <i_lp_mmshare_version>
43012

> <i_f3d_flags>
0

> <s_epik_input>
W0NIM11bQ0BASF0xW0NIMl1OKFtDSDJdW0NASF0oTzEpW0NIM10pYzJbY0hdW2NIXWMoW2NIXW4yKUMoPU8pW05IXVtDSDJdQyhGKShGKUY=

> <s_epik_cmdline>
J2VwaWtfcHl0aG9uJywgJy1waCcsICc3LjAnLCAnLXRuJywgJzgnLCAnLW1hJywgJzIwMCcsICctbWV0YWxfYmluZGluZycsICctaW1hZScsICc8aW5maWxlLm1hZT4nLCAnLW9tYWUnLCAnPG91dGZpbGUubWFlPic=

> <r_lp_tautomer_probability>
1

> <r_epik_Ionization_Penalty>
6.78525

> <r_epik_Ionization_Penalty_Charging>
6.78469

> <r_epik_Ionization_Penalty_Neutral>
0.000559052

> <r_epik_State_Penalty>
6.78469

> <r_epik_Charging_Adjusted_Penalty>
13.5694

> <i_epik_Tot_Q>
-1

> <i_epik_Tot_abs_Q>
1

> <r_epik_Metal_State_Penalty>
2.70441

> <b_epik_Metal_Only>
1

> <s_lp_Force_Field>
OPLS_2005

> <r_lp_Energy>
29.3503

> <b_lp_Chiralities_Consistent>
1

> <s_lp_Variant>
AV-unprocessed.smi:1565-6

> <Gold.Version>
5.8.1

> <Gold.Id.Protein>
6NUR|6NUR_protein|mol2

> <Gold.PLP.Fitness>
40.6085

> <Gold.PLP.PLP>
-38.8448

> <Gold.PLP.part.hbond>
-1.0000

> <Gold.PLP.part.metal>
0.0000

> <Gold.PLP.part.buried>
-5.3953

> <Gold.PLP.part.nonpolar>
-32.8004

> <Gold.PLP.part.repulsive>
0.0000

> <Gold.PLP.ligand.clash>
0.0000

> <Gold.PLP.ligand.torsion>
0.7806

> <Gold.PLP.Chemscore.Hbond>
1.0000

> <Gold.PLP.Chemscore.CHOScore>
0.0000

> <Gold.PLP.Chemscore.Metal>
0.0000

> <Gold.Chemscore.Hbonds>
donor molecule, donor type, donor heavy atom, donor atom, acceptor molecule, acceptor atom, score
      P1  H  6896  6909       L1    10  0.95

> <Gold.PLP.Chemscore.Internal.Correction>
0.3250

> <Gold.Rescore>
     Score         DG    S(hbond)    S(metal)    S(lipo)     H(rot)  DE(clash)    DE(int)     intcor
     15.88     -16.61       0.99        0.00      95.21       1.29       0.13       0.60       ----

> <Gold.Chemscore.Fitness>
15.8820

> <Gold.Chemscore.DG>
-16.6119

> <Gold.Chemscore.ZeroCoef>
-5.4800

> <Gold.Chemscore.Hbond>
0.9881

> <Gold.Chemscore.Metal>
0.0000

> <Gold.Chemscore.Lipo>
95.2087

> <Gold.Chemscore.Internal_Hbond>
0.0000

> <Gold.Chemscore.DEClash>
0.1311

> <Gold.Chemscore.DEInternal>
0.5988

> <Gold.Chemscore.Rot>
1.2921

> <Gold.Chemscore.Internal.Correction>
   9.000000E+99

> <Gold.Chemscore.Hbonds>
donor molecule, donor type, donor heavy atom, donor atom, acceptor molecule, acceptor atom, score
      P1  H  6896  6909       L1    10  0.22

> <Gold.Chemscore.Hbond.Weighted>
-3.3002

> <Gold.Chemscore.Metal.Weighted>
-0.0000

> <Gold.Chemscore.Lipo.Weighted>
-11.1394

> <Gold.Chemscore.Internal_Hbond.Weighted>
0.0000

> <Gold.Chemscore.DEClash.Weighted>
0.1311

> <Gold.Chemscore.DEInternal.Weighted>
0.5988

> <Gold.Chemscore.Rot.Weighted>
3.3078

> <Gold.Chemscore.Internal.Correction.Weighted>
   9.000000E+99

> <Gold.Protein.RotatedTorsions>
[ 6907 6896 6895 6894 ] final -157.63 input  -60.11 | X-H torsion
[ 7974 7965 7964 7962 ] final   80.93 input  175.53 | X-H torsion
[ 8008 7997 7996 7995 ] final  -20.52 input   59.86 | X-H torsion
[ 10167 10162 10161 10158 ] final -108.36 input  -65.29 | X-H torsion
[ 10718 10713 10712 10709 ] final   90.98 input   66.30 | X-H torsion
[ 10763 10752 10751 10750 ] final   39.08 input  -60.55 | X-H torsion
[ 11005 11000 10999 10996 ] final   -0.26 input  -57.11 | X-H torsion

> <Gold.Protein.ActiveResidues>
 VAL166  LYS551  ARG553  GLY616  TRP617  ASP618  TYR619  PRO620  LYS621  CYS622 
 ASP623  PHE694  ASN695  SER759  ASP760  ASP761  ALA762  ILE779  LEU786  VAL792 
 PHE793  MET794  SER795  GLU796  ALA797  LYS798  CYS799  TRP800  GLU811  SER814 

> <Gold.Protein.RotatedAtoms>
  151.3057  133.4102  159.2642 H   0  0  0  0  0  0  0  0  0  0  0  0  # atno 6907 bound_to 6896
  151.0157  134.9431  159.8042 H   0  0  0  0  0  0  0  0  0  0  0  0  # atno 6908 bound_to 6896
  152.5312  134.3021  159.9135 H   0  0  0  0  0  0  0  0  0  0  0  0  # atno 6909 bound_to 6896
  145.6448  139.2433  143.2010 H   0  0  0  0  0  0  0  0  0  0  0  0  # atno 7974 bound_to 7965
  154.4765  140.2060  155.9867 H   0  0  0  0  0  0  0  0  0  0  0  0  # atno 8008 bound_to 7997
  156.1097  140.3231  155.8025 H   0  0  0  0  0  0  0  0  0  0  0  0  # atno 8009 bound_to 7997
  155.4657  140.0527  157.2976 H   0  0  0  0  0  0  0  0  0  0  0  0  # atno 8010 bound_to 7997
  140.1670  143.4074  152.1383 H   0  0  0  0  0  0  0  0  0  0  0  0  # atno 10167 bound_to 10162
  157.6960  131.0390  150.3660 H   0  0  0  0  0  0  0  0  0  0  0  0  # atno 10718 bound_to 10713
  152.9979  135.6231  154.2408 H   0  0  0  0  0  0  0  0  0  0  0  0  # atno 10763 bound_to 10752
  154.2148  135.2798  155.2947 H   0  0  0  0  0  0  0  0  0  0  0  0  # atno 10764 bound_to 10752
  154.5577  135.5714  153.7037 H   0  0  0  0  0  0  0  0  0  0  0  0  # atno 10765 bound_to 10752
  140.6343  133.9546  155.8291 H   0  0  0  0  0  0  0  0  0  0  0  0  # atno 11005 bound_to 11000
  146.1252  140.7258  142.9438 LP  0  0  0  0  0  0  0  0  0  0  0  0  # atno 17320 bound_to 7965
  144.7144  140.4157  143.7056 LP  0  0  0  0  0  0  0  0  0  0  0  0  # atno 17321 bound_to 7965
  139.5355  144.7205  151.4908 LP  0  0  0  0  0  0  0  0  0  0  0  0  # atno 17342 bound_to 10162
  140.6607  143.8505  150.6884 LP  0  0  0  0  0  0  0  0  0  0  0  0  # atno 17343 bound_to 10162
  156.4090  130.3930  149.6905 LP  0  0  0  0  0  0  0  0  0  0  0  0  # atno 17370 bound_to 10713
  156.4195  130.7762  151.2778 LP  0  0  0  0  0  0  0  0  0  0  0  0  # atno 17371 bound_to 10713
  141.0652  134.0287  157.3603 LP  0  0  0  0  0  0  0  0  0  0  0  0  # atno 17394 bound_to 11000
  139.9104  135.0189  156.7667 LP  0  0  0  0  0  0  0  0  0  0  0  0  # atno 17395 bound_to 11000

$$$$
