AV-unprocessed.smi:99|AV-procd|sdf|889|dock5
  -GOLD-   2262017373D 1   1.00000     0.00000
 Structure written by MMmdl.
 52 55  0  0  0  0  0  0  0  0  2 V2000
  147.7121  131.8292  159.5597 O   0  0  0  0  0  0  0  0  0  0  0  0
  147.6921  133.0500  159.3882 C   0  0  0  0  0  0  0  0  0  0  0  0
  147.7095  133.6328  158.1736 O   0  0  0  0  0  0  0  0  0  0  0  0
  148.1270  132.8928  157.0387 C   0  0  0  0  0  0  0  0  0  0  0  0
  149.4859  133.4326  156.5494 C   0  0  2  0  0  0  0  0  0  0  0  0
  149.9432  134.4040  157.4803 O   0  0  0  0  0  0  0  0  0  0  0  0
  149.4419  135.6619  157.1399 C   0  0  1  0  0  0  0  0  0  0  0  0
  150.5378  136.6804  157.3743 N   0  0  0  0  0  0  0  0  0  0  0  0
  150.3037  137.7694  158.1960 C   0  0  0  0  0  0  0  0  0  0  0  0
  151.2570  138.6958  158.4240 C   0  0  0  0  0  0  0  0  0  0  0  0
  152.5645  138.5484  157.7908 C   0  0  0  0  0  0  0  0  0  0  0  0
  153.4254  139.4015  157.9974 O   0  0  0  0  0  0  0  0  0  0  0  0
  152.7732  137.4608  156.9934 N   0  5  0  0  0  0  0  0  0  0  0  0
  151.8127  136.5173  156.7662 C   0  0  0  0  0  0  0  0  0  0  0  0
  152.0015  135.5232  156.0652 O   0  0  0  0  0  0  0  0  0  0  0  0
  148.9657  135.6061  155.6701 C   0  0  1  0  0  0  0  0  0  0  0  0
  149.5177  136.6046  154.8314 O   0  0  0  0  0  0  0  0  0  0  0  0
  149.4229  134.2189  155.2337 C   0  0  2  0  0  0  0  0  0  0  0  0
  148.5048  133.6130  154.3313 O   0  0  0  0  0  0  0  0  0  0  0  0
  148.6248  132.3169  153.9781 C   0  0  0  0  0  0  0  0  0  0  0  0
  149.4863  131.5596  154.4287 O   0  0  0  0  0  0  0  0  0  0  0  0
  147.5957  131.8951  152.9843 C   0  0  0  0  0  0  0  0  0  0  0  0
  147.0824  132.8452  152.0706 C   0  0  0  0  0  0  0  0  0  0  0  0
  146.1137  132.4738  151.1182 C   0  0  0  0  0  0  0  0  0  0  0  0
  145.6462  131.1478  151.0675 C   0  0  0  0  0  0  0  0  0  0  0  0
  146.1480  130.1932  151.9712 C   0  0  0  0  0  0  0  0  0  0  0  0
  147.1164  130.5626  152.9248 C   0  0  0  0  0  0  0  0  0  0  0  0
  147.6460  134.0369  160.5054 C   0  0  0  0  0  0  0  0  0  0  0  0
  147.8537  135.4084  160.2280 C   0  0  0  0  0  0  0  0  0  0  0  0
  147.8162  136.3634  161.2626 C   0  0  0  0  0  0  0  0  0  0  0  0
  147.5709  135.9585  162.5876 C   0  0  0  0  0  0  0  0  0  0  0  0
  147.3630  134.5973  162.8768 C   0  0  0  0  0  0  0  0  0  0  0  0
  147.3995  133.6408  161.8434 C   0  0  0  0  0  0  0  0  0  0  0  0
  148.2193  131.8459  157.3300 H   0  0  0  0  0  0  0  0  0  0  0  0
  147.3761  132.9474  156.2492 H   0  0  0  0  0  0  0  0  0  0  0  0
  150.2004  132.6127  156.4696 H   0  0  0  0  0  0  0  0  0  0  0  0
  148.6324  135.8914  157.8332 H   0  0  0  0  0  0  0  0  0  0  0  0
  149.3409  137.8819  158.6719 H   0  0  0  0  0  0  0  0  0  0  0  0
  151.0576  139.5383  159.0699 H   0  0  0  0  0  0  0  0  0  0  0  0
  147.8771  135.6769  155.6650 H   0  0  0  0  0  0  0  0  0  0  0  0
  149.2991  136.3974  153.9356 H   0  0  0  0  0  0  0  0  0  0  0  0
  150.4315  134.2669  154.8190 H   0  0  0  0  0  0  0  0  0  0  0  0
  147.4267  133.8692  152.0894 H   0  0  0  0  0  0  0  0  0  0  0  0
  145.7296  133.2078  150.4249 H   0  0  0  0  0  0  0  0  0  0  0  0
  144.9042  130.8630  150.3363 H   0  0  0  0  0  0  0  0  0  0  0  0
  145.7906  129.1747  151.9331 H   0  0  0  0  0  0  0  0  0  0  0  0
  147.4799  129.8040  153.6024 H   0  0  0  0  0  0  0  0  0  0  0  0
  148.0445  135.7430  159.2183 H   0  0  0  0  0  0  0  0  0  0  0  0
  147.9762  137.4077  161.0384 H   0  0  0  0  0  0  0  0  0  0  0  0
  147.5425  136.6911  163.3806 H   0  0  0  0  0  0  0  0  0  0  0  0
  147.1754  134.2850  163.8936 H   0  0  0  0  0  0  0  0  0  0  0  0
  147.2354  132.6044  162.1002 H   0  0  0  0  0  0  0  0  0  0  0  0
  1  2  2  0  0  0  0
  2  3  1  0  0  0  0
  2 28  1  0  0  0  0
  3  4  1  0  0  0  0
  4  5  1  0  0  0  0
  4 34  1  0  0  0  0
  4 35  1  0  0  0  0
  5 18  1  0  0  0  0
  5  6  1  0  0  0  0
  5 36  1  0  0  0  0
  6  7  1  0  0  0  0
  7  8  1  0  0  0  0
  7 16  1  0  0  0  0
  7 37  1  0  0  0  0
  8 14  1  0  0  0  0
  8  9  1  0  0  0  0
  9 10  2  0  0  0  0
  9 38  1  0  0  0  0
 10 11  1  0  0  0  0
 10 39  1  0  0  0  0
 11 12  2  0  0  0  0
 11 13  1  0  0  0  0
 13 14  1  0  0  0  0
 14 15  2  0  0  0  0
 16 17  1  0  0  0  0
 16 18  1  0  0  0  0
 16 40  1  0  0  0  0
 17 41  1  0  0  0  0
 18 19  1  0  0  0  0
 18 42  1  0  0  0  0
 19 20  1  0  0  0  0
 20 21  2  0  0  0  0
 20 22  1  0  0  0  0
 22 27  1  0  0  0  0
 22 23  2  0  0  0  0
 23 24  1  0  0  0  0
 23 43  1  0  0  0  0
 24 25  2  0  0  0  0
 24 44  1  0  0  0  0
 25 26  1  0  0  0  0
 25 45  1  0  0  0  0
 26 27  2  0  0  0  0
 26 46  1  0  0  0  0
 27 47  1  0  0  0  0
 28 33  1  0  0  0  0
 28 29  2  0  0  0  0
 29 30  1  0  0  0  0
 29 48  1  0  0  0  0
 30 31  2  0  0  0  0
 30 49  1  0  0  0  0
 31 32  1  0  0  0  0
 31 50  1  0  0  0  0
 32 33  2  0  0  0  0
 32 51  1  0  0  0  0
 33 52  1  0  0  0  0
M  CHG  1  13  -1
M  END
> <s_m_source_file>
AV-unprocessed.smi

> <i_m_source_file_index>
99

> <i_lp_mmshare_version>
43012

> <i_f3d_flags>
0

> <s_epik_input>
W2NIXTFbY0hdW2NIXVtjSF1bY0hdYzFDKD1PKU9bQ0gyXVtDQEBIXTJPW0NAQEhdKG4zW2NIXVtjSF1jKD1PKVtuSF1jMz1PKVtDQEBIXShbT0hdKVtDQEhdMk9DKD1PKWM0W2NIXVtjSF1bY0hdW2NIXVtjSF00

> <s_epik_cmdline>
J2VwaWtfcHl0aG9uJywgJy1waCcsICc3LjAnLCAnLXRuJywgJzgnLCAnLW1hJywgJzIwMCcsICctbWV0YWxfYmluZGluZycsICctaW1hZScsICc8aW5maWxlLm1hZT4nLCAnLW9tYWUnLCAnPG91dGZpbGUubWFlPic=

> <r_lp_tautomer_probability>
1

> <r_epik_Ionization_Penalty>
2.89159

> <r_epik_Ionization_Penalty_Charging>
2.1077e-08

> <r_epik_Ionization_Penalty_Neutral>
2.89159

> <r_epik_State_Penalty>
2.88671

> <r_epik_Charging_Adjusted_Penalty>
2.88671

> <i_epik_Tot_Q>
-1

> <i_epik_Tot_abs_Q>
1

> <r_epik_Metal_State_Penalty>
0.0727308

> <b_epik_Metal_Only>
1

> <s_epik_Chemistry_Notes>
This compound has an ester and may undergo hydrolysis at high or low pH. This compound contains an acetal/aminal-like group ( X-CH(R)-Y where X, Y are N, S, or O) that may be acid/base labile, releasing an aldehyde.

> <s_lp_Force_Field>
OPLS_2005

> <r_lp_Energy>
49.6514

> <b_lp_Chiralities_Consistent>
1

> <s_lp_Variant>
AV-unprocessed.smi:99-25

> <Gold.Version>
5.8.1

> <Gold.Id.Protein>
6NUR|6NUR_protein|mol2

> <Gold.PLP.Fitness>
54.8385

> <Gold.PLP.PLP>
-48.1898

> <Gold.PLP.part.hbond>
-4.0000

> <Gold.PLP.part.metal>
0.0000

> <Gold.PLP.part.buried>
-6.0917

> <Gold.PLP.part.nonpolar>
-39.2124

> <Gold.PLP.part.repulsive>
0.1569

> <Gold.PLP.ligand.clash>
1.4817

> <Gold.PLP.ligand.torsion>
1.8014

> <Gold.PLP.Chemscore.Hbond>
3.7490

> <Gold.PLP.Chemscore.CHOScore>
0.0000

> <Gold.PLP.Chemscore.Metal>
0.0000

> <Gold.Chemscore.Hbonds>
donor molecule, donor type, donor heavy atom, donor atom, acceptor molecule, acceptor atom, score
      L1  H    17    41       P1  7948  0.86
      P1  H  6896  6907       L1     6  0.91
      P1  H  7997  8010       L1    12  1.00
      P1  H 10752 10764       L1    15  1.00

> <Gold.PLP.Chemscore.Internal.Correction>
0.4861

> <Gold.Rescore>
     Score         DG    S(hbond)    S(metal)    S(lipo)     H(rot)  DE(clash)    DE(int)     intcor
     14.24     -23.02       3.72        0.00     112.35       3.13       0.08       8.70       ----

> <Gold.Chemscore.Fitness>
14.2356

> <Gold.Chemscore.DG>
-23.0177

> <Gold.Chemscore.ZeroCoef>
-5.4800

> <Gold.Chemscore.Hbond>
3.7177

> <Gold.Chemscore.Metal>
0.0000

> <Gold.Chemscore.Lipo>
112.3519

> <Gold.Chemscore.Internal_Hbond>
0.0000

> <Gold.Chemscore.DEClash>
0.0825

> <Gold.Chemscore.DEInternal>
8.6996

> <Gold.Chemscore.Rot>
3.1346

> <Gold.Chemscore.Internal.Correction>
   9.000000E+99

> <Gold.Chemscore.Hbonds>
donor molecule, donor type, donor heavy atom, donor atom, acceptor molecule, acceptor atom, score
      L1  H    17    41       P1  7948  0.78
      P1  H  6896  6907       L1     6  0.82
      P1  H  7997  8010       L1    12  1.00
      P1  H 10752 10764       L1    15  0.92

> <Gold.Chemscore.Hbond.Weighted>
-12.4171

> <Gold.Chemscore.Metal.Weighted>
-0.0000

> <Gold.Chemscore.Lipo.Weighted>
-13.1452

> <Gold.Chemscore.Internal_Hbond.Weighted>
0.0000

> <Gold.Chemscore.DEClash.Weighted>
0.0825

> <Gold.Chemscore.DEInternal.Weighted>
8.6996

> <Gold.Chemscore.Rot.Weighted>
8.0246

> <Gold.Chemscore.Internal.Correction.Weighted>
   9.000000E+99

> <Gold.Protein.RotatedTorsions>
[ 6907 6896 6895 6894 ] final -108.49 input  -60.11 | X-H torsion
[ 7974 7965 7964 7962 ] final  -70.33 input  175.53 | X-H torsion
[ 8008 7997 7996 7995 ] final   29.23 input   59.86 | X-H torsion
[ 10167 10162 10161 10158 ] final  158.73 input  -65.29 | X-H torsion
[ 10718 10713 10712 10709 ] final -176.62 input   66.30 | X-H torsion
[ 10763 10752 10751 10750 ] final  -45.26 input  -60.55 | X-H torsion
[ 11005 11000 10999 10996 ] final   68.14 input  -57.11 | X-H torsion

> <Gold.Protein.ActiveResidues>
 VAL166  LYS551  ARG553  GLY616  TRP617  ASP618  TYR619  PRO620  LYS621  CYS622 
 ASP623  PHE694  ASN695  SER759  ASP760  ASP761  ALA762  ILE779  LEU786  VAL792 
 PHE793  MET794  SER795  GLU796  ALA797  LYS798  CYS799  TRP800  GLU811  SER814 

> <Gold.Protein.RotatedAtoms>
  150.7505  133.9669  159.3533 H   0  0  0  0  0  0  0  0  0  0  0  0  # atno 6907 bound_to 6896
  151.7599  135.0810  160.0353 H   0  0  0  0  0  0  0  0  0  0  0  0  # atno 6908 bound_to 6896
  152.3410  133.6029  159.5912 H   0  0  0  0  0  0  0  0  0  0  0  0  # atno 6909 bound_to 6896
  145.6923  140.9148  143.0775 H   0  0  0  0  0  0  0  0  0  0  0  0  # atno 7974 bound_to 7965
  155.0712  140.3200  155.4630 H   0  0  0  0  0  0  0  0  0  0  0  0  # atno 8008 bound_to 7997
  156.2790  140.2111  156.5784 H   0  0  0  0  0  0  0  0  0  0  0  0  # atno 8009 bound_to 7997
  154.7053  140.0503  157.0485 H   0  0  0  0  0  0  0  0  0  0  0  0  # atno 8010 bound_to 7997
  139.4828  144.4797  151.8462 H   0  0  0  0  0  0  0  0  0  0  0  0  # atno 10167 bound_to 10162
  156.8173  130.9607  151.3113 H   0  0  0  0  0  0  0  0  0  0  0  0  # atno 10718 bound_to 10713
  154.0256  135.6663  153.4776 H   0  0  0  0  0  0  0  0  0  0  0  0  # atno 10763 bound_to 10752
  153.0562  135.5055  154.7982 H   0  0  0  0  0  0  0  0  0  0  0  0  # atno 10764 bound_to 10752
  154.6910  135.3061  154.9444 H   0  0  0  0  0  0  0  0  0  0  0  0  # atno 10765 bound_to 10752
  139.9729  134.6871  156.0412 H   0  0  0  0  0  0  0  0  0  0  0  0  # atno 11005 bound_to 11000
  144.6993  139.8838  143.7449 LP  0  0  0  0  0  0  0  0  0  0  0  0  # atno 17320 bound_to 7965
  146.0870  139.3859  143.0429 LP  0  0  0  0  0  0  0  0  0  0  0  0  # atno 17321 bound_to 7965
  140.4272  144.2165  150.5887 LP  0  0  0  0  0  0  0  0  0  0  0  0  # atno 17342 bound_to 10162
  140.4816  143.2377  151.8947 LP  0  0  0  0  0  0  0  0  0  0  0  0  # atno 17343 bound_to 10162
  157.6475  130.8856  149.9567 LP  0  0  0  0  0  0  0  0  0  0  0  0  # atno 17370 bound_to 10713
  156.1009  130.3656  150.0220 LP  0  0  0  0  0  0  0  0  0  0  0  0  # atno 17371 bound_to 10713
  141.1407  133.6565  156.3723 LP  0  0  0  0  0  0  0  0  0  0  0  0  # atno 17394 bound_to 11000
  140.5256  134.6262  157.5333 LP  0  0  0  0  0  0  0  0  0  0  0  0  # atno 17395 bound_to 11000

$$$$
