AV-unprocessed.smi:652|AV-procd|sdf|3196|dock3
  -GOLD-   22720 0123D 1   1.00000     0.00000
 Structure written by MMmdl.
 47 48  0  0  0  0  0  0  0  0  1 V2000
  145.5154  136.7219  161.0249 C   0  0  0  0  0  0  0  0  0  0  0  0
  146.8834  136.0510  161.2268 C   0  0  0  0  0  0  0  0  0  0  0  0
  147.2550  135.9553  162.7123 C   0  0  0  0  0  0  0  0  0  0  0  0
  147.9211  136.7891  160.5135 N   0  0  0  0  0  0  0  0  0  0  0  0
  148.7296  136.2801  159.5708 C   0  0  0  0  0  0  0  0  0  0  0  0
  148.6960  135.1033  159.2107 O   0  0  0  0  0  0  0  0  0  0  0  0
  149.7287  137.2509  158.9332 C   0  0  0  0  0  0  0  0  0  0  0  0
  149.8036  137.1243  157.3969 C   0  0  0  0  0  0  0  0  0  0  0  0
  150.7538  138.0162  156.7281 N   0  0  0  0  0  0  0  0  0  0  0  0
  150.8737  137.7391  155.2994 C   0  0  0  0  0  0  0  0  0  0  0  0
  151.8571  138.7012  154.6137 C   0  0  0  0  0  0  0  0  0  0  0  0
  151.4455  140.0430  154.8482 O   0  0  0  0  0  0  0  0  0  0  0  0
  151.3785  140.3752  156.2331 C   0  0  1  0  0  0  0  0  0  0  0  0
  150.9369  141.8414  156.3788 C   0  0  0  0  0  0  0  0  0  0  0  0
  150.2506  142.0922  157.6413 N   0  0  0  0  0  0  0  0  0  0  0  0
  150.6267  143.1577  158.4720 C   0  0  0  0  0  0  0  0  0  0  0  0
  151.5846  144.0785  158.0024 C   0  0  0  0  0  0  0  0  0  0  0  0
  151.9480  145.1354  158.8548 C   0  0  0  0  0  0  0  0  0  0  0  0
  151.3264  145.1904  160.1154 C   0  0  0  0  0  0  0  0  0  0  0  0
  150.4154  144.2764  160.5182 N   0  0  0  0  0  0  0  0  0  0  0  0
  150.0720  143.2708  159.7054 N   0  0  0  0  0  0  0  0  0  0  0  0
  150.3822  139.4146  156.9121 C   0  0  0  0  0  0  0  0  0  0  0  0
  144.7323  136.1806  161.5562 H   0  0  0  0  0  0  0  0  0  0  0  0
  145.2383  136.7466  159.9704 H   0  0  0  0  0  0  0  0  0  0  0  0
  145.5182  137.7488  161.3917 H   0  0  0  0  0  0  0  0  0  0  0  0
  146.8337  135.0347  160.8316 H   0  0  0  0  0  0  0  0  0  0  0  0
  146.5087  135.3852  163.2662 H   0  0  0  0  0  0  0  0  0  0  0  0
  147.3261  136.9428  163.1697 H   0  0  0  0  0  0  0  0  0  0  0  0
  148.2153  135.4557  162.8457 H   0  0  0  0  0  0  0  0  0  0  0  0
  148.0216  137.7672  160.7428 H   0  0  0  0  0  0  0  0  0  0  0  0
  149.4888  138.2758  159.2181 H   0  0  0  0  0  0  0  0  0  0  0  0
  150.7120  137.0472  159.3579 H   0  0  0  0  0  0  0  0  0  0  0  0
  150.0291  136.0894  157.1361 H   0  0  0  0  0  0  0  0  0  0  0  0
  148.8049  137.3137  157.0005 H   0  0  0  0  0  0  0  0  0  0  0  0
  151.2154  136.7168  155.1392 H   0  0  0  0  0  0  0  0  0  0  0  0
  149.8959  137.8223  154.8224 H   0  0  0  0  0  0  0  0  0  0  0  0
  152.8708  138.5519  154.9887 H   0  0  0  0  0  0  0  0  0  0  0  0
  151.8817  138.5183  153.5396 H   0  0  0  0  0  0  0  0  0  0  0  0
  152.3643  140.2481  156.6850 H   0  0  0  0  0  0  0  0  0  0  0  0
  151.7807  142.5184  156.2400 H   0  0  0  0  0  0  0  0  0  0  0  0
  150.2292  142.0797  155.5845 H   0  0  0  0  0  0  0  0  0  0  0  0
  149.7203  141.3340  158.0452 H   0  0  0  0  0  0  0  0  0  0  0  0
  152.0260  143.9809  157.0213 H   0  0  0  0  0  0  0  0  0  0  0  0
  152.6745  145.8759  158.5545 H   0  0  0  0  0  0  0  0  0  0  0  0
  151.5647  145.9785  160.8144 H   0  0  0  0  0  0  0  0  0  0  0  0
  149.3816  139.5860  156.5114 H   0  0  0  0  0  0  0  0  0  0  0  0
  150.3337  139.6429  157.9774 H   0  0  0  0  0  0  0  0  0  0  0  0
  1  2  1  0  0  0  0
  1 23  1  0  0  0  0
  1 24  1  0  0  0  0
  1 25  1  0  0  0  0
  2  3  1  0  0  0  0
  2  4  1  0  0  0  0
  2 26  1  0  0  0  0
  3 27  1  0  0  0  0
  3 28  1  0  0  0  0
  3 29  1  0  0  0  0
  4  5  1  0  0  0  0
  4 30  1  0  0  0  0
  5  6  2  0  0  0  0
  5  7  1  0  0  0  0
  7  8  1  0  0  0  0
  7 31  1  0  0  0  0
  7 32  1  0  0  0  0
  8  9  1  0  0  0  0
  8 33  1  0  0  0  0
  8 34  1  0  0  0  0
  9 22  1  0  0  0  0
  9 10  1  0  0  0  0
 10 11  1  0  0  0  0
 10 35  1  0  0  0  0
 10 36  1  0  0  0  0
 11 12  1  0  0  0  0
 11 37  1  0  0  0  0
 11 38  1  0  0  0  0
 12 13  1  0  0  0  0
 13 14  1  0  0  0  0
 13 22  1  0  0  0  0
 13 39  1  0  0  0  0
 14 15  1  0  0  0  0
 14 40  1  0  0  0  0
 14 41  1  0  0  0  0
 15 16  1  0  0  0  0
 15 42  1  0  0  0  0
 16 21  1  0  0  0  0
 16 17  2  0  0  0  0
 17 18  1  0  0  0  0
 17 43  1  0  0  0  0
 18 19  2  0  0  0  0
 18 44  1  0  0  0  0
 19 20  1  0  0  0  0
 19 45  1  0  0  0  0
 20 21  2  0  0  0  0
 22 46  1  0  0  0  0
 22 47  1  0  0  0  0
M  END
> <s_m_source_file>
AV-unprocessed.smi

> <i_m_source_file_index>
652

> <i_lp_mmshare_version>
43012

> <i_f3d_flags>
0

> <s_epik_input>
W0NIM11bQ0hdKFtDSDNdKVtOSF1DKD1PKVtDSDJdW0NIMl1OMVtDSDJdW0NIMl1PW0NASF0oW0NIMl0xKVtDSDJdW05IXWMyW2NIXVtjSF1bY0hdbm4y

> <s_epik_cmdline>
J2VwaWtfcHl0aG9uJywgJy1waCcsICc3LjAnLCAnLXRuJywgJzgnLCAnLW1hJywgJzIwMCcsICctbWV0YWxfYmluZGluZycsICctaW1hZScsICc8aW5maWxlLm1hZT4nLCAnLW9tYWUnLCAnPG91dGZpbGUubWFlPic=

> <r_lp_tautomer_probability>
0.999978

> <r_epik_Ionization_Penalty>
0.428793

> <r_epik_Ionization_Penalty_Charging>
0

> <r_epik_Ionization_Penalty_Neutral>
0.428793

> <r_epik_State_Penalty>
0.437051

> <r_epik_Charging_Adjusted_Penalty>
0.437051

> <i_epik_Tot_Q>
0

> <i_epik_Tot_abs_Q>
0

> <r_epik_Metal_State_Penalty>
0.432371

> <b_epik_Metal_Only>
0

> <s_lp_Force_Field>
OPLS_2005

> <r_lp_Energy>
21.7245

> <b_lp_Chiralities_Consistent>
1

> <s_lp_Variant>
AV-unprocessed.smi:652-5

> <Gold.Version>
5.8.1

> <Gold.Id.Protein>
6NUR|6NUR_protein|mol2

> <Gold.PLP.Fitness>
49.0517

> <Gold.PLP.PLP>
-44.0673

> <Gold.PLP.part.hbond>
-3.0350

> <Gold.PLP.part.metal>
0.0000

> <Gold.PLP.part.buried>
-7.8516

> <Gold.PLP.part.nonpolar>
-34.1856

> <Gold.PLP.part.repulsive>
1.0127

> <Gold.PLP.ligand.clash>
0.0000

> <Gold.PLP.ligand.torsion>
0.5948

> <Gold.PLP.Chemscore.Hbond>
2.0000

> <Gold.PLP.Chemscore.CHOScore>
0.0000

> <Gold.PLP.Chemscore.Metal>
0.0000

> <Gold.Chemscore.Hbonds>
donor molecule, donor type, donor heavy atom, donor atom, acceptor molecule, acceptor atom, score
      P1  H  6896  6909       L1     6  0.81
      P1  H  7989  7998       L1    12  1.00

> <Gold.PLP.Chemscore.Internal.Correction>
0.1740

> <Gold.Rescore>
     Score         DG    S(hbond)    S(metal)    S(lipo)     H(rot)  DE(clash)    DE(int)     intcor
     17.10     -17.61       1.84        0.00      99.28       2.20       0.05       0.46       ----

> <Gold.Chemscore.Fitness>
17.0951

> <Gold.Chemscore.DG>
-17.6086

> <Gold.Chemscore.ZeroCoef>
-5.4800

> <Gold.Chemscore.Hbond>
1.8409

> <Gold.Chemscore.Metal>
0.0000

> <Gold.Chemscore.Lipo>
99.2759

> <Gold.Chemscore.Internal_Hbond>
0.0000

> <Gold.Chemscore.DEClash>
0.0529

> <Gold.Chemscore.DEInternal>
0.4605

> <Gold.Chemscore.Rot>
2.2013

> <Gold.Chemscore.Internal.Correction>
   9.000000E+99

> <Gold.Chemscore.Hbonds>
donor molecule, donor type, donor heavy atom, donor atom, acceptor molecule, acceptor atom, score
      P1  H  6896  6909       L1     6  0.51
      P1  H  7989  7998       L1    12  0.64

> <Gold.Chemscore.Hbond.Weighted>
-6.1487

> <Gold.Chemscore.Metal.Weighted>
-0.0000

> <Gold.Chemscore.Lipo.Weighted>
-11.6153

> <Gold.Chemscore.Internal_Hbond.Weighted>
0.0000

> <Gold.Chemscore.DEClash.Weighted>
0.0529

> <Gold.Chemscore.DEInternal.Weighted>
0.4605

> <Gold.Chemscore.Rot.Weighted>
5.6354

> <Gold.Chemscore.Internal.Correction.Weighted>
   9.000000E+99

> <Gold.Protein.RotatedTorsions>
[ 6907 6896 6895 6894 ] final   30.81 input  -60.11 | X-H torsion
[ 7974 7965 7964 7962 ] final   63.08 input  175.53 | X-H torsion
[ 8008 7997 7996 7995 ] final -168.35 input   59.86 | X-H torsion
[ 10167 10162 10161 10158 ] final  156.16 input  -65.29 | X-H torsion
[ 10718 10713 10712 10709 ] final -139.64 input   66.30 | X-H torsion
[ 10763 10752 10751 10750 ] final  179.79 input  -60.55 | X-H torsion
[ 11005 11000 10999 10996 ] final -141.39 input  -57.11 | X-H torsion

> <Gold.Protein.ActiveResidues>
 VAL166  LYS551  ARG553  GLY616  TRP617  ASP618  TYR619  PRO620  LYS621  CYS622 
 ASP623  PHE694  ASN695  SER759  ASP760  ASP761  ALA762  ILE779  LEU786  VAL792 
 PHE793  MET794  SER795  GLU796  ALA797  LYS798  CYS799  TRP800  GLU811  SER814 

> <Gold.Protein.RotatedAtoms>
  152.0513  134.9652  160.0574 H   0  0  0  0  0  0  0  0  0  0  0  0  # atno 6907 bound_to 6896
  152.1052  133.4266  159.4613 H   0  0  0  0  0  0  0  0  0  0  0  0  # atno 6908 bound_to 6896
  150.6841  134.2633  159.4601 H   0  0  0  0  0  0  0  0  0  0  0  0  # atno 6909 bound_to 6896
  145.8660  139.3346  143.0791 H   0  0  0  0  0  0  0  0  0  0  0  0  # atno 7974 bound_to 7965
  155.8902  140.1023  157.1424 H   0  0  0  0  0  0  0  0  0  0  0  0  # atno 8008 bound_to 7997
  154.4014  140.1312  156.4370 H   0  0  0  0  0  0  0  0  0  0  0  0  # atno 8009 bound_to 7997
  155.7542  140.3464  155.5168 H   0  0  0  0  0  0  0  0  0  0  0  0  # atno 8010 bound_to 7997
  139.4821  144.5033  151.8135 H   0  0  0  0  0  0  0  0  0  0  0  0  # atno 10167 bound_to 10162
  156.3131  130.7492  151.1573 H   0  0  0  0  0  0  0  0  0  0  0  0  # atno 10718 bound_to 10713
  154.5251  135.2796  155.1228 H   0  0  0  0  0  0  0  0  0  0  0  0  # atno 10763 bound_to 10752
  154.2770  135.6292  153.5336 H   0  0  0  0  0  0  0  0  0  0  0  0  # atno 10764 bound_to 10752
  152.9945  135.5642  154.5751 H   0  0  0  0  0  0  0  0  0  0  0  0  # atno 10765 bound_to 10752
  140.8329  134.2495  157.4848 H   0  0  0  0  0  0  0  0  0  0  0  0  # atno 11005 bound_to 11000
  145.9193  140.9126  143.0413 LP  0  0  0  0  0  0  0  0  0  0  0  0  # atno 17320 bound_to 7965
  144.6726  140.1267  143.7446 LP  0  0  0  0  0  0  0  0  0  0  0  0  # atno 17321 bound_to 7965
  140.4529  144.1830  150.5899 LP  0  0  0  0  0  0  0  0  0  0  0  0  # atno 17342 bound_to 10162
  140.4566  143.2465  151.9276 LP  0  0  0  0  0  0  0  0  0  0  0  0  # atno 17343 bound_to 10162
  157.7395  131.0528  150.5225 LP  0  0  0  0  0  0  0  0  0  0  0  0  # atno 17370 bound_to 10713
  156.5368  130.4198  149.6174 LP  0  0  0  0  0  0  0  0  0  0  0  0  # atno 17371 bound_to 10713
  139.8704  134.9595  156.4335 LP  0  0  0  0  0  0  0  0  0  0  0  0  # atno 17394 bound_to 11000
  140.8979  133.7801  155.9646 LP  0  0  0  0  0  0  0  0  0  0  0  0  # atno 17395 bound_to 11000

$$$$
