AV-unprocessed.smi:3348|AV-procd|sdf|12927|dock1
  -GOLD-   2272019353D 1   1.00000     0.00000
 Structure written by MMmdl.
 46 47  0  0  0  0  0  0  0  0  1 V2000
  150.3343  138.7063  154.3800 C   0  0  0  0  0  0  0  0  0  0  0  0
  149.9033  139.5516  155.5909 C   0  0  2  0  0  0  0  0  0  0  0  0
  149.7893  141.0587  155.2534 C   0  0  0  0  0  0  0  0  0  0  0  0
  148.4325  141.4725  154.9424 N   0  0  0  0  0  0  0  0  0  0  0  0
  147.7920  141.4683  153.7208 C   0  0  0  0  0  0  0  0  0  0  0  0
  146.5322  141.9559  153.9213 C   0  0  0  0  0  0  0  0  0  0  0  0
  146.4977  142.2402  155.3153 C   0  0  0  0  0  0  0  0  0  0  0  0
  147.6377  141.9539  155.9229 N   0  0  0  0  0  0  0  0  0  0  0  0
  150.8319  139.3086  156.6992 N   0  0  0  0  0  0  0  0  0  0  0  0
  150.7483  140.2553  157.8113 C   0  0  0  0  0  0  0  0  0  0  0  0
  151.8611  141.3047  157.7233 C   0  0  0  0  0  0  0  0  0  0  0  0
  151.6888  142.2401  158.7773 O   0  0  0  0  0  0  0  0  0  0  0  0
  152.8441  143.0153  159.0795 C   0  0  2  0  0  0  0  0  0  0  0  0
  153.8788  142.1614  159.8433 C   0  0  0  0  0  0  0  0  0  0  0  0
  153.3517  141.7251  161.2204 C   0  0  0  0  0  0  0  0  0  0  0  0
  152.9113  142.9359  162.0571 C   0  0  0  0  0  0  0  0  0  0  0  0
  151.8788  143.7905  161.3045 C   0  0  0  0  0  0  0  0  0  0  0  0
  152.4086  144.2327  159.9255 C   0  0  2  0  0  0  0  0  0  0  0  0
  151.3980  145.1194  159.1813 C   0  0  0  0  0  0  0  0  0  0  0  0
  149.6094  138.7663  153.5682 H   0  0  0  0  0  0  0  0  0  0  0  0
  150.4257  137.6533  154.6490 H   0  0  0  0  0  0  0  0  0  0  0  0
  151.2987  139.0352  153.9911 H   0  0  0  0  0  0  0  0  0  0  0  0
  148.9146  139.1987  155.8873 H   0  0  0  0  0  0  0  0  0  0  0  0
  150.1344  141.6746  156.0841 H   0  0  0  0  0  0  0  0  0  0  0  0
  150.4244  141.3004  154.4001 H   0  0  0  0  0  0  0  0  0  0  0  0
  148.2795  141.1210  152.8218 H   0  0  0  0  0  0  0  0  0  0  0  0
  145.7542  142.0905  153.1846 H   0  0  0  0  0  0  0  0  0  0  0  0
  145.6844  142.6447  155.8996 H   0  0  0  0  0  0  0  0  0  0  0  0
  150.7036  138.3643  157.0485 H   0  0  0  0  0  0  0  0  0  0  0  0
  149.7797  140.7540  157.8371 H   0  0  0  0  0  0  0  0  0  0  0  0
  150.8511  139.7153  158.7531 H   0  0  0  0  0  0  0  0  0  0  0  0
  152.8269  140.8089  157.8199 H   0  0  0  0  0  0  0  0  0  0  0  0
  151.8461  141.8027  156.7524 H   0  0  0  0  0  0  0  0  0  0  0  0
  153.2918  143.3857  158.1552 H   0  0  0  0  0  0  0  0  0  0  0  0
  154.1676  141.2863  159.2619 H   0  0  0  0  0  0  0  0  0  0  0  0
  154.7912  142.7433  159.9792 H   0  0  0  0  0  0  0  0  0  0  0  0
  152.5100  141.0434  161.0913 H   0  0  0  0  0  0  0  0  0  0  0  0
  154.1223  141.1666  161.7527 H   0  0  0  0  0  0  0  0  0  0  0  0
  152.4941  142.5997  163.0069 H   0  0  0  0  0  0  0  0  0  0  0  0
  153.7816  143.5464  162.3013 H   0  0  0  0  0  0  0  0  0  0  0  0
  150.9548  143.2235  161.1825 H   0  0  0  0  0  0  0  0  0  0  0  0
  151.6249  144.6651  161.9042 H   0  0  0  0  0  0  0  0  0  0  0  0
  153.2965  144.8429  160.0985 H   0  0  0  0  0  0  0  0  0  0  0  0
  150.4668  144.5866  158.9860 H   0  0  0  0  0  0  0  0  0  0  0  0
  151.7985  145.4512  158.2229 H   0  0  0  0  0  0  0  0  0  0  0  0
  151.1551  146.0092  159.7623 H   0  0  0  0  0  0  0  0  0  0  0  0
  1  2  1  0  0  0  0
  1 20  1  0  0  0  0
  1 21  1  0  0  0  0
  1 22  1  0  0  0  0
  2  3  1  0  0  0  0
  2  9  1  0  0  0  0
  2 23  1  0  0  0  0
  3  4  1  0  0  0  0
  3 24  1  0  0  0  0
  3 25  1  0  0  0  0
  4  8  1  0  0  0  0
  4  5  1  0  0  0  0
  5  6  2  0  0  0  0
  5 26  1  0  0  0  0
  6  7  1  0  0  0  0
  6 27  1  0  0  0  0
  7  8  2  0  0  0  0
  7 28  1  0  0  0  0
  9 10  1  0  0  0  0
  9 29  1  0  0  0  0
 10 11  1  0  0  0  0
 10 30  1  0  0  0  0
 10 31  1  0  0  0  0
 11 12  1  0  0  0  0
 11 32  1  0  0  0  0
 11 33  1  0  0  0  0
 12 13  1  0  0  0  0
 13 18  1  0  0  0  0
 13 14  1  0  0  0  0
 13 34  1  0  0  0  0
 14 15  1  0  0  0  0
 14 35  1  0  0  0  0
 14 36  1  0  0  0  0
 15 16  1  0  0  0  0
 15 37  1  0  0  0  0
 15 38  1  0  0  0  0
 16 17  1  0  0  0  0
 16 39  1  0  0  0  0
 16 40  1  0  0  0  0
 17 18  1  0  0  0  0
 17 41  1  0  0  0  0
 17 42  1  0  0  0  0
 18 19  1  0  0  0  0
 18 43  1  0  0  0  0
 19 44  1  0  0  0  0
 19 45  1  0  0  0  0
 19 46  1  0  0  0  0
M  END
> <s_m_source_file>
AV-unprocessed.smi

> <i_m_source_file_index>
3348

> <i_lp_mmshare_version>
43012

> <i_f3d_flags>
0

> <s_epik_input>
bjFbY0hdW2NIXVtjSF1uMVtDSDJdW0NAQEhdKFtDSDNdKVtOSF1bQ0gyXVtDSDJdT1tDQEBIXTJbQ0gyXVtDSDJdW0NIMl1bQ0gyXVtDQEhdMltDSDNd

> <s_epik_cmdline>
J2VwaWtfcHl0aG9uJywgJy1waCcsICc3LjAnLCAnLXRuJywgJzgnLCAnLW1hJywgJzIwMCcsICctbWV0YWxfYmluZGluZycsICctaW1hZScsICc8aW5maWxlLm1hZT4nLCAnLW9tYWUnLCAnPG91dGZpbGUubWFlPic=

> <r_lp_tautomer_probability>
1

> <r_epik_Ionization_Penalty>
2.46945

> <r_epik_Ionization_Penalty_Charging>
0

> <r_epik_Ionization_Penalty_Neutral>
2.46945

> <r_epik_State_Penalty>
2.6322

> <r_epik_Charging_Adjusted_Penalty>
2.6322

> <i_epik_Tot_Q>
0

> <i_epik_Tot_abs_Q>
0

> <r_epik_Metal_State_Penalty>
2.63217

> <b_epik_Metal_Only>
0

> <s_lp_Force_Field>
OPLS_2005

> <r_lp_Energy>
16.5117

> <b_lp_Chiralities_Consistent>
1

> <s_lp_Variant>
AV-unprocessed.smi:3348-13

> <Gold.Version>
5.8.1

> <Gold.Id.Protein>
6NUR|6NUR_protein|mol2

> <Gold.PLP.Fitness>
48.6349

> <Gold.PLP.PLP>
-48.3236

> <Gold.PLP.part.hbond>
0.0000

> <Gold.PLP.part.metal>
0.0000

> <Gold.PLP.part.buried>
-6.2343

> <Gold.PLP.part.nonpolar>
-42.1387

> <Gold.PLP.part.repulsive>
1.1572

> <Gold.PLP.ligand.clash>
0.0000

> <Gold.PLP.ligand.torsion>
1.5139

> <Gold.PLP.Chemscore.Hbond>
0.0000

> <Gold.PLP.Chemscore.CHOScore>
1.0000

> <Gold.PLP.Chemscore.Metal>
0.0000

> <Gold.Chemscore.Hbonds>
donor molecule, donor type, donor heavy atom, donor atom, acceptor molecule, acceptor atom, score
      L1  C     5    26       P1  7957  1.00

> <Gold.PLP.Chemscore.Internal.Correction>
0.3391

> <Gold.Rescore>
     Score         DG    S(hbond)    S(metal)    S(lipo)     H(rot)  DE(clash)    DE(int)     intcor
     15.43     -16.95       0.00        0.00     135.77       1.72       0.15       1.37       ----

> <Gold.Chemscore.Fitness>
15.4270

> <Gold.Chemscore.DG>
-16.9526

> <Gold.Chemscore.ZeroCoef>
-5.4800

> <Gold.Chemscore.Hbond>
0.0000

> <Gold.Chemscore.Metal>
0.0000

> <Gold.Chemscore.Lipo>
135.7712

> <Gold.Chemscore.Internal_Hbond>
0.0000

> <Gold.Chemscore.DEClash>
0.1542

> <Gold.Chemscore.DEInternal>
1.3715

> <Gold.Chemscore.Rot>
1.7237

> <Gold.Chemscore.Internal.Correction>
   9.000000E+99

> <Gold.Chemscore.Hbond.Weighted>
-0.0000

> <Gold.Chemscore.Metal.Weighted>
-0.0000

> <Gold.Chemscore.Lipo.Weighted>
-15.8852

> <Gold.Chemscore.Internal_Hbond.Weighted>
0.0000

> <Gold.Chemscore.DEClash.Weighted>
0.1542

> <Gold.Chemscore.DEInternal.Weighted>
1.3715

> <Gold.Chemscore.Rot.Weighted>
4.4126

> <Gold.Chemscore.Internal.Correction.Weighted>
   9.000000E+99

> <Gold.Protein.RotatedTorsions>
[ 6907 6896 6895 6894 ] final  107.06 input  -60.11 | X-H torsion
[ 7974 7965 7964 7962 ] final  -29.59 input  175.53 | X-H torsion
[ 8008 7997 7996 7995 ] final  -65.68 input   59.86 | X-H torsion
[ 10167 10162 10161 10158 ] final  150.83 input  -65.29 | X-H torsion
[ 10718 10713 10712 10709 ] final  -19.02 input   66.30 | X-H torsion
[ 10763 10752 10751 10750 ] final   36.93 input  -60.55 | X-H torsion
[ 11005 11000 10999 10996 ] final  -55.11 input  -57.11 | X-H torsion

> <Gold.Protein.ActiveResidues>
 VAL166  LYS551  ARG553  GLY616  TRP617  ASP618  TYR619  PRO620  LYS621  CYS622 
 ASP623  PHE694  ASN695  SER759  ASP760  ASP761  ALA762  ILE779  LEU786  VAL792 
 PHE793  MET794  SER795  GLU796  ALA797  LYS798  CYS799  TRP800  GLU811  SER814 

> <Gold.Protein.RotatedAtoms>
  152.5169  133.9289  159.7570 H   0  0  0  0  0  0  0  0  0  0  0  0  # atno 6907 bound_to 6896
  150.9644  133.6402  159.2755 H   0  0  0  0  0  0  0  0  0  0  0  0  # atno 6908 bound_to 6896
  151.3636  135.0914  159.9495 H   0  0  0  0  0  0  0  0  0  0  0  0  # atno 6909 bound_to 6896
  146.1205  140.5431  142.8737 H   0  0  0  0  0  0  0  0  0  0  0  0  # atno 7974 bound_to 7965
  154.4687  140.0928  156.7087 H   0  0  0  0  0  0  0  0  0  0  0  0  # atno 8008 bound_to 7997
  155.4786  140.3467  155.4318 H   0  0  0  0  0  0  0  0  0  0  0  0  # atno 8009 bound_to 7997
  156.1001  140.1420  156.9467 H   0  0  0  0  0  0  0  0  0  0  0  0  # atno 8010 bound_to 7997
  139.4846  144.5491  151.7433 H   0  0  0  0  0  0  0  0  0  0  0  0  # atno 10167 bound_to 10162
  156.5514  130.4702  149.6450 H   0  0  0  0  0  0  0  0  0  0  0  0  # atno 10718 bound_to 10713
  153.0057  135.6292  154.2064 H   0  0  0  0  0  0  0  0  0  0  0  0  # atno 10763 bound_to 10752
  154.1807  135.2813  155.3054 H   0  0  0  0  0  0  0  0  0  0  0  0  # atno 10764 bound_to 10752
  154.5837  135.5639  153.7269 H   0  0  0  0  0  0  0  0  0  0  0  0  # atno 10765 bound_to 10752
  141.1058  133.6613  156.4421 H   0  0  0  0  0  0  0  0  0  0  0  0  # atno 11005 bound_to 11000
  144.7593  140.5383  143.6747 LP  0  0  0  0  0  0  0  0  0  0  0  0  # atno 17320 bound_to 7965
  145.5475  139.1476  143.3412 LP  0  0  0  0  0  0  0  0  0  0  0  0  # atno 17321 bound_to 7965
  140.5042  144.1124  150.5978 LP  0  0  0  0  0  0  0  0  0  0  0  0  # atno 17342 bound_to 10162
  140.4027  143.2696  151.9928 LP  0  0  0  0  0  0  0  0  0  0  0  0  # atno 17343 bound_to 10162
  156.2881  130.7109  151.1950 LP  0  0  0  0  0  0  0  0  0  0  0  0  # atno 17370 bound_to 10713
  157.7387  131.0538  150.5280 LP  0  0  0  0  0  0  0  0  0  0  0  0  # atno 17371 bound_to 10713
  140.4905  134.6579  157.5209 LP  0  0  0  0  0  0  0  0  0  0  0  0  # atno 17394 bound_to 11000
  139.9928  134.6959  155.9661 LP  0  0  0  0  0  0  0  0  0  0  0  0  # atno 17395 bound_to 11000

$$$$
