AV-unprocessed.smi:2093|AV-procd|sdf|8551|dock8
  -GOLD-   2272011273D 1   1.00000     0.00000
 Structure written by MMmdl.
 30 31  0  0  0  0  0  0  0  0  2 V2000
  152.3046  144.2107  158.8068 C   0  0  0  0  0  0  0  0  0  0  0  0
  151.7434  142.7922  159.0122 C   0  0  1  0  0  0  0  0  0  0  0  0
  152.2248  141.9147  157.9474 N   0  0  0  0  0  0  0  0  0  0  0  0
  151.8557  140.6426  157.7394 C   0  0  0  0  0  0  0  0  0  0  0  0
  151.0305  140.1103  158.4855 O   0  0  0  0  0  0  0  0  0  0  0  0
  152.4651  140.0664  156.6781 N   0  5  0  0  0  0  0  0  0  0  0  0
  151.7617  139.2861  155.8416 C   0  0  0  0  0  0  0  0  0  0  0  0
  151.0280  139.7712  154.8331 N   0  0  0  0  0  0  0  0  0  0  0  0
  150.3856  138.7810  154.0876 C   0  0  0  0  0  0  0  0  0  0  0  0
  150.6446  137.5116  154.5323 C   0  0  0  0  0  0  0  0  0  0  0  0
  151.7073  137.5224  155.9108 S   0  0  0  0  0  0  0  0  0  0  0  0
  152.1484  142.1980  160.3751 C   0  0  1  0  0  0  0  0  0  0  0  0
  153.6267  141.8231  160.4995 C   0  0  0  0  0  0  0  0  0  0  0  0
  153.9057  141.9279  161.9917 C   0  0  0  0  0  0  0  0  0  0  0  0
  152.6860  142.6650  162.5498 C   0  0  0  0  0  0  0  0  0  0  0  0
  152.0056  143.1625  161.4075 O   0  0  0  0  0  0  0  0  0  0  0  0
  151.9313  144.9000  159.5640 H   0  0  0  0  0  0  0  0  0  0  0  0
  152.0160  144.6128  157.8353 H   0  0  0  0  0  0  0  0  0  0  0  0
  153.3938  144.2162  158.8578 H   0  0  0  0  0  0  0  0  0  0  0  0
  150.6535  142.8376  158.9711 H   0  0  0  0  0  0  0  0  0  0  0  0
  152.9083  142.3039  157.3148 H   0  0  0  0  0  0  0  0  0  0  0  0
  149.7637  139.0710  153.2537 H   0  0  0  0  0  0  0  0  0  0  0  0
  150.2787  136.5763  154.1366 H   0  0  0  0  0  0  0  0  0  0  0  0
  151.5261  141.3328  160.6140 H   0  0  0  0  0  0  0  0  0  0  0  0
  153.8426  140.8323  160.0991 H   0  0  0  0  0  0  0  0  0  0  0  0
  154.2453  142.5442  159.9633 H   0  0  0  0  0  0  0  0  0  0  0  0
  154.0080  140.9452  162.4533 H   0  0  0  0  0  0  0  0  0  0  0  0
  154.8270  142.4823  162.1733 H   0  0  0  0  0  0  0  0  0  0  0  0
  152.0314  141.9748  163.0837 H   0  0  0  0  0  0  0  0  0  0  0  0
  152.9573  143.4724  163.2301 H   0  0  0  0  0  0  0  0  0  0  0  0
  1  2  1  0  0  0  0
  1 17  1  0  0  0  0
  1 18  1  0  0  0  0
  1 19  1  0  0  0  0
  2  3  1  0  0  0  0
  2 12  1  0  0  0  0
  2 20  1  0  0  0  0
  3  4  1  0  0  0  0
  3 21  1  0  0  0  0
  4  5  2  0  0  0  0
  4  6  1  0  0  0  0
  6  7  1  0  0  0  0
  7 11  1  0  0  0  0
  7  8  2  0  0  0  0
  8  9  1  0  0  0  0
  9 10  2  0  0  0  0
  9 22  1  0  0  0  0
 10 11  1  0  0  0  0
 10 23  1  0  0  0  0
 12 16  1  0  0  0  0
 12 13  1  0  0  0  0
 12 24  1  0  0  0  0
 13 14  1  0  0  0  0
 13 25  1  0  0  0  0
 13 26  1  0  0  0  0
 14 15  1  0  0  0  0
 14 27  1  0  0  0  0
 14 28  1  0  0  0  0
 15 16  1  0  0  0  0
 15 29  1  0  0  0  0
 15 30  1  0  0  0  0
M  CHG  1   6  -1
M  END
> <s_m_source_file>
AV-unprocessed.smi

> <i_m_source_file_index>
2093

> <i_lp_mmshare_version>
43012

> <i_f3d_flags>
0

> <s_epik_input>
TzFbQ0gyXVtDSDJdW0NIMl1bQ0BIXTFbQ0BIXShbQ0gzXSlbTkhdQyg9TylbTkhdYzJuW2NIXVtjSF1zMg==

> <s_epik_cmdline>
J2VwaWtfcHl0aG9uJywgJy1waCcsICc3LjAnLCAnLXRuJywgJzgnLCAnLW1hJywgJzIwMCcsICctbWV0YWxfYmluZGluZycsICctaW1hZScsICc8aW5maWxlLm1hZT4nLCAnLW9tYWUnLCAnPG91dGZpbGUubWFlPic=

> <r_lp_tautomer_probability>
0.999

> <r_epik_Ionization_Penalty>
8.26346

> <r_epik_Ionization_Penalty_Charging>
6.6559

> <r_epik_Ionization_Penalty_Neutral>
1.60756

> <r_epik_State_Penalty>
6.65607

> <r_epik_Charging_Adjusted_Penalty>
13.312

> <i_epik_Tot_Q>
-1

> <i_epik_Tot_abs_Q>
1

> <r_epik_Metal_State_Penalty>
2.5789

> <b_epik_Metal_Only>
1

> <s_lp_Force_Field>
OPLS_2005

> <r_lp_Energy>
13.9073

> <b_lp_Chiralities_Consistent>
1

> <s_lp_Variant>
AV-unprocessed.smi:2093-8

> <Gold.Version>
5.8.1

> <Gold.Id.Protein>
6NUR|6NUR_protein|mol2

> <Gold.PLP.Fitness>
45.6869

> <Gold.PLP.PLP>
-33.0877

> <Gold.PLP.part.hbond>
-2.0170

> <Gold.PLP.part.metal>
0.0000

> <Gold.PLP.part.buried>
0.7147

> <Gold.PLP.part.nonpolar>
-30.6556

> <Gold.PLP.part.repulsive>
0.2527

> <Gold.PLP.ligand.clash>
0.0000

> <Gold.PLP.ligand.torsion>
1.2612

> <Gold.PLP.Chemscore.Hbond>
3.0000

> <Gold.PLP.Chemscore.CHOScore>
2.0301

> <Gold.PLP.Chemscore.Metal>
0.0000

> <Gold.Chemscore.Hbonds>
donor molecule, donor type, donor heavy atom, donor atom, acceptor molecule, acceptor atom, score
      P1  H  7989  7998       L1     8  1.00
      P1  H  7997  8009       L1     6  2.00
      L1  C     9    22       P1  7957  1.00
      L1  C    10    23       P1  7948  0.65
      L1  C    10    23       P1  7949  0.05

> <Gold.PLP.Chemscore.Internal.Correction>
0.0314

> <Gold.Rescore>
     Score         DG    S(hbond)    S(metal)    S(lipo)     H(rot)  DE(clash)    DE(int)     intcor
     16.24     -18.52       1.87        0.00      85.87       1.28       0.47       1.81       ----

> <Gold.Chemscore.Fitness>
16.2422

> <Gold.Chemscore.DG>
-18.5180

> <Gold.Chemscore.ZeroCoef>
-5.4800

> <Gold.Chemscore.Hbond>
1.8750

> <Gold.Chemscore.Metal>
0.0000

> <Gold.Chemscore.Lipo>
85.8693

> <Gold.Chemscore.Internal_Hbond>
0.0000

> <Gold.Chemscore.DEClash>
0.4657

> <Gold.Chemscore.DEInternal>
1.8102

> <Gold.Chemscore.Rot>
1.2778

> <Gold.Chemscore.Internal.Correction>
   9.000000E+99

> <Gold.Chemscore.Hbonds>
donor molecule, donor type, donor heavy atom, donor atom, acceptor molecule, acceptor atom, score
      P1  H  7989  7998       L1     8  0.30
      P1  H  7997  8009       L1     6  0.91

> <Gold.Chemscore.Hbond.Weighted>
-6.2624

> <Gold.Chemscore.Metal.Weighted>
-0.0000

> <Gold.Chemscore.Lipo.Weighted>
-10.0467

> <Gold.Chemscore.Internal_Hbond.Weighted>
0.0000

> <Gold.Chemscore.DEClash.Weighted>
0.4657

> <Gold.Chemscore.DEInternal.Weighted>
1.8102

> <Gold.Chemscore.Rot.Weighted>
3.2711

> <Gold.Chemscore.Internal.Correction.Weighted>
   9.000000E+99

> <Gold.Protein.RotatedTorsions>
[ 6907 6896 6895 6894 ] final  -49.75 input  -60.11 | X-H torsion
[ 7974 7965 7964 7962 ] final -117.04 input  175.53 | X-H torsion
[ 8008 7997 7996 7995 ] final -163.67 input   59.86 | X-H torsion
[ 10167 10162 10161 10158 ] final  142.08 input  -65.29 | X-H torsion
[ 10718 10713 10712 10709 ] final  133.07 input   66.30 | X-H torsion
[ 10763 10752 10751 10750 ] final -156.51 input  -60.55 | X-H torsion
[ 11005 11000 10999 10996 ] final  -10.15 input  -57.11 | X-H torsion

> <Gold.Protein.ActiveResidues>
 VAL166  LYS551  ARG553  GLY616  TRP617  ASP618  TYR619  PRO620  LYS621  CYS622 
 ASP623  PHE694  ASN695  SER759  ASP760  ASP761  ALA762  ILE779  LEU786  VAL792 
 PHE793  MET794  SER795  GLU796  ALA797  LYS798  CYS799  TRP800  GLU811  SER814 

> <Gold.Protein.RotatedAtoms>
  150.8774  134.8159  159.7199 H   0  0  0  0  0  0  0  0  0  0  0  0  # atno 6907 bound_to 6896
  152.4755  134.4850  159.9687 H   0  0  0  0  0  0  0  0  0  0  0  0  # atno 6908 bound_to 6896
  151.4929  133.3482  159.2892 H   0  0  0  0  0  0  0  0  0  0  0  0  # atno 6909 bound_to 6896
  145.0898  140.8482  143.3989 H   0  0  0  0  0  0  0  0  0  0  0  0  # atno 7974 bound_to 7965
  155.8246  140.0924  157.1829 H   0  0  0  0  0  0  0  0  0  0  0  0  # atno 8008 bound_to 7997
  154.3979  140.1430  156.3601 H   0  0  0  0  0  0  0  0  0  0  0  0  # atno 8009 bound_to 7997
  155.8230  140.3445  155.5528 H   0  0  0  0  0  0  0  0  0  0  0  0  # atno 8010 bound_to 7997
  139.5003  144.6130  151.6229 H   0  0  0  0  0  0  0  0  0  0  0  0  # atno 10167 bound_to 10162
  157.4809  131.1085  150.9683 H   0  0  0  0  0  0  0  0  0  0  0  0  # atno 10718 bound_to 10713
  154.7707  135.3144  154.8194 H   0  0  0  0  0  0  0  0  0  0  0  0  # atno 10763 bound_to 10752
  153.8930  135.6823  153.4763 H   0  0  0  0  0  0  0  0  0  0  0  0  # atno 10764 bound_to 10752
  153.1321  135.4776  154.9299 H   0  0  0  0  0  0  0  0  0  0  0  0  # atno 10765 bound_to 10752
  140.7417  133.8665  155.8973 H   0  0  0  0  0  0  0  0  0  0  0  0  # atno 11005 bound_to 11000
  145.1080  139.2777  143.5652 LP  0  0  0  0  0  0  0  0  0  0  0  0  # atno 17320 bound_to 7965
  146.3531  140.0667  142.8626 LP  0  0  0  0  0  0  0  0  0  0  0  0  # atno 17321 bound_to 7965
  140.5810  143.9946  150.6268 LP  0  0  0  0  0  0  0  0  0  0  0  0  # atno 17342 bound_to 10162
  140.3095  143.3207  152.0892 LP  0  0  0  0  0  0  0  0  0  0  0  0  # atno 17343 bound_to 10162
  157.0417  130.5751  149.5357 LP  0  0  0  0  0  0  0  0  0  0  0  0  # atno 17370 bound_to 10713
  156.0121  130.5213  150.8020 LP  0  0  0  0  0  0  0  0  0  0  0  0  # atno 17371 bound_to 10713
  140.9831  134.1379  157.4476 LP  0  0  0  0  0  0  0  0  0  0  0  0  # atno 17394 bound_to 11000
  139.8805  135.0017  156.6082 LP  0  0  0  0  0  0  0  0  0  0  0  0  # atno 17395 bound_to 11000

$$$$
