AV-unprocessed.smi:1597|AV-procd|sdf|6420|dock7
  -GOLD-   22720 7 53D 1   1.00000     0.00000
 Structure written by MMmdl.
 53 54  0  0  0  0  0  0  0  0  2 V2000
  146.6157  142.9806  153.7450 C   0  0  0  0  0  0  0  0  0  0  0  0
  146.9670  142.6154  155.1438 N   0  3  0  0  0  0  0  0  0  0  0  0
  145.8522  142.9896  156.0587 C   0  0  0  0  0  0  0  0  0  0  0  0
  147.5538  141.2331  155.3372 C   0  0  0  0  0  0  0  0  0  0  0  0
  147.8710  141.0501  156.8595 C   0  0  0  0  0  0  0  0  0  0  0  0
  148.8857  141.9799  157.3507 N   0  0  0  0  0  0  0  0  0  0  0  0
  150.1579  141.6981  157.6752 C   0  0  0  0  0  0  0  0  0  0  0  0
  150.6388  140.5709  157.5758 O   0  0  0  0  0  0  0  0  0  0  0  0
  151.0293  142.8433  158.2198 C   0  0  0  0  0  0  0  0  0  0  0  0
  151.8177  142.4930  159.4123 N   0  0  0  0  0  0  0  0  0  0  0  0
  152.6467  141.3861  159.3779 C   0  0  0  0  0  0  0  0  0  0  0  0
  153.3837  140.9738  160.4321 C   0  0  0  0  0  0  0  0  0  0  0  0
  153.3420  141.6934  161.6985 C   0  0  0  0  0  0  0  0  0  0  0  0
  153.9963  141.3623  162.6881 O   0  0  0  0  0  0  0  0  0  0  0  0
  152.4850  142.8174  161.7097 N   0  0  0  0  0  0  0  0  0  0  0  0
  152.4172  143.5631  162.9492 C   0  0  0  0  0  0  0  0  0  0  0  0
  151.7211  143.2503  160.6008 C   0  0  0  0  0  0  0  0  0  0  0  0
  150.9859  144.2386  160.6484 O   0  0  0  0  0  0  0  0  0  0  0  0
  146.4994  140.1586  154.9031 C   0  0  0  0  0  0  0  0  0  0  0  0
  146.9673  138.8754  154.1897 C   0  0  0  0  0  0  0  0  0  0  0  0
  148.1174  138.1027  154.8470 C   0  0  0  0  0  0  0  0  0  0  0  0
  149.4913  138.5888  154.3712 C   0  0  0  0  0  0  0  0  0  0  0  0
  149.8824  139.9849  154.8676 C   0  0  0  0  0  0  0  0  0  0  0  0
  148.8908  141.1208  154.5178 C   0  0  0  0  0  0  0  0  0  0  0  0
  145.9045  142.2773  153.3117 H   0  0  0  0  0  0  0  0  0  0  0  0
  147.4900  143.0315  153.0976 H   0  0  0  0  0  0  0  0  0  0  0  0
  146.1621  143.9716  153.7097 H   0  0  0  0  0  0  0  0  0  0  0  0
  144.9244  142.4775  155.8050 H   0  0  0  0  0  0  0  0  0  0  0  0
  145.6583  144.0598  155.9811 H   0  0  0  0  0  0  0  0  0  0  0  0
  146.0640  142.7978  157.1073 H   0  0  0  0  0  0  0  0  0  0  0  0
  146.9813  141.1051  157.4845 H   0  0  0  0  0  0  0  0  0  0  0  0
  148.2458  140.0478  157.0538 H   0  0  0  0  0  0  0  0  0  0  0  0
  148.5890  142.9393  157.4609 H   0  0  0  0  0  0  0  0  0  0  0  0
  151.7027  143.1644  157.4238 H   0  0  0  0  0  0  0  0  0  0  0  0
  150.3911  143.7050  158.4210 H   0  0  0  0  0  0  0  0  0  0  0  0
  152.7071  140.8167  158.4618 H   0  0  0  0  0  0  0  0  0  0  0  0
  154.0114  140.0998  160.3379 H   0  0  0  0  0  0  0  0  0  0  0  0
  151.6448  144.3302  162.9095 H   0  0  0  0  0  0  0  0  0  0  0  0
  153.3972  144.0183  163.1014 H   0  0  0  0  0  0  0  0  0  0  0  0
  152.1782  142.8566  163.7463 H   0  0  0  0  0  0  0  0  0  0  0  0
  145.9004  139.8739  155.7691 H   0  0  0  0  0  0  0  0  0  0  0  0
  145.7814  140.5989  154.2126 H   0  0  0  0  0  0  0  0  0  0  0  0
  146.1055  138.2100  154.1273 H   0  0  0  0  0  0  0  0  0  0  0  0
  147.2202  139.1009  153.1529 H   0  0  0  0  0  0  0  0  0  0  0  0
  148.0378  138.1114  155.9333 H   0  0  0  0  0  0  0  0  0  0  0  0
  148.0257  137.0553  154.5572 H   0  0  0  0  0  0  0  0  0  0  0  0
  150.2495  137.8799  154.7057 H   0  0  0  0  0  0  0  0  0  0  0  0
  149.5293  138.5661  153.2814 H   0  0  0  0  0  0  0  0  0  0  0  0
  150.1061  139.9510  155.9321 H   0  0  0  0  0  0  0  0  0  0  0  0
  150.8383  140.2303  154.4035 H   0  0  0  0  0  0  0  0  0  0  0  0
  148.6789  141.0711  153.4491 H   0  0  0  0  0  0  0  0  0  0  0  0
  149.4503  142.0473  154.6564 H   0  0  0  0  0  0  0  0  0  0  0  0
  147.7200  143.2424  155.3901 H   0  0  0  0  0  0  0  0  0  0  0  0
  1  2  1  0  0  0  0
  1 25  1  0  0  0  0
  1 26  1  0  0  0  0
  1 27  1  0  0  0  0
  2  3  1  0  0  0  0
  2  4  1  0  0  0  0
  2 53  1  0  0  0  0
  3 28  1  0  0  0  0
  3 29  1  0  0  0  0
  3 30  1  0  0  0  0
  4 24  1  0  0  0  0
  4  5  1  0  0  0  0
  4 19  1  0  0  0  0
  5  6  1  0  0  0  0
  5 31  1  0  0  0  0
  5 32  1  0  0  0  0
  6  7  1  0  0  0  0
  6 33  1  0  0  0  0
  7  8  2  0  0  0  0
  7  9  1  0  0  0  0
  9 10  1  0  0  0  0
  9 34  1  0  0  0  0
  9 35  1  0  0  0  0
 10 17  1  0  0  0  0
 10 11  1  0  0  0  0
 11 12  2  0  0  0  0
 11 36  1  0  0  0  0
 12 13  1  0  0  0  0
 12 37  1  0  0  0  0
 13 14  2  0  0  0  0
 13 15  1  0  0  0  0
 15 16  1  0  0  0  0
 15 17  1  0  0  0  0
 16 38  1  0  0  0  0
 16 39  1  0  0  0  0
 16 40  1  0  0  0  0
 17 18  2  0  0  0  0
 19 20  1  0  0  0  0
 19 41  1  0  0  0  0
 19 42  1  0  0  0  0
 20 21  1  0  0  0  0
 20 43  1  0  0  0  0
 20 44  1  0  0  0  0
 21 22  1  0  0  0  0
 21 45  1  0  0  0  0
 21 46  1  0  0  0  0
 22 23  1  0  0  0  0
 22 47  1  0  0  0  0
 22 48  1  0  0  0  0
 23 24  1  0  0  0  0
 23 49  1  0  0  0  0
 23 50  1  0  0  0  0
 24 51  1  0  0  0  0
 24 52  1  0  0  0  0
M  CHG  1   2   1
M  END
> <s_m_source_file>
AV-unprocessed.smi

> <i_m_source_file_index>
1597

> <i_lp_mmshare_version>
43012

> <i_f3d_flags>
0

> <s_epik_input>
W0NIMl0xW0NIMl1bQ0gyXVtDSDJdW0NIMl1bQ0gyXUMxKE4oW0NIM10pW0NIM10pW0NIMl1bTkhdQyg9TylbQ0gyXW4yW2NIXVtjSF1jKD1PKW4oW0NIM10pYzI9Tw==

> <s_epik_cmdline>
J2VwaWtfcHl0aG9uJywgJy1waCcsICc3LjAnLCAnLXRuJywgJzgnLCAnLW1hJywgJzIwMCcsICctbWV0YWxfYmluZGluZycsICctaW1hZScsICc8aW5maWxlLm1hZT4nLCAnLW9tYWUnLCAnPG91dGZpbGUubWFlPic=

> <r_lp_tautomer_probability>
1

> <r_epik_Ionization_Penalty>
0.00225783

> <r_epik_Ionization_Penalty_Charging>
0.00225776

> <r_epik_Ionization_Penalty_Neutral>
7.38919e-08

> <r_epik_State_Penalty>
0.00155497

> <r_epik_Charging_Adjusted_Penalty>
0.00381272

> <i_epik_Tot_Q>
1

> <i_epik_Tot_abs_Q>
1

> <r_epik_Metal_State_Penalty>
-0

> <b_epik_Metal_Only>
0

> <s_lp_Force_Field>
OPLS_2005

> <r_lp_Energy>
50.4542

> <b_lp_Chiralities_Consistent>
1

> <s_lp_Variant>
AV-unprocessed.smi:1597-1

> <Gold.Version>
5.8.1

> <Gold.Id.Protein>
6NUR|6NUR_protein|mol2

> <Gold.PLP.Fitness>
52.1866

> <Gold.PLP.PLP>
-46.8206

> <Gold.PLP.part.hbond>
-2.5164

> <Gold.PLP.part.metal>
0.0000

> <Gold.PLP.part.buried>
-5.6601

> <Gold.PLP.part.nonpolar>
-39.4829

> <Gold.PLP.part.repulsive>
0.2554

> <Gold.PLP.ligand.clash>
0.0000

> <Gold.PLP.ligand.torsion>
0.3805

> <Gold.PLP.Chemscore.Hbond>
2.0000

> <Gold.PLP.Chemscore.CHOScore>
0.0000

> <Gold.PLP.Chemscore.Metal>
0.0000

> <Gold.Chemscore.Hbonds>
donor molecule, donor type, donor heavy atom, donor atom, acceptor molecule, acceptor atom, score
      L1  H     2    53       P1  8028  2.00

> <Gold.PLP.Chemscore.Internal.Correction>
0.1269

> <Gold.Rescore>
     Score         DG    S(hbond)    S(metal)    S(lipo)     H(rot)  DE(clash)    DE(int)     intcor
      9.36     -11.32       0.57        0.00      77.94       2.02       0.50       1.47       ----

> <Gold.Chemscore.Fitness>
9.3573

> <Gold.Chemscore.DG>
-11.3221

> <Gold.Chemscore.ZeroCoef>
-5.4800

> <Gold.Chemscore.Hbond>
0.5700

> <Gold.Chemscore.Metal>
0.0000

> <Gold.Chemscore.Lipo>
77.9372

> <Gold.Chemscore.Internal_Hbond>
0.0000

> <Gold.Chemscore.DEClash>
0.4985

> <Gold.Chemscore.DEInternal>
1.4662

> <Gold.Chemscore.Rot>
2.0236

> <Gold.Chemscore.Internal.Correction>
   9.000000E+99

> <Gold.Chemscore.Hbonds>
donor molecule, donor type, donor heavy atom, donor atom, acceptor molecule, acceptor atom, score
      L1  H     2    53       P1  8028  0.40

> <Gold.Chemscore.Hbond.Weighted>
-1.9037

> <Gold.Chemscore.Metal.Weighted>
-0.0000

> <Gold.Chemscore.Lipo.Weighted>
-9.1187

> <Gold.Chemscore.Internal_Hbond.Weighted>
0.0000

> <Gold.Chemscore.DEClash.Weighted>
0.4985

> <Gold.Chemscore.DEInternal.Weighted>
1.4662

> <Gold.Chemscore.Rot.Weighted>
5.1803

> <Gold.Chemscore.Internal.Correction.Weighted>
   9.000000E+99

> <Gold.Protein.RotatedTorsions>
[ 6907 6896 6895 6894 ] final   -6.75 input  -60.11 | X-H torsion
[ 7974 7965 7964 7962 ] final -160.90 input  175.53 | X-H torsion
[ 8008 7997 7996 7995 ] final  -17.01 input   59.86 | X-H torsion
[ 10167 10162 10161 10158 ] final   59.41 input  -65.29 | X-H torsion
[ 10718 10713 10712 10709 ] final   75.54 input   66.30 | X-H torsion
[ 10763 10752 10751 10750 ] final  -93.16 input  -60.55 | X-H torsion
[ 11005 11000 10999 10996 ] final    5.60 input  -57.11 | X-H torsion

> <Gold.Protein.ActiveResidues>
 VAL166  LYS551  ARG553  GLY616  TRP617  ASP618  TYR619  PRO620  LYS621  CYS622 
 ASP623  PHE694  ASN695  SER759  ASP760  ASP761  ALA762  ILE779  LEU786  VAL792 
 PHE793  MET794  SER795  GLU796  ALA797  LYS798  CYS799  TRP800  GLU811  SER814 

> <Gold.Protein.RotatedAtoms>
  151.4605  135.1038  159.9723 H   0  0  0  0  0  0  0  0  0  0  0  0  # atno 6907 bound_to 6896
  152.4854  133.8357  159.7137 H   0  0  0  0  0  0  0  0  0  0  0  0  # atno 6908 bound_to 6896
  150.8960  133.7120  159.2918 H   0  0  0  0  0  0  0  0  0  0  0  0  # atno 6909 bound_to 6896
  144.7410  140.3475  143.6122 H   0  0  0  0  0  0  0  0  0  0  0  0  # atno 7974 bound_to 7965
  154.5010  140.2154  155.9347 H   0  0  0  0  0  0  0  0  0  0  0  0  # atno 8008 bound_to 7997
  156.1434  140.3175  155.8498 H   0  0  0  0  0  0  0  0  0  0  0  0  # atno 8009 bound_to 7997
  155.4077  140.0488  157.3024 H   0  0  0  0  0  0  0  0  0  0  0  0  # atno 8010 bound_to 7997
  140.1767  144.4223  150.6635 H   0  0  0  0  0  0  0  0  0  0  0  0  # atno 10167 bound_to 10162
  157.6638  130.9731  150.1368 H   0  0  0  0  0  0  0  0  0  0  0  0  # atno 10718 bound_to 10713
  154.6931  135.5205  153.8421 H   0  0  0  0  0  0  0  0  0  0  0  0  # atno 10763 bound_to 10752
  153.0647  135.6581  154.0391 H   0  0  0  0  0  0  0  0  0  0  0  0  # atno 10764 bound_to 10752
  154.0262  135.2989  155.3354 H   0  0  0  0  0  0  0  0  0  0  0  0  # atno 10765 bound_to 10752
  140.5688  134.0122  155.8000 H   0  0  0  0  0  0  0  0  0  0  0  0  # atno 11005 bound_to 11000
  145.7311  139.1736  143.2430 LP  0  0  0  0  0  0  0  0  0  0  0  0  # atno 17320 bound_to 7965
  146.1205  140.7314  142.9460 LP  0  0  0  0  0  0  0  0  0  0  0  0  # atno 17321 bound_to 7965
  140.6546  143.2234  151.5997 LP  0  0  0  0  0  0  0  0  0  0  0  0  # atno 17342 bound_to 10162
  139.5314  144.2906  152.1155 LP  0  0  0  0  0  0  0  0  0  0  0  0  # atno 17343 bound_to 10162
  156.2201  130.3673  149.8567 LP  0  0  0  0  0  0  0  0  0  0  0  0  # atno 17370 bound_to 10713
  156.6422  130.8709  151.3516 LP  0  0  0  0  0  0  0  0  0  0  0  0  # atno 17371 bound_to 10713
  141.1069  133.9680  157.2981 LP  0  0  0  0  0  0  0  0  0  0  0  0  # atno 17394 bound_to 11000
  139.9371  135.0195  156.8592 LP  0  0  0  0  0  0  0  0  0  0  0  0  # atno 17395 bound_to 11000

$$$$
