AV-unprocessed.smi:1727|AV-procd|sdf|6966|dock7
  -GOLD-   22720 8183D 1   1.00000     0.00000
 Structure written by MMmdl.
 50 52  0  0  0  0  0  0  0  0  2 V2000
  152.9930  142.0856  161.9891 C   0  0  0  0  0  0  0  0  0  0  0  0
  152.6026  143.3679  161.2504 C   0  0  0  0  0  0  0  0  0  0  0  0
  152.2048  144.3216  161.9193 O   0  0  0  0  0  0  0  0  0  0  0  0
  152.7034  143.4120  159.9000 N   0  0  0  0  0  0  0  0  0  0  0  0
  153.0954  142.2887  159.0398 C   0  0  0  0  0  0  0  0  0  0  0  0
  151.8612  141.8093  158.2554 C   0  0  0  0  0  0  0  0  0  0  0  0
  151.2257  142.9648  157.4476 C   0  0  0  0  0  0  0  0  0  0  0  0
  149.9508  142.5505  156.8699 N   0  0  0  0  0  0  0  0  0  0  0  0
  149.7929  141.5780  155.9612 C   0  0  0  0  0  0  0  0  0  0  0  0
  150.7212  140.9098  155.5065 O   0  0  0  0  0  0  0  0  0  0  0  0
  148.4992  141.4188  155.6364 N   0  0  0  0  0  0  0  0  0  0  0  0
  147.9406  140.4600  154.7456 C   0  0  0  0  0  0  0  0  0  0  0  0
  148.7631  139.5086  154.0894 C   0  0  0  0  0  0  0  0  0  0  0  0
  148.2001  138.6172  153.1571 C   0  0  0  0  0  0  0  0  0  0  0  0
  146.8244  138.7004  152.8822 C   0  0  0  0  0  0  0  0  0  0  0  0
  146.0709  139.6242  153.5137 N   0  3  0  0  0  0  0  0  0  0  0  0
  146.5511  140.5003  154.4315 C   0  0  0  0  0  0  0  0  0  0  0  0
  145.6392  141.4046  155.0225 N   0  0  0  0  0  0  0  0  0  0  0  0
  145.4437  141.4162  156.4679 C   0  0  0  0  0  0  0  0  0  0  0  0
  144.7045  142.7199  156.7568 C   0  0  0  0  0  0  0  0  0  0  0  0
  145.3020  143.6710  155.7241 C   0  0  0  0  0  0  0  0  0  0  0  0
  145.5696  142.7708  154.5130 C   0  0  0  0  0  0  0  0  0  0  0  0
  151.0116  144.2157  158.3268 C   0  0  0  0  0  0  0  0  0  0  0  0
  152.2865  144.5765  159.1103 C   0  0  0  0  0  0  0  0  0  0  0  0
  152.3905  141.2430  161.6481 H   0  0  0  0  0  0  0  0  0  0  0  0
  152.8322  142.1965  163.0619 H   0  0  0  0  0  0  0  0  0  0  0  0
  154.0472  141.8558  161.8330 H   0  0  0  0  0  0  0  0  0  0  0  0
  153.8689  142.6228  158.3468 H   0  0  0  0  0  0  0  0  0  0  0  0
  153.5358  141.4540  159.5831 H   0  0  0  0  0  0  0  0  0  0  0  0
  152.1424  140.9932  157.5890 H   0  0  0  0  0  0  0  0  0  0  0  0
  151.1304  141.3997  158.9544 H   0  0  0  0  0  0  0  0  0  0  0  0
  151.9104  143.2402  156.6428 H   0  0  0  0  0  0  0  0  0  0  0  0
  149.1298  143.0451  157.1870 H   0  0  0  0  0  0  0  0  0  0  0  0
  147.8350  141.9684  156.1618 H   0  0  0  0  0  0  0  0  0  0  0  0
  149.8265  139.4643  154.2712 H   0  0  0  0  0  0  0  0  0  0  0  0
  148.8182  137.8896  152.6516 H   0  0  0  0  0  0  0  0  0  0  0  0
  146.3074  138.0642  152.1785 H   0  0  0  0  0  0  0  0  0  0  0  0
  144.8761  140.5466  156.8003 H   0  0  0  0  0  0  0  0  0  0  0  0
  146.4047  141.4196  156.9843 H   0  0  0  0  0  0  0  0  0  0  0  0
  143.6366  142.5932  156.5728 H   0  0  0  0  0  0  0  0  0  0  0  0
  144.8343  143.0645  157.7831 H   0  0  0  0  0  0  0  0  0  0  0  0
  144.6489  144.5126  155.4908 H   0  0  0  0  0  0  0  0  0  0  0  0
  146.2443  144.0722  156.0995 H   0  0  0  0  0  0  0  0  0  0  0  0
  146.4835  143.0654  153.9949 H   0  0  0  0  0  0  0  0  0  0  0  0
  144.7411  142.8402  153.8074 H   0  0  0  0  0  0  0  0  0  0  0  0
  150.7041  145.0601  157.7086 H   0  0  0  0  0  0  0  0  0  0  0  0
  150.1994  144.0385  159.0337 H   0  0  0  0  0  0  0  0  0  0  0  0
  152.1073  145.4611  159.7230 H   0  0  0  0  0  0  0  0  0  0  0  0
  153.0860  144.8517  158.4209 H   0  0  0  0  0  0  0  0  0  0  0  0
  145.0757  139.6594  153.2923 H   0  0  0  0  0  0  0  0  0  0  0  0
  1  2  1  0  0  0  0
  1 25  1  0  0  0  0
  1 26  1  0  0  0  0
  1 27  1  0  0  0  0
  2  3  2  0  0  0  0
  2  4  1  0  0  0  0
  4 24  1  0  0  0  0
  4  5  1  0  0  0  0
  5  6  1  0  0  0  0
  5 28  1  0  0  0  0
  5 29  1  0  0  0  0
  6  7  1  0  0  0  0
  6 30  1  0  0  0  0
  6 31  1  0  0  0  0
  7  8  1  0  0  0  0
  7 23  1  0  0  0  0
  7 32  1  0  0  0  0
  8  9  1  0  0  0  0
  8 33  1  0  0  0  0
  9 10  2  0  0  0  0
  9 11  1  0  0  0  0
 11 12  1  0  0  0  0
 11 34  1  0  0  0  0
 12 17  1  0  0  0  0
 12 13  2  0  0  0  0
 13 14  1  0  0  0  0
 13 35  1  0  0  0  0
 14 15  2  0  0  0  0
 14 36  1  0  0  0  0
 15 16  1  0  0  0  0
 15 37  1  0  0  0  0
 16 17  2  0  0  0  0
 16 50  1  0  0  0  0
 17 18  1  0  0  0  0
 18 22  1  0  0  0  0
 18 19  1  0  0  0  0
 19 20  1  0  0  0  0
 19 38  1  0  0  0  0
 19 39  1  0  0  0  0
 20 21  1  0  0  0  0
 20 40  1  0  0  0  0
 20 41  1  0  0  0  0
 21 22  1  0  0  0  0
 21 42  1  0  0  0  0
 21 43  1  0  0  0  0
 22 44  1  0  0  0  0
 22 45  1  0  0  0  0
 23 24  1  0  0  0  0
 23 46  1  0  0  0  0
 23 47  1  0  0  0  0
 24 48  1  0  0  0  0
 24 49  1  0  0  0  0
M  CHG  1  16   1
M  END
> <s_m_source_file>
AV-unprocessed.smi

> <i_m_source_file_index>
1727

> <i_lp_mmshare_version>
43012

> <i_f3d_flags>
0

> <s_epik_input>
W0NIM11DKD1PKU4xW0NIMl1bQ0gyXVtDSF0oW0NIMl1bQ0gyXTEpW05IXUMoPU8pW05IXWMyW2NIXVtjSF1bY0hdbmMyTjNbQ0gyXVtDSDJdW0NIMl1bQ0gyXTM=

> <s_epik_cmdline>
J2VwaWtfcHl0aG9uJywgJy1waCcsICc3LjAnLCAnLXRuJywgJzgnLCAnLW1hJywgJzIwMCcsICctbWV0YWxfYmluZGluZycsICctaW1hZScsICc8aW5maWxlLm1hZT4nLCAnLW9tYWUnLCAnPG91dGZpbGUubWFlPic=

> <r_lp_tautomer_probability>
0.999994

> <r_epik_Ionization_Penalty>
1.09439

> <r_epik_Ionization_Penalty_Charging>
1.09437

> <r_epik_Ionization_Penalty_Neutral>
2.13526e-05

> <r_epik_State_Penalty>
1.15094

> <r_epik_Charging_Adjusted_Penalty>
2.24531

> <i_epik_Tot_Q>
1

> <i_epik_Tot_abs_Q>
1

> <r_epik_Metal_State_Penalty>
1.23914

> <b_epik_Metal_Only>
0

> <s_lp_Force_Field>
OPLS_2005

> <r_lp_Energy>
56.6798

> <b_lp_Chiralities_Consistent>
1

> <s_lp_Variant>
AV-unprocessed.smi:1727-2

> <Gold.Version>
5.8.1

> <Gold.Id.Protein>
6NUR|6NUR_protein|mol2

> <Gold.PLP.Fitness>
49.3496

> <Gold.PLP.PLP>
-41.8162

> <Gold.PLP.part.hbond>
-3.2529

> <Gold.PLP.part.metal>
0.0000

> <Gold.PLP.part.buried>
-1.2383

> <Gold.PLP.part.nonpolar>
-39.3650

> <Gold.PLP.part.repulsive>
1.8669

> <Gold.PLP.ligand.clash>
0.0000

> <Gold.PLP.ligand.torsion>
0.3252

> <Gold.PLP.Chemscore.Hbond>
2.5990

> <Gold.PLP.Chemscore.CHOScore>
0.0000

> <Gold.PLP.Chemscore.Metal>
0.0000

> <Gold.Chemscore.Hbonds>
donor molecule, donor type, donor heavy atom, donor atom, acceptor molecule, acceptor atom, score
      L1  H     8    33       P1  8028  0.04
      L1  H    16    50       P1 10175  2.00
      P1  H  7989  7998       L1    10  0.45

> <Gold.PLP.Chemscore.Internal.Correction>
0.3866

> <Gold.Rescore>
     Score         DG    S(hbond)    S(metal)    S(lipo)     H(rot)  DE(clash)    DE(int)     intcor
     16.67     -19.93       1.66        0.00     102.87       1.22       1.52       1.74       ----

> <Gold.Chemscore.Fitness>
16.6729

> <Gold.Chemscore.DG>
-19.9320

> <Gold.Chemscore.ZeroCoef>
-5.4800

> <Gold.Chemscore.Hbond>
1.6604

> <Gold.Chemscore.Metal>
0.0000

> <Gold.Chemscore.Lipo>
102.8664

> <Gold.Chemscore.Internal_Hbond>
0.0000

> <Gold.Chemscore.DEClash>
1.5210

> <Gold.Chemscore.DEInternal>
1.7381

> <Gold.Chemscore.Rot>
1.2222

> <Gold.Chemscore.Internal.Correction>
   9.000000E+99

> <Gold.Chemscore.Hbonds>
donor molecule, donor type, donor heavy atom, donor atom, acceptor molecule, acceptor atom, score
      L1  H     8    33       P1  8028  0.04
      L1  H    16    50       P1 10175  0.94
      P1  H  7989  7998       L1    10  0.44

> <Gold.Chemscore.Hbond.Weighted>
-5.5456

> <Gold.Chemscore.Metal.Weighted>
-0.0000

> <Gold.Chemscore.Lipo.Weighted>
-12.0354

> <Gold.Chemscore.Internal_Hbond.Weighted>
0.0000

> <Gold.Chemscore.DEClash.Weighted>
1.5210

> <Gold.Chemscore.DEInternal.Weighted>
1.7381

> <Gold.Chemscore.Rot.Weighted>
3.1289

> <Gold.Chemscore.Internal.Correction.Weighted>
   9.000000E+99

> <Gold.Protein.RotatedTorsions>
[ 6907 6896 6895 6894 ] final  -40.45 input  -60.11 | X-H torsion
[ 7974 7965 7964 7962 ] final   86.74 input  175.53 | X-H torsion
[ 8008 7997 7996 7995 ] final -148.56 input   59.86 | X-H torsion
[ 10167 10162 10161 10158 ] final -105.08 input  -65.29 | X-H torsion
[ 10718 10713 10712 10709 ] final -161.85 input   66.30 | X-H torsion
[ 10763 10752 10751 10750 ] final  161.35 input  -60.55 | X-H torsion
[ 11005 11000 10999 10996 ] final  -52.03 input  -57.11 | X-H torsion

> <Gold.Protein.ActiveResidues>
 VAL166  LYS551  ARG553  GLY616  TRP617  ASP618  TYR619  PRO620  LYS621  CYS622 
 ASP623  PHE694  ASN695  SER759  ASP760  ASP761  ALA762  ILE779  LEU786  VAL792 
 PHE793  MET794  SER795  GLU796  ALA797  LYS798  CYS799  TRP800  GLU811  SER814 

> <Gold.Protein.RotatedAtoms>
  150.9783  134.9143  159.7828 H   0  0  0  0  0  0  0  0  0  0  0  0  # atno 6907 bound_to 6896
  152.5213  134.3445  159.9239 H   0  0  0  0  0  0  0  0  0  0  0  0  # atno 6908 bound_to 6896
  151.3453  133.3905  159.2709 H   0  0  0  0  0  0  0  0  0  0  0  0  # atno 6909 bound_to 6896
  145.5682  139.2311  143.2421 H   0  0  0  0  0  0  0  0  0  0  0  0  # atno 7974 bound_to 7965
  155.5935  140.0655  157.2752 H   0  0  0  0  0  0  0  0  0  0  0  0  # atno 8008 bound_to 7997
  154.4298  140.1831  156.1146 H   0  0  0  0  0  0  0  0  0  0  0  0  # atno 8009 bound_to 7997
  156.0214  140.3316  155.7046 H   0  0  0  0  0  0  0  0  0  0  0  0  # atno 8010 bound_to 7997
  140.2023  143.3809  152.1119 H   0  0  0  0  0  0  0  0  0  0  0  0  # atno 10167 bound_to 10162
  156.6021  130.8815  151.2916 H   0  0  0  0  0  0  0  0  0  0  0  0  # atno 10718 bound_to 10713
  154.2615  135.2768  155.2776 H   0  0  0  0  0  0  0  0  0  0  0  0  # atno 10763 bound_to 10752
  154.5380  135.5711  153.6818 H   0  0  0  0  0  0  0  0  0  0  0  0  # atno 10764 bound_to 10752
  152.9961  135.6244  154.2766 H   0  0  0  0  0  0  0  0  0  0  0  0  # atno 10765 bound_to 10752
  141.0902  133.6634  156.3964 H   0  0  0  0  0  0  0  0  0  0  0  0  # atno 11005 bound_to 11000
  146.1803  140.6508  142.9192 LP  0  0  0  0  0  0  0  0  0  0  0  0  # atno 17320 bound_to 7965
  144.7450  140.5044  143.6842 LP  0  0  0  0  0  0  0  0  0  0  0  0  # atno 17321 bound_to 7965
  139.5212  144.7043  151.5401 LP  0  0  0  0  0  0  0  0  0  0  0  0  # atno 17342 bound_to 10162
  140.6381  143.8943  150.6666 LP  0  0  0  0  0  0  0  0  0  0  0  0  # atno 17343 bound_to 10162
  157.7277  130.9646  150.1709 LP  0  0  0  0  0  0  0  0  0  0  0  0  # atno 17370 bound_to 10713
  156.2460  130.3695  149.8284 LP  0  0  0  0  0  0  0  0  0  0  0  0  # atno 17371 bound_to 10713
  140.5269  134.6250  157.5337 LP  0  0  0  0  0  0  0  0  0  0  0  0  # atno 17394 bound_to 11000
  139.9727  134.7266  156.0010 LP  0  0  0  0  0  0  0  0  0  0  0  0  # atno 17395 bound_to 11000

$$$$
