AV-unprocessed.smi:1960|AV-procd|sdf|7917|dock2
  -GOLD-   2272010 83D 1   1.00000     0.00000
 Structure written by MMmdl.
 39 40  0  0  0  0  0  0  0  0  2 V2000
  154.8280  134.2350  161.9870 C   0  0  0  0  0  0  0  0  0  0  0  0
  155.1398  135.5238  160.7121 S   0  0  0  0  0  0  0  0  0  0  0  0
  156.1545  135.0101  159.7790 O   0  0  0  0  0  0  0  0  0  0  0  0
  153.8408  135.9823  160.1963 O   0  0  0  0  0  0  0  0  0  0  0  0
  155.8526  136.8381  161.6032 N   0  0  0  0  0  0  0  0  0  0  0  0
  156.9403  137.6338  160.9997 C   0  0  0  0  0  0  0  0  0  0  0  0
  156.4294  138.9823  160.4620 C   0  0  0  0  0  0  0  0  0  0  0  0
  155.6723  139.7684  161.5461 C   0  0  0  0  0  0  0  0  0  0  0  0
  155.1278  141.0115  161.0062 N   0  0  0  0  0  0  0  0  0  0  0  0
  154.1455  141.0939  160.0972 C   0  0  0  0  0  0  0  0  0  0  0  0
  153.5788  140.1114  159.6197 O   0  0  0  0  0  0  0  0  0  0  0  0
  153.8589  142.3743  159.8038 N   0  0  0  0  0  0  0  0  0  0  0  0
  152.8946  142.8788  158.8887 C   0  0  0  0  0  0  0  0  0  0  0  0
  152.9292  144.2609  158.5982 C   0  0  0  0  0  0  0  0  0  0  0  0
  152.0026  144.8035  157.6846 C   0  0  0  0  0  0  0  0  0  0  0  0
  151.0973  143.9992  157.0874 N   0  3  0  0  0  0  0  0  0  0  0  0
  151.0345  142.6708  157.3214 C   0  0  0  0  0  0  0  0  0  0  0  0
  151.9353  142.0713  158.2253 C   0  0  0  0  0  0  0  0  0  0  0  0
  154.5344  138.8986  162.0998 C   0  0  0  0  0  0  0  0  0  0  0  0
  155.0616  137.5519  162.6258 C   0  0  0  0  0  0  0  0  0  0  0  0
  154.3780  133.3651  161.5095 H   0  0  0  0  0  0  0  0  0  0  0  0
  154.1423  134.6172  162.7411 H   0  0  0  0  0  0  0  0  0  0  0  0
  155.7664  133.9366  162.4508 H   0  0  0  0  0  0  0  0  0  0  0  0
  157.6997  137.8111  161.7621 H   0  0  0  0  0  0  0  0  0  0  0  0
  157.4288  137.0696  160.2058 H   0  0  0  0  0  0  0  0  0  0  0  0
  157.2750  139.5658  160.0964 H   0  0  0  0  0  0  0  0  0  0  0  0
  155.7809  138.8181  159.6021 H   0  0  0  0  0  0  0  0  0  0  0  0
  156.3567  140.0020  162.3641 H   0  0  0  0  0  0  0  0  0  0  0  0
  155.5336  141.8697  161.3498 H   0  0  0  0  0  0  0  0  0  0  0  0
  154.3527  143.0719  160.3408 H   0  0  0  0  0  0  0  0  0  0  0  0
  153.6544  144.9048  159.0745 H   0  0  0  0  0  0  0  0  0  0  0  0
  151.9602  145.8484  157.4142 H   0  0  0  0  0  0  0  0  0  0  0  0
  150.2750  142.1287  156.7771 H   0  0  0  0  0  0  0  0  0  0  0  0
  151.8801  141.0048  158.3810 H   0  0  0  0  0  0  0  0  0  0  0  0
  154.0219  139.4259  162.9053 H   0  0  0  0  0  0  0  0  0  0  0  0
  153.7867  138.7273  161.3261 H   0  0  0  0  0  0  0  0  0  0  0  0
  154.2363  136.9300  162.9710 H   0  0  0  0  0  0  0  0  0  0  0  0
  155.6988  137.7245  163.4937 H   0  0  0  0  0  0  0  0  0  0  0  0
  150.4364  144.4110  156.4279 H   0  0  0  0  0  0  0  0  0  0  0  0
  1  2  1  0  0  0  0
  1 21  1  0  0  0  0
  1 22  1  0  0  0  0
  1 23  1  0  0  0  0
  2  3  2  0  0  0  0
  2  4  2  0  0  0  0
  2  5  1  0  0  0  0
  5 20  1  0  0  0  0
  5  6  1  0  0  0  0
  6  7  1  0  0  0  0
  6 24  1  0  0  0  0
  6 25  1  0  0  0  0
  7  8  1  0  0  0  0
  7 26  1  0  0  0  0
  7 27  1  0  0  0  0
  8  9  1  0  0  0  0
  8 19  1  0  0  0  0
  8 28  1  0  0  0  0
  9 10  1  0  0  0  0
  9 29  1  0  0  0  0
 10 11  2  0  0  0  0
 10 12  1  0  0  0  0
 12 13  1  0  0  0  0
 12 30  1  0  0  0  0
 13 18  1  0  0  0  0
 13 14  2  0  0  0  0
 14 15  1  0  0  0  0
 14 31  1  0  0  0  0
 15 16  2  0  0  0  0
 15 32  1  0  0  0  0
 16 17  1  0  0  0  0
 16 39  1  0  0  0  0
 17 18  2  0  0  0  0
 17 33  1  0  0  0  0
 18 34  1  0  0  0  0
 19 20  1  0  0  0  0
 19 35  1  0  0  0  0
 19 36  1  0  0  0  0
 20 37  1  0  0  0  0
 20 38  1  0  0  0  0
M  CHG  1  16   1
M  END
> <s_m_source_file>
AV-unprocessed.smi

> <i_m_source_file_index>
1960

> <i_lp_mmshare_version>
43012

> <i_f3d_flags>
0

> <s_epik_input>
W0NIM11TKD1PKSg9TylOMVtDSDJdW0NIMl1bQ0hdKFtDSDJdW0NIMl0xKVtOSF1DKD1PKVtOSF1jMltjSF1bY0hdbltjSF1bY0hdMg==

> <s_epik_cmdline>
J2VwaWtfcHl0aG9uJywgJy1waCcsICc3LjAnLCAnLXRuJywgJzgnLCAnLW1hJywgJzIwMCcsICctbWV0YWxfYmluZGluZycsICctaW1hZScsICc8aW5maWxlLm1hZT4nLCAnLW9tYWUnLCAnPG91dGZpbGUubWFlPic=

> <r_epik_Ionization_Penalty>
1.01996

> <r_epik_Ionization_Penalty_Charging>
1.01994

> <r_epik_Ionization_Penalty_Neutral>
1.92463e-05

> <r_epik_State_Penalty>
1.07014

> <r_epik_Charging_Adjusted_Penalty>
2.09007

> <i_epik_Tot_Q>
1

> <i_epik_Tot_abs_Q>
1

> <r_epik_Metal_State_Penalty>
1.16909

> <b_epik_Metal_Only>
0

> <s_lp_Force_Field>
OPLS_2005

> <r_lp_Energy>
12.0857

> <b_lp_Chiralities_Consistent>
1

> <s_lp_Variant>
AV-unprocessed.smi:1960-2

> <Gold.Version>
5.8.1

> <Gold.Id.Protein>
6NUR|6NUR_protein|mol2

> <Gold.PLP.Fitness>
42.1639

> <Gold.PLP.PLP>
-33.4499

> <Gold.PLP.part.hbond>
-3.0000

> <Gold.PLP.part.metal>
0.0000

> <Gold.PLP.part.buried>
-5.5724

> <Gold.PLP.part.nonpolar>
-25.0345

> <Gold.PLP.part.repulsive>
0.0494

> <Gold.PLP.ligand.clash>
0.0000

> <Gold.PLP.ligand.torsion>
1.1690

> <Gold.PLP.Chemscore.Hbond>
3.0000

> <Gold.PLP.Chemscore.CHOScore>
0.0000

> <Gold.PLP.Chemscore.Metal>
0.0000

> <Gold.Chemscore.Hbonds>
donor molecule, donor type, donor heavy atom, donor atom, acceptor molecule, acceptor atom, score
      L1  H    16    39       P1  8028  2.00
      P1  H  6896  6908       L1     4  1.00

> <Gold.PLP.Chemscore.Internal.Correction>
2.0521

> <Gold.Rescore>
     Score         DG    S(hbond)    S(metal)    S(lipo)     H(rot)  DE(clash)    DE(int)     intcor
     16.12     -19.75       1.98        0.00      87.44       1.00       0.08       3.55       ----

> <Gold.Chemscore.Fitness>
16.1198

> <Gold.Chemscore.DG>
-19.7488

> <Gold.Chemscore.ZeroCoef>
-5.4800

> <Gold.Chemscore.Hbond>
1.9755

> <Gold.Chemscore.Metal>
0.0000

> <Gold.Chemscore.Lipo>
87.4419

> <Gold.Chemscore.Internal_Hbond>
0.0000

> <Gold.Chemscore.DEClash>
0.0785

> <Gold.Chemscore.DEInternal>
3.5505

> <Gold.Chemscore.Rot>
1.0000

> <Gold.Chemscore.Internal.Correction>
   9.000000E+99

> <Gold.Chemscore.Hbonds>
donor molecule, donor type, donor heavy atom, donor atom, acceptor molecule, acceptor atom, score
      L1  H    16    39       P1  8028  0.99
      P1  H  6896  6908       L1     4  0.99

> <Gold.Chemscore.Hbond.Weighted>
-6.5981

> <Gold.Chemscore.Metal.Weighted>
-0.0000

> <Gold.Chemscore.Lipo.Weighted>
-10.2307

> <Gold.Chemscore.Internal_Hbond.Weighted>
0.0000

> <Gold.Chemscore.DEClash.Weighted>
0.0785

> <Gold.Chemscore.DEInternal.Weighted>
3.5505

> <Gold.Chemscore.Rot.Weighted>
2.5600

> <Gold.Chemscore.Internal.Correction.Weighted>
   9.000000E+99

> <Gold.Protein.RotatedTorsions>
[ 6907 6896 6895 6894 ] final  -71.14 input  -60.11 | X-H torsion
[ 7974 7965 7964 7962 ] final -158.85 input  175.53 | X-H torsion
[ 8008 7997 7996 7995 ] final  -39.35 input   59.86 | X-H torsion
[ 10167 10162 10161 10158 ] final  171.58 input  -65.29 | X-H torsion
[ 10718 10713 10712 10709 ] final -105.42 input   66.30 | X-H torsion
[ 10763 10752 10751 10750 ] final   -6.90 input  -60.55 | X-H torsion
[ 11005 11000 10999 10996 ] final -168.29 input  -57.11 | X-H torsion

> <Gold.Protein.ActiveResidues>
 VAL166  LYS551  ARG553  GLY616  TRP617  ASP618  TYR619  PRO620  LYS621  CYS622 
 ASP623  PHE694  ASN695  SER759  ASP760  ASP761  ALA762  ILE779  LEU786  VAL792 
 PHE793  MET794  SER795  GLU796  ALA797  LYS798  CYS799  TRP800  GLU811  SER814 

> <Gold.Protein.RotatedAtoms>
  150.7225  134.5351  159.5719 H   0  0  0  0  0  0  0  0  0  0  0  0  # atno 6907 bound_to 6896
  152.2875  134.7756  160.0393 H   0  0  0  0  0  0  0  0  0  0  0  0  # atno 6908 bound_to 6896
  151.8381  133.3384  159.3671 H   0  0  0  0  0  0  0  0  0  0  0  0  # atno 6909 bound_to 6896
  144.7489  140.3769  143.6063 H   0  0  0  0  0  0  0  0  0  0  0  0  # atno 7974 bound_to 7965
  154.4024  140.1554  156.2850 H   0  0  0  0  0  0  0  0  0  0  0  0  # atno 8008 bound_to 7997
  155.8836  140.3442  155.5883 H   0  0  0  0  0  0  0  0  0  0  0  0  # atno 8009 bound_to 7997
  155.7639  140.0821  157.2132 H   0  0  0  0  0  0  0  0  0  0  0  0  # atno 8010 bound_to 7997
  139.5051  144.3470  151.9961 H   0  0  0  0  0  0  0  0  0  0  0  0  # atno 10167 bound_to 10162
  156.0345  130.5563  150.7536 H   0  0  0  0  0  0  0  0  0  0  0  0  # atno 10718 bound_to 10713
  153.4188  135.7009  153.6308 H   0  0  0  0  0  0  0  0  0  0  0  0  # atno 10763 bound_to 10752
  153.4771  135.3702  155.2423 H   0  0  0  0  0  0  0  0  0  0  0  0  # atno 10764 bound_to 10752
  154.8721  135.4057  154.3553 H   0  0  0  0  0  0  0  0  0  0  0  0  # atno 10765 bound_to 10752
  140.5437  134.5497  157.5106 H   0  0  0  0  0  0  0  0  0  0  0  0  # atno 11005 bound_to 11000
  145.7019  139.1663  143.2588 LP  0  0  0  0  0  0  0  0  0  0  0  0  # atno 17320 bound_to 7965
  146.1409  140.7058  142.9367 LP  0  0  0  0  0  0  0  0  0  0  0  0  # atno 17321 bound_to 7965
  140.2907  144.3757  150.6089 LP  0  0  0  0  0  0  0  0  0  0  0  0  # atno 17342 bound_to 10162
  140.5949  143.2167  151.7184 LP  0  0  0  0  0  0  0  0  0  0  0  0  # atno 17343 bound_to 10162
  157.5074  131.0923  151.0240 LP  0  0  0  0  0  0  0  0  0  0  0  0  # atno 17370 bound_to 10713
  157.0605  130.5823  149.5385 LP  0  0  0  0  0  0  0  0  0  0  0  0  # atno 17371 bound_to 10713
  139.9491  134.7649  156.0492 LP  0  0  0  0  0  0  0  0  0  0  0  0  # atno 17394 bound_to 11000
  141.1212  133.6612  156.3220 LP  0  0  0  0  0  0  0  0  0  0  0  0  # atno 17395 bound_to 11000

$$$$
