AV-unprocessed.smi:1006|AV-procd|sdf|4396|dock10
  -GOLD-   22720 2333D 1   1.00000     0.00000
 Structure written by MMmdl.
 47 49  0  0  0  0  0  0  0  0  3 V2000
  147.2881  133.3440  152.8300 C   0  0  0  0  0  0  0  0  0  0  0  0
  148.1067  133.5268  154.0904 C   0  0  0  0  0  0  0  0  0  0  0  0
  148.8156  132.4617  154.6823 C   0  0  0  0  0  0  0  0  0  0  0  0
  149.5412  132.7541  155.8502 C   0  0  0  0  0  0  0  0  0  0  0  0
  150.2728  131.7655  156.5031 N   0  0  0  0  0  0  0  0  0  0  0  0
  149.5568  133.9945  156.3777 N   0  0  0  0  0  0  0  0  0  0  0  0
  148.8617  134.9617  155.7642 C   0  0  0  0  0  0  0  0  0  0  0  0
  148.8781  136.6175  156.4294 S   0  0  0  0  0  0  0  0  0  0  0  0
  149.1722  137.6402  154.9524 C   0  0  0  0  0  0  0  0  0  0  0  0
  150.6505  138.0409  154.8178 C   0  0  2  0  0  0  0  0  0  0  0  0
  151.4123  136.8934  154.4951 O   0  0  0  0  0  0  0  0  0  0  0  0
  151.1956  138.6852  156.1073 C   0  0  0  0  0  0  0  0  0  0  0  0
  150.8232  140.1018  156.2384 N   0  0  0  0  0  0  0  0  0  0  0  0
  150.0763  140.8821  155.4106 C   0  0  0  0  0  0  0  0  0  0  0  0
  150.0116  142.1245  155.9634 N   0  3  0  0  0  0  0  0  0  0  0  0
  150.7276  142.1392  157.1623 C   0  0  0  0  0  0  0  0  0  0  0  0
  150.9494  143.1625  158.0761 C   0  0  0  0  0  0  0  0  0  0  0  0
  151.7334  142.8551  159.2109 C   0  0  0  0  0  0  0  0  0  0  0  0
  151.9948  143.9509  160.2301 C   0  0  0  0  0  0  0  0  0  0  0  0
  152.2675  141.5538  159.3982 C   0  0  0  0  0  0  0  0  0  0  0  0
  153.1125  141.2352  160.6199 C   0  0  0  0  0  0  0  0  0  0  0  0
  152.0294  140.5267  158.4572 C   0  0  0  0  0  0  0  0  0  0  0  0
  151.2528  140.8449  157.3452 C   0  0  0  0  0  0  0  0  0  0  0  0
  148.1479  134.7635  154.6466 N   0  3  0  0  0  0  0  0  0  0  0  0
  147.1158  132.2868  152.6250 H   0  0  0  0  0  0  0  0  0  0  0  0
  147.8085  133.7776  151.9757 H   0  0  0  0  0  0  0  0  0  0  0  0
  146.3176  133.8319  152.9275 H   0  0  0  0  0  0  0  0  0  0  0  0
  148.8021  131.4683  154.2574 H   0  0  0  0  0  0  0  0  0  0  0  0
  150.3045  130.8160  156.1607 H   0  0  0  0  0  0  0  0  0  0  0  0
  150.8209  131.9724  157.3259 H   0  0  0  0  0  0  0  0  0  0  0  0
  148.8648  137.0662  154.0775 H   0  0  0  0  0  0  0  0  0  0  0  0
  148.5437  138.5309  154.9905 H   0  0  0  0  0  0  0  0  0  0  0  0
  150.7538  138.7538  153.9984 H   0  0  0  0  0  0  0  0  0  0  0  0
  151.2669  136.6819  153.5853 H   0  0  0  0  0  0  0  0  0  0  0  0
  150.7898  138.1689  156.9782 H   0  0  0  0  0  0  0  0  0  0  0  0
  152.2792  138.5868  156.1741 H   0  0  0  0  0  0  0  0  0  0  0  0
  149.6177  140.5725  154.4825 H   0  0  0  0  0  0  0  0  0  0  0  0
  150.5414  144.1513  157.9256 H   0  0  0  0  0  0  0  0  0  0  0  0
  151.5808  143.6765  161.2005 H   0  0  0  0  0  0  0  0  0  0  0  0
  151.5384  144.8940  159.9276 H   0  0  0  0  0  0  0  0  0  0  0  0
  153.0653  144.1215  160.3449 H   0  0  0  0  0  0  0  0  0  0  0  0
  153.4312  140.1925  160.6237 H   0  0  0  0  0  0  0  0  0  0  0  0
  152.5471  141.4137  161.5350 H   0  0  0  0  0  0  0  0  0  0  0  0
  154.0079  141.8567  160.6385 H   0  0  0  0  0  0  0  0  0  0  0  0
  152.4421  139.5390  158.5983 H   0  0  0  0  0  0  0  0  0  0  0  0
  147.6361  135.5317  154.2123 H   0  0  0  0  0  0  0  0  0  0  0  0
  149.5153  142.9038  155.5503 H   0  0  0  0  0  0  0  0  0  0  0  0
  1  2  1  0  0  0  0
  1 25  1  0  0  0  0
  1 26  1  0  0  0  0
  1 27  1  0  0  0  0
  2 24  1  0  0  0  0
  2  3  2  0  0  0  0
  3  4  1  0  0  0  0
  3 28  1  0  0  0  0
  4  5  1  0  0  0  0
  4  6  2  0  0  0  0
  5 29  1  0  0  0  0
  5 30  1  0  0  0  0
  6  7  1  0  0  0  0
  7  8  1  0  0  0  0
  7 24  2  0  0  0  0
  8  9  1  0  0  0  0
  9 10  1  0  0  0  0
  9 31  1  0  0  0  0
  9 32  1  0  0  0  0
 10 11  1  0  0  0  0
 10 12  1  0  0  0  0
 10 33  1  0  0  0  0
 11 34  1  0  0  0  0
 12 13  1  0  0  0  0
 12 35  1  0  0  0  0
 12 36  1  0  0  0  0
 13 23  1  0  0  0  0
 13 14  1  0  0  0  0
 14 15  2  0  0  0  0
 14 37  1  0  0  0  0
 15 16  1  0  0  0  0
 15 47  1  0  0  0  0
 16 23  2  0  0  0  0
 16 17  1  0  0  0  0
 17 18  2  0  0  0  0
 17 38  1  0  0  0  0
 18 19  1  0  0  0  0
 18 20  1  0  0  0  0
 19 39  1  0  0  0  0
 19 40  1  0  0  0  0
 19 41  1  0  0  0  0
 20 21  1  0  0  0  0
 20 22  2  0  0  0  0
 21 42  1  0  0  0  0
 21 43  1  0  0  0  0
 21 44  1  0  0  0  0
 22 23  1  0  0  0  0
 22 45  1  0  0  0  0
 24 46  1  0  0  0  0
M  CHG  1  15   1
M  CHG  1  24   1
M  END
> <s_m_source_file>
AV-unprocessed.smi

> <i_m_source_file_index>
1006

> <i_lp_mmshare_version>
43012

> <i_f3d_flags>
0

> <s_epik_input>
W0NIM11jMVtjSF1jKFtOSDJdKW5jKG4xKVNbQ0gyXVtDQEhdKFtPSF0pW0NIMl1uKFtjSF1uMiljKGMyMylbY0hdYyhbQ0gzXSljKFtjSF0zKVtDSDNd

> <s_epik_cmdline>
J2VwaWtfcHl0aG9uJywgJy1waCcsICc3LjAnLCAnLXRuJywgJzgnLCAnLW1hJywgJzIwMCcsICctbWV0YWxfYmluZGluZycsICctaW1hZScsICc8aW5maWxlLm1hZT4nLCAnLW9tYWUnLCAnPG91dGZpbGUubWFlPic=

> <r_lp_tautomer_probability>
0.999762

> <r_epik_Ionization_Penalty>
1.50932

> <r_epik_Ionization_Penalty_Charging>
1.50929

> <r_epik_Ionization_Penalty_Neutral>
3.48853e-05

> <r_epik_State_Penalty>
1.56619

> <r_epik_Charging_Adjusted_Penalty>
3.07548

> <i_epik_Tot_Q>
2

> <i_epik_Tot_abs_Q>
2

> <r_epik_Metal_State_Penalty>
1.82892

> <b_epik_Metal_Only>
0

> <s_lp_Force_Field>
OPLS_2005

> <r_lp_Energy>
18.0663

> <b_lp_Chiralities_Consistent>
1

> <s_lp_Variant>
AV-unprocessed.smi:1006-7

> <Gold.Version>
5.8.1

> <Gold.Id.Protein>
6NUR|6NUR_protein|mol2

> <Gold.PLP.Fitness>
60.3571

> <Gold.PLP.PLP>
-49.6922

> <Gold.PLP.part.hbond>
-4.0000

> <Gold.PLP.part.metal>
0.0000

> <Gold.PLP.part.buried>
-4.6042

> <Gold.PLP.part.nonpolar>
-40.2676

> <Gold.PLP.part.repulsive>
0.1974

> <Gold.PLP.ligand.clash>
0.0000

> <Gold.PLP.ligand.torsion>
0.6785

> <Gold.PLP.Chemscore.Hbond>
4.0000

> <Gold.PLP.Chemscore.CHOScore>
0.0000

> <Gold.PLP.Chemscore.Metal>
0.0000

> <Gold.Chemscore.Hbonds>
donor molecule, donor type, donor heavy atom, donor atom, acceptor molecule, acceptor atom, score
      L1  H    11    34       P1  7949  0.55
      L1  H    15    47       P1  8028  2.00
      P1  H 10752 10763       L1    11  0.20

> <Gold.PLP.Chemscore.Internal.Correction>
0.0220

> <Gold.Rescore>
     Score         DG    S(hbond)    S(metal)    S(lipo)     H(rot)  DE(clash)    DE(int)     intcor
     17.06     -17.72       1.97        0.00     113.22       2.96       0.06       0.61       ----

> <Gold.Chemscore.Fitness>
17.0567

> <Gold.Chemscore.DG>
-17.7207

> <Gold.Chemscore.ZeroCoef>
-5.4800

> <Gold.Chemscore.Hbond>
1.9673

> <Gold.Chemscore.Metal>
0.0000

> <Gold.Chemscore.Lipo>
113.2226

> <Gold.Chemscore.Internal_Hbond>
0.0000

> <Gold.Chemscore.DEClash>
0.0575

> <Gold.Chemscore.DEInternal>
0.6065

> <Gold.Chemscore.Rot>
2.9599

> <Gold.Chemscore.Internal.Correction>
   9.000000E+99

> <Gold.Chemscore.Hbonds>
donor molecule, donor type, donor heavy atom, donor atom, acceptor molecule, acceptor atom, score
      L1  H    11    34       P1  7949  0.34
      L1  H    15    47       P1  8028  0.94

> <Gold.Chemscore.Hbond.Weighted>
-6.5709

> <Gold.Chemscore.Metal.Weighted>
-0.0000

> <Gold.Chemscore.Lipo.Weighted>
-13.2470

> <Gold.Chemscore.Internal_Hbond.Weighted>
0.0000

> <Gold.Chemscore.DEClash.Weighted>
0.0575

> <Gold.Chemscore.DEInternal.Weighted>
0.6065

> <Gold.Chemscore.Rot.Weighted>
7.5772

> <Gold.Chemscore.Internal.Correction.Weighted>
   9.000000E+99

> <Gold.Protein.RotatedTorsions>
[ 6907 6896 6895 6894 ] final  -37.47 input  -60.11 | X-H torsion
[ 7974 7965 7964 7962 ] final   99.55 input  175.53 | X-H torsion
[ 8008 7997 7996 7995 ] final  -84.14 input   59.86 | X-H torsion
[ 10167 10162 10161 10158 ] final  147.78 input  -65.29 | X-H torsion
[ 10718 10713 10712 10709 ] final  142.46 input   66.30 | X-H torsion
[ 10763 10752 10751 10750 ] final   43.50 input  -60.55 | X-H torsion
[ 11005 11000 10999 10996 ] final  126.88 input  -57.11 | X-H torsion

> <Gold.Protein.ActiveResidues>
 VAL166  LYS551  ARG553  GLY616  TRP617  ASP618  TYR619  PRO620  LYS621  CYS622 
 ASP623  PHE694  ASN695  SER759  ASP760  ASP761  ALA762  ILE779  LEU786  VAL792 
 PHE793  MET794  SER795  GLU796  ALA797  LYS798  CYS799  TRP800  GLU811  SER814 

> <Gold.Protein.RotatedAtoms>
  151.0143  134.9421  159.8024 H   0  0  0  0  0  0  0  0  0  0  0  0  # atno 6907 bound_to 6896
  152.5310  134.2987  159.9080 H   0  0  0  0  0  0  0  0  0  0  0  0  # atno 6908 bound_to 6896
  151.2993  133.4087  159.2673 H   0  0  0  0  0  0  0  0  0  0  0  0  # atno 6909 bound_to 6896
  145.3973  139.2353  143.3319 H   0  0  0  0  0  0  0  0  0  0  0  0  # atno 7974 bound_to 7965
  154.6266  140.0609  156.9681 H   0  0  0  0  0  0  0  0  0  0  0  0  # atno 8008 bound_to 7997
  155.1731  140.3292  155.4370 H   0  0  0  0  0  0  0  0  0  0  0  0  # atno 8009 bound_to 7997
  156.2461  140.1910  156.6832 H   0  0  0  0  0  0  0  0  0  0  0  0  # atno 8010 bound_to 7997
  139.4885  144.5729  151.7020 H   0  0  0  0  0  0  0  0  0  0  0  0  # atno 10167 bound_to 10162
  157.3802  131.0991  151.0745 H   0  0  0  0  0  0  0  0  0  0  0  0  # atno 10718 bound_to 10713
  152.9859  135.6099  154.3121 H   0  0  0  0  0  0  0  0  0  0  0  0  # atno 10763 bound_to 10752
  154.2836  135.2776  155.2688 H   0  0  0  0  0  0  0  0  0  0  0  0  # atno 10764 bound_to 10752
  154.5015  135.5865  153.6591 H   0  0  0  0  0  0  0  0  0  0  0  0  # atno 10765 bound_to 10752
  139.9479  134.9627  156.8772 H   0  0  0  0  0  0  0  0  0  0  0  0  # atno 11005 bound_to 11000
  146.2769  140.4666  142.8792 LP  0  0  0  0  0  0  0  0  0  0  0  0  # atno 17320 bound_to 7965
  144.8398  140.6839  143.6237 LP  0  0  0  0  0  0  0  0  0  0  0  0  # atno 17321 bound_to 7965
  140.5320  144.0715  150.6057 LP  0  0  0  0  0  0  0  0  0  0  0  0  # atno 17342 bound_to 10162
  140.3709  143.2855  152.0279 LP  0  0  0  0  0  0  0  0  0  0  0  0  # atno 17343 bound_to 10162
  157.1817  130.6312  149.5674 LP  0  0  0  0  0  0  0  0  0  0  0  0  # atno 17370 bound_to 10713
  155.9774  130.4751  150.6592 LP  0  0  0  0  0  0  0  0  0  0  0  0  # atno 17371 bound_to 10713
  140.5791  134.0370  155.7457 LP  0  0  0  0  0  0  0  0  0  0  0  0  # atno 17394 bound_to 11000
  141.1134  133.9580  157.2868 LP  0  0  0  0  0  0  0  0  0  0  0  0  # atno 17395 bound_to 11000

$$$$
