AV-unprocessed.smi:2001|AV-procd|sdf|8110|dock6
  -GOLD-   2272010343D 1   1.00000     0.00000
 Structure written by MMmdl.
 50 51  0  0  0  0  0  0  0  0  3 V2000
  152.2895  143.1663  159.5063 C   0  0  0  0  0  0  0  0  0  0  0  0
  151.7328  142.0641  160.1996 O   0  0  0  0  0  0  0  0  0  0  0  0
  152.0309  140.8232  159.5811 C   0  0  0  0  0  0  0  0  0  0  0  0
  151.2902  140.7165  158.2382 C   0  0  0  0  0  0  0  0  0  0  0  0
  151.1424  139.3224  157.8044 N   0  0  0  0  0  0  0  0  0  0  0  0
  150.2550  138.5875  158.5730 N   0  0  0  0  0  0  0  0  0  0  0  0
  150.0267  137.3428  158.3022 C   0  0  0  0  0  0  0  0  0  0  0  0
  149.0801  136.5423  159.1441 C   0  0  0  0  0  0  0  0  0  0  0  0
  148.4856  137.1819  160.0227 O   0  0  0  0  0  0  0  0  0  0  0  0
  148.9427  135.2041  158.8993 N   0  5  0  0  0  0  0  0  0  0  0  0
  147.7469  134.4118  159.1783 C   0  0  0  0  0  0  0  0  0  0  0  0
  147.4300  134.4749  160.6847 C   0  0  0  0  0  0  0  0  0  0  0  0
  145.9881  134.7298  160.9462 N   0  3  1  0  0  0  0  0  0  0  0  0
  145.5995  134.4445  162.3486 C   0  0  0  0  0  0  0  0  0  0  0  0
  144.0863  134.6471  162.5616 C   0  0  2  0  0  0  0  0  0  0  0  0
  143.2238  133.5315  161.9452 C   0  0  0  0  0  0  0  0  0  0  0  0
  143.6914  135.9438  162.1142 O   0  0  0  0  0  0  0  0  0  0  0  0
  144.0203  136.2347  160.7583 C   0  0  1  0  0  0  0  0  0  0  0  0
  143.5305  137.6540  160.4502 C   0  0  0  0  0  0  0  0  0  0  0  0
  145.5393  136.0925  160.5596 C   0  0  0  0  0  0  0  0  0  0  0  0
  150.6943  136.6987  157.1773 C   0  0  0  0  0  0  0  0  0  0  0  0
  151.5564  137.4286  156.4368 C   0  0  0  0  0  0  0  0  0  0  0  0
  151.8340  138.8344  156.7312 C   0  0  0  0  0  0  0  0  0  0  0  0
  152.6190  139.5156  156.0719 O   0  0  0  0  0  0  0  0  0  0  0  0
  152.0407  144.0897  160.0286 H   0  0  0  0  0  0  0  0  0  0  0  0
  151.8936  143.2351  158.4924 H   0  0  0  0  0  0  0  0  0  0  0  0
  153.3762  143.0915  159.4545 H   0  0  0  0  0  0  0  0  0  0  0  0
  153.1057  140.7579  159.4065 H   0  0  0  0  0  0  0  0  0  0  0  0
  151.7580  139.9930  160.2346 H   0  0  0  0  0  0  0  0  0  0  0  0
  150.3254  141.2233  158.2972 H   0  0  0  0  0  0  0  0  0  0  0  0
  151.8530  141.2641  157.4804 H   0  0  0  0  0  0  0  0  0  0  0  0
  146.8788  134.7690  158.6226 H   0  0  0  0  0  0  0  0  0  0  0  0
  147.8788  133.3695  158.8860 H   0  0  0  0  0  0  0  0  0  0  0  0
  147.7192  133.5203  161.1278 H   0  0  0  0  0  0  0  0  0  0  0  0
  148.0386  135.2328  161.1814 H   0  0  0  0  0  0  0  0  0  0  0  0
  145.8769  133.4239  162.6162 H   0  0  0  0  0  0  0  0  0  0  0  0
  146.1572  135.1082  163.0115 H   0  0  0  0  0  0  0  0  0  0  0  0
  143.8988  134.6309  163.6358 H   0  0  0  0  0  0  0  0  0  0  0  0
  143.4514  132.5695  162.4047 H   0  0  0  0  0  0  0  0  0  0  0  0
  143.3886  133.4243  160.8735 H   0  0  0  0  0  0  0  0  0  0  0  0
  142.1631  133.7287  162.1034 H   0  0  0  0  0  0  0  0  0  0  0  0
  143.4971  135.5460  160.0945 H   0  0  0  0  0  0  0  0  0  0  0  0
  143.7479  137.9294  159.4178 H   0  0  0  0  0  0  0  0  0  0  0  0
  144.0091  138.3872  161.1001 H   0  0  0  0  0  0  0  0  0  0  0  0
  142.4529  137.7340  160.5950 H   0  0  0  0  0  0  0  0  0  0  0  0
  146.0699  136.8341  161.1590 H   0  0  0  0  0  0  0  0  0  0  0  0
  145.7895  136.2905  159.5168 H   0  0  0  0  0  0  0  0  0  0  0  0
  150.5150  135.6642  156.9250 H   0  0  0  0  0  0  0  0  0  0  0  0
  152.0557  136.9619  155.6007 H   0  0  0  0  0  0  0  0  0  0  0  0
  145.4805  134.0719  160.3717 H   0  0  0  0  0  0  0  0  0  0  0  0
  1  2  1  0  0  0  0
  1 25  1  0  0  0  0
  1 26  1  0  0  0  0
  1 27  1  0  0  0  0
  2  3  1  0  0  0  0
  3  4  1  0  0  0  0
  3 28  1  0  0  0  0
  3 29  1  0  0  0  0
  4  5  1  0  0  0  0
  4 30  1  0  0  0  0
  4 31  1  0  0  0  0
  5 23  1  0  0  0  0
  5  6  1  0  0  0  0
  6  7  2  0  0  0  0
  7  8  1  0  0  0  0
  7 21  1  0  0  0  0
  8  9  2  0  0  0  0
  8 10  1  0  0  0  0
 10 11  1  0  0  0  0
 11 12  1  0  0  0  0
 11 32  1  0  0  0  0
 11 33  1  0  0  0  0
 12 13  1  0  0  0  0
 12 34  1  0  0  0  0
 12 35  1  0  0  0  0
 13 20  1  0  0  0  0
 13 14  1  0  0  0  0
 13 50  1  0  0  0  0
 14 15  1  0  0  0  0
 14 36  1  0  0  0  0
 14 37  1  0  0  0  0
 15 16  1  0  0  0  0
 15 17  1  0  0  0  0
 15 38  1  0  0  0  0
 16 39  1  0  0  0  0
 16 40  1  0  0  0  0
 16 41  1  0  0  0  0
 17 18  1  0  0  0  0
 18 19  1  0  0  0  0
 18 20  1  0  0  0  0
 18 42  1  0  0  0  0
 19 43  1  0  0  0  0
 19 44  1  0  0  0  0
 19 45  1  0  0  0  0
 20 46  1  0  0  0  0
 20 47  1  0  0  0  0
 21 22  2  0  0  0  0
 21 48  1  0  0  0  0
 22 23  1  0  0  0  0
 22 49  1  0  0  0  0
 23 24  2  0  0  0  0
M  CHG  1  10  -1
M  CHG  1  13   1
M  END
> <s_m_source_file>
AV-unprocessed.smi

> <i_m_source_file_index>
2001

> <i_lp_mmshare_version>
43012

> <i_f3d_flags>
0

> <s_epik_input>
W0NIM11PW0NIMl1bQ0gyXW4xbmMoW2NIXVtjSF1jMT1PKUMoPU8pW05IXVtDSDJdW0NIMl1OMltDSDJdW0NAQEhdKFtDSDNdKU9bQ0BASF0oW0NIM10pW0NIMl0y

> <s_epik_cmdline>
J2VwaWtfcHl0aG9uJywgJy1waCcsICc3LjAnLCAnLXRuJywgJzgnLCAnLW1hJywgJzIwMCcsICctbWV0YWxfYmluZGluZycsICctaW1hZScsICc8aW5maWxlLm1hZT4nLCAnLW9tYWUnLCAnPG91dGZpbGUubWFlPic=

> <r_lp_tautomer_probability>
1

> <r_epik_Ionization_Penalty>
6.90846

> <r_epik_Ionization_Penalty_Charging>
6.90846

> <r_epik_Ionization_Penalty_Neutral>
1.08445e-11

> <r_epik_State_Penalty>
7.54671

> <r_epik_Charging_Adjusted_Penalty>
14.4552

> <i_epik_Tot_Q>
0

> <i_epik_Tot_abs_Q>
2

> <r_epik_Metal_State_Penalty>
3.46181

> <b_epik_Metal_Only>
1

> <s_lp_Force_Field>
OPLS_2005

> <r_lp_Energy>
44.3308

> <b_lp_Chiralities_Consistent>
1

> <s_lp_Variant>
AV-unprocessed.smi:2001-9

> <Gold.Version>
5.8.1

> <Gold.Id.Protein>
6NUR|6NUR_protein|mol2

> <Gold.PLP.Fitness>
43.4388

> <Gold.PLP.PLP>
-33.3158

> <Gold.PLP.part.hbond>
-4.7861

> <Gold.PLP.part.metal>
0.0000

> <Gold.PLP.part.buried>
-5.4826

> <Gold.PLP.part.nonpolar>
-23.3826

> <Gold.PLP.part.repulsive>
0.0722

> <Gold.PLP.ligand.clash>
0.0000

> <Gold.PLP.ligand.torsion>
0.7931

> <Gold.PLP.Chemscore.Hbond>
3.7967

> <Gold.PLP.Chemscore.CHOScore>
0.0000

> <Gold.PLP.Chemscore.Metal>
0.0000

> <Gold.Chemscore.Hbonds>
donor molecule, donor type, donor heavy atom, donor atom, acceptor molecule, acceptor atom, score
      P1  H  6896  6908       L1    10  1.80
      P1  H  6931  6943       L1     9  0.31
      P1  H  6934  6947       L1     9  0.02
      P1  H  7997  8009       L1    24  1.00

> <Gold.PLP.Chemscore.Internal.Correction>
0.3191

> <Gold.Rescore>
     Score         DG    S(hbond)    S(metal)    S(lipo)     H(rot)  DE(clash)    DE(int)     intcor
     16.99     -17.94       2.39        0.00      82.41       2.02       0.19       0.75       ----

> <Gold.Chemscore.Fitness>
16.9915

> <Gold.Chemscore.DG>
-17.9354

> <Gold.Chemscore.ZeroCoef>
-5.4800

> <Gold.Chemscore.Hbond>
2.3890

> <Gold.Chemscore.Metal>
0.0000

> <Gold.Chemscore.Lipo>
82.4097

> <Gold.Chemscore.Internal_Hbond>
0.0000

> <Gold.Chemscore.DEClash>
0.1931

> <Gold.Chemscore.DEInternal>
0.7508

> <Gold.Chemscore.Rot>
2.0179

> <Gold.Chemscore.Internal.Correction>
   9.000000E+99

> <Gold.Chemscore.Hbonds>
donor molecule, donor type, donor heavy atom, donor atom, acceptor molecule, acceptor atom, score
      P1  H  6896  6908       L1    10  0.17
      P1  H  6931  6943       L1     9  0.31
      P1  H  6934  6947       L1     9  0.05
      P1  H  7997  8009       L1    24  1.00

> <Gold.Chemscore.Hbond.Weighted>
-7.9793

> <Gold.Chemscore.Metal.Weighted>
-0.0000

> <Gold.Chemscore.Lipo.Weighted>
-9.6419

> <Gold.Chemscore.Internal_Hbond.Weighted>
0.0000

> <Gold.Chemscore.DEClash.Weighted>
0.1931

> <Gold.Chemscore.DEInternal.Weighted>
0.7508

> <Gold.Chemscore.Rot.Weighted>
5.1659

> <Gold.Chemscore.Internal.Correction.Weighted>
   9.000000E+99

> <Gold.Protein.RotatedTorsions>
[ 6907 6896 6895 6894 ] final  173.50 input  -60.11 | X-H torsion
[ 7974 7965 7964 7962 ] final   13.88 input  175.53 | X-H torsion
[ 8008 7997 7996 7995 ] final -159.84 input   59.86 | X-H torsion
[ 10167 10162 10161 10158 ] final  136.71 input  -65.29 | X-H torsion
[ 10718 10713 10712 10709 ] final -162.58 input   66.30 | X-H torsion
[ 10763 10752 10751 10750 ] final    5.59 input  -60.55 | X-H torsion
[ 11005 11000 10999 10996 ] final -124.52 input  -57.11 | X-H torsion

> <Gold.Protein.ActiveResidues>
 VAL166  LYS551  ARG553  GLY616  TRP617  ASP618  TYR619  PRO620  LYS621  CYS622 
 ASP623  PHE694  ASN695  SER759  ASP760  ASP761  ALA762  ILE779  LEU786  VAL792 
 PHE793  MET794  SER795  GLU796  ALA797  LYS798  CYS799  TRP800  GLU811  SER814 

> <Gold.Protein.RotatedAtoms>
  151.7673  133.3338  159.3434 H   0  0  0  0  0  0  0  0  0  0  0  0  # atno 6907 bound_to 6896
  150.7475  134.6051  159.6066 H   0  0  0  0  0  0  0  0  0  0  0  0  # atno 6908 bound_to 6896
  152.3365  134.7193  160.0327 H   0  0  0  0  0  0  0  0  0  0  0  0  # atno 6909 bound_to 6896
  146.2318  139.9123  142.8522 H   0  0  0  0  0  0  0  0  0  0  0  0  # atno 7974 bound_to 7965
  155.7685  140.0849  157.2120 H   0  0  0  0  0  0  0  0  0  0  0  0  # atno 8008 bound_to 7997
  154.3998  140.1530  156.2971 H   0  0  0  0  0  0  0  0  0  0  0  0  # atno 8009 bound_to 7997
  155.8770  140.3422  155.5864 H   0  0  0  0  0  0  0  0  0  0  0  0  # atno 8010 bound_to 7997
  139.5170  144.6449  151.5466 H   0  0  0  0  0  0  0  0  0  0  0  0  # atno 10167 bound_to 10162
  156.6125  130.8856  151.2939 H   0  0  0  0  0  0  0  0  0  0  0  0  # atno 10718 bound_to 10713
  153.2576  135.6920  153.7613 H   0  0  0  0  0  0  0  0  0  0  0  0  # atno 10763 bound_to 10752
  153.6684  135.3348  155.3147 H   0  0  0  0  0  0  0  0  0  0  0  0  # atno 10764 bound_to 10752
  154.8418  135.4494  154.1554 H   0  0  0  0  0  0  0  0  0  0  0  0  # atno 10765 bound_to 10752
  140.9834  134.0641  157.3739 H   0  0  0  0  0  0  0  0  0  0  0  0  # atno 11005 bound_to 11000
  145.2218  140.9938  143.4041 LP  0  0  0  0  0  0  0  0  0  0  0  0  # atno 17320 bound_to 7965
  144.9604  139.3986  143.6359 LP  0  0  0  0  0  0  0  0  0  0  0  0  # atno 17321 bound_to 7965
  140.6231  143.9221  150.6542 LP  0  0  0  0  0  0  0  0  0  0  0  0  # atno 17342 bound_to 10162
  140.2501  143.3600  152.1413 LP  0  0  0  0  0  0  0  0  0  0  0  0  # atno 17343 bound_to 10162
  157.7250  130.9610  150.1598 LP  0  0  0  0  0  0  0  0  0  0  0  0  # atno 17370 bound_to 10713
  156.2378  130.3688  149.8371 LP  0  0  0  0  0  0  0  0  0  0  0  0  # atno 17371 bound_to 10713
  139.8960  135.0144  156.7030 LP  0  0  0  0  0  0  0  0  0  0  0  0  # atno 17394 bound_to 11000
  140.7151  133.9189  155.8110 LP  0  0  0  0  0  0  0  0  0  0  0  0  # atno 17395 bound_to 11000

$$$$
