AV-unprocessed.smi:2533|AV-procd|sdf|9973|dock2
  -GOLD-   2272014 23D 1   1.00000     0.00000
 Structure written by MMmdl.
 35 36  0  0  0  0  0  0  0  0  1 V2000
  153.4262  142.3809  162.0405 C   0  0  0  0  0  0  0  0  0  0  0  0
  153.0138  143.2953  161.0355 O   0  0  0  0  0  0  0  0  0  0  0  0
  152.4836  142.7841  159.8699 C   0  0  0  0  0  0  0  0  0  0  0  0
  152.3879  141.3995  159.5810 C   0  0  0  0  0  0  0  0  0  0  0  0
  151.8254  140.9606  158.3671 C   0  0  0  0  0  0  0  0  0  0  0  0
  151.3513  141.8936  157.4215 C   0  0  0  0  0  0  0  0  0  0  0  0
  150.6973  141.4236  156.1281 C   0  0  1  0  0  0  0  0  0  0  0  0
  151.5499  140.5903  155.3702 O   0  0  0  0  0  0  0  0  0  0  0  0
  149.3658  140.6736  156.3693 C   0  0  0  0  0  0  0  0  0  0  0  0
  148.2531  141.2252  155.5835 N   0  0  0  0  0  0  0  0  0  0  0  0
  147.1257  141.5291  156.3282 N   0  0  0  0  0  0  0  0  0  0  0  0
  146.0909  142.0850  155.7863 C   0  0  0  0  0  0  0  0  0  0  0  0
  144.9252  142.4065  156.6878 C   0  0  0  0  0  0  0  0  0  0  0  0
  144.3993  141.2967  157.2069 F   0  0  0  0  0  0  0  0  0  0  0  0
  145.3222  143.1950  157.6870 F   0  0  0  0  0  0  0  0  0  0  0  0
  143.9768  143.0425  155.9986 F   0  0  0  0  0  0  0  0  0  0  0  0
  146.1084  142.3692  154.3611 C   0  0  0  0  0  0  0  0  0  0  0  0
  147.2026  142.0572  153.6341 C   0  0  0  0  0  0  0  0  0  0  0  0
  148.3810  141.4455  154.2432 C   0  0  0  0  0  0  0  0  0  0  0  0
  149.4002  141.1667  153.6124 O   0  0  0  0  0  0  0  0  0  0  0  0
  151.4492  143.2713  157.7033 C   0  0  0  0  0  0  0  0  0  0  0  0
  152.0095  143.7107  158.9176 C   0  0  0  0  0  0  0  0  0  0  0  0
  152.0868  145.0386  159.1727 F   0  0  0  0  0  0  0  0  0  0  0  0
  153.8149  142.9365  162.8939 H   0  0  0  0  0  0  0  0  0  0  0  0
  154.2223  141.7272  161.6821 H   0  0  0  0  0  0  0  0  0  0  0  0
  152.5913  141.7745  162.3944 H   0  0  0  0  0  0  0  0  0  0  0  0
  152.7344  140.6515  160.2775 H   0  0  0  0  0  0  0  0  0  0  0  0
  151.7476  139.9015  158.1694 H   0  0  0  0  0  0  0  0  0  0  0  0
  150.4979  142.3008  155.5114 H   0  0  0  0  0  0  0  0  0  0  0  0
  151.1562  139.7330  155.3123 H   0  0  0  0  0  0  0  0  0  0  0  0
  149.4877  139.6099  156.1566 H   0  0  0  0  0  0  0  0  0  0  0  0
  149.1114  140.7258  157.4301 H   0  0  0  0  0  0  0  0  0  0  0  0
  145.2501  142.8247  153.8898 H   0  0  0  0  0  0  0  0  0  0  0  0
  147.2108  142.2692  152.5750 H   0  0  0  0  0  0  0  0  0  0  0  0
  151.0802  143.9980  156.9945 H   0  0  0  0  0  0  0  0  0  0  0  0
  1  2  1  0  0  0  0
  1 24  1  0  0  0  0
  1 25  1  0  0  0  0
  1 26  1  0  0  0  0
  2  3  1  0  0  0  0
  3 22  1  0  0  0  0
  3  4  2  0  0  0  0
  4  5  1  0  0  0  0
  4 27  1  0  0  0  0
  5  6  2  0  0  0  0
  5 28  1  0  0  0  0
  6  7  1  0  0  0  0
  6 21  1  0  0  0  0
  7  8  1  0  0  0  0
  7  9  1  0  0  0  0
  7 29  1  0  0  0  0
  8 30  1  0  0  0  0
  9 10  1  0  0  0  0
  9 31  1  0  0  0  0
  9 32  1  0  0  0  0
 10 19  1  0  0  0  0
 10 11  1  0  0  0  0
 11 12  2  0  0  0  0
 12 13  1  0  0  0  0
 12 17  1  0  0  0  0
 13 14  1  0  0  0  0
 13 15  1  0  0  0  0
 13 16  1  0  0  0  0
 17 18  2  0  0  0  0
 17 33  1  0  0  0  0
 18 19  1  0  0  0  0
 18 34  1  0  0  0  0
 19 20  2  0  0  0  0
 21 22  2  0  0  0  0
 21 35  1  0  0  0  0
 22 23  1  0  0  0  0
M  END
> <s_m_source_file>
AV-unprocessed.smi

> <i_m_source_file_index>
2533

> <i_lp_mmshare_version>
43012

> <i_f3d_flags>
0

> <s_epik_input>
W0NIM11PYzFbY0hdW2NIXWMoW2NIXWMxRilbQ0BIXShbT0hdKVtDSDJdbjJuYyhDKEYpKEYpRilbY0hdW2NIXWMyPU8=

> <s_epik_cmdline>
J2VwaWtfcHl0aG9uJywgJy1waCcsICc3LjAnLCAnLXRuJywgJzgnLCAnLW1hJywgJzIwMCcsICctbWV0YWxfYmluZGluZycsICctaW1hZScsICc8aW5maWxlLm1hZT4nLCAnLW9tYWUnLCAnPG91dGZpbGUubWFlPic=

> <r_lp_tautomer_probability>
1

> <r_epik_Ionization_Penalty>
5.00966e-08

> <r_epik_Ionization_Penalty_Charging>
3.92872e-09

> <r_epik_Ionization_Penalty_Neutral>
4.61679e-08

> <r_epik_State_Penalty>
-0

> <r_epik_Charging_Adjusted_Penalty>
3.92872e-09

> <i_epik_Tot_Q>
0

> <i_epik_Tot_abs_Q>
0

> <r_epik_Metal_State_Penalty>
-0

> <b_epik_Metal_Only>
0

> <s_lp_Force_Field>
OPLS_2005

> <r_lp_Energy>
30.5098

> <b_lp_Chiralities_Consistent>
1

> <s_lp_Variant>
AV-unprocessed.smi:2533-2

> <Gold.Version>
5.8.1

> <Gold.Id.Protein>
6NUR|6NUR_protein|mol2

> <Gold.PLP.Fitness>
50.8456

> <Gold.PLP.PLP>
-46.9597

> <Gold.PLP.part.hbond>
-3.0000

> <Gold.PLP.part.metal>
0.0000

> <Gold.PLP.part.buried>
-6.6763

> <Gold.PLP.part.nonpolar>
-39.7885

> <Gold.PLP.part.repulsive>
3.2881

> <Gold.PLP.ligand.clash>
0.0000

> <Gold.PLP.ligand.torsion>
0.8802

> <Gold.PLP.Chemscore.Hbond>
1.8640

> <Gold.PLP.Chemscore.CHOScore>
0.0000

> <Gold.PLP.Chemscore.Metal>
0.0000

> <Gold.Chemscore.Hbonds>
donor molecule, donor type, donor heavy atom, donor atom, acceptor molecule, acceptor atom, score
      P1  H  7989  7998       L1     8  0.63
      P1  H  8011  8017       L1    20  0.98

> <Gold.PLP.Chemscore.Internal.Correction>
0.0543

> <Gold.Rescore>
     Score         DG    S(hbond)    S(metal)    S(lipo)     H(rot)  DE(clash)    DE(int)     intcor
      8.81     -13.72       1.14        0.00      92.70       2.50       1.29       3.62       ----

> <Gold.Chemscore.Fitness>
8.8064

> <Gold.Chemscore.DG>
-13.7172

> <Gold.Chemscore.ZeroCoef>
-5.4800

> <Gold.Chemscore.Hbond>
1.1376

> <Gold.Chemscore.Metal>
0.0000

> <Gold.Chemscore.Lipo>
92.6971

> <Gold.Chemscore.Internal_Hbond>
0.0000

> <Gold.Chemscore.DEClash>
1.2939

> <Gold.Chemscore.DEInternal>
3.6169

> <Gold.Chemscore.Rot>
2.5031

> <Gold.Chemscore.Internal.Correction>
   9.000000E+99

> <Gold.Chemscore.Hbonds>
donor molecule, donor type, donor heavy atom, donor atom, acceptor molecule, acceptor atom, score
      P1  H  7989  7998       L1    20  0.13
      P1  H  8011  8017       L1    20  0.80

> <Gold.Chemscore.Hbond.Weighted>
-3.7995

> <Gold.Chemscore.Metal.Weighted>
-0.0000

> <Gold.Chemscore.Lipo.Weighted>
-10.8456

> <Gold.Chemscore.Internal_Hbond.Weighted>
0.0000

> <Gold.Chemscore.DEClash.Weighted>
1.2939

> <Gold.Chemscore.DEInternal.Weighted>
3.6169

> <Gold.Chemscore.Rot.Weighted>
6.4079

> <Gold.Chemscore.Internal.Correction.Weighted>
   9.000000E+99

> <Gold.Protein.RotatedTorsions>
[ 6907 6896 6895 6894 ] final  -95.85 input  -60.11 | X-H torsion
[ 7974 7965 7964 7962 ] final -161.17 input  175.53 | X-H torsion
[ 8008 7997 7996 7995 ] final   46.51 input   59.86 | X-H torsion
[ 10167 10162 10161 10158 ] final  165.12 input  -65.29 | X-H torsion
[ 10718 10713 10712 10709 ] final  -93.95 input   66.30 | X-H torsion
[ 10763 10752 10751 10750 ] final   49.30 input  -60.55 | X-H torsion
[ 11005 11000 10999 10996 ] final   34.37 input  -57.11 | X-H torsion

> <Gold.Protein.ActiveResidues>
 VAL166  LYS551  ARG553  GLY616  TRP617  ASP618  TYR619  PRO620  LYS621  CYS622 
 ASP623  PHE694  ASN695  SER759  ASP760  ASP761  ALA762  ILE779  LEU786  VAL792 
 PHE793  MET794  SER795  GLU796  ALA797  LYS798  CYS799  TRP800  GLU811  SER814 

> <Gold.Protein.RotatedAtoms>
  150.6974  134.1593  159.4169 H   0  0  0  0  0  0  0  0  0  0  0  0  # atno 6907 bound_to 6896
  151.9574  135.0138  160.0555 H   0  0  0  0  0  0  0  0  0  0  0  0  # atno 6908 bound_to 6896
  152.1957  133.4770  159.5068 H   0  0  0  0  0  0  0  0  0  0  0  0  # atno 6909 bound_to 6896
  144.7400  140.3436  143.6130 H   0  0  0  0  0  0  0  0  0  0  0  0  # atno 7974 bound_to 7965
  155.3537  140.3415  155.4239 H   0  0  0  0  0  0  0  0  0  0  0  0  # atno 8008 bound_to 7997
  156.1750  140.1644  156.8414 H   0  0  0  0  0  0  0  0  0  0  0  0  # atno 8009 bound_to 7997
  154.5272  140.0753  156.8263 H   0  0  0  0  0  0  0  0  0  0  0  0  # atno 8010 bound_to 7997
  139.4900  144.4165  151.9237 H   0  0  0  0  0  0  0  0  0  0  0  0  # atno 10167 bound_to 10162
  156.0020  130.5048  150.5854 H   0  0  0  0  0  0  0  0  0  0  0  0  # atno 10718 bound_to 10713
  152.9787  135.5916  154.4067 H   0  0  0  0  0  0  0  0  0  0  0  0  # atno 10763 bound_to 10752
  154.3706  135.2767  155.2270 H   0  0  0  0  0  0  0  0  0  0  0  0  # atno 10764 bound_to 10752
  154.4227  135.6055  153.6074 H   0  0  0  0  0  0  0  0  0  0  0  0  # atno 10765 bound_to 10752
  140.2535  134.3275  155.7882 H   0  0  0  0  0  0  0  0  0  0  0  0  # atno 11005 bound_to 11000
  145.7348  139.1747  143.2409 LP  0  0  0  0  0  0  0  0  0  0  0  0  # atno 17320 bound_to 7965
  146.1178  140.7347  142.9472 LP  0  0  0  0  0  0  0  0  0  0  0  0  # atno 17321 bound_to 7965
  140.3608  144.2975  150.5934 LP  0  0  0  0  0  0  0  0  0  0  0  0  # atno 17342 bound_to 10162
  140.5404  143.2224  151.8093 LP  0  0  0  0  0  0  0  0  0  0  0  0  # atno 17343 bound_to 10162
  157.3727  131.0768  151.1544 LP  0  0  0  0  0  0  0  0  0  0  0  0  # atno 17370 bound_to 10713
  157.2292  130.6517  149.5842 LP  0  0  0  0  0  0  0  0  0  0  0  0  # atno 17371 bound_to 10713
  141.2198  133.7368  156.9075 LP  0  0  0  0  0  0  0  0  0  0  0  0  # atno 17394 bound_to 11000
  140.1534  134.9215  157.2622 LP  0  0  0  0  0  0  0  0  0  0  0  0  # atno 17395 bound_to 11000

$$$$
