AV-unprocessed.smi:2702|AV-procd|sdf|10434|dock1
  -GOLD-   2272014473D 1   1.00000     0.00000
 Structure written by MMmdl.
 47 48  0  0  0  0  0  0  0  0  1 V2000
  152.2143  143.3531  159.7022 C   0  0  0  0  0  0  0  0  0  0  0  0
  151.3330  142.3531  159.2222 O   0  0  0  0  0  0  0  0  0  0  0  0
  150.5732  142.7891  158.1074 C   0  0  0  0  0  0  0  0  0  0  0  0
  150.3032  141.6331  157.1659 C   0  0  0  0  0  0  0  0  0  0  0  0
  151.3001  140.9916  156.5129 C   0  0  0  0  0  0  0  0  0  0  0  0
  151.0045  139.8858  155.6018 C   0  0  0  0  0  0  0  0  0  0  0  0
  151.8830  139.2746  154.9925 O   0  0  0  0  0  0  0  0  0  0  0  0
  149.6786  139.5808  155.4789 N   0  0  0  0  0  0  0  0  0  0  0  0
  149.2245  138.4872  154.6005 C   0  0  0  0  0  0  0  0  0  0  0  0
  148.4250  137.4082  155.3445 C   0  0  0  0  0  0  0  0  0  0  0  0
  148.1124  137.5612  156.5259 O   0  0  0  0  0  0  0  0  0  0  0  0
  148.1135  136.3156  154.6307 N   0  0  0  0  0  0  0  0  0  0  0  0
  147.3413  135.1633  155.1005 C   0  0  2  0  0  0  0  0  0  0  0  0
  148.2592  133.9324  155.2152 C   0  0  0  0  0  0  0  0  0  0  0  0
  148.7039  133.4196  153.8376 C   0  0  0  0  0  0  0  0  0  0  0  0
  147.4920  133.1246  152.9437 C   0  0  0  0  0  0  0  0  0  0  0  0
  146.5680  134.3507  152.7899 C   0  0  1  0  0  0  0  0  0  0  0  0
  145.3830  133.9964  151.8735 C   0  0  0  0  0  0  0  0  0  0  0  0
  146.1221  134.8790  154.1823 C   0  0  2  0  0  0  0  0  0  0  0  0
  145.1833  136.0996  154.0943 C   0  0  0  0  0  0  0  0  0  0  0  0
  148.6789  140.2925  156.1716 C   0  0  0  0  0  0  0  0  0  0  0  0
  148.9672  141.2670  156.9743 N   0  0  0  0  0  0  0  0  0  0  0  0
  152.7758  142.9684  160.5536 H   0  0  0  0  0  0  0  0  0  0  0  0
  151.6659  144.2365  160.0319 H   0  0  0  0  0  0  0  0  0  0  0  0
  152.9291  143.6508  158.9338 H   0  0  0  0  0  0  0  0  0  0  0  0
  149.6197  143.2030  158.4406 H   0  0  0  0  0  0  0  0  0  0  0  0
  151.1034  143.5835  157.5787 H   0  0  0  0  0  0  0  0  0  0  0  0
  152.3272  141.2909  156.6634 H   0  0  0  0  0  0  0  0  0  0  0  0
  148.6133  138.8995  153.7949 H   0  0  0  0  0  0  0  0  0  0  0  0
  150.0614  138.0001  154.0968 H   0  0  0  0  0  0  0  0  0  0  0  0
  148.4192  136.2852  153.6689 H   0  0  0  0  0  0  0  0  0  0  0  0
  146.9637  135.3700  156.1033 H   0  0  0  0  0  0  0  0  0  0  0  0
  149.1313  134.1666  155.8269 H   0  0  0  0  0  0  0  0  0  0  0  0
  147.7276  133.1361  155.7377 H   0  0  0  0  0  0  0  0  0  0  0  0
  149.3469  134.1561  153.3544 H   0  0  0  0  0  0  0  0  0  0  0  0
  149.3055  132.5180  153.9557 H   0  0  0  0  0  0  0  0  0  0  0  0
  147.8401  132.7945  151.9642 H   0  0  0  0  0  0  0  0  0  0  0  0
  146.9283  132.2911  153.3651 H   0  0  0  0  0  0  0  0  0  0  0  0
  147.1377  135.1364  152.2915 H   0  0  0  0  0  0  0  0  0  0  0  0
  144.7241  133.2644  152.3418 H   0  0  0  0  0  0  0  0  0  0  0  0
  145.7310  133.5729  150.9308 H   0  0  0  0  0  0  0  0  0  0  0  0
  144.7877  134.8742  151.6237 H   0  0  0  0  0  0  0  0  0  0  0  0
  145.5499  134.0829  154.6616 H   0  0  0  0  0  0  0  0  0  0  0  0
  145.6233  136.9057  153.5061 H   0  0  0  0  0  0  0  0  0  0  0  0
  144.9636  136.4952  155.0864 H   0  0  0  0  0  0  0  0  0  0  0  0
  144.2277  135.8400  153.6395 H   0  0  0  0  0  0  0  0  0  0  0  0
  147.6543  139.9690  155.9814 H   0  0  0  0  0  0  0  0  0  0  0  0
  1  2  1  0  0  0  0
  1 23  1  0  0  0  0
  1 24  1  0  0  0  0
  1 25  1  0  0  0  0
  2  3  1  0  0  0  0
  3  4  1  0  0  0  0
  3 26  1  0  0  0  0
  3 27  1  0  0  0  0
  4 22  1  0  0  0  0
  4  5  2  0  0  0  0
  5  6  1  0  0  0  0
  5 28  1  0  0  0  0
  6  7  2  0  0  0  0
  6  8  1  0  0  0  0
  8  9  1  0  0  0  0
  8 21  1  0  0  0  0
  9 10  1  0  0  0  0
  9 29  1  0  0  0  0
  9 30  1  0  0  0  0
 10 11  2  0  0  0  0
 10 12  1  0  0  0  0
 12 13  1  0  0  0  0
 12 31  1  0  0  0  0
 13 19  1  0  0  0  0
 13 14  1  0  0  0  0
 13 32  1  0  0  0  0
 14 15  1  0  0  0  0
 14 33  1  0  0  0  0
 14 34  1  0  0  0  0
 15 16  1  0  0  0  0
 15 35  1  0  0  0  0
 15 36  1  0  0  0  0
 16 17  1  0  0  0  0
 16 37  1  0  0  0  0
 16 38  1  0  0  0  0
 17 18  1  0  0  0  0
 17 19  1  0  0  0  0
 17 39  1  0  0  0  0
 18 40  1  0  0  0  0
 18 41  1  0  0  0  0
 18 42  1  0  0  0  0
 19 20  1  0  0  0  0
 19 43  1  0  0  0  0
 20 44  1  0  0  0  0
 20 45  1  0  0  0  0
 20 46  1  0  0  0  0
 21 22  2  0  0  0  0
 21 47  1  0  0  0  0
M  END
> <s_m_source_file>
AV-unprocessed.smi

> <i_m_source_file_index>
2702

> <i_lp_mmshare_version>
43012

> <i_f3d_flags>
0

> <s_epik_input>
W0NIM11PW0NIMl1jMVtjSF1jKD1PKW4oW2NIXW4xKVtDSDJdQyg9TylbTkhdW0NAQEhdMltDSDJdW0NIMl1bQ0gyXVtDQEBIXShbQ0gzXSlbQ0BIXTJbQ0gzXQ==

> <s_epik_cmdline>
J2VwaWtfcHl0aG9uJywgJy1waCcsICc3LjAnLCAnLXRuJywgJzgnLCAnLW1hJywgJzIwMCcsICctbWV0YWxfYmluZGluZycsICctaW1hZScsICc8aW5maWxlLm1hZT4nLCAnLW9tYWUnLCAnPG91dGZpbGUubWFlPic=

> <r_lp_tautomer_probability>
1

> <r_epik_Ionization_Penalty>
1.22164e-06

> <r_epik_Ionization_Penalty_Charging>
3.17988e-07

> <r_epik_Ionization_Penalty_Neutral>
9.03656e-07

> <r_epik_State_Penalty>
-0

> <r_epik_Charging_Adjusted_Penalty>
3.17988e-07

> <i_epik_Tot_Q>
0

> <i_epik_Tot_abs_Q>
0

> <r_epik_Metal_State_Penalty>
-0

> <b_epik_Metal_Only>
0

> <s_lp_Force_Field>
OPLS_2005

> <r_lp_Energy>
16.9419

> <b_lp_Chiralities_Consistent>
1

> <s_lp_Variant>
AV-unprocessed.smi:2702-5

> <Gold.Version>
5.8.1

> <Gold.Id.Protein>
6NUR|6NUR_protein|mol2

> <Gold.PLP.Fitness>
35.3817

> <Gold.PLP.PLP>
-29.9918

> <Gold.PLP.part.hbond>
-2.0000

> <Gold.PLP.part.metal>
0.0000

> <Gold.PLP.part.buried>
-3.6531

> <Gold.PLP.part.nonpolar>
-24.9229

> <Gold.PLP.part.repulsive>
0.1423

> <Gold.PLP.ligand.clash>
0.0000

> <Gold.PLP.ligand.torsion>
0.3281

> <Gold.PLP.Chemscore.Hbond>
2.0000

> <Gold.PLP.Chemscore.CHOScore>
0.0000

> <Gold.PLP.Chemscore.Metal>
0.0000

> <Gold.Chemscore.Hbonds>
donor molecule, donor type, donor heavy atom, donor atom, acceptor molecule, acceptor atom, score
      L1  H    12    31       P1  7948  1.00
      P1  H  7989  7998       L1     7  0.15

> <Gold.PLP.Chemscore.Internal.Correction>
0.0462

> <Gold.Rescore>
     Score         DG    S(hbond)    S(metal)    S(lipo)     H(rot)  DE(clash)    DE(int)     intcor
     12.13     -14.19       1.83        0.00      64.43       1.93       0.19       1.87       ----

> <Gold.Chemscore.Fitness>
12.1295

> <Gold.Chemscore.DG>
-14.1881

> <Gold.Chemscore.ZeroCoef>
-5.4800

> <Gold.Chemscore.Hbond>
1.8282

> <Gold.Chemscore.Metal>
0.0000

> <Gold.Chemscore.Lipo>
64.4339

> <Gold.Chemscore.Internal_Hbond>
0.0000

> <Gold.Chemscore.DEClash>
0.1889

> <Gold.Chemscore.DEInternal>
1.8697

> <Gold.Chemscore.Rot>
1.9284

> <Gold.Chemscore.Internal.Correction>
   9.000000E+99

> <Gold.Chemscore.Hbonds>
donor molecule, donor type, donor heavy atom, donor atom, acceptor molecule, acceptor atom, score
      L1  H    12    31       P1  7948  1.00

> <Gold.Chemscore.Hbond.Weighted>
-6.1061

> <Gold.Chemscore.Metal.Weighted>
-0.0000

> <Gold.Chemscore.Lipo.Weighted>
-7.5388

> <Gold.Chemscore.Internal_Hbond.Weighted>
0.0000

> <Gold.Chemscore.DEClash.Weighted>
0.1889

> <Gold.Chemscore.DEInternal.Weighted>
1.8697

> <Gold.Chemscore.Rot.Weighted>
4.9368

> <Gold.Chemscore.Internal.Correction.Weighted>
   9.000000E+99

> <Gold.Protein.RotatedTorsions>
[ 6907 6896 6895 6894 ] final  105.75 input  -60.11 | X-H torsion
[ 7974 7965 7964 7962 ] final  -44.39 input  175.53 | X-H torsion
[ 8008 7997 7996 7995 ] final   -5.25 input   59.86 | X-H torsion
[ 10167 10162 10161 10158 ] final  120.74 input  -65.29 | X-H torsion
[ 10718 10713 10712 10709 ] final  -13.96 input   66.30 | X-H torsion
[ 10763 10752 10751 10750 ] final  -30.53 input  -60.55 | X-H torsion
[ 11005 11000 10999 10996 ] final  148.60 input  -57.11 | X-H torsion

> <Gold.Protein.ActiveResidues>
 VAL166  LYS551  ARG553  GLY616  TRP617  ASP618  TYR619  PRO620  LYS621  CYS622 
 ASP623  PHE694  ASN695  SER759  ASP760  ASP761  ALA762  ILE779  LEU786  VAL792 
 PHE793  MET794  SER795  GLU796  ALA797  LYS798  CYS799  TRP800  GLU811  SER814 

> <Gold.Protein.RotatedAtoms>
  152.5219  133.9483  159.7659 H   0  0  0  0  0  0  0  0  0  0  0  0  # atno 6907 bound_to 6896
  150.9798  133.6249  159.2731 H   0  0  0  0  0  0  0  0  0  0  0  0  # atno 6908 bound_to 6896
  151.3430  135.0874  159.9430 H   0  0  0  0  0  0  0  0  0  0  0  0  # atno 6909 bound_to 6896
  145.9925  140.7164  142.9310 H   0  0  0  0  0  0  0  0  0  0  0  0  # atno 7974 bound_to 7965
  154.6059  140.2463  155.7732 H   0  0  0  0  0  0  0  0  0  0  0  0  # atno 8008 bound_to 7997
  156.2340  140.2956  156.0215 H   0  0  0  0  0  0  0  0  0  0  0  0  # atno 8009 bound_to 7997
  155.2134  140.0398  157.2927 H   0  0  0  0  0  0  0  0  0  0  0  0  # atno 8010 bound_to 7997
  139.5963  144.7042  151.3168 H   0  0  0  0  0  0  0  0  0  0  0  0  # atno 10167 bound_to 10162
  156.6228  130.4880  149.6158 H   0  0  0  0  0  0  0  0  0  0  0  0  # atno 10718 bound_to 10713
  153.7825  135.6904  153.4886 H   0  0  0  0  0  0  0  0  0  0  0  0  # atno 10763 bound_to 10752
  153.1802  135.4509  155.0016 H   0  0  0  0  0  0  0  0  0  0  0  0  # atno 10764 bound_to 10752
  154.8076  135.3363  154.7327 H   0  0  0  0  0  0  0  0  0  0  0  0  # atno 10765 bound_to 10752
  140.0973  134.9005  157.1743 H   0  0  0  0  0  0  0  0  0  0  0  0  # atno 11005 bound_to 11000
  144.6893  140.3095  143.7250 LP  0  0  0  0  0  0  0  0  0  0  0  0  # atno 17320 bound_to 7965
  145.7608  139.1824  143.2268 LP  0  0  0  0  0  0  0  0  0  0  0  0  # atno 17321 bound_to 7965
  140.7214  143.7124  150.7759 LP  0  0  0  0  0  0  0  0  0  0  0  0  # atno 17342 bound_to 10162
  140.0691  143.5079  152.2589 LP  0  0  0  0  0  0  0  0  0  0  0  0  # atno 17343 bound_to 10162
  156.2298  130.6787  151.1452 LP  0  0  0  0  0  0  0  0  0  0  0  0  # atno 17370 bound_to 10713
  157.7223  131.0674  150.6085 LP  0  0  0  0  0  0  0  0  0  0  0  0  # atno 17371 bound_to 10713
  140.3268  134.2854  155.7235 LP  0  0  0  0  0  0  0  0  0  0  0  0  # atno 17394 bound_to 11000
  141.2096  133.7745  156.9988 LP  0  0  0  0  0  0  0  0  0  0  0  0  # atno 17395 bound_to 11000

$$$$
