AV-unprocessed.smi:1569|AV-procd|sdf|6311|dock2
  -GOLD-   22720 6513D 1   1.00000     0.00000
 Structure written by MMmdl.
 33 34  0  0  0  0  0  0  0  0  1 V2000
  152.5938  143.1096  161.9825 C   0  0  0  0  0  0  0  0  0  0  0  0
  152.0073  143.3152  160.6284 C   0  0  0  0  0  0  0  0  0  0  0  0
  151.6298  142.3158  159.8272 N   0  0  0  0  0  0  0  0  0  0  0  0
  151.1355  142.7677  158.5998 C   0  0  0  0  0  0  0  0  0  0  0  0
  150.7055  141.7795  157.5537 C   0  0  0  0  0  0  0  0  0  0  0  0
  151.8467  140.8734  157.0488 C   0  0  0  0  0  0  0  0  0  0  0  0
  151.3632  139.8152  156.1635 N   0  0  0  0  0  0  0  0  0  0  0  0
  152.1261  139.0927  155.3279 C   0  0  0  0  0  0  0  0  0  0  0  0
  153.3508  139.2076  155.2628 O   0  0  0  0  0  0  0  0  0  0  0  0
  151.3807  138.1013  154.4257 C   0  0  0  0  0  0  0  0  0  0  0  0
  150.6752  137.0672  155.1873 N   0  0  0  0  0  0  0  0  0  0  0  0
  149.2347  136.9278  155.0011 C   0  0  0  0  0  0  0  0  0  0  0  0
  148.7649  135.3401  155.7323 S   0  0  0  0  0  0  0  0  0  0  0  0
  150.3025  135.2144  156.6616 C   0  0  0  0  0  0  0  0  0  0  0  0
  151.2647  136.2138  156.0427 C   0  0  0  0  0  0  0  0  0  0  0  0
  152.4633  136.2064  156.3211 O   0  0  0  0  0  0  0  0  0  0  0  0
  151.1228  144.1366  158.4927 C   0  0  0  0  0  0  0  0  0  0  0  0
  151.7537  144.9061  159.9222 S   0  0  0  0  0  0  0  0  0  0  0  0
  152.3948  142.0979  162.3376 H   0  0  0  0  0  0  0  0  0  0  0  0
  152.1622  143.8185  162.6892 H   0  0  0  0  0  0  0  0  0  0  0  0
  153.6725  143.2628  161.9458 H   0  0  0  0  0  0  0  0  0  0  0  0
  149.9004  141.1551  157.9423 H   0  0  0  0  0  0  0  0  0  0  0  0
  150.2774  142.3122  156.7039 H   0  0  0  0  0  0  0  0  0  0  0  0
  152.6034  141.4779  156.5460 H   0  0  0  0  0  0  0  0  0  0  0  0
  152.3488  140.4093  157.8978 H   0  0  0  0  0  0  0  0  0  0  0  0
  150.3676  139.6477  156.1577 H   0  0  0  0  0  0  0  0  0  0  0  0
  150.6881  138.6537  153.7886 H   0  0  0  0  0  0  0  0  0  0  0  0
  152.0937  137.6192  153.7551 H   0  0  0  0  0  0  0  0  0  0  0  0
  148.7151  137.7393  155.5112 H   0  0  0  0  0  0  0  0  0  0  0  0
  148.9637  136.9514  153.9457 H   0  0  0  0  0  0  0  0  0  0  0  0
  150.1288  135.4707  157.7068 H   0  0  0  0  0  0  0  0  0  0  0  0
  150.6991  134.2000  156.6110 H   0  0  0  0  0  0  0  0  0  0  0  0
  150.7953  144.7360  157.6566 H   0  0  0  0  0  0  0  0  0  0  0  0
  1  2  1  0  0  0  0
  1 19  1  0  0  0  0
  1 20  1  0  0  0  0
  1 21  1  0  0  0  0
  2 18  1  0  0  0  0
  2  3  2  0  0  0  0
  3  4  1  0  0  0  0
  4  5  1  0  0  0  0
  4 17  2  0  0  0  0
  5  6  1  0  0  0  0
  5 22  1  0  0  0  0
  5 23  1  0  0  0  0
  6  7  1  0  0  0  0
  6 24  1  0  0  0  0
  6 25  1  0  0  0  0
  7  8  1  0  0  0  0
  7 26  1  0  0  0  0
  8  9  2  0  0  0  0
  8 10  1  0  0  0  0
 10 11  1  0  0  0  0
 10 27  1  0  0  0  0
 10 28  1  0  0  0  0
 11 15  1  0  0  0  0
 11 12  1  0  0  0  0
 12 13  1  0  0  0  0
 12 29  1  0  0  0  0
 12 30  1  0  0  0  0
 13 14  1  0  0  0  0
 14 15  1  0  0  0  0
 14 31  1  0  0  0  0
 14 32  1  0  0  0  0
 15 16  2  0  0  0  0
 17 18  1  0  0  0  0
 17 33  1  0  0  0  0
M  END
> <s_m_source_file>
AV-unprocessed.smi

> <i_m_source_file_index>
1569

> <i_lp_mmshare_version>
43012

> <i_f3d_flags>
0

> <s_epik_input>
W0NIM11jMW5jKFtjSF1zMSlbQ0gyXVtDSDJdW05IXUMoPU8pW0NIMl1OMltDSDJdU1tDSDJdQzI9Tw==

> <s_epik_cmdline>
J2VwaWtfcHl0aG9uJywgJy1waCcsICc3LjAnLCAnLXRuJywgJzgnLCAnLW1hJywgJzIwMCcsICctbWV0YWxfYmluZGluZycsICctaW1hZScsICc8aW5maWxlLm1hZT4nLCAnLW9tYWUnLCAnPG91dGZpbGUubWFlPic=

> <r_epik_Ionization_Penalty>
0.00098942

> <r_epik_Ionization_Penalty_Charging>
0

> <r_epik_Ionization_Penalty_Neutral>
0.00098942

> <r_epik_State_Penalty>
0.00064447

> <r_epik_Charging_Adjusted_Penalty>
0.00064447

> <i_epik_Tot_Q>
0

> <i_epik_Tot_abs_Q>
0

> <r_epik_Metal_State_Penalty>
-0

> <b_epik_Metal_Only>
0

> <s_epik_Chemistry_Notes>
This compound contains an acetal/aminal-like group ( X-CH(R)-Y where X, Y are N, S, or O) that may be acid/base labile, releasing an aldehyde.

> <s_lp_Force_Field>
OPLS_2005

> <r_lp_Energy>
2.37506

> <b_lp_Chiralities_Consistent>
1

> <s_lp_Variant>
AV-unprocessed.smi:1569-1

> <Gold.Version>
5.8.1

> <Gold.Id.Protein>
6NUR|6NUR_protein|mol2

> <Gold.PLP.Fitness>
44.5617

> <Gold.PLP.PLP>
-35.8563

> <Gold.PLP.part.hbond>
-2.0000

> <Gold.PLP.part.metal>
0.0000

> <Gold.PLP.part.buried>
-6.4320

> <Gold.PLP.part.nonpolar>
-27.6548

> <Gold.PLP.part.repulsive>
0.1219

> <Gold.PLP.ligand.clash>
0.0000

> <Gold.PLP.ligand.torsion>
0.1452

> <Gold.PLP.Chemscore.Hbond>
2.0000

> <Gold.PLP.Chemscore.CHOScore>
0.9936

> <Gold.PLP.Chemscore.Metal>
0.0000

> <Gold.Chemscore.Hbonds>
donor molecule, donor type, donor heavy atom, donor atom, acceptor molecule, acceptor atom, score
      P1  H  7997  8010       L1     9  1.00
      P1  H 10752 10765       L1    16  1.00
      L1  C    17    33       P1  8028  0.52

> <Gold.PLP.Chemscore.Internal.Correction>
0.0150

> <Gold.Rescore>
     Score         DG    S(hbond)    S(metal)    S(lipo)     H(rot)  DE(clash)    DE(int)     intcor
     16.97     -17.26       1.90        0.00      88.53       1.92       0.03       0.26       ----

> <Gold.Chemscore.Fitness>
16.9708

> <Gold.Chemscore.DG>
-17.2559

> <Gold.Chemscore.ZeroCoef>
-5.4800

> <Gold.Chemscore.Hbond>
1.8971

> <Gold.Chemscore.Metal>
0.0000

> <Gold.Chemscore.Lipo>
88.5342

> <Gold.Chemscore.Internal_Hbond>
0.0000

> <Gold.Chemscore.DEClash>
0.0255

> <Gold.Chemscore.DEInternal>
0.2596

> <Gold.Chemscore.Rot>
1.9215

> <Gold.Chemscore.Internal.Correction>
   9.000000E+99

> <Gold.Chemscore.Hbonds>
donor molecule, donor type, donor heavy atom, donor atom, acceptor molecule, acceptor atom, score
      P1  H  7997  8010       L1     9  0.98
      P1  H 10752 10765       L1    16  0.91

> <Gold.Chemscore.Hbond.Weighted>
-6.3364

> <Gold.Chemscore.Metal.Weighted>
-0.0000

> <Gold.Chemscore.Lipo.Weighted>
-10.3585

> <Gold.Chemscore.Internal_Hbond.Weighted>
0.0000

> <Gold.Chemscore.DEClash.Weighted>
0.0255

> <Gold.Chemscore.DEInternal.Weighted>
0.2596

> <Gold.Chemscore.Rot.Weighted>
4.9190

> <Gold.Chemscore.Internal.Correction.Weighted>
   9.000000E+99

> <Gold.Protein.RotatedTorsions>
[ 6907 6896 6895 6894 ] final -160.97 input  -60.11 | X-H torsion
[ 7974 7965 7964 7962 ] final  179.28 input  175.53 | X-H torsion
[ 8008 7997 7996 7995 ] final   94.93 input   59.86 | X-H torsion
[ 10167 10162 10161 10158 ] final  102.04 input  -65.29 | X-H torsion
[ 10718 10713 10712 10709 ] final -131.91 input   66.30 | X-H torsion
[ 10763 10752 10751 10750 ] final -125.49 input  -60.55 | X-H torsion
[ 11005 11000 10999 10996 ] final -168.29 input  -57.11 | X-H torsion

> <Gold.Protein.ActiveResidues>
 VAL166  LYS551  ARG553  GLY616  TRP617  ASP618  TYR619  PRO620  LYS621  CYS622 
 ASP623  PHE694  ASN695  SER759  ASP760  ASP761  ALA762  ILE779  LEU786  VAL792 
 PHE793  MET794  SER795  GLU796  ALA797  LYS798  CYS799  TRP800  GLU811  SER814 

> <Gold.Protein.RotatedAtoms>
  151.3573  133.3902  159.2685 H   0  0  0  0  0  0  0  0  0  0  0  0  # atno 6907 bound_to 6896
  150.9753  134.9120  159.7823 H   0  0  0  0  0  0  0  0  0  0  0  0  # atno 6908 bound_to 6896
  152.5199  134.3536  159.9312 H   0  0  0  0  0  0  0  0  0  0  0  0  # atno 6909 bound_to 6896
  144.7147  140.0524  143.6435 H   0  0  0  0  0  0  0  0  0  0  0  0  # atno 7974 bound_to 7965
  156.0633  140.3293  155.7487 H   0  0  0  0  0  0  0  0  0  0  0  0  # atno 8008 bound_to 7997
  155.5421  140.0602  157.2885 H   0  0  0  0  0  0  0  0  0  0  0  0  # atno 8009 bound_to 7997
  154.4492  140.1909  156.0589 H   0  0  0  0  0  0  0  0  0  0  0  0  # atno 8010 bound_to 7997
  139.7385  144.7017  151.0612 H   0  0  0  0  0  0  0  0  0  0  0  0  # atno 10167 bound_to 10162
  156.2291  130.7026  151.0839 H   0  0  0  0  0  0  0  0  0  0  0  0  # atno 10718 bound_to 10713
  154.8736  135.4027  154.3277 H   0  0  0  0  0  0  0  0  0  0  0  0  # atno 10763 bound_to 10752
  153.4095  135.7020  153.6374 H   0  0  0  0  0  0  0  0  0  0  0  0  # atno 10764 bound_to 10752
  153.5083  135.3713  155.2544 H   0  0  0  0  0  0  0  0  0  0  0  0  # atno 10765 bound_to 10752
  140.5436  134.5498  157.5106 H   0  0  0  0  0  0  0  0  0  0  0  0  # atno 11005 bound_to 11000
  145.9933  139.3032  143.0972 LP  0  0  0  0  0  0  0  0  0  0  0  0  # atno 17320 bound_to 7965
  145.8878  140.9323  143.0568 LP  0  0  0  0  0  0  0  0  0  0  0  0  # atno 17321 bound_to 7965
  140.7782  143.4954  150.9839 LP  0  0  0  0  0  0  0  0  0  0  0  0  # atno 17342 bound_to 10162
  139.8642  143.7275  152.3171 LP  0  0  0  0  0  0  0  0  0  0  0  0  # atno 17343 bound_to 10162
  157.7125  131.0727  150.6450 LP  0  0  0  0  0  0  0  0  0  0  0  0  # atno 17370 bound_to 10713
  156.6517  130.4487  149.5717 LP  0  0  0  0  0  0  0  0  0  0  0  0  # atno 17371 bound_to 10713
  139.9491  134.7649  156.0491 LP  0  0  0  0  0  0  0  0  0  0  0  0  # atno 17394 bound_to 11000
  141.1213  133.6612  156.3221 LP  0  0  0  0  0  0  0  0  0  0  0  0  # atno 17395 bound_to 11000

$$$$
