AV-unprocessed.smi:3271|AV-procd|sdf|12517|dock8
  -GOLD-   2272018433D 1   1.00000     0.00000
 Structure written by MMmdl.
 41 41  0  0  0  0  0  0  0  0  1 V2000
  145.9370  132.4536  151.4914 C   0  0  0  0  0  0  0  0  0  0  0  0
  145.6407  133.5745  152.5007 C   0  0  0  0  0  0  0  0  0  0  0  0
  146.8943  134.1799  153.1739 C   0  0  0  0  0  0  0  0  0  0  0  0
  147.6255  133.1138  154.0216 C   0  0  0  0  0  0  0  0  0  0  0  0
  149.0160  132.7263  153.4933 C   0  0  0  0  0  0  0  0  0  0  0  0
  146.5367  135.4154  154.0177 C   0  0  0  0  0  0  0  0  0  0  0  0
  145.7778  135.3120  154.9818 O   0  0  0  0  0  0  0  0  0  0  0  0
  147.0860  136.5771  153.6341 N   0  0  0  0  0  0  0  0  0  0  0  0
  146.8305  137.8748  154.2535 C   0  0  0  0  0  0  0  0  0  0  0  0
  147.5873  139.0430  153.5688 C   0  0  2  0  0  0  0  0  0  0  0  0
  146.8058  140.3564  153.7454 C   0  0  0  0  0  0  0  0  0  0  0  0
  147.5647  138.7911  152.1764 O   0  0  0  0  0  0  0  0  0  0  0  0
  149.0015  139.2080  154.0883 C   0  0  0  0  0  0  0  0  0  0  0  0
  149.6010  140.3604  154.6770 C   0  0  0  0  0  0  0  0  0  0  0  0
  150.8678  140.1741  155.0094 N   0  0  0  0  0  0  0  0  0  0  0  0
  151.1215  138.8981  154.6568 N   0  0  0  0  0  0  0  0  0  0  0  0
  152.4403  138.3452  154.8782 C   0  0  0  0  0  0  0  0  0  0  0  0
  150.0156  138.2902  154.1044 C   0  0  0  0  0  0  0  0  0  0  0  0
  145.0117  132.0034  151.1321 H   0  0  0  0  0  0  0  0  0  0  0  0
  146.5377  131.6631  151.9424 H   0  0  0  0  0  0  0  0  0  0  0  0
  146.4740  132.8300  150.6209 H   0  0  0  0  0  0  0  0  0  0  0  0
  145.0639  134.3589  152.0083 H   0  0  0  0  0  0  0  0  0  0  0  0
  144.9880  133.1679  153.2739 H   0  0  0  0  0  0  0  0  0  0  0  0
  147.5730  134.4917  152.3778 H   0  0  0  0  0  0  0  0  0  0  0  0
  147.7136  133.4532  155.0547 H   0  0  0  0  0  0  0  0  0  0  0  0
  147.0151  132.2110  154.0583 H   0  0  0  0  0  0  0  0  0  0  0  0
  149.4489  131.9298  154.0989 H   0  0  0  0  0  0  0  0  0  0  0  0
  149.7087  133.5677  153.5187 H   0  0  0  0  0  0  0  0  0  0  0  0
  148.9601  132.3675  152.4653 H   0  0  0  0  0  0  0  0  0  0  0  0
  147.6958  136.5686  152.8297 H   0  0  0  0  0  0  0  0  0  0  0  0
  145.7618  138.0804  154.3418 H   0  0  0  0  0  0  0  0  0  0  0  0
  147.1938  137.7742  155.2767 H   0  0  0  0  0  0  0  0  0  0  0  0
  146.7414  140.6413  154.7961 H   0  0  0  0  0  0  0  0  0  0  0  0
  145.7860  140.2691  153.3679 H   0  0  0  0  0  0  0  0  0  0  0  0
  147.2856  141.1789  153.2131 H   0  0  0  0  0  0  0  0  0  0  0  0
  148.4222  138.9721  151.8231 H   0  0  0  0  0  0  0  0  0  0  0  0
  149.1567  141.3271  154.8629 H   0  0  0  0  0  0  0  0  0  0  0  0
  152.4302  137.2699  154.6967 H   0  0  0  0  0  0  0  0  0  0  0  0
  152.7518  138.5270  155.9075 H   0  0  0  0  0  0  0  0  0  0  0  0
  153.1534  138.8137  154.1993 H   0  0  0  0  0  0  0  0  0  0  0  0
  150.0406  137.2659  153.7627 H   0  0  0  0  0  0  0  0  0  0  0  0
  1  2  1  0  0  0  0
  1 19  1  0  0  0  0
  1 20  1  0  0  0  0
  1 21  1  0  0  0  0
  2  3  1  0  0  0  0
  2 22  1  0  0  0  0
  2 23  1  0  0  0  0
  3  4  1  0  0  0  0
  3  6  1  0  0  0  0
  3 24  1  0  0  0  0
  4  5  1  0  0  0  0
  4 25  1  0  0  0  0
  4 26  1  0  0  0  0
  5 27  1  0  0  0  0
  5 28  1  0  0  0  0
  5 29  1  0  0  0  0
  6  7  2  0  0  0  0
  6  8  1  0  0  0  0
  8  9  1  0  0  0  0
  8 30  1  0  0  0  0
  9 10  1  0  0  0  0
  9 31  1  0  0  0  0
  9 32  1  0  0  0  0
 10 11  1  0  0  0  0
 10 12  1  0  0  0  0
 10 13  1  0  0  0  0
 11 33  1  0  0  0  0
 11 34  1  0  0  0  0
 11 35  1  0  0  0  0
 12 36  1  0  0  0  0
 13 18  2  0  0  0  0
 13 14  1  0  0  0  0
 14 15  2  0  0  0  0
 14 37  1  0  0  0  0
 15 16  1  0  0  0  0
 16 17  1  0  0  0  0
 16 18  1  0  0  0  0
 17 38  1  0  0  0  0
 17 39  1  0  0  0  0
 17 40  1  0  0  0  0
 18 41  1  0  0  0  0
M  END
> <s_m_source_file>
AV-unprocessed.smi

> <i_m_source_file_index>
3271

> <i_lp_mmshare_version>
43012

> <i_f3d_flags>
0

> <s_epik_input>
W0NIM11bQ0gyXVtDSF0oW0NIMl1bQ0gzXSlDKD1PKVtOSF1bQ0gyXVtDQEBdKFtDSDNdKShbT0hdKWMxW2NIXW5uKFtDSDNdKVtjSF0x

> <s_epik_cmdline>
J2VwaWtfcHl0aG9uJywgJy1waCcsICc3LjAnLCAnLXRuJywgJzgnLCAnLW1hJywgJzIwMCcsICctbWV0YWxfYmluZGluZycsICctaW1hZScsICc8aW5maWxlLm1hZT4nLCAnLW9tYWUnLCAnPG91dGZpbGUubWFlPic=

> <r_lp_tautomer_probability>
1

> <r_epik_Ionization_Penalty>
6.03488e-05

> <r_epik_Ionization_Penalty_Charging>
0

> <r_epik_Ionization_Penalty_Neutral>
6.03488e-05

> <r_epik_State_Penalty>
-0

> <r_epik_Charging_Adjusted_Penalty>
0

> <i_epik_Tot_Q>
0

> <i_epik_Tot_abs_Q>
0

> <r_epik_Metal_State_Penalty>
-0

> <b_epik_Metal_Only>
0

> <s_lp_Force_Field>
OPLS_2005

> <r_lp_Energy>
0.383254

> <b_lp_Chiralities_Consistent>
1

> <s_lp_Variant>
AV-unprocessed.smi:3271-2

> <Gold.Version>
5.8.1

> <Gold.Id.Protein>
6NUR|6NUR_protein|mol2

> <Gold.PLP.Fitness>
40.3364

> <Gold.PLP.PLP>
-31.5052

> <Gold.PLP.part.hbond>
-4.0000

> <Gold.PLP.part.metal>
0.0000

> <Gold.PLP.part.buried>
-1.8012

> <Gold.PLP.part.nonpolar>
-25.5749

> <Gold.PLP.part.repulsive>
0.0833

> <Gold.PLP.ligand.clash>
0.0000

> <Gold.PLP.ligand.torsion>
1.2037

> <Gold.PLP.Chemscore.Hbond>
2.6650

> <Gold.PLP.Chemscore.CHOScore>
1.0421

> <Gold.PLP.Chemscore.Metal>
0.0000

> <Gold.Chemscore.Hbonds>
donor molecule, donor type, donor heavy atom, donor atom, acceptor molecule, acceptor atom, score
      L1  H     8    30       P1  7948  1.00
      L1  H    12    36       P1  7957  1.00
      P1  H  7989  7998       L1    15  0.63
      L1  C    18    41       P1  7948  1.00
      L1  C    18    41       P1  7949  0.03

> <Gold.PLP.Chemscore.Internal.Correction>
0.1174

> <Gold.Rescore>
     Score         DG    S(hbond)    S(metal)    S(lipo)     H(rot)  DE(clash)    DE(int)     intcor
     12.86     -14.08       1.97        0.00      68.46       2.33       0.05       1.18       ----

> <Gold.Chemscore.Fitness>
12.8560

> <Gold.Chemscore.DG>
-14.0832

> <Gold.Chemscore.ZeroCoef>
-5.4800

> <Gold.Chemscore.Hbond>
1.9665

> <Gold.Chemscore.Metal>
0.0000

> <Gold.Chemscore.Lipo>
68.4634

> <Gold.Chemscore.Internal_Hbond>
0.0000

> <Gold.Chemscore.DEClash>
0.0455

> <Gold.Chemscore.DEInternal>
1.1817

> <Gold.Chemscore.Rot>
2.3341

> <Gold.Chemscore.Internal.Correction>
   9.000000E+99

> <Gold.Chemscore.Hbonds>
donor molecule, donor type, donor heavy atom, donor atom, acceptor molecule, acceptor atom, score
      L1  H     8    30       P1  7948  0.99
      L1  H    12    36       P1  7957  0.88
      P1  H  7989  7998       L1    15  0.01

> <Gold.Chemscore.Hbond.Weighted>
-6.5682

> <Gold.Chemscore.Metal.Weighted>
-0.0000

> <Gold.Chemscore.Lipo.Weighted>
-8.0102

> <Gold.Chemscore.Internal_Hbond.Weighted>
0.0000

> <Gold.Chemscore.DEClash.Weighted>
0.0455

> <Gold.Chemscore.DEInternal.Weighted>
1.1817

> <Gold.Chemscore.Rot.Weighted>
5.9753

> <Gold.Chemscore.Internal.Correction.Weighted>
   9.000000E+99

> <Gold.Protein.RotatedTorsions>
[ 6907 6896 6895 6894 ] final  152.03 input  -60.11 | X-H torsion
[ 7974 7965 7964 7962 ] final  -84.28 input  175.53 | X-H torsion
[ 8008 7997 7996 7995 ] final -169.04 input   59.86 | X-H torsion
[ 10167 10162 10161 10158 ] final -129.42 input  -65.29 | X-H torsion
[ 10718 10713 10712 10709 ] final  -79.58 input   66.30 | X-H torsion
[ 10763 10752 10751 10750 ] final -139.49 input  -60.55 | X-H torsion
[ 11005 11000 10999 10996 ] final -147.86 input  -57.11 | X-H torsion

> <Gold.Protein.ActiveResidues>
 VAL166  LYS551  ARG553  GLY616  TRP617  ASP618  TYR619  PRO620  LYS621  CYS622 
 ASP623  PHE694  ASN695  SER759  ASP760  ASP761  ALA762  ILE779  LEU786  VAL792 
 PHE793  MET794  SER795  GLU796  ALA797  LYS798  CYS799  TRP800  GLU811  SER814 

> <Gold.Protein.RotatedAtoms>
  152.0924  133.4207  159.4549 H   0  0  0  0  0  0  0  0  0  0  0  0  # atno 6907 bound_to 6896
  150.6862  134.2856  159.4654 H   0  0  0  0  0  0  0  0  0  0  0  0  # atno 6908 bound_to 6896
  152.0709  134.9533  160.0625 H   0  0  0  0  0  0  0  0  0  0  0  0  # atno 6909 bound_to 6896
  145.5087  140.9541  143.1719 H   0  0  0  0  0  0  0  0  0  0  0  0  # atno 7974 bound_to 7965
  155.8995  140.1038  157.1360 H   0  0  0  0  0  0  0  0  0  0  0  0  # atno 8008 bound_to 7997
  154.4024  140.1295  156.4482 H   0  0  0  0  0  0  0  0  0  0  0  0  # atno 8009 bound_to 7997
  155.7439  140.3466  155.5120 H   0  0  0  0  0  0  0  0  0  0  0  0  # atno 8010 bound_to 7997
  139.9400  143.6174  152.2506 H   0  0  0  0  0  0  0  0  0  0  0  0  # atno 10167 bound_to 10162
  156.0089  130.4550  150.3670 H   0  0  0  0  0  0  0  0  0  0  0  0  # atno 10718 bound_to 10713
  154.8607  135.3581  154.5555 H   0  0  0  0  0  0  0  0  0  0  0  0  # atno 10763 bound_to 10752
  153.6172  135.7007  153.5329 H   0  0  0  0  0  0  0  0  0  0  0  0  # atno 10764 bound_to 10752
  153.3159  135.4165  155.1336 H   0  0  0  0  0  0  0  0  0  0  0  0  # atno 10765 bound_to 10752
  140.7672  134.3230  157.5085 H   0  0  0  0  0  0  0  0  0  0  0  0  # atno 11005 bound_to 11000
  144.7739  139.6672  143.7183 LP  0  0  0  0  0  0  0  0  0  0  0  0  # atno 17320 bound_to 7965
  146.2180  139.5585  142.9637 LP  0  0  0  0  0  0  0  0  0  0  0  0  # atno 17321 bound_to 7965
  139.6712  144.7660  151.1779 LP  0  0  0  0  0  0  0  0  0  0  0  0  # atno 17342 bound_to 10162
  140.7613  143.5862  150.8843 LP  0  0  0  0  0  0  0  0  0  0  0  0  # atno 17343 bound_to 10162
  157.1757  131.0379  151.2774 LP  0  0  0  0  0  0  0  0  0  0  0  0  # atno 17370 bound_to 10713
  157.4190  130.7427  149.6898 LP  0  0  0  0  0  0  0  0  0  0  0  0  # atno 17371 bound_to 10713
  139.8761  134.9239  156.3335 LP  0  0  0  0  0  0  0  0  0  0  0  0  # atno 17394 bound_to 11000
  140.9608  133.7390  156.0398 LP  0  0  0  0  0  0  0  0  0  0  0  0  # atno 17395 bound_to 11000

$$$$
