AV-unprocessed.smi:2242|AV-procd|sdf|9060|dock2
  -GOLD-   2272012263D 1   1.00000     0.00000
 Structure written by MMmdl.
 43 44  0  0  0  0  0  0  0  0  1 V2000
  145.3124  132.1215  149.9548 C   0  0  0  0  0  0  0  0  0  0  0  0
  144.8324  133.2225  150.8767 C   0  0  0  0  0  0  0  0  0  0  0  0
  143.5234  133.2132  151.3953 C   0  0  0  0  0  0  0  0  0  0  0  0
  143.1384  134.2679  152.2460 C   0  0  0  0  0  0  0  0  0  0  0  0
  141.7471  134.3221  152.8412 C   0  0  0  0  0  0  0  0  0  0  0  0
  143.9640  135.2817  152.5830 N   0  0  0  0  0  0  0  0  0  0  0  0
  145.2266  135.3013  152.0885 C   0  0  0  0  0  0  0  0  0  0  0  0
  146.1705  136.3218  152.3780 N   0  0  0  0  0  0  0  0  0  0  0  0
  146.0100  137.4072  153.1552 C   0  0  0  0  0  0  0  0  0  0  0  0
  144.9815  137.6990  153.7661 O   0  0  0  0  0  0  0  0  0  0  0  0
  147.1303  138.1449  153.1880 N   0  0  0  0  0  0  0  0  0  0  0  0
  147.3211  139.3895  153.9338 C   0  0  2  0  0  0  0  0  0  0  0  0
  147.2122  140.5597  152.9412 C   0  0  0  0  0  0  0  0  0  0  0  0
  148.6678  139.3585  154.7047 C   0  0  0  0  0  0  0  0  0  0  0  0
  149.2075  140.7723  155.0109 C   0  0  0  0  0  0  0  0  0  0  0  0
  150.5766  140.7114  155.7064 C   0  0  0  0  0  0  0  0  0  0  0  0
  151.4995  139.9878  154.9021 O   0  0  0  0  0  0  0  0  0  0  0  0
  151.1065  138.6362  154.7011 C   0  0  0  0  0  0  0  0  0  0  0  0
  149.7660  138.5817  153.9503 C   0  0  0  0  0  0  0  0  0  0  0  0
  145.6935  134.2806  151.2304 C   0  0  0  0  0  0  0  0  0  0  0  0
  144.5306  131.3820  149.7785 H   0  0  0  0  0  0  0  0  0  0  0  0
  146.1723  131.6124  150.3906 H   0  0  0  0  0  0  0  0  0  0  0  0
  145.6105  132.5389  148.9927 H   0  0  0  0  0  0  0  0  0  0  0  0
  142.8332  132.4197  151.1478 H   0  0  0  0  0  0  0  0  0  0  0  0
  141.1438  133.4737  152.5169 H   0  0  0  0  0  0  0  0  0  0  0  0
  141.2396  135.2371  152.5349 H   0  0  0  0  0  0  0  0  0  0  0  0
  141.7998  134.3062  153.9302 H   0  0  0  0  0  0  0  0  0  0  0  0
  147.0731  136.2139  151.9395 H   0  0  0  0  0  0  0  0  0  0  0  0
  147.9216  137.8183  152.6529 H   0  0  0  0  0  0  0  0  0  0  0  0
  146.5188  139.5084  154.6640 H   0  0  0  0  0  0  0  0  0  0  0  0
  147.2096  141.5226  153.4509 H   0  0  0  0  0  0  0  0  0  0  0  0
  146.2841  140.5026  152.3710 H   0  0  0  0  0  0  0  0  0  0  0  0
  148.0388  140.5572  152.2300 H   0  0  0  0  0  0  0  0  0  0  0  0
  148.4988  138.8557  155.6584 H   0  0  0  0  0  0  0  0  0  0  0  0
  149.2971  141.3406  154.0840 H   0  0  0  0  0  0  0  0  0  0  0  0
  148.5150  141.3234  155.6471 H   0  0  0  0  0  0  0  0  0  0  0  0
  150.9617  141.7193  155.8623 H   0  0  0  0  0  0  0  0  0  0  0  0
  150.4922  140.2480  156.6906 H   0  0  0  0  0  0  0  0  0  0  0  0
  151.8791  138.1286  154.1235 H   0  0  0  0  0  0  0  0  0  0  0  0
  151.0366  138.1200  155.6598 H   0  0  0  0  0  0  0  0  0  0  0  0
  149.4818  137.5382  153.8192 H   0  0  0  0  0  0  0  0  0  0  0  0
  149.8946  138.9996  152.9509 H   0  0  0  0  0  0  0  0  0  0  0  0
  146.7021  134.3070  150.8434 H   0  0  0  0  0  0  0  0  0  0  0  0
  1  2  1  0  0  0  0
  1 21  1  0  0  0  0
  1 22  1  0  0  0  0
  1 23  1  0  0  0  0
  2 20  1  0  0  0  0
  2  3  2  0  0  0  0
  3  4  1  0  0  0  0
  3 24  1  0  0  0  0
  4  5  1  0  0  0  0
  4  6  2  0  0  0  0
  5 25  1  0  0  0  0
  5 26  1  0  0  0  0
  5 27  1  0  0  0  0
  6  7  1  0  0  0  0
  7  8  1  0  0  0  0
  7 20  2  0  0  0  0
  8  9  1  0  0  0  0
  8 28  1  0  0  0  0
  9 10  2  0  0  0  0
  9 11  1  0  0  0  0
 11 12  1  0  0  0  0
 11 29  1  0  0  0  0
 12 13  1  0  0  0  0
 12 14  1  0  0  0  0
 12 30  1  0  0  0  0
 13 31  1  0  0  0  0
 13 32  1  0  0  0  0
 13 33  1  0  0  0  0
 14 19  1  0  0  0  0
 14 15  1  0  0  0  0
 14 34  1  0  0  0  0
 15 16  1  0  0  0  0
 15 35  1  0  0  0  0
 15 36  1  0  0  0  0
 16 17  1  0  0  0  0
 16 37  1  0  0  0  0
 16 38  1  0  0  0  0
 17 18  1  0  0  0  0
 18 19  1  0  0  0  0
 18 39  1  0  0  0  0
 18 40  1  0  0  0  0
 19 41  1  0  0  0  0
 19 42  1  0  0  0  0
 20 43  1  0  0  0  0
M  END
> <s_m_source_file>
AV-unprocessed.smi

> <i_m_source_file_index>
2242

> <i_lp_mmshare_version>
43012

> <i_f3d_flags>
0

> <s_epik_input>
W0NIM11jMVtjSF1jKFtDSDNdKW5jKFtjSF0xKVtOSF1DKD1PKVtOSF1bQ0BIXShbQ0gzXSlbQ0hdMltDSDJdW0NIMl1PW0NIMl1bQ0gyXTI=

> <s_epik_cmdline>
J2VwaWtfcHl0aG9uJywgJy1waCcsICc3LjAnLCAnLXRuJywgJzgnLCAnLW1hJywgJzIwMCcsICctbWV0YWxfYmluZGluZycsICctaW1hZScsICc8aW5maWxlLm1hZT4nLCAnLW9tYWUnLCAnPG91dGZpbGUubWFlPic=

> <r_lp_tautomer_probability>
1

> <r_epik_Ionization_Penalty>
0.000270135

> <r_epik_Ionization_Penalty_Charging>
0

> <r_epik_Ionization_Penalty_Neutral>
0.000270135

> <r_epik_State_Penalty>
-0

> <r_epik_Charging_Adjusted_Penalty>
0

> <i_epik_Tot_Q>
0

> <i_epik_Tot_abs_Q>
0

> <r_epik_Metal_State_Penalty>
-0

> <b_epik_Metal_Only>
0

> <s_lp_Force_Field>
OPLS_2005

> <r_lp_Energy>
14.1079

> <b_lp_Chiralities_Consistent>
1

> <s_lp_Variant>
AV-unprocessed.smi:2242-1

> <Gold.Version>
5.8.1

> <Gold.Id.Protein>
6NUR|6NUR_protein|mol2

> <Gold.PLP.Fitness>
43.0385

> <Gold.PLP.PLP>
-35.6597

> <Gold.PLP.part.hbond>
-3.0000

> <Gold.PLP.part.metal>
0.0000

> <Gold.PLP.part.buried>
-2.4354

> <Gold.PLP.part.nonpolar>
-30.9561

> <Gold.PLP.part.repulsive>
0.3689

> <Gold.PLP.ligand.clash>
0.0000

> <Gold.PLP.ligand.torsion>
0.7836

> <Gold.PLP.Chemscore.Hbond>
2.9760

> <Gold.PLP.Chemscore.CHOScore>
0.0000

> <Gold.PLP.Chemscore.Metal>
0.0000

> <Gold.Chemscore.Hbonds>
donor molecule, donor type, donor heavy atom, donor atom, acceptor molecule, acceptor atom, score
      L1  H     8    28       P1  7948  1.00
      L1  H    11    29       P1  7948  0.97
      P1  H  7989  7998       L1    17  1.00

> <Gold.PLP.Chemscore.Internal.Correction>
0.0181

> <Gold.Rescore>
     Score         DG    S(hbond)    S(metal)    S(lipo)     H(rot)  DE(clash)    DE(int)     intcor
     18.86     -21.06       2.50        0.00      87.75       1.19       0.49       1.71       ----

> <Gold.Chemscore.Fitness>
18.8563

> <Gold.Chemscore.DG>
-21.0579

> <Gold.Chemscore.ZeroCoef>
-5.4800

> <Gold.Chemscore.Hbond>
2.5029

> <Gold.Chemscore.Metal>
0.0000

> <Gold.Chemscore.Lipo>
87.7526

> <Gold.Chemscore.Internal_Hbond>
0.0000

> <Gold.Chemscore.DEClash>
0.4935

> <Gold.Chemscore.DEInternal>
1.7081

> <Gold.Chemscore.Rot>
1.1909

> <Gold.Chemscore.Internal.Correction>
   9.000000E+99

> <Gold.Chemscore.Hbonds>
donor molecule, donor type, donor heavy atom, donor atom, acceptor molecule, acceptor atom, score
      L1  H     8    28       P1  7948  0.99
      L1  H    11    29       P1  7948  0.86
      P1  H  7989  7998       L1    17  0.48

> <Gold.Chemscore.Hbond.Weighted>
-8.3596

> <Gold.Chemscore.Metal.Weighted>
-0.0000

> <Gold.Chemscore.Lipo.Weighted>
-10.2671

> <Gold.Chemscore.Internal_Hbond.Weighted>
0.0000

> <Gold.Chemscore.DEClash.Weighted>
0.4935

> <Gold.Chemscore.DEInternal.Weighted>
1.7081

> <Gold.Chemscore.Rot.Weighted>
3.0487

> <Gold.Chemscore.Internal.Correction.Weighted>
   9.000000E+99

> <Gold.Protein.RotatedTorsions>
[ 6907 6896 6895 6894 ] final   26.57 input  -60.11 | X-H torsion
[ 7974 7965 7964 7962 ] final  -25.39 input  175.53 | X-H torsion
[ 8008 7997 7996 7995 ] final   20.26 input   59.86 | X-H torsion
[ 10167 10162 10161 10158 ] final -155.62 input  -65.29 | X-H torsion
[ 10718 10713 10712 10709 ] final   97.27 input   66.30 | X-H torsion
[ 10763 10752 10751 10750 ] final   52.60 input  -60.55 | X-H torsion
[ 11005 11000 10999 10996 ] final   36.78 input  -57.11 | X-H torsion

> <Gold.Protein.ActiveResidues>
 VAL166  LYS551  ARG553  GLY616  TRP617  ASP618  TYR619  PRO620  LYS621  CYS622 
 ASP623  PHE694  ASN695  SER759  ASP760  ASP761  ALA762  ILE779  LEU786  VAL792 
 PHE793  MET794  SER795  GLU796  ALA797  LYS798  CYS799  TRP800  GLU811  SER814 

> <Gold.Protein.RotatedAtoms>
  151.9895  134.9987  160.0560 H   0  0  0  0  0  0  0  0  0  0  0  0  # atno 6907 bound_to 6896
  152.1622  133.4584  159.4875 H   0  0  0  0  0  0  0  0  0  0  0  0  # atno 6908 bound_to 6896
  150.6889  134.1975  159.4352 H   0  0  0  0  0  0  0  0  0  0  0  0  # atno 6909 bound_to 6896
  146.1494  140.4879  142.8618 H   0  0  0  0  0  0  0  0  0  0  0  0  # atno 7974 bound_to 7965
  154.9330  140.3043  155.5158 H   0  0  0  0  0  0  0  0  0  0  0  0  # atno 8008 bound_to 7997
  156.3002  140.2350  156.4329 H   0  0  0  0  0  0  0  0  0  0  0  0  # atno 8009 bound_to 7997
  154.8219  140.0423  157.1405 H   0  0  0  0  0  0  0  0  0  0  0  0  # atno 8010 bound_to 7997
  139.6916  143.9411  152.2388 H   0  0  0  0  0  0  0  0  0  0  0  0  # atno 10167 bound_to 10162
  157.6915  131.0604  150.4619 H   0  0  0  0  0  0  0  0  0  0  0  0  # atno 10718 bound_to 10713
  152.9790  135.5807  154.4606 H   0  0  0  0  0  0  0  0  0  0  0  0  # atno 10763 bound_to 10752
  154.4182  135.2771  155.1994 H   0  0  0  0  0  0  0  0  0  0  0  0  # atno 10764 bound_to 10752
  154.3755  135.6158  153.5816 H   0  0  0  0  0  0  0  0  0  0  0  0  # atno 10765 bound_to 10752
  140.2291  134.3549  155.7971 H   0  0  0  0  0  0  0  0  0  0  0  0  # atno 11005 bound_to 11000
  144.7886  140.5986  143.6557 LP  0  0  0  0  0  0  0  0  0  0  0  0  # atno 17320 bound_to 7965
  145.4859  139.1492  143.3736 LP  0  0  0  0  0  0  0  0  0  0  0  0  # atno 17321 bound_to 7965
  139.9228  144.6789  150.8443 LP  0  0  0  0  0  0  0  0  0  0  0  0  # atno 17342 bound_to 10162
  140.7684  143.3363  151.2303 LP  0  0  0  0  0  0  0  0  0  0  0  0  # atno 17343 bound_to 10162
  156.4962  130.4106  149.6378 LP  0  0  0  0  0  0  0  0  0  0  0  0  # atno 17370 bound_to 10713
  156.3370  130.7362  151.2301 LP  0  0  0  0  0  0  0  0  0  0  0  0  # atno 17371 bound_to 10713
  141.2219  133.7235  156.8702 LP  0  0  0  0  0  0  0  0  0  0  0  0  # atno 17394 bound_to 11000
  140.1769  134.9060  157.2902 LP  0  0  0  0  0  0  0  0  0  0  0  0  # atno 17395 bound_to 11000

$$$$
