AV-unprocessed.smi:944|AV-procd|sdf|4231|dock1
  -GOLD-   22720 2143D 1   1.00000     0.00000
 Structure written by MMmdl.
 28 28  0  0  0  0  0  0  0  0  1 V2000
  153.6768  141.5125  161.0362 C   0  0  0  0  0  0  0  0  0  0  0  0
  153.2411  142.4522  160.0148 N   0  0  0  0  0  0  0  0  0  0  0  0
  152.2440  143.3337  160.1762 C   0  0  0  0  0  0  0  0  0  0  0  0
  151.6026  143.4391  161.2231 O   0  0  0  0  0  0  0  0  0  0  0  0
  151.9409  144.2443  158.9746 C   0  0  2  0  0  0  0  0  0  0  0  0
  150.7546  145.1481  159.3494 C   0  0  0  0  0  0  0  0  0  0  0  0
  151.5512  143.4508  157.8106 N   0  0  0  0  0  0  0  0  0  0  0  0
  150.4815  142.6418  157.7435 C   0  0  0  0  0  0  0  0  0  0  0  0
  149.6989  142.4713  158.6780 O   0  0  0  0  0  0  0  0  0  0  0  0
  150.2602  141.9140  156.4173 C   0  0  0  0  0  0  0  0  0  0  0  0
  151.1368  140.7631  156.3007 N   0  0  0  0  0  0  0  0  0  0  0  0
  152.0448  140.2750  157.1480 C   0  0  0  0  0  0  0  0  0  0  0  0
  152.6725  139.1975  156.6976 N   0  0  0  0  0  0  0  0  0  0  0  0
  152.0597  139.0673  155.4832 C   0  0  0  0  0  0  0  0  0  0  0  0
  151.1317  139.9801  155.1956 N   0  0  0  0  0  0  0  0  0  0  0  0
  154.5020  140.9089  160.6584 H   0  0  0  0  0  0  0  0  0  0  0  0
  152.8644  140.8414  161.3181 H   0  0  0  0  0  0  0  0  0  0  0  0
  154.0195  142.0390  161.9281 H   0  0  0  0  0  0  0  0  0  0  0  0
  153.7221  142.4275  159.1273 H   0  0  0  0  0  0  0  0  0  0  0  0
  152.8105  144.8597  158.7351 H   0  0  0  0  0  0  0  0  0  0  0  0
  150.9886  145.7720  160.2129 H   0  0  0  0  0  0  0  0  0  0  0  0
  149.8613  144.5691  159.5891 H   0  0  0  0  0  0  0  0  0  0  0  0
  150.5014  145.8174  158.5263 H   0  0  0  0  0  0  0  0  0  0  0  0
  152.1346  143.5318  156.9901 H   0  0  0  0  0  0  0  0  0  0  0  0
  149.2261  141.5746  156.3449 H   0  0  0  0  0  0  0  0  0  0  0  0
  150.4353  142.5946  155.5824 H   0  0  0  0  0  0  0  0  0  0  0  0
  152.2520  140.7186  158.1110 H   0  0  0  0  0  0  0  0  0  0  0  0
  152.3054  138.2763  154.7900 H   0  0  0  0  0  0  0  0  0  0  0  0
  1  2  1  0  0  0  0
  1 16  1  0  0  0  0
  1 17  1  0  0  0  0
  1 18  1  0  0  0  0
  2  3  1  0  0  0  0
  2 19  1  0  0  0  0
  3  4  2  0  0  0  0
  3  5  1  0  0  0  0
  5  6  1  0  0  0  0
  5  7  1  0  0  0  0
  5 20  1  0  0  0  0
  6 21  1  0  0  0  0
  6 22  1  0  0  0  0
  6 23  1  0  0  0  0
  7  8  1  0  0  0  0
  7 24  1  0  0  0  0
  8  9  2  0  0  0  0
  8 10  1  0  0  0  0
 10 11  1  0  0  0  0
 10 25  1  0  0  0  0
 10 26  1  0  0  0  0
 11 15  1  0  0  0  0
 11 12  1  0  0  0  0
 12 13  2  0  0  0  0
 12 27  1  0  0  0  0
 13 14  1  0  0  0  0
 14 15  2  0  0  0  0
 14 28  1  0  0  0  0
M  END
> <s_m_source_file>
AV-unprocessed.smi

> <i_m_source_file_index>
944

> <i_lp_mmshare_version>
43012

> <i_f3d_flags>
0

> <s_epik_input>
W0NIM11bTkhdQyg9TylbQ0BIXShbQ0gzXSlbTkhdQyg9TylbQ0gyXW4xW2NIXW5bY0hdbjE=

> <s_epik_cmdline>
J2VwaWtfcHl0aG9uJywgJy1waCcsICc3LjAnLCAnLXRuJywgJzgnLCAnLW1hJywgJzIwMCcsICctbWV0YWxfYmluZGluZycsICctaW1hZScsICc8aW5maWxlLm1hZT4nLCAnLW9tYWUnLCAnPG91dGZpbGUubWFlPic=

> <r_lp_tautomer_probability>
1

> <r_epik_Ionization_Penalty>
7.54354e-06

> <r_epik_Ionization_Penalty_Charging>
0

> <r_epik_Ionization_Penalty_Neutral>
7.54354e-06

> <r_epik_State_Penalty>
-0

> <r_epik_Charging_Adjusted_Penalty>
0

> <i_epik_Tot_Q>
0

> <i_epik_Tot_abs_Q>
0

> <r_epik_Metal_State_Penalty>
-0

> <b_epik_Metal_Only>
0

> <s_lp_Force_Field>
OPLS_2005

> <r_lp_Energy>
4.44665

> <b_lp_Chiralities_Consistent>
1

> <s_lp_Variant>
AV-unprocessed.smi:944-1

> <Gold.Version>
5.8.1

> <Gold.Id.Protein>
6NUR|6NUR_protein|mol2

> <Gold.PLP.Fitness>
38.5982

> <Gold.PLP.PLP>
-33.2336

> <Gold.PLP.part.hbond>
-2.7859

> <Gold.PLP.part.metal>
0.0000

> <Gold.PLP.part.buried>
-4.9096

> <Gold.PLP.part.nonpolar>
-24.7292

> <Gold.PLP.part.repulsive>
0.3305

> <Gold.PLP.ligand.clash>
0.0000

> <Gold.PLP.ligand.torsion>
0.2729

> <Gold.PLP.Chemscore.Hbond>
1.9424

> <Gold.PLP.Chemscore.CHOScore>
0.0000

> <Gold.PLP.Chemscore.Metal>
0.0000

> <Gold.Chemscore.Hbonds>
donor molecule, donor type, donor heavy atom, donor atom, acceptor molecule, acceptor atom, score
      P1  H  7989  7998       L1    15  1.00
      P1  H  7997  8008       L1    13  0.77

> <Gold.PLP.Chemscore.Internal.Correction>
0.0831

> <Gold.Rescore>
     Score         DG    S(hbond)    S(metal)    S(lipo)     H(rot)  DE(clash)    DE(int)     intcor
      6.04      -7.68       1.40        0.00      38.90       2.74       0.02       1.63       ----

> <Gold.Chemscore.Fitness>
6.0393

> <Gold.Chemscore.DG>
-7.6823

> <Gold.Chemscore.ZeroCoef>
-5.4800

> <Gold.Chemscore.Hbond>
1.3988

> <Gold.Chemscore.Metal>
0.0000

> <Gold.Chemscore.Lipo>
38.8985

> <Gold.Chemscore.Internal_Hbond>
0.0000

> <Gold.Chemscore.DEClash>
0.0174

> <Gold.Chemscore.DEInternal>
1.6256

> <Gold.Chemscore.Rot>
2.7426

> <Gold.Chemscore.Internal.Correction>
   9.000000E+99

> <Gold.Chemscore.Hbonds>
donor molecule, donor type, donor heavy atom, donor atom, acceptor molecule, acceptor atom, score
      P1  H  6933  6945       L1     4  0.01
      P1  H  7989  7998       L1    15  0.59
      P1  H  7997  8008       L1    13  0.03

> <Gold.Chemscore.Hbond.Weighted>
-4.6721

> <Gold.Chemscore.Metal.Weighted>
-0.0000

> <Gold.Chemscore.Lipo.Weighted>
-4.5511

> <Gold.Chemscore.Internal_Hbond.Weighted>
0.0000

> <Gold.Chemscore.DEClash.Weighted>
0.0174

> <Gold.Chemscore.DEInternal.Weighted>
1.6256

> <Gold.Chemscore.Rot.Weighted>
7.0210

> <Gold.Chemscore.Internal.Correction.Weighted>
   9.000000E+99

> <Gold.Protein.RotatedTorsions>
[ 6907 6896 6895 6894 ] final   82.95 input  -60.11 | X-H torsion
[ 7974 7965 7964 7962 ] final -155.93 input  175.53 | X-H torsion
[ 8008 7997 7996 7995 ] final  -30.74 input   59.86 | X-H torsion
[ 10167 10162 10161 10158 ] final  -69.70 input  -65.29 | X-H torsion
[ 10718 10713 10712 10709 ] final  -15.54 input   66.30 | X-H torsion
[ 10763 10752 10751 10750 ] final   43.63 input  -60.55 | X-H torsion
[ 11005 11000 10999 10996 ] final   81.63 input  -57.11 | X-H torsion

> <Gold.Protein.ActiveResidues>
 VAL166  LYS551  ARG553  GLY616  TRP617  ASP618  TYR619  PRO620  LYS621  CYS622 
 ASP623  PHE694  ASN695  SER759  ASP760  ASP761  ALA762  ILE779  LEU786  VAL792 
 PHE793  MET794  SER795  GLU796  ALA797  LYS798  CYS799  TRP800  GLU811  SER814 

> <Gold.Protein.RotatedAtoms>
  152.5314  134.2970  159.9064 H   0  0  0  0  0  0  0  0  0  0  0  0  # atno 6907 bound_to 6896
  151.2921  133.4154  159.2641 H   0  0  0  0  0  0  0  0  0  0  0  0  # atno 6908 bound_to 6896
  151.0191  134.9471  159.8107 H   0  0  0  0  0  0  0  0  0  0  0  0  # atno 6909 bound_to 6896
  144.7617  140.4180  143.5972 H   0  0  0  0  0  0  0  0  0  0  0  0  # atno 7974 bound_to 7965
  154.4239  140.1783  156.1456 H   0  0  0  0  0  0  0  0  0  0  0  0  # atno 8008 bound_to 7997
  155.9957  140.3365  155.6771 H   0  0  0  0  0  0  0  0  0  0  0  0  # atno 8009 bound_to 7997
  155.6312  140.0670  157.2639 H   0  0  0  0  0  0  0  0  0  0  0  0  # atno 8010 bound_to 7997
  140.5410  143.2315  151.7088 H   0  0  0  0  0  0  0  0  0  0  0  0  # atno 10167 bound_to 10162
  156.6004  130.4822  149.6242 H   0  0  0  0  0  0  0  0  0  0  0  0  # atno 10718 bound_to 10713
  152.9857  135.6095  154.3143 H   0  0  0  0  0  0  0  0  0  0  0  0  # atno 10763 bound_to 10752
  154.2857  135.2776  155.2679 H   0  0  0  0  0  0  0  0  0  0  0  0  # atno 10764 bound_to 10752
  154.4998  135.5870  153.6579 H   0  0  0  0  0  0  0  0  0  0  0  0  # atno 10765 bound_to 10752
  139.9091  134.8011  156.2066 H   0  0  0  0  0  0  0  0  0  0  0  0  # atno 11005 bound_to 11000
  145.6600  139.1579  143.2814 LP  0  0  0  0  0  0  0  0  0  0  0  0  # atno 17320 bound_to 7965
  146.1685  140.6681  142.9244 LP  0  0  0  0  0  0  0  0  0  0  0  0  # atno 17321 bound_to 7965
  139.4989  144.3968  152.0223 LP  0  0  0  0  0  0  0  0  0  0  0  0  # atno 17342 bound_to 10162
  140.3077  144.3574  150.6042 LP  0  0  0  0  0  0  0  0  0  0  0  0  # atno 17343 bound_to 10162
  156.2474  130.6887  151.1613 LP  0  0  0  0  0  0  0  0  0  0  0  0  # atno 17370 bound_to 10713
  157.7281  131.0634  150.5835 LP  0  0  0  0  0  0  0  0  0  0  0  0  # atno 17371 bound_to 10713
  141.0491  133.6898  156.1739 LP  0  0  0  0  0  0  0  0  0  0  0  0  # atno 17394 bound_to 11000
  140.6838  134.4739  157.5589 LP  0  0  0  0  0  0  0  0  0  0  0  0  # atno 17395 bound_to 11000

$$$$
