AV-unprocessed.smi:478|AV-procd|sdf|2671|dock4
  -GOLD-   2262023 83D 1   1.00000     0.00000
 Structure written by MMmdl.
 41 42  0  0  0  0  0  0  0  0  1 V2000
  143.3714  138.5513  157.6495 C   0  0  0  0  0  0  0  0  0  0  0  0
  143.5169  139.9959  157.8566 N   0  0  0  0  0  0  0  0  0  0  0  0
  142.4739  140.5549  158.7239 C   0  0  0  0  0  0  0  0  0  0  0  0
  145.1298  140.5831  158.0879 S   0  0  0  0  0  0  0  0  0  0  0  0
  145.0799  141.5989  159.1510 O   0  0  0  0  0  0  0  0  0  0  0  0
  146.0107  139.4138  158.2369 O   0  0  0  0  0  0  0  0  0  0  0  0
  145.5950  141.4176  156.5466 C   0  0  0  0  0  0  0  0  0  0  0  0
  144.9770  142.6691  156.1715 C   0  0  0  0  0  0  0  0  0  0  0  0
  145.4286  143.3547  155.1025 C   0  0  0  0  0  0  0  0  0  0  0  0
  146.5507  142.8664  154.2921 C   0  0  0  0  0  0  0  0  0  0  0  0
  146.9598  143.4791  153.3056 O   0  0  0  0  0  0  0  0  0  0  0  0
  147.1180  141.6911  154.7051 N   0  0  0  0  0  0  0  0  0  0  0  0
  148.2643  141.1140  153.9844 C   0  0  0  0  0  0  0  0  0  0  0  0
  149.5360  141.0815  154.8437 C   0  0  0  0  0  0  0  0  0  0  0  0
  150.2907  140.1095  154.7627 O   0  0  0  0  0  0  0  0  0  0  0  0
  149.7214  142.1612  155.6385 N   0  0  0  0  0  0  0  0  0  0  0  0
  150.7079  142.4631  156.5164 C   0  0  0  0  0  0  0  0  0  0  0  0
  151.4291  141.5771  156.9723 O   0  0  0  0  0  0  0  0  0  0  0  0
  150.8524  143.7580  156.8544 N   0  0  0  0  0  0  0  0  0  0  0  0
  151.9126  144.3034  157.6383 C   0  0  0  0  0  0  0  0  0  0  0  0
  152.1443  143.7058  159.0093 C   0  0  0  0  0  0  0  0  0  0  0  0
  151.5421  145.0776  158.8846 C   0  0  0  0  0  0  0  0  0  0  0  0
  146.6525  140.9917  155.8361 C   0  0  0  0  0  0  0  0  0  0  0  0
  142.3502  138.3022  157.3593 H   0  0  0  0  0  0  0  0  0  0  0  0
  143.6182  138.0119  158.5645 H   0  0  0  0  0  0  0  0  0  0  0  0
  144.0371  138.2111  156.8562 H   0  0  0  0  0  0  0  0  0  0  0  0
  141.4848  140.2418  158.3883 H   0  0  0  0  0  0  0  0  0  0  0  0
  142.5029  141.6437  158.7060 H   0  0  0  0  0  0  0  0  0  0  0  0
  142.6165  140.2206  159.7523 H   0  0  0  0  0  0  0  0  0  0  0  0
  144.1483  143.0569  156.7453 H   0  0  0  0  0  0  0  0  0  0  0  0
  144.9544  144.2873  154.8341 H   0  0  0  0  0  0  0  0  0  0  0  0
  148.0454  140.0940  153.6652 H   0  0  0  0  0  0  0  0  0  0  0  0
  148.4441  141.6676  153.0605 H   0  0  0  0  0  0  0  0  0  0  0  0
  149.0019  142.8656  155.5651 H   0  0  0  0  0  0  0  0  0  0  0  0
  150.1469  144.4064  156.5336 H   0  0  0  0  0  0  0  0  0  0  0  0
  152.8027  144.6429  157.1102 H   0  0  0  0  0  0  0  0  0  0  0  0
  151.4887  142.8990  159.3315 H   0  0  0  0  0  0  0  0  0  0  0  0
  153.1723  143.6376  159.3594 H   0  0  0  0  0  0  0  0  0  0  0  0
  152.1681  145.9269  159.1511 H   0  0  0  0  0  0  0  0  0  0  0  0
  150.4853  145.1857  159.1216 H   0  0  0  0  0  0  0  0  0  0  0  0
  147.2185  140.1077  156.0922 H   0  0  0  0  0  0  0  0  0  0  0  0
  1  2  1  0  0  0  0
  1 24  1  0  0  0  0
  1 25  1  0  0  0  0
  1 26  1  0  0  0  0
  2  3  1  0  0  0  0
  2  4  1  0  0  0  0
  3 27  1  0  0  0  0
  3 28  1  0  0  0  0
  3 29  1  0  0  0  0
  4  5  2  0  0  0  0
  4  6  2  0  0  0  0
  4  7  1  0  0  0  0
  7 23  2  0  0  0  0
  7  8  1  0  0  0  0
  8  9  2  0  0  0  0
  8 30  1  0  0  0  0
  9 10  1  0  0  0  0
  9 31  1  0  0  0  0
 10 11  2  0  0  0  0
 10 12  1  0  0  0  0
 12 13  1  0  0  0  0
 12 23  1  0  0  0  0
 13 14  1  0  0  0  0
 13 32  1  0  0  0  0
 13 33  1  0  0  0  0
 14 15  2  0  0  0  0
 14 16  1  0  0  0  0
 16 17  1  0  0  0  0
 16 34  1  0  0  0  0
 17 18  2  0  0  0  0
 17 19  1  0  0  0  0
 19 20  1  0  0  0  0
 19 35  1  0  0  0  0
 20 22  1  0  0  0  0
 20 21  1  0  0  0  0
 20 36  1  0  0  0  0
 21 22  1  0  0  0  0
 21 37  1  0  0  0  0
 21 38  1  0  0  0  0
 22 39  1  0  0  0  0
 22 40  1  0  0  0  0
 23 41  1  0  0  0  0
M  END
> <s_m_source_file>
AV-unprocessed.smi

> <i_m_source_file_index>
478

> <i_lp_mmshare_version>
43012

> <i_f3d_flags>
0

> <s_epik_input>
W0NIM11OKFtDSDNdKVMoPU8pKD1PKWMxW2NIXVtjSF1jKD1PKW4oW2NIXTEpW0NIMl1DKD1PKVtOSF1DKD1PKVtOSF1bQ0hdMltDSDJdW0NIMl0y

> <s_epik_cmdline>
J2VwaWtfcHl0aG9uJywgJy1waCcsICc3LjAnLCAnLXRuJywgJzgnLCAnLW1hJywgJzIwMCcsICctbWV0YWxfYmluZGluZycsICctaW1hZScsICc8aW5maWxlLm1hZT4nLCAnLW9tYWUnLCAnPG91dGZpbGUubWFlPic=

> <r_lp_tautomer_probability>
1

> <r_epik_Ionization_Penalty>
3.37124e-05

> <r_epik_Ionization_Penalty_Charging>
7.23904e-09

> <r_epik_Ionization_Penalty_Neutral>
3.37051e-05

> <r_epik_State_Penalty>
-0

> <r_epik_Charging_Adjusted_Penalty>
7.23904e-09

> <i_epik_Tot_Q>
0

> <i_epik_Tot_abs_Q>
0

> <r_epik_Metal_State_Penalty>
-0

> <b_epik_Metal_Only>
0

> <s_lp_Force_Field>
OPLS_2005

> <r_lp_Energy>
28.3578

> <b_lp_Chiralities_Consistent>
1

> <s_lp_Variant>
AV-unprocessed.smi:478-1

> <Gold.Version>
5.8.1

> <Gold.Id.Protein>
6NUR|6NUR_protein|mol2

> <Gold.PLP.Fitness>
44.3121

> <Gold.PLP.PLP>
-34.2020

> <Gold.PLP.part.hbond>
-5.9446

> <Gold.PLP.part.metal>
0.0000

> <Gold.PLP.part.buried>
-0.8265

> <Gold.PLP.part.nonpolar>
-28.4506

> <Gold.PLP.part.repulsive>
0.6843

> <Gold.PLP.ligand.clash>
0.0000

> <Gold.PLP.ligand.torsion>
1.8000

> <Gold.PLP.Chemscore.Hbond>
3.6804

> <Gold.PLP.Chemscore.CHOScore>
0.0000

> <Gold.PLP.Chemscore.Metal>
0.0000

> <Gold.Chemscore.Hbonds>
donor molecule, donor type, donor heavy atom, donor atom, acceptor molecule, acceptor atom, score
      L1  H    16    34       P1  8028  0.77
      L1  H    19    35       P1  8028  1.00
      P1  H  7989  7998       L1    15  0.90
      P1  H  8022  8030       L1    11  0.12

> <Gold.PLP.Chemscore.Internal.Correction>
2.6688

> <Gold.Rescore>
     Score         DG    S(hbond)    S(metal)    S(lipo)     H(rot)  DE(clash)    DE(int)     intcor
     12.84     -16.05       2.76        0.00      54.03       1.95       0.29       2.91       ----

> <Gold.Chemscore.Fitness>
12.8397

> <Gold.Chemscore.DG>
-16.0458

> <Gold.Chemscore.ZeroCoef>
-5.4800

> <Gold.Chemscore.Hbond>
2.7623

> <Gold.Chemscore.Metal>
0.0000

> <Gold.Chemscore.Lipo>
54.0261

> <Gold.Chemscore.Internal_Hbond>
0.0000

> <Gold.Chemscore.DEClash>
0.2943

> <Gold.Chemscore.DEInternal>
2.9118

> <Gold.Chemscore.Rot>
1.9459

> <Gold.Chemscore.Internal.Correction>
   9.000000E+99

> <Gold.Chemscore.Hbonds>
donor molecule, donor type, donor heavy atom, donor atom, acceptor molecule, acceptor atom, score
      L1  H    16    34       P1  8028  0.76
      L1  H    19    35       P1  8028  0.88
      P1  H  7989  7998       L1    15  0.17
      P1  H  8022  8030       L1    11  0.11

> <Gold.Chemscore.Hbond.Weighted>
-9.2262

> <Gold.Chemscore.Metal.Weighted>
-0.0000

> <Gold.Chemscore.Lipo.Weighted>
-6.3211

> <Gold.Chemscore.Internal_Hbond.Weighted>
0.0000

> <Gold.Chemscore.DEClash.Weighted>
0.2943

> <Gold.Chemscore.DEInternal.Weighted>
2.9118

> <Gold.Chemscore.Rot.Weighted>
4.9815

> <Gold.Chemscore.Internal.Correction.Weighted>
   9.000000E+99

> <Gold.Protein.RotatedTorsions>
[ 6907 6896 6895 6894 ] final -138.13 input  -60.11 | X-H torsion
[ 7974 7965 7964 7962 ] final  -84.35 input  175.53 | X-H torsion
[ 8008 7997 7996 7995 ] final   62.23 input   59.86 | X-H torsion
[ 10167 10162 10161 10158 ] final -123.16 input  -65.29 | X-H torsion
[ 10718 10713 10712 10709 ] final   84.45 input   66.30 | X-H torsion
[ 10763 10752 10751 10750 ] final  -44.84 input  -60.55 | X-H torsion
[ 11005 11000 10999 10996 ] final  -97.73 input  -57.11 | X-H torsion

> <Gold.Protein.ActiveResidues>
 VAL166  LYS551  ARG553  GLY616  TRP617  ASP618  TYR619  PRO620  LYS621  CYS622 
 ASP623  PHE694  ASN695  SER759  ASP760  ASP761  ALA762  ILE779  LEU786  VAL792 
 PHE793  MET794  SER795  GLU796  ALA797  LYS798  CYS799  TRP800  GLU811  SER814 

> <Gold.Protein.RotatedAtoms>
  151.0311  133.5789  159.2660 H   0  0  0  0  0  0  0  0  0  0  0  0  # atno 6907 bound_to 6896
  151.2870  135.0730  159.9200 H   0  0  0  0  0  0  0  0  0  0  0  0  # atno 6908 bound_to 6896
  152.5345  134.0016  159.7951 H   0  0  0  0  0  0  0  0  0  0  0  0  # atno 6909 bound_to 6896
  145.5078  140.9542  143.1724 H   0  0  0  0  0  0  0  0  0  0  0  0  # atno 7974 bound_to 7965
  155.6111  140.3495  155.4622 H   0  0  0  0  0  0  0  0  0  0  0  0  # atno 8008 bound_to 7997
  156.0154  140.1242  157.0436 H   0  0  0  0  0  0  0  0  0  0  0  0  # atno 8009 bound_to 7997
  154.4295  140.1073  156.5874 H   0  0  0  0  0  0  0  0  0  0  0  0  # atno 8010 bound_to 7997
  140.0065  143.5486  152.2281 H   0  0  0  0  0  0  0  0  0  0  0  0  # atno 10167 bound_to 10162
  157.6898  131.0133  150.2674 H   0  0  0  0  0  0  0  0  0  0  0  0  # atno 10718 bound_to 10713
  154.0187  135.6672  153.4771 H   0  0  0  0  0  0  0  0  0  0  0  0  # atno 10763 bound_to 10752
  153.0589  135.5039  154.8044 H   0  0  0  0  0  0  0  0  0  0  0  0  # atno 10764 bound_to 10752
  154.6951  135.3068  154.9388 H   0  0  0  0  0  0  0  0  0  0  0  0  # atno 10765 bound_to 10752
  141.1369  133.8192  157.0745 H   0  0  0  0  0  0  0  0  0  0  0  0  # atno 11005 bound_to 11000
  144.7744  139.6663  143.7181 LP  0  0  0  0  0  0  0  0  0  0  0  0  # atno 17320 bound_to 7965
  146.2185  139.5593  142.9634 LP  0  0  0  0  0  0  0  0  0  0  0  0  # atno 17321 bound_to 7965
  139.6235  144.7633  151.2690 LP  0  0  0  0  0  0  0  0  0  0  0  0  # atno 17342 bound_to 10162
  140.7398  143.6606  150.8167 LP  0  0  0  0  0  0  0  0  0  0  0  0  # atno 17343 bound_to 10162
  156.3243  130.3790  149.7547 LP  0  0  0  0  0  0  0  0  0  0  0  0  # atno 17370 bound_to 10713
  156.5108  130.8171  151.3168 LP  0  0  0  0  0  0  0  0  0  0  0  0  # atno 17371 bound_to 10713
  140.0490  134.9815  157.1102 LP  0  0  0  0  0  0  0  0  0  0  0  0  # atno 17394 bound_to 11000
  140.4018  134.2074  155.7163 LP  0  0  0  0  0  0  0  0  0  0  0  0  # atno 17395 bound_to 11000

$$$$
