AV-unprocessed.smi:274|AV-procd|sdf|2061|dock5
  -GOLD-   2262021303D 1   1.00000     0.00000
 Structure written by MMmdl.
 50 53  0  0  0  0  0  0  0  0  1 V2000
  148.2974  131.7631  160.3000 C   0  0  0  0  0  0  0  0  0  0  0  0
  147.2350  132.1813  161.3372 C   0  0  0  0  0  0  0  0  0  0  0  0
  146.2929  130.9877  161.5936 C   0  0  0  0  0  0  0  0  0  0  0  0
  146.4869  133.4853  160.9156 C   0  0  1  0  0  0  0  0  0  0  0  0
  145.5108  133.9964  162.0061 C   0  0  0  0  0  0  0  0  0  0  0  0
  144.4316  133.4329  162.1760 O   0  0  0  0  0  0  0  0  0  0  0  0
  145.8473  135.0770  162.7339 N   0  0  0  0  0  0  0  0  0  0  0  0
  147.0553  135.8858  162.5697 C   0  0  0  0  0  0  0  0  0  0  0  0
  148.1098  135.2274  161.6628 C   0  0  0  0  0  0  0  0  0  0  0  0
  147.4643  134.5262  160.5559 N   0  0  0  0  0  0  0  0  0  0  0  0
  147.2405  135.2883  159.4548 C   0  0  0  0  0  0  0  0  0  0  0  0
  146.0930  136.0089  159.3421 N   0  0  0  0  0  0  0  0  0  0  0  0
  145.8799  136.7721  158.2662 C   0  0  0  0  0  0  0  0  0  0  0  0
  146.6676  136.9567  157.2049 N   0  0  0  0  0  0  0  0  0  0  0  0
  147.8179  136.2317  157.3102 C   0  0  0  0  0  0  0  0  0  0  0  0
  148.1821  135.3833  158.3932 C   0  0  0  0  0  0  0  0  0  0  0  0
  149.4249  134.8105  158.1507 N   0  0  0  0  0  0  0  0  0  0  0  0
  149.7771  135.2956  156.9915 C   0  0  0  0  0  0  0  0  0  0  0  0
  148.8675  136.1514  156.4115 N   0  0  0  0  0  0  0  0  0  0  0  0
  148.9984  136.8258  155.1292 C   0  0  0  0  0  0  0  0  0  0  0  0
  150.4151  137.3911  154.8725 C   0  0  2  0  0  0  0  0  0  0  0  0
  151.2115  136.3877  154.2667 O   0  0  0  0  0  0  0  0  0  0  0  0
  151.1289  137.8815  156.1294 C   0  0  0  0  0  0  0  0  0  0  0  0
  151.9784  139.0330  155.6100 C   0  0  0  0  0  0  0  0  0  0  0  0
  151.1150  139.6524  154.6724 O   0  0  0  0  0  0  0  0  0  0  0  0
  150.4185  138.6345  153.9606 C   0  0  0  0  0  0  0  0  0  0  0  0
  147.8488  131.6023  159.3193 H   0  0  0  0  0  0  0  0  0  0  0  0
  148.7909  130.8359  160.5935 H   0  0  0  0  0  0  0  0  0  0  0  0
  149.0807  132.5133  160.1896 H   0  0  0  0  0  0  0  0  0  0  0  0
  147.7611  132.3699  162.2737 H   0  0  0  0  0  0  0  0  0  0  0  0
  145.6638  130.7872  160.7257 H   0  0  0  0  0  0  0  0  0  0  0  0
  145.6420  131.1544  162.4509 H   0  0  0  0  0  0  0  0  0  0  0  0
  146.8581  130.0801  161.8075 H   0  0  0  0  0  0  0  0  0  0  0  0
  145.8858  133.2312  160.0405 H   0  0  0  0  0  0  0  0  0  0  0  0
  145.1906  135.3859  163.4359 H   0  0  0  0  0  0  0  0  0  0  0  0
  146.7462  136.8354  162.1314 H   0  0  0  0  0  0  0  0  0  0  0  0
  147.4808  136.1158  163.5465 H   0  0  0  0  0  0  0  0  0  0  0  0
  148.8277  135.9740  161.3216 H   0  0  0  0  0  0  0  0  0  0  0  0
  148.6882  134.5047  162.2380 H   0  0  0  0  0  0  0  0  0  0  0  0
  144.9450  137.3127  158.2544 H   0  0  0  0  0  0  0  0  0  0  0  0
  150.7146  135.0355  156.5224 H   0  0  0  0  0  0  0  0  0  0  0  0
  148.7218  136.1254  154.3398 H   0  0  0  0  0  0  0  0  0  0  0  0
  148.2626  137.6303  155.0943 H   0  0  0  0  0  0  0  0  0  0  0  0
  151.1275  136.4637  153.3286 H   0  0  0  0  0  0  0  0  0  0  0  0
  150.4060  138.2769  156.8442 H   0  0  0  0  0  0  0  0  0  0  0  0
  151.7102  137.1106  156.6370 H   0  0  0  0  0  0  0  0  0  0  0  0
  152.2826  139.7236  156.3966 H   0  0  0  0  0  0  0  0  0  0  0  0
  152.8725  138.6662  155.1035 H   0  0  0  0  0  0  0  0  0  0  0  0
  150.9200  138.4460  153.0098 H   0  0  0  0  0  0  0  0  0  0  0  0
  149.4115  138.9854  153.7328 H   0  0  0  0  0  0  0  0  0  0  0  0
  1  2  1  0  0  0  0
  1 27  1  0  0  0  0
  1 28  1  0  0  0  0
  1 29  1  0  0  0  0
  2  3  1  0  0  0  0
  2  4  1  0  0  0  0
  2 30  1  0  0  0  0
  3 31  1  0  0  0  0
  3 32  1  0  0  0  0
  3 33  1  0  0  0  0
  4 10  1  0  0  0  0
  4  5  1  0  0  0  0
  4 34  1  0  0  0  0
  5  6  2  0  0  0  0
  5  7  1  0  0  0  0
  7  8  1  0  0  0  0
  7 35  1  0  0  0  0
  8  9  1  0  0  0  0
  8 36  1  0  0  0  0
  8 37  1  0  0  0  0
  9 10  1  0  0  0  0
  9 38  1  0  0  0  0
  9 39  1  0  0  0  0
 10 11  1  0  0  0  0
 11 16  1  0  0  0  0
 11 12  2  0  0  0  0
 12 13  1  0  0  0  0
 13 14  2  0  0  0  0
 13 40  1  0  0  0  0
 14 15  1  0  0  0  0
 15 19  1  0  0  0  0
 15 16  2  0  0  0  0
 16 17  1  0  0  0  0
 17 18  2  0  0  0  0
 18 19  1  0  0  0  0
 18 41  1  0  0  0  0
 19 20  1  0  0  0  0
 20 21  1  0  0  0  0
 20 42  1  0  0  0  0
 20 43  1  0  0  0  0
 21 26  1  0  0  0  0
 21 22  1  0  0  0  0
 21 23  1  0  0  0  0
 22 44  1  0  0  0  0
 23 24  1  0  0  0  0
 23 45  1  0  0  0  0
 23 46  1  0  0  0  0
 24 25  1  0  0  0  0
 24 47  1  0  0  0  0
 24 48  1  0  0  0  0
 25 26  1  0  0  0  0
 26 49  1  0  0  0  0
 26 50  1  0  0  0  0
M  END
> <s_m_source_file>
AV-unprocessed.smi

> <i_m_source_file_index>
274

> <i_lp_mmshare_version>
43012

> <i_f3d_flags>
0

> <s_epik_input>
W0NIM11bQ0hdKFtDSDNdKVtDQEBIXTFDKD1PKVtOSF1bQ0gyXVtDSDJdTjFjKG5bY0hdbjIpYyhjMjMpbltjSF1uM1tDSDJdW0NAQF00KFtPSF0pW0NIMl1bQ0gyXU9bQ0gyXTQ=

> <s_epik_cmdline>
J2VwaWtfcHl0aG9uJywgJy1waCcsICc3LjAnLCAnLXRuJywgJzgnLCAnLW1hJywgJzIwMCcsICctbWV0YWxfYmluZGluZycsICctaW1hZScsICc8aW5maWxlLm1hZT4nLCAnLW9tYWUnLCAnPG91dGZpbGUubWFlPic=

> <r_lp_tautomer_probability>
1

> <r_epik_Ionization_Penalty>
0.000690079

> <r_epik_Ionization_Penalty_Charging>
0

> <r_epik_Ionization_Penalty_Neutral>
0.000690079

> <r_epik_State_Penalty>
0.000321372

> <r_epik_Charging_Adjusted_Penalty>
0.000321372

> <i_epik_Tot_Q>
0

> <i_epik_Tot_abs_Q>
0

> <r_epik_Metal_State_Penalty>
-0

> <b_epik_Metal_Only>
0

> <s_lp_Force_Field>
OPLS_2005

> <r_lp_Energy>
41.7848

> <b_lp_Chiralities_Consistent>
1

> <s_lp_Variant>
AV-unprocessed.smi:274-4

> <Gold.Version>
5.8.1

> <Gold.Id.Protein>
6NUR|6NUR_protein|mol2

> <Gold.PLP.Fitness>
39.0450

> <Gold.PLP.PLP>
-30.8098

> <Gold.PLP.part.hbond>
-4.0000

> <Gold.PLP.part.metal>
0.0000

> <Gold.PLP.part.buried>
-6.4533

> <Gold.PLP.part.nonpolar>
-20.8119

> <Gold.PLP.part.repulsive>
0.2284

> <Gold.PLP.ligand.clash>
0.0000

> <Gold.PLP.ligand.torsion>
2.0531

> <Gold.PLP.Chemscore.Hbond>
4.0000

> <Gold.PLP.Chemscore.CHOScore>
0.0000

> <Gold.PLP.Chemscore.Metal>
0.0000

> <Gold.Chemscore.Hbonds>
donor molecule, donor type, donor heavy atom, donor atom, acceptor molecule, acceptor atom, score
      L1  H    22    44       P1  7949  1.00
      P1  H  6896  6909       L1    17  1.00
      P1  H  7989  7998       L1    25  1.00
      P1  H 10752 10764       L1    22  1.00

> <Gold.PLP.Chemscore.Internal.Correction>
0.3413

> <Gold.Rescore>
     Score         DG    S(hbond)    S(metal)    S(lipo)     H(rot)  DE(clash)    DE(int)     intcor
     15.68     -17.69       2.82        0.00      70.65       2.14       0.20       1.80       ----

> <Gold.Chemscore.Fitness>
15.6814

> <Gold.Chemscore.DG>
-17.6854

> <Gold.Chemscore.ZeroCoef>
-5.4800

> <Gold.Chemscore.Hbond>
2.8221

> <Gold.Chemscore.Metal>
0.0000

> <Gold.Chemscore.Lipo>
70.6490

> <Gold.Chemscore.Internal_Hbond>
0.0000

> <Gold.Chemscore.DEClash>
0.2026

> <Gold.Chemscore.DEInternal>
1.8014

> <Gold.Chemscore.Rot>
2.1431

> <Gold.Chemscore.Internal.Correction>
   9.000000E+99

> <Gold.Chemscore.Hbonds>
donor molecule, donor type, donor heavy atom, donor atom, acceptor molecule, acceptor atom, score
      L1  H    22    44       P1  7949  0.39
      P1  H  6896  6909       L1    17  0.96
      P1  H  7989  7998       L1    25  0.60
      P1  H 10752 10764       L1    22  0.61

> <Gold.Chemscore.Hbond.Weighted>
-9.4257

> <Gold.Chemscore.Metal.Weighted>
-0.0000

> <Gold.Chemscore.Lipo.Weighted>
-8.2659

> <Gold.Chemscore.Internal_Hbond.Weighted>
0.0000

> <Gold.Chemscore.DEClash.Weighted>
0.2026

> <Gold.Chemscore.DEInternal.Weighted>
1.8014

> <Gold.Chemscore.Rot.Weighted>
5.4863

> <Gold.Chemscore.Internal.Correction.Weighted>
   9.000000E+99

> <Gold.Protein.RotatedTorsions>
[ 6907 6896 6895 6894 ] final   18.32 input  -60.11 | X-H torsion
[ 7974 7965 7964 7962 ] final  120.33 input  175.53 | X-H torsion
[ 8008 7997 7996 7995 ] final   71.88 input   59.86 | X-H torsion
[ 10167 10162 10161 10158 ] final  177.85 input  -65.29 | X-H torsion
[ 10718 10713 10712 10709 ] final    9.33 input   66.30 | X-H torsion
[ 10763 10752 10751 10750 ] final  -54.22 input  -60.55 | X-H torsion
[ 11005 11000 10999 10996 ] final -172.00 input  -57.11 | X-H torsion

> <Gold.Protein.ActiveResidues>
 VAL166  LYS551  ARG553  GLY616  TRP617  ASP618  TYR619  PRO620  LYS621  CYS622 
 ASP623  PHE694  ASN695  SER759  ASP760  ASP761  ALA762  ILE779  LEU786  VAL792 
 PHE793  MET794  SER795  GLU796  ALA797  LYS798  CYS799  TRP800  GLU811  SER814 

> <Gold.Protein.RotatedAtoms>
  151.8635  135.0515  160.0471 H   0  0  0  0  0  0  0  0  0  0  0  0  # atno 6907 bound_to 6896
  152.2644  133.5321  159.5409 H   0  0  0  0  0  0  0  0  0  0  0  0  # atno 6908 bound_to 6896
  150.7128  134.0701  159.3904 H   0  0  0  0  0  0  0  0  0  0  0  0  # atno 6909 bound_to 6896
  145.1324  139.3319  143.4658 H   0  0  0  0  0  0  0  0  0  0  0  0  # atno 7974 bound_to 7965
  155.7605  140.3486  155.5195 H   0  0  0  0  0  0  0  0  0  0  0  0  # atno 8008 bound_to 7997
  155.8918  140.1019  157.1434 H   0  0  0  0  0  0  0  0  0  0  0  0  # atno 8009 bound_to 7997
  154.4034  140.1303  156.4313 H   0  0  0  0  0  0  0  0  0  0  0  0  # atno 8010 bound_to 7997
  139.5270  144.2750  152.0596 H   0  0  0  0  0  0  0  0  0  0  0  0  # atno 10167 bound_to 10162
  156.9647  130.5946  149.5664 H   0  0  0  0  0  0  0  0  0  0  0  0  # atno 10718 bound_to 10713
  154.1713  135.6458  153.5010 H   0  0  0  0  0  0  0  0  0  0  0  0  # atno 10763 bound_to 10752
  153.0083  135.5384  154.6609 H   0  0  0  0  0  0  0  0  0  0  0  0  # atno 10764 bound_to 10752
  154.5949  135.2938  155.0568 H   0  0  0  0  0  0  0  0  0  0  0  0  # atno 10765 bound_to 10752
  140.5019  134.5885  157.4990 H   0  0  0  0  0  0  0  0  0  0  0  0  # atno 11005 bound_to 11000
  146.3513  140.1328  142.8596 LP  0  0  0  0  0  0  0  0  0  0  0  0  # atno 17320 bound_to 7965
  145.0621  140.9095  143.4932 LP  0  0  0  0  0  0  0  0  0  0  0  0  # atno 17321 bound_to 7965
  140.2207  144.4469  150.6343 LP  0  0  0  0  0  0  0  0  0  0  0  0  # atno 17342 bound_to 10162
  140.6420  143.2205  151.6269 LP  0  0  0  0  0  0  0  0  0  0  0  0  # atno 17343 bound_to 10162
  156.0307  130.5399  150.8527 LP  0  0  0  0  0  0  0  0  0  0  0  0  # atno 17370 bound_to 10713
  157.5634  131.0946  150.9526 LP  0  0  0  0  0  0  0  0  0  0  0  0  # atno 17371 bound_to 10713
  139.9708  134.7296  156.0045 LP  0  0  0  0  0  0  0  0  0  0  0  0  # atno 17394 bound_to 11000
  141.1431  133.6561  156.3787 LP  0  0  0  0  0  0  0  0  0  0  0  0  # atno 17395 bound_to 11000

$$$$
