AV-unprocessed.smi:3249|AV-procd|sdf|12422|dock3
  -GOLD-   2272018303D 1   1.00000     0.00000
 Structure written by MMmdl.
 44 45  0  0  0  0  0  0  0  0  2 V2000
  151.5466  136.4366  156.4135 C   0  0  0  0  0  0  0  0  0  0  0  0
  151.2313  137.7682  155.7957 C   0  0  0  0  0  0  0  0  0  0  0  0
  151.1709  138.0981  154.4123 C   0  0  0  0  0  0  0  0  0  0  0  0
  150.8706  139.3686  154.2007 N   0  0  0  0  0  0  0  0  0  0  0  0
  150.7206  139.8949  155.4369 N   0  0  0  0  0  0  0  0  0  0  0  0
  150.4011  141.3088  155.6050 C   0  0  1  0  0  0  0  0  0  0  0  0
  148.9806  141.5763  155.0735 C   0  0  0  0  0  0  0  0  0  0  0  0
  150.6059  141.7807  157.0715 C   0  0  2  0  0  0  0  0  0  0  0  0
  149.3759  141.4961  157.9554 C   0  0  0  0  0  0  0  0  0  0  0  0
  150.9209  143.2291  157.0967 N   0  3  0  0  0  0  0  0  0  0  0  0
  150.6580  143.9131  158.3806 C   0  0  0  0  0  0  0  0  0  0  0  0
  151.7473  143.5972  159.4167 C   0  0  1  0  0  0  0  0  0  0  0  0
  151.4842  144.2695  160.7806 C   0  0  0  0  0  0  0  0  0  0  0  0
  152.5400  143.8416  161.8064 C   0  0  0  0  0  0  0  0  0  0  0  0
  152.6150  142.3124  161.8639 C   0  0  0  0  0  0  0  0  0  0  0  0
  152.8161  141.7349  160.4539 C   0  0  0  0  0  0  0  0  0  0  0  0
  151.7727  142.1828  159.5934 O   0  0  0  0  0  0  0  0  0  0  0  0
  150.9452  138.9506  156.4172 C   0  0  0  0  0  0  0  0  0  0  0  0
  151.4303  135.6208  155.6997 H   0  0  0  0  0  0  0  0  0  0  0  0
  150.8930  136.2185  157.2584 H   0  0  0  0  0  0  0  0  0  0  0  0
  152.5722  136.3980  156.7810 H   0  0  0  0  0  0  0  0  0  0  0  0
  151.3378  137.4555  153.5603 H   0  0  0  0  0  0  0  0  0  0  0  0
  151.0971  141.8634  154.9735 H   0  0  0  0  0  0  0  0  0  0  0  0
  148.7630  142.6421  155.0145 H   0  0  0  0  0  0  0  0  0  0  0  0
  148.2239  141.1142  155.7085 H   0  0  0  0  0  0  0  0  0  0  0  0
  148.8579  141.1729  154.0676 H   0  0  0  0  0  0  0  0  0  0  0  0
  151.4584  141.2405  157.4864 H   0  0  0  0  0  0  0  0  0  0  0  0
  149.1670  140.4291  158.0233 H   0  0  0  0  0  0  0  0  0  0  0  0
  148.4841  141.9864  157.5635 H   0  0  0  0  0  0  0  0  0  0  0  0
  149.5226  141.8456  158.9769 H   0  0  0  0  0  0  0  0  0  0  0  0
  151.9100  143.3218  156.9123 H   0  0  0  0  0  0  0  0  0  0  0  0
  150.5797  144.9903  158.2346 H   0  0  0  0  0  0  0  0  0  0  0  0
  149.6935  143.5721  158.7594 H   0  0  0  0  0  0  0  0  0  0  0  0
  152.7143  143.9165  159.0232 H   0  0  0  0  0  0  0  0  0  0  0  0
  151.4882  145.3552  160.6804 H   0  0  0  0  0  0  0  0  0  0  0  0
  150.4932  143.9927  161.1431 H   0  0  0  0  0  0  0  0  0  0  0  0
  153.5125  144.2474  161.5245 H   0  0  0  0  0  0  0  0  0  0  0  0
  152.3032  144.2482  162.7901 H   0  0  0  0  0  0  0  0  0  0  0  0
  153.4262  141.9982  162.5213 H   0  0  0  0  0  0  0  0  0  0  0  0
  151.6935  141.9152  162.2917 H   0  0  0  0  0  0  0  0  0  0  0  0
  153.7869  142.0248  160.0486 H   0  0  0  0  0  0  0  0  0  0  0  0
  152.7993  140.6453  160.4896 H   0  0  0  0  0  0  0  0  0  0  0  0
  150.8834  139.1944  157.4677 H   0  0  0  0  0  0  0  0  0  0  0  0
  150.4123  143.6906  156.3564 H   0  0  0  0  0  0  0  0  0  0  0  0
  1  2  1  0  0  0  0
  1 19  1  0  0  0  0
  1 20  1  0  0  0  0
  1 21  1  0  0  0  0
  2 18  2  0  0  0  0
  2  3  1  0  0  0  0
  3  4  2  0  0  0  0
  3 22  1  0  0  0  0
  4  5  1  0  0  0  0
  5  6  1  0  0  0  0
  5 18  1  0  0  0  0
  6  7  1  0  0  0  0
  6  8  1  0  0  0  0
  6 23  1  0  0  0  0
  7 24  1  0  0  0  0
  7 25  1  0  0  0  0
  7 26  1  0  0  0  0
  8  9  1  0  0  0  0
  8 10  1  0  0  0  0
  8 27  1  0  0  0  0
  9 28  1  0  0  0  0
  9 29  1  0  0  0  0
  9 30  1  0  0  0  0
 10 11  1  0  0  0  0
 10 31  1  0  0  0  0
 10 44  1  0  0  0  0
 11 12  1  0  0  0  0
 11 32  1  0  0  0  0
 11 33  1  0  0  0  0
 12 17  1  0  0  0  0
 12 13  1  0  0  0  0
 12 34  1  0  0  0  0
 13 14  1  0  0  0  0
 13 35  1  0  0  0  0
 13 36  1  0  0  0  0
 14 15  1  0  0  0  0
 14 37  1  0  0  0  0
 14 38  1  0  0  0  0
 15 16  1  0  0  0  0
 15 39  1  0  0  0  0
 15 40  1  0  0  0  0
 16 17  1  0  0  0  0
 16 41  1  0  0  0  0
 16 42  1  0  0  0  0
 18 43  1  0  0  0  0
M  CHG  1  10   1
M  END
> <s_m_source_file>
AV-unprocessed.smi

> <i_m_source_file_index>
3249

> <i_lp_mmshare_version>
43012

> <i_f3d_flags>
0

> <s_epik_input>
W0NIM11jMVtjSF1ubihbY0hdMSlbQ0BIXShbQ0gzXSlbQ0BIXShbQ0gzXSlbTkhdW0NIMl1bQ0BASF0yW0NIMl1bQ0gyXVtDSDJdW0NIMl1PMg==

> <s_epik_cmdline>
J2VwaWtfcHl0aG9uJywgJy1waCcsICc3LjAnLCAnLXRuJywgJzgnLCAnLW1hJywgJzIwMCcsICctbWV0YWxfYmluZGluZycsICctaW1hZScsICc8aW5maWxlLm1hZT4nLCAnLW9tYWUnLCAnPG91dGZpbGUubWFlPic=

> <r_lp_tautomer_probability>
1

> <r_epik_Ionization_Penalty>
0.00659207

> <r_epik_Ionization_Penalty_Charging>
0.00656881

> <r_epik_Ionization_Penalty_Neutral>
2.32662e-05

> <r_epik_State_Penalty>
0.0048654

> <r_epik_Charging_Adjusted_Penalty>
0.0114342

> <i_epik_Tot_Q>
1

> <i_epik_Tot_abs_Q>
1

> <r_epik_Metal_State_Penalty>
-0

> <b_epik_Metal_Only>
0

> <s_lp_Force_Field>
OPLS_2005

> <r_lp_Energy>
17.782

> <b_lp_Chiralities_Consistent>
1

> <s_lp_Variant>
AV-unprocessed.smi:3249-6

> <Gold.Version>
5.8.1

> <Gold.Id.Protein>
6NUR|6NUR_protein|mol2

> <Gold.PLP.Fitness>
48.5988

> <Gold.PLP.PLP>
-39.2135

> <Gold.PLP.part.hbond>
-2.0000

> <Gold.PLP.part.metal>
0.0000

> <Gold.PLP.part.buried>
-4.2558

> <Gold.PLP.part.nonpolar>
-33.1410

> <Gold.PLP.part.repulsive>
0.1848

> <Gold.PLP.ligand.clash>
0.0000

> <Gold.PLP.ligand.torsion>
1.0159

> <Gold.PLP.Chemscore.Hbond>
2.8000

> <Gold.PLP.Chemscore.CHOScore>
0.9610

> <Gold.PLP.Chemscore.Metal>
0.0000

> <Gold.Chemscore.Hbonds>
donor molecule, donor type, donor heavy atom, donor atom, acceptor molecule, acceptor atom, score
      L1  H    10    44       P1  8028  2.00
      P1  H  7989  7998       L1     4  0.75
      L1  C     3    22       P1  7949  0.97

> <Gold.PLP.Chemscore.Internal.Correction>
0.1341

> <Gold.Rescore>
     Score         DG    S(hbond)    S(metal)    S(lipo)     H(rot)  DE(clash)    DE(int)     intcor
     16.54     -20.41       1.79        0.00     110.12       1.53       0.10       3.77       ----

> <Gold.Chemscore.Fitness>
16.5414

> <Gold.Chemscore.DG>
-20.4088

> <Gold.Chemscore.ZeroCoef>
-5.4800

> <Gold.Chemscore.Hbond>
1.7874

> <Gold.Chemscore.Metal>
0.0000

> <Gold.Chemscore.Lipo>
110.1204

> <Gold.Chemscore.Internal_Hbond>
0.0000

> <Gold.Chemscore.DEClash>
0.0972

> <Gold.Chemscore.DEInternal>
3.7702

> <Gold.Chemscore.Rot>
1.5333

> <Gold.Chemscore.Internal.Correction>
   9.000000E+99

> <Gold.Chemscore.Hbonds>
donor molecule, donor type, donor heavy atom, donor atom, acceptor molecule, acceptor atom, score
      L1  H    10    44       P1  8028  0.96
      P1  H  7989  7998       L1     4  0.09

> <Gold.Chemscore.Hbond.Weighted>
-5.9699

> <Gold.Chemscore.Metal.Weighted>
-0.0000

> <Gold.Chemscore.Lipo.Weighted>
-12.8841

> <Gold.Chemscore.Internal_Hbond.Weighted>
0.0000

> <Gold.Chemscore.DEClash.Weighted>
0.0972

> <Gold.Chemscore.DEInternal.Weighted>
3.7702

> <Gold.Chemscore.Rot.Weighted>
3.9252

> <Gold.Chemscore.Internal.Correction.Weighted>
   9.000000E+99

> <Gold.Protein.RotatedTorsions>
[ 6907 6896 6895 6894 ] final   81.88 input  -60.11 | X-H torsion
[ 7974 7965 7964 7962 ] final  -51.96 input  175.53 | X-H torsion
[ 8008 7997 7996 7995 ] final  -71.46 input   59.86 | X-H torsion
[ 10167 10162 10161 10158 ] final  130.11 input  -65.29 | X-H torsion
[ 10718 10713 10712 10709 ] final  157.29 input   66.30 | X-H torsion
[ 10763 10752 10751 10750 ] final  -51.76 input  -60.55 | X-H torsion
[ 11005 11000 10999 10996 ] final  -66.76 input  -57.11 | X-H torsion

> <Gold.Protein.ActiveResidues>
 VAL166  LYS551  ARG553  GLY616  TRP617  ASP618  TYR619  PRO620  LYS621  CYS622 
 ASP623  PHE694  ASN695  SER759  ASP760  ASP761  ALA762  ILE779  LEU786  VAL792 
 PHE793  MET794  SER795  GLU796  ALA797  LYS798  CYS799  TRP800  GLU811  SER814 

> <Gold.Protein.RotatedAtoms>
  152.5282  134.3135  159.9121 H   0  0  0  0  0  0  0  0  0  0  0  0  # atno 6907 bound_to 6896
  151.3084  133.4085  159.2652 H   0  0  0  0  0  0  0  0  0  0  0  0  # atno 6908 bound_to 6896
  151.0059  134.9375  159.8037 H   0  0  0  0  0  0  0  0  0  0  0  0  # atno 6909 bound_to 6896
  145.9132  140.7898  142.9685 H   0  0  0  0  0  0  0  0  0  0  0  0  # atno 7974 bound_to 7965
  154.5090  140.0815  156.7952 H   0  0  0  0  0  0  0  0  0  0  0  0  # atno 8008 bound_to 7997
  155.3828  140.3428  155.4229 H   0  0  0  0  0  0  0  0  0  0  0  0  # atno 8009 bound_to 7997
  156.1550  140.1570  156.8695 H   0  0  0  0  0  0  0  0  0  0  0  0  # atno 8010 bound_to 7997
  139.5445  144.6761  151.4516 H   0  0  0  0  0  0  0  0  0  0  0  0  # atno 10167 bound_to 10162
  157.1935  131.0660  151.2066 H   0  0  0  0  0  0  0  0  0  0  0  0  # atno 10718 bound_to 10713
  154.1318  135.6519  153.4923 H   0  0  0  0  0  0  0  0  0  0  0  0  # atno 10763 bound_to 10752
  153.0193  135.5294  154.6993 H   0  0  0  0  0  0  0  0  0  0  0  0  # atno 10764 bound_to 10752
  154.6230  135.2967  155.0275 H   0  0  0  0  0  0  0  0  0  0  0  0  # atno 10765 bound_to 10752
  141.1490  133.6705  156.6189 H   0  0  0  0  0  0  0  0  0  0  0  0  # atno 11005 bound_to 11000
  144.6745  140.1858  143.7401 LP  0  0  0  0  0  0  0  0  0  0  0  0  # atno 17320 bound_to 7965
  145.8645  139.2240  143.1697 LP  0  0  0  0  0  0  0  0  0  0  0  0  # atno 17321 bound_to 7965
  140.6689  143.8338  150.6975 LP  0  0  0  0  0  0  0  0  0  0  0  0  # atno 17342 bound_to 10162
  140.1756  143.4158  152.1970 LP  0  0  0  0  0  0  0  0  0  0  0  0  # atno 17343 bound_to 10162
  157.3837  130.7245  149.6648 LP  0  0  0  0  0  0  0  0  0  0  0  0  # atno 17370 bound_to 10713
  155.9709  130.4165  150.4235 LP  0  0  0  0  0  0  0  0  0  0  0  0  # atno 17371 bound_to 10713
  140.3556  134.7731  157.4498 LP  0  0  0  0  0  0  0  0  0  0  0  0  # atno 17394 bound_to 11000
  140.0826  134.5711  155.8525 LP  0  0  0  0  0  0  0  0  0  0  0  0  # atno 17395 bound_to 11000

$$$$
