AV-unprocessed.smi:1955|AV-procd|sdf|7899|dock2
  -GOLD-   2272010 53D 1   1.00000     0.00000
 Structure written by MMmdl.
 34 35  0  0  0  0  0  0  0  0  1 V2000
  150.0780  140.7876  157.4749 O   0  0  0  0  0  0  0  0  0  0  0  0
  149.9622  141.8933  156.9451 C   0  0  0  0  0  0  0  0  0  0  0  0
  150.4674  143.0434  157.4250 N   0  0  0  0  0  0  0  0  0  0  0  0
  151.2262  143.2436  158.6088 C   0  0  0  0  0  0  0  0  0  0  0  0
  151.9723  142.1224  159.0378 C   0  0  0  0  0  0  0  0  0  0  0  0
  152.7591  142.2180  160.2019 C   0  0  0  0  0  0  0  0  0  0  0  0
  152.7776  143.4331  160.9095 C   0  0  0  0  0  0  0  0  0  0  0  0
  152.0051  144.5001  160.4153 C   0  0  0  0  0  0  0  0  0  0  0  0
  151.2519  144.4113  159.2989 N   0  0  0  0  0  0  0  0  0  0  0  0
  149.2972  142.0985  155.7987 N   0  0  0  0  0  0  0  0  0  0  0  0
  148.6281  141.0691  155.0009 C   0  0  1  0  0  0  0  0  0  0  0  0
  147.8002  141.7270  153.8740 C   0  0  0  0  0  0  0  0  0  0  0  0
  146.6644  140.8433  153.3337 C   0  0  0  0  0  0  0  0  0  0  0  0
  147.1238  139.5395  152.6641 C   0  0  0  0  0  0  0  0  0  0  0  0
  147.8001  138.5544  153.6326 C   0  0  0  0  0  0  0  0  0  0  0  0
  149.1875  138.9046  153.9099 N   0  0  0  0  0  0  0  0  0  0  0  0
  149.6399  140.0161  154.5105 C   0  0  0  0  0  0  0  0  0  0  0  0
  150.8483  140.1956  154.6613 O   0  0  0  0  0  0  0  0  0  0  0  0
  150.2833  143.8744  156.8826 H   0  0  0  0  0  0  0  0  0  0  0  0
  151.9456  141.1958  158.4828 H   0  0  0  0  0  0  0  0  0  0  0  0
  153.3374  141.3730  160.5452 H   0  0  0  0  0  0  0  0  0  0  0  0
  153.3673  143.5444  161.8074 H   0  0  0  0  0  0  0  0  0  0  0  0
  151.9911  145.4498  160.9291 H   0  0  0  0  0  0  0  0  0  0  0  0
  149.2606  143.0388  155.4330 H   0  0  0  0  0  0  0  0  0  0  0  0
  147.9439  140.5439  155.6701 H   0  0  0  0  0  0  0  0  0  0  0  0
  147.3442  142.6459  154.2453 H   0  0  0  0  0  0  0  0  0  0  0  0
  148.4557  142.0343  153.0579 H   0  0  0  0  0  0  0  0  0  0  0  0
  145.9689  140.6120  154.1414 H   0  0  0  0  0  0  0  0  0  0  0  0
  146.0928  141.4225  152.6079 H   0  0  0  0  0  0  0  0  0  0  0  0
  146.2446  139.0525  152.2409 H   0  0  0  0  0  0  0  0  0  0  0  0
  147.7803  139.7550  151.8199 H   0  0  0  0  0  0  0  0  0  0  0  0
  147.2362  138.4649  154.5622 H   0  0  0  0  0  0  0  0  0  0  0  0
  147.8073  137.5613  153.1830 H   0  0  0  0  0  0  0  0  0  0  0  0
  149.8814  138.2373  153.6055 H   0  0  0  0  0  0  0  0  0  0  0  0
  1  2  2  0  0  0  0
  2  3  1  0  0  0  0
  2 10  1  0  0  0  0
  3  4  1  0  0  0  0
  3 19  1  0  0  0  0
  4  9  1  0  0  0  0
  4  5  2  0  0  0  0
  5  6  1  0  0  0  0
  5 20  1  0  0  0  0
  6  7  2  0  0  0  0
  6 21  1  0  0  0  0
  7  8  1  0  0  0  0
  7 22  1  0  0  0  0
  8  9  2  0  0  0  0
  8 23  1  0  0  0  0
 10 11  1  0  0  0  0
 10 24  1  0  0  0  0
 11 17  1  0  0  0  0
 11 12  1  0  0  0  0
 11 25  1  0  0  0  0
 12 13  1  0  0  0  0
 12 26  1  0  0  0  0
 12 27  1  0  0  0  0
 13 14  1  0  0  0  0
 13 28  1  0  0  0  0
 13 29  1  0  0  0  0
 14 15  1  0  0  0  0
 14 30  1  0  0  0  0
 14 31  1  0  0  0  0
 15 16  1  0  0  0  0
 15 32  1  0  0  0  0
 15 33  1  0  0  0  0
 16 17  1  0  0  0  0
 16 34  1  0  0  0  0
 17 18  2  0  0  0  0
M  END
> <s_m_source_file>
AV-unprocessed.smi

> <i_m_source_file_index>
1955

> <i_lp_mmshare_version>
43012

> <i_f3d_flags>
0

> <s_epik_input>
bjFbY0hdW2NIXVtjSF1bY0hdYzFbTkhdQyg9TylbTkhdW0NAQEhdMltDSDJdW0NIMl1bQ0gyXVtDSDJdW05IXUMyPU8=

> <s_epik_cmdline>
J2VwaWtfcHl0aG9uJywgJy1waCcsICc3LjAnLCAnLXRuJywgJzgnLCAnLW1hJywgJzIwMCcsICctbWV0YWxfYmluZGluZycsICctaW1hZScsICc8aW5maWxlLm1hZT4nLCAnLW9tYWUnLCAnPG91dGZpbGUubWFlPic=

> <r_lp_tautomer_probability>
1

> <r_epik_Ionization_Penalty>
4.19487e-05

> <r_epik_Ionization_Penalty_Charging>
0

> <r_epik_Ionization_Penalty_Neutral>
4.19487e-05

> <r_epik_State_Penalty>
-0

> <r_epik_Charging_Adjusted_Penalty>
0

> <i_epik_Tot_Q>
0

> <i_epik_Tot_abs_Q>
0

> <r_epik_Metal_State_Penalty>
-0

> <b_epik_Metal_Only>
0

> <s_lp_Force_Field>
OPLS_2005

> <r_lp_Energy>
12.4575

> <b_lp_Chiralities_Consistent>
1

> <s_lp_Variant>
AV-unprocessed.smi:1955-2

> <Gold.Version>
5.8.1

> <Gold.Id.Protein>
6NUR|6NUR_protein|mol2

> <Gold.PLP.Fitness>
42.3095

> <Gold.PLP.PLP>
-34.0710

> <Gold.PLP.part.hbond>
-4.0000

> <Gold.PLP.part.metal>
0.0000

> <Gold.PLP.part.buried>
-2.4080

> <Gold.PLP.part.nonpolar>
-28.3560

> <Gold.PLP.part.repulsive>
0.3911

> <Gold.PLP.ligand.clash>
0.0000

> <Gold.PLP.ligand.torsion>
0.1902

> <Gold.PLP.Chemscore.Hbond>
2.8640

> <Gold.PLP.Chemscore.CHOScore>
0.0000

> <Gold.PLP.Chemscore.Metal>
0.0000

> <Gold.Chemscore.Hbonds>
donor molecule, donor type, donor heavy atom, donor atom, acceptor molecule, acceptor atom, score
      L1  H     3    19       P1  8028  0.86
      L1  H    10    24       P1  8028  1.00
      P1  H  7989  7998       L1    18  1.00

> <Gold.PLP.Chemscore.Internal.Correction>
0.0269

> <Gold.Rescore>
     Score         DG    S(hbond)    S(metal)    S(lipo)     H(rot)  DE(clash)    DE(int)     intcor
     19.14     -20.94       2.79        0.00      74.49       1.00       0.09       1.71       ----

> <Gold.Chemscore.Fitness>
19.1403

> <Gold.Chemscore.DG>
-20.9372

> <Gold.Chemscore.ZeroCoef>
-5.4800

> <Gold.Chemscore.Hbond>
2.7850

> <Gold.Chemscore.Metal>
0.0000

> <Gold.Chemscore.Lipo>
74.4893

> <Gold.Chemscore.Internal_Hbond>
0.0000

> <Gold.Chemscore.DEClash>
0.0901

> <Gold.Chemscore.DEInternal>
1.7068

> <Gold.Chemscore.Rot>
1.0000

> <Gold.Chemscore.Internal.Correction>
   9.000000E+99

> <Gold.Chemscore.Hbonds>
donor molecule, donor type, donor heavy atom, donor atom, acceptor molecule, acceptor atom, score
      L1  H     3    19       P1  8028  0.79
      L1  H    10    24       P1  8028  0.94
      P1  H  7989  7998       L1    18  0.92

> <Gold.Chemscore.Hbond.Weighted>
-9.3020

> <Gold.Chemscore.Metal.Weighted>
-0.0000

> <Gold.Chemscore.Lipo.Weighted>
-8.7152

> <Gold.Chemscore.Internal_Hbond.Weighted>
0.0000

> <Gold.Chemscore.DEClash.Weighted>
0.0901

> <Gold.Chemscore.DEInternal.Weighted>
1.7068

> <Gold.Chemscore.Rot.Weighted>
2.5600

> <Gold.Chemscore.Internal.Correction.Weighted>
   9.000000E+99

> <Gold.Protein.RotatedTorsions>
[ 6907 6896 6895 6894 ] final -100.24 input  -60.11 | X-H torsion
[ 7974 7965 7964 7962 ] final   88.37 input  175.53 | X-H torsion
[ 8008 7997 7996 7995 ] final   92.24 input   59.86 | X-H torsion
[ 10167 10162 10161 10158 ] final -106.04 input  -65.29 | X-H torsion
[ 10718 10713 10712 10709 ] final  145.08 input   66.30 | X-H torsion
[ 10763 10752 10751 10750 ] final   57.60 input  -60.55 | X-H torsion
[ 11005 11000 10999 10996 ] final  -30.36 input  -57.11 | X-H torsion

> <Gold.Protein.ActiveResidues>
 VAL166  LYS551  ARG553  GLY616  TRP617  ASP618  TYR619  PRO620  LYS621  CYS622 
 ASP623  PHE694  ASN695  SER759  ASP760  ASP761  ALA762  ILE779  LEU786  VAL792 
 PHE793  MET794  SER795  GLU796  ALA797  LYS798  CYS799  TRP800  GLU811  SER814 

> <Gold.Protein.RotatedAtoms>
  150.7108  134.0918  159.3934 H   0  0  0  0  0  0  0  0  0  0  0  0  # atno 6907 bound_to 6896
  151.8904  135.0416  160.0506 H   0  0  0  0  0  0  0  0  0  0  0  0  # atno 6908 bound_to 6896
  152.2496  133.5168  159.5354 H   0  0  0  0  0  0  0  0  0  0  0  0  # atno 6909 bound_to 6896
  145.5465  139.2292  143.2536 H   0  0  0  0  0  0  0  0  0  0  0  0  # atno 7974 bound_to 7965
  156.0330  140.3328  155.7161 H   0  0  0  0  0  0  0  0  0  0  0  0  # atno 8008 bound_to 7997
  155.5856  140.0641  157.2789 H   0  0  0  0  0  0  0  0  0  0  0  0  # atno 8009 bound_to 7997
  154.4361  140.1836  156.1010 H   0  0  0  0  0  0  0  0  0  0  0  0  # atno 8010 bound_to 7997
  140.1921  143.3884  152.1198 H   0  0  0  0  0  0  0  0  0  0  0  0  # atno 10167 bound_to 10162
  157.3495  131.0948  151.1012 H   0  0  0  0  0  0  0  0  0  0  0  0  # atno 10718 bound_to 10713
  152.9853  135.5636  154.5418 H   0  0  0  0  0  0  0  0  0  0  0  0  # atno 10763 bound_to 10752
  154.4871  135.2791  155.1528 H   0  0  0  0  0  0  0  0  0  0  0  0  # atno 10764 bound_to 10752
  154.3013  135.6307  153.5479 H   0  0  0  0  0  0  0  0  0  0  0  0  # atno 10765 bound_to 10752
  140.9376  133.7299  156.1027 H   0  0  0  0  0  0  0  0  0  0  0  0  # atno 11005 bound_to 11000
  146.1945  140.6287  142.9130 LP  0  0  0  0  0  0  0  0  0  0  0  0  # atno 17320 bound_to 7965
  144.7550  140.5286  143.6775 LP  0  0  0  0  0  0  0  0  0  0  0  0  # atno 17321 bound_to 7965
  139.5252  144.7093  151.5258 LP  0  0  0  0  0  0  0  0  0  0  0  0  # atno 17342 bound_to 10162
  140.6449  143.8815  150.6727 LP  0  0  0  0  0  0  0  0  0  0  0  0  # atno 17343 bound_to 10162
  157.2193  130.6474  149.5805 LP  0  0  0  0  0  0  0  0  0  0  0  0  # atno 17370 bound_to 10713
  155.9719  130.4634  150.6182 LP  0  0  0  0  0  0  0  0  0  0  0  0  # atno 17371 bound_to 10713
  140.7778  134.3759  157.5494 LP  0  0  0  0  0  0  0  0  0  0  0  0  # atno 17394 bound_to 11000
  139.8812  134.9063  156.2919 LP  0  0  0  0  0  0  0  0  0  0  0  0  # atno 17395 bound_to 11000

$$$$
