AV-unprocessed.smi:613|AV-procd|sdf|3065|dock6
  -GOLD-   2262023593D 1   1.00000     0.00000
 Structure written by MMmdl.
 38 39  0  0  0  0  0  0  0  0  1 V2000
  151.5240  140.1907  158.5486 C   0  0  0  0  0  0  0  0  0  0  0  0
  151.6878  141.5026  157.9331 N   0  0  0  0  0  0  0  0  0  0  0  0
  151.4729  141.6265  156.4889 C   0  0  0  0  0  0  0  0  0  0  0  0
  150.4107  140.6491  155.9477 C   0  0  1  0  0  0  0  0  0  0  0  0
  149.1527  141.3519  155.3928 C   0  0  0  0  0  0  0  0  0  0  0  0
  148.2096  140.4069  154.7884 N   0  0  0  0  0  0  0  0  0  0  0  0
  146.9968  141.0390  154.2512 C   0  0  0  0  0  0  0  0  0  0  0  0
  146.0163  141.5460  155.3158 C   0  0  0  0  0  0  0  0  0  0  0  0
  144.7658  141.0806  155.2596 N   0  0  0  0  0  0  0  0  0  0  0  0
  146.3833  142.3459  156.1735 O   0  0  0  0  0  0  0  0  0  0  0  0
  148.8956  139.6152  153.7721 C   0  0  0  0  0  0  0  0  0  0  0  0
  150.1477  138.9228  154.3342 C   0  0  0  0  0  0  0  0  0  0  0  0
  151.0172  139.8980  154.8992 O   0  0  0  0  0  0  0  0  0  0  0  0
  151.7612  142.6506  158.7591 C   0  0  0  0  0  0  0  0  0  0  0  0
  151.8943  143.9514  158.2136 C   0  0  0  0  0  0  0  0  0  0  0  0
  151.9726  145.0381  159.1013 C   0  0  0  0  0  0  0  0  0  0  0  0
  151.9115  144.7559  160.4761 C   0  0  0  0  0  0  0  0  0  0  0  0
  151.7788  143.4998  160.9526 N   0  0  0  0  0  0  0  0  0  0  0  0
  151.7024  142.4694  160.1045 N   0  0  0  0  0  0  0  0  0  0  0  0
  152.3799  139.9519  159.1804 H   0  0  0  0  0  0  0  0  0  0  0  0
  151.4447  139.4111  157.7906 H   0  0  0  0  0  0  0  0  0  0  0  0
  150.6179  140.1588  159.1545 H   0  0  0  0  0  0  0  0  0  0  0  0
  151.2352  142.6491  156.1958 H   0  0  0  0  0  0  0  0  0  0  0  0
  152.4247  141.4096  156.0027 H   0  0  0  0  0  0  0  0  0  0  0  0
  150.1229  139.9561  156.7403 H   0  0  0  0  0  0  0  0  0  0  0  0
  148.6743  141.8910  156.2094 H   0  0  0  0  0  0  0  0  0  0  0  0
  149.4480  142.1006  154.6555 H   0  0  0  0  0  0  0  0  0  0  0  0
  147.2690  141.8731  153.6017 H   0  0  0  0  0  0  0  0  0  0  0  0
  146.4587  140.3282  153.6223 H   0  0  0  0  0  0  0  0  0  0  0  0
  144.0847  141.3893  155.9377 H   0  0  0  0  0  0  0  0  0  0  0  0
  144.5063  140.4250  154.5370 H   0  0  0  0  0  0  0  0  0  0  0  0
  148.2199  138.8593  153.3697 H   0  0  0  0  0  0  0  0  0  0  0  0
  149.1836  140.2527  152.9343 H   0  0  0  0  0  0  0  0  0  0  0  0
  149.8764  138.1839  155.0897 H   0  0  0  0  0  0  0  0  0  0  0  0
  150.6755  138.3918  153.5417 H   0  0  0  0  0  0  0  0  0  0  0  0
  151.9401  144.1346  157.1511 H   0  0  0  0  0  0  0  0  0  0  0  0
  152.0768  146.0508  158.7412 H   0  0  0  0  0  0  0  0  0  0  0  0
  151.9674  145.5492  161.2067 H   0  0  0  0  0  0  0  0  0  0  0  0
  1  2  1  0  0  0  0
  1 20  1  0  0  0  0
  1 21  1  0  0  0  0
  1 22  1  0  0  0  0
  2  3  1  0  0  0  0
  2 14  1  0  0  0  0
  3  4  1  0  0  0  0
  3 23  1  0  0  0  0
  3 24  1  0  0  0  0
  4 13  1  0  0  0  0
  4  5  1  0  0  0  0
  4 25  1  0  0  0  0
  5  6  1  0  0  0  0
  5 26  1  0  0  0  0
  5 27  1  0  0  0  0
  6  7  1  0  0  0  0
  6 11  1  0  0  0  0
  7  8  1  0  0  0  0
  7 28  1  0  0  0  0
  7 29  1  0  0  0  0
  8  9  1  0  0  0  0
  8 10  2  0  0  0  0
  9 30  1  0  0  0  0
  9 31  1  0  0  0  0
 11 12  1  0  0  0  0
 11 32  1  0  0  0  0
 11 33  1  0  0  0  0
 12 13  1  0  0  0  0
 12 34  1  0  0  0  0
 12 35  1  0  0  0  0
 14 19  1  0  0  0  0
 14 15  2  0  0  0  0
 15 16  1  0  0  0  0
 15 36  1  0  0  0  0
 16 17  2  0  0  0  0
 16 37  1  0  0  0  0
 17 18  1  0  0  0  0
 17 38  1  0  0  0  0
 18 19  2  0  0  0  0
M  END
> <s_m_source_file>
AV-unprocessed.smi

> <i_m_source_file_index>
613

> <i_lp_mmshare_version>
43012

> <i_f3d_flags>
0

> <s_epik_input>
bjFuW2NIXVtjSF1bY0hdYzFOKFtDSDNdKVtDSDJdW0NAQEhdMltDSDJdTihbQ0gyXVtDSDJdTzIpW0NIMl1DKD1PKVtOSDJd

> <s_epik_cmdline>
J2VwaWtfcHl0aG9uJywgJy1waCcsICc3LjAnLCAnLXRuJywgJzgnLCAnLW1hJywgJzIwMCcsICctbWV0YWxfYmluZGluZycsICctaW1hZScsICc8aW5maWxlLm1hZT4nLCAnLW9tYWUnLCAnPG91dGZpbGUubWFlPic=

> <r_lp_tautomer_probability>
1

> <r_epik_Ionization_Penalty>
0.0398875

> <r_epik_Ionization_Penalty_Charging>
0

> <r_epik_Ionization_Penalty_Neutral>
0.0398875

> <r_epik_State_Penalty>
0.0543012

> <r_epik_Charging_Adjusted_Penalty>
0.0543012

> <i_epik_Tot_Q>
0

> <i_epik_Tot_abs_Q>
0

> <r_epik_Metal_State_Penalty>
0.0489294

> <b_epik_Metal_Only>
0

> <s_lp_Force_Field>
OPLS_2005

> <r_lp_Energy>
25.1321

> <b_lp_Chiralities_Consistent>
1

> <s_lp_Variant>
AV-unprocessed.smi:613-2

> <Gold.Version>
5.8.1

> <Gold.Id.Protein>
6NUR|6NUR_protein|mol2

> <Gold.PLP.Fitness>
41.3376

> <Gold.PLP.PLP>
-37.4918

> <Gold.PLP.part.hbond>
-2.9225

> <Gold.PLP.part.metal>
0.0000

> <Gold.PLP.part.buried>
-3.0957

> <Gold.PLP.part.nonpolar>
-32.9790

> <Gold.PLP.part.repulsive>
1.0404

> <Gold.PLP.ligand.clash>
0.0000

> <Gold.PLP.ligand.torsion>
1.1641

> <Gold.PLP.Chemscore.Hbond>
2.0000

> <Gold.PLP.Chemscore.CHOScore>
0.0000

> <Gold.PLP.Chemscore.Metal>
0.0000

> <Gold.Chemscore.Hbonds>
donor molecule, donor type, donor heavy atom, donor atom, acceptor molecule, acceptor atom, score
      L1  H     9    31       P1 10175  0.43
      P1  H  7989  7998       L1    13  1.00

> <Gold.PLP.Chemscore.Internal.Correction>
0.1739

> <Gold.Rescore>
     Score         DG    S(hbond)    S(metal)    S(lipo)     H(rot)  DE(clash)    DE(int)     intcor
     12.33     -15.39       1.66        0.00      85.05       2.18       1.85       1.21       ----

> <Gold.Chemscore.Fitness>
12.3343

> <Gold.Chemscore.DG>
-15.3913

> <Gold.Chemscore.ZeroCoef>
-5.4800

> <Gold.Chemscore.Hbond>
1.6608

> <Gold.Chemscore.Metal>
0.0000

> <Gold.Chemscore.Lipo>
85.0506

> <Gold.Chemscore.Internal_Hbond>
0.0000

> <Gold.Chemscore.DEClash>
1.8493

> <Gold.Chemscore.DEInternal>
1.2077

> <Gold.Chemscore.Rot>
2.1823

> <Gold.Chemscore.Internal.Correction>
   9.000000E+99

> <Gold.Chemscore.Hbonds>
donor molecule, donor type, donor heavy atom, donor atom, acceptor molecule, acceptor atom, score
      L1  H     9    31       P1 10175  0.43
      P1  H  7989  7998       L1    13  0.51

> <Gold.Chemscore.Hbond.Weighted>
-5.5471

> <Gold.Chemscore.Metal.Weighted>
-0.0000

> <Gold.Chemscore.Lipo.Weighted>
-9.9509

> <Gold.Chemscore.Internal_Hbond.Weighted>
0.0000

> <Gold.Chemscore.DEClash.Weighted>
1.8493

> <Gold.Chemscore.DEInternal.Weighted>
1.2077

> <Gold.Chemscore.Rot.Weighted>
5.5867

> <Gold.Chemscore.Internal.Correction.Weighted>
   9.000000E+99

> <Gold.Protein.RotatedTorsions>
[ 6907 6896 6895 6894 ] final  -92.46 input  -60.11 | X-H torsion
[ 7974 7965 7964 7962 ] final  122.35 input  175.53 | X-H torsion
[ 8008 7997 7996 7995 ] final  128.49 input   59.86 | X-H torsion
[ 10167 10162 10161 10158 ] final   71.97 input  -65.29 | X-H torsion
[ 10718 10713 10712 10709 ] final -107.89 input   66.30 | X-H torsion
[ 10763 10752 10751 10750 ] final  111.26 input  -60.55 | X-H torsion
[ 11005 11000 10999 10996 ] final   90.80 input  -57.11 | X-H torsion

> <Gold.Protein.ActiveResidues>
 VAL166  LYS551  ARG553  GLY616  TRP617  ASP618  TYR619  PRO620  LYS621  CYS622 
 ASP623  PHE694  ASN695  SER759  ASP760  ASP761  ALA762  ILE779  LEU786  VAL792 
 PHE793  MET794  SER795  GLU796  ALA797  LYS798  CYS799  TRP800  GLU811  SER814 

> <Gold.Protein.RotatedAtoms>
  150.6906  134.2119  159.4362 H   0  0  0  0  0  0  0  0  0  0  0  0  # atno 6907 bound_to 6896
  152.0080  134.9889  160.0576 H   0  0  0  0  0  0  0  0  0  0  0  0  # atno 6908 bound_to 6896
  152.1516  133.4490  159.4853 H   0  0  0  0  0  0  0  0  0  0  0  0  # atno 6909 bound_to 6896
  145.1086  139.3468  143.4775 H   0  0  0  0  0  0  0  0  0  0  0  0  # atno 7974 bound_to 7965
  156.2916  140.2643  156.2445 H   0  0  0  0  0  0  0  0  0  0  0  0  # atno 8008 bound_to 7997
  154.9944  140.0388  157.2352 H   0  0  0  0  0  0  0  0  0  0  0  0  # atno 8009 bound_to 7997
  154.7657  140.2769  155.6183 H   0  0  0  0  0  0  0  0  0  0  0  0  # atno 8010 bound_to 7997
  140.0403  144.5394  150.7439 H   0  0  0  0  0  0  0  0  0  0  0  0  # atno 10167 bound_to 10162
  156.0458  130.5685  150.7885 H   0  0  0  0  0  0  0  0  0  0  0  0  # atno 10718 bound_to 10713
  153.4608  135.3722  155.2337 H   0  0  0  0  0  0  0  0  0  0  0  0  # atno 10763 bound_to 10752
  154.8757  135.3908  154.3927 H   0  0  0  0  0  0  0  0  0  0  0  0  # atno 10764 bound_to 10752
  153.4500  135.7085  153.6179 H   0  0  0  0  0  0  0  0  0  0  0  0  # atno 10765 bound_to 10752
  139.8850  134.8635  156.3336 H   0  0  0  0  0  0  0  0  0  0  0  0  # atno 11005 bound_to 11000
  146.3527  140.0995  142.8608 LP  0  0  0  0  0  0  0  0  0  0  0  0  # atno 17320 bound_to 7965
  145.0873  140.9261  143.4790 LP  0  0  0  0  0  0  0  0  0  0  0  0  # atno 17321 bound_to 7965
  140.7263  143.2639  151.4109 LP  0  0  0  0  0  0  0  0  0  0  0  0  # atno 17342 bound_to 10162
  139.6018  144.1280  152.2206 LP  0  0  0  0  0  0  0  0  0  0  0  0  # atno 17343 bound_to 10162
  157.5332  131.0937  150.9927 LP  0  0  0  0  0  0  0  0  0  0  0  0  # atno 17370 bound_to 10713
  157.0228  130.5680  149.5333 LP  0  0  0  0  0  0  0  0  0  0  0  0  # atno 17371 bound_to 10713
  140.9706  133.7330  156.0529 LP  0  0  0  0  0  0  0  0  0  0  0  0  # atno 17394 bound_to 11000
  140.7875  134.3655  157.5472 LP  0  0  0  0  0  0  0  0  0  0  0  0  # atno 17395 bound_to 11000

$$$$
