AV-unprocessed.smi:2667|AV-procd|sdf|10337|dock4
  -GOLD-   2272014363D 1   1.00000     0.00000
 Structure written by MMmdl.
 45 47  0  0  0  0  0  0  0  0  2 V2000
  133.0219  140.2858  152.7867 C   0  0  0  0  0  0  0  0  0  0  0  0
  134.0674  140.3727  153.9097 C   0  0  0  0  0  0  0  0  0  0  0  0
  134.6275  139.0105  154.3479 C   0  0  0  0  0  0  0  0  0  0  0  0
  133.8796  138.1786  154.8638 O   0  0  0  0  0  0  0  0  0  0  0  0
  136.0811  138.7619  154.1215 C   0  0  0  0  0  0  0  0  0  0  0  0
  136.9532  139.7787  153.6670 C   0  0  0  0  0  0  0  0  0  0  0  0
  138.3204  139.5095  153.4662 C   0  0  0  0  0  0  0  0  0  0  0  0
  138.8500  138.2282  153.7136 C   0  0  0  0  0  0  0  0  0  0  0  0
  140.1993  138.0585  153.4959 O   0  0  0  0  0  0  0  0  0  0  0  0
  140.8047  136.8385  153.9014 C   0  0  0  0  0  0  0  0  0  0  0  0
  142.0950  136.5688  153.1027 C   0  0  1  0  0  0  0  0  0  0  0  0
  142.9264  137.7088  153.1690 O   0  0  0  0  0  0  0  0  0  0  0  0
  142.8563  135.2626  153.4409 C   0  0  0  0  0  0  0  0  0  0  0  0
  144.1713  135.1127  152.7971 N   0  0  0  0  0  0  0  0  0  0  0  0
  145.2978  135.8654  152.9359 C   0  0  0  0  0  0  0  0  0  0  0  0
  146.2555  135.3288  152.1309 N   0  3  0  0  0  0  0  0  0  0  0  0
  145.7418  134.2042  151.4822 C   0  0  0  0  0  0  0  0  0  0  0  0
  146.3317  133.3270  150.5771 C   0  0  0  0  0  0  0  0  0  0  0  0
  145.5278  132.2684  150.1056 C   0  0  0  0  0  0  0  0  0  0  0  0
  144.1945  132.1113  150.5358 C   0  0  0  0  0  0  0  0  0  0  0  0
  143.6071  133.0065  151.4541 C   0  0  0  0  0  0  0  0  0  0  0  0
  144.4056  134.0541  151.9115 C   0  0  0  0  0  0  0  0  0  0  0  0
  137.9790  137.2075  154.1652 C   0  0  0  0  0  0  0  0  0  0  0  0
  136.6112  137.4749  154.3664 C   0  0  0  0  0  0  0  0  0  0  0  0
  132.6587  141.2795  152.5241 H   0  0  0  0  0  0  0  0  0  0  0  0
  132.1597  139.6901  153.0895 H   0  0  0  0  0  0  0  0  0  0  0  0
  133.4424  139.8401  151.8845 H   0  0  0  0  0  0  0  0  0  0  0  0
  134.8960  141.0001  153.5805 H   0  0  0  0  0  0  0  0  0  0  0  0
  133.6215  140.8602  154.7770 H   0  0  0  0  0  0  0  0  0  0  0  0
  136.5967  140.7774  153.4644 H   0  0  0  0  0  0  0  0  0  0  0  0
  138.9724  140.2977  153.1188 H   0  0  0  0  0  0  0  0  0  0  0  0
  141.0582  136.8926  154.9614 H   0  0  0  0  0  0  0  0  0  0  0  0
  140.1063  136.0101  153.7705 H   0  0  0  0  0  0  0  0  0  0  0  0
  141.8010  136.4941  152.0552 H   0  0  0  0  0  0  0  0  0  0  0  0
  143.7085  137.5398  152.6667 H   0  0  0  0  0  0  0  0  0  0  0  0
  143.0263  135.2160  154.5174 H   0  0  0  0  0  0  0  0  0  0  0  0
  142.2506  134.3889  153.1973 H   0  0  0  0  0  0  0  0  0  0  0  0
  145.4055  136.7418  153.5585 H   0  0  0  0  0  0  0  0  0  0  0  0
  147.3539  133.4432  150.2481 H   0  0  0  0  0  0  0  0  0  0  0  0
  145.9426  131.5620  149.4009 H   0  0  0  0  0  0  0  0  0  0  0  0
  143.6092  131.2876  150.1533 H   0  0  0  0  0  0  0  0  0  0  0  0
  142.5851  132.8765  151.7763 H   0  0  0  0  0  0  0  0  0  0  0  0
  138.3347  136.2081  154.3644 H   0  0  0  0  0  0  0  0  0  0  0  0
  135.9732  136.6745  154.7126 H   0  0  0  0  0  0  0  0  0  0  0  0
  147.1911  135.7029  152.0363 H   0  0  0  0  0  0  0  0  0  0  0  0
  1  2  1  0  0  0  0
  1 25  1  0  0  0  0
  1 26  1  0  0  0  0
  1 27  1  0  0  0  0
  2  3  1  0  0  0  0
  2 28  1  0  0  0  0
  2 29  1  0  0  0  0
  3  4  2  0  0  0  0
  3  5  1  0  0  0  0
  5 24  1  0  0  0  0
  5  6  2  0  0  0  0
  6  7  1  0  0  0  0
  6 30  1  0  0  0  0
  7  8  2  0  0  0  0
  7 31  1  0  0  0  0
  8  9  1  0  0  0  0
  8 23  1  0  0  0  0
  9 10  1  0  0  0  0
 10 11  1  0  0  0  0
 10 32  1  0  0  0  0
 10 33  1  0  0  0  0
 11 12  1  0  0  0  0
 11 13  1  0  0  0  0
 11 34  1  0  0  0  0
 12 35  1  0  0  0  0
 13 14  1  0  0  0  0
 13 36  1  0  0  0  0
 13 37  1  0  0  0  0
 14 22  1  0  0  0  0
 14 15  1  0  0  0  0
 15 16  2  0  0  0  0
 15 38  1  0  0  0  0
 16 17  1  0  0  0  0
 16 45  1  0  0  0  0
 17 22  2  0  0  0  0
 17 18  1  0  0  0  0
 18 19  2  0  0  0  0
 18 39  1  0  0  0  0
 19 20  1  0  0  0  0
 19 40  1  0  0  0  0
 20 21  2  0  0  0  0
 20 41  1  0  0  0  0
 21 22  1  0  0  0  0
 21 42  1  0  0  0  0
 23 24  2  0  0  0  0
 23 43  1  0  0  0  0
 24 44  1  0  0  0  0
M  CHG  1  16   1
M  END
> <s_m_source_file>
AV-unprocessed.smi

> <i_m_source_file_index>
2667

> <i_lp_mmshare_version>
43012

> <i_f3d_flags>
0

> <s_epik_input>
W0NIM11bQ0gyXUMoPU8pYzFbY0hdW2NIXWMoW2NIXVtjSF0xKU9bQ0gyXVtDQEhdKFtPSF0pW0NIMl1uKFtjSF1uMiljKGMyMylbY0hdW2NIXVtjSF1bY0hdMw==

> <s_epik_cmdline>
J2VwaWtfcHl0aG9uJywgJy1waCcsICc3LjAnLCAnLXRuJywgJzgnLCAnLW1hJywgJzIwMCcsICctbWV0YWxfYmluZGluZycsICctaW1hZScsICc8aW5maWxlLm1hZT4nLCAnLW9tYWUnLCAnPG91dGZpbGUubWFlPic=

> <r_lp_tautomer_probability>
0.9999

> <r_epik_Ionization_Penalty>
1.40272

> <r_epik_Ionization_Penalty_Charging>
1.40272

> <r_epik_Ionization_Penalty_Neutral>
2.3993e-06

> <r_epik_State_Penalty>
1.48501

> <r_epik_Charging_Adjusted_Penalty>
2.88772

> <i_epik_Tot_Q>
1

> <i_epik_Tot_abs_Q>
1

> <r_epik_Metal_State_Penalty>
5.5274

> <b_epik_Metal_Only>
0

> <s_lp_Force_Field>
OPLS_2005

> <r_lp_Energy>
30.2485

> <b_lp_Chiralities_Consistent>
1

> <s_lp_Variant>
AV-unprocessed.smi:2667-4

> <Gold.Version>
5.8.1

> <Gold.Id.Protein>
6NUR|6NUR_protein|mol2

> <Gold.PLP.Fitness>
49.2946

> <Gold.PLP.PLP>
-43.6623

> <Gold.PLP.part.hbond>
-2.0000

> <Gold.PLP.part.metal>
0.0000

> <Gold.PLP.part.buried>
-7.7733

> <Gold.PLP.part.nonpolar>
-34.2959

> <Gold.PLP.part.repulsive>
0.1809

> <Gold.PLP.ligand.clash>
0.0000

> <Gold.PLP.ligand.torsion>
0.3199

> <Gold.PLP.Chemscore.Hbond>
2.0000

> <Gold.PLP.Chemscore.CHOScore>
0.0000

> <Gold.PLP.Chemscore.Metal>
0.0000

> <Gold.Chemscore.Hbonds>
donor molecule, donor type, donor heavy atom, donor atom, acceptor molecule, acceptor atom, score
      L1  H    16    45       P1  7948  2.00

> <Gold.PLP.Chemscore.Internal.Correction>
0.2720

> <Gold.Rescore>
     Score         DG    S(hbond)    S(metal)    S(lipo)     H(rot)  DE(clash)    DE(int)     intcor
     15.91     -16.25       0.99        0.00     120.26       2.59       0.01       0.33       ----

> <Gold.Chemscore.Fitness>
15.9076

> <Gold.Chemscore.DG>
-16.2461

> <Gold.Chemscore.ZeroCoef>
-5.4800

> <Gold.Chemscore.Hbond>
0.9938

> <Gold.Chemscore.Metal>
0.0000

> <Gold.Chemscore.Lipo>
120.2593

> <Gold.Chemscore.Internal_Hbond>
0.0000

> <Gold.Chemscore.DEClash>
0.0098

> <Gold.Chemscore.DEInternal>
0.3288

> <Gold.Chemscore.Rot>
2.5873

> <Gold.Chemscore.Internal.Correction>
   9.000000E+99

> <Gold.Chemscore.Hbonds>
donor molecule, donor type, donor heavy atom, donor atom, acceptor molecule, acceptor atom, score
      L1  H    16    45       P1  7948  1.00

> <Gold.Chemscore.Hbond.Weighted>
-3.3193

> <Gold.Chemscore.Metal.Weighted>
-0.0000

> <Gold.Chemscore.Lipo.Weighted>
-14.0703

> <Gold.Chemscore.Internal_Hbond.Weighted>
0.0000

> <Gold.Chemscore.DEClash.Weighted>
0.0098

> <Gold.Chemscore.DEInternal.Weighted>
0.3288

> <Gold.Chemscore.Rot.Weighted>
6.6235

> <Gold.Chemscore.Internal.Correction.Weighted>
   9.000000E+99

> <Gold.Protein.RotatedTorsions>
[ 6907 6896 6895 6894 ] final  114.72 input  -60.11 | X-H torsion
[ 7974 7965 7964 7962 ] final  -37.24 input  175.53 | X-H torsion
[ 8008 7997 7996 7995 ] final  104.41 input   59.86 | X-H torsion
[ 10167 10162 10161 10158 ] final   50.21 input  -65.29 | X-H torsion
[ 10718 10713 10712 10709 ] final  132.87 input   66.30 | X-H torsion
[ 10763 10752 10751 10750 ] final   54.49 input  -60.55 | X-H torsion
[ 11005 11000 10999 10996 ] final -148.63 input  -57.11 | X-H torsion

> <Gold.Protein.ActiveResidues>
 VAL166  LYS551  ARG553  GLY616  TRP617  ASP618  TYR619  PRO620  LYS621  CYS622 
 ASP623  PHE694  ASN695  SER759  ASP760  ASP761  ALA762  ILE779  LEU786  VAL792 
 PHE793  MET794  SER795  GLU796  ALA797  LYS798  CYS799  TRP800  GLU811  SER814 

> <Gold.Protein.RotatedAtoms>
  152.4785  133.8197  159.7046 H   0  0  0  0  0  0  0  0  0  0  0  0  # atno 6907 bound_to 6896
  150.8818  133.7351  159.2936 H   0  0  0  0  0  0  0  0  0  0  0  0  # atno 6908 bound_to 6896
  151.4853  135.1058  159.9841 H   0  0  0  0  0  0  0  0  0  0  0  0  # atno 6909 bound_to 6896
  146.0592  140.6372  142.9005 H   0  0  0  0  0  0  0  0  0  0  0  0  # atno 7974 bound_to 7965
  156.1570  140.3148  155.8743 H   0  0  0  0  0  0  0  0  0  0  0  0  # atno 8008 bound_to 7997
  155.3858  140.0490  157.3059 H   0  0  0  0  0  0  0  0  0  0  0  0  # atno 8009 bound_to 7997
  154.5111  140.2164  155.9167 H   0  0  0  0  0  0  0  0  0  0  0  0  # atno 8010 bound_to 7997
  140.2748  144.3224  150.6280 H   0  0  0  0  0  0  0  0  0  0  0  0  # atno 10167 bound_to 10162
  157.4829  131.1087  150.9658 H   0  0  0  0  0  0  0  0  0  0  0  0  # atno 10718 bound_to 10713
  152.9805  135.5743  154.4912 H   0  0  0  0  0  0  0  0  0  0  0  0  # atno 10763 bound_to 10752
  154.4446  135.2777  155.1826 H   0  0  0  0  0  0  0  0  0  0  0  0  # atno 10764 bound_to 10752
  154.3479  135.6215  153.5682 H   0  0  0  0  0  0  0  0  0  0  0  0  # atno 10765 bound_to 10752
  140.7592  134.3318  157.5106 H   0  0  0  0  0  0  0  0  0  0  0  0  # atno 11005 bound_to 11000
  144.7165  140.4228  143.7040 LP  0  0  0  0  0  0  0  0  0  0  0  0  # atno 17320 bound_to 7965
  145.6589  139.1578  143.2819 LP  0  0  0  0  0  0  0  0  0  0  0  0  # atno 17321 bound_to 7965
  140.5860  143.2170  151.7341 LP  0  0  0  0  0  0  0  0  0  0  0  0  # atno 17342 bound_to 10162
  139.4979  144.4010  152.0182 LP  0  0  0  0  0  0  0  0  0  0  0  0  # atno 17343 bound_to 10162
  157.0385  130.5740  149.5353 LP  0  0  0  0  0  0  0  0  0  0  0  0  # atno 17370 bound_to 10713
  156.0131  130.5224  150.8051 LP  0  0  0  0  0  0  0  0  0  0  0  0  # atno 17371 bound_to 10713
  139.8774  134.9191  156.3219 LP  0  0  0  0  0  0  0  0  0  0  0  0  # atno 17394 bound_to 11000
  140.9679  133.7346  156.0493 LP  0  0  0  0  0  0  0  0  0  0  0  0  # atno 17395 bound_to 11000

$$$$
