AV-unprocessed.smi:1007|AV-procd|sdf|4400|dock10
  -GOLD-   22720 2333D 1   1.00000     0.00000
 Structure written by MMmdl.
 56 58  0  0  0  0  0  0  0  0  2 V2000
  141.8208  136.8383  153.4888 C   0  0  0  0  0  0  0  0  0  0  0  0
  143.0225  137.3171  152.9101 O   0  0  0  0  0  0  0  0  0  0  0  0
  144.1732  136.6863  153.4473 C   0  0  0  0  0  0  0  0  0  0  0  0
  145.4179  137.2085  152.7129 C   0  0  0  0  0  0  0  0  0  0  0  0
  145.6965  138.6379  153.0022 N   0  3  0  0  0  0  0  0  0  0  0  0
  146.8353  139.1971  152.2248 C   0  0  0  0  0  0  0  0  0  0  0  0
  147.0305  140.6928  152.5523 C   0  0  0  0  0  0  0  0  0  0  0  0
  147.2312  140.9533  153.9776 N   0  0  0  0  0  0  0  0  0  0  0  0
  148.5483  140.5069  154.4543 C   0  0  0  0  0  0  0  0  0  0  0  0
  149.0302  141.0777  155.8067 C   0  0  2  0  0  0  0  0  0  0  0  0
  148.0753  141.9814  156.3281 O   0  0  0  0  0  0  0  0  0  0  0  0
  150.4411  141.7012  155.7688 C   0  0  0  0  0  0  0  0  0  0  0  0
  151.3210  141.1404  156.7778 N   0  0  0  0  0  0  0  0  0  0  0  0
  151.9668  139.9593  156.7288 C   0  0  0  0  0  0  0  0  0  0  0  0
  152.7268  139.6376  157.7716 N   0  0  0  0  0  0  0  0  0  0  0  0
  152.5498  140.7360  158.5954 C   0  0  0  0  0  0  0  0  0  0  0  0
  153.0852  141.0221  159.8704 C   0  0  0  0  0  0  0  0  0  0  0  0
  152.7637  142.2253  160.5381 C   0  0  0  0  0  0  0  0  0  0  0  0
  153.3622  142.4922  161.9079 C   0  0  0  0  0  0  0  0  0  0  0  0
  151.8938  143.1654  159.9293 C   0  0  0  0  0  0  0  0  0  0  0  0
  151.5372  144.4666  160.6262 C   0  0  0  0  0  0  0  0  0  0  0  0
  151.3492  142.8949  158.6565 C   0  0  0  0  0  0  0  0  0  0  0  0
  151.6763  141.6940  158.0026 C   0  0  0  0  0  0  0  0  0  0  0  0
  146.0910  140.3983  154.7109 C   0  0  0  0  0  0  0  0  0  0  0  0
  145.8774  138.8935  154.4547 C   0  0  0  0  0  0  0  0  0  0  0  0
  140.9694  137.3541  153.0447 H   0  0  0  0  0  0  0  0  0  0  0  0
  141.8003  137.0193  154.5644 H   0  0  0  0  0  0  0  0  0  0  0  0
  141.6964  135.7691  153.3111 H   0  0  0  0  0  0  0  0  0  0  0  0
  144.2553  136.9264  154.5085 H   0  0  0  0  0  0  0  0  0  0  0  0
  144.0902  135.6018  153.3744 H   0  0  0  0  0  0  0  0  0  0  0  0
  146.2710  136.6018  153.0196 H   0  0  0  0  0  0  0  0  0  0  0  0
  145.3115  137.0674  151.6364 H   0  0  0  0  0  0  0  0  0  0  0  0
  147.7437  138.6316  152.4349 H   0  0  0  0  0  0  0  0  0  0  0  0
  146.6463  139.0974  151.1569 H   0  0  0  0  0  0  0  0  0  0  0  0
  147.8697  141.0908  151.9806 H   0  0  0  0  0  0  0  0  0  0  0  0
  146.1534  141.2449  152.2114 H   0  0  0  0  0  0  0  0  0  0  0  0
  148.6082  139.4190  154.4771 H   0  0  0  0  0  0  0  0  0  0  0  0
  149.2863  140.8155  153.7125 H   0  0  0  0  0  0  0  0  0  0  0  0
  149.0494  140.2451  156.5109 H   0  0  0  0  0  0  0  0  0  0  0  0
  148.2441  142.8371  155.9633 H   0  0  0  0  0  0  0  0  0  0  0  0
  150.8968  141.5396  154.7912 H   0  0  0  0  0  0  0  0  0  0  0  0
  150.3943  142.7808  155.9163 H   0  0  0  0  0  0  0  0  0  0  0  0
  151.8762  139.2997  155.8780 H   0  0  0  0  0  0  0  0  0  0  0  0
  153.7481  140.3059  160.3335 H   0  0  0  0  0  0  0  0  0  0  0  0
  152.5747  142.6150  162.6517 H   0  0  0  0  0  0  0  0  0  0  0  0
  153.9671  143.3989  161.8904 H   0  0  0  0  0  0  0  0  0  0  0  0
  154.0008  141.6695  162.2310 H   0  0  0  0  0  0  0  0  0  0  0  0
  150.8447  145.0609  160.0294 H   0  0  0  0  0  0  0  0  0  0  0  0
  152.4322  145.0656  160.7956 H   0  0  0  0  0  0  0  0  0  0  0  0
  151.0645  144.2689  161.5885 H   0  0  0  0  0  0  0  0  0  0  0  0
  150.6852  143.6018  158.1816 H   0  0  0  0  0  0  0  0  0  0  0  0
  146.1930  140.5861  155.7785 H   0  0  0  0  0  0  0  0  0  0  0  0
  145.1882  140.9334  154.4131 H   0  0  0  0  0  0  0  0  0  0  0  0
  144.9903  138.5617  154.9957 H   0  0  0  0  0  0  0  0  0  0  0  0
  146.7148  138.3088  154.8375 H   0  0  0  0  0  0  0  0  0  0  0  0
  144.8717  139.1531  152.7279 H   0  0  0  0  0  0  0  0  0  0  0  0
  1  2  1  0  0  0  0
  1 26  1  0  0  0  0
  1 27  1  0  0  0  0
  1 28  1  0  0  0  0
  2  3  1  0  0  0  0
  3  4  1  0  0  0  0
  3 29  1  0  0  0  0
  3 30  1  0  0  0  0
  4  5  1  0  0  0  0
  4 31  1  0  0  0  0
  4 32  1  0  0  0  0
  5 25  1  0  0  0  0
  5  6  1  0  0  0  0
  5 56  1  0  0  0  0
  6  7  1  0  0  0  0
  6 33  1  0  0  0  0
  6 34  1  0  0  0  0
  7  8  1  0  0  0  0
  7 35  1  0  0  0  0
  7 36  1  0  0  0  0
  8  9  1  0  0  0  0
  8 24  1  0  0  0  0
  9 10  1  0  0  0  0
  9 37  1  0  0  0  0
  9 38  1  0  0  0  0
 10 11  1  0  0  0  0
 10 12  1  0  0  0  0
 10 39  1  0  0  0  0
 11 40  1  0  0  0  0
 12 13  1  0  0  0  0
 12 41  1  0  0  0  0
 12 42  1  0  0  0  0
 13 23  1  0  0  0  0
 13 14  1  0  0  0  0
 14 15  2  0  0  0  0
 14 43  1  0  0  0  0
 15 16  1  0  0  0  0
 16 23  2  0  0  0  0
 16 17  1  0  0  0  0
 17 18  2  0  0  0  0
 17 44  1  0  0  0  0
 18 19  1  0  0  0  0
 18 20  1  0  0  0  0
 19 45  1  0  0  0  0
 19 46  1  0  0  0  0
 19 47  1  0  0  0  0
 20 21  1  0  0  0  0
 20 22  2  0  0  0  0
 21 48  1  0  0  0  0
 21 49  1  0  0  0  0
 21 50  1  0  0  0  0
 22 23  1  0  0  0  0
 22 51  1  0  0  0  0
 24 25  1  0  0  0  0
 24 52  1  0  0  0  0
 24 53  1  0  0  0  0
 25 54  1  0  0  0  0
 25 55  1  0  0  0  0
M  CHG  1   5   1
M  END
> <s_m_source_file>
AV-unprocessed.smi

> <i_m_source_file_index>
1007

> <i_lp_mmshare_version>
43012

> <i_f3d_flags>
0

> <s_epik_input>
W0NIM11PW0NIMl1bQ0gyXU4xW0NIMl1bQ0gyXU4oW0NIMl1bQ0gyXTEpW0NIMl1bQ0BIXShbT0hdKVtDSDJdbihbY0hdbjIpYyhjMjMpW2NIXWMoW0NIM10pYyhbY0hdMylbQ0gzXQ==

> <s_epik_cmdline>
J2VwaWtfcHl0aG9uJywgJy1waCcsICc3LjAnLCAnLXRuJywgJzgnLCAnLW1hJywgJzIwMCcsICctbWV0YWxfYmluZGluZycsICctaW1hZScsICc8aW5maWxlLm1hZT4nLCAnLW9tYWUnLCAnPG91dGZpbGUubWFlPic=

> <r_epik_Ionization_Penalty>
0.186009

> <r_epik_Ionization_Penalty_Charging>
0.0613973

> <r_epik_Ionization_Penalty_Neutral>
0.124612

> <r_epik_State_Penalty>
1.21927

> <r_epik_Charging_Adjusted_Penalty>
1.28067

> <i_epik_Tot_Q>
1

> <i_epik_Tot_abs_Q>
1

> <r_epik_Metal_State_Penalty>
1.13901

> <b_epik_Metal_Only>
0

> <s_lp_Force_Field>
OPLS_2005

> <r_lp_Energy>
39.6127

> <b_lp_Chiralities_Consistent>
1

> <s_lp_Variant>
AV-unprocessed.smi:1007-3

> <Gold.Version>
5.8.1

> <Gold.Id.Protein>
6NUR|6NUR_protein|mol2

> <Gold.PLP.Fitness>
54.0542

> <Gold.PLP.PLP>
-45.3993

> <Gold.PLP.part.hbond>
-3.0000

> <Gold.PLP.part.metal>
0.0000

> <Gold.PLP.part.buried>
-4.5638

> <Gold.PLP.part.nonpolar>
-38.2771

> <Gold.PLP.part.repulsive>
0.3643

> <Gold.PLP.ligand.clash>
0.0000

> <Gold.PLP.ligand.torsion>
1.8240

> <Gold.PLP.Chemscore.Hbond>
4.0000

> <Gold.PLP.Chemscore.CHOScore>
0.0000

> <Gold.PLP.Chemscore.Metal>
0.0000

> <Gold.Chemscore.Hbonds>
donor molecule, donor type, donor heavy atom, donor atom, acceptor molecule, acceptor atom, score
      L1  H     5    56       P1 10175  2.00
      L1  H    11    40       P1  8028  1.00
      P1  H  7997  8009       L1    15  0.98

> <Gold.PLP.Chemscore.Internal.Correction>
0.3030

> <Gold.Rescore>
     Score         DG    S(hbond)    S(metal)    S(lipo)     H(rot)  DE(clash)    DE(int)     intcor
     18.07     -21.47       2.08        0.00     133.14       2.56       0.44       2.95       ----

> <Gold.Chemscore.Fitness>
18.0730

> <Gold.Chemscore.DG>
-21.4651

> <Gold.Chemscore.ZeroCoef>
-5.4800

> <Gold.Chemscore.Hbond>
2.0838

> <Gold.Chemscore.Metal>
0.0000

> <Gold.Chemscore.Lipo>
133.1392

> <Gold.Chemscore.Internal_Hbond>
0.0000

> <Gold.Chemscore.DEClash>
0.4408

> <Gold.Chemscore.DEInternal>
2.9514

> <Gold.Chemscore.Rot>
2.5594

> <Gold.Chemscore.Internal.Correction>
   9.000000E+99

> <Gold.Chemscore.Hbonds>
donor molecule, donor type, donor heavy atom, donor atom, acceptor molecule, acceptor atom, score
      L1  H     5    56       P1 10175  1.00
      L1  H    11    40       P1  8028  0.87
      P1  H  7997  8009       L1    15  0.06

> <Gold.Chemscore.Hbond.Weighted>
-6.9600

> <Gold.Chemscore.Metal.Weighted>
-0.0000

> <Gold.Chemscore.Lipo.Weighted>
-15.5773

> <Gold.Chemscore.Internal_Hbond.Weighted>
0.0000

> <Gold.Chemscore.DEClash.Weighted>
0.4408

> <Gold.Chemscore.DEInternal.Weighted>
2.9514

> <Gold.Chemscore.Rot.Weighted>
6.5522

> <Gold.Chemscore.Internal.Correction.Weighted>
   9.000000E+99

> <Gold.Protein.RotatedTorsions>
[ 6907 6896 6895 6894 ] final  166.68 input  -60.11 | X-H torsion
[ 7974 7965 7964 7962 ] final  -44.63 input  175.53 | X-H torsion
[ 8008 7997 7996 7995 ] final  154.45 input   59.86 | X-H torsion
[ 10167 10162 10161 10158 ] final   73.05 input  -65.29 | X-H torsion
[ 10718 10713 10712 10709 ] final   92.39 input   66.30 | X-H torsion
[ 10763 10752 10751 10750 ] final   21.94 input  -60.55 | X-H torsion
[ 11005 11000 10999 10996 ] final -139.14 input  -57.11 | X-H torsion

> <Gold.Protein.ActiveResidues>
 VAL166  LYS551  ARG553  GLY616  TRP617  ASP618  TYR619  PRO620  LYS621  CYS622 
 ASP623  PHE694  ASN695  SER759  ASP760  ASP761  ALA762  ILE779  LEU786  VAL792 
 PHE793  MET794  SER795  GLU796  ALA797  LYS798  CYS799  TRP800  GLU811  SER814 

> <Gold.Protein.RotatedAtoms>
  151.8751  133.3483  159.3747 H   0  0  0  0  0  0  0  0  0  0  0  0  # atno 6907 bound_to 6896
  150.7142  134.5074  159.5600 H   0  0  0  0  0  0  0  0  0  0  0  0  # atno 6908 bound_to 6896
  152.2615  134.8030  160.0481 H   0  0  0  0  0  0  0  0  0  0  0  0  # atno 6909 bound_to 6896
  145.9901  140.7190  142.9321 H   0  0  0  0  0  0  0  0  0  0  0  0  # atno 7974 bound_to 7965
  156.2530  140.1966  156.6648 H   0  0  0  0  0  0  0  0  0  0  0  0  # atno 8008 bound_to 7997
  154.6437  140.0580  156.9901 H   0  0  0  0  0  0  0  0  0  0  0  0  # atno 8009 bound_to 7997
  155.1524  140.3252  155.4431 H   0  0  0  0  0  0  0  0  0  0  0  0  # atno 8010 bound_to 7997
  140.0287  144.5483  150.7524 H   0  0  0  0  0  0  0  0  0  0  0  0  # atno 10167 bound_to 10162
  157.6958  131.0441  150.3875 H   0  0  0  0  0  0  0  0  0  0  0  0  # atno 10718 bound_to 10713
  153.0955  135.6658  153.9772 H   0  0  0  0  0  0  0  0  0  0  0  0  # atno 10763 bound_to 10752
  153.9357  135.2999  155.3445 H   0  0  0  0  0  0  0  0  0  0  0  0  # atno 10764 bound_to 10752
  154.7373  135.5096  153.9137 H   0  0  0  0  0  0  0  0  0  0  0  0  # atno 10765 bound_to 10752
  140.8548  134.2241  157.4740 H   0  0  0  0  0  0  0  0  0  0  0  0  # atno 11005 bound_to 11000
  144.6886  140.3055  143.7256 LP  0  0  0  0  0  0  0  0  0  0  0  0  # atno 17320 bound_to 7965
  145.7643  139.1835  143.2249 LP  0  0  0  0  0  0  0  0  0  0  0  0  # atno 17321 bound_to 7965
  140.7311  143.2691  151.3947 LP  0  0  0  0  0  0  0  0  0  0  0  0  # atno 17342 bound_to 10162
  139.6091  144.1136  152.2280 LP  0  0  0  0  0  0  0  0  0  0  0  0  # atno 17343 bound_to 10162
  156.4282  130.3966  149.6778 LP  0  0  0  0  0  0  0  0  0  0  0  0  # atno 17370 bound_to 10713
  156.4005  130.7672  151.2680 LP  0  0  0  0  0  0  0  0  0  0  0  0  # atno 17371 bound_to 10713
  139.8705  134.9701  156.4689 LP  0  0  0  0  0  0  0  0  0  0  0  0  # atno 17394 bound_to 11000
  140.8749  133.7960  155.9404 LP  0  0  0  0  0  0  0  0  0  0  0  0  # atno 17395 bound_to 11000

$$$$
