AV-unprocessed.smi:1966|AV-procd|sdf|7949|dock8
  -GOLD-   2272010113D 1   1.00000     0.00000
 Structure written by MMmdl.
 53 54  0  0  0  0  0  0  0  0  1 V2000
  146.2605  135.8525  154.0078 C   0  0  0  0  0  0  0  0  0  0  0  0
  147.4529  135.3271  154.7991 C   0  0  0  0  0  0  0  0  0  0  0  0
  147.3343  135.0656  155.9959 O   0  0  0  0  0  0  0  0  0  0  0  0
  148.5996  135.1782  154.1168 N   0  0  0  0  0  0  0  0  0  0  0  0
  149.8593  134.6792  154.6733 C   0  0  1  0  0  0  0  0  0  0  0  0
  150.3277  135.6435  155.7808 C   0  0  0  0  0  0  0  0  0  0  0  0
  150.5626  135.2122  156.9102 O   0  0  0  0  0  0  0  0  0  0  0  0
  150.4848  136.9259  155.4033 N   0  0  0  0  0  0  0  0  0  0  0  0
  150.9036  138.0410  156.1785 C   0  0  0  0  0  0  0  0  0  0  0  0
  151.4719  139.1367  155.5006 C   0  0  0  0  0  0  0  0  0  0  0  0
  151.8828  140.2650  156.2350 C   0  0  0  0  0  0  0  0  0  0  0  0
  151.7068  140.2760  157.6385 C   0  0  0  0  0  0  0  0  0  0  0  0
  152.1110  141.3971  158.3955 N   0  0  0  0  0  0  0  0  0  0  0  0
  151.3331  142.6139  158.1799 C   0  0  0  0  0  0  0  0  0  0  0  0
  152.0439  143.8275  158.8092 C   0  0  1  0  0  0  0  0  0  0  0  0
  151.1974  145.1009  158.7152 C   0  0  0  0  0  0  0  0  0  0  0  0
  152.2999  143.5625  160.1857 O   0  0  0  0  0  0  0  0  0  0  0  0
  153.1543  142.4378  160.3728 C   0  0  1  0  0  0  0  0  0  0  0  0
  153.4457  142.2990  161.8705 C   0  0  0  0  0  0  0  0  0  0  0  0
  152.4699  141.1844  159.7963 C   0  0  0  0  0  0  0  0  0  0  0  0
  151.1531  139.2242  158.2903 N   0  0  0  0  0  0  0  0  0  0  0  0
  150.7592  138.1444  157.5825 C   0  0  0  0  0  0  0  0  0  0  0  0
  149.6226  133.2578  155.2647 C   0  0  0  0  0  0  0  0  0  0  0  0
  150.8989  132.6335  155.8671 C   0  0  0  0  0  0  0  0  0  0  0  0
  149.0368  132.2911  154.2166 C   0  0  0  0  0  0  0  0  0  0  0  0
  146.0407  135.1944  153.1667 H   0  0  0  0  0  0  0  0  0  0  0  0
  146.4704  136.8505  153.6217 H   0  0  0  0  0  0  0  0  0  0  0  0
  145.3721  135.9094  154.6379 H   0  0  0  0  0  0  0  0  0  0  0  0
  148.5996  135.4112  153.1345 H   0  0  0  0  0  0  0  0  0  0  0  0
  150.6116  134.6210  153.8835 H   0  0  0  0  0  0  0  0  0  0  0  0
  150.3255  137.1166  154.4247 H   0  0  0  0  0  0  0  0  0  0  0  0
  151.5997  139.1146  154.4281 H   0  0  0  0  0  0  0  0  0  0  0  0
  152.3371  141.0971  155.7183 H   0  0  0  0  0  0  0  0  0  0  0  0
  151.1745  142.8058  157.1197 H   0  0  0  0  0  0  0  0  0  0  0  0
  150.3474  142.4813  158.6283 H   0  0  0  0  0  0  0  0  0  0  0  0
  152.9919  144.0031  158.2975 H   0  0  0  0  0  0  0  0  0  0  0  0
  150.9872  145.3560  157.6765 H   0  0  0  0  0  0  0  0  0  0  0  0
  151.7153  145.9469  159.1676 H   0  0  0  0  0  0  0  0  0  0  0  0
  150.2440  144.9796  159.2304 H   0  0  0  0  0  0  0  0  0  0  0  0
  154.0972  142.6138  159.8514 H   0  0  0  0  0  0  0  0  0  0  0  0
  154.1043  141.4522  162.0649 H   0  0  0  0  0  0  0  0  0  0  0  0
  152.5275  142.1479  162.4388 H   0  0  0  0  0  0  0  0  0  0  0  0
  153.9329  143.1949  162.2565 H   0  0  0  0  0  0  0  0  0  0  0  0
  151.5693  140.9515  160.3663 H   0  0  0  0  0  0  0  0  0  0  0  0
  153.1430  140.3305  159.8852 H   0  0  0  0  0  0  0  0  0  0  0  0
  150.3036  137.3654  158.1728 H   0  0  0  0  0  0  0  0  0  0  0  0
  148.8905  133.3351  156.0707 H   0  0  0  0  0  0  0  0  0  0  0  0
  151.6953  132.5722  155.1248 H   0  0  0  0  0  0  0  0  0  0  0  0
  150.7077  131.6233  156.2302 H   0  0  0  0  0  0  0  0  0  0  0  0
  151.2763  133.2042  156.7156 H   0  0  0  0  0  0  0  0  0  0  0  0
  149.7017  132.1916  153.3581 H   0  0  0  0  0  0  0  0  0  0  0  0
  148.0664  132.6247  153.8492 H   0  0  0  0  0  0  0  0  0  0  0  0
  148.8903  131.2965  154.6386 H   0  0  0  0  0  0  0  0  0  0  0  0
  1  2  1  0  0  0  0
  1 26  1  0  0  0  0
  1 27  1  0  0  0  0
  1 28  1  0  0  0  0
  2  3  2  0  0  0  0
  2  4  1  0  0  0  0
  4  5  1  0  0  0  0
  4 29  1  0  0  0  0
  5  6  1  0  0  0  0
  5 23  1  0  0  0  0
  5 30  1  0  0  0  0
  6  7  2  0  0  0  0
  6  8  1  0  0  0  0
  8  9  1  0  0  0  0
  8 31  1  0  0  0  0
  9 22  1  0  0  0  0
  9 10  2  0  0  0  0
 10 11  1  0  0  0  0
 10 32  1  0  0  0  0
 11 12  2  0  0  0  0
 11 33  1  0  0  0  0
 12 13  1  0  0  0  0
 12 21  1  0  0  0  0
 13 20  1  0  0  0  0
 13 14  1  0  0  0  0
 14 15  1  0  0  0  0
 14 34  1  0  0  0  0
 14 35  1  0  0  0  0
 15 16  1  0  0  0  0
 15 17  1  0  0  0  0
 15 36  1  0  0  0  0
 16 37  1  0  0  0  0
 16 38  1  0  0  0  0
 16 39  1  0  0  0  0
 17 18  1  0  0  0  0
 18 19  1  0  0  0  0
 18 20  1  0  0  0  0
 18 40  1  0  0  0  0
 19 41  1  0  0  0  0
 19 42  1  0  0  0  0
 19 43  1  0  0  0  0
 20 44  1  0  0  0  0
 20 45  1  0  0  0  0
 21 22  2  0  0  0  0
 22 46  1  0  0  0  0
 23 24  1  0  0  0  0
 23 25  1  0  0  0  0
 23 47  1  0  0  0  0
 24 48  1  0  0  0  0
 24 49  1  0  0  0  0
 24 50  1  0  0  0  0
 25 51  1  0  0  0  0
 25 52  1  0  0  0  0
 25 53  1  0  0  0  0
M  END
> <s_m_source_file>
AV-unprocessed.smi

> <i_m_source_file_index>
1966

> <i_lp_mmshare_version>
43012

> <i_f3d_flags>
0

> <s_epik_input>
W0NIM11DKD1PKVtOSF1bQ0BASF0oW0NIXShbQ0gzXSlbQ0gzXSlDKD1PKVtOSF1jMVtjSF1bY0hdYyhuW2NIXTEpTjJbQ0gyXVtDQEBIXShbQ0gzXSlPW0NAQEhdKFtDSDNdKVtDSDJdMg==

> <s_epik_cmdline>
J2VwaWtfcHl0aG9uJywgJy1waCcsICc3LjAnLCAnLXRuJywgJzgnLCAnLW1hJywgJzIwMCcsICctbWV0YWxfYmluZGluZycsICctaW1hZScsICc8aW5maWxlLm1hZT4nLCAnLW9tYWUnLCAnPG91dGZpbGUubWFlPic=

> <r_lp_tautomer_probability>
1

> <r_epik_Ionization_Penalty>
0.000679699

> <r_epik_Ionization_Penalty_Charging>
0

> <r_epik_Ionization_Penalty_Neutral>
0.000679699

> <r_epik_State_Penalty>
0.000430485

> <r_epik_Charging_Adjusted_Penalty>
0.000430485

> <i_epik_Tot_Q>
0

> <i_epik_Tot_abs_Q>
0

> <r_epik_Metal_State_Penalty>
-0

> <b_epik_Metal_Only>
0

> <s_lp_Force_Field>
OPLS_2005

> <r_lp_Energy>
24.6084

> <b_lp_Chiralities_Consistent>
1

> <s_lp_Variant>
AV-unprocessed.smi:1966-2

> <Gold.Version>
5.8.1

> <Gold.Id.Protein>
6NUR|6NUR_protein|mol2

> <Gold.PLP.Fitness>
44.6504

> <Gold.PLP.PLP>
-42.5325

> <Gold.PLP.part.hbond>
-1.3932

> <Gold.PLP.part.metal>
0.0000

> <Gold.PLP.part.buried>
-6.5706

> <Gold.PLP.part.nonpolar>
-34.6521

> <Gold.PLP.part.repulsive>
0.1114

> <Gold.PLP.ligand.clash>
0.0000

> <Gold.PLP.ligand.torsion>
0.6121

> <Gold.PLP.Chemscore.Hbond>
1.0000

> <Gold.PLP.Chemscore.CHOScore>
0.0000

> <Gold.PLP.Chemscore.Metal>
0.0000

> <Gold.Chemscore.Hbonds>
donor molecule, donor type, donor heavy atom, donor atom, acceptor molecule, acceptor atom, score
      L1  H     4    29       P1  7948  1.00

> <Gold.PLP.Chemscore.Internal.Correction>
0.3421

> <Gold.Rescore>
     Score         DG    S(hbond)    S(metal)    S(lipo)     H(rot)  DE(clash)    DE(int)     intcor
     13.28     -17.44       0.97        0.00     111.13       1.68       0.03       4.13       ----

> <Gold.Chemscore.Fitness>
13.2822

> <Gold.Chemscore.DG>
-17.4408

> <Gold.Chemscore.ZeroCoef>
-5.4800

> <Gold.Chemscore.Hbond>
0.9727

> <Gold.Chemscore.Metal>
0.0000

> <Gold.Chemscore.Lipo>
111.1306

> <Gold.Chemscore.Internal_Hbond>
0.0000

> <Gold.Chemscore.DEClash>
0.0253

> <Gold.Chemscore.DEInternal>
4.1332

> <Gold.Chemscore.Rot>
1.6759

> <Gold.Chemscore.Internal.Correction>
   9.000000E+99

> <Gold.Chemscore.Hbonds>
donor molecule, donor type, donor heavy atom, donor atom, acceptor molecule, acceptor atom, score
      L1  H     4    29       P1  7948  0.86

> <Gold.Chemscore.Hbond.Weighted>
-3.2487

> <Gold.Chemscore.Metal.Weighted>
-0.0000

> <Gold.Chemscore.Lipo.Weighted>
-13.0023

> <Gold.Chemscore.Internal_Hbond.Weighted>
0.0000

> <Gold.Chemscore.DEClash.Weighted>
0.0253

> <Gold.Chemscore.DEInternal.Weighted>
4.1332

> <Gold.Chemscore.Rot.Weighted>
4.2902

> <Gold.Chemscore.Internal.Correction.Weighted>
   9.000000E+99

> <Gold.Protein.RotatedTorsions>
[ 6907 6896 6895 6894 ] final   97.95 input  -60.11 | X-H torsion
[ 7974 7965 7964 7962 ] final -175.56 input  175.53 | X-H torsion
[ 8008 7997 7996 7995 ] final -141.42 input   59.86 | X-H torsion
[ 10167 10162 10161 10158 ] final   83.22 input  -65.29 | X-H torsion
[ 10718 10713 10712 10709 ] final   81.23 input   66.30 | X-H torsion
[ 10763 10752 10751 10750 ] final   99.34 input  -60.55 | X-H torsion
[ 11005 11000 10999 10996 ] final  -90.63 input  -57.11 | X-H torsion

> <Gold.Protein.ActiveResidues>
 VAL166  LYS551  ARG553  GLY616  TRP617  ASP618  TYR619  PRO620  LYS621  CYS622 
 ASP623  PHE694  ASN695  SER759  ASP760  ASP761  ALA762  ILE779  LEU786  VAL792 
 PHE793  MET794  SER795  GLU796  ALA797  LYS798  CYS799  TRP800  GLU811  SER814 

> <Gold.Protein.RotatedAtoms>
  152.5416  134.0655  159.8170 H   0  0  0  0  0  0  0  0  0  0  0  0  # atno 6907 bound_to 6896
  151.0776  133.5408  159.2630 H   0  0  0  0  0  0  0  0  0  0  0  0  # atno 6908 bound_to 6896
  151.2247  135.0540  159.9018 H   0  0  0  0  0  0  0  0  0  0  0  0  # atno 6909 bound_to 6896
  144.7128  140.1302  143.6399 H   0  0  0  0  0  0  0  0  0  0  0  0  # atno 7974 bound_to 7965
  155.4775  140.0557  157.2971 H   0  0  0  0  0  0  0  0  0  0  0  0  # atno 8008 bound_to 7997
  154.4673  140.2024  156.0037 H   0  0  0  0  0  0  0  0  0  0  0  0  # atno 8009 bound_to 7997
  156.0997  140.3221  155.7929 H   0  0  0  0  0  0  0  0  0  0  0  0  # atno 8010 bound_to 7997
  139.9207  144.6214  150.8443 H   0  0  0  0  0  0  0  0  0  0  0  0  # atno 10167 bound_to 10162
  157.6827  130.9995  150.2196 H   0  0  0  0  0  0  0  0  0  0  0  0  # atno 10718 bound_to 10713
  153.3002  135.4117  155.1245 H   0  0  0  0  0  0  0  0  0  0  0  0  # atno 10763 bound_to 10752
  154.8547  135.3539  154.5862 H   0  0  0  0  0  0  0  0  0  0  0  0  # atno 10764 bound_to 10752
  153.6287  135.7061  153.5341 H   0  0  0  0  0  0  0  0  0  0  0  0  # atno 10765 bound_to 10752
  141.1562  133.7704  156.9764 H   0  0  0  0  0  0  0  0  0  0  0  0  # atno 11005 bound_to 11000
  145.9294  139.2596  143.1334 LP  0  0  0  0  0  0  0  0  0  0  0  0  # atno 17320 bound_to 7965
  145.9539  140.8888  143.0245 LP  0  0  0  0  0  0  0  0  0  0  0  0  # atno 17321 bound_to 7965
  140.7663  143.3299  151.2433 LP  0  0  0  0  0  0  0  0  0  0  0  0  # atno 17342 bound_to 10162
  139.6864  143.9766  152.2836 LP  0  0  0  0  0  0  0  0  0  0  0  0  # atno 17343 bound_to 10162
  156.2850  130.3738  149.7897 LP  0  0  0  0  0  0  0  0  0  0  0  0  # atno 17370 bound_to 10713
  156.5574  130.8368  151.3318 LP  0  0  0  0  0  0  0  0  0  0  0  0  # atno 17371 bound_to 10713
  140.1095  134.9486  157.2044 LP  0  0  0  0  0  0  0  0  0  0  0  0  # atno 17394 bound_to 11000
  140.3213  134.2913  155.7246 LP  0  0  0  0  0  0  0  0  0  0  0  0  # atno 17395 bound_to 11000

$$$$
