AV-unprocessed.smi:1839|AV-procd|sdf|7486|dock6
  -GOLD-   22720 9183D 1   1.00000     0.00000
 Structure written by MMmdl.
 47 48  0  0  0  0  0  0  0  0  2 V2000
  151.5607  139.8155  157.1878 C   0  0  0  0  0  0  0  0  0  0  0  0
  150.3354  140.0675  156.4292 N   0  0  0  0  0  0  0  0  0  0  0  0
  149.2902  140.7614  157.1913 C   0  0  0  0  0  0  0  0  0  0  0  0
  150.1108  139.4180  155.2604 C   0  0  0  0  0  0  0  0  0  0  0  0
  150.6977  138.3725  154.9719 O   0  0  0  0  0  0  0  0  0  0  0  0
  149.1782  139.9630  154.4426 N   0  0  0  0  0  0  0  0  0  0  0  0
  148.9971  141.4131  154.2767 C   0  0  0  0  0  0  0  0  0  0  0  0
  147.4949  141.7447  154.2268 C   0  0  0  0  0  0  0  0  0  0  0  0
  146.7898  140.9407  153.1199 C   0  0  0  0  0  0  0  0  0  0  0  0
  147.1024  139.4330  153.2392 C   0  0  1  0  0  0  0  0  0  0  0  0
  146.4999  138.6295  152.0802 C   0  0  0  0  0  0  0  0  0  0  0  0
  146.9770  138.7119  150.9484 O   0  0  0  0  0  0  0  0  0  0  0  0
  145.4712  137.8247  152.3865 N   0  0  0  0  0  0  0  0  0  0  0  0
  144.8131  136.9069  151.4615 C   0  0  0  0  0  0  0  0  0  0  0  0
  144.2929  135.6195  152.1373 C   0  0  0  0  0  0  0  0  0  0  0  0
  144.6444  134.3434  151.3899 C   0  0  0  0  0  0  0  0  0  0  0  0
  145.8919  133.7018  151.5474 C   0  0  0  0  0  0  0  0  0  0  0  0
  146.1638  132.5333  150.8053 C   0  0  0  0  0  0  0  0  0  0  0  0
  145.1859  132.0328  149.9205 C   0  0  0  0  0  0  0  0  0  0  0  0
  143.9571  132.7134  149.8013 C   0  0  0  0  0  0  0  0  0  0  0  0
  143.7337  133.8278  150.5317 N   0  3  0  0  0  0  0  0  0  0  0  0
  148.6286  139.2108  153.3099 C   0  0  0  0  0  0  0  0  0  0  0  0
  152.4300  139.7474  156.5317 H   0  0  0  0  0  0  0  0  0  0  0  0
  151.4787  138.8819  157.7455 H   0  0  0  0  0  0  0  0  0  0  0  0
  151.7572  140.6198  157.8978 H   0  0  0  0  0  0  0  0  0  0  0  0
  148.2880  140.4229  156.9248 H   0  0  0  0  0  0  0  0  0  0  0  0
  149.3457  141.8375  157.0272 H   0  0  0  0  0  0  0  0  0  0  0  0
  149.4027  140.5856  158.2621 H   0  0  0  0  0  0  0  0  0  0  0  0
  149.4826  141.9908  155.0635 H   0  0  0  0  0  0  0  0  0  0  0  0
  149.4755  141.7247  153.3468 H   0  0  0  0  0  0  0  0  0  0  0  0
  147.0363  141.5199  155.1901 H   0  0  0  0  0  0  0  0  0  0  0  0
  147.3526  142.8126  154.0594 H   0  0  0  0  0  0  0  0  0  0  0  0
  145.7136  141.1110  153.1678 H   0  0  0  0  0  0  0  0  0  0  0  0
  147.1192  141.3159  152.1496 H   0  0  0  0  0  0  0  0  0  0  0  0
  146.6638  139.0719  154.1717 H   0  0  0  0  0  0  0  0  0  0  0  0
  145.1382  137.8264  153.3402 H   0  0  0  0  0  0  0  0  0  0  0  0
  143.9715  137.4451  151.0248 H   0  0  0  0  0  0  0  0  0  0  0  0
  145.4818  136.6603  150.6354 H   0  0  0  0  0  0  0  0  0  0  0  0
  144.6856  135.5555  153.1526 H   0  0  0  0  0  0  0  0  0  0  0  0
  143.2082  135.6733  152.2416 H   0  0  0  0  0  0  0  0  0  0  0  0
  146.6337  134.1018  152.2237 H   0  0  0  0  0  0  0  0  0  0  0  0
  147.1133  132.0289  150.9108 H   0  0  0  0  0  0  0  0  0  0  0  0
  145.3759  131.1412  149.3409 H   0  0  0  0  0  0  0  0  0  0  0  0
  143.1540  132.4056  149.1471 H   0  0  0  0  0  0  0  0  0  0  0  0
  149.1170  139.5332  152.3885 H   0  0  0  0  0  0  0  0  0  0  0  0
  148.8285  138.1430  153.4117 H   0  0  0  0  0  0  0  0  0  0  0  0
  142.8388  134.3071  150.4269 H   0  0  0  0  0  0  0  0  0  0  0  0
  1  2  1  0  0  0  0
  1 23  1  0  0  0  0
  1 24  1  0  0  0  0
  1 25  1  0  0  0  0
  2  3  1  0  0  0  0
  2  4  1  0  0  0  0
  3 26  1  0  0  0  0
  3 27  1  0  0  0  0
  3 28  1  0  0  0  0
  4  5  2  0  0  0  0
  4  6  1  0  0  0  0
  6 22  1  0  0  0  0
  6  7  1  0  0  0  0
  7  8  1  0  0  0  0
  7 29  1  0  0  0  0
  7 30  1  0  0  0  0
  8  9  1  0  0  0  0
  8 31  1  0  0  0  0
  8 32  1  0  0  0  0
  9 10  1  0  0  0  0
  9 33  1  0  0  0  0
  9 34  1  0  0  0  0
 10 11  1  0  0  0  0
 10 22  1  0  0  0  0
 10 35  1  0  0  0  0
 11 12  2  0  0  0  0
 11 13  1  0  0  0  0
 13 14  1  0  0  0  0
 13 36  1  0  0  0  0
 14 15  1  0  0  0  0
 14 37  1  0  0  0  0
 14 38  1  0  0  0  0
 15 16  1  0  0  0  0
 15 39  1  0  0  0  0
 15 40  1  0  0  0  0
 16 21  1  0  0  0  0
 16 17  2  0  0  0  0
 17 18  1  0  0  0  0
 17 41  1  0  0  0  0
 18 19  2  0  0  0  0
 18 42  1  0  0  0  0
 19 20  1  0  0  0  0
 19 43  1  0  0  0  0
 20 21  2  0  0  0  0
 20 44  1  0  0  0  0
 21 47  1  0  0  0  0
 22 45  1  0  0  0  0
 22 46  1  0  0  0  0
M  CHG  1  21   1
M  END
> <s_m_source_file>
AV-unprocessed.smi

> <i_m_source_file_index>
1839

> <i_lp_mmshare_version>
43012

> <i_f3d_flags>
0

> <s_epik_input>
W0NIM11OKFtDSDNdKUMoPU8pTjFbQ0gyXVtDSDJdW0NIMl1bQ0BIXShbQ0gyXTEpQyg9TylbTkhdW0NIMl1bQ0gyXWMyW2NIXVtjSF1bY0hdW2NIXW4y

> <s_epik_cmdline>
J2VwaWtfcHl0aG9uJywgJy1waCcsICc3LjAnLCAnLXRuJywgJzgnLCAnLW1hJywgJzIwMCcsICctbWV0YWxfYmluZGluZycsICctaW1hZScsICc8aW5maWxlLm1hZT4nLCAnLW9tYWUnLCAnPG91dGZpbGUubWFlPic=

> <r_epik_Ionization_Penalty>
1.8476

> <r_epik_Ionization_Penalty_Charging>
1.84754

> <r_epik_Ionization_Penalty_Neutral>
5.83857e-05

> <r_epik_State_Penalty>
1.96477

> <r_epik_Charging_Adjusted_Penalty>
3.81231

> <i_epik_Tot_Q>
1

> <i_epik_Tot_abs_Q>
1

> <r_epik_Metal_State_Penalty>
1.99061

> <b_epik_Metal_Only>
0

> <s_lp_Force_Field>
OPLS_2005

> <r_lp_Energy>
54.126

> <b_lp_Chiralities_Consistent>
1

> <s_lp_Variant>
AV-unprocessed.smi:1839-3

> <Gold.Version>
5.8.1

> <Gold.Id.Protein>
6NUR|6NUR_protein|mol2

> <Gold.PLP.Fitness>
43.9749

> <Gold.PLP.PLP>
-37.2123

> <Gold.PLP.part.hbond>
-3.1563

> <Gold.PLP.part.metal>
0.0000

> <Gold.PLP.part.buried>
3.8018

> <Gold.PLP.part.nonpolar>
-40.0723

> <Gold.PLP.part.repulsive>
1.8856

> <Gold.PLP.ligand.clash>
0.0000

> <Gold.PLP.ligand.torsion>
1.6652

> <Gold.PLP.Chemscore.Hbond>
2.9280

> <Gold.PLP.Chemscore.CHOScore>
0.0000

> <Gold.PLP.Chemscore.Metal>
0.0000

> <Gold.Chemscore.Hbonds>
donor molecule, donor type, donor heavy atom, donor atom, acceptor molecule, acceptor atom, score
      L1  H    21    47       P1 10186  2.00
      P1  H  7954  7966       L1    12  0.91

> <Gold.PLP.Chemscore.Internal.Correction>
1.3090

> <Gold.Rescore>
     Score         DG    S(hbond)    S(metal)    S(lipo)     H(rot)  DE(clash)    DE(int)     intcor
     13.70     -19.02       1.83        0.00      98.47       1.60       3.48       1.84       ----

> <Gold.Chemscore.Fitness>
13.7028

> <Gold.Chemscore.DG>
-19.0191

> <Gold.Chemscore.ZeroCoef>
-5.4800

> <Gold.Chemscore.Hbond>
1.8345

> <Gold.Chemscore.Metal>
0.0000

> <Gold.Chemscore.Lipo>
98.4661

> <Gold.Chemscore.Internal_Hbond>
0.0000

> <Gold.Chemscore.DEClash>
3.4800

> <Gold.Chemscore.DEInternal>
1.8363

> <Gold.Chemscore.Rot>
1.6049

> <Gold.Chemscore.Internal.Correction>
   9.000000E+99

> <Gold.Chemscore.Hbonds>
donor molecule, donor type, donor heavy atom, donor atom, acceptor molecule, acceptor atom, score
      L1  H    21    47       P1 10186  0.66
      P1  H  7954  7966       L1    12  0.90

> <Gold.Chemscore.Hbond.Weighted>
-6.1272

> <Gold.Chemscore.Metal.Weighted>
-0.0000

> <Gold.Chemscore.Lipo.Weighted>
-11.5205

> <Gold.Chemscore.Internal_Hbond.Weighted>
0.0000

> <Gold.Chemscore.DEClash.Weighted>
3.4800

> <Gold.Chemscore.DEInternal.Weighted>
1.8363

> <Gold.Chemscore.Rot.Weighted>
4.1087

> <Gold.Chemscore.Internal.Correction.Weighted>
   9.000000E+99

> <Gold.Protein.RotatedTorsions>
[ 6907 6896 6895 6894 ] final  -99.26 input  -60.11 | X-H torsion
[ 7974 7965 7964 7962 ] final -167.70 input  175.53 | X-H torsion
[ 8008 7997 7996 7995 ] final   49.16 input   59.86 | X-H torsion
[ 10167 10162 10161 10158 ] final -161.89 input  -65.29 | X-H torsion
[ 10718 10713 10712 10709 ] final  -82.35 input   66.30 | X-H torsion
[ 10763 10752 10751 10750 ] final  -15.82 input  -60.55 | X-H torsion
[ 11005 11000 10999 10996 ] final -163.07 input  -57.11 | X-H torsion

> <Gold.Protein.ActiveResidues>
 VAL166  LYS551  ARG553  GLY616  TRP617  ASP618  TYR619  PRO620  LYS621  CYS622 
 ASP623  PHE694  ASN695  SER759  ASP760  ASP761  ALA762  ILE779  LEU786  VAL792 
 PHE793  MET794  SER795  GLU796  ALA797  LYS798  CYS799  TRP800  GLU811  SER814 

> <Gold.Protein.RotatedAtoms>
  150.7074  134.1068  159.3985 H   0  0  0  0  0  0  0  0  0  0  0  0  # atno 6907 bound_to 6896
  151.9055  135.0358  160.0519 H   0  0  0  0  0  0  0  0  0  0  0  0  # atno 6908 bound_to 6896
  152.2379  133.5076  159.5290 H   0  0  0  0  0  0  0  0  0  0  0  0  # atno 6909 bound_to 6896
  144.7218  140.2479  143.6282 H   0  0  0  0  0  0  0  0  0  0  0  0  # atno 7974 bound_to 7965
  155.3975  140.3436  155.4255 H   0  0  0  0  0  0  0  0  0  0  0  0  # atno 8008 bound_to 7997
  156.1522  140.1574  156.8783 H   0  0  0  0  0  0  0  0  0  0  0  0  # atno 8009 bound_to 7997
  154.5063  140.0801  156.7881 H   0  0  0  0  0  0  0  0  0  0  0  0  # atno 8010 bound_to 7997
  139.6432  144.0221  152.2107 H   0  0  0  0  0  0  0  0  0  0  0  0  # atno 10167 bound_to 10162
  156.0034  130.4631  150.4092 H   0  0  0  0  0  0  0  0  0  0  0  0  # atno 10718 bound_to 10713
  153.5491  135.7012  153.5600 H   0  0  0  0  0  0  0  0  0  0  0  0  # atno 10763 bound_to 10752
  153.3532  135.3989  155.1662 H   0  0  0  0  0  0  0  0  0  0  0  0  # atno 10764 bound_to 10752
  154.8663  135.3770  154.5001 H   0  0  0  0  0  0  0  0  0  0  0  0  # atno 10765 bound_to 10752
  140.6022  134.4935  157.5206 H   0  0  0  0  0  0  0  0  0  0  0  0  # atno 11005 bound_to 11000
  145.8256  139.2063  143.1912 LP  0  0  0  0  0  0  0  0  0  0  0  0  # atno 17320 bound_to 7965
  146.0476  140.8102  142.9798 LP  0  0  0  0  0  0  0  0  0  0  0  0  # atno 17321 bound_to 7965
  139.9916  144.6357  150.7809 LP  0  0  0  0  0  0  0  0  0  0  0  0  # atno 17342 bound_to 10162
  140.7501  143.2950  151.3229 LP  0  0  0  0  0  0  0  0  0  0  0  0  # atno 17343 bound_to 10162
  157.2156  131.0470  151.2575 LP  0  0  0  0  0  0  0  0  0  0  0  0  # atno 17370 bound_to 10713
  157.3849  130.7251  149.6656 LP  0  0  0  0  0  0  0  0  0  0  0  0  # atno 17371 bound_to 10713
  139.9227  134.8116  156.1161 LP  0  0  0  0  0  0  0  0  0  0  0  0  # atno 17394 bound_to 11000
  141.0864  133.6732  156.2446 LP  0  0  0  0  0  0  0  0  0  0  0  0  # atno 17395 bound_to 11000

$$$$
